
     RDKit          3D

 44 46  0  0  0  0  0  0  0  0999 V2000
   -7.0621    1.9317    0.6445 C   0  0  0  0  0  0  0  0  0  0  0  0
   -6.3203    1.4081   -0.4473 O   0  0  0  0  0  0  0  0  0  0  0  0
   -4.9594    1.3017   -0.3016 C   0  0  0  0  0  0  0  0  0  0  0  0
   -4.2502    1.7232    0.8275 C   0  0  0  0  0  0  0  0  0  0  0  0
   -2.8615    1.5768    0.8870 C   0  0  0  0  0  0  0  0  0  0  0  0
   -2.1670    0.9979   -0.1776 C   0  0  0  0  0  0  0  0  0  0  0  0
   -0.7065    0.8429   -0.1464 C   0  0  0  0  0  0  0  0  0  0  0  0
   -0.0111    0.0889    0.7292 C   0  0  0  0  0  0  0  0  0  0  0  0
   -0.6360   -0.6690    1.7558 C   0  0  0  0  0  0  0  0  0  0  0  0
   -1.0743   -1.2833    2.6372 N   0  0  0  0  0  0  0  0  0  0  0  0
    1.4872    0.0502    0.5698 C   0  0  0  0  0  0  0  0  0  0  0  0
    2.0231    0.6926   -0.3292 O   0  0  0  0  0  0  0  0  0  0  0  0
    2.1614   -0.6925    1.5253 N   0  0  0  0  0  0  0  0  0  0  0  0
    3.5689   -0.8783    1.6042 C   0  0  0  0  0  0  0  0  0  0  0  0
    4.0825   -0.8925    2.9100 C   0  0  0  0  0  0  0  0  0  0  0  0
    5.4487   -1.0029    3.1296 C   0  0  0  0  0  0  0  0  0  0  0  0
    6.3094   -1.1240    2.0433 C   0  0  0  0  0  0  0  0  0  0  0  0
    5.8420   -1.1778    0.7404 C   0  0  0  0  0  0  0  0  0  0  0  0
    6.7589   -1.3548   -0.2268 N   0  0  0  0  0  0  0  0  0  0  0  0
    6.3308   -1.4814   -1.4979 C   0  0  0  0  0  0  0  0  0  0  0  0
    5.0028   -1.4616   -1.8571 C   0  0  0  0  0  0  0  0  0  0  0  0
    4.0613   -1.2734   -0.8503 C   0  0  0  0  0  0  0  0  0  0  0  0
    4.4492   -1.0817    0.4967 C   0  0  0  0  0  0  0  0  0  0  0  0
   -2.8711    0.5868   -1.3166 C   0  0  0  0  0  0  0  0  0  0  0  0
   -4.2627    0.7317   -1.3862 C   0  0  0  0  0  0  0  0  0  0  0  0
   -5.0291    0.3516   -2.4606 O   0  0  0  0  0  0  0  0  0  0  0  0
   -4.3683   -0.2318   -3.5738 C   0  0  0  0  0  0  0  0  0  0  0  0
   -6.7847    2.9714    0.8469 H   0  0  0  0  0  0  0  0  0  0  0  0
   -6.9456    1.3091    1.5376 H   0  0  0  0  0  0  0  0  0  0  0  0
   -8.1204    1.9188    0.3667 H   0  0  0  0  0  0  0  0  0  0  0  0
   -4.7484    2.1749    1.6790 H   0  0  0  0  0  0  0  0  0  0  0  0
   -2.3367    1.9275    1.7731 H   0  0  0  0  0  0  0  0  0  0  0  0
   -0.1890    1.3875   -0.9365 H   0  0  0  0  0  0  0  0  0  0  0  0
    1.6685   -0.8892    2.3900 H   0  0  0  0  0  0  0  0  0  0  0  0
    3.4304   -0.7739    3.7723 H   0  0  0  0  0  0  0  0  0  0  0  0
    5.8482   -0.9854    4.1402 H   0  0  0  0  0  0  0  0  0  0  0  0
    7.3804   -1.2044    2.2183 H   0  0  0  0  0  0  0  0  0  0  0  0
    7.1121   -1.6175   -2.2395 H   0  0  0  0  0  0  0  0  0  0  0  0
    4.7006   -1.5897   -2.8897 H   0  0  0  0  0  0  0  0  0  0  0  0
    3.0144   -1.2933   -1.1331 H   0  0  0  0  0  0  0  0  0  0  0  0
   -2.3147    0.1516   -2.1407 H   0  0  0  0  0  0  0  0  0  0  0  0
   -3.8743   -1.1680   -3.2935 H   0  0  0  0  0  0  0  0  0  0  0  0
   -5.1266   -0.4693   -4.3261 H   0  0  0  0  0  0  0  0  0  0  0  0
   -3.6607    0.4709   -4.0260 H   0  0  0  0  0  0  0  0  0  0  0  0
  1  2  1  0
  2  3  1  0
  3  4  2  0
  4  5  1  0
  5  6  2  0
  6  7  1  0
  7  8  2  3
  8  9  1  0
  9 10  3  0
  8 11  1  0
 11 12  2  0
 11 13  1  0
 13 14  1  0
 14 15  2  0
 15 16  1  0
 16 17  2  0
 17 18  1  0
 18 19  2  0
 19 20  1  0
 20 21  2  0
 21 22  1  0
 22 23  2  0
  6 24  1  0
 24 25  2  0
 25 26  1  0
 26 27  1  0
 25  3  1  0
 23 14  1  0
 23 18  1  0
  1 28  1  0
  1 29  1  0
  1 30  1  0
  4 31  1  0
  5 32  1  0
  7 33  1  0
 13 34  1  0
 15 35  1  0
 16 36  1  0
 17 37  1  0
 20 38  1  0
 21 39  1  0
 22 40  1  0
 24 41  1  0
 27 42  1  0
 27 43  1  0
 27 44  1  0
M  END
$$$$
