
     RDKit          3D

 56 58  0  0  0  0  0  0  0  0999 V2000
    6.4138    1.8565   -5.0162 C   0  0  0  0  0  0  0  0  0  0  0  0
    5.7400    1.0346   -4.0731 O   0  0  0  0  0  0  0  0  0  0  0  0
    4.4463    1.3601   -3.7724 C   0  0  0  0  0  0  0  0  0  0  0  0
    3.7509    2.4662   -4.2578 C   0  0  0  0  0  0  0  0  0  0  0  0
    2.4249    2.6931   -3.8708 C   0  0  0  0  0  0  0  0  0  0  0  0
    1.7866    1.8121   -2.9955 C   0  0  0  0  0  0  0  0  0  0  0  0
    0.4901    1.9423   -2.5516 O   0  0  0  0  0  0  0  0  0  0  0  0
   -0.2548    3.0488   -3.0449 C   0  0  0  0  0  0  0  0  0  0  0  0
    2.4869    0.6923   -2.5004 C   0  0  0  0  0  0  0  0  0  0  0  0
    1.7798   -0.1599   -1.6250 N   0  0  0  0  0  0  0  0  0  0  0  0
    2.2278   -1.2726   -0.9430 C   0  0  0  0  0  0  0  0  0  0  0  0
    3.3628   -1.7397   -0.9933 O   0  0  0  0  0  0  0  0  0  0  0  0
    1.1419   -1.9727   -0.1362 C   0  0  0  0  0  0  0  0  0  0  0  0
    0.1511   -0.7847    0.8222 S   0  0  0  0  0  0  0  0  0  0  0  0
   -1.0818   -1.8469    1.4773 C   0  0  0  0  0  0  0  0  0  0  0  0
   -0.8258   -3.1123    1.5122 N   0  0  0  0  0  0  0  0  0  0  0  0
   -1.7820   -3.9759    2.0537 C   0  0  0  0  0  0  0  0  0  0  0  0
   -1.5274   -5.3493    2.0613 C   0  0  0  0  0  0  0  0  0  0  0  0
   -2.4553   -6.2419    2.6057 C   0  0  0  0  0  0  0  0  0  0  0  0
   -3.6481   -5.7656    3.1478 C   0  0  0  0  0  0  0  0  0  0  0  0
   -3.9120   -4.3968    3.1467 C   0  0  0  0  0  0  0  0  0  0  0  0
   -2.9747   -3.5130    2.5980 C   0  0  0  0  0  0  0  0  0  0  0  0
   -3.2132   -2.0612    2.5802 C   0  0  0  0  0  0  0  0  0  0  0  0
   -4.2128   -1.6127    3.1344 O   0  0  0  0  0  0  0  0  0  0  0  0
   -2.2562   -1.2746    1.9421 N   0  0  0  0  0  0  0  0  0  0  0  0
   -2.5372    0.1692    1.9014 C   0  0  0  0  0  0  0  0  0  0  0  0
   -2.0725    0.8777    3.1838 C   0  0  0  0  0  0  0  0  0  0  0  0
   -1.7352    2.2792    2.9948 N   0  0  0  0  0  0  0  0  0  0  0  0
   -2.6598    3.1985    2.5583 C   0  0  0  0  0  0  0  0  0  0  0  0
   -2.1659    4.6197    2.5567 C   0  0  0  0  0  0  0  0  0  0  0  0
   -3.7921    2.9019    2.1945 O   0  0  0  0  0  0  0  0  0  0  0  0
    3.8098    0.4777   -2.8926 C   0  0  0  0  0  0  0  0  0  0  0  0
    6.5361    2.8748   -4.6336 H   0  0  0  0  0  0  0  0  0  0  0  0
    7.4124    1.4366   -5.1738 H   0  0  0  0  0  0  0  0  0  0  0  0
    5.8974    1.8550   -5.9811 H   0  0  0  0  0  0  0  0  0  0  0  0
    4.2115    3.1751   -4.9380 H   0  0  0  0  0  0  0  0  0  0  0  0
    1.9232    3.5662   -4.2729 H   0  0  0  0  0  0  0  0  0  0  0  0
   -1.2572    2.9961   -2.6099 H   0  0  0  0  0  0  0  0  0  0  0  0
    0.1948    3.9970   -2.7326 H   0  0  0  0  0  0  0  0  0  0  0  0
   -0.3615    2.9989   -4.1330 H   0  0  0  0  0  0  0  0  0  0  0  0
    0.8308    0.1498   -1.4295 H   0  0  0  0  0  0  0  0  0  0  0  0
    0.5064   -2.5271   -0.8335 H   0  0  0  0  0  0  0  0  0  0  0  0
    1.6253   -2.6749    0.5501 H   0  0  0  0  0  0  0  0  0  0  0  0
   -0.5973   -5.7246    1.6414 H   0  0  0  0  0  0  0  0  0  0  0  0
   -2.2445   -7.3087    2.6051 H   0  0  0  0  0  0  0  0  0  0  0  0
   -4.3706   -6.4596    3.5712 H   0  0  0  0  0  0  0  0  0  0  0  0
   -4.8421   -4.0212    3.5672 H   0  0  0  0  0  0  0  0  0  0  0  0
   -3.6164    0.3173    1.7732 H   0  0  0  0  0  0  0  0  0  0  0  0
   -2.0754    0.6172    1.0170 H   0  0  0  0  0  0  0  0  0  0  0  0
   -2.8502    0.8160    3.9531 H   0  0  0  0  0  0  0  0  0  0  0  0
   -1.1727    0.4012    3.5867 H   0  0  0  0  0  0  0  0  0  0  0  0
   -0.8818    2.6176    3.4208 H   0  0  0  0  0  0  0  0  0  0  0  0
   -1.0825    4.6725    2.6917 H   0  0  0  0  0  0  0  0  0  0  0  0
   -2.6529    5.1682    3.3664 H   0  0  0  0  0  0  0  0  0  0  0  0
   -2.4134    5.0821    1.5976 H   0  0  0  0  0  0  0  0  0  0  0  0
    4.3749   -0.3756   -2.5312 H   0  0  0  0  0  0  0  0  0  0  0  0
  1  2  1  0
  2  3  1  0
  3  4  2  0
  4  5  1  0
  5  6  2  0
  6  7  1  0
  7  8  1  0
  6  9  1  0
  9 10  1  0
 10 11  1  0
 11 12  2  0
 11 13  1  0
 13 14  1  0
 14 15  1  0
 15 16  2  0
 16 17  1  0
 17 18  2  0
 18 19  1  0
 19 20  2  0
 20 21  1  0
 21 22  2  0
 22 23  1  0
 23 24  2  0
 23 25  1  0
 25 26  1  0
 26 27  1  0
 27 28  1  0
 28 29  1  0
 29 30  1  0
 29 31  2  0
  9 32  2  0
 32  3  1  0
 25 15  1  0
 22 17  1  0
  1 33  1  0
  1 34  1  0
  1 35  1  0
  4 36  1  0
  5 37  1  0
  8 38  1  0
  8 39  1  0
  8 40  1  0
 10 41  1  0
 13 42  1  0
 13 43  1  0
 18 44  1  0
 19 45  1  0
 20 46  1  0
 21 47  1  0
 26 48  1  0
 26 49  1  0
 27 50  1  0
 27 51  1  0
 28 52  1  0
 30 53  1  0
 30 54  1  0
 30 55  1  0
 32 56  1  0
M  END
$$$$
