
     RDKit          3D

 55 60  0  0  0  0  0  0  0  0999 V2000
    4.1329   -2.8061    1.2182 O   0  0  0  0  0  0  0  0  0  0  0  0
    3.8558   -1.6078    1.2043 C   0  0  0  0  0  0  0  0  0  0  0  0
    4.6865   -0.6595    1.9345 C   0  0  0  0  0  0  0  0  0  0  0  0
    5.0421    0.6953    1.6625 C   0  0  0  0  0  0  0  0  0  0  0  0
    5.8866    1.0935    2.6724 C   0  0  0  0  0  0  0  0  0  0  0  0
    6.0982    0.0738    3.5404 O   0  0  0  0  0  0  0  0  0  0  0  0
    5.3886   -0.9868    3.0794 C   0  0  0  0  0  0  0  0  0  0  0  0
    2.7581   -1.1220    0.4852 N   0  0  0  0  0  0  0  0  0  0  0  0
    2.0364   -2.0653   -0.3621 C   0  0  0  0  0  0  0  0  0  0  0  0
    1.2784   -1.3366   -1.4652 C   0  0  0  0  0  0  0  0  0  0  0  0
    0.2303   -0.3183   -0.9161 C   0  0  0  0  0  0  0  0  0  0  0  0
    0.5819    0.0476    0.5525 C   0  0  0  0  0  0  0  0  0  0  0  0
    2.0916    0.1478    0.7658 C   0  0  0  0  0  0  0  0  0  0  0  0
    0.3750    0.9345   -1.6401 O   0  0  0  0  0  0  0  0  0  0  0  0
   -0.0979    0.9446   -2.9221 C   0  0  0  0  0  0  0  0  0  0  0  0
    0.3826    1.9636   -3.7462 C   0  0  0  0  0  0  0  0  0  0  0  0
   -0.0344    2.0379   -5.0761 C   0  0  0  0  0  0  0  0  0  0  0  0
   -0.9324    1.0968   -5.5699 C   0  0  0  0  0  0  0  0  0  0  0  0
   -1.3287    1.1732   -6.8462 F   0  0  0  0  0  0  0  0  0  0  0  0
   -1.4310    0.0868   -4.7572 C   0  0  0  0  0  0  0  0  0  0  0  0
   -1.0147    0.0217   -3.4248 C   0  0  0  0  0  0  0  0  0  0  0  0
   -1.5619   -1.0074   -2.5222 C   0  0  0  0  0  0  0  0  0  0  0  0
   -2.2762   -1.8940   -2.9786 O   0  0  0  0  0  0  0  0  0  0  0  0
   -1.2306   -0.8372   -1.0426 C   0  0  0  0  0  0  0  0  0  0  0  0
   -2.3105    0.0494   -0.4326 C   0  0  0  0  0  0  0  0  0  0  0  0
   -2.6332   -0.7558    0.7770 C   0  0  0  0  0  0  0  0  0  0  0  0
   -3.5009   -0.2353    1.8596 C   0  0  0  0  0  0  0  0  0  0  0  0
   -3.6862   -1.0115    3.0120 C   0  0  0  0  0  0  0  0  0  0  0  0
   -4.4952   -0.5479    4.0531 C   0  0  0  0  0  0  0  0  0  0  0  0
   -5.1205    0.6918    3.9426 C   0  0  0  0  0  0  0  0  0  0  0  0
   -6.1162    1.2661    5.2217 Cl  0  0  0  0  0  0  0  0  0  0  0  0
   -4.9452    1.4701    2.7990 C   0  0  0  0  0  0  0  0  0  0  0  0
   -4.1368    1.0076    1.7550 C   0  0  0  0  0  0  0  0  0  0  0  0
   -2.0991   -1.9337    0.8055 N   0  0  0  0  0  0  0  0  0  0  0  0
   -1.3615   -2.1030   -0.3870 O   0  0  0  0  0  0  0  0  0  0  0  0
    4.7408    1.3036    0.8225 H   0  0  0  0  0  0  0  0  0  0  0  0
    6.4086    2.0137    2.8965 H   0  0  0  0  0  0  0  0  0  0  0  0
    5.4752   -1.8969    3.6583 H   0  0  0  0  0  0  0  0  0  0  0  0
    1.3575   -2.6455    0.2735 H   0  0  0  0  0  0  0  0  0  0  0  0
    2.7463   -2.7707   -0.8090 H   0  0  0  0  0  0  0  0  0  0  0  0
    2.0096   -0.8118   -2.0952 H   0  0  0  0  0  0  0  0  0  0  0  0
    0.8068   -2.0840   -2.1130 H   0  0  0  0  0  0  0  0  0  0  0  0
    0.1970   -0.7039    1.2501 H   0  0  0  0  0  0  0  0  0  0  0  0
    0.1338    1.0104    0.8258 H   0  0  0  0  0  0  0  0  0  0  0  0
    2.2834    0.4503    1.7999 H   0  0  0  0  0  0  0  0  0  0  0  0
    2.5195    0.9025    0.0974 H   0  0  0  0  0  0  0  0  0  0  0  0
    1.0907    2.6927   -3.3594 H   0  0  0  0  0  0  0  0  0  0  0  0
    0.3379    2.8197   -5.7322 H   0  0  0  0  0  0  0  0  0  0  0  0
   -2.1394   -0.6296   -5.1640 H   0  0  0  0  0  0  0  0  0  0  0  0
   -3.2103    0.1242   -1.0533 H   0  0  0  0  0  0  0  0  0  0  0  0
   -1.9633    1.0547   -0.1843 H   0  0  0  0  0  0  0  0  0  0  0  0
   -3.2051   -1.9839    3.1075 H   0  0  0  0  0  0  0  0  0  0  0  0
   -4.6328   -1.1595    4.9413 H   0  0  0  0  0  0  0  0  0  0  0  0
   -5.4392    2.4349    2.7128 H   0  0  0  0  0  0  0  0  0  0  0  0
   -4.0286    1.6317    0.8729 H   0  0  0  0  0  0  0  0  0  0  0  0
  1  2  2  0
  2  3  1  0
  3  4  1  0
  4  5  2  0
  5  6  1  0
  6  7  1  0
  2  8  1  0
  8  9  1  0
  9 10  1  0
 10 11  1  0
 11 12  1  0
 12 13  1  0
 11 14  1  0
 14 15  1  0
 15 16  2  0
 16 17  1  0
 17 18  2  0
 18 19  1  0
 18 20  1  0
 20 21  2  0
 21 22  1  0
 22 23  2  0
 22 24  1  0
 24 25  1  0
 25 26  1  0
 26 27  1  0
 27 28  2  0
 28 29  1  0
 29 30  2  0
 30 31  1  0
 30 32  1  0
 32 33  2  0
 26 34  2  0
 34 35  1  0
  7  3  2  0
 13  8  1  0
 21 15  1  0
 35 24  1  0
 24 11  1  0
 33 27  1  0
  4 36  1  0
  5 37  1  0
  7 38  1  0
  9 39  1  0
  9 40  1  0
 10 41  1  0
 10 42  1  0
 12 43  1  0
 12 44  1  0
 13 45  1  0
 13 46  1  0
 16 47  1  0
 17 48  1  0
 20 49  1  0
 25 50  1  0
 25 51  1  0
 28 52  1  0
 29 53  1  0
 32 54  1  0
 33 55  1  0
M  END
$$$$
