
     RDKit          3D

 33 35  0  0  0  0  0  0  0  0999 V2000
    5.5297   -0.1944   -0.3346 C   0  0  0  0  0  0  0  0  0  0  0  0
    4.6557   -1.2552    0.0293 O   0  0  0  0  0  0  0  0  0  0  0  0
    3.3385   -0.9405    0.2168 C   0  0  0  0  0  0  0  0  0  0  0  0
    2.5288   -2.0200    0.5762 C   0  0  0  0  0  0  0  0  0  0  0  0
    1.1610   -1.8435    0.7912 C   0  0  0  0  0  0  0  0  0  0  0  0
    0.5883   -0.5755    0.6507 C   0  0  0  0  0  0  0  0  0  0  0  0
    1.3942    0.5233    0.3082 C   0  0  0  0  0  0  0  0  0  0  0  0
    2.7686    0.3275    0.0798 C   0  0  0  0  0  0  0  0  0  0  0  0
    0.7989    1.8978    0.1423 C   0  0  0  0  0  0  0  0  0  0  0  0
   -0.4894    2.0521    0.9463 C   0  0  0  0  0  0  0  0  0  0  0  0
   -1.4490    0.9396    0.6105 C   0  0  0  0  0  0  0  0  0  0  0  0
   -2.6906    1.2063    0.1673 C   0  0  0  0  0  0  0  0  0  0  0  0
   -3.6900    0.2873   -0.2574 C   0  0  0  0  0  0  0  0  0  0  0  0
   -3.6290   -1.0002   -0.7809 C   0  0  0  0  0  0  0  0  0  0  0  0
   -4.9478   -1.4293   -1.0653 C   0  0  0  0  0  0  0  0  0  0  0  0
   -5.7601   -0.3805   -0.7270 C   0  0  0  0  0  0  0  0  0  0  0  0
   -5.0230    0.6543   -0.2606 O   0  0  0  0  0  0  0  0  0  0  0  0
   -0.8788   -0.4211    0.8641 C   0  0  0  0  0  0  0  0  0  0  0  0
   -1.5495   -1.3592    1.2738 O   0  0  0  0  0  0  0  0  0  0  0  0
    5.2444    0.2385   -1.2991 H   0  0  0  0  0  0  0  0  0  0  0  0
    5.5681    0.5712    0.4473 H   0  0  0  0  0  0  0  0  0  0  0  0
    6.5356   -0.6116   -0.4416 H   0  0  0  0  0  0  0  0  0  0  0  0
    2.9664   -3.0097    0.6859 H   0  0  0  0  0  0  0  0  0  0  0  0
    0.5463   -2.6991    1.0641 H   0  0  0  0  0  0  0  0  0  0  0  0
    3.3735    1.1840   -0.2019 H   0  0  0  0  0  0  0  0  0  0  0  0
    1.5142    2.6585    0.4774 H   0  0  0  0  0  0  0  0  0  0  0  0
    0.6047    2.0686   -0.9240 H   0  0  0  0  0  0  0  0  0  0  0  0
   -0.2709    2.0218    2.0221 H   0  0  0  0  0  0  0  0  0  0  0  0
   -0.9227    3.0386    0.7427 H   0  0  0  0  0  0  0  0  0  0  0  0
   -3.0004    2.2471    0.1023 H   0  0  0  0  0  0  0  0  0  0  0  0
   -2.7286   -1.5768   -0.9383 H   0  0  0  0  0  0  0  0  0  0  0  0
   -5.2595   -2.3823   -1.4674 H   0  0  0  0  0  0  0  0  0  0  0  0
   -6.8279   -0.2176   -0.7593 H   0  0  0  0  0  0  0  0  0  0  0  0
  1  2  1  0
  2  3  1  0
  3  4  2  0
  4  5  1  0
  5  6  2  0
  6  7  1  0
  7  8  2  0
  7  9  1  0
  9 10  1  0
 10 11  1  0
 11 12  2  3
 12 13  1  0
 13 14  2  0
 14 15  1  0
 15 16  2  0
 16 17  1  0
 11 18  1  0
 18 19  2  0
  8  3  1  0
 17 13  1  0
 18  6  1  0
  1 20  1  0
  1 21  1  0
  1 22  1  0
  4 23  1  0
  5 24  1  0
  8 25  1  0
  9 26  1  0
  9 27  1  0
 10 28  1  0
 10 29  1  0
 12 30  1  0
 14 31  1  0
 15 32  1  0
 16 33  1  0
M  END
$$$$
