
     RDKit          3D

 33 35  0  0  0  0  0  0  0  0999 V2000
   -0.0352    2.4770   -0.3840 O   0  0  0  0  0  0  0  0  0  0  0  0
   -0.0201    1.2733   -0.1402 C   0  0  0  0  0  0  0  0  0  0  0  0
   -1.2878    0.5197    0.1392 C   0  0  0  0  0  0  0  0  0  0  0  0
   -2.3883    1.0531   -0.4285 C   0  0  0  0  0  0  0  0  0  0  0  0
   -3.7028    0.5133   -0.3538 C   0  0  0  0  0  0  0  0  0  0  0  0
   -4.3929   -0.1266    0.6713 C   0  0  0  0  0  0  0  0  0  0  0  0
   -5.6927   -0.4375    0.2035 C   0  0  0  0  0  0  0  0  0  0  0  0
   -5.7498    0.0392   -1.0791 C   0  0  0  0  0  0  0  0  0  0  0  0
   -4.5744    0.6176   -1.4186 O   0  0  0  0  0  0  0  0  0  0  0  0
   -1.2295   -0.7504    0.9427 C   0  0  0  0  0  0  0  0  0  0  0  0
    0.1763   -1.2241    1.3012 C   0  0  0  0  0  0  0  0  0  0  0  0
    1.1373   -0.9846    0.1501 C   0  0  0  0  0  0  0  0  0  0  0  0
    1.2618    0.4906   -0.0938 C   0  0  0  0  0  0  0  0  0  0  0  0
    2.3892    1.2003   -0.2926 C   0  0  0  0  0  0  0  0  0  0  0  0
    3.7023    0.6592   -0.2740 C   0  0  0  0  0  0  0  0  0  0  0  0
    4.3542   -0.1175    0.6787 C   0  0  0  0  0  0  0  0  0  0  0  0
    5.6720   -0.3571    0.2223 C   0  0  0  0  0  0  0  0  0  0  0  0
    5.7756    0.2995   -0.9761 C   0  0  0  0  0  0  0  0  0  0  0  0
    4.6106    0.9211   -1.2759 O   0  0  0  0  0  0  0  0  0  0  0  0
   -2.3002    1.9427   -1.0514 H   0  0  0  0  0  0  0  0  0  0  0  0
   -4.0116   -0.3311    1.6608 H   0  0  0  0  0  0  0  0  0  0  0  0
   -6.4893   -0.9327    0.7401 H   0  0  0  0  0  0  0  0  0  0  0  0
   -6.5155    0.0537   -1.8420 H   0  0  0  0  0  0  0  0  0  0  0  0
   -1.7831   -0.6256    1.8797 H   0  0  0  0  0  0  0  0  0  0  0  0
   -1.7196   -1.5507    0.3734 H   0  0  0  0  0  0  0  0  0  0  0  0
    0.5275   -0.6994    2.1997 H   0  0  0  0  0  0  0  0  0  0  0  0
    0.1471   -2.2907    1.5531 H   0  0  0  0  0  0  0  0  0  0  0  0
    0.7687   -1.4739   -0.7604 H   0  0  0  0  0  0  0  0  0  0  0  0
    2.0918   -1.4584    0.3879 H   0  0  0  0  0  0  0  0  0  0  0  0
    2.3349    2.2612   -0.5314 H   0  0  0  0  0  0  0  0  0  0  0  0
    3.9228   -0.4607    1.6089 H   0  0  0  0  0  0  0  0  0  0  0  0
    6.4505   -0.9244    0.7120 H   0  0  0  0  0  0  0  0  0  0  0  0
    6.5704    0.4238   -1.6983 H   0  0  0  0  0  0  0  0  0  0  0  0
  1  2  2  0
  2  3  1  0
  3  4  2  3
  4  5  1  0
  5  6  2  0
  6  7  1  0
  7  8  2  0
  8  9  1  0
  3 10  1  0
 10 11  1  0
 11 12  1  0
 12 13  1  0
 13 14  2  3
 14 15  1  0
 15 16  2  0
 16 17  1  0
 17 18  2  0
 18 19  1  0
 13  2  1  0
 19 15  1  0
  9  5  1  0
  4 20  1  0
  6 21  1  0
  7 22  1  0
  8 23  1  0
 10 24  1  0
 10 25  1  0
 11 26  1  0
 11 27  1  0
 12 28  1  0
 12 29  1  0
 14 30  1  0
 16 31  1  0
 17 32  1  0
 18 33  1  0
M  END
$$$$
