
     RDKit          3D

 58 63  0  0  0  0  0  0  0  0999 V2000
    5.7307    1.5457    4.2221 C   0  0  0  0  0  0  0  0  0  0  0  0
    5.5590    1.3416    2.7557 C   0  0  0  0  0  0  0  0  0  0  0  0
    6.2587    1.9281    1.7216 C   0  0  0  0  0  0  0  0  0  0  0  0
    5.8261    1.4622    0.4460 C   0  0  0  0  0  0  0  0  0  0  0  0
    4.7812    0.5655    0.5435 C   0  0  0  0  0  0  0  0  0  0  0  0
    4.1303   -0.1528   -0.5370 C   0  0  0  0  0  0  0  0  0  0  0  0
    4.7825   -0.8328   -1.3308 O   0  0  0  0  0  0  0  0  0  0  0  0
    2.7395   -0.0445   -0.6751 N   0  0  0  0  0  0  0  0  0  0  0  0
    2.1036   -0.8868   -1.6770 C   0  0  0  0  0  0  0  0  0  0  0  0
    0.5807   -0.7499   -1.6948 C   0  0  0  0  0  0  0  0  0  0  0  0
   -0.0053   -0.6917   -0.2631 C   0  0  0  0  0  0  0  0  0  0  0  0
    0.6599    0.4698    0.5433 C   0  0  0  0  0  0  0  0  0  0  0  0
    1.9249    1.0224   -0.1126 C   0  0  0  0  0  0  0  0  0  0  0  0
    0.4222   -1.8870    0.4466 O   0  0  0  0  0  0  0  0  0  0  0  0
   -0.3039   -3.0273    0.2881 C   0  0  0  0  0  0  0  0  0  0  0  0
    0.2797   -4.1961    0.7772 C   0  0  0  0  0  0  0  0  0  0  0  0
   -0.3812   -5.4198    0.6438 C   0  0  0  0  0  0  0  0  0  0  0  0
   -1.6280   -5.4705    0.0209 C   0  0  0  0  0  0  0  0  0  0  0  0
   -2.4369   -6.9786   -0.1469 Cl  0  0  0  0  0  0  0  0  0  0  0  0
   -2.2226   -4.3082   -0.4624 C   0  0  0  0  0  0  0  0  0  0  0  0
   -1.5557   -3.0879   -0.3130 C   0  0  0  0  0  0  0  0  0  0  0  0
   -2.1638   -1.8417   -0.7948 C   0  0  0  0  0  0  0  0  0  0  0  0
   -3.1009   -1.8878   -1.5875 O   0  0  0  0  0  0  0  0  0  0  0  0
   -1.5528   -0.5505   -0.2633 C   0  0  0  0  0  0  0  0  0  0  0  0
   -2.0829    0.6581   -1.0239 C   0  0  0  0  0  0  0  0  0  0  0  0
   -3.1813    1.0499   -0.0949 C   0  0  0  0  0  0  0  0  0  0  0  0
   -4.2275    2.0281   -0.4777 C   0  0  0  0  0  0  0  0  0  0  0  0
   -5.2523    2.3151    0.4349 C   0  0  0  0  0  0  0  0  0  0  0  0
   -6.2529    3.2348    0.1080 C   0  0  0  0  0  0  0  0  0  0  0  0
   -6.2306    3.8684   -1.1317 C   0  0  0  0  0  0  0  0  0  0  0  0
   -7.4595    5.0011   -1.5372 Cl  0  0  0  0  0  0  0  0  0  0  0  0
   -5.2157    3.5913   -2.0464 C   0  0  0  0  0  0  0  0  0  0  0  0
   -4.2123    2.6718   -1.7209 C   0  0  0  0  0  0  0  0  0  0  0  0
   -3.1253    0.4987    1.0755 N   0  0  0  0  0  0  0  0  0  0  0  0
   -2.0205   -0.3801    1.0850 O   0  0  0  0  0  0  0  0  0  0  0  0
    4.3967    0.2254    2.1774 S   0  0  0  0  0  0  0  0  0  0  0  0
    4.7638    1.6418    4.7279 H   0  0  0  0  0  0  0  0  0  0  0  0
    6.3035    2.4575    4.4232 H   0  0  0  0  0  0  0  0  0  0  0  0
    6.2730    0.7018    4.6638 H   0  0  0  0  0  0  0  0  0  0  0  0
    7.0594    2.6436    1.8700 H   0  0  0  0  0  0  0  0  0  0  0  0
    6.2573    1.7674   -0.5004 H   0  0  0  0  0  0  0  0  0  0  0  0
    2.3936   -1.9257   -1.4775 H   0  0  0  0  0  0  0  0  0  0  0  0
    2.5086   -0.6226   -2.6612 H   0  0  0  0  0  0  0  0  0  0  0  0
    0.1729   -1.5926   -2.2648 H   0  0  0  0  0  0  0  0  0  0  0  0
    0.3112    0.1590   -2.2470 H   0  0  0  0  0  0  0  0  0  0  0  0
    0.9185    0.1142    1.5498 H   0  0  0  0  0  0  0  0  0  0  0  0
   -0.0232    1.3130    0.6909 H   0  0  0  0  0  0  0  0  0  0  0  0
    1.6561    1.6874   -0.9436 H   0  0  0  0  0  0  0  0  0  0  0  0
    2.4744    1.6478    0.5933 H   0  0  0  0  0  0  0  0  0  0  0  0
    1.2548   -4.1568    1.2584 H   0  0  0  0  0  0  0  0  0  0  0  0
    0.0823   -6.3262    1.0255 H   0  0  0  0  0  0  0  0  0  0  0  0
   -3.1985   -4.3463   -0.9410 H   0  0  0  0  0  0  0  0  0  0  0  0
   -2.4388    0.4303   -2.0311 H   0  0  0  0  0  0  0  0  0  0  0  0
   -1.3715    1.4873   -1.0761 H   0  0  0  0  0  0  0  0  0  0  0  0
   -5.2814    1.8233    1.4058 H   0  0  0  0  0  0  0  0  0  0  0  0
   -7.0428    3.4475    0.8239 H   0  0  0  0  0  0  0  0  0  0  0  0
   -5.2014    4.0862   -3.0143 H   0  0  0  0  0  0  0  0  0  0  0  0
   -3.4354    2.4782   -2.4543 H   0  0  0  0  0  0  0  0  0  0  0  0
  1  2  1  0
  2  3  2  0
  3  4  1  0
  4  5  2  0
  5  6  1  0
  6  7  2  0
  6  8  1  0
  8  9  1  0
  9 10  1  0
 10 11  1  0
 11 12  1  0
 12 13  1  0
 11 14  1  0
 14 15  1  0
 15 16  2  0
 16 17  1  0
 17 18  2  0
 18 19  1  0
 18 20  1  0
 20 21  2  0
 21 22  1  0
 22 23  2  0
 22 24  1  0
 24 25  1  0
 25 26  1  0
 26 27  1  0
 27 28  2  0
 28 29  1  0
 29 30  2  0
 30 31  1  0
 30 32  1  0
 32 33  2  0
 26 34  2  0
 34 35  1  0
  5 36  1  0
 36  2  1  0
 13  8  1  0
 21 15  1  0
 35 24  1  0
 24 11  1  0
 33 27  1  0
  1 37  1  0
  1 38  1  0
  1 39  1  0
  3 40  1  0
  4 41  1  0
  9 42  1  0
  9 43  1  0
 10 44  1  0
 10 45  1  0
 12 46  1  0
 12 47  1  0
 13 48  1  0
 13 49  1  0
 16 50  1  0
 17 51  1  0
 20 52  1  0
 25 53  1  0
 25 54  1  0
 28 55  1  0
 29 56  1  0
 32 57  1  0
 33 58  1  0
M  END
$$$$
