
     RDKit          3D

 52 56  0  0  0  0  0  0  0  0999 V2000
    2.2138   -2.6946    2.8508 O   0  0  0  0  0  0  0  0  0  0  0  0
    1.5273   -1.6767    2.9027 C   0  0  0  0  0  0  0  0  0  0  0  0
    0.2184   -1.6641    3.6819 C   0  0  0  0  0  0  0  0  0  0  0  0
   -1.1822   -2.0741    2.5955 S   0  0  0  0  0  0  0  0  0  0  0  0
   -1.3216   -0.6087    1.6756 C   0  0  0  0  0  0  0  0  0  0  0  0
   -0.8102    0.5382    2.0628 N   0  0  0  0  0  0  0  0  0  0  0  0
   -0.9256    1.4191    1.0301 N   0  0  0  0  0  0  0  0  0  0  0  0
   -1.5486    0.8138    0.0339 C   0  0  0  0  0  0  0  0  0  0  0  0
   -2.0390    1.5101   -1.1964 C   0  0  0  0  0  0  0  0  0  0  0  0
   -3.5359    1.6621   -1.2256 C   0  0  0  0  0  0  0  0  0  0  0  0
   -4.4601    0.9548   -1.9717 C   0  0  0  0  0  0  0  0  0  0  0  0
   -5.7980    1.3774   -1.7240 C   0  0  0  0  0  0  0  0  0  0  0  0
   -5.8532    2.4019   -0.8069 C   0  0  0  0  0  0  0  0  0  0  0  0
   -4.3007    2.8509   -0.2516 S   0  0  0  0  0  0  0  0  0  0  0  0
   -1.7885   -0.5141    0.3763 N   0  0  0  0  0  0  0  0  0  0  0  0
   -2.3565   -1.5291   -0.4329 C   0  0  0  0  0  0  0  0  0  0  0  0
   -1.9081   -1.7073   -1.7478 C   0  0  0  0  0  0  0  0  0  0  0  0
   -2.4719   -2.7052   -2.5450 C   0  0  0  0  0  0  0  0  0  0  0  0
   -3.4796   -3.5223   -2.0353 C   0  0  0  0  0  0  0  0  0  0  0  0
   -3.9221   -3.3499   -0.7245 C   0  0  0  0  0  0  0  0  0  0  0  0
   -3.3605   -2.3581    0.0815 C   0  0  0  0  0  0  0  0  0  0  0  0
    1.8150   -0.4660    2.2943 N   0  0  0  0  0  0  0  0  0  0  0  0
    2.9307   -0.1396    1.4983 C   0  0  0  0  0  0  0  0  0  0  0  0
    4.0197   -0.9903    1.2924 C   0  0  0  0  0  0  0  0  0  0  0  0
    5.0949   -0.5862    0.4928 C   0  0  0  0  0  0  0  0  0  0  0  0
    5.0884    0.6722   -0.1004 C   0  0  0  0  0  0  0  0  0  0  0  0
    3.9920    1.5186    0.0782 C   0  0  0  0  0  0  0  0  0  0  0  0
    2.9263    1.1214    0.8862 C   0  0  0  0  0  0  0  0  0  0  0  0
    3.8972    2.7584   -0.5025 O   0  0  0  0  0  0  0  0  0  0  0  0
    4.8650    2.9237   -1.5453 C   0  0  0  0  0  0  0  0  0  0  0  0
    6.2280    2.4193   -1.1006 C   0  0  0  0  0  0  0  0  0  0  0  0
    6.1859    1.0100   -0.8494 O   0  0  0  0  0  0  0  0  0  0  0  0
    0.2852   -2.4243    4.4678 H   0  0  0  0  0  0  0  0  0  0  0  0
    0.0715   -0.7023    4.1845 H   0  0  0  0  0  0  0  0  0  0  0  0
   -1.5796    2.5069   -1.2392 H   0  0  0  0  0  0  0  0  0  0  0  0
   -1.6932    1.0031   -2.1015 H   0  0  0  0  0  0  0  0  0  0  0  0
   -4.1961    0.1605   -2.6605 H   0  0  0  0  0  0  0  0  0  0  0  0
   -6.6759    0.9514   -2.1947 H   0  0  0  0  0  0  0  0  0  0  0  0
   -6.7311    2.9130   -0.4359 H   0  0  0  0  0  0  0  0  0  0  0  0
   -1.0884   -1.1224   -2.1567 H   0  0  0  0  0  0  0  0  0  0  0  0
   -2.1145   -2.8571   -3.5608 H   0  0  0  0  0  0  0  0  0  0  0  0
   -3.9146   -4.3015   -2.6566 H   0  0  0  0  0  0  0  0  0  0  0  0
   -4.7075   -3.9896   -0.3289 H   0  0  0  0  0  0  0  0  0  0  0  0
   -3.7464   -2.2298    1.0904 H   0  0  0  0  0  0  0  0  0  0  0  0
    1.0858    0.2480    2.3401 H   0  0  0  0  0  0  0  0  0  0  0  0
    4.0700   -1.9743    1.7481 H   0  0  0  0  0  0  0  0  0  0  0  0
    5.9411   -1.2523    0.3488 H   0  0  0  0  0  0  0  0  0  0  0  0
    2.0885    1.8021    1.0205 H   0  0  0  0  0  0  0  0  0  0  0  0
    4.9164    3.9908   -1.7836 H   0  0  0  0  0  0  0  0  0  0  0  0
    4.5109    2.3904   -2.4362 H   0  0  0  0  0  0  0  0  0  0  0  0
    6.9705    2.5943   -1.8853 H   0  0  0  0  0  0  0  0  0  0  0  0
    6.5672    2.9276   -0.1894 H   0  0  0  0  0  0  0  0  0  0  0  0
  1  2  2  0
  2  3  1  0
  3  4  1  0
  4  5  1  0
  5  6  2  0
  6  7  1  0
  7  8  2  0
  8  9  1  0
  9 10  1  0
 10 11  2  0
 11 12  1  0
 12 13  2  0
 13 14  1  0
  8 15  1  0
 15 16  1  0
 16 17  2  0
 17 18  1  0
 18 19  2  0
 19 20  1  0
 20 21  2  0
  2 22  1  0
 22 23  1  0
 23 24  2  0
 24 25  1  0
 25 26  2  0
 26 27  1  0
 27 28  2  0
 27 29  1  0
 29 30  1  0
 30 31  1  0
 31 32  1  0
 15  5  1  0
 21 16  1  0
 28 23  1  0
 14 10  1  0
 32 26  1  0
  3 33  1  0
  3 34  1  0
  9 35  1  0
  9 36  1  0
 11 37  1  0
 12 38  1  0
 13 39  1  0
 17 40  1  0
 18 41  1  0
 19 42  1  0
 20 43  1  0
 21 44  1  0
 22 45  1  0
 24 46  1  0
 25 47  1  0
 28 48  1  0
 30 49  1  0
 30 50  1  0
 31 51  1  0
 31 52  1  0
M  END
$$$$
