
     RDKit          3D

 61 65  0  0  0  0  0  0  0  0999 V2000
   -9.3482    3.0253   -0.5005 C   0  0  0  0  0  0  0  0  0  0  0  0
   -8.1653    2.1207   -0.3283 C   0  0  0  0  0  0  0  0  0  0  0  0
   -8.3383    0.8062    0.1104 C   0  0  0  0  0  0  0  0  0  0  0  0
   -7.2394   -0.0518    0.2308 C   0  0  0  0  0  0  0  0  0  0  0  0
   -5.9359    0.3706   -0.0859 C   0  0  0  0  0  0  0  0  0  0  0  0
   -4.7913   -0.5561    0.0429 C   0  0  0  0  0  0  0  0  0  0  0  0
   -3.5094   -0.1357    0.3507 C   0  0  0  0  0  0  0  0  0  0  0  0
   -2.5015   -1.0957    0.4198 C   0  0  0  0  0  0  0  0  0  0  0  0
   -1.1361   -0.6112    0.6914 C   0  0  0  0  0  0  0  0  0  0  0  0
   -0.7925   -0.4687    1.8550 O   0  0  0  0  0  0  0  0  0  0  0  0
   -0.4157   -0.3584   -0.4586 N   0  0  0  0  0  0  0  0  0  0  0  0
    0.8994    0.1392   -0.5490 C   0  0  0  0  0  0  0  0  0  0  0  0
    1.6966    0.4357    0.5599 C   0  0  0  0  0  0  0  0  0  0  0  0
    2.9918    0.9369    0.3908 C   0  0  0  0  0  0  0  0  0  0  0  0
    3.4949    1.1345   -0.8959 C   0  0  0  0  0  0  0  0  0  0  0  0
    5.1294    1.8048   -1.1077 S   0  0  0  0  0  6  0  0  0  0  0  0
    5.2019    2.3667   -2.4395 O   0  0  0  0  0  0  0  0  0  0  0  0
    5.4308    2.5821    0.0749 O   0  0  0  0  0  0  0  0  0  0  0  0
    6.0422    0.3694   -1.1348 N   0  0  0  0  0  0  0  0  0  0  0  0
    7.3947    0.5928   -0.6263 C   0  0  0  0  0  0  0  0  0  0  0  0
    8.4642    0.8339   -1.4276 O   0  0  0  0  0  0  0  0  0  0  0  0
    9.6017    0.9633   -0.6539 N   0  0  0  0  0  0  0  0  0  0  0  0
    9.2004    0.7793    0.6109 C   0  0  0  0  0  0  0  0  0  0  0  0
   10.1831    0.8476    1.7191 C   0  0  0  0  0  0  0  0  0  0  0  0
    7.8031    0.5206    0.6859 C   0  0  0  0  0  0  0  0  0  0  0  0
    6.9970    0.2584    1.8979 C   0  0  0  0  0  0  0  0  0  0  0  0
    2.7079    0.8542   -2.0138 C   0  0  0  0  0  0  0  0  0  0  0  0
    1.4157    0.3514   -1.8357 C   0  0  0  0  0  0  0  0  0  0  0  0
   -2.7617   -2.4624    0.2129 C   0  0  0  0  0  0  0  0  0  0  0  0
   -1.7886   -3.4904    0.2873 C   0  0  0  0  0  0  0  0  0  0  0  0
   -2.1379   -4.8199    0.0602 C   0  0  0  0  0  0  0  0  0  0  0  0
   -3.4553   -5.1375   -0.2404 C   0  0  0  0  0  0  0  0  0  0  0  0
   -4.4150   -4.1238   -0.3077 C   0  0  0  0  0  0  0  0  0  0  0  0
   -4.0940   -2.7910   -0.0852 C   0  0  0  0  0  0  0  0  0  0  0  0
   -5.0689   -1.8683   -0.1719 N   0  0  0  0  0  0  0  0  0  0  0  0
   -5.7838    1.6924   -0.5425 C   0  0  0  0  0  0  0  0  0  0  0  0
   -6.8812    2.5540   -0.6661 C   0  0  0  0  0  0  0  0  0  0  0  0
   -9.0571    4.0762   -0.3985 H   0  0  0  0  0  0  0  0  0  0  0  0
   -9.7899    2.8765   -1.4908 H   0  0  0  0  0  0  0  0  0  0  0  0
  -10.1074    2.8230    0.2623 H   0  0  0  0  0  0  0  0  0  0  0  0
   -9.3298    0.4337    0.3587 H   0  0  0  0  0  0  0  0  0  0  0  0
   -7.4089   -1.0709    0.5772 H   0  0  0  0  0  0  0  0  0  0  0  0
   -3.2839    0.9067    0.5489 H   0  0  0  0  0  0  0  0  0  0  0  0
   -0.8877   -0.5354   -1.3378 H   0  0  0  0  0  0  0  0  0  0  0  0
    1.3366    0.2941    1.5750 H   0  0  0  0  0  0  0  0  0  0  0  0
    3.5911    1.1744    1.2669 H   0  0  0  0  0  0  0  0  0  0  0  0
    6.1198    0.1054   -2.1205 H   0  0  0  0  0  0  0  0  0  0  0  0
   11.0977    1.3662    1.4136 H   0  0  0  0  0  0  0  0  0  0  0  0
   10.4541   -0.1620    2.0442 H   0  0  0  0  0  0  0  0  0  0  0  0
    9.7650    1.3863    2.5762 H   0  0  0  0  0  0  0  0  0  0  0  0
    5.9984   -0.1123    1.6506 H   0  0  0  0  0  0  0  0  0  0  0  0
    6.8845    1.1761    2.4835 H   0  0  0  0  0  0  0  0  0  0  0  0
    7.4842   -0.4938    2.5281 H   0  0  0  0  0  0  0  0  0  0  0  0
    3.0830    1.0282   -3.0198 H   0  0  0  0  0  0  0  0  0  0  0  0
    0.8162    0.1392   -2.7178 H   0  0  0  0  0  0  0  0  0  0  0  0
   -0.7538   -3.2606    0.5372 H   0  0  0  0  0  0  0  0  0  0  0  0
   -1.3861   -5.6031    0.1240 H   0  0  0  0  0  0  0  0  0  0  0  0
   -3.7446   -6.1707   -0.4181 H   0  0  0  0  0  0  0  0  0  0  0  0
   -5.4462   -4.3822   -0.5398 H   0  0  0  0  0  0  0  0  0  0  0  0
   -4.8069    2.0709   -0.8338 H   0  0  0  0  0  0  0  0  0  0  0  0
   -6.7230    3.5651   -1.0359 H   0  0  0  0  0  0  0  0  0  0  0  0
  1  2  1  0
  2  3  2  0
  3  4  1  0
  4  5  2  0
  5  6  1  0
  6  7  2  0
  7  8  1  0
  8  9  1  0
  9 10  2  0
  9 11  1  0
 11 12  1  0
 12 13  2  0
 13 14  1  0
 14 15  2  0
 15 16  1  0
 16 17  2  0
 16 18  2  0
 16 19  1  0
 19 20  1  0
 20 21  1  0
 21 22  1  0
 22 23  2  0
 23 24  1  0
 23 25  1  0
 25 26  1  0
 15 27  1  0
 27 28  2  0
  8 29  2  0
 29 30  1  0
 30 31  2  0
 31 32  1  0
 32 33  2  0
 33 34  1  0
 34 35  2  0
  5 36  1  0
 36 37  2  0
 37  2  1  0
 35  6  1  0
 28 12  1  0
 34 29  1  0
 25 20  2  0
  1 38  1  0
  1 39  1  0
  1 40  1  0
  3 41  1  0
  4 42  1  0
  7 43  1  0
 11 44  1  0
 13 45  1  0
 14 46  1  0
 19 47  1  0
 24 48  1  0
 24 49  1  0
 24 50  1  0
 26 51  1  0
 26 52  1  0
 26 53  1  0
 27 54  1  0
 28 55  1  0
 30 56  1  0
 31 57  1  0
 32 58  1  0
 33 59  1  0
 36 60  1  0
 37 61  1  0
M  END
$$$$
