
     RDKit          3D

102104  0  0  0  0  0  0  0  0999 V2000
    7.0117    2.2576   -2.4529 C   0  0  0  0  0  0  0  0  0  0  0  0
    5.5491    2.5592   -2.1644 C   0  0  0  0  0  0  0  0  0  0  0  0
    4.7787    1.3665   -1.5927 C   0  0  0  0  0  0  0  0  0  0  0  0
    5.2444    0.9627   -0.1907 C   0  0  0  0  0  0  0  0  0  0  0  0
    4.4579   -0.2162    0.3928 C   0  0  0  0  0  0  0  0  0  0  0  0
    2.9552    0.0330    0.6053 C   0  0  0  0  0  0  0  0  0  0  0  0
    2.6751    1.1450    1.6230 C   0  0  0  0  0  0  0  0  0  0  0  0
    2.1685    2.4025    0.9520 C   0  0  0  0  0  0  0  0  0  0  0  0
    2.8452    3.4228    0.8827 O   0  0  0  0  0  0  0  0  0  0  0  0
    0.8978    2.2906    0.4346 N   0  0  0  0  0  0  0  0  0  0  0  0
    0.1807    3.4594   -0.0996 C   0  0  0  0  0  0  0  0  0  0  0  0
    0.7377    3.8866   -1.4692 C   0  0  0  0  0  0  0  0  0  0  0  0
   -0.0175    5.0520   -2.1403 C   0  0  0  0  0  0  0  0  0  0  0  0
    0.5923    5.3383   -3.5158 C   0  0  0  0  0  0  0  0  0  0  0  0
    0.0019    6.3232   -1.2910 C   0  0  0  0  0  0  0  0  0  0  0  0
   -1.3032    3.0506   -0.1605 C   0  0  0  0  0  0  0  0  0  0  0  0
   -2.1725    3.5832    0.5230 O   0  0  0  0  0  0  0  0  0  0  0  0
   -1.5616    1.9907   -0.9971 N   0  0  0  0  0  0  0  0  0  0  0  0
   -2.8091    1.2329   -0.9325 C   0  0  0  0  0  0  0  0  0  0  0  0
   -3.9080    1.8179   -1.8202 C   0  0  0  0  0  0  0  0  0  0  0  0
   -5.2630    1.2376   -1.4848 C   0  0  0  0  0  0  0  0  0  0  0  0
   -5.9956    1.7443   -0.4021 C   0  0  0  0  0  0  0  0  0  0  0  0
   -7.2288    1.1870   -0.0626 C   0  0  0  0  0  0  0  0  0  0  0  0
   -7.7388    0.1185   -0.7979 C   0  0  0  0  0  0  0  0  0  0  0  0
   -7.0183   -0.3918   -1.8760 C   0  0  0  0  0  0  0  0  0  0  0  0
   -5.7844    0.1639   -2.2189 C   0  0  0  0  0  0  0  0  0  0  0  0
   -2.4150   -0.1782   -1.3945 C   0  0  0  0  0  0  0  0  0  0  0  0
   -1.6120   -0.3591   -2.3115 O   0  0  0  0  0  0  0  0  0  0  0  0
   -2.9599   -1.2163   -0.6637 N   0  0  0  0  0  0  0  0  0  0  0  0
   -2.2502   -2.4904   -0.6606 C   0  0  0  0  0  0  0  0  0  0  0  0
   -3.1671   -3.6876   -0.3720 C   0  0  0  0  0  0  0  0  0  0  0  0
   -4.1238   -3.5867    0.8370 C   0  0  0  0  0  0  0  0  0  0  0  0
   -5.0762   -4.7893    0.8318 C   0  0  0  0  0  0  0  0  0  0  0  0
   -3.3953   -3.5287    2.1785 C   0  0  0  0  0  0  0  0  0  0  0  0
   -1.0446   -2.3637    0.3047 C   0  0  0  0  0  0  0  0  0  0  0  0
   -0.9217   -1.4205    1.0865 O   0  0  0  0  0  0  0  0  0  0  0  0
   -0.1059   -3.3728    0.2029 N   0  0  0  0  0  0  0  0  0  0  0  0
    1.1791   -3.2677    0.9213 C   0  0  0  0  0  0  0  0  0  0  0  0
    1.0198   -3.2078    2.4509 C   0  0  0  0  0  0  0  0  0  0  0  0
    2.2751   -3.6134    3.1934 C   0  0  0  0  0  0  0  0  0  0  0  0
    2.6778   -4.9568    3.2325 C   0  0  0  0  0  0  0  0  0  0  0  0
    3.8481   -5.3257    3.8986 C   0  0  0  0  0  0  0  0  0  0  0  0
    4.6261   -4.3586    4.5324 C   0  0  0  0  0  0  0  0  0  0  0  0
    4.2314   -3.0220    4.5067 C   0  0  0  0  0  0  0  0  0  0  0  0
    3.0595   -2.6514    3.8452 C   0  0  0  0  0  0  0  0  0  0  0  0
    1.9816   -2.1291    0.2677 C   0  0  0  0  0  0  0  0  0  0  0  0
    2.1947   -2.0883   -0.9398 O   0  0  0  0  0  0  0  0  0  0  0  0
    2.3567   -1.1689    1.1487 O   0  0  0  0  0  0  0  0  0  0  0  0
    7.4813    3.1165   -2.9440 H   0  0  0  0  0  0  0  0  0  0  0  0
    7.1109    1.3919   -3.1166 H   0  0  0  0  0  0  0  0  0  0  0  0
    7.5689    2.0567   -1.5339 H   0  0  0  0  0  0  0  0  0  0  0  0
    5.4778    3.4122   -1.4787 H   0  0  0  0  0  0  0  0  0  0  0  0
    5.0680    2.8657   -3.1014 H   0  0  0  0  0  0  0  0  0  0  0  0
    3.7194    1.6446   -1.5638 H   0  0  0  0  0  0  0  0  0  0  0  0
    4.8647    0.5102   -2.2730 H   0  0  0  0  0  0  0  0  0  0  0  0
    5.1910    1.8242    0.4834 H   0  0  0  0  0  0  0  0  0  0  0  0
    6.2984    0.6661   -0.2287 H   0  0  0  0  0  0  0  0  0  0  0  0
    4.9090   -0.5063    1.3513 H   0  0  0  0  0  0  0  0  0  0  0  0
    4.5955   -1.0909   -0.2557 H   0  0  0  0  0  0  0  0  0  0  0  0
    2.4704    0.2554   -0.3523 H   0  0  0  0  0  0  0  0  0  0  0  0
    1.9176    0.8346    2.3545 H   0  0  0  0  0  0  0  0  0  0  0  0
    3.5688    1.3991    2.2045 H   0  0  0  0  0  0  0  0  0  0  0  0
    0.3319    1.5181    0.7739 H   0  0  0  0  0  0  0  0  0  0  0  0
    0.2868    4.2685    0.6308 H   0  0  0  0  0  0  0  0  0  0  0  0
    0.7382    3.0261   -2.1515 H   0  0  0  0  0  0  0  0  0  0  0  0
    1.7929    4.1676   -1.3588 H   0  0  0  0  0  0  0  0  0  0  0  0
   -1.0629    4.7606   -2.2995 H   0  0  0  0  0  0  0  0  0  0  0  0
    0.5608    4.4458   -4.1482 H   0  0  0  0  0  0  0  0  0  0  0  0
    1.6359    5.6572   -3.4305 H   0  0  0  0  0  0  0  0  0  0  0  0
    0.0387    6.1294   -4.0309 H   0  0  0  0  0  0  0  0  0  0  0  0
   -0.4747    7.1530   -1.8231 H   0  0  0  0  0  0  0  0  0  0  0  0
   -0.5450    6.1848   -0.3534 H   0  0  0  0  0  0  0  0  0  0  0  0
    1.0272    6.6246   -1.0492 H   0  0  0  0  0  0  0  0  0  0  0  0
   -0.7952    1.5642   -1.5139 H   0  0  0  0  0  0  0  0  0  0  0  0
   -3.1189    1.2040    0.1193 H   0  0  0  0  0  0  0  0  0  0  0  0
   -3.9580    2.9076   -1.6996 H   0  0  0  0  0  0  0  0  0  0  0  0
   -3.6834    1.6499   -2.8811 H   0  0  0  0  0  0  0  0  0  0  0  0
   -5.6069    2.5768    0.1825 H   0  0  0  0  0  0  0  0  0  0  0  0
   -7.7922    1.5891    0.7751 H   0  0  0  0  0  0  0  0  0  0  0  0
   -8.6992   -0.3137   -0.5307 H   0  0  0  0  0  0  0  0  0  0  0  0
   -7.4173   -1.2232   -2.4511 H   0  0  0  0  0  0  0  0  0  0  0  0
   -5.2321   -0.2508   -3.0600 H   0  0  0  0  0  0  0  0  0  0  0  0
   -3.3779   -0.9494    0.2209 H   0  0  0  0  0  0  0  0  0  0  0  0
   -1.8210   -2.6449   -1.6589 H   0  0  0  0  0  0  0  0  0  0  0  0
   -2.5605   -4.5987   -0.2767 H   0  0  0  0  0  0  0  0  0  0  0  0
   -3.7883   -3.8319   -1.2679 H   0  0  0  0  0  0  0  0  0  0  0  0
   -4.7414   -2.6854    0.7385 H   0  0  0  0  0  0  0  0  0  0  0  0
   -5.7948   -4.7216    1.6561 H   0  0  0  0  0  0  0  0  0  0  0  0
   -5.6475   -4.8275   -0.1020 H   0  0  0  0  0  0  0  0  0  0  0  0
   -4.5289   -5.7328    0.9351 H   0  0  0  0  0  0  0  0  0  0  0  0
   -4.1035   -3.6031    3.0115 H   0  0  0  0  0  0  0  0  0  0  0  0
   -2.8652   -2.5806    2.3024 H   0  0  0  0  0  0  0  0  0  0  0  0
   -2.6732   -4.3474    2.2775 H   0  0  0  0  0  0  0  0  0  0  0  0
   -0.0545   -3.8277   -0.7023 H   0  0  0  0  0  0  0  0  0  0  0  0
    1.7187   -4.1875    0.6615 H   0  0  0  0  0  0  0  0  0  0  0  0
    0.7048   -2.2134    2.7867 H   0  0  0  0  0  0  0  0  0  0  0  0
    0.2157   -3.8877    2.7648 H   0  0  0  0  0  0  0  0  0  0  0  0
    2.0824   -5.7275    2.7481 H   0  0  0  0  0  0  0  0  0  0  0  0
    4.1551   -6.3688    3.9238 H   0  0  0  0  0  0  0  0  0  0  0  0
    5.5376   -4.6476    5.0495 H   0  0  0  0  0  0  0  0  0  0  0  0
    4.8356   -2.2679    5.0054 H   0  0  0  0  0  0  0  0  0  0  0  0
    2.7650   -1.6033    3.8399 H   0  0  0  0  0  0  0  0  0  0  0  0
  1  2  1  0
  2  3  1  0
  3  4  1  0
  4  5  1  0
  5  6  1  0
  6  7  1  0
  7  8  1  0
  8  9  2  0
  8 10  1  0
 10 11  1  0
 11 12  1  0
 12 13  1  0
 13 14  1  0
 13 15  1  0
 11 16  1  0
 16 17  2  0
 16 18  1  0
 18 19  1  0
 19 20  1  0
 20 21  1  0
 21 22  2  0
 22 23  1  0
 23 24  2  0
 24 25  1  0
 25 26  2  0
 19 27  1  0
 27 28  2  0
 27 29  1  0
 29 30  1  0
 30 31  1  0
 31 32  1  0
 32 33  1  0
 32 34  1  0
 30 35  1  0
 35 36  2  0
 35 37  1  0
 37 38  1  0
 38 39  1  0
 39 40  1  0
 40 41  2  0
 41 42  1  0
 42 43  2  0
 43 44  1  0
 44 45  2  0
 38 46  1  0
 46 47  2  0
 46 48  1  0
 48  6  1  0
 26 21  1  0
 45 40  1  0
  1 49  1  0
  1 50  1  0
  1 51  1  0
  2 52  1  0
  2 53  1  0
  3 54  1  0
  3 55  1  0
  4 56  1  0
  4 57  1  0
  5 58  1  0
  5 59  1  0
  6 60  1  0
  7 61  1  0
  7 62  1  0
 10 63  1  0
 11 64  1  0
 12 65  1  0
 12 66  1  0
 13 67  1  0
 14 68  1  0
 14 69  1  0
 14 70  1  0
 15 71  1  0
 15 72  1  0
 15 73  1  0
 18 74  1  0
 19 75  1  0
 20 76  1  0
 20 77  1  0
 22 78  1  0
 23 79  1  0
 24 80  1  0
 25 81  1  0
 26 82  1  0
 29 83  1  0
 30 84  1  0
 31 85  1  0
 31 86  1  0
 32 87  1  0
 33 88  1  0
 33 89  1  0
 33 90  1  0
 34 91  1  0
 34 92  1  0
 34 93  1  0
 37 94  1  0
 38 95  1  0
 39 96  1  0
 39 97  1  0
 41 98  1  0
 42 99  1  0
 43100  1  0
 44101  1  0
 45102  1  0
M  END
$$$$
