
     RDKit          3D

 57 59  0  0  0  0  0  0  0  0999 V2000
    8.1427   -3.3651   -3.2154 C   0  0  0  0  0  0  0  0  0  0  0  0
    7.9690   -2.1050   -2.5812 O   0  0  0  0  0  0  0  0  0  0  0  0
    7.2497   -2.0929   -1.4184 C   0  0  0  0  0  0  0  0  0  0  0  0
    7.0452   -0.8253   -0.8709 C   0  0  0  0  0  0  0  0  0  0  0  0
    6.3178   -0.6672    0.3102 C   0  0  0  0  0  0  0  0  0  0  0  0
    5.7889   -1.7827    0.9708 C   0  0  0  0  0  0  0  0  0  0  0  0
    4.9680   -1.6083    2.2220 C   0  0  0  0  0  0  0  0  0  0  0  0
    3.5733   -1.4576    1.9001 N   0  0  0  0  0  0  0  0  0  0  0  0
    3.0026   -0.2268    1.6785 C   0  0  0  0  0  0  0  0  0  0  0  0
    3.5163    0.8627    1.8901 O   0  0  0  0  0  0  0  0  0  0  0  0
    1.5779   -0.3111    1.0843 C   0  0  0  0  0  0  0  0  0  0  0  0
    1.0216   -1.3937    0.9672 O   0  0  0  0  0  0  0  0  0  0  0  0
    1.0487    0.9079    0.7345 N   0  0  0  0  0  0  0  0  0  0  0  0
   -0.3276    1.0482    0.2915 C   0  0  0  0  0  0  0  0  0  0  0  0
   -1.3589    0.8811    1.4228 C   0  0  0  0  0  0  0  0  0  0  0  0
   -1.0832    1.8531    2.4541 O   0  0  0  0  0  0  0  0  0  0  0  0
   -2.3421    2.0699    3.0941 C   0  0  0  0  0  0  0  0  0  0  0  0
   -3.3160    2.1149    1.9394 C   0  0  0  0  0  0  0  0  0  0  0  0
   -2.7277    1.1925    0.9437 N   0  0  0  0  0  0  0  0  0  0  0  0
   -3.6249   -0.1804    0.5384 S   0  0  0  0  0  6  0  0  0  0  0  0
   -4.0538   -0.7937    1.7775 O   0  0  0  0  0  0  0  0  0  0  0  0
   -2.8869   -0.9216   -0.4598 O   0  0  0  0  0  0  0  0  0  0  0  0
   -5.0417    0.5235   -0.2673 C   0  0  0  0  0  0  0  0  0  0  0  0
   -6.2994    0.4578    0.3327 C   0  0  0  0  0  0  0  0  0  0  0  0
   -7.3957    1.0228   -0.3219 C   0  0  0  0  0  0  0  0  0  0  0  0
   -7.2461    1.6392   -1.5696 C   0  0  0  0  0  0  0  0  0  0  0  0
   -8.4011    2.1518   -2.0927 O   0  0  0  0  0  0  0  0  0  0  0  0
   -8.3242    2.7129   -3.3974 C   0  0  0  0  0  0  0  0  0  0  0  0
   -5.9840    1.6866   -2.1664 C   0  0  0  0  0  0  0  0  0  0  0  0
   -4.8791    1.1265   -1.5173 C   0  0  0  0  0  0  0  0  0  0  0  0
    5.9931   -3.0537    0.4174 C   0  0  0  0  0  0  0  0  0  0  0  0
    6.7228   -3.2086   -0.7666 C   0  0  0  0  0  0  0  0  0  0  0  0
    8.6958   -3.1983   -4.1445 H   0  0  0  0  0  0  0  0  0  0  0  0
    7.1791   -3.8124   -3.4790 H   0  0  0  0  0  0  0  0  0  0  0  0
    8.7353   -4.0417   -2.5909 H   0  0  0  0  0  0  0  0  0  0  0  0
    7.4479    0.0498   -1.3743 H   0  0  0  0  0  0  0  0  0  0  0  0
    6.1563    0.3338    0.7069 H   0  0  0  0  0  0  0  0  0  0  0  0
    5.3194   -0.7425    2.7948 H   0  0  0  0  0  0  0  0  0  0  0  0
    5.0669   -2.4884    2.8670 H   0  0  0  0  0  0  0  0  0  0  0  0
    3.0485   -2.2583    1.5622 H   0  0  0  0  0  0  0  0  0  0  0  0
    1.5566    1.7268    1.0616 H   0  0  0  0  0  0  0  0  0  0  0  0
   -0.5084    0.3168   -0.5023 H   0  0  0  0  0  0  0  0  0  0  0  0
   -0.4047    2.0498   -0.1460 H   0  0  0  0  0  0  0  0  0  0  0  0
   -1.2937   -0.1109    1.8846 H   0  0  0  0  0  0  0  0  0  0  0  0
   -2.3218    2.9990    3.6707 H   0  0  0  0  0  0  0  0  0  0  0  0
   -2.5459    1.2304    3.7694 H   0  0  0  0  0  0  0  0  0  0  0  0
   -3.3386    3.1138    1.4886 H   0  0  0  0  0  0  0  0  0  0  0  0
   -4.3306    1.8626    2.2558 H   0  0  0  0  0  0  0  0  0  0  0  0
   -6.4386   -0.0265    1.2959 H   0  0  0  0  0  0  0  0  0  0  0  0
   -8.3800    0.9771    0.1383 H   0  0  0  0  0  0  0  0  0  0  0  0
   -9.3288    3.0440   -3.6784 H   0  0  0  0  0  0  0  0  0  0  0  0
   -8.0021    1.9658   -4.1307 H   0  0  0  0  0  0  0  0  0  0  0  0
   -7.6688    3.5897   -3.4108 H   0  0  0  0  0  0  0  0  0  0  0  0
   -5.8255    2.1507   -3.1344 H   0  0  0  0  0  0  0  0  0  0  0  0
   -3.8992    1.1605   -1.9891 H   0  0  0  0  0  0  0  0  0  0  0  0
    5.5798   -3.9370    0.9015 H   0  0  0  0  0  0  0  0  0  0  0  0
    6.8560   -4.2124   -1.1551 H   0  0  0  0  0  0  0  0  0  0  0  0
  1  2  1  0
  2  3  1  0
  3  4  2  0
  4  5  1  0
  5  6  2  0
  6  7  1  0
  7  8  1  0
  8  9  1  0
  9 10  2  0
  9 11  1  0
 11 12  2  0
 11 13  1  0
 13 14  1  0
 14 15  1  0
 15 16  1  0
 16 17  1  0
 17 18  1  0
 18 19  1  0
 19 20  1  0
 20 21  2  0
 20 22  2  0
 20 23  1  0
 23 24  2  0
 24 25  1  0
 25 26  2  0
 26 27  1  0
 27 28  1  0
 26 29  1  0
 29 30  2  0
  6 31  1  0
 31 32  2  0
 32  3  1  0
 19 15  1  0
 30 23  1  0
  1 33  1  0
  1 34  1  0
  1 35  1  0
  4 36  1  0
  5 37  1  0
  7 38  1  0
  7 39  1  0
  8 40  1  0
 13 41  1  0
 14 42  1  0
 14 43  1  0
 15 44  1  0
 17 45  1  0
 17 46  1  0
 18 47  1  0
 18 48  1  0
 24 49  1  0
 25 50  1  0
 28 51  1  0
 28 52  1  0
 28 53  1  0
 29 54  1  0
 30 55  1  0
 31 56  1  0
 32 57  1  0
M  END
$$$$
