
     RDKit          3D

 62 67  0  0  0  0  0  0  0  0999 V2000
   -2.1430   -0.9125    3.9514 C   0  0  0  0  0  0  0  0  0  0  0  0
   -3.0902   -0.8236    2.8941 O   0  0  0  0  0  0  0  0  0  0  0  0
   -3.3002   -1.9717    2.1710 C   0  0  0  0  0  0  0  0  0  0  0  0
   -3.1228   -3.2571    2.6974 C   0  0  0  0  0  0  0  0  0  0  0  0
   -3.3848   -4.3854    1.9162 C   0  0  0  0  0  0  0  0  0  0  0  0
   -3.8337   -4.2411    0.6069 C   0  0  0  0  0  0  0  0  0  0  0  0
   -4.0250   -2.9659    0.0763 C   0  0  0  0  0  0  0  0  0  0  0  0
   -3.7663   -1.8209    0.8497 C   0  0  0  0  0  0  0  0  0  0  0  0
   -3.9545   -0.4932    0.2444 C   0  0  0  0  0  0  0  0  0  0  0  0
   -5.5513    0.0510   -0.0316 S   0  0  0  0  0  0  0  0  0  0  0  0
   -5.0269    1.5545   -0.6793 C   0  0  0  0  0  0  0  0  0  0  0  0
   -5.8568    2.5948   -1.1531 C   0  0  0  0  0  0  0  0  0  0  0  0
   -5.2222    3.7199   -1.6370 C   0  0  0  0  0  0  0  0  0  0  0  0
   -3.8597    3.8351   -1.6646 C   0  0  0  0  0  0  0  0  0  0  0  0
   -3.0295    2.8307   -1.2072 C   0  0  0  0  0  0  0  0  0  0  0  0
   -3.6259    1.6461   -0.6908 C   0  0  0  0  0  0  0  0  0  0  0  0
   -3.0169    0.4484   -0.1504 C   0  0  0  0  0  0  0  0  0  0  0  0
   -1.5836    0.2135   -0.0030 C   0  0  0  0  0  0  0  0  0  0  0  0
   -0.9336   -0.7441   -0.7885 C   0  0  0  0  0  0  0  0  0  0  0  0
    0.4409   -0.9655   -0.6423 C   0  0  0  0  0  0  0  0  0  0  0  0
    1.1754   -0.2265    0.2858 C   0  0  0  0  0  0  0  0  0  0  0  0
    2.5144   -0.3465    0.5326 O   0  0  0  0  0  0  0  0  0  0  0  0
    3.2582   -1.2249   -0.3132 C   0  0  0  0  0  0  0  0  0  0  0  0
    4.7488   -1.1838    0.0825 C   0  0  0  0  0  0  0  0  0  0  0  0
    5.4067    0.1278   -0.0835 N   0  0  0  0  0  0  0  0  0  0  0  0
    6.7485    0.1441    0.5410 C   0  0  0  0  0  0  0  0  0  0  0  0
    7.8187   -0.6166   -0.2609 C   0  0  0  0  0  0  0  0  0  0  0  0
    7.9097   -0.1317   -1.6063 O   0  0  0  0  0  0  0  0  0  0  0  0
    6.6403   -0.2141   -2.2657 C   0  0  0  0  0  0  0  0  0  0  0  0
    5.5523    0.5509   -1.4922 C   0  0  0  0  0  0  0  0  0  0  0  0
    0.5244    0.7317    1.0668 C   0  0  0  0  0  0  0  0  0  0  0  0
   -0.8466    0.9555    0.9242 C   0  0  0  0  0  0  0  0  0  0  0  0
   -3.4471    5.0235   -2.1830 O   0  0  0  0  0  0  0  0  0  0  0  0
   -4.7144    5.6472   -2.4730 C   0  0  0  0  0  0  0  0  0  0  0  0
   -5.8475    4.8220   -2.1344 O   0  0  0  0  0  0  0  0  0  0  0  0
   -1.8898    0.1068    4.2587 H   0  0  0  0  0  0  0  0  0  0  0  0
   -2.5763   -1.4223    4.8175 H   0  0  0  0  0  0  0  0  0  0  0  0
   -1.2180   -1.4021    3.6273 H   0  0  0  0  0  0  0  0  0  0  0  0
   -2.7978   -3.4093    3.7214 H   0  0  0  0  0  0  0  0  0  0  0  0
   -3.2453   -5.3787    2.3358 H   0  0  0  0  0  0  0  0  0  0  0  0
   -4.0402   -5.1191    0.0005 H   0  0  0  0  0  0  0  0  0  0  0  0
   -4.3759   -2.8648   -0.9484 H   0  0  0  0  0  0  0  0  0  0  0  0
   -6.9372    2.5133   -1.1367 H   0  0  0  0  0  0  0  0  0  0  0  0
   -1.9512    2.9470   -1.2438 H   0  0  0  0  0  0  0  0  0  0  0  0
   -1.4923   -1.3266   -1.5172 H   0  0  0  0  0  0  0  0  0  0  0  0
    0.9016   -1.7239   -1.2653 H   0  0  0  0  0  0  0  0  0  0  0  0
    2.9020   -2.2523   -0.1667 H   0  0  0  0  0  0  0  0  0  0  0  0
    3.1306   -0.9528   -1.3664 H   0  0  0  0  0  0  0  0  0  0  0  0
    5.2789   -1.9678   -0.4697 H   0  0  0  0  0  0  0  0  0  0  0  0
    4.7957   -1.4516    1.1462 H   0  0  0  0  0  0  0  0  0  0  0  0
    6.7031   -0.2373    1.5680 H   0  0  0  0  0  0  0  0  0  0  0  0
    7.0583    1.1942    0.6215 H   0  0  0  0  0  0  0  0  0  0  0  0
    7.6205   -1.6942   -0.2801 H   0  0  0  0  0  0  0  0  0  0  0  0
    8.7984   -0.4724    0.2060 H   0  0  0  0  0  0  0  0  0  0  0  0
    6.3743   -1.2681   -2.4037 H   0  0  0  0  0  0  0  0  0  0  0  0
    6.7601    0.2259   -3.2611 H   0  0  0  0  0  0  0  0  0  0  0  0
    5.8253    1.6146   -1.4823 H   0  0  0  0  0  0  0  0  0  0  0  0
    4.6002    0.4980   -2.0287 H   0  0  0  0  0  0  0  0  0  0  0  0
    1.0921    1.3098    1.7920 H   0  0  0  0  0  0  0  0  0  0  0  0
   -1.3358    1.7001    1.5476 H   0  0  0  0  0  0  0  0  0  0  0  0
   -4.7816    6.5845   -1.9088 H   0  0  0  0  0  0  0  0  0  0  0  0
   -4.7554    5.8775   -3.5438 H   0  0  0  0  0  0  0  0  0  0  0  0
  1  2  1  0
  2  3  1  0
  3  4  2  0
  4  5  1  0
  5  6  2  0
  6  7  1  0
  7  8  2  0
  8  9  1  0
  9 10  1  0
 10 11  1  0
 11 12  2  0
 12 13  1  0
 13 14  2  0
 14 15  1  0
 15 16  2  0
 16 17  1  0
 17 18  1  0
 18 19  2  0
 19 20  1  0
 20 21  2  0
 21 22  1  0
 22 23  1  0
 23 24  1  0
 24 25  1  0
 25 26  1  0
 26 27  1  0
 27 28  1  0
 28 29  1  0
 29 30  1  0
 21 31  1  0
 31 32  2  0
 14 33  1  0
 33 34  1  0
 34 35  1  0
  8  3  1  0
 17  9  2  0
 32 18  1  0
 16 11  1  0
 30 25  1  0
 35 13  1  0
  1 36  1  0
  1 37  1  0
  1 38  1  0
  4 39  1  0
  5 40  1  0
  6 41  1  0
  7 42  1  0
 12 43  1  0
 15 44  1  0
 19 45  1  0
 20 46  1  0
 23 47  1  0
 23 48  1  0
 24 49  1  0
 24 50  1  0
 26 51  1  0
 26 52  1  0
 27 53  1  0
 27 54  1  0
 29 55  1  0
 29 56  1  0
 30 57  1  0
 30 58  1  0
 31 59  1  0
 32 60  1  0
 34 61  1  0
 34 62  1  0
M  END
$$$$
