
     RDKit          3D

 39 39  0  0  0  0  0  0  0  0999 V2000
   -1.3883   -3.4400    2.3281 C   0  0  0  0  0  0  0  0  0  0  0  0
   -0.7202   -3.5836    0.9739 C   0  0  0  0  0  0  0  0  0  0  0  0
   -0.2073   -2.3154    0.5403 O   0  0  0  0  0  0  0  0  0  0  0  0
   -1.0675   -1.4993   -0.1221 C   0  0  0  0  0  0  0  0  0  0  0  0
   -2.2350   -1.8035   -0.3758 O   0  0  0  0  0  0  0  0  0  0  0  0
   -0.4676   -0.1309   -0.5174 C   0  0  0  0  0  0  0  0  0  0  0  0
   -1.6354    0.7797   -0.3364 N   0  0  0  0  0  0  0  0  0  0  0  0
   -1.6140    2.0955   -0.7205 C   0  0  0  0  0  0  0  0  0  0  0  0
   -0.5715    2.6759   -0.9927 O   0  0  0  0  0  0  0  0  0  0  0  0
   -2.9813    2.7471   -0.7208 C   0  0  0  0  0  0  0  0  0  0  0  0
   -2.9266    4.2011   -1.1533 C   0  0  0  0  0  0  0  0  0  0  0  0
    0.5225    0.4022    0.4559 N   0  0  0  0  0  0  0  0  0  0  0  0
    1.8993    0.1658    0.3955 C   0  0  0  0  0  0  0  0  0  0  0  0
    2.4978   -1.0143   -0.0503 C   0  0  0  0  0  0  0  0  0  0  0  0
    3.8878   -1.1910   -0.0074 C   0  0  0  0  0  0  0  0  0  0  0  0
    4.7079   -0.1983    0.5162 C   0  0  0  0  0  0  0  0  0  0  0  0
    4.1355    0.9654    1.0115 C   0  0  0  0  0  0  0  0  0  0  0  0
    2.7482    1.1332    0.9637 C   0  0  0  0  0  0  0  0  0  0  0  0
   -0.0475   -0.2917   -2.0092 C   0  0  0  0  0  0  0  0  0  0  0  0
    0.7638    0.6969   -2.4495 F   0  0  0  0  0  0  0  0  0  0  0  0
   -1.1417   -0.2816   -2.8213 F   0  0  0  0  0  0  0  0  0  0  0  0
    0.5873   -1.4645   -2.2564 F   0  0  0  0  0  0  0  0  0  0  0  0
   -1.7320   -4.4108    2.6961 H   0  0  0  0  0  0  0  0  0  0  0  0
   -0.6919   -3.0120    3.0566 H   0  0  0  0  0  0  0  0  0  0  0  0
   -2.2468   -2.7632    2.2729 H   0  0  0  0  0  0  0  0  0  0  0  0
    0.1345   -4.2632    1.0546 H   0  0  0  0  0  0  0  0  0  0  0  0
   -1.4032   -4.0115    0.2314 H   0  0  0  0  0  0  0  0  0  0  0  0
   -2.5378    0.3103   -0.3487 H   0  0  0  0  0  0  0  0  0  0  0  0
   -3.3987    2.6796    0.2900 H   0  0  0  0  0  0  0  0  0  0  0  0
   -3.6327    2.1879   -1.4016 H   0  0  0  0  0  0  0  0  0  0  0  0
   -2.5185    4.2950   -2.1651 H   0  0  0  0  0  0  0  0  0  0  0  0
   -2.2924    4.7878   -0.4805 H   0  0  0  0  0  0  0  0  0  0  0  0
   -3.9295    4.6390   -1.1466 H   0  0  0  0  0  0  0  0  0  0  0  0
    0.3835    1.4162    0.4729 H   0  0  0  0  0  0  0  0  0  0  0  0
    1.9199   -1.8439   -0.4375 H   0  0  0  0  0  0  0  0  0  0  0  0
    4.3247   -2.1155   -0.3766 H   0  0  0  0  0  0  0  0  0  0  0  0
    5.7846   -0.3377    0.5505 H   0  0  0  0  0  0  0  0  0  0  0  0
    4.7610    1.7432    1.4408 H   0  0  0  0  0  0  0  0  0  0  0  0
    2.3292    2.0502    1.3742 H   0  0  0  0  0  0  0  0  0  0  0  0
  1  2  1  0
  2  3  1  0
  3  4  1  0
  4  5  2  0
  4  6  1  0
  6  7  1  0
  7  8  1  0
  8  9  2  0
  8 10  1  0
 10 11  1  0
  6 12  1  0
 12 13  1  0
 13 14  2  0
 14 15  1  0
 15 16  2  0
 16 17  1  0
 17 18  2  0
  6 19  1  0
 19 20  1  0
 19 21  1  0
 19 22  1  0
 18 13  1  0
  1 23  1  0
  1 24  1  0
  1 25  1  0
  2 26  1  0
  2 27  1  0
  7 28  1  0
 10 29  1  0
 10 30  1  0
 11 31  1  0
 11 32  1  0
 11 33  1  0
 12 34  1  0
 14 35  1  0
 15 36  1  0
 16 37  1  0
 17 38  1  0
 18 39  1  0
M  END
$$$$
