
     RDKit          3D

 46 49  0  0  0  0  0  0  0  0999 V2000
    4.0057    1.5901    0.6256 O   0  0  0  0  0  0  0  0  0  0  0  0
    3.0152    1.3132    1.2956 C   0  0  0  0  0  0  0  0  0  0  0  0
    2.1690    2.4139    1.9223 C   0  0  0  0  0  0  0  0  0  0  0  0
    0.8209    2.9064    0.8012 S   0  0  0  0  0  0  0  0  0  0  0  0
   -0.2221    1.5347    0.9324 C   0  0  0  0  0  0  0  0  0  0  0  0
   -0.1681    0.6348    1.8878 N   0  0  0  0  0  0  0  0  0  0  0  0
   -1.0742   -0.3457    1.5870 N   0  0  0  0  0  0  0  0  0  0  0  0
   -1.6806   -0.0185    0.4600 C   0  0  0  0  0  0  0  0  0  0  0  0
   -2.7147   -0.8402   -0.2396 C   0  0  0  0  0  0  0  0  0  0  0  0
   -2.1186   -1.6930   -1.3271 C   0  0  0  0  0  0  0  0  0  0  0  0
   -1.0372   -2.5511   -1.2482 C   0  0  0  0  0  0  0  0  0  0  0  0
   -0.7480   -3.1810   -2.4921 C   0  0  0  0  0  0  0  0  0  0  0  0
   -1.6338   -2.8080   -3.4765 C   0  0  0  0  0  0  0  0  0  0  0  0
   -2.7999   -1.6977   -2.9017 S   0  0  0  0  0  0  0  0  0  0  0  0
   -1.1800    1.1900    0.0200 N   0  0  0  0  0  0  0  0  0  0  0  0
   -1.5465    1.9023   -1.1867 C   0  0  0  0  0  0  0  0  0  0  0  0
   -2.5850    2.9173   -0.8955 C   0  0  0  0  0  0  0  0  0  0  0  0
   -2.5565    4.2870   -0.7228 C   0  0  0  0  0  0  0  0  0  0  0  0
   -3.8913    4.6850   -0.4715 C   0  0  0  0  0  0  0  0  0  0  0  0
   -4.6486    3.5373   -0.5085 C   0  0  0  0  0  0  0  0  0  0  0  0
   -3.8642    2.4600   -0.7694 O   0  0  0  0  0  0  0  0  0  0  0  0
    2.5328    0.0400    1.5465 N   0  0  0  0  0  0  0  0  0  0  0  0
    3.0439   -1.1866    1.0803 C   0  0  0  0  0  0  0  0  0  0  0  0
    4.2716   -1.3252    0.4277 C   0  0  0  0  0  0  0  0  0  0  0  0
    4.7020   -2.5811   -0.0148 C   0  0  0  0  0  0  0  0  0  0  0  0
    3.9061   -3.7060    0.1912 C   0  0  0  0  0  0  0  0  0  0  0  0
    2.6834   -3.5711    0.8439 C   0  0  0  0  0  0  0  0  0  0  0  0
    1.6879   -4.9540    1.0887 Cl  0  0  0  0  0  0  0  0  0  0  0  0
    2.2531   -2.3225    1.2942 C   0  0  0  0  0  0  0  0  0  0  0  0
    1.7826    2.1043    2.8975 H   0  0  0  0  0  0  0  0  0  0  0  0
    2.8152    3.2810    2.0968 H   0  0  0  0  0  0  0  0  0  0  0  0
   -3.1917   -1.5032    0.4930 H   0  0  0  0  0  0  0  0  0  0  0  0
   -3.5107   -0.1948   -0.6263 H   0  0  0  0  0  0  0  0  0  0  0  0
   -0.4701   -2.7104   -0.3361 H   0  0  0  0  0  0  0  0  0  0  0  0
    0.0676   -3.8755   -2.6495 H   0  0  0  0  0  0  0  0  0  0  0  0
   -1.6542   -3.1347   -4.5085 H   0  0  0  0  0  0  0  0  0  0  0  0
   -0.6489    2.3626   -1.6111 H   0  0  0  0  0  0  0  0  0  0  0  0
   -1.9045    1.1832   -1.9269 H   0  0  0  0  0  0  0  0  0  0  0  0
   -1.6792    4.9208   -0.7694 H   0  0  0  0  0  0  0  0  0  0  0  0
   -4.2563    5.6835   -0.2853 H   0  0  0  0  0  0  0  0  0  0  0  0
   -5.7024    3.3301   -0.3788 H   0  0  0  0  0  0  0  0  0  0  0  0
    1.6099   -0.0097    1.9856 H   0  0  0  0  0  0  0  0  0  0  0  0
    4.9235   -0.4741    0.2516 H   0  0  0  0  0  0  0  0  0  0  0  0
    5.6599   -2.6748   -0.5210 H   0  0  0  0  0  0  0  0  0  0  0  0
    4.2444   -4.6797   -0.1591 H   0  0  0  0  0  0  0  0  0  0  0  0
    1.2926   -2.2392    1.7991 H   0  0  0  0  0  0  0  0  0  0  0  0
  1  2  2  0
  2  3  1  0
  3  4  1  0
  4  5  1  0
  5  6  2  0
  6  7  1  0
  7  8  2  0
  8  9  1  0
  9 10  1  0
 10 11  2  0
 11 12  1  0
 12 13  2  0
 13 14  1  0
  8 15  1  0
 15 16  1  0
 16 17  1  0
 17 18  2  0
 18 19  1  0
 19 20  2  0
 20 21  1  0
  2 22  1  0
 22 23  1  0
 23 24  2  0
 24 25  1  0
 25 26  2  0
 26 27  1  0
 27 28  1  0
 27 29  2  0
 15  5  1  0
 21 17  1  0
 29 23  1  0
 14 10  1  0
  3 30  1  0
  3 31  1  0
  9 32  1  0
  9 33  1  0
 11 34  1  0
 12 35  1  0
 13 36  1  0
 16 37  1  0
 16 38  1  0
 18 39  1  0
 19 40  1  0
 20 41  1  0
 22 42  1  0
 24 43  1  0
 25 44  1  0
 26 45  1  0
 29 46  1  0
M  END
$$$$
