
     RDKit          3D

 51 54  0  0  0  0  0  0  0  0999 V2000
   -5.9007    1.6596   -2.2907 C   0  0  0  0  0  0  0  0  0  0  0  0
   -6.3193    1.5858   -0.8280 C   0  0  0  0  0  0  0  0  0  0  0  0
   -5.7358    0.4147   -0.1574 N   0  0  0  0  0  0  0  0  0  0  0  0
   -6.6770   -0.6267    0.2756 C   0  0  0  0  0  0  0  0  0  0  0  0
   -6.9561   -1.6139   -0.8475 C   0  0  0  0  0  0  0  0  0  0  0  0
   -4.3857    0.3460    0.1698 C   0  0  0  0  0  0  0  0  0  0  0  0
   -3.7593   -0.8704    0.5183 C   0  0  0  0  0  0  0  0  0  0  0  0
   -2.3930   -0.9559    0.8389 C   0  0  0  0  0  0  0  0  0  0  0  0
   -1.6024    0.1858    0.8249 C   0  0  0  0  0  0  0  0  0  0  0  0
   -0.1826    0.1633    1.1281 C   0  0  0  0  0  0  0  0  0  0  0  0
    0.5336    1.3012    1.1180 C   0  0  0  0  0  0  0  0  0  0  0  0
    1.9319    1.2280    1.3891 C   0  0  0  0  0  0  0  0  0  0  0  0
    2.7856    0.4035    0.8113 N   0  0  0  0  0  0  0  0  0  0  0  0
    4.0734    0.5979    1.2872 C   0  0  0  0  0  0  0  0  0  0  0  0
    5.2012   -0.1393    0.7276 C   0  0  0  0  0  0  0  0  0  0  0  0
    5.1542   -0.5572   -0.6112 C   0  0  0  0  0  0  0  0  0  0  0  0
    6.2286   -1.2451   -1.1918 C   0  0  0  0  0  0  0  0  0  0  0  0
    7.3646   -1.5299   -0.4346 C   0  0  0  0  0  0  0  0  0  0  0  0
    8.4816   -2.1853   -0.8770 O   0  0  0  0  0  0  0  0  0  0  0  0
    8.4929   -2.5877   -2.2418 C   0  0  0  0  0  0  0  0  0  0  0  0
    7.4107   -1.1305    0.9058 C   0  0  0  0  0  0  0  0  0  0  0  0
    6.3394   -0.4412    1.4856 C   0  0  0  0  0  0  0  0  0  0  0  0
    4.1840    1.5574    2.2715 C   0  0  0  0  0  0  0  0  0  0  0  0
    2.6437    2.2078    2.6316 S   0  0  0  0  0  0  0  0  0  0  0  0
   -0.0952    2.6073    0.7771 C   0  0  0  0  0  0  0  0  0  0  0  0
    0.5288    3.6628    0.7385 O   0  0  0  0  0  0  0  0  0  0  0  0
   -1.4574    2.5867    0.4829 O   0  0  0  0  0  0  0  0  0  0  0  0
   -2.2016    1.3912    0.4944 C   0  0  0  0  0  0  0  0  0  0  0  0
   -3.5576    1.4799    0.1655 C   0  0  0  0  0  0  0  0  0  0  0  0
   -4.8172    1.7627   -2.4047 H   0  0  0  0  0  0  0  0  0  0  0  0
   -6.3701    2.5219   -2.7723 H   0  0  0  0  0  0  0  0  0  0  0  0
   -6.2068    0.7588   -2.8321 H   0  0  0  0  0  0  0  0  0  0  0  0
   -6.0703    2.5136   -0.3006 H   0  0  0  0  0  0  0  0  0  0  0  0
   -7.4155    1.5282   -0.8001 H   0  0  0  0  0  0  0  0  0  0  0  0
   -7.6245   -0.1625    0.5868 H   0  0  0  0  0  0  0  0  0  0  0  0
   -6.3222   -1.1579    1.1694 H   0  0  0  0  0  0  0  0  0  0  0  0
   -7.4102   -1.1093   -1.7094 H   0  0  0  0  0  0  0  0  0  0  0  0
   -7.6510   -2.3841   -0.5017 H   0  0  0  0  0  0  0  0  0  0  0  0
   -6.0403   -2.1093   -1.1913 H   0  0  0  0  0  0  0  0  0  0  0  0
   -4.3210   -1.8010    0.5222 H   0  0  0  0  0  0  0  0  0  0  0  0
   -1.9710   -1.9271    1.0915 H   0  0  0  0  0  0  0  0  0  0  0  0
    0.2799   -0.7965    1.3467 H   0  0  0  0  0  0  0  0  0  0  0  0
    4.2765   -0.3405   -1.2196 H   0  0  0  0  0  0  0  0  0  0  0  0
    6.1420   -1.5370   -2.2349 H   0  0  0  0  0  0  0  0  0  0  0  0
    9.4548   -3.0716   -2.4400 H   0  0  0  0  0  0  0  0  0  0  0  0
    8.4119   -1.7230   -2.9097 H   0  0  0  0  0  0  0  0  0  0  0  0
    7.7030   -3.3204   -2.4427 H   0  0  0  0  0  0  0  0  0  0  0  0
    8.2897   -1.3588    1.5050 H   0  0  0  0  0  0  0  0  0  0  0  0
    6.4097   -0.1625    2.5344 H   0  0  0  0  0  0  0  0  0  0  0  0
    5.0666    1.9175    2.7808 H   0  0  0  0  0  0  0  0  0  0  0  0
   -3.9446    2.4629   -0.0848 H   0  0  0  0  0  0  0  0  0  0  0  0
  1  2  1  0
  2  3  1  0
  3  4  1  0
  4  5  1  0
  3  6  1  0
  6  7  2  0
  7  8  1  0
  8  9  2  0
  9 10  1  0
 10 11  2  0
 11 12  1  0
 12 13  2  0
 13 14  1  0
 14 15  1  0
 15 16  2  0
 16 17  1  0
 17 18  2  0
 18 19  1  0
 19 20  1  0
 18 21  1  0
 21 22  2  0
 14 23  2  0
 23 24  1  0
 11 25  1  0
 25 26  2  0
 25 27  1  0
 27 28  1  0
 28 29  2  0
 29  6  1  0
 28  9  1  0
 24 12  1  0
 22 15  1  0
  1 30  1  0
  1 31  1  0
  1 32  1  0
  2 33  1  0
  2 34  1  0
  4 35  1  0
  4 36  1  0
  5 37  1  0
  5 38  1  0
  5 39  1  0
  7 40  1  0
  8 41  1  0
 10 42  1  0
 16 43  1  0
 17 44  1  0
 20 45  1  0
 20 46  1  0
 20 47  1  0
 21 48  1  0
 22 49  1  0
 23 50  1  0
 29 51  1  0
M  END
$$$$
