
     RDKit          3D

 47 51  0  0  0  0  0  0  0  0999 V2000
   -1.4841   -2.5785   -1.7497 C   0  0  0  0  0  0  0  0  0  0  0  0
   -2.1091   -1.3203   -1.2324 C   0  0  0  0  0  0  0  0  0  0  0  0
   -3.2970   -0.9764   -1.6641 N   0  0  0  0  0  0  0  0  0  0  0  0
   -3.8379    0.1769   -1.1677 C   0  0  0  0  0  0  0  0  0  0  0  0
   -5.3766    0.7470   -1.6489 S   0  0  0  0  0  0  0  0  0  0  0  0
   -5.2566    2.1160   -0.6329 C   0  0  0  0  0  0  0  0  0  0  0  0
   -4.0730    2.1575    0.0833 C   0  0  0  0  0  0  0  0  0  0  0  0
   -3.2791    1.0394   -0.2484 C   0  0  0  0  0  0  0  0  0  0  0  0
   -1.8919    0.5972    0.2232 C   0  0  0  0  0  0  0  0  0  0  0  0
   -1.0737    1.1608    1.0735 N   0  0  0  0  0  0  0  0  0  0  0  0
    0.0381    0.3586    1.1367 N   0  0  0  0  0  0  0  0  0  0  0  0
   -0.1403   -0.6651    0.3244 C   0  0  0  0  0  0  0  0  0  0  0  0
    1.0338   -1.9124    0.0909 S   0  0  0  0  0  0  0  0  0  0  0  0
    2.2079   -1.5185    1.4207 C   0  0  0  0  0  0  0  0  0  0  0  0
    3.3342   -2.5341    1.4025 C   0  0  0  0  0  0  0  0  0  0  0  0
    3.2431   -3.6326    1.9455 O   0  0  0  0  0  0  0  0  0  0  0  0
    4.4531   -2.1370    0.7061 N   0  0  0  0  0  0  0  0  0  0  0  0
    5.6426   -2.9558    0.6945 C   0  0  0  0  0  0  0  0  0  0  0  0
    6.5767   -2.4204   -0.3240 C   0  0  0  0  0  0  0  0  0  0  0  0
    7.1687   -2.9620   -1.4462 C   0  0  0  0  0  0  0  0  0  0  0  0
    7.9653   -1.9376   -2.0122 C   0  0  0  0  0  0  0  0  0  0  0  0
    7.8084   -0.8375   -1.2028 C   0  0  0  0  0  0  0  0  0  0  0  0
    6.9655   -1.1183   -0.1761 O   0  0  0  0  0  0  0  0  0  0  0  0
   -1.3685   -0.5685   -0.2953 N   0  0  0  0  0  0  0  0  0  0  0  0
   -3.7439    3.2719    1.0268 C   0  0  0  0  0  0  0  0  0  0  0  0
   -4.9913    4.0958    1.3869 C   0  0  0  0  0  0  0  0  0  0  0  0
   -5.8469    4.4073    0.1495 C   0  0  0  0  0  0  0  0  0  0  0  0
   -6.3572    3.1264   -0.5308 C   0  0  0  0  0  0  0  0  0  0  0  0
   -0.5599   -2.3538   -2.2873 H   0  0  0  0  0  0  0  0  0  0  0  0
   -2.1651   -3.0637   -2.4573 H   0  0  0  0  0  0  0  0  0  0  0  0
   -1.3059   -3.2820   -0.9329 H   0  0  0  0  0  0  0  0  0  0  0  0
    1.7170   -1.5662    2.3983 H   0  0  0  0  0  0  0  0  0  0  0  0
    2.6110   -0.5092    1.2879 H   0  0  0  0  0  0  0  0  0  0  0  0
    4.5674   -1.1642    0.4483 H   0  0  0  0  0  0  0  0  0  0  0  0
    5.3672   -3.9934    0.4783 H   0  0  0  0  0  0  0  0  0  0  0  0
    6.0942   -2.9190    1.6914 H   0  0  0  0  0  0  0  0  0  0  0  0
    7.0395   -3.9722   -1.8097 H   0  0  0  0  0  0  0  0  0  0  0  0
    8.5789   -1.9931   -2.9005 H   0  0  0  0  0  0  0  0  0  0  0  0
    8.2069    0.1676   -1.2195 H   0  0  0  0  0  0  0  0  0  0  0  0
   -3.0028    3.9254    0.5502 H   0  0  0  0  0  0  0  0  0  0  0  0
   -3.2933    2.8784    1.9448 H   0  0  0  0  0  0  0  0  0  0  0  0
   -5.6006    3.5405    2.1117 H   0  0  0  0  0  0  0  0  0  0  0  0
   -4.6845    5.0279    1.8747 H   0  0  0  0  0  0  0  0  0  0  0  0
   -5.2462    4.9870   -0.5633 H   0  0  0  0  0  0  0  0  0  0  0  0
   -6.7000    5.0343    0.4324 H   0  0  0  0  0  0  0  0  0  0  0  0
   -6.7590    3.3744   -1.5197 H   0  0  0  0  0  0  0  0  0  0  0  0
   -7.1751    2.7011    0.0639 H   0  0  0  0  0  0  0  0  0  0  0  0
  1  2  1  0
  2  3  2  0
  3  4  1  0
  4  5  1  0
  5  6  1  0
  6  7  2  0
  7  8  1  0
  8  9  1  0
  9 10  2  0
 10 11  1  0
 11 12  2  0
 12 13  1  0
 13 14  1  0
 14 15  1  0
 15 16  2  0
 15 17  1  0
 17 18  1  0
 18 19  1  0
 19 20  2  0
 20 21  1  0
 21 22  2  0
 22 23  1  0
 12 24  1  0
  7 25  1  0
 25 26  1  0
 26 27  1  0
 27 28  1  0
 24  2  1  0
  8  4  2  0
 24  9  1  0
 28  6  1  0
 23 19  1  0
  1 29  1  0
  1 30  1  0
  1 31  1  0
 14 32  1  0
 14 33  1  0
 17 34  1  0
 18 35  1  0
 18 36  1  0
 20 37  1  0
 21 38  1  0
 22 39  1  0
 25 40  1  0
 25 41  1  0
 26 42  1  0
 26 43  1  0
 27 44  1  0
 27 45  1  0
 28 46  1  0
 28 47  1  0
M  END
$$$$
