
     RDKit          3D

 43 46  0  0  0  0  0  0  0  0999 V2000
    6.0514    1.3183    1.7111 C   0  0  0  0  0  0  0  0  0  0  0  0
    4.6662    1.0878    1.1803 C   0  0  0  0  0  0  0  0  0  0  0  0
    3.5527    1.5771    1.8689 C   0  0  0  0  0  0  0  0  0  0  0  0
    2.2639    1.3891    1.3603 C   0  0  0  0  0  0  0  0  0  0  0  0
    2.0756    0.7188    0.1461 C   0  0  0  0  0  0  0  0  0  0  0  0
    0.6231    0.5107   -0.4150 C   0  0  0  0  0  0  0  0  0  0  0  0
   -0.5619    0.8853    0.2072 C   0  0  0  0  0  0  0  0  0  0  0  0
   -1.6407    0.4875   -0.5881 N   0  0  0  0  0  4  0  0  0  0  0  0
   -3.0586    0.6742   -0.2952 C   0  0  0  0  0  0  0  0  0  0  0  0
   -3.4347   -0.1758    0.8926 C   0  0  0  0  0  0  0  0  0  0  0  0
   -3.9056    0.4137    2.0746 C   0  0  0  0  0  0  0  0  0  0  0  0
   -4.2475   -0.3784    3.1756 C   0  0  0  0  0  0  0  0  0  0  0  0
   -4.1255   -1.7693    3.1131 C   0  0  0  0  0  0  0  0  0  0  0  0
   -4.5580   -2.6808    4.5124 Cl  0  0  0  0  0  0  0  0  0  0  0  0
   -3.6626   -2.3688    1.9395 C   0  0  0  0  0  0  0  0  0  0  0  0
   -3.4763   -4.0775    1.7761 Cl  0  0  0  0  0  0  0  0  0  0  0  0
   -3.3235   -1.5750    0.8363 C   0  0  0  0  0  0  0  0  0  0  0  0
   -1.1353   -0.0837   -1.6752 C   0  0  0  0  0  0  0  0  0  0  0  0
    0.1911   -0.0667   -1.5963 N   0  0  0  0  0  0  0  0  0  0  0  0
    0.8149   -0.6724   -2.7643 C   0  0  0  0  0  0  0  0  0  0  0  0
   -0.3601   -0.8128   -3.7715 C   0  0  0  0  0  0  0  0  0  0  0  0
   -1.6390   -0.7159   -2.9161 C   0  0  0  0  0  0  0  0  0  0  0  0
    3.1855    0.2381   -0.5490 C   0  0  0  0  0  0  0  0  0  0  0  0
    4.4732    0.4279   -0.0369 C   0  0  0  0  0  0  0  0  0  0  0  0
    6.4405    2.2708    1.3390 H   0  0  0  0  0  0  0  0  0  0  0  0
    6.7273    0.5144    1.4013 H   0  0  0  0  0  0  0  0  0  0  0  0
    6.0513    1.3383    2.8059 H   0  0  0  0  0  0  0  0  0  0  0  0
    3.6850    2.1083    2.8104 H   0  0  0  0  0  0  0  0  0  0  0  0
    1.4339    1.7847    1.9379 H   0  0  0  0  0  0  0  0  0  0  0  0
   -0.7814    1.3736    1.1416 H   0  0  0  0  0  0  0  0  0  0  0  0
   -3.2286    1.7392   -0.1024 H   0  0  0  0  0  0  0  0  0  0  0  0
   -3.6616    0.3907   -1.1640 H   0  0  0  0  0  0  0  0  0  0  0  0
   -4.0172    1.4946    2.1580 H   0  0  0  0  0  0  0  0  0  0  0  0
   -4.6129    0.0959    4.0854 H   0  0  0  0  0  0  0  0  0  0  0  0
   -2.9671   -2.0597   -0.0700 H   0  0  0  0  0  0  0  0  0  0  0  0
    1.6005   -0.0295   -3.1674 H   0  0  0  0  0  0  0  0  0  0  0  0
    1.2141   -1.6514   -2.4836 H   0  0  0  0  0  0  0  0  0  0  0  0
   -0.3080   -1.7346   -4.3570 H   0  0  0  0  0  0  0  0  0  0  0  0
   -0.3317    0.0312   -4.4708 H   0  0  0  0  0  0  0  0  0  0  0  0
   -2.4070   -0.0781   -3.3549 H   0  0  0  0  0  0  0  0  0  0  0  0
   -2.0301   -1.6951   -2.6321 H   0  0  0  0  0  0  0  0  0  0  0  0
    3.0940   -0.2965   -1.4850 H   0  0  0  0  0  0  0  0  0  0  0  0
    5.3308    0.0519   -0.5932 H   0  0  0  0  0  0  0  0  0  0  0  0
  1  2  1  0
  2  3  2  0
  3  4  1  0
  4  5  2  0
  5  6  1  0
  6  7  2  0
  7  8  1  0
  8  9  1  0
  9 10  1  0
 10 11  2  0
 11 12  1  0
 12 13  2  0
 13 14  1  0
 13 15  1  0
 15 16  1  0
 15 17  2  0
  8 18  2  0
 18 19  1  0
 19 20  1  0
 20 21  1  0
 21 22  1  0
  5 23  1  0
 23 24  2  0
 24  2  1  0
 19  6  1  0
 17 10  1  0
 22 18  1  0
  1 25  1  0
  1 26  1  0
  1 27  1  0
  3 28  1  0
  4 29  1  0
  7 30  1  0
  9 31  1  0
  9 32  1  0
 11 33  1  0
 12 34  1  0
 17 35  1  0
 20 36  1  0
 20 37  1  0
 21 38  1  0
 21 39  1  0
 22 40  1  0
 22 41  1  0
 23 42  1  0
 24 43  1  0
M  CHG  1   8   1
M  END
$$$$
