
     RDKit          3D

 55 60  0  0  0  0  0  0  0  0999 V2000
    3.0956    1.1326    3.4869 O   0  0  0  0  0  0  0  0  0  0  0  0
    3.4192    0.9418    2.3159 C   0  0  0  0  0  0  0  0  0  0  0  0
    4.8220    1.0186    1.9339 C   0  0  0  0  0  0  0  0  0  0  0  0
    5.9501    0.6590    2.7304 C   0  0  0  0  0  0  0  0  0  0  0  0
    7.0686    0.9368    1.9821 C   0  0  0  0  0  0  0  0  0  0  0  0
    6.7142    1.4720    0.7868 O   0  0  0  0  0  0  0  0  0  0  0  0
    5.3581    1.5410    0.7733 C   0  0  0  0  0  0  0  0  0  0  0  0
    2.4661    0.6574    1.3322 N   0  0  0  0  0  0  0  0  0  0  0  0
    1.0594    0.7475    1.7099 C   0  0  0  0  0  0  0  0  0  0  0  0
    0.1875    0.9444    0.4777 C   0  0  0  0  0  0  0  0  0  0  0  0
    0.2738   -0.2466   -0.5227 C   0  0  0  0  0  0  0  0  0  0  0  0
    1.6514   -0.9623   -0.3488 C   0  0  0  0  0  0  0  0  0  0  0  0
    2.7618    0.0047    0.0575 C   0  0  0  0  0  0  0  0  0  0  0  0
    0.2251    0.3831   -1.8327 O   0  0  0  0  0  0  0  0  0  0  0  0
    0.0391   -0.4484   -2.9017 C   0  0  0  0  0  0  0  0  0  0  0  0
    0.3340    0.0867   -4.1549 C   0  0  0  0  0  0  0  0  0  0  0  0
    0.1986   -0.7017   -5.3003 C   0  0  0  0  0  0  0  0  0  0  0  0
   -0.2355   -2.0232   -5.1888 C   0  0  0  0  0  0  0  0  0  0  0  0
   -0.3973   -2.9882   -6.6026 Cl  0  0  0  0  0  0  0  0  0  0  0  0
   -0.5462   -2.5621   -3.9430 C   0  0  0  0  0  0  0  0  0  0  0  0
   -0.4166   -1.7630   -2.8030 C   0  0  0  0  0  0  0  0  0  0  0  0
   -0.7833   -2.2894   -1.4747 C   0  0  0  0  0  0  0  0  0  0  0  0
   -1.0066   -3.4868   -1.3362 O   0  0  0  0  0  0  0  0  0  0  0  0
   -0.9134   -1.2435   -0.3724 C   0  0  0  0  0  0  0  0  0  0  0  0
   -2.3147   -0.6476   -0.4788 C   0  0  0  0  0  0  0  0  0  0  0  0
   -2.7209   -0.7171    0.9518 C   0  0  0  0  0  0  0  0  0  0  0  0
   -3.9573   -0.0705    1.4510 C   0  0  0  0  0  0  0  0  0  0  0  0
   -4.2242   -0.0898    2.8270 C   0  0  0  0  0  0  0  0  0  0  0  0
   -5.3793    0.5149    3.3303 C   0  0  0  0  0  0  0  0  0  0  0  0
   -6.2694    1.1375    2.4587 C   0  0  0  0  0  0  0  0  0  0  0  0
   -7.6914    1.8831    3.0745 Cl  0  0  0  0  0  0  0  0  0  0  0  0
   -6.0148    1.1588    1.0880 C   0  0  0  0  0  0  0  0  0  0  0  0
   -4.8591    0.5546    0.5814 C   0  0  0  0  0  0  0  0  0  0  0  0
   -1.9088   -1.3720    1.7160 N   0  0  0  0  0  0  0  0  0  0  0  0
   -0.8696   -1.8800    0.9069 O   0  0  0  0  0  0  0  0  0  0  0  0
    5.9322    0.2461    3.7300 H   0  0  0  0  0  0  0  0  0  0  0  0
    8.1310    0.8307    2.1526 H   0  0  0  0  0  0  0  0  0  0  0  0
    4.9319    1.9910   -0.1121 H   0  0  0  0  0  0  0  0  0  0  0  0
    0.7928   -0.1645    2.2552 H   0  0  0  0  0  0  0  0  0  0  0  0
    0.9235    1.5907    2.3968 H   0  0  0  0  0  0  0  0  0  0  0  0
   -0.8398    1.1477    0.7894 H   0  0  0  0  0  0  0  0  0  0  0  0
    0.5106    1.8668   -0.0265 H   0  0  0  0  0  0  0  0  0  0  0  0
    1.9632   -1.4603   -1.2733 H   0  0  0  0  0  0  0  0  0  0  0  0
    1.5825   -1.7394    0.4226 H   0  0  0  0  0  0  0  0  0  0  0  0
    2.8759    0.7886   -0.6994 H   0  0  0  0  0  0  0  0  0  0  0  0
    3.7032   -0.5487    0.1280 H   0  0  0  0  0  0  0  0  0  0  0  0
    0.6814    1.1137   -4.2433 H   0  0  0  0  0  0  0  0  0  0  0  0
    0.4371   -0.2818   -6.2749 H   0  0  0  0  0  0  0  0  0  0  0  0
   -0.8939   -3.5896   -3.8586 H   0  0  0  0  0  0  0  0  0  0  0  0
   -2.3247    0.3754   -0.8629 H   0  0  0  0  0  0  0  0  0  0  0  0
   -3.0037   -1.2614   -1.0697 H   0  0  0  0  0  0  0  0  0  0  0  0
   -3.5369   -0.5765    3.5174 H   0  0  0  0  0  0  0  0  0  0  0  0
   -5.5759    0.4934    4.3993 H   0  0  0  0  0  0  0  0  0  0  0  0
   -6.7137    1.6418    0.4092 H   0  0  0  0  0  0  0  0  0  0  0  0
   -4.6927    0.5804   -0.4914 H   0  0  0  0  0  0  0  0  0  0  0  0
  1  2  2  0
  2  3  1  0
  3  4  1  0
  4  5  2  0
  5  6  1  0
  6  7  1  0
  2  8  1  0
  8  9  1  0
  9 10  1  0
 10 11  1  0
 11 12  1  0
 12 13  1  0
 11 14  1  0
 14 15  1  0
 15 16  2  0
 16 17  1  0
 17 18  2  0
 18 19  1  0
 18 20  1  0
 20 21  2  0
 21 22  1  0
 22 23  2  0
 22 24  1  0
 24 25  1  0
 25 26  1  0
 26 27  1  0
 27 28  2  0
 28 29  1  0
 29 30  2  0
 30 31  1  0
 30 32  1  0
 32 33  2  0
 26 34  2  0
 34 35  1  0
  7  3  2  0
 13  8  1  0
 21 15  1  0
 35 24  1  0
 24 11  1  0
 33 27  1  0
  4 36  1  0
  5 37  1  0
  7 38  1  0
  9 39  1  0
  9 40  1  0
 10 41  1  0
 10 42  1  0
 12 43  1  0
 12 44  1  0
 13 45  1  0
 13 46  1  0
 16 47  1  0
 17 48  1  0
 20 49  1  0
 25 50  1  0
 25 51  1  0
 28 52  1  0
 29 53  1  0
 32 54  1  0
 33 55  1  0
M  END
$$$$
