
     RDKit          3D

 42 43  0  0  0  0  0  0  0  0999 V2000
   -5.0893   -1.3246   -1.8911 C   0  0  0  0  0  0  0  0  0  0  0  0
   -5.1995   -0.5578   -0.6114 C   0  0  0  0  0  0  0  0  0  0  0  0
   -4.2700    0.2414   -0.0457 C   0  0  0  0  0  0  0  0  0  0  0  0
   -4.5652    0.9021    1.2759 C   0  0  0  0  0  0  0  0  0  0  0  0
   -2.9333    0.5797   -0.6779 C   0  0  0  0  0  0  0  0  0  0  0  0
   -1.8462   -0.2491   -0.1506 N   0  0  0  0  0  0  0  0  0  0  0  0
   -0.8586   -0.5638   -1.2024 C   0  0  0  0  0  0  0  0  0  0  0  0
    0.4956   -1.0698   -0.6567 C   0  0  0  0  0  0  0  0  0  0  0  0
    1.1276   -0.0456    0.1894 N   0  0  0  0  0  0  0  0  0  0  0  0
    2.5000    0.0105    0.3627 C   0  0  0  0  0  0  0  0  0  0  0  0
    3.3261   -1.0949    0.1060 C   0  0  0  0  0  0  0  0  0  0  0  0
    4.7164   -1.0453    0.2808 C   0  0  0  0  0  0  0  0  0  0  0  0
    5.3324    0.1214    0.7316 C   0  0  0  0  0  0  0  0  0  0  0  0
    6.8210    0.1911    0.8875 C   0  0  0  0  0  0  0  0  0  0  0  0
    4.5360    1.2387    0.9790 C   0  0  0  0  0  0  0  0  0  0  0  0
    3.1465    1.1764    0.8022 C   0  0  0  0  0  0  0  0  0  0  0  0
    0.2235    0.9223    0.8274 C   0  0  0  0  0  0  0  0  0  0  0  0
   -1.1889    0.3231    1.0433 C   0  0  0  0  0  0  0  0  0  0  0  0
   -5.3832   -2.3651   -1.7176 H   0  0  0  0  0  0  0  0  0  0  0  0
   -4.0790   -1.3407   -2.3054 H   0  0  0  0  0  0  0  0  0  0  0  0
   -5.7663   -0.9005   -2.6386 H   0  0  0  0  0  0  0  0  0  0  0  0
   -6.1415   -0.7130   -0.0866 H   0  0  0  0  0  0  0  0  0  0  0  0
   -5.6140    0.7869    1.5706 H   0  0  0  0  0  0  0  0  0  0  0  0
   -4.3620    1.9766    1.2219 H   0  0  0  0  0  0  0  0  0  0  0  0
   -3.9537    0.4652    2.0707 H   0  0  0  0  0  0  0  0  0  0  0  0
   -2.7151    1.6500   -0.5625 H   0  0  0  0  0  0  0  0  0  0  0  0
   -3.0229    0.4466   -1.7634 H   0  0  0  0  0  0  0  0  0  0  0  0
   -1.2805   -1.3288   -1.8648 H   0  0  0  0  0  0  0  0  0  0  0  0
   -0.6620    0.3271   -1.8156 H   0  0  0  0  0  0  0  0  0  0  0  0
    1.1277   -1.3046   -1.5217 H   0  0  0  0  0  0  0  0  0  0  0  0
    0.3505   -1.9904   -0.0785 H   0  0  0  0  0  0  0  0  0  0  0  0
    2.8978   -2.0388   -0.2190 H   0  0  0  0  0  0  0  0  0  0  0  0
    5.3074   -1.9323    0.0658 H   0  0  0  0  0  0  0  0  0  0  0  0
    7.0985    0.8962    1.6781 H   0  0  0  0  0  0  0  0  0  0  0  0
    7.2813    0.5136   -0.0515 H   0  0  0  0  0  0  0  0  0  0  0  0
    7.2310   -0.7855    1.1655 H   0  0  0  0  0  0  0  0  0  0  0  0
    4.9850    2.1723    1.3092 H   0  0  0  0  0  0  0  0  0  0  0  0
    2.5787    2.0820    0.9947 H   0  0  0  0  0  0  0  0  0  0  0  0
    0.1528    1.8220    0.2041 H   0  0  0  0  0  0  0  0  0  0  0  0
    0.6025    1.2189    1.8129 H   0  0  0  0  0  0  0  0  0  0  0  0
   -1.0966   -0.4952    1.7696 H   0  0  0  0  0  0  0  0  0  0  0  0
   -1.8105    1.0818    1.5304 H   0  0  0  0  0  0  0  0  0  0  0  0
  1  2  1  0
  2  3  2  3
  3  4  1  0
  3  5  1  0
  5  6  1  0
  6  7  1  0
  7  8  1  0
  8  9  1  0
  9 10  1  0
 10 11  2  0
 11 12  1  0
 12 13  2  0
 13 14  1  0
 13 15  1  0
 15 16  2  0
  9 17  1  0
 17 18  1  0
 18  6  1  0
 16 10  1  0
  1 19  1  0
  1 20  1  0
  1 21  1  0
  2 22  1  0
  4 23  1  0
  4 24  1  0
  4 25  1  0
  5 26  1  0
  5 27  1  0
  7 28  1  0
  7 29  1  0
  8 30  1  0
  8 31  1  0
 11 32  1  0
 12 33  1  0
 14 34  1  0
 14 35  1  0
 14 36  1  0
 15 37  1  0
 16 38  1  0
 17 39  1  0
 17 40  1  0
 18 41  1  0
 18 42  1  0
M  END
$$$$
