
     RDKit          3D

 44 46  0  0  0  0  0  0  0  0999 V2000
   -2.3878    2.6332    1.5741 C   0  0  0  0  0  0  0  0  0  0  0  0
   -2.6017    1.4827    0.6352 C   0  0  0  0  0  0  0  0  0  0  0  0
   -2.0921    1.5274   -0.6666 C   0  0  0  0  0  0  0  0  0  0  0  0
   -2.2512    0.4440   -1.5428 C   0  0  0  0  0  0  0  0  0  0  0  0
   -1.6987    0.5567   -2.9369 C   0  0  0  0  0  0  0  0  0  0  0  0
   -2.8778   -0.7209   -1.0716 C   0  0  0  0  0  0  0  0  0  0  0  0
   -2.9553   -1.8036   -1.9094 O   0  0  0  0  0  0  0  0  0  0  0  0
   -2.0082   -2.8164   -1.5776 C   0  0  0  0  0  0  0  0  0  0  0  0
   -0.5467   -2.5282   -1.9546 C   0  0  0  0  0  0  0  0  0  0  0  0
   -0.0850   -2.9287   -3.0190 O   0  0  0  0  0  0  0  0  0  0  0  0
    0.1159   -1.8140   -0.9779 N   0  0  0  0  0  0  0  0  0  0  0  0
    1.4188   -1.3919   -0.9979 C   0  0  0  0  0  0  0  0  0  0  0  0
    1.8813   -0.6053   -0.0545 N   0  0  0  0  0  0  0  0  0  0  0  0
    3.2231   -0.3207   -0.2948 C   0  0  0  0  0  0  0  0  0  0  0  0
    4.0051    0.5478    0.5834 C   0  0  0  0  0  0  0  0  0  0  0  0
    3.4141    1.1412    1.6956 C   0  0  0  0  0  0  0  0  0  0  0  0
    4.1875    1.9659    2.5088 C   0  0  0  0  0  0  0  0  0  0  0  0
    5.5236    2.1744    2.1905 C   0  0  0  0  0  0  0  0  0  0  0  0
    6.0340    1.5465    1.0670 C   0  0  0  0  0  0  0  0  0  0  0  0
    5.3099    0.7412    0.2592 N   0  0  0  0  0  0  0  0  0  0  0  0
    3.7435   -0.9257   -1.4233 C   0  0  0  0  0  0  0  0  0  0  0  0
    2.5325   -1.8580   -2.1955 S   0  0  0  0  0  0  0  0  0  0  0  0
   -3.4529   -0.7640    0.2088 C   0  0  0  0  0  0  0  0  0  0  0  0
   -4.2282   -1.9507    0.7074 C   0  0  0  0  0  0  0  0  0  0  0  0
   -3.2800    0.3361    1.0626 C   0  0  0  0  0  0  0  0  0  0  0  0
   -1.4635    2.4841    2.1403 H   0  0  0  0  0  0  0  0  0  0  0  0
   -3.2229    2.7259    2.2763 H   0  0  0  0  0  0  0  0  0  0  0  0
   -2.3179    3.5787    1.0261 H   0  0  0  0  0  0  0  0  0  0  0  0
   -1.5674    2.4186   -1.0083 H   0  0  0  0  0  0  0  0  0  0  0  0
   -0.6115    0.4326   -2.9235 H   0  0  0  0  0  0  0  0  0  0  0  0
   -1.9356    1.5399   -3.3590 H   0  0  0  0  0  0  0  0  0  0  0  0
   -2.1289   -0.1898   -3.6122 H   0  0  0  0  0  0  0  0  0  0  0  0
   -2.0585   -3.0975   -0.5189 H   0  0  0  0  0  0  0  0  0  0  0  0
   -2.3037   -3.7178   -2.1284 H   0  0  0  0  0  0  0  0  0  0  0  0
   -0.4109   -1.4229   -0.2077 H   0  0  0  0  0  0  0  0  0  0  0  0
    2.3682    0.9678    1.9274 H   0  0  0  0  0  0  0  0  0  0  0  0
    3.7486    2.4407    3.3815 H   0  0  0  0  0  0  0  0  0  0  0  0
    6.1527    2.8111    2.8026 H   0  0  0  0  0  0  0  0  0  0  0  0
    7.0725    1.6787    0.7766 H   0  0  0  0  0  0  0  0  0  0  0  0
    4.7484   -0.8638   -1.8170 H   0  0  0  0  0  0  0  0  0  0  0  0
   -3.5728   -2.6198    1.2728 H   0  0  0  0  0  0  0  0  0  0  0  0
   -4.6830   -2.5085   -0.1178 H   0  0  0  0  0  0  0  0  0  0  0  0
   -5.0478   -1.6297    1.3600 H   0  0  0  0  0  0  0  0  0  0  0  0
   -3.6898    0.3027    2.0710 H   0  0  0  0  0  0  0  0  0  0  0  0
  1  2  1  0
  2  3  2  0
  3  4  1  0
  4  5  1  0
  4  6  2  0
  6  7  1  0
  7  8  1  0
  8  9  1  0
  9 10  2  0
  9 11  1  0
 11 12  1  0
 12 13  2  0
 13 14  1  0
 14 15  1  0
 15 16  2  0
 16 17  1  0
 17 18  2  0
 18 19  1  0
 19 20  2  0
 14 21  2  0
 21 22  1  0
  6 23  1  0
 23 24  1  0
 23 25  2  0
 25  2  1  0
 22 12  1  0
 20 15  1  0
  1 26  1  0
  1 27  1  0
  1 28  1  0
  3 29  1  0
  5 30  1  0
  5 31  1  0
  5 32  1  0
  8 33  1  0
  8 34  1  0
 11 35  1  0
 16 36  1  0
 17 37  1  0
 18 38  1  0
 19 39  1  0
 21 40  1  0
 24 41  1  0
 24 42  1  0
 24 43  1  0
 25 44  1  0
M  END
$$$$
