
     RDKit          3D

 37 39  0  0  0  0  0  0  0  0999 V2000
   -3.9921   -1.8145    1.4934 O   0  0  0  0  0  0  0  0  0  0  0  0
   -4.3142   -0.8665    0.7827 C   0  0  0  0  0  0  0  0  0  0  0  0
   -3.4053   -0.0543    0.1164 N   0  0  0  0  0  0  0  0  0  0  0  0
   -1.9966   -0.1063    0.1656 C   0  0  0  0  0  0  0  0  0  0  0  0
   -1.2679   -0.9654    0.9852 C   0  0  0  0  0  0  0  0  0  0  0  0
    0.1335   -0.9428    0.9714 C   0  0  0  0  0  0  0  0  0  0  0  0
    0.8320   -0.0605    0.1408 C   0  0  0  0  0  0  0  0  0  0  0  0
    2.2403   -0.1076    0.1899 N   0  0  0  0  0  0  0  0  0  0  0  0
    3.1356    0.6796   -0.5064 C   0  0  0  0  0  0  0  0  0  0  0  0
    2.8546    1.5559   -1.3174 O   0  0  0  0  0  0  0  0  0  0  0  0
    4.5834    0.3845   -0.2856 C   0  0  0  0  0  0  0  0  0  0  0  0
    5.4217    0.5295   -1.4071 C   0  0  0  0  0  0  0  0  0  0  0  0
    6.7923    0.2769   -1.3153 C   0  0  0  0  0  0  0  0  0  0  0  0
    7.3383   -0.1159   -0.0980 C   0  0  0  0  0  0  0  0  0  0  0  0
    9.0249   -0.4287    0.0209 Cl  0  0  0  0  0  0  0  0  0  0  0  0
    6.5281   -0.2521    1.0271 C   0  0  0  0  0  0  0  0  0  0  0  0
    5.1526    0.0014    0.9386 C   0  0  0  0  0  0  0  0  0  0  0  0
    4.2480   -0.1522    2.4041 Cl  0  0  0  0  0  0  0  0  0  0  0  0
    0.1041    0.8012   -0.6761 C   0  0  0  0  0  0  0  0  0  0  0  0
   -1.2971    0.7788   -0.6623 C   0  0  0  0  0  0  0  0  0  0  0  0
   -5.7130   -0.5010    0.5438 C   0  0  0  0  0  0  0  0  0  0  0  0
   -6.2693    0.6892    0.1019 C   0  0  0  0  0  0  0  0  0  0  0  0
   -7.6913    0.6282   -0.0014 C   0  0  0  0  0  0  0  0  0  0  0  0
   -8.1822   -0.6009    0.3721 C   0  0  0  0  0  0  0  0  0  0  0  0
   -6.9384   -1.6681    0.8516 S   0  0  0  0  0  0  0  0  0  0  0  0
   -3.7903    0.6223   -0.5260 H   0  0  0  0  0  0  0  0  0  0  0  0
   -1.7524   -1.6679    1.6559 H   0  0  0  0  0  0  0  0  0  0  0  0
    0.6630   -1.6292    1.6276 H   0  0  0  0  0  0  0  0  0  0  0  0
    2.6287   -0.7808    0.8404 H   0  0  0  0  0  0  0  0  0  0  0  0
    5.0035    0.8412   -2.3643 H   0  0  0  0  0  0  0  0  0  0  0  0
    7.4223    0.3922   -2.1943 H   0  0  0  0  0  0  0  0  0  0  0  0
    6.9705   -0.5471    1.9761 H   0  0  0  0  0  0  0  0  0  0  0  0
    0.5927    1.5070   -1.3401 H   0  0  0  0  0  0  0  0  0  0  0  0
   -1.8244    1.4688   -1.3162 H   0  0  0  0  0  0  0  0  0  0  0  0
   -5.7000    1.5820   -0.1240 H   0  0  0  0  0  0  0  0  0  0  0  0
   -8.3220    1.4476   -0.3250 H   0  0  0  0  0  0  0  0  0  0  0  0
   -9.2140   -0.9244    0.3961 H   0  0  0  0  0  0  0  0  0  0  0  0
  1  2  2  0
  2  3  1  0
  3  4  1  0
  4  5  2  0
  5  6  1  0
  6  7  2  0
  7  8  1  0
  8  9  1  0
  9 10  2  0
  9 11  1  0
 11 12  2  0
 12 13  1  0
 13 14  2  0
 14 15  1  0
 14 16  1  0
 16 17  2  0
 17 18  1  0
  7 19  1  0
 19 20  2  0
  2 21  1  0
 21 22  2  0
 22 23  1  0
 23 24  2  0
 24 25  1  0
 20  4  1  0
 25 21  1  0
 17 11  1  0
  3 26  1  0
  5 27  1  0
  6 28  1  0
  8 29  1  0
 12 30  1  0
 13 31  1  0
 16 32  1  0
 19 33  1  0
 20 34  1  0
 22 35  1  0
 23 36  1  0
 24 37  1  0
M  END
$$$$
