
     RDKit          3D

 44 46  0  0  0  0  0  0  0  0999 V2000
   -1.5026    0.2166    4.2436 C   0  0  0  0  0  0  0  0  0  0  0  0
   -1.6544   -0.3163    2.8439 C   0  0  0  0  0  0  0  0  0  0  0  0
   -1.0544   -1.5423    2.5080 C   0  0  0  0  0  0  0  0  0  0  0  0
   -1.1567   -2.0928    1.2184 C   0  0  0  0  0  0  0  0  0  0  0  0
   -0.4931   -3.4156    0.9589 C   0  0  0  0  0  0  0  0  0  0  0  0
   -1.8996   -1.3867    0.2569 C   0  0  0  0  0  0  0  0  0  0  0  0
   -2.1150   -1.9854   -1.4170 S   0  0  0  0  0  6  0  0  0  0  0  0
   -2.1993   -3.4295   -1.3822 O   0  0  0  0  0  0  0  0  0  0  0  0
   -3.1612   -1.2054   -2.0467 O   0  0  0  0  0  0  0  0  0  0  0  0
   -0.6384   -1.6037   -2.1510 N   0  0  0  0  0  0  0  0  0  0  0  0
   -0.1742   -0.2592   -2.0999 C   0  0  0  0  0  0  0  0  0  0  0  0
   -0.8449    0.7482   -2.7913 C   0  0  0  0  0  0  0  0  0  0  0  0
   -0.4023    2.0684   -2.7071 C   0  0  0  0  0  0  0  0  0  0  0  0
    0.7140    2.3744   -1.9274 C   0  0  0  0  0  0  0  0  0  0  0  0
    1.1394    3.6728   -1.8467 O   0  0  0  0  0  0  0  0  0  0  0  0
    1.3992    1.3693   -1.2290 C   0  0  0  0  0  0  0  0  0  0  0  0
    2.8147    1.7366   -0.2018 S   0  0  0  0  0  0  0  0  0  0  0  0
    4.1378    1.1651   -1.1875 C   0  0  0  0  0  0  0  0  0  0  0  0
    4.0214    0.1798   -2.1397 N   0  0  0  0  0  0  0  0  0  0  0  0
    5.2448    0.0649   -2.5998 C   0  0  0  0  0  0  0  0  0  0  0  0
    6.0602    0.9292   -1.9386 N   0  0  0  0  0  0  0  0  0  0  0  0
    5.3821    1.6302   -1.0179 N   0  0  0  0  0  0  0  0  0  0  0  0
    0.9378    0.0485   -1.3156 C   0  0  0  0  0  0  0  0  0  0  0  0
   -2.5177   -0.1694    0.5883 C   0  0  0  0  0  0  0  0  0  0  0  0
   -2.4001    0.3759    1.8742 C   0  0  0  0  0  0  0  0  0  0  0  0
   -3.0644    1.6902    2.1817 C   0  0  0  0  0  0  0  0  0  0  0  0
   -2.4738    0.2288    4.7489 H   0  0  0  0  0  0  0  0  0  0  0  0
   -1.0859    1.2288    4.2257 H   0  0  0  0  0  0  0  0  0  0  0  0
   -0.8247   -0.4040    4.8395 H   0  0  0  0  0  0  0  0  0  0  0  0
   -0.4936   -2.0799    3.2726 H   0  0  0  0  0  0  0  0  0  0  0  0
   -1.2408   -4.2124    0.9045 H   0  0  0  0  0  0  0  0  0  0  0  0
    0.2054   -3.6750    1.7626 H   0  0  0  0  0  0  0  0  0  0  0  0
    0.0961   -3.3888    0.0385 H   0  0  0  0  0  0  0  0  0  0  0  0
    0.0507   -2.3440   -2.0314 H   0  0  0  0  0  0  0  0  0  0  0  0
   -1.7116    0.5112   -3.4054 H   0  0  0  0  0  0  0  0  0  0  0  0
   -0.9377    2.8385   -3.2548 H   0  0  0  0  0  0  0  0  0  0  0  0
    0.5496    4.2369   -2.3706 H   0  0  0  0  0  0  0  0  0  0  0  0
    5.5875   -0.6036   -3.3775 H   0  0  0  0  0  0  0  0  0  0  0  0
    7.0564    1.0821   -2.0435 H   0  0  0  0  0  0  0  0  0  0  0  0
    1.4553   -0.7363   -0.7709 H   0  0  0  0  0  0  0  0  0  0  0  0
   -3.0945    0.3666   -0.1652 H   0  0  0  0  0  0  0  0  0  0  0  0
   -3.6478    2.0559    1.3297 H   0  0  0  0  0  0  0  0  0  0  0  0
   -2.3112    2.4486    2.4169 H   0  0  0  0  0  0  0  0  0  0  0  0
   -3.7525    1.5831    3.0264 H   0  0  0  0  0  0  0  0  0  0  0  0
  1  2  1  0
  2  3  2  0
  3  4  1  0
  4  5  1  0
  4  6  2  0
  6  7  1  0
  7  8  2  0
  7  9  2  0
  7 10  1  0
 10 11  1  0
 11 12  2  0
 12 13  1  0
 13 14  2  0
 14 15  1  0
 14 16  1  0
 16 17  1  0
 17 18  1  0
 18 19  1  0
 19 20  2  0
 20 21  1  0
 21 22  1  0
 16 23  2  0
  6 24  1  0
 24 25  2  0
 25 26  1  0
 25  2  1  0
 23 11  1  0
 22 18  2  0
  1 27  1  0
  1 28  1  0
  1 29  1  0
  3 30  1  0
  5 31  1  0
  5 32  1  0
  5 33  1  0
 10 34  1  0
 12 35  1  0
 13 36  1  0
 15 37  1  0
 20 38  1  0
 21 39  1  0
 23 40  1  0
 24 41  1  0
 26 42  1  0
 26 43  1  0
 26 44  1  0
M  END
$$$$
