
     RDKit          3D

 51 55  0  0  0  0  0  0  0  0999 V2000
    7.3176   -1.1118   -0.0463 C   0  0  0  0  0  0  0  0  0  0  0  0
    6.1389   -1.7059   -0.4924 C   0  0  0  0  0  0  0  0  0  0  0  0
    5.0296   -0.9158   -0.7991 C   0  0  0  0  0  0  0  0  0  0  0  0
    5.0882    0.4775   -0.6650 C   0  0  0  0  0  0  0  0  0  0  0  0
    3.8887    1.3366   -0.9917 C   0  0  0  0  0  0  0  0  0  0  0  0
    2.8456    1.4038    0.1419 C   0  0  0  0  0  0  0  0  0  0  0  0
    2.0200    0.1916    0.3075 N   0  0  0  0  0  0  0  0  0  0  0  0
    1.1564   -0.0549   -0.8697 C   0  0  0  0  0  0  0  0  0  0  0  0
   -0.0816   -0.9299   -0.5697 C   0  0  0  0  0  0  0  0  0  0  0  0
   -0.9445   -0.3142    0.4487 N   0  0  0  0  0  0  0  0  0  0  0  0
   -2.3247   -0.2376    0.2927 C   0  0  0  0  0  0  0  0  0  0  0  0
   -2.9268    0.8598    0.6830 N   0  0  0  0  0  0  0  0  0  0  0  0
   -4.3151    1.0214    0.5170 C   0  0  0  0  0  0  0  0  0  0  0  0
   -4.8978    2.2190    0.9367 C   0  0  0  0  0  0  0  0  0  0  0  0
   -6.2696    2.4375    0.7840 C   0  0  0  0  0  0  0  0  0  0  0  0
   -7.0747    1.4552    0.2065 C   0  0  0  0  0  0  0  0  0  0  0  0
   -6.5137    0.2507   -0.2197 C   0  0  0  0  0  0  0  0  0  0  0  0
   -5.1395    0.0470   -0.0603 C   0  0  0  0  0  0  0  0  0  0  0  0
   -4.4956   -1.1395   -0.4457 N   0  0  0  0  0  0  0  0  0  0  0  0
   -5.0277   -2.2772   -1.0050 C   0  0  0  0  0  0  0  0  0  0  0  0
   -4.0192   -3.2067   -1.1319 C   0  0  0  0  0  0  0  0  0  0  0  0
   -2.8341   -2.6053   -0.6482 C   0  0  0  0  0  0  0  0  0  0  0  0
   -3.1388   -1.3095   -0.2667 C   0  0  0  0  0  0  0  0  0  0  0  0
   -0.2666    0.6393    1.3440 C   0  0  0  0  0  0  0  0  0  0  0  0
    1.2122    0.2526    1.5483 C   0  0  0  0  0  0  0  0  0  0  0  0
    6.2784    1.0643   -0.2103 C   0  0  0  0  0  0  0  0  0  0  0  0
    7.3870    0.2729    0.0959 C   0  0  0  0  0  0  0  0  0  0  0  0
    8.1797   -1.7277    0.1942 H   0  0  0  0  0  0  0  0  0  0  0  0
    6.0802   -2.7853   -0.5977 H   0  0  0  0  0  0  0  0  0  0  0  0
    4.1130   -1.3956   -1.1343 H   0  0  0  0  0  0  0  0  0  0  0  0
    4.2370    2.3588   -1.1926 H   0  0  0  0  0  0  0  0  0  0  0  0
    3.4425    1.0021   -1.9356 H   0  0  0  0  0  0  0  0  0  0  0  0
    3.3854    1.6052    1.0768 H   0  0  0  0  0  0  0  0  0  0  0  0
    2.1925    2.2691   -0.0329 H   0  0  0  0  0  0  0  0  0  0  0  0
    1.7465   -0.5509   -1.6483 H   0  0  0  0  0  0  0  0  0  0  0  0
    0.7990    0.8964   -1.2879 H   0  0  0  0  0  0  0  0  0  0  0  0
    0.2389   -1.9181   -0.2196 H   0  0  0  0  0  0  0  0  0  0  0  0
   -0.6240   -1.0658   -1.5122 H   0  0  0  0  0  0  0  0  0  0  0  0
   -4.2726    2.9868    1.3846 H   0  0  0  0  0  0  0  0  0  0  0  0
   -6.7073    3.3755    1.1161 H   0  0  0  0  0  0  0  0  0  0  0  0
   -8.1417    1.6290    0.0899 H   0  0  0  0  0  0  0  0  0  0  0  0
   -7.1604   -0.4991   -0.6627 H   0  0  0  0  0  0  0  0  0  0  0  0
   -6.0766   -2.3546   -1.2515 H   0  0  0  0  0  0  0  0  0  0  0  0
   -4.1295   -4.2121   -1.5175 H   0  0  0  0  0  0  0  0  0  0  0  0
   -1.8634   -3.0769   -0.5841 H   0  0  0  0  0  0  0  0  0  0  0  0
   -0.7633    0.6397    2.3218 H   0  0  0  0  0  0  0  0  0  0  0  0
   -0.3311    1.6542    0.9320 H   0  0  0  0  0  0  0  0  0  0  0  0
    1.2442   -0.7495    1.9962 H   0  0  0  0  0  0  0  0  0  0  0  0
    1.6650    0.9194    2.2921 H   0  0  0  0  0  0  0  0  0  0  0  0
    6.3502    2.1427   -0.0899 H   0  0  0  0  0  0  0  0  0  0  0  0
    8.3034    0.7362    0.4487 H   0  0  0  0  0  0  0  0  0  0  0  0
  1  2  2  0
  2  3  1  0
  3  4  2  0
  4  5  1  0
  5  6  1  0
  6  7  1  0
  7  8  1  0
  8  9  1  0
  9 10  1  0
 10 11  1  0
 11 12  2  0
 12 13  1  0
 13 14  2  0
 14 15  1  0
 15 16  2  0
 16 17  1  0
 17 18  2  0
 18 19  1  0
 19 20  1  0
 20 21  2  0
 21 22  1  0
 22 23  2  0
 10 24  1  0
 24 25  1  0
  4 26  1  0
 26 27  2  0
 27  1  1  0
 25  7  1  0
 23 11  1  0
 18 13  1  0
 23 19  1  0
  1 28  1  0
  2 29  1  0
  3 30  1  0
  5 31  1  0
  5 32  1  0
  6 33  1  0
  6 34  1  0
  8 35  1  0
  8 36  1  0
  9 37  1  0
  9 38  1  0
 14 39  1  0
 15 40  1  0
 16 41  1  0
 17 42  1  0
 20 43  1  0
 21 44  1  0
 22 45  1  0
 24 46  1  0
 24 47  1  0
 25 48  1  0
 25 49  1  0
 26 50  1  0
 27 51  1  0
M  END
$$$$
