
     RDKit          3D

 59 62  0  0  0  0  0  0  0  0999 V2000
    6.0803    4.5713    2.8641 C   0  0  0  0  0  0  0  0  0  0  0  0
    5.2472    3.4989    2.2301 C   0  0  0  0  0  0  0  0  0  0  0  0
    5.6862    2.8425    1.0762 C   0  0  0  0  0  0  0  0  0  0  0  0
    4.9013    1.8532    0.4724 C   0  0  0  0  0  0  0  0  0  0  0  0
    3.6600    1.5035    1.0166 C   0  0  0  0  0  0  0  0  0  0  0  0
    2.8270    0.4903    0.4458 N   0  0  0  0  0  0  0  0  0  0  0  0
    1.5085    0.4635    0.7854 N   0  0  0  0  0  0  0  0  0  0  0  0
    0.9568   -0.4387   -0.0281 C   0  0  0  0  0  0  0  0  0  0  0  0
   -0.4559   -0.7869   -0.0990 C   0  0  0  0  0  0  0  0  0  0  0  0
   -1.3219   -0.2721    0.6078 O   0  0  0  0  0  0  0  0  0  0  0  0
   -0.7226   -1.7973   -1.0457 N   0  0  0  0  0  0  0  0  0  0  0  0
   -2.0949   -2.2526   -1.2598 C   0  0  0  0  0  0  0  0  0  0  0  0
   -2.4454   -3.4922   -0.4303 C   0  0  0  0  0  0  0  0  0  0  0  0
   -2.6825   -3.2185    1.0550 C   0  0  0  0  0  0  0  0  0  0  0  0
   -3.9695   -2.4484    1.2693 C   0  0  0  0  0  0  0  0  0  0  0  0
   -5.0697   -2.9848    1.1553 O   0  0  0  0  0  0  0  0  0  0  0  0
   -3.7943   -1.1153    1.5463 N   0  0  0  0  0  0  0  0  0  0  0  0
   -4.9129   -0.2016    1.5772 C   0  0  0  0  0  0  0  0  0  0  0  0
   -5.1772    0.2785    0.1974 C   0  0  0  0  0  0  0  0  0  0  0  0
   -5.9368   -0.2108   -0.8454 C   0  0  0  0  0  0  0  0  0  0  0  0
   -5.7631    0.6889   -1.9234 C   0  0  0  0  0  0  0  0  0  0  0  0
   -4.9069    1.6711   -1.4744 C   0  0  0  0  0  0  0  0  0  0  0  0
   -4.3270    2.8788   -2.0919 C   0  0  0  0  0  0  0  0  0  0  0  0
   -4.5500    1.4280   -0.1839 O   0  0  0  0  0  0  0  0  0  0  0  0
    0.2474   -2.4440   -1.8215 N   0  0  0  0  0  0  0  0  0  0  0  0
    1.5069   -2.1180   -1.7390 C   0  0  0  0  0  0  0  0  0  0  0  0
    2.4896   -2.8456   -2.6106 C   0  0  0  0  0  0  0  0  0  0  0  0
    1.9117   -1.0843   -0.8188 C   0  0  0  0  0  0  0  0  0  0  0  0
    3.1330   -0.5488   -0.4438 C   0  0  0  0  0  0  0  0  0  0  0  0
    4.5101   -0.9771   -0.8039 C   0  0  0  0  0  0  0  0  0  0  0  0
    3.2000    2.2018    2.1455 C   0  0  0  0  0  0  0  0  0  0  0  0
    3.9880    3.1876    2.7469 C   0  0  0  0  0  0  0  0  0  0  0  0
    5.9361    4.5823    3.9484 H   0  0  0  0  0  0  0  0  0  0  0  0
    5.8052    5.5506    2.4615 H   0  0  0  0  0  0  0  0  0  0  0  0
    7.1458    4.4008    2.6795 H   0  0  0  0  0  0  0  0  0  0  0  0
    6.6442    3.1016    0.6314 H   0  0  0  0  0  0  0  0  0  0  0  0
    5.2769    1.4176   -0.4450 H   0  0  0  0  0  0  0  0  0  0  0  0
   -2.1926   -2.4945   -2.3248 H   0  0  0  0  0  0  0  0  0  0  0  0
   -2.7892   -1.4314   -1.0637 H   0  0  0  0  0  0  0  0  0  0  0  0
   -1.6468   -4.2381   -0.5282 H   0  0  0  0  0  0  0  0  0  0  0  0
   -3.3512   -3.9419   -0.8564 H   0  0  0  0  0  0  0  0  0  0  0  0
   -2.7872   -4.1702    1.5911 H   0  0  0  0  0  0  0  0  0  0  0  0
   -1.8342   -2.7040    1.5141 H   0  0  0  0  0  0  0  0  0  0  0  0
   -2.8824   -0.6941    1.3550 H   0  0  0  0  0  0  0  0  0  0  0  0
   -4.6414    0.6294    2.2341 H   0  0  0  0  0  0  0  0  0  0  0  0
   -5.7957   -0.6993    1.9917 H   0  0  0  0  0  0  0  0  0  0  0  0
   -6.5284   -1.1156   -0.8219 H   0  0  0  0  0  0  0  0  0  0  0  0
   -6.2035    0.6266   -2.9087 H   0  0  0  0  0  0  0  0  0  0  0  0
   -4.5841    2.9391   -3.1535 H   0  0  0  0  0  0  0  0  0  0  0  0
   -3.2375    2.8658   -2.0072 H   0  0  0  0  0  0  0  0  0  0  0  0
   -4.7040    3.7782   -1.5955 H   0  0  0  0  0  0  0  0  0  0  0  0
    1.9634   -3.4170   -3.3813 H   0  0  0  0  0  0  0  0  0  0  0  0
    3.0720   -3.5417   -2.0009 H   0  0  0  0  0  0  0  0  0  0  0  0
    3.1588   -2.1352   -3.1029 H   0  0  0  0  0  0  0  0  0  0  0  0
    4.5452   -2.0504   -1.0057 H   0  0  0  0  0  0  0  0  0  0  0  0
    5.2180   -0.8150    0.0134 H   0  0  0  0  0  0  0  0  0  0  0  0
    4.8559   -0.4554   -1.7005 H   0  0  0  0  0  0  0  0  0  0  0  0
    2.2250    1.9846    2.5800 H   0  0  0  0  0  0  0  0  0  0  0  0
    3.6081    3.7063    3.6250 H   0  0  0  0  0  0  0  0  0  0  0  0
  1  2  1  0
  2  3  2  0
  3  4  1  0
  4  5  2  0
  5  6  1  0
  6  7  1  0
  7  8  2  0
  8  9  1  0
  9 10  2  0
  9 11  1  0
 11 12  1  0
 12 13  1  0
 13 14  1  0
 14 15  1  0
 15 16  2  0
 15 17  1  0
 17 18  1  0
 18 19  1  0
 19 20  2  0
 20 21  1  0
 21 22  2  0
 22 23  1  0
 22 24  1  0
 11 25  1  0
 25 26  2  0
 26 27  1  0
 26 28  1  0
 28 29  2  0
 29 30  1  0
  5 31  1  0
 31 32  2  0
 32  2  1  0
 29  6  1  0
 28  8  1  0
 24 19  1  0
  1 33  1  0
  1 34  1  0
  1 35  1  0
  3 36  1  0
  4 37  1  0
 12 38  1  0
 12 39  1  0
 13 40  1  0
 13 41  1  0
 14 42  1  0
 14 43  1  0
 17 44  1  0
 18 45  1  0
 18 46  1  0
 20 47  1  0
 21 48  1  0
 23 49  1  0
 23 50  1  0
 23 51  1  0
 27 52  1  0
 27 53  1  0
 27 54  1  0
 30 55  1  0
 30 56  1  0
 30 57  1  0
 31 58  1  0
 32 59  1  0
M  END
$$$$
