
     RDKit          3D

 31 33  0  0  0  0  0  0  0  0999 V2000
    4.9107    1.2297   -2.2481 C   0  0  0  0  0  0  0  0  0  0  0  0
    4.1971    1.5353   -1.0311 N   0  0  0  0  0  0  0  0  0  0  0  0
    4.6389    2.2995    0.0064 C   0  0  0  0  0  0  0  0  0  0  0  0
    3.6232    2.3049    0.9319 C   0  0  0  0  0  0  0  0  0  0  0  0
    2.5944    1.5102    0.3659 C   0  0  0  0  0  0  0  0  0  0  0  0
    1.2785    1.1921    0.9541 C   0  0  0  0  0  0  0  0  0  0  0  0
    0.9544    1.6219    2.0538 O   0  0  0  0  0  0  0  0  0  0  0  0
    0.5435    0.3868    0.1035 N   0  0  0  0  0  0  0  0  0  0  0  0
   -0.7284   -0.1226    0.2927 C   0  0  0  0  0  0  0  0  0  0  0  0
   -1.6169    0.2158    1.7268 S   0  0  0  0  0  0  0  0  0  0  0  0
   -2.9070   -0.6926    1.1859 C   0  0  0  0  0  0  0  0  0  0  0  0
   -2.7141   -1.2551   -0.0438 C   0  0  0  0  0  0  0  0  0  0  0  0
   -1.4472   -0.9325   -0.5812 C   0  0  0  0  0  0  0  0  0  0  0  0
   -0.9622   -1.3746   -1.8522 C   0  0  0  0  0  0  0  0  0  0  0  0
   -0.5625   -1.7298   -2.8823 N   0  0  0  0  0  0  0  0  0  0  0  0
   -3.9006   -2.0433   -0.4622 C   0  0  0  0  0  0  0  0  0  0  0  0
   -4.7102   -2.1551    0.8688 C   0  0  0  0  0  0  0  0  0  0  0  0
   -4.2221   -0.9976    1.7943 C   0  0  0  0  0  0  0  0  0  0  0  0
    2.9581    1.0389   -0.8471 N   0  0  0  0  0  0  0  0  0  0  0  0
    4.3279    1.6064   -3.0923 H   0  0  0  0  0  0  0  0  0  0  0  0
    5.8911    1.7118   -2.2260 H   0  0  0  0  0  0  0  0  0  0  0  0
    5.0287    0.1453   -2.3146 H   0  0  0  0  0  0  0  0  0  0  0  0
    5.6142    2.7662    0.0045 H   0  0  0  0  0  0  0  0  0  0  0  0
    3.6077    2.8073    1.8896 H   0  0  0  0  0  0  0  0  0  0  0  0
    1.0367    0.1633   -0.7606 H   0  0  0  0  0  0  0  0  0  0  0  0
   -4.4771   -1.4967   -1.2158 H   0  0  0  0  0  0  0  0  0  0  0  0
   -3.6395   -3.0319   -0.8497 H   0  0  0  0  0  0  0  0  0  0  0  0
   -5.7913   -2.1260    0.7012 H   0  0  0  0  0  0  0  0  0  0  0  0
   -4.4770   -3.1158    1.3470 H   0  0  0  0  0  0  0  0  0  0  0  0
   -4.1542   -1.3245    2.8354 H   0  0  0  0  0  0  0  0  0  0  0  0
   -4.8949   -0.1371    1.7202 H   0  0  0  0  0  0  0  0  0  0  0  0
  1  2  1  0
  2  3  1  0
  3  4  2  0
  4  5  1  0
  5  6  1  0
  6  7  2  0
  6  8  1  0
  8  9  1  0
  9 10  1  0
 10 11  1  0
 11 12  2  0
 12 13  1  0
 13 14  1  0
 14 15  3  0
 12 16  1  0
 16 17  1  0
 17 18  1  0
  5 19  2  0
 19  2  1  0
 13  9  2  0
 18 11  1  0
  1 20  1  0
  1 21  1  0
  1 22  1  0
  3 23  1  0
  4 24  1  0
  8 25  1  0
 16 26  1  0
 16 27  1  0
 17 28  1  0
 17 29  1  0
 18 30  1  0
 18 31  1  0
M  END
$$$$
