
     RDKit          3D

 36 37  0  0  0  0  0  0  0  0999 V2000
   -1.4615   -0.9478    1.5464 O   0  0  0  0  0  0  0  0  0  0  0  0
   -0.6141   -1.3422    0.7458 C   0  0  0  0  0  0  0  0  0  0  0  0
    0.6781   -2.0390    1.1764 C   0  0  0  0  0  0  0  0  0  0  0  0
    1.7809   -1.1415    1.3107 O   0  0  0  0  0  0  0  0  0  0  0  0
    2.3433   -0.7402    0.1458 C   0  0  0  0  0  0  0  0  0  0  0  0
    1.9640   -1.0657   -0.9693 O   0  0  0  0  0  0  0  0  0  0  0  0
    3.4940    0.1679    0.3946 C   0  0  0  0  0  0  0  0  0  0  0  0
    3.8657    0.5728    1.6852 C   0  0  0  0  0  0  0  0  0  0  0  0
    4.9540    1.4299    1.8663 C   0  0  0  0  0  0  0  0  0  0  0  0
    5.6741    1.8854    0.7621 C   0  0  0  0  0  0  0  0  0  0  0  0
    5.3041    1.4837   -0.5205 C   0  0  0  0  0  0  0  0  0  0  0  0
    6.1950    2.0481   -1.8798 Cl  0  0  0  0  0  0  0  0  0  0  0  0
    4.2198    0.6293   -0.7114 C   0  0  0  0  0  0  0  0  0  0  0  0
   -0.7650   -1.1944   -0.6183 N   0  0  0  0  0  0  0  0  0  0  0  0
   -1.8413   -0.3769   -1.1480 C   0  0  0  0  0  0  0  0  0  0  0  0
   -3.2336   -0.9833   -0.9145 C   0  0  0  0  0  0  0  0  0  0  0  0
   -4.2174    0.0308   -0.5949 N   0  0  0  0  0  0  0  0  0  0  0  0
   -4.5732    0.4199    0.6749 C   0  0  0  0  0  0  0  0  0  0  0  0
   -4.0035   -0.1225    1.7880 O   0  0  0  0  0  0  0  0  0  0  0  0
   -5.5161    1.3656    0.7197 C   0  0  0  0  0  0  0  0  0  0  0  0
   -6.0019    1.8592   -0.8716 S   0  0  0  0  0  0  0  0  0  0  0  0
   -4.8623    0.7228   -1.6115 C   0  0  0  0  0  0  0  0  0  0  0  0
   -4.6951    0.6100   -2.8151 O   0  0  0  0  0  0  0  0  0  0  0  0
    0.5014   -2.4969    2.1557 H   0  0  0  0  0  0  0  0  0  0  0  0
    0.9188   -2.8586    0.4883 H   0  0  0  0  0  0  0  0  0  0  0  0
    3.3169    0.2321    2.5607 H   0  0  0  0  0  0  0  0  0  0  0  0
    5.2397    1.7432    2.8682 H   0  0  0  0  0  0  0  0  0  0  0  0
    6.5203    2.5527    0.9073 H   0  0  0  0  0  0  0  0  0  0  0  0
    3.9417    0.3238   -1.7179 H   0  0  0  0  0  0  0  0  0  0  0  0
    0.0960   -1.2493   -1.1681 H   0  0  0  0  0  0  0  0  0  0  0  0
   -1.6615   -0.2542   -2.2215 H   0  0  0  0  0  0  0  0  0  0  0  0
   -1.7537    0.6123   -0.6827 H   0  0  0  0  0  0  0  0  0  0  0  0
   -3.5472   -1.4948   -1.8336 H   0  0  0  0  0  0  0  0  0  0  0  0
   -3.2431   -1.7512   -0.1335 H   0  0  0  0  0  0  0  0  0  0  0  0
   -3.0921   -0.4232    1.5826 H   0  0  0  0  0  0  0  0  0  0  0  0
   -5.9248    1.7923    1.6245 H   0  0  0  0  0  0  0  0  0  0  0  0
  1  2  2  0
  2  3  1  0
  3  4  1  0
  4  5  1  0
  5  6  2  0
  5  7  1  0
  7  8  2  0
  8  9  1  0
  9 10  2  0
 10 11  1  0
 11 12  1  0
 11 13  2  0
  2 14  1  0
 14 15  1  0
 15 16  1  0
 16 17  1  0
 17 18  1  0
 18 19  1  0
 18 20  2  0
 20 21  1  0
 21 22  1  0
 22 23  2  0
 13  7  1  0
 22 17  1  0
  3 24  1  0
  3 25  1  0
  8 26  1  0
  9 27  1  0
 10 28  1  0
 13 29  1  0
 14 30  1  0
 15 31  1  0
 15 32  1  0
 16 33  1  0
 16 34  1  0
 19 35  1  0
 20 36  1  0
M  END
$$$$
