
     RDKit          3D

 44 46  0  0  0  0  0  0  0  0999 V2000
   -2.9412   -4.0325    1.1367 C   0  0  0  0  0  0  0  0  0  0  0  0
   -2.8669   -2.8151    0.2636 C   0  0  0  0  0  0  0  0  0  0  0  0
   -4.0047   -2.0240    0.0487 C   0  0  0  0  0  0  0  0  0  0  0  0
   -3.9273   -0.8658   -0.7302 C   0  0  0  0  0  0  0  0  0  0  0  0
   -2.6990   -0.4924   -1.2810 C   0  0  0  0  0  0  0  0  0  0  0  0
   -2.5860    0.9914   -2.2468 S   0  0  0  0  0  6  0  0  0  0  0  0
   -1.3980    0.9249   -3.0698 O   0  0  0  0  0  0  0  0  0  0  0  0
   -3.8863    1.2296   -2.8396 O   0  0  0  0  0  0  0  0  0  0  0  0
   -2.3879    2.1922   -1.0651 N   0  0  0  0  0  0  0  0  0  0  0  0
   -1.1005    2.3270   -0.4750 C   0  0  0  0  0  0  0  0  0  0  0  0
   -0.1428    3.1478   -1.0692 C   0  0  0  0  0  0  0  0  0  0  0  0
    1.1499    3.2251   -0.5332 C   0  0  0  0  0  0  0  0  0  0  0  0
    2.1877    4.0899   -1.1887 C   0  0  0  0  0  0  0  0  0  0  0  0
    1.4693    2.4357    0.5834 C   0  0  0  0  0  0  0  0  0  0  0  0
    2.7595    2.5050    1.0445 O   0  0  0  0  0  0  0  0  0  0  0  0
    0.5091    1.6053    1.1895 C   0  0  0  0  0  0  0  0  0  0  0  0
    0.8216    0.6148    2.6462 S   0  0  0  0  0  0  0  0  0  0  0  0
    1.9635   -0.5496    2.0404 C   0  0  0  0  0  0  0  0  0  0  0  0
    1.7538   -1.8665    2.0907 N   0  0  0  0  0  0  0  0  0  0  0  0
    2.8718   -2.3356    1.5156 N   0  0  0  0  0  0  0  0  0  0  0  0
    3.7077   -1.3194    1.1479 C   0  0  0  0  0  0  0  0  0  0  0  0
    5.0073   -1.5406    0.4818 C   0  0  0  0  0  0  0  0  0  0  0  0
    3.1587   -0.1726    1.4836 N   0  0  0  0  0  0  0  0  0  0  0  0
   -0.7833    1.5700    0.6531 C   0  0  0  0  0  0  0  0  0  0  0  0
   -1.5590   -1.2773   -1.0856 C   0  0  0  0  0  0  0  0  0  0  0  0
   -1.6435   -2.4279   -0.3006 C   0  0  0  0  0  0  0  0  0  0  0  0
   -3.9466   -4.4660    1.1222 H   0  0  0  0  0  0  0  0  0  0  0  0
   -2.2522   -4.8047    0.7832 H   0  0  0  0  0  0  0  0  0  0  0  0
   -2.6840   -3.7719    2.1680 H   0  0  0  0  0  0  0  0  0  0  0  0
   -4.9603   -2.3087    0.4870 H   0  0  0  0  0  0  0  0  0  0  0  0
   -4.8175   -0.2663   -0.8954 H   0  0  0  0  0  0  0  0  0  0  0  0
   -2.8690    3.0462   -1.3444 H   0  0  0  0  0  0  0  0  0  0  0  0
   -0.3928    3.7052   -1.9679 H   0  0  0  0  0  0  0  0  0  0  0  0
    2.9393    3.4666   -1.6837 H   0  0  0  0  0  0  0  0  0  0  0  0
    1.7427    4.7517   -1.9396 H   0  0  0  0  0  0  0  0  0  0  0  0
    2.6777    4.7266   -0.4451 H   0  0  0  0  0  0  0  0  0  0  0  0
    2.9762    1.6371    1.4475 H   0  0  0  0  0  0  0  0  0  0  0  0
    3.0075   -3.3381    1.4354 H   0  0  0  0  0  0  0  0  0  0  0  0
    4.9405   -2.3498   -0.2539 H   0  0  0  0  0  0  0  0  0  0  0  0
    5.3284   -0.6329   -0.0412 H   0  0  0  0  0  0  0  0  0  0  0  0
    5.7742   -1.7992    1.2191 H   0  0  0  0  0  0  0  0  0  0  0  0
   -1.5473    0.9442    1.1105 H   0  0  0  0  0  0  0  0  0  0  0  0
   -0.6033   -0.9899   -1.5190 H   0  0  0  0  0  0  0  0  0  0  0  0
   -0.7470   -3.0196   -0.1239 H   0  0  0  0  0  0  0  0  0  0  0  0
  1  2  1  0
  2  3  2  0
  3  4  1  0
  4  5  2  0
  5  6  1  0
  6  7  2  0
  6  8  2  0
  6  9  1  0
  9 10  1  0
 10 11  2  0
 11 12  1  0
 12 13  1  0
 12 14  2  0
 14 15  1  0
 14 16  1  0
 16 17  1  0
 17 18  1  0
 18 19  2  0
 19 20  1  0
 20 21  1  0
 21 22  1  0
 21 23  2  0
 16 24  2  0
  5 25  1  0
 25 26  2  0
 26  2  1  0
 24 10  1  0
 23 18  1  0
  1 27  1  0
  1 28  1  0
  1 29  1  0
  3 30  1  0
  4 31  1  0
  9 32  1  0
 11 33  1  0
 13 34  1  0
 13 35  1  0
 13 36  1  0
 15 37  1  0
 20 38  1  0
 22 39  1  0
 22 40  1  0
 22 41  1  0
 24 42  1  0
 25 43  1  0
 26 44  1  0
M  END
$$$$
