
     RDKit          3D

 36 37  0  0  0  0  0  0  0  0999 V2000
    1.6262    0.5236    2.4248 O   0  0  0  0  0  0  0  0  0  0  0  0
    0.8224    0.1194    1.5861 C   0  0  0  0  0  0  0  0  0  0  0  0
   -0.3340   -0.8202    1.9385 C   0  0  0  0  0  0  0  0  0  0  0  0
   -1.4035   -0.8178    0.9886 O   0  0  0  0  0  0  0  0  0  0  0  0
   -2.2383    0.2472    1.0861 C   0  0  0  0  0  0  0  0  0  0  0  0
   -2.1045    1.1850    1.8539 O   0  0  0  0  0  0  0  0  0  0  0  0
   -3.3443    0.1427    0.0962 C   0  0  0  0  0  0  0  0  0  0  0  0
   -3.5067   -0.9738   -0.7369 C   0  0  0  0  0  0  0  0  0  0  0  0
   -4.5627   -1.0191   -1.6528 C   0  0  0  0  0  0  0  0  0  0  0  0
   -5.4558    0.0484   -1.7358 C   0  0  0  0  0  0  0  0  0  0  0  0
   -6.8817   -0.0165   -2.9743 Br  0  0  0  0  0  0  0  0  0  0  0  0
   -5.3056    1.1621   -0.9117 C   0  0  0  0  0  0  0  0  0  0  0  0
   -4.2509    1.2087    0.0040 C   0  0  0  0  0  0  0  0  0  0  0  0
    0.9551    0.3845    0.2414 N   0  0  0  0  0  0  0  0  0  0  0  0
    1.8614    1.3944   -0.2830 C   0  0  0  0  0  0  0  0  0  0  0  0
    3.3360    1.2641    0.1351 C   0  0  0  0  0  0  0  0  0  0  0  0
    3.8760   -0.0688   -0.0579 N   0  0  0  0  0  0  0  0  0  0  0  0
    4.2394   -0.9383    0.9434 C   0  0  0  0  0  0  0  0  0  0  0  0
    4.0498   -0.6450    2.2610 O   0  0  0  0  0  0  0  0  0  0  0  0
    4.7825   -2.0817    0.5161 C   0  0  0  0  0  0  0  0  0  0  0  0
    4.8516   -2.1469   -1.2162 S   0  0  0  0  0  0  0  0  0  0  0  0
    4.1253   -0.5359   -1.3419 C   0  0  0  0  0  0  0  0  0  0  0  0
    3.8978    0.0272   -2.4008 O   0  0  0  0  0  0  0  0  0  0  0  0
   -0.7080   -0.5786    2.9403 H   0  0  0  0  0  0  0  0  0  0  0  0
    0.0697   -1.8375    1.9705 H   0  0  0  0  0  0  0  0  0  0  0  0
   -2.8249   -1.8192   -0.6844 H   0  0  0  0  0  0  0  0  0  0  0  0
   -4.6804   -1.8899   -2.2936 H   0  0  0  0  0  0  0  0  0  0  0  0
   -6.0010    1.9959   -0.9719 H   0  0  0  0  0  0  0  0  0  0  0  0
   -4.1409    2.0816    0.6461 H   0  0  0  0  0  0  0  0  0  0  0  0
    0.1915    0.0920   -0.3577 H   0  0  0  0  0  0  0  0  0  0  0  0
    1.4802    2.3738    0.0267 H   0  0  0  0  0  0  0  0  0  0  0  0
    1.7763    1.3391   -1.3736 H   0  0  0  0  0  0  0  0  0  0  0  0
    3.4860    1.5939    1.1672 H   0  0  0  0  0  0  0  0  0  0  0  0
    3.9242    1.9534   -0.4845 H   0  0  0  0  0  0  0  0  0  0  0  0
    3.2615   -0.0670    2.3418 H   0  0  0  0  0  0  0  0  0  0  0  0
    5.1305   -2.8806    1.1551 H   0  0  0  0  0  0  0  0  0  0  0  0
  1  2  2  0
  2  3  1  0
  3  4  1  0
  4  5  1  0
  5  6  2  0
  5  7  1  0
  7  8  2  0
  8  9  1  0
  9 10  2  0
 10 11  1  0
 10 12  1  0
 12 13  2  0
  2 14  1  0
 14 15  1  0
 15 16  1  0
 16 17  1  0
 17 18  1  0
 18 19  1  0
 18 20  2  0
 20 21  1  0
 21 22  1  0
 22 23  2  0
 13  7  1  0
 22 17  1  0
  3 24  1  0
  3 25  1  0
  8 26  1  0
  9 27  1  0
 12 28  1  0
 13 29  1  0
 14 30  1  0
 15 31  1  0
 15 32  1  0
 16 33  1  0
 16 34  1  0
 19 35  1  0
 20 36  1  0
M  END
$$$$
