
     RDKit          3D

 73 75  0  0  0  0  0  0  0  0999 V2000
    0.3218    0.6080   -4.7163 C   0  0  0  0  0  0  0  0  0  0  0  0
   -0.8542   -0.1591   -4.1235 C   0  0  0  0  0  0  0  0  0  0  0  0
   -0.4941   -0.8077   -2.7759 C   0  0  0  0  0  0  0  0  0  0  0  0
   -1.4325   -0.0698   -1.3786 S   0  0  0  0  0  0  0  0  0  0  0  0
   -0.4011    1.3036   -1.0622 C   0  0  0  0  0  0  0  0  0  0  0  0
   -0.6577    2.3719   -1.7404 N   0  0  0  0  0  0  0  0  0  0  0  0
    0.1076    3.5159   -1.4966 C   0  0  0  0  0  0  0  0  0  0  0  0
   -0.1515    4.6689   -2.2404 C   0  0  0  0  0  0  0  0  0  0  0  0
    0.5726    5.8460   -2.0132 C   0  0  0  0  0  0  0  0  0  0  0  0
    0.3745    7.0211   -2.6948 O   0  0  0  0  0  0  0  0  0  0  0  0
   -0.6426    7.0448   -3.6873 C   0  0  0  0  0  0  0  0  0  0  0  0
    1.5744    5.8684   -1.0203 C   0  0  0  0  0  0  0  0  0  0  0  0
    2.2406    7.0574   -0.8586 O   0  0  0  0  0  0  0  0  0  0  0  0
    3.1096    7.1761    0.2576 C   0  0  0  0  0  0  0  0  0  0  0  0
    1.8378    4.7131   -0.2809 C   0  0  0  0  0  0  0  0  0  0  0  0
    1.1000    3.5492   -0.5260 C   0  0  0  0  0  0  0  0  0  0  0  0
    1.3451    2.3168    0.2428 C   0  0  0  0  0  0  0  0  0  0  0  0
    2.1713    2.3353    1.1520 O   0  0  0  0  0  0  0  0  0  0  0  0
    0.5944    1.1962   -0.1077 N   0  0  0  0  0  0  0  0  0  0  0  0
    0.8674   -0.0281    0.6589 C   0  0  0  0  0  0  0  0  0  0  0  0
   -0.0009   -0.1211    1.9194 C   0  0  0  0  0  0  0  0  0  0  0  0
    0.2775   -1.3850    2.6943 C   0  0  0  0  0  0  0  0  0  0  0  0
   -0.2197   -2.6122    2.2447 C   0  0  0  0  0  0  0  0  0  0  0  0
    0.0472   -3.7869    2.9512 C   0  0  0  0  0  0  0  0  0  0  0  0
    0.8173   -3.7527    4.1183 C   0  0  0  0  0  0  0  0  0  0  0  0
    1.1247   -4.8557    4.8777 O   0  0  0  0  0  0  0  0  0  0  0  0
    0.5903   -6.1056    4.4659 C   0  0  0  0  0  0  0  0  0  0  0  0
    1.3357   -2.5224    4.5722 C   0  0  0  0  0  0  0  0  0  0  0  0
    2.0912   -2.5721    5.7184 O   0  0  0  0  0  0  0  0  0  0  0  0
    2.7188   -1.3709    6.1448 C   0  0  0  0  0  0  0  0  0  0  0  0
    1.0604   -1.3487    3.8579 C   0  0  0  0  0  0  0  0  0  0  0  0
   -0.7851   -2.3130   -2.8023 C   0  0  0  0  0  0  0  0  0  0  0  0
    0.1242   -3.1391   -2.8120 O   0  0  0  0  0  0  0  0  0  0  0  0
   -2.1208   -2.6490   -2.8696 N   0  0  0  0  0  0  0  0  0  0  0  0
   -2.5904   -4.0241   -2.7988 C   0  0  0  0  0  0  0  0  0  0  0  0
   -3.4795   -4.2680   -1.5762 C   0  0  0  0  0  0  0  0  0  0  0  0
   -2.7125   -4.1608   -0.3743 O   0  0  0  0  0  0  0  0  0  0  0  0
   -3.5092   -4.4202    0.7752 C   0  0  0  0  0  0  0  0  0  0  0  0
    0.0413    1.0388   -5.6830 H   0  0  0  0  0  0  0  0  0  0  0  0
    1.1785   -0.0523   -4.8805 H   0  0  0  0  0  0  0  0  0  0  0  0
    0.6335    1.4274   -4.0610 H   0  0  0  0  0  0  0  0  0  0  0  0
   -1.7075    0.5234   -4.0362 H   0  0  0  0  0  0  0  0  0  0  0  0
   -1.1461   -0.9224   -4.8552 H   0  0  0  0  0  0  0  0  0  0  0  0
    0.5757   -0.7040   -2.5577 H   0  0  0  0  0  0  0  0  0  0  0  0
   -0.9357    4.6156   -2.9884 H   0  0  0  0  0  0  0  0  0  0  0  0
   -0.4192    6.3441   -4.4994 H   0  0  0  0  0  0  0  0  0  0  0  0
   -0.6706    8.0519   -4.1148 H   0  0  0  0  0  0  0  0  0  0  0  0
   -1.6255    6.8425   -3.2498 H   0  0  0  0  0  0  0  0  0  0  0  0
    3.9784    6.5204    0.1478 H   0  0  0  0  0  0  0  0  0  0  0  0
    2.5809    6.9825    1.1966 H   0  0  0  0  0  0  0  0  0  0  0  0
    3.4732    8.2076    0.2889 H   0  0  0  0  0  0  0  0  0  0  0  0
    2.6078    4.6898    0.4841 H   0  0  0  0  0  0  0  0  0  0  0  0
    1.9273   -0.0438    0.9444 H   0  0  0  0  0  0  0  0  0  0  0  0
    0.7257   -0.9047    0.0190 H   0  0  0  0  0  0  0  0  0  0  0  0
    0.1712    0.7553    2.5573 H   0  0  0  0  0  0  0  0  0  0  0  0
   -1.0679   -0.0904    1.6661 H   0  0  0  0  0  0  0  0  0  0  0  0
   -0.8178   -2.6684    1.3362 H   0  0  0  0  0  0  0  0  0  0  0  0
   -0.3580   -4.7137    2.5582 H   0  0  0  0  0  0  0  0  0  0  0  0
   -0.5050   -6.0905    4.4770 H   0  0  0  0  0  0  0  0  0  0  0  0
    0.9747   -6.3963    3.4825 H   0  0  0  0  0  0  0  0  0  0  0  0
    0.9162   -6.8620    5.1863 H   0  0  0  0  0  0  0  0  0  0  0  0
    3.4016   -0.9867    5.3798 H   0  0  0  0  0  0  0  0  0  0  0  0
    3.3084   -1.6004    7.0384 H   0  0  0  0  0  0  0  0  0  0  0  0
    1.9771   -0.6170    6.4259 H   0  0  0  0  0  0  0  0  0  0  0  0
    1.4487   -0.3890    4.1862 H   0  0  0  0  0  0  0  0  0  0  0  0
   -2.7922   -1.9068   -2.7109 H   0  0  0  0  0  0  0  0  0  0  0  0
   -3.1725   -4.1972   -3.7104 H   0  0  0  0  0  0  0  0  0  0  0  0
   -1.7383   -4.7115   -2.7886 H   0  0  0  0  0  0  0  0  0  0  0  0
   -3.9104   -5.2739   -1.6419 H   0  0  0  0  0  0  0  0  0  0  0  0
   -4.2940   -3.5326   -1.5483 H   0  0  0  0  0  0  0  0  0  0  0  0
   -2.8732   -4.3511    1.6616 H   0  0  0  0  0  0  0  0  0  0  0  0
   -3.9305   -5.4286    0.7302 H   0  0  0  0  0  0  0  0  0  0  0  0
   -4.3083   -3.6768    0.8636 H   0  0  0  0  0  0  0  0  0  0  0  0
  1  2  1  0
  2  3  1  0
  3  4  1  0
  4  5  1  0
  5  6  2  0
  6  7  1  0
  7  8  2  0
  8  9  1  0
  9 10  1  0
 10 11  1  0
  9 12  2  0
 12 13  1  0
 13 14  1  0
 12 15  1  0
 15 16  2  0
 16 17  1  0
 17 18  2  0
 17 19  1  0
 19 20  1  0
 20 21  1  0
 21 22  1  0
 22 23  2  0
 23 24  1  0
 24 25  2  0
 25 26  1  0
 26 27  1  0
 25 28  1  0
 28 29  1  0
 29 30  1  0
 28 31  2  0
  3 32  1  0
 32 33  2  0
 32 34  1  0
 34 35  1  0
 35 36  1  0
 36 37  1  0
 37 38  1  0
 19  5  1  0
 31 22  1  0
 16  7  1  0
  1 39  1  0
  1 40  1  0
  1 41  1  0
  2 42  1  0
  2 43  1  0
  3 44  1  0
  8 45  1  0
 11 46  1  0
 11 47  1  0
 11 48  1  0
 14 49  1  0
 14 50  1  0
 14 51  1  0
 15 52  1  0
 20 53  1  0
 20 54  1  0
 21 55  1  0
 21 56  1  0
 23 57  1  0
 24 58  1  0
 27 59  1  0
 27 60  1  0
 27 61  1  0
 30 62  1  0
 30 63  1  0
 30 64  1  0
 31 65  1  0
 34 66  1  0
 35 67  1  0
 35 68  1  0
 36 69  1  0
 36 70  1  0
 38 71  1  0
 38 72  1  0
 38 73  1  0
M  END
$$$$
