
     RDKit          3D

 33 35  0  0  0  0  0  0  0  0999 V2000
   -0.0751    2.1061   -1.1165 O   0  0  0  0  0  0  0  0  0  0  0  0
   -0.0275    1.0192   -0.5426 C   0  0  0  0  0  0  0  0  0  0  0  0
   -1.2813    0.3397   -0.0623 C   0  0  0  0  0  0  0  0  0  0  0  0
   -2.4316    0.9320   -0.4461 C   0  0  0  0  0  0  0  0  0  0  0  0
   -3.7376    0.4496   -0.1427 C   0  0  0  0  0  0  0  0  0  0  0  0
   -4.9532    1.0943   -0.3542 C   0  0  0  0  0  0  0  0  0  0  0  0
   -5.9902    0.2372    0.0828 C   0  0  0  0  0  0  0  0  0  0  0  0
   -5.3679   -0.8961    0.5361 C   0  0  0  0  0  0  0  0  0  0  0  0
   -4.0252   -0.7826    0.4034 O   0  0  0  0  0  0  0  0  0  0  0  0
   -1.1838   -0.8936    0.7932 C   0  0  0  0  0  0  0  0  0  0  0  0
    0.2009   -1.1432    1.3738 C   0  0  0  0  0  0  0  0  0  0  0  0
    1.2463   -1.0541    0.2775 C   0  0  0  0  0  0  0  0  0  0  0  0
    1.2873    0.3343   -0.2880 C   0  0  0  0  0  0  0  0  0  0  0  0
    2.3847    1.0437   -0.6183 C   0  0  0  0  0  0  0  0  0  0  0  0
    3.7217    0.5925   -0.4547 C   0  0  0  0  0  0  0  0  0  0  0  0
    4.3896    0.1152    0.6685 C   0  0  0  0  0  0  0  0  0  0  0  0
    5.7264   -0.1641    0.2980 C   0  0  0  0  0  0  0  0  0  0  0  0
    5.8235    0.1739   -1.0265 C   0  0  0  0  0  0  0  0  0  0  0  0
    4.6368    0.6398   -1.4831 O   0  0  0  0  0  0  0  0  0  0  0  0
   -2.3981    1.8411   -1.0447 H   0  0  0  0  0  0  0  0  0  0  0  0
   -5.0682    2.0824   -0.7796 H   0  0  0  0  0  0  0  0  0  0  0  0
   -7.0546    0.4229    0.0657 H   0  0  0  0  0  0  0  0  0  0  0  0
   -5.7193   -1.8264    0.9596 H   0  0  0  0  0  0  0  0  0  0  0  0
   -1.8806   -0.8324    1.6371 H   0  0  0  0  0  0  0  0  0  0  0  0
   -1.4710   -1.7624    0.1871 H   0  0  0  0  0  0  0  0  0  0  0  0
    0.4163   -0.4172    2.1686 H   0  0  0  0  0  0  0  0  0  0  0  0
    0.2274   -2.1377    1.8345 H   0  0  0  0  0  0  0  0  0  0  0  0
    2.2053   -1.3707    0.6926 H   0  0  0  0  0  0  0  0  0  0  0  0
    1.0092   -1.7615   -0.5274 H   0  0  0  0  0  0  0  0  0  0  0  0
    2.2880    2.0198   -1.0904 H   0  0  0  0  0  0  0  0  0  0  0  0
    3.9550   -0.0047    1.6514 H   0  0  0  0  0  0  0  0  0  0  0  0
    6.5205   -0.5496    0.9214 H   0  0  0  0  0  0  0  0  0  0  0  0
    6.6262    0.1526   -1.7502 H   0  0  0  0  0  0  0  0  0  0  0  0
  1  2  2  0
  2  3  1  0
  3  4  2  3
  4  5  1  0
  5  6  2  0
  6  7  1  0
  7  8  2  0
  8  9  1  0
  3 10  1  0
 10 11  1  0
 11 12  1  0
 12 13  1  0
 13 14  2  3
 14 15  1  0
 15 16  2  0
 16 17  1  0
 17 18  2  0
 18 19  1  0
 13  2  1  0
 19 15  1  0
  9  5  1  0
  4 20  1  0
  6 21  1  0
  7 22  1  0
  8 23  1  0
 10 24  1  0
 10 25  1  0
 11 26  1  0
 11 27  1  0
 12 28  1  0
 12 29  1  0
 14 30  1  0
 16 31  1  0
 17 32  1  0
 18 33  1  0
M  END
$$$$
