
     RDKit          3D

 59 62  0  0  0  0  0  0  0  0999 V2000
    6.4689    0.4691    5.3098 C   0  0  0  0  0  0  0  0  0  0  0  0
    5.7139    0.5192    4.0140 C   0  0  0  0  0  0  0  0  0  0  0  0
    4.5586    1.2960    3.8962 C   0  0  0  0  0  0  0  0  0  0  0  0
    3.8432    1.3250    2.6945 C   0  0  0  0  0  0  0  0  0  0  0  0
    4.2748    0.5810    1.5832 C   0  0  0  0  0  0  0  0  0  0  0  0
    3.5193    0.6513    0.3713 N   0  0  0  0  0  0  0  0  0  0  0  0
    2.2469    1.1315    0.4261 N   0  0  0  0  0  0  0  0  0  0  0  0
    1.7371    0.9107   -0.7870 C   0  0  0  0  0  0  0  0  0  0  0  0
    0.3745    1.1988   -1.2174 C   0  0  0  0  0  0  0  0  0  0  0  0
   -0.4957    1.6382   -0.4685 O   0  0  0  0  0  0  0  0  0  0  0  0
    0.1606    0.9013   -2.5797 N   0  0  0  0  0  0  0  0  0  0  0  0
   -1.1520    1.1423   -3.1770 C   0  0  0  0  0  0  0  0  0  0  0  0
   -1.9960   -0.1337   -3.2739 C   0  0  0  0  0  0  0  0  0  0  0  0
   -2.5237   -0.6226   -1.9243 C   0  0  0  0  0  0  0  0  0  0  0  0
   -3.5825    0.2970   -1.3434 C   0  0  0  0  0  0  0  0  0  0  0  0
   -4.1809    1.1362   -2.0096 O   0  0  0  0  0  0  0  0  0  0  0  0
   -3.8338    0.0579   -0.0138 N   0  0  0  0  0  0  0  0  0  0  0  0
   -4.8831    0.7453    0.7024 C   0  0  0  0  0  0  0  0  0  0  0  0
   -6.1032   -0.0978    0.6659 C   0  0  0  0  0  0  0  0  0  0  0  0
   -7.1241   -0.2381   -0.2518 C   0  0  0  0  0  0  0  0  0  0  0  0
   -8.0037   -1.2155    0.2729 C   0  0  0  0  0  0  0  0  0  0  0  0
   -7.4644   -1.6156    1.4767 C   0  0  0  0  0  0  0  0  0  0  0  0
   -7.8816   -2.5920    2.5019 C   0  0  0  0  0  0  0  0  0  0  0  0
   -6.3046   -0.9419    1.7199 O   0  0  0  0  0  0  0  0  0  0  0  0
    1.1138    0.3385   -3.4385 N   0  0  0  0  0  0  0  0  0  0  0  0
    2.3216    0.0743   -3.0258 C   0  0  0  0  0  0  0  0  0  0  0  0
    3.2896   -0.5361   -3.9990 C   0  0  0  0  0  0  0  0  0  0  0  0
    2.6854    0.3731   -1.6629 C   0  0  0  0  0  0  0  0  0  0  0  0
    3.8642    0.2980   -0.9395 C   0  0  0  0  0  0  0  0  0  0  0  0
    5.2442   -0.0072   -1.3985 C   0  0  0  0  0  0  0  0  0  0  0  0
    5.4047   -0.2323    1.7186 C   0  0  0  0  0  0  0  0  0  0  0  0
    6.1175   -0.2603    2.9247 C   0  0  0  0  0  0  0  0  0  0  0  0
    6.3743    1.4154    5.8540 H   0  0  0  0  0  0  0  0  0  0  0  0
    7.5367    0.3044    5.1321 H   0  0  0  0  0  0  0  0  0  0  0  0
    6.0839   -0.3405    5.9382 H   0  0  0  0  0  0  0  0  0  0  0  0
    4.2041    1.8889    4.7374 H   0  0  0  0  0  0  0  0  0  0  0  0
    2.9526    1.9499    2.6382 H   0  0  0  0  0  0  0  0  0  0  0  0
   -0.9792    1.5377   -4.1859 H   0  0  0  0  0  0  0  0  0  0  0  0
   -1.6763    1.9239   -2.6173 H   0  0  0  0  0  0  0  0  0  0  0  0
   -1.4026   -0.9351   -3.7315 H   0  0  0  0  0  0  0  0  0  0  0  0
   -2.8396    0.0567   -3.9491 H   0  0  0  0  0  0  0  0  0  0  0  0
   -2.9968   -1.6028   -2.0644 H   0  0  0  0  0  0  0  0  0  0  0  0
   -1.7069   -0.7544   -1.2076 H   0  0  0  0  0  0  0  0  0  0  0  0
   -3.3965   -0.7286    0.4463 H   0  0  0  0  0  0  0  0  0  0  0  0
   -5.0747    1.7265    0.2557 H   0  0  0  0  0  0  0  0  0  0  0  0
   -4.5397    0.8931    1.7318 H   0  0  0  0  0  0  0  0  0  0  0  0
   -7.2088    0.3002   -1.1871 H   0  0  0  0  0  0  0  0  0  0  0  0
   -8.9165   -1.5841   -0.1730 H   0  0  0  0  0  0  0  0  0  0  0  0
   -7.1269   -3.3780    2.6132 H   0  0  0  0  0  0  0  0  0  0  0  0
   -8.8299   -3.0664    2.2285 H   0  0  0  0  0  0  0  0  0  0  0  0
   -8.0134   -2.0992    3.4709 H   0  0  0  0  0  0  0  0  0  0  0  0
    4.0229    0.2148   -4.3047 H   0  0  0  0  0  0  0  0  0  0  0  0
    2.7619   -0.8875   -4.8910 H   0  0  0  0  0  0  0  0  0  0  0  0
    3.8010   -1.3869   -3.5418 H   0  0  0  0  0  0  0  0  0  0  0  0
    5.9976    0.5467   -0.8306 H   0  0  0  0  0  0  0  0  0  0  0  0
    5.3860    0.2958   -2.4397 H   0  0  0  0  0  0  0  0  0  0  0  0
    5.4475   -1.0800   -1.3311 H   0  0  0  0  0  0  0  0  0  0  0  0
    5.7402   -0.8968    0.9313 H   0  0  0  0  0  0  0  0  0  0  0  0
    6.9896   -0.9057    3.0109 H   0  0  0  0  0  0  0  0  0  0  0  0
  1  2  1  0
  2  3  2  0
  3  4  1  0
  4  5  2  0
  5  6  1  0
  6  7  1  0
  7  8  2  0
  8  9  1  0
  9 10  2  0
  9 11  1  0
 11 12  1  0
 12 13  1  0
 13 14  1  0
 14 15  1  0
 15 16  2  0
 15 17  1  0
 17 18  1  0
 18 19  1  0
 19 20  2  0
 20 21  1  0
 21 22  2  0
 22 23  1  0
 22 24  1  0
 11 25  1  0
 25 26  2  0
 26 27  1  0
 26 28  1  0
 28 29  2  0
 29 30  1  0
  5 31  1  0
 31 32  2  0
 32  2  1  0
 29  6  1  0
 28  8  1  0
 24 19  1  0
  1 33  1  0
  1 34  1  0
  1 35  1  0
  3 36  1  0
  4 37  1  0
 12 38  1  0
 12 39  1  0
 13 40  1  0
 13 41  1  0
 14 42  1  0
 14 43  1  0
 17 44  1  0
 18 45  1  0
 18 46  1  0
 20 47  1  0
 21 48  1  0
 23 49  1  0
 23 50  1  0
 23 51  1  0
 27 52  1  0
 27 53  1  0
 27 54  1  0
 30 55  1  0
 30 56  1  0
 30 57  1  0
 31 58  1  0
 32 59  1  0
M  END
$$$$
