
     RDKit          3D

 58 62  0  0  0  0  0  0  0  0999 V2000
    8.3418    2.6519    0.5532 C   0  0  0  0  0  0  0  0  0  0  0  0
    7.4174    1.8740    1.2994 O   0  0  0  0  0  0  0  0  0  0  0  0
    6.1072    1.8734    0.8901 C   0  0  0  0  0  0  0  0  0  0  0  0
    5.6197    2.5981   -0.2013 C   0  0  0  0  0  0  0  0  0  0  0  0
    4.2648    2.5361   -0.5440 C   0  0  0  0  0  0  0  0  0  0  0  0
    3.3729    1.7538    0.1986 C   0  0  0  0  0  0  0  0  0  0  0  0
    1.9533    1.6743   -0.1330 C   0  0  0  0  0  0  0  0  0  0  0  0
    0.9784    1.0709    0.5204 N   0  0  0  0  0  0  0  0  0  0  0  0
   -0.1426    1.2824   -0.2573 C   0  0  0  0  0  0  0  0  0  0  0  0
   -1.4599    0.7301    0.1486 C   0  0  0  0  0  0  0  0  0  0  0  0
   -1.6291   -0.6250   -0.3499 N   0  0  0  0  0  0  0  0  0  0  0  0
   -2.4081   -1.0453   -1.3986 C   0  0  0  0  0  0  0  0  0  0  0  0
   -3.3126    0.0297   -2.4122 S   0  0  0  0  0  0  0  0  0  0  0  0
   -4.7247   -1.0239   -2.8621 C   0  0  0  0  0  0  0  0  0  0  0  0
   -5.7538   -1.1009   -1.7604 C   0  0  0  0  0  0  0  0  0  0  0  0
   -6.7120   -0.0854   -1.6018 C   0  0  0  0  0  0  0  0  0  0  0  0
   -7.6541   -0.1485   -0.5713 C   0  0  0  0  0  0  0  0  0  0  0  0
   -7.6454   -1.2247    0.3136 C   0  0  0  0  0  0  0  0  0  0  0  0
   -6.6957   -2.2278    0.1619 C   0  0  0  0  0  0  0  0  0  0  0  0
   -6.6862   -3.2594    1.0161 F   0  0  0  0  0  0  0  0  0  0  0  0
   -5.7543   -2.1762   -0.8607 C   0  0  0  0  0  0  0  0  0  0  0  0
   -2.3780   -2.3496   -1.5449 N   0  0  0  0  0  0  0  0  0  0  0  0
   -1.5549   -2.8070   -0.5472 C   0  0  0  0  0  0  0  0  0  0  0  0
   -1.1809   -4.1139   -0.2373 C   0  0  0  0  0  0  0  0  0  0  0  0
   -0.3299   -4.2539    0.8465 C   0  0  0  0  0  0  0  0  0  0  0  0
    0.1464   -3.2315    1.5948 N   0  0  0  0  0  0  0  0  0  0  0  0
   -0.2125   -1.9621    1.2885 C   0  0  0  0  0  0  0  0  0  0  0  0
   -1.0713   -1.7531    0.2185 C   0  0  0  0  0  0  0  0  0  0  0  0
    0.2038    2.0445   -1.3540 C   0  0  0  0  0  0  0  0  0  0  0  0
   -0.5149    2.5978   -2.5146 C   0  0  0  0  0  0  0  0  0  0  0  0
    1.5451    2.2978   -1.2825 O   0  0  0  0  0  0  0  0  0  0  0  0
    3.8670    1.0272    1.2938 C   0  0  0  0  0  0  0  0  0  0  0  0
    5.2227    1.0759    1.6426 C   0  0  0  0  0  0  0  0  0  0  0  0
    5.7749    0.3924    2.6985 O   0  0  0  0  0  0  0  0  0  0  0  0
    4.9441   -0.5274    3.3936 C   0  0  0  0  0  0  0  0  0  0  0  0
    9.3278    2.5310    1.0120 H   0  0  0  0  0  0  0  0  0  0  0  0
    8.4113    2.2989   -0.4810 H   0  0  0  0  0  0  0  0  0  0  0  0
    8.0855    3.7158    0.5928 H   0  0  0  0  0  0  0  0  0  0  0  0
    6.2666    3.2222   -0.8084 H   0  0  0  0  0  0  0  0  0  0  0  0
    3.9145    3.1110   -1.3991 H   0  0  0  0  0  0  0  0  0  0  0  0
   -1.5383    0.6877    1.2413 H   0  0  0  0  0  0  0  0  0  0  0  0
   -2.2832    1.3599   -0.1977 H   0  0  0  0  0  0  0  0  0  0  0  0
   -5.1932   -0.5902   -3.7535 H   0  0  0  0  0  0  0  0  0  0  0  0
   -4.3919   -2.0243   -3.1612 H   0  0  0  0  0  0  0  0  0  0  0  0
   -6.7285    0.7636   -2.2828 H   0  0  0  0  0  0  0  0  0  0  0  0
   -8.3926    0.6414   -0.4594 H   0  0  0  0  0  0  0  0  0  0  0  0
   -8.3694   -1.2886    1.1193 H   0  0  0  0  0  0  0  0  0  0  0  0
   -5.0224   -2.9759   -0.9435 H   0  0  0  0  0  0  0  0  0  0  0  0
   -1.5352   -4.9609   -0.8077 H   0  0  0  0  0  0  0  0  0  0  0  0
    0.0082   -5.2397    1.1557 H   0  0  0  0  0  0  0  0  0  0  0  0
    0.1995   -1.1702    1.9019 H   0  0  0  0  0  0  0  0  0  0  0  0
   -1.5339    2.8870   -2.2413 H   0  0  0  0  0  0  0  0  0  0  0  0
   -0.0087    3.4875   -2.9019 H   0  0  0  0  0  0  0  0  0  0  0  0
   -0.5663    1.8577   -3.3184 H   0  0  0  0  0  0  0  0  0  0  0  0
    3.1656    0.4243    1.8638 H   0  0  0  0  0  0  0  0  0  0  0  0
    5.5585   -1.0280    4.1482 H   0  0  0  0  0  0  0  0  0  0  0  0
    4.1348   -0.0077    3.9166 H   0  0  0  0  0  0  0  0  0  0  0  0
    4.5523   -1.2972    2.7205 H   0  0  0  0  0  0  0  0  0  0  0  0
  1  2  1  0
  2  3  1  0
  3  4  2  0
  4  5  1  0
  5  6  2  0
  6  7  1  0
  7  8  2  0
  8  9  1  0
  9 10  1  0
 10 11  1  0
 11 12  1  0
 12 13  1  0
 13 14  1  0
 14 15  1  0
 15 16  2  0
 16 17  1  0
 17 18  2  0
 18 19  1  0
 19 20  1  0
 19 21  2  0
 12 22  2  0
 22 23  1  0
 23 24  2  0
 24 25  1  0
 25 26  2  0
 26 27  1  0
 27 28  2  0
  9 29  2  0
 29 30  1  0
 29 31  1  0
  6 32  1  0
 32 33  2  0
 33 34  1  0
 34 35  1  0
 33  3  1  0
 31  7  1  0
 28 11  1  0
 21 15  1  0
 28 23  1  0
  1 36  1  0
  1 37  1  0
  1 38  1  0
  4 39  1  0
  5 40  1  0
 10 41  1  0
 10 42  1  0
 14 43  1  0
 14 44  1  0
 16 45  1  0
 17 46  1  0
 18 47  1  0
 21 48  1  0
 24 49  1  0
 25 50  1  0
 27 51  1  0
 30 52  1  0
 30 53  1  0
 30 54  1  0
 32 55  1  0
 35 56  1  0
 35 57  1  0
 35 58  1  0
M  END
$$$$
