
     RDKit          3D

 46 48  0  0  0  0  0  0  0  0999 V2000
   -6.7130   -1.4439    2.9585 C   0  0  0  0  0  0  0  0  0  0  0  0
   -6.5025   -0.6324    1.8096 O   0  0  0  0  0  0  0  0  0  0  0  0
   -5.2042   -0.4320    1.4243 C   0  0  0  0  0  0  0  0  0  0  0  0
   -4.0731   -0.8881    2.0968 C   0  0  0  0  0  0  0  0  0  0  0  0
   -2.8002   -0.6074    1.5930 C   0  0  0  0  0  0  0  0  0  0  0  0
   -2.6449    0.1202    0.4057 C   0  0  0  0  0  0  0  0  0  0  0  0
   -1.2966    0.4318   -0.0925 C   0  0  0  0  0  0  0  0  0  0  0  0
   -0.3756   -0.4411   -0.5253 C   0  0  0  0  0  0  0  0  0  0  0  0
    1.1769    0.0862   -1.1216 S   0  0  0  0  0  0  0  0  0  0  0  0
    1.6608   -1.5404   -1.4626 C   0  0  0  0  0  0  0  0  0  0  0  0
    2.8175   -1.9368   -2.0044 C   0  0  0  0  0  0  0  0  0  0  0  0
    3.9275   -1.0508   -2.4286 C   0  0  0  0  0  0  0  0  0  0  0  0
    4.3478   -1.1338   -3.5790 O   0  0  0  0  0  0  0  0  0  0  0  0
    4.5642   -0.1280   -1.4535 C   0  0  0  0  0  0  0  0  0  0  0  0
    4.5861   -0.3944   -0.0794 C   0  0  0  0  0  0  0  0  0  0  0  0
    5.2105    0.4991    0.7959 C   0  0  0  0  0  0  0  0  0  0  0  0
    5.8188    1.6634    0.3106 C   0  0  0  0  0  0  0  0  0  0  0  0
    6.5164    2.6037    1.2492 C   0  0  0  0  0  0  0  0  0  0  0  0
    5.8227    1.9078   -1.0677 C   0  0  0  0  0  0  0  0  0  0  0  0
    5.1996    1.0176   -1.9452 C   0  0  0  0  0  0  0  0  0  0  0  0
    0.6783   -2.4267   -1.1343 N   0  0  0  0  0  0  0  0  0  0  0  0
   -0.4869   -1.9266   -0.6066 C   0  0  0  0  0  0  0  0  0  0  0  0
   -1.4264   -2.6240   -0.2655 O   0  0  0  0  0  0  0  0  0  0  0  0
   -3.7854    0.5927   -0.2709 C   0  0  0  0  0  0  0  0  0  0  0  0
   -3.5544    1.3206   -1.4125 O   0  0  0  0  0  0  0  0  0  0  0  0
   -4.6873    1.7042   -2.1811 C   0  0  0  0  0  0  0  0  0  0  0  0
   -5.0547    0.3104    0.2470 C   0  0  0  0  0  0  0  0  0  0  0  0
   -6.2894   -0.9765    3.8535 H   0  0  0  0  0  0  0  0  0  0  0  0
   -6.3121   -2.4521    2.8103 H   0  0  0  0  0  0  0  0  0  0  0  0
   -7.7929   -1.5343    3.1102 H   0  0  0  0  0  0  0  0  0  0  0  0
   -4.1416   -1.4650    3.0126 H   0  0  0  0  0  0  0  0  0  0  0  0
   -1.9293   -0.9742    2.1313 H   0  0  0  0  0  0  0  0  0  0  0  0
   -1.0896    1.4997   -0.1344 H   0  0  0  0  0  0  0  0  0  0  0  0
    2.9804   -2.9772   -2.2658 H   0  0  0  0  0  0  0  0  0  0  0  0
    4.1354   -1.2938    0.3297 H   0  0  0  0  0  0  0  0  0  0  0  0
    5.2225    0.2795    1.8616 H   0  0  0  0  0  0  0  0  0  0  0  0
    6.0340    2.6032    2.2323 H   0  0  0  0  0  0  0  0  0  0  0  0
    7.5627    2.3059    1.3678 H   0  0  0  0  0  0  0  0  0  0  0  0
    6.4807    3.6308    0.8709 H   0  0  0  0  0  0  0  0  0  0  0  0
    6.3121    2.7929   -1.4689 H   0  0  0  0  0  0  0  0  0  0  0  0
    5.2108    1.2213   -3.0143 H   0  0  0  0  0  0  0  0  0  0  0  0
    0.7543   -3.4243   -1.2738 H   0  0  0  0  0  0  0  0  0  0  0  0
   -5.3176    2.4079   -1.6278 H   0  0  0  0  0  0  0  0  0  0  0  0
   -4.3242    2.2178   -3.0766 H   0  0  0  0  0  0  0  0  0  0  0  0
   -5.2596    0.8300   -2.5088 H   0  0  0  0  0  0  0  0  0  0  0  0
   -5.9581    0.6569   -0.2437 H   0  0  0  0  0  0  0  0  0  0  0  0
  1  2  1  0
  2  3  1  0
  3  4  2  0
  4  5  1  0
  5  6  2  0
  6  7  1  0
  7  8  2  3
  8  9  1  0
  9 10  1  0
 10 11  2  3
 11 12  1  0
 12 13  2  0
 12 14  1  0
 14 15  2  0
 15 16  1  0
 16 17  2  0
 17 18  1  0
 17 19  1  0
 19 20  2  0
 10 21  1  0
 21 22  1  0
 22 23  2  0
  6 24  1  0
 24 25  1  0
 25 26  1  0
 24 27  2  0
 27  3  1  0
 22  8  1  0
 20 14  1  0
  1 28  1  0
  1 29  1  0
  1 30  1  0
  4 31  1  0
  5 32  1  0
  7 33  1  0
 11 34  1  0
 15 35  1  0
 16 36  1  0
 18 37  1  0
 18 38  1  0
 18 39  1  0
 19 40  1  0
 20 41  1  0
 21 42  1  0
 26 43  1  0
 26 44  1  0
 26 45  1  0
 27 46  1  0
M  END
$$$$
