
     RDKit          3D

 48 50  0  0  0  0  0  0  0  0999 V2000
    4.0213   -3.7808    2.5870 C   0  0  0  0  0  0  0  0  0  0  0  0
    3.8935   -2.3753    2.4041 O   0  0  0  0  0  0  0  0  0  0  0  0
    2.6891   -1.9047    1.9508 C   0  0  0  0  0  0  0  0  0  0  0  0
    1.6051   -2.7148    1.5934 C   0  0  0  0  0  0  0  0  0  0  0  0
    0.4101   -2.1453    1.1451 C   0  0  0  0  0  0  0  0  0  0  0  0
    0.2893   -0.7593    1.0559 C   0  0  0  0  0  0  0  0  0  0  0  0
   -0.9649   -0.1361    0.5899 C   0  0  0  0  0  0  0  0  0  0  0  0
   -1.9909   -0.8492    0.2521 N   0  0  0  0  0  0  0  0  0  0  0  0
   -3.0785   -0.1444   -0.1594 N   0  0  0  0  0  0  0  0  0  0  0  0
   -4.2405   -0.7959   -0.5559 C   0  0  0  0  0  0  0  0  0  0  0  0
   -4.3870   -2.0106   -0.5699 O   0  0  0  0  0  0  0  0  0  0  0  0
   -5.3207    0.1653   -0.9841 C   0  0  0  0  0  0  0  0  0  0  0  0
   -4.9189    1.4750   -0.9395 N   0  0  0  0  0  0  0  0  0  0  0  0
   -5.8252    2.4095   -1.2993 C   0  0  0  0  0  0  0  0  0  0  0  0
   -5.1933    4.0056   -1.1756 Cl  0  0  0  0  0  0  0  0  0  0  0  0
   -7.1187    2.1267   -1.7192 C   0  0  0  0  0  0  0  0  0  0  0  0
   -8.2307    3.3793   -2.1614 Cl  0  0  0  0  0  0  0  0  0  0  0  0
   -7.5114    0.7768   -1.8010 C   0  0  0  0  0  0  0  0  0  0  0  0
   -8.8607    0.4456   -2.0876 N   0  0  0  0  0  0  0  0  0  0  0  0
   -6.6007   -0.2255   -1.3873 C   0  0  0  0  0  0  0  0  0  0  0  0
   -7.1364   -1.8736   -1.4344 Cl  0  0  0  0  0  0  0  0  0  0  0  0
    1.3621    0.0596    1.4096 C   0  0  0  0  0  0  0  0  0  0  0  0
    2.5774   -0.5042    1.8441 C   0  0  0  0  0  0  0  0  0  0  0  0
    3.7230    0.4034    2.2470 C   0  0  0  0  0  0  0  0  0  0  0  0
    3.7896    1.5923    1.4508 O   0  0  0  0  0  0  0  0  0  0  0  0
    4.4171    1.5375    0.2358 C   0  0  0  0  0  0  0  0  0  0  0  0
    4.9423    0.3905   -0.3655 C   0  0  0  0  0  0  0  0  0  0  0  0
    5.5530    0.4766   -1.6215 C   0  0  0  0  0  0  0  0  0  0  0  0
    5.6352    1.7037   -2.2715 C   0  0  0  0  0  0  0  0  0  0  0  0
    6.2214    1.7744   -3.4734 F   0  0  0  0  0  0  0  0  0  0  0  0
    5.1170    2.8519   -1.6947 C   0  0  0  0  0  0  0  0  0  0  0  0
    4.5109    2.7584   -0.4471 C   0  0  0  0  0  0  0  0  0  0  0  0
    4.0057    3.8738    0.1025 F   0  0  0  0  0  0  0  0  0  0  0  0
    3.9313   -4.3111    1.6333 H   0  0  0  0  0  0  0  0  0  0  0  0
    3.2969   -4.1523    3.3192 H   0  0  0  0  0  0  0  0  0  0  0  0
    5.0230   -3.9756    2.9820 H   0  0  0  0  0  0  0  0  0  0  0  0
    1.6518   -3.7977    1.6507 H   0  0  0  0  0  0  0  0  0  0  0  0
   -0.4236   -2.7895    0.8706 H   0  0  0  0  0  0  0  0  0  0  0  0
   -0.9836    0.9680    0.5433 H   0  0  0  0  0  0  0  0  0  0  0  0
   -3.0576    0.8730   -0.1986 H   0  0  0  0  0  0  0  0  0  0  0  0
   -8.9968   -0.5160   -2.3979 H   0  0  0  0  0  0  0  0  0  0  0  0
   -9.3546    1.1313   -2.6559 H   0  0  0  0  0  0  0  0  0  0  0  0
    1.2664    1.1420    1.3463 H   0  0  0  0  0  0  0  0  0  0  0  0
    3.5323    0.7283    3.2771 H   0  0  0  0  0  0  0  0  0  0  0  0
    4.6980   -0.0962    2.2662 H   0  0  0  0  0  0  0  0  0  0  0  0
    4.8887   -0.5857    0.1058 H   0  0  0  0  0  0  0  0  0  0  0  0
    5.9626   -0.4097   -2.0975 H   0  0  0  0  0  0  0  0  0  0  0  0
    5.1807    3.8050   -2.2053 H   0  0  0  0  0  0  0  0  0  0  0  0
  1  2  1  0
  2  3  1  0
  3  4  2  0
  4  5  1  0
  5  6  2  0
  6  7  1  0
  7  8  2  3
  8  9  1  0
  9 10  1  0
 10 11  2  0
 10 12  1  0
 12 13  2  0
 13 14  1  0
 14 15  1  0
 14 16  2  0
 16 17  1  0
 16 18  1  0
 18 19  1  0
 18 20  2  0
 20 21  1  0
  6 22  1  0
 22 23  2  0
 23 24  1  0
 24 25  1  0
 25 26  1  0
 26 27  2  0
 27 28  1  0
 28 29  2  0
 29 30  1  0
 29 31  1  0
 31 32  2  0
 32 33  1  0
 23  3  1  0
 32 26  1  0
 20 12  1  0
  1 34  1  0
  1 35  1  0
  1 36  1  0
  4 37  1  0
  5 38  1  0
  7 39  1  0
  9 40  1  0
 19 41  1  0
 19 42  1  0
 22 43  1  0
 24 44  1  0
 24 45  1  0
 27 46  1  0
 28 47  1  0
 31 48  1  0
M  END
$$$$
