
     RDKit          3D

 57 62  0  0  0  0  0  0  0  0999 V2000
    8.2768   -2.9616    0.4633 C   0  0  0  0  0  0  0  0  0  0  0  0
    6.9901   -3.3751    0.9101 O   0  0  0  0  0  0  0  0  0  0  0  0
    5.9482   -2.5216    0.6903 C   0  0  0  0  0  0  0  0  0  0  0  0
    4.7277   -2.9453    1.2187 C   0  0  0  0  0  0  0  0  0  0  0  0
    3.5750   -2.1675    1.0738 C   0  0  0  0  0  0  0  0  0  0  0  0
    3.6355   -0.9471    0.3932 C   0  0  0  0  0  0  0  0  0  0  0  0
    2.3412   -0.0677    0.2452 C   0  0  0  0  0  0  0  0  0  0  0  0
    1.0611   -0.4021    0.6730 C   0  0  0  0  0  0  0  0  0  0  0  0
    0.1879    0.6359    0.3500 N   0  0  0  0  0  4  0  0  0  0  0  0
   -1.2554    0.7053    0.6382 C   0  0  0  0  0  0  0  0  0  0  0  0
   -2.1056    0.6882   -0.6466 C   0  0  0  0  0  0  0  0  0  0  0  0
   -1.6177    1.0066   -1.7316 O   0  0  0  0  0  0  0  0  0  0  0  0
   -3.4527    0.3896   -0.4064 N   0  0  0  0  0  0  0  0  0  0  0  0
   -3.8085   -0.9115    0.1068 C   0  0  0  0  0  0  0  0  0  0  0  0
   -2.9062   -1.9877   -0.0589 C   0  0  0  0  0  0  0  0  0  0  0  0
   -3.1999   -3.2689    0.4170 C   0  0  0  0  0  0  0  0  0  0  0  0
   -4.4043   -3.5070    1.0636 C   0  0  0  0  0  0  0  0  0  0  0  0
   -5.3185   -2.4681    1.2165 C   0  0  0  0  0  0  0  0  0  0  0  0
   -5.0347   -1.1798    0.7326 C   0  0  0  0  0  0  0  0  0  0  0  0
   -6.2554    0.0685    0.9997 S   0  0  0  0  0  0  0  0  0  0  0  0
   -5.8096    1.2062   -0.2888 C   0  0  0  0  0  0  0  0  0  0  0  0
   -6.8099    2.1090   -0.6958 C   0  0  0  0  0  0  0  0  0  0  0  0
   -6.5360    3.1053   -1.6264 C   0  0  0  0  0  0  0  0  0  0  0  0
   -5.2526    3.2196   -2.1391 C   0  0  0  0  0  0  0  0  0  0  0  0
   -4.2502    2.3307   -1.7307 C   0  0  0  0  0  0  0  0  0  0  0  0
   -4.5060    1.2886   -0.8153 C   0  0  0  0  0  0  0  0  0  0  0  0
    0.8955    1.5671   -0.2855 C   0  0  0  0  0  0  0  0  0  0  0  0
    2.1708    1.1873   -0.3095 N   0  0  0  0  0  0  0  0  0  0  0  0
    3.0243    2.2018   -0.9114 C   0  0  0  0  0  0  0  0  0  0  0  0
    2.1134    3.4593   -0.9514 C   0  0  0  0  0  0  0  0  0  0  0  0
    0.6770    2.9044   -0.8876 C   0  0  0  0  0  0  0  0  0  0  0  0
    4.8524   -0.5274   -0.1477 C   0  0  0  0  0  0  0  0  0  0  0  0
    6.0052   -1.3107    0.0030 C   0  0  0  0  0  0  0  0  0  0  0  0
    8.3005   -2.8684   -0.6279 H   0  0  0  0  0  0  0  0  0  0  0  0
    8.9953   -3.7371    0.7473 H   0  0  0  0  0  0  0  0  0  0  0  0
    8.5836   -2.0283    0.9481 H   0  0  0  0  0  0  0  0  0  0  0  0
    4.6783   -3.8894    1.7578 H   0  0  0  0  0  0  0  0  0  0  0  0
    2.6565   -2.5428    1.5145 H   0  0  0  0  0  0  0  0  0  0  0  0
    0.6556   -1.2649    1.1741 H   0  0  0  0  0  0  0  0  0  0  0  0
   -1.4433    1.6519    1.1564 H   0  0  0  0  0  0  0  0  0  0  0  0
   -1.5139   -0.1096    1.3176 H   0  0  0  0  0  0  0  0  0  0  0  0
   -1.9820   -1.8710   -0.6206 H   0  0  0  0  0  0  0  0  0  0  0  0
   -2.5005   -4.0879    0.2611 H   0  0  0  0  0  0  0  0  0  0  0  0
   -4.6483   -4.5039    1.4261 H   0  0  0  0  0  0  0  0  0  0  0  0
   -6.2686   -2.6740    1.7091 H   0  0  0  0  0  0  0  0  0  0  0  0
   -7.8117    2.0462   -0.2756 H   0  0  0  0  0  0  0  0  0  0  0  0
   -7.3175    3.7953   -1.9380 H   0  0  0  0  0  0  0  0  0  0  0  0
   -5.0260    4.0001   -2.8642 H   0  0  0  0  0  0  0  0  0  0  0  0
   -3.2775    2.4694   -2.1927 H   0  0  0  0  0  0  0  0  0  0  0  0
    3.2989    1.8799   -1.9196 H   0  0  0  0  0  0  0  0  0  0  0  0
    3.9120    2.3825   -0.3016 H   0  0  0  0  0  0  0  0  0  0  0  0
    2.3042    4.0634   -0.0567 H   0  0  0  0  0  0  0  0  0  0  0  0
    2.2936    4.0866   -1.8283 H   0  0  0  0  0  0  0  0  0  0  0  0
    0.0103    3.4838   -0.2493 H   0  0  0  0  0  0  0  0  0  0  0  0
    0.2629    2.7446   -1.8834 H   0  0  0  0  0  0  0  0  0  0  0  0
    4.9461    0.3978   -0.7027 H   0  0  0  0  0  0  0  0  0  0  0  0
    6.9330   -0.9486   -0.4320 H   0  0  0  0  0  0  0  0  0  0  0  0
  1  2  1  0
  2  3  1  0
  3  4  2  0
  4  5  1  0
  5  6  2  0
  6  7  1  0
  7  8  2  0
  8  9  1  0
  9 10  1  0
 10 11  1  0
 11 12  2  0
 11 13  1  0
 13 14  1  0
 14 15  2  0
 15 16  1  0
 16 17  2  0
 17 18  1  0
 18 19  2  0
 19 20  1  0
 20 21  1  0
 21 22  2  0
 22 23  1  0
 23 24  2  0
 24 25  1  0
 25 26  2  0
  9 27  2  0
 27 28  1  0
 28 29  1  0
 29 30  1  0
 30 31  1  0
  6 32  1  0
 32 33  2  0
 33  3  1  0
 28  7  1  0
 26 13  1  0
 31 27  1  0
 19 14  1  0
 26 21  1  0
  1 34  1  0
  1 35  1  0
  1 36  1  0
  4 37  1  0
  5 38  1  0
  8 39  1  0
 10 40  1  0
 10 41  1  0
 15 42  1  0
 16 43  1  0
 17 44  1  0
 18 45  1  0
 22 46  1  0
 23 47  1  0
 24 48  1  0
 25 49  1  0
 29 50  1  0
 29 51  1  0
 30 52  1  0
 30 53  1  0
 31 54  1  0
 31 55  1  0
 32 56  1  0
 33 57  1  0
M  CHG  1   9   1
M  END
$$$$
