
     RDKit          3D

 57 62  0  0  0  0  0  0  0  0999 V2000
    5.4538   -0.9408    3.4404 C   0  0  0  0  0  0  0  0  0  0  0  0
    4.1479   -0.9808    2.8804 O   0  0  0  0  0  0  0  0  0  0  0  0
    4.0566   -1.1832    1.5291 C   0  0  0  0  0  0  0  0  0  0  0  0
    5.1432   -1.3611    0.6512 C   0  0  0  0  0  0  0  0  0  0  0  0
    4.9357   -1.5658   -0.7186 C   0  0  0  0  0  0  0  0  0  0  0  0
    3.6343   -1.5822   -1.1722 C   0  0  0  0  0  0  0  0  0  0  0  0
    2.5417   -1.4002   -0.3211 C   0  0  0  0  0  0  0  0  0  0  0  0
    2.7452   -1.2061    1.0374 C   0  0  0  0  0  0  0  0  0  0  0  0
    1.2815   -1.4724   -1.1337 C   0  0  0  0  0  0  0  0  0  0  0  0
    0.2999   -2.5181   -0.6830 N   0  0  0  0  0  0  0  0  0  0  0  0
   -0.8524   -1.8357    0.0273 C   0  0  2  0  0  0  0  0  0  0  0  0
   -2.1836   -2.4643   -0.4277 C   0  0  0  0  0  0  0  0  0  0  0  0
   -3.3886   -2.0423    0.3809 C   0  0  0  0  0  0  0  0  0  0  0  0
   -3.4737   -2.3361    1.7491 C   0  0  0  0  0  0  0  0  0  0  0  0
   -4.5813   -1.9271    2.4929 C   0  0  0  0  0  0  0  0  0  0  0  0
   -5.6178   -1.2294    1.8764 C   0  0  0  0  0  0  0  0  0  0  0  0
   -5.5517   -0.9465    0.5139 C   0  0  0  0  0  0  0  0  0  0  0  0
   -4.4459   -1.3552   -0.2325 C   0  0  0  0  0  0  0  0  0  0  0  0
   -0.6643   -0.4051   -0.3266 C   0  0  0  0  0  0  0  0  0  0  0  0
    0.5420   -0.2135   -0.9988 C   0  0  0  0  0  0  0  0  0  0  0  0
    0.6966    1.1161   -1.2784 C   0  0  0  0  0  0  0  0  0  0  0  0
    1.7584    1.7240   -1.8060 O   0  0  0  0  0  0  0  0  0  0  0  0
   -0.4668    1.7696   -0.8295 N   0  0  0  0  0  0  0  0  0  0  0  0
   -0.7882    3.1474   -1.0516 C   0  0  0  0  0  0  0  0  0  0  0  0
   -1.5323    3.8735   -0.1140 C   0  0  0  0  0  0  0  0  0  0  0  0
   -1.8326    5.2194   -0.3424 C   0  0  0  0  0  0  0  0  0  0  0  0
   -1.4034    5.8462   -1.5103 C   0  0  0  0  0  0  0  0  0  0  0  0
   -0.6776    5.1276   -2.4570 C   0  0  0  0  0  0  0  0  0  0  0  0
   -0.3721    3.7829   -2.2326 C   0  0  0  0  0  0  0  0  0  0  0  0
   -1.2523    0.8226   -0.1409 C   0  0  0  0  0  0  0  0  0  0  0  0
   -2.3736    1.1575    0.4914 O   0  0  0  0  0  0  0  0  0  0  0  0
    1.8153   -1.7647   -2.5613 C   0  0  0  0  0  0  0  0  0  0  0  0
    1.1611   -1.9888   -3.5703 O   0  0  0  0  0  0  0  0  0  0  0  0
    3.2079   -1.7888   -2.4782 N   0  0  0  0  0  0  0  0  0  0  0  0
    5.9715   -1.8959    3.3033 H   0  0  0  0  0  0  0  0  0  0  0  0
    5.3511   -0.7701    4.5164 H   0  0  0  0  0  0  0  0  0  0  0  0
    6.0360   -0.1111    3.0261 H   0  0  0  0  0  0  0  0  0  0  0  0
    6.1674   -1.3477    1.0100 H   0  0  0  0  0  0  0  0  0  0  0  0
    5.7742   -1.7079   -1.3906 H   0  0  0  0  0  0  0  0  0  0  0  0
    1.9044   -1.0704    1.7103 H   0  0  0  0  0  0  0  0  0  0  0  0
   -0.0761   -2.9022   -1.5539 H   0  0  0  0  0  0  0  0  0  0  0  0
   -0.6969   -1.9693    1.1041 H   0  0  0  0  0  0  0  0  0  0  0  0
   -2.3562   -2.2447   -1.4903 H   0  0  0  0  0  0  0  0  0  0  0  0
   -2.1183   -3.5587   -0.3541 H   0  0  0  0  0  0  0  0  0  0  0  0
   -2.6807   -2.8910    2.2468 H   0  0  0  0  0  0  0  0  0  0  0  0
   -4.6389   -2.1584    3.5537 H   0  0  0  0  0  0  0  0  0  0  0  0
   -6.4812   -0.9128    2.4559 H   0  0  0  0  0  0  0  0  0  0  0  0
   -6.3623   -0.4066    0.0305 H   0  0  0  0  0  0  0  0  0  0  0  0
   -4.4099   -1.1195   -1.2948 H   0  0  0  0  0  0  0  0  0  0  0  0
    1.7464    2.6593   -1.5322 H   0  0  0  0  0  0  0  0  0  0  0  0
   -1.8638    3.4263    0.8190 H   0  0  0  0  0  0  0  0  0  0  0  0
   -2.4034    5.7772    0.3958 H   0  0  0  0  0  0  0  0  0  0  0  0
   -1.6446    6.8913   -1.6866 H   0  0  0  0  0  0  0  0  0  0  0  0
   -0.3630    5.6090   -3.3797 H   0  0  0  0  0  0  0  0  0  0  0  0
    0.1448    3.2365   -3.0193 H   0  0  0  0  0  0  0  0  0  0  0  0
   -2.7639    0.3531    0.8790 H   0  0  0  0  0  0  0  0  0  0  0  0
    3.8005   -1.9649   -3.2741 H   0  0  0  0  0  0  0  0  0  0  0  0
  1  2  1  0
  2  3  1  0
  3  4  2  0
  4  5  1  0
  5  6  2  0
  6  7  1  0
  7  8  2  0
  7  9  1  0
  9 10  1  0
 10 11  1  0
 11 12  1  0
 12 13  1  0
 13 14  2  0
 14 15  1  0
 15 16  2  0
 16 17  1  0
 17 18  2  0
 11 19  1  0
 19 20  1  0
 20 21  2  0
 21 22  1  0
 21 23  1  0
 23 24  1  0
 24 25  2  0
 25 26  1  0
 26 27  2  0
 27 28  1  0
 28 29  2  0
 23 30  1  0
 30 31  1  0
  9 32  1  0
 32 33  2  0
 32 34  1  0
  8  3  1  0
 20  9  1  0
 29 24  1  0
 34  6  1  0
 18 13  1  0
 30 19  2  0
  1 35  1  0
  1 36  1  0
  1 37  1  0
  4 38  1  0
  5 39  1  0
  8 40  1  0
 10 41  1  0
 11 42  1  1
 12 43  1  0
 12 44  1  0
 14 45  1  0
 15 46  1  0
 16 47  1  0
 17 48  1  0
 18 49  1  0
 22 50  1  0
 25 51  1  0
 26 52  1  0
 27 53  1  0
 28 54  1  0
 29 55  1  0
 31 56  1  0
 34 57  1  0
M  END
$$$$
