
     RDKit          3D

 43 43  0  0  0  0  0  0  0  0999 V2000
   -3.8685    2.8504    1.8391 C   0  0  0  0  0  0  0  0  0  0  0  0
   -3.9872    1.5402    2.5532 C   0  0  0  0  0  0  0  0  0  0  0  0
   -3.9571    1.6887    4.2882 Cl  0  0  0  0  0  0  0  0  0  0  0  0
   -4.0990    0.3069    2.0274 C   0  0  0  0  0  0  0  0  0  0  0  0
   -4.1582   -0.0714    0.5825 C   0  0  0  0  0  0  0  0  0  0  0  0
   -2.9044   -0.7813    0.0434 N   0  0  0  0  0  4  0  0  0  0  0  0
   -2.6255   -2.0598    0.8290 C   0  0  0  0  0  0  0  0  0  0  0  0
   -3.1689   -1.1561   -1.4158 C   0  0  0  0  0  0  0  0  0  0  0  0
   -1.6790    0.1976    0.1247 C   0  0  0  0  0  0  0  0  0  0  0  0
   -0.3547   -0.2831   -0.4664 C   0  0  0  0  0  0  0  0  0  0  0  0
   -0.1178   -1.4301   -0.8170 O   0  0  0  0  0  0  0  0  0  0  0  0
    0.5136    0.7637   -0.5300 O   0  0  0  0  0  0  0  0  0  0  0  0
    1.8123    0.4877   -1.0939 C   0  0  0  0  0  0  0  0  0  0  0  0
    2.8070    0.1887    0.0273 C   0  0  0  0  0  0  0  0  0  0  0  0
    4.1925   -0.0558   -0.5043 C   0  0  0  0  0  0  0  0  0  0  0  0
    4.6264   -1.3576   -0.7872 C   0  0  0  0  0  0  0  0  0  0  0  0
    5.9029   -1.5805   -1.3045 C   0  0  0  0  0  0  0  0  0  0  0  0
    6.7570   -0.5018   -1.5443 C   0  0  0  0  0  0  0  0  0  0  0  0
    6.3352    0.7969   -1.2665 C   0  0  0  0  0  0  0  0  0  0  0  0
    5.0592    1.0211   -0.7479 C   0  0  0  0  0  0  0  0  0  0  0  0
   -3.9595    2.7464    0.7574 H   0  0  0  0  0  0  0  0  0  0  0  0
   -4.6627    3.5365    2.1623 H   0  0  0  0  0  0  0  0  0  0  0  0
   -2.9005    3.3148    2.0575 H   0  0  0  0  0  0  0  0  0  0  0  0
   -4.2067   -0.5279    2.7218 H   0  0  0  0  0  0  0  0  0  0  0  0
   -5.0031   -0.7553    0.4304 H   0  0  0  0  0  0  0  0  0  0  0  0
   -4.3292    0.7934   -0.0661 H   0  0  0  0  0  0  0  0  0  0  0  0
   -3.5518   -2.6427    0.8680 H   0  0  0  0  0  0  0  0  0  0  0  0
   -1.8513   -2.6375    0.3214 H   0  0  0  0  0  0  0  0  0  0  0  0
   -2.2942   -1.7917    1.8369 H   0  0  0  0  0  0  0  0  0  0  0  0
   -2.3363   -1.7488   -1.7989 H   0  0  0  0  0  0  0  0  0  0  0  0
   -3.2822   -0.2326   -1.9929 H   0  0  0  0  0  0  0  0  0  0  0  0
   -4.0907   -1.7443   -1.4577 H   0  0  0  0  0  0  0  0  0  0  0  0
   -1.5155    0.4164    1.1839 H   0  0  0  0  0  0  0  0  0  0  0  0
   -1.9884    1.1022   -0.4053 H   0  0  0  0  0  0  0  0  0  0  0  0
    2.1133    1.3880   -1.6442 H   0  0  0  0  0  0  0  0  0  0  0  0
    1.7653   -0.3283   -1.8274 H   0  0  0  0  0  0  0  0  0  0  0  0
    2.4680   -0.6719    0.6163 H   0  0  0  0  0  0  0  0  0  0  0  0
    2.8238    1.0220    0.7380 H   0  0  0  0  0  0  0  0  0  0  0  0
    3.9757   -2.2111   -0.6074 H   0  0  0  0  0  0  0  0  0  0  0  0
    6.2346   -2.5937   -1.5234 H   0  0  0  0  0  0  0  0  0  0  0  0
    7.7521   -0.6751   -1.9470 H   0  0  0  0  0  0  0  0  0  0  0  0
    7.0034    1.6348   -1.4552 H   0  0  0  0  0  0  0  0  0  0  0  0
    4.7500    2.0423   -0.5335 H   0  0  0  0  0  0  0  0  0  0  0  0
  1  2  1  0
  2  3  1  0
  2  4  2  3
  4  5  1  0
  5  6  1  0
  6  7  1  0
  6  8  1  0
  6  9  1  0
  9 10  1  0
 10 11  2  0
 10 12  1  0
 12 13  1  0
 13 14  1  0
 14 15  1  0
 15 16  2  0
 16 17  1  0
 17 18  2  0
 18 19  1  0
 19 20  2  0
 20 15  1  0
  1 21  1  0
  1 22  1  0
  1 23  1  0
  4 24  1  0
  5 25  1  0
  5 26  1  0
  7 27  1  0
  7 28  1  0
  7 29  1  0
  8 30  1  0
  8 31  1  0
  8 32  1  0
  9 33  1  0
  9 34  1  0
 13 35  1  0
 13 36  1  0
 14 37  1  0
 14 38  1  0
 16 39  1  0
 17 40  1  0
 18 41  1  0
 19 42  1  0
 20 43  1  0
M  CHG  1   6   1
M  END
$$$$
