
     RDKit          3D

 58 60  0  0  0  0  0  0  0  0999 V2000
    8.6171    2.1100    1.0140 C   0  0  0  0  0  0  0  0  0  0  0  0
    7.2463    2.3544    0.5315 C   0  0  0  0  0  0  0  0  0  0  0  0
    6.1136    1.5847    0.4244 C   0  0  0  0  0  0  0  0  0  0  0  0
    5.1464    2.4479   -0.1346 C   0  0  0  0  0  0  0  0  0  0  0  0
    3.8335    2.1969   -0.4671 N   0  0  0  0  0  0  0  0  0  0  0  0
    3.1799    0.9996   -0.2847 C   0  0  0  0  0  0  0  0  0  0  0  0
    3.6640   -0.0108    0.2146 O   0  0  0  0  0  0  0  0  0  0  0  0
    1.7454    1.0612   -0.7746 C   0  0  0  0  0  0  0  0  0  0  0  0
    1.0102   -0.2573   -0.5342 C   0  0  0  0  0  0  0  0  0  0  0  0
   -0.4780   -0.1290   -0.8080 C   0  0  0  0  0  0  0  0  0  0  0  0
   -0.9756    0.9426   -1.1646 O   0  0  0  0  0  0  0  0  0  0  0  0
   -1.2593   -1.2643   -0.6353 N   0  0  0  0  0  0  0  0  0  0  0  0
   -2.7028   -1.1084   -0.8043 C   0  0  0  0  0  0  0  0  0  0  0  0
   -3.3096   -0.5704    0.4954 C   0  0  0  0  0  0  0  0  0  0  0  0
   -3.3238   -1.2317    1.5330 O   0  0  0  0  0  0  0  0  0  0  0  0
   -3.7648    0.7369    0.4071 N   0  0  0  0  0  0  0  0  0  0  0  0
   -4.2395    1.4473    1.5852 C   0  0  0  0  0  0  0  0  0  0  0  0
   -5.4750    0.7972    2.2463 C   0  0  0  0  0  0  0  0  0  0  0  0
   -6.5551    1.8791    2.2978 C   0  0  0  0  0  0  0  0  0  0  0  0
   -5.7836    3.1889    2.2330 C   0  0  0  0  0  0  0  0  0  0  0  0
   -4.6751    2.8781    1.2386 C   0  0  0  0  0  0  0  0  0  0  0  0
   -0.7996   -2.4920    0.0219 C   0  0  0  0  0  0  0  0  0  0  0  0
   -0.0217   -3.4074   -0.8996 C   0  0  0  0  0  0  0  0  0  0  0  0
   -0.4746   -3.6946   -2.2011 C   0  0  0  0  0  0  0  0  0  0  0  0
    0.2421   -4.5665   -3.0223 C   0  0  0  0  0  0  0  0  0  0  0  0
    1.4035   -5.1671   -2.5369 C   0  0  0  0  0  0  0  0  0  0  0  0
    2.0867   -6.0085   -3.3233 F   0  0  0  0  0  0  0  0  0  0  0  0
    1.8616   -4.9140   -1.2459 C   0  0  0  0  0  0  0  0  0  0  0  0
    1.1486   -4.0401   -0.4240 C   0  0  0  0  0  0  0  0  0  0  0  0
    5.6598    3.6659   -0.3471 N   0  0  0  0  0  0  0  0  0  0  0  0
    6.9770    3.6054    0.0730 O   0  0  0  0  0  0  0  0  0  0  0  0
    8.7325    1.0820    1.3709 H   0  0  0  0  0  0  0  0  0  0  0  0
    9.3429    2.2814    0.2133 H   0  0  0  0  0  0  0  0  0  0  0  0
    8.8588    2.7813    1.8472 H   0  0  0  0  0  0  0  0  0  0  0  0
    6.0096    0.5477    0.7059 H   0  0  0  0  0  0  0  0  0  0  0  0
    3.3538    2.9907   -0.8700 H   0  0  0  0  0  0  0  0  0  0  0  0
    1.2419    1.8844   -0.2457 H   0  0  0  0  0  0  0  0  0  0  0  0
    1.7464    1.2980   -1.8490 H   0  0  0  0  0  0  0  0  0  0  0  0
    1.1479   -0.5631    0.5098 H   0  0  0  0  0  0  0  0  0  0  0  0
    1.4307   -1.0296   -1.1882 H   0  0  0  0  0  0  0  0  0  0  0  0
   -2.9152   -0.4300   -1.6396 H   0  0  0  0  0  0  0  0  0  0  0  0
   -3.1633   -2.0739   -1.0437 H   0  0  0  0  0  0  0  0  0  0  0  0
   -3.2836    1.2985   -0.2923 H   0  0  0  0  0  0  0  0  0  0  0  0
   -3.4092    1.4750    2.3042 H   0  0  0  0  0  0  0  0  0  0  0  0
   -5.8417   -0.0904    1.7162 H   0  0  0  0  0  0  0  0  0  0  0  0
   -5.2140    0.4903    3.2653 H   0  0  0  0  0  0  0  0  0  0  0  0
   -7.1767    1.8034    3.1962 H   0  0  0  0  0  0  0  0  0  0  0  0
   -7.2146    1.7855    1.4258 H   0  0  0  0  0  0  0  0  0  0  0  0
   -6.4132    4.0246    1.9086 H   0  0  0  0  0  0  0  0  0  0  0  0
   -5.3612    3.4345    3.2132 H   0  0  0  0  0  0  0  0  0  0  0  0
   -3.8447    3.5911    1.3057 H   0  0  0  0  0  0  0  0  0  0  0  0
   -5.0732    2.9290    0.2173 H   0  0  0  0  0  0  0  0  0  0  0  0
   -0.1919   -2.2126    0.8881 H   0  0  0  0  0  0  0  0  0  0  0  0
   -1.6591   -3.0501    0.4104 H   0  0  0  0  0  0  0  0  0  0  0  0
   -1.3854   -3.2418   -2.5828 H   0  0  0  0  0  0  0  0  0  0  0  0
   -0.0978   -4.7851   -4.0300 H   0  0  0  0  0  0  0  0  0  0  0  0
    2.7683   -5.3985   -0.8838 H   0  0  0  0  0  0  0  0  0  0  0  0
    1.5141   -3.8559    0.5930 H   0  0  0  0  0  0  0  0  0  0  0  0
  1  2  1  0
  2  3  2  0
  3  4  1  0
  4  5  1  0
  5  6  1  0
  6  7  2  0
  6  8  1  0
  8  9  1  0
  9 10  1  0
 10 11  2  0
 10 12  1  0
 12 13  1  0
 13 14  1  0
 14 15  2  0
 14 16  1  0
 16 17  1  0
 17 18  1  0
 18 19  1  0
 19 20  1  0
 20 21  1  0
 12 22  1  0
 22 23  1  0
 23 24  2  0
 24 25  1  0
 25 26  2  0
 26 27  1  0
 26 28  1  0
 28 29  2  0
  4 30  2  0
 30 31  1  0
 31  2  1  0
 21 17  1  0
 29 23  1  0
  1 32  1  0
  1 33  1  0
  1 34  1  0
  3 35  1  0
  5 36  1  0
  8 37  1  0
  8 38  1  0
  9 39  1  0
  9 40  1  0
 13 41  1  0
 13 42  1  0
 16 43  1  0
 17 44  1  0
 18 45  1  0
 18 46  1  0
 19 47  1  0
 19 48  1  0
 20 49  1  0
 20 50  1  0
 21 51  1  0
 21 52  1  0
 22 53  1  0
 22 54  1  0
 24 55  1  0
 25 56  1  0
 28 57  1  0
 29 58  1  0
M  END
$$$$
