
     RDKit          3D

 53 55  0  0  0  0  0  0  0  0999 V2000
   -7.8880    0.7797    0.6961 C   0  0  0  0  0  0  0  0  0  0  0  0
   -6.6745    0.0483    0.8144 O   0  0  0  0  0  0  0  0  0  0  0  0
   -6.5943   -1.1570    0.1670 C   0  0  0  0  0  0  0  0  0  0  0  0
   -7.5916   -1.6710   -0.6711 C   0  0  0  0  0  0  0  0  0  0  0  0
   -7.4352   -2.9179   -1.2813 C   0  0  0  0  0  0  0  0  0  0  0  0
   -6.2852   -3.6654   -1.0570 C   0  0  0  0  0  0  0  0  0  0  0  0
   -5.2840   -3.1609   -0.2297 C   0  0  0  0  0  0  0  0  0  0  0  0
   -5.4162   -1.8988    0.3796 C   0  0  0  0  0  0  0  0  0  0  0  0
   -4.3141   -1.4000    1.2832 C   0  0  0  0  0  0  0  0  0  0  0  0
   -3.0270   -1.4437    0.6307 N   0  0  0  0  0  0  0  0  0  0  0  0
   -1.8608   -1.2980    1.3422 C   0  0  0  0  0  0  0  0  0  0  0  0
   -1.7502   -1.2793    2.5600 O   0  0  0  0  0  0  0  0  0  0  0  0
   -0.6073   -1.1257    0.4542 C   0  0  0  0  0  0  0  0  0  0  0  0
   -0.7235   -1.0363   -0.7597 O   0  0  0  0  0  0  0  0  0  0  0  0
    0.5657   -1.0861    1.1721 N   0  0  0  0  0  0  0  0  0  0  0  0
    1.8334   -0.7134    0.5663 C   0  0  0  0  0  0  0  0  0  0  0  0
    2.1321    0.7962    0.6743 C   0  0  0  0  0  0  0  0  0  0  0  0
    1.1922    1.5514   -0.1099 O   0  0  0  0  0  0  0  0  0  0  0  0
    1.8871    2.7395   -0.4868 C   0  0  0  0  0  0  0  0  0  0  0  0
    3.2800    2.2460   -0.8047 C   0  0  0  0  0  0  0  0  0  0  0  0
    3.4726    1.1112    0.1225 N   0  0  0  0  0  0  0  0  0  0  0  0
    4.6620    1.2685    1.3086 S   0  0  0  0  0  6  0  0  0  0  0  0
    4.6834    0.0472    2.0820 O   0  0  0  0  0  0  0  0  0  0  0  0
    4.4699    2.5560    1.9405 O   0  0  0  0  0  0  0  0  0  0  0  0
    6.1565    1.3224    0.3539 C   0  0  0  0  0  0  0  0  0  0  0  0
    6.5065    0.2111   -0.4197 C   0  0  0  0  0  0  0  0  0  0  0  0
    7.6774    0.2438   -1.1784 C   0  0  0  0  0  0  0  0  0  0  0  0
    8.4860    1.3810   -1.1540 C   0  0  0  0  0  0  0  0  0  0  0  0
   10.0706    1.4232   -2.1838 Br  0  0  0  0  0  0  0  0  0  0  0  0
    8.1380    2.4868   -0.3770 C   0  0  0  0  0  0  0  0  0  0  0  0
    6.9685    2.4597    0.3842 C   0  0  0  0  0  0  0  0  0  0  0  0
   -8.7375    0.2049    1.0818 H   0  0  0  0  0  0  0  0  0  0  0  0
   -7.7936    1.6832    1.3063 H   0  0  0  0  0  0  0  0  0  0  0  0
   -8.0579    1.0954   -0.3373 H   0  0  0  0  0  0  0  0  0  0  0  0
   -8.5086   -1.1259   -0.8713 H   0  0  0  0  0  0  0  0  0  0  0  0
   -8.2177   -3.3066   -1.9285 H   0  0  0  0  0  0  0  0  0  0  0  0
   -6.1659   -4.6388   -1.5245 H   0  0  0  0  0  0  0  0  0  0  0  0
   -4.3909   -3.7584   -0.0554 H   0  0  0  0  0  0  0  0  0  0  0  0
   -4.2809   -2.0112    2.1928 H   0  0  0  0  0  0  0  0  0  0  0  0
   -4.4662   -0.3620    1.5966 H   0  0  0  0  0  0  0  0  0  0  0  0
   -2.9673   -1.2526   -0.3655 H   0  0  0  0  0  0  0  0  0  0  0  0
    0.4688   -1.0954    2.1846 H   0  0  0  0  0  0  0  0  0  0  0  0
    1.8179   -1.0152   -0.4875 H   0  0  0  0  0  0  0  0  0  0  0  0
    2.6059   -1.2979    1.0747 H   0  0  0  0  0  0  0  0  0  0  0  0
    2.0266    1.1341    1.7131 H   0  0  0  0  0  0  0  0  0  0  0  0
    1.3968    3.2106   -1.3429 H   0  0  0  0  0  0  0  0  0  0  0  0
    1.8820    3.4341    0.3604 H   0  0  0  0  0  0  0  0  0  0  0  0
    3.3286    1.8488   -1.8247 H   0  0  0  0  0  0  0  0  0  0  0  0
    4.0242    3.0399   -0.7147 H   0  0  0  0  0  0  0  0  0  0  0  0
    5.8769   -0.6759   -0.4304 H   0  0  0  0  0  0  0  0  0  0  0  0
    7.9531   -0.6199   -1.7783 H   0  0  0  0  0  0  0  0  0  0  0  0
    8.7723    3.3703   -0.3563 H   0  0  0  0  0  0  0  0  0  0  0  0
    6.7034    3.3203    0.9945 H   0  0  0  0  0  0  0  0  0  0  0  0
  1  2  1  0
  2  3  1  0
  3  4  2  0
  4  5  1  0
  5  6  2  0
  6  7  1  0
  7  8  2  0
  8  9  1  0
  9 10  1  0
 10 11  1  0
 11 12  2  0
 11 13  1  0
 13 14  2  0
 13 15  1  0
 15 16  1  0
 16 17  1  0
 17 18  1  0
 18 19  1  0
 19 20  1  0
 20 21  1  0
 21 22  1  0
 22 23  2  0
 22 24  2  0
 22 25  1  0
 25 26  2  0
 26 27  1  0
 27 28  2  0
 28 29  1  0
 28 30  1  0
 30 31  2  0
  8  3  1  0
 21 17  1  0
 31 25  1  0
  1 32  1  0
  1 33  1  0
  1 34  1  0
  4 35  1  0
  5 36  1  0
  6 37  1  0
  7 38  1  0
  9 39  1  0
  9 40  1  0
 10 41  1  0
 15 42  1  0
 16 43  1  0
 16 44  1  0
 17 45  1  0
 19 46  1  0
 19 47  1  0
 20 48  1  0
 20 49  1  0
 26 50  1  0
 27 51  1  0
 30 52  1  0
 31 53  1  0
M  END
$$$$
