
     RDKit          3D

 44 47  0  0  0  0  0  0  0  0999 V2000
   -4.7779    2.1361   -0.2582 C   0  0  0  0  0  0  0  0  0  0  0  0
   -3.7487    1.5984    0.7344 C   0  0  0  0  0  0  0  0  0  0  0  0
   -2.3830    1.4770    0.0790 C   0  0  0  0  0  0  0  0  0  0  0  0
   -1.3718    0.8142    0.9860 C   0  0  0  0  0  0  0  0  0  0  0  0
   -0.5872    1.5022    1.6480 O   0  0  0  0  0  0  0  0  0  0  0  0
   -1.2976   -0.5741    0.9677 N   0  0  0  0  0  0  0  0  0  0  0  0
   -0.2104   -1.2093    1.7218 C   0  0  0  0  0  0  0  0  0  0  0  0
    1.1263   -1.1582    0.9711 C   0  0  0  0  0  0  0  0  0  0  0  0
    1.5860   -2.1653    0.4387 O   0  0  0  0  0  0  0  0  0  0  0  0
    1.6949    0.1042    0.9698 N   0  0  0  0  0  0  0  0  0  0  0  0
    2.9111    0.5077    0.3862 C   0  0  0  0  0  0  0  0  0  0  0  0
    3.2279    1.8827    0.4713 C   0  0  0  0  0  0  0  0  0  0  0  0
    4.4126    2.3893   -0.0745 C   0  0  0  0  0  0  0  0  0  0  0  0
    5.2583    1.4999   -0.6957 C   0  0  0  0  0  0  0  0  0  0  0  0
    4.9588    0.1613   -0.7810 C   0  0  0  0  0  0  0  0  0  0  0  0
    3.7969   -0.3660   -0.2515 C   0  0  0  0  0  0  0  0  0  0  0  0
    5.9253   -0.5433   -1.4308 O   0  0  0  0  0  0  0  0  0  0  0  0
    6.8642    0.5055   -1.7429 C   0  0  0  0  0  0  0  0  0  0  0  0
    6.4465    1.8067   -1.2799 O   0  0  0  0  0  0  0  0  0  0  0  0
   -2.2561   -1.4170    0.3221 C   0  0  0  0  0  0  0  0  0  0  0  0
   -1.8033   -2.5321   -0.4031 C   0  0  0  0  0  0  0  0  0  0  0  0
   -2.6995   -3.3727   -1.0671 C   0  0  0  0  0  0  0  0  0  0  0  0
   -4.0653   -3.1248   -1.0021 C   0  0  0  0  0  0  0  0  0  0  0  0
   -4.5373   -2.0414   -0.2631 C   0  0  0  0  0  0  0  0  0  0  0  0
   -3.6471   -1.1810    0.3984 C   0  0  0  0  0  0  0  0  0  0  0  0
   -4.3862    0.0494    1.4703 S   0  0  0  0  0  0  0  0  0  0  0  0
   -5.7487    2.3026    0.2220 H   0  0  0  0  0  0  0  0  0  0  0  0
   -4.9245    1.4539   -1.1033 H   0  0  0  0  0  0  0  0  0  0  0  0
   -4.4488    3.0989   -0.6651 H   0  0  0  0  0  0  0  0  0  0  0  0
   -3.6752    2.3090    1.5664 H   0  0  0  0  0  0  0  0  0  0  0  0
   -2.4238    0.9568   -0.8856 H   0  0  0  0  0  0  0  0  0  0  0  0
   -2.0021    2.4789   -0.1603 H   0  0  0  0  0  0  0  0  0  0  0  0
   -0.4541   -2.2517    1.9578 H   0  0  0  0  0  0  0  0  0  0  0  0
   -0.0896   -0.6970    2.6846 H   0  0  0  0  0  0  0  0  0  0  0  0
    1.1327    0.8434    1.3976 H   0  0  0  0  0  0  0  0  0  0  0  0
    2.5477    2.5733    0.9660 H   0  0  0  0  0  0  0  0  0  0  0  0
    4.6567    3.4433   -0.0106 H   0  0  0  0  0  0  0  0  0  0  0  0
    3.6126   -1.4287   -0.3436 H   0  0  0  0  0  0  0  0  0  0  0  0
    6.9958    0.5463   -2.8304 H   0  0  0  0  0  0  0  0  0  0  0  0
    7.8282    0.2623   -1.2814 H   0  0  0  0  0  0  0  0  0  0  0  0
   -0.7420   -2.7503   -0.4980 H   0  0  0  0  0  0  0  0  0  0  0  0
   -2.3254   -4.2213   -1.6355 H   0  0  0  0  0  0  0  0  0  0  0  0
   -4.7648   -3.7837   -1.5106 H   0  0  0  0  0  0  0  0  0  0  0  0
   -5.6120   -1.8855   -0.1898 H   0  0  0  0  0  0  0  0  0  0  0  0
  1  2  1  0
  2  3  1  0
  3  4  1  0
  4  5  2  0
  4  6  1  0
  6  7  1  0
  7  8  1  0
  8  9  2  0
  8 10  1  0
 10 11  1  0
 11 12  2  0
 12 13  1  0
 13 14  2  0
 14 15  1  0
 15 16  2  0
 15 17  1  0
 17 18  1  0
 18 19  1  0
  6 20  1  0
 20 21  2  0
 21 22  1  0
 22 23  2  0
 23 24  1  0
 24 25  2  0
 25 26  1  0
 26  2  1  0
 16 11  1  0
 25 20  1  0
 19 14  1  0
  1 27  1  0
  1 28  1  0
  1 29  1  0
  2 30  1  0
  3 31  1  0
  3 32  1  0
  7 33  1  0
  7 34  1  0
 10 35  1  0
 12 36  1  0
 13 37  1  0
 16 38  1  0
 18 39  1  0
 18 40  1  0
 21 41  1  0
 22 42  1  0
 23 43  1  0
 24 44  1  0
M  END
$$$$
