
     RDKit          3D

 57 60  0  0  0  0  0  0  0  0999 V2000
    1.8346   -1.8584   -1.5377 C   0  0  0  0  0  0  0  0  0  0  0  0
    0.6016   -1.3128   -0.8219 C   0  0  0  0  0  0  0  0  0  0  0  0
    0.7945    0.1460   -0.3801 C   0  0  0  0  0  0  0  0  0  0  0  0
   -0.8131    0.8678    0.1619 S   0  0  0  0  0  0  0  0  0  0  0  0
   -1.6147    1.0230   -1.3939 C   0  0  0  0  0  0  0  0  0  0  0  0
   -0.8986    1.5687   -2.3314 N   0  0  0  0  0  0  0  0  0  0  0  0
   -1.5454    1.6979   -3.5577 C   0  0  0  0  0  0  0  0  0  0  0  0
   -0.9420    2.2358   -4.7152 C   0  0  0  0  0  0  0  0  0  0  0  0
   -1.8277    2.2326   -5.7761 C   0  0  0  0  0  0  0  0  0  0  0  0
   -3.3601    1.5822   -5.3379 S   0  0  0  0  0  0  0  0  0  0  0  0
   -2.8357    1.3071   -3.7489 C   0  0  0  0  0  0  0  0  0  0  0  0
   -3.6331    0.7285   -2.7087 C   0  0  0  0  0  0  0  0  0  0  0  0
   -4.8059    0.3882   -2.8551 O   0  0  0  0  0  0  0  0  0  0  0  0
   -2.9382    0.5874   -1.4988 N   0  0  0  0  0  0  0  0  0  0  0  0
   -3.6895   -0.0252   -0.3961 C   0  0  0  0  0  0  0  0  0  0  0  0
   -3.4171   -1.5113   -0.2478 C   0  0  0  0  0  0  0  0  0  0  0  0
   -3.8032   -2.4179   -1.2506 C   0  0  0  0  0  0  0  0  0  0  0  0
   -3.5513   -3.7871   -1.1116 C   0  0  0  0  0  0  0  0  0  0  0  0
   -2.9160   -4.2740    0.0363 C   0  0  0  0  0  0  0  0  0  0  0  0
   -2.6718   -5.7336    0.1399 C   0  0  0  0  0  0  0  0  0  0  0  0
   -3.0255   -6.5740   -0.6683 O   0  0  0  0  0  0  0  0  0  0  0  0
   -1.9857   -6.0711    1.2477 O   0  0  0  0  0  0  0  0  0  0  0  0
   -2.5398   -3.3803    1.0480 C   0  0  0  0  0  0  0  0  0  0  0  0
   -2.7948   -2.0113    0.9076 C   0  0  0  0  0  0  0  0  0  0  0  0
    1.7673    0.2796    0.8082 C   0  0  0  0  0  0  0  0  0  0  0  0
    2.1722   -0.6949    1.4333 O   0  0  0  0  0  0  0  0  0  0  0  0
    2.1165    1.6031    1.0537 N   0  0  0  0  0  0  0  0  0  0  0  0
    2.9776    2.0987    2.0542 C   0  0  0  0  0  0  0  0  0  0  0  0
    3.1335    3.4891    2.1273 C   0  0  0  0  0  0  0  0  0  0  0  0
    3.9682    4.0681    3.0890 C   0  0  0  0  0  0  0  0  0  0  0  0
    4.6643    3.2683    4.0037 C   0  0  0  0  0  0  0  0  0  0  0  0
    5.5437    3.9154    5.0379 C   0  0  0  0  0  0  0  0  0  0  0  0
    4.4989    1.8758    3.9318 C   0  0  0  0  0  0  0  0  0  0  0  0
    5.3121    0.8207    5.0337 Cl  0  0  0  0  0  0  0  0  0  0  0  0
    3.6660    1.2970    2.9643 C   0  0  0  0  0  0  0  0  0  0  0  0
    1.6654   -2.8939   -1.8558 H   0  0  0  0  0  0  0  0  0  0  0  0
    2.7175   -1.8491   -0.8887 H   0  0  0  0  0  0  0  0  0  0  0  0
    2.0611   -1.2651   -2.4305 H   0  0  0  0  0  0  0  0  0  0  0  0
    0.3768   -1.9575    0.0366 H   0  0  0  0  0  0  0  0  0  0  0  0
   -0.2407   -1.3977   -1.5197 H   0  0  0  0  0  0  0  0  0  0  0  0
    1.2068    0.7358   -1.2068 H   0  0  0  0  0  0  0  0  0  0  0  0
    0.0743    2.6031   -4.7786 H   0  0  0  0  0  0  0  0  0  0  0  0
   -1.6573    2.5796   -6.7861 H   0  0  0  0  0  0  0  0  0  0  0  0
   -3.4665    0.5040    0.5375 H   0  0  0  0  0  0  0  0  0  0  0  0
   -4.7694    0.1083   -0.5423 H   0  0  0  0  0  0  0  0  0  0  0  0
   -4.3154   -2.0729   -2.1481 H   0  0  0  0  0  0  0  0  0  0  0  0
   -3.8607   -4.4729   -1.9014 H   0  0  0  0  0  0  0  0  0  0  0  0
   -1.8877   -7.0446    1.1776 H   0  0  0  0  0  0  0  0  0  0  0  0
   -2.0526   -3.7378    1.9530 H   0  0  0  0  0  0  0  0  0  0  0  0
   -2.4969   -1.3410    1.7144 H   0  0  0  0  0  0  0  0  0  0  0  0
    1.6378    2.2983    0.4920 H   0  0  0  0  0  0  0  0  0  0  0  0
    2.6121    4.1454    1.4344 H   0  0  0  0  0  0  0  0  0  0  0  0
    4.0664    5.1527    3.1194 H   0  0  0  0  0  0  0  0  0  0  0  0
    5.1361    3.7455    6.0407 H   0  0  0  0  0  0  0  0  0  0  0  0
    5.6095    4.9985    4.8848 H   0  0  0  0  0  0  0  0  0  0  0  0
    6.5652    3.5181    4.9812 H   0  0  0  0  0  0  0  0  0  0  0  0
    3.5765    0.2141    2.9457 H   0  0  0  0  0  0  0  0  0  0  0  0
  1  2  1  0
  2  3  1  0
  3  4  1  0
  4  5  1  0
  5  6  2  0
  6  7  1  0
  7  8  1  0
  8  9  2  0
  9 10  1  0
 10 11  1  0
 11 12  1  0
 12 13  2  0
 12 14  1  0
 14 15  1  0
 15 16  1  0
 16 17  2  0
 17 18  1  0
 18 19  2  0
 19 20  1  0
 20 21  2  0
 20 22  1  0
 19 23  1  0
 23 24  2  0
  3 25  1  0
 25 26  2  0
 25 27  1  0
 27 28  1  0
 28 29  2  0
 29 30  1  0
 30 31  2  0
 31 32  1  0
 31 33  1  0
 33 34  1  0
 33 35  2  0
 14  5  1  0
 24 16  1  0
 35 28  1  0
 11  7  2  0
  1 36  1  0
  1 37  1  0
  1 38  1  0
  2 39  1  0
  2 40  1  0
  3 41  1  0
  8 42  1  0
  9 43  1  0
 15 44  1  0
 15 45  1  0
 17 46  1  0
 18 47  1  0
 22 48  1  0
 23 49  1  0
 24 50  1  0
 27 51  1  0
 29 52  1  0
 30 53  1  0
 32 54  1  0
 32 55  1  0
 32 56  1  0
 35 57  1  0
M  END
$$$$
