
     RDKit          3D

 50 53  0  0  0  0  0  0  0  0999 V2000
    8.2343   -0.0251    2.7528 C   0  0  0  0  0  0  0  0  0  0  0  0
    6.7998    0.2668    2.3514 C   0  0  0  0  0  0  0  0  0  0  0  0
    6.7325    0.2605    0.9261 O   0  0  0  0  0  0  0  0  0  0  0  0
    5.5077    0.4087    0.3399 C   0  0  0  0  0  0  0  0  0  0  0  0
    4.3311    0.7310    1.0222 C   0  0  0  0  0  0  0  0  0  0  0  0
    3.1211    0.8863    0.3273 C   0  0  0  0  0  0  0  0  0  0  0  0
    3.0699    0.7165   -1.0638 C   0  0  0  0  0  0  0  0  0  0  0  0
    1.8051    0.8848   -1.8342 C   0  0  0  0  0  0  0  0  0  0  0  0
    1.8855    1.3481   -2.9647 O   0  0  0  0  0  0  0  0  0  0  0  0
    0.6607    0.4629   -1.1837 N   0  0  0  0  0  0  0  0  0  0  0  0
   -0.6649    0.5083   -1.6684 C   0  0  0  0  0  0  0  0  0  0  0  0
   -1.0262    1.0406   -2.9052 C   0  0  0  0  0  0  0  0  0  0  0  0
   -2.3605    1.0267   -3.3176 C   0  0  0  0  0  0  0  0  0  0  0  0
   -3.3471    0.4880   -2.4921 C   0  0  0  0  0  0  0  0  0  0  0  0
   -3.0138   -0.0356   -1.2353 C   0  0  0  0  0  0  0  0  0  0  0  0
   -4.0558   -0.5978   -0.3442 C   0  0  0  0  0  0  0  0  0  0  0  0
   -5.1458    0.1415   -0.0740 C   0  0  0  0  0  0  0  0  0  0  0  0
   -6.1962   -0.3623    0.7950 C   0  0  0  0  0  0  0  0  0  0  0  0
   -7.3421    0.3816    1.0855 C   0  0  0  0  0  0  0  0  0  0  0  0
   -8.3270   -0.1493    1.9248 C   0  0  0  0  0  0  0  0  0  0  0  0
   -8.1710   -1.4232    2.4759 C   0  0  0  0  0  0  0  0  0  0  0  0
   -7.0296   -2.1696    2.1900 C   0  0  0  0  0  0  0  0  0  0  0  0
   -6.0577   -1.6272    1.3527 C   0  0  0  0  0  0  0  0  0  0  0  0
   -4.9186   -2.4061    1.0910 O   0  0  0  0  0  0  0  0  0  0  0  0
   -3.8879   -1.9488    0.2753 C   0  0  0  0  0  0  0  0  0  0  0  0
   -2.8863   -2.6344    0.0922 O   0  0  0  0  0  0  0  0  0  0  0  0
   -1.6659   -0.0205   -0.8392 C   0  0  0  0  0  0  0  0  0  0  0  0
    4.2394    0.4164   -1.7649 C   0  0  0  0  0  0  0  0  0  0  0  0
    5.4330    0.2597   -1.0512 C   0  0  0  0  0  0  0  0  0  0  0  0
    6.6235   -0.0801   -1.8009 N   0  0  0  0  0  4  0  0  0  0  0  0
    7.0615   -1.2318   -1.6752 O   0  0  0  0  0  0  0  0  0  0  0  0
    7.0823    0.7935   -2.5494 O   0  0  0  0  0  1  0  0  0  0  0  0
    8.5550   -0.9951    2.3588 H   0  0  0  0  0  0  0  0  0  0  0  0
    8.3411   -0.0328    3.8411 H   0  0  0  0  0  0  0  0  0  0  0  0
    8.9118    0.7276    2.3362 H   0  0  0  0  0  0  0  0  0  0  0  0
    6.5128    1.2512    2.7379 H   0  0  0  0  0  0  0  0  0  0  0  0
    6.1458   -0.5078    2.7684 H   0  0  0  0  0  0  0  0  0  0  0  0
    4.3197    0.8873    2.0971 H   0  0  0  0  0  0  0  0  0  0  0  0
    2.2346    1.1760    0.8876 H   0  0  0  0  0  0  0  0  0  0  0  0
    0.7765   -0.0066   -0.2952 H   0  0  0  0  0  0  0  0  0  0  0  0
   -0.2916    1.4662   -3.5817 H   0  0  0  0  0  0  0  0  0  0  0  0
   -2.6258    1.4319   -4.2914 H   0  0  0  0  0  0  0  0  0  0  0  0
   -4.3753    0.4747   -2.8473 H   0  0  0  0  0  0  0  0  0  0  0  0
   -5.2780    1.1366   -0.4884 H   0  0  0  0  0  0  0  0  0  0  0  0
   -7.4832    1.3747    0.6658 H   0  0  0  0  0  0  0  0  0  0  0  0
   -9.2188    0.4317    2.1490 H   0  0  0  0  0  0  0  0  0  0  0  0
   -8.9392   -1.8320    3.1277 H   0  0  0  0  0  0  0  0  0  0  0  0
   -6.8992   -3.1608    2.6142 H   0  0  0  0  0  0  0  0  0  0  0  0
   -1.3963   -0.4361    0.1297 H   0  0  0  0  0  0  0  0  0  0  0  0
    4.2189    0.3031   -2.8476 H   0  0  0  0  0  0  0  0  0  0  0  0
  1  2  1  0
  2  3  1  0
  3  4  1  0
  4  5  2  0
  5  6  1  0
  6  7  2  0
  7  8  1  0
  8  9  2  0
  8 10  1  0
 10 11  1  0
 11 12  2  0
 12 13  1  0
 13 14  2  0
 14 15  1  0
 15 16  1  0
 16 17  2  0
 17 18  1  0
 18 19  2  0
 19 20  1  0
 20 21  2  0
 21 22  1  0
 22 23  2  0
 23 24  1  0
 24 25  1  0
 25 26  2  0
 15 27  2  0
  7 28  1  0
 28 29  2  0
 29 30  1  0
 30 31  2  0
 30 32  1  0
 29  4  1  0
 27 11  1  0
 25 16  1  0
 23 18  1  0
  1 33  1  0
  1 34  1  0
  1 35  1  0
  2 36  1  0
  2 37  1  0
  5 38  1  0
  6 39  1  0
 10 40  1  0
 12 41  1  0
 13 42  1  0
 14 43  1  0
 17 44  1  0
 19 45  1  0
 20 46  1  0
 21 47  1  0
 22 48  1  0
 27 49  1  0
 28 50  1  0
M  CHG  2  30   1  32  -1
M  END
$$$$
