
     RDKit          3D

 58 61  0  0  0  0  0  0  0  0999 V2000
   -2.6325    4.9792    2.2456 C   0  0  0  0  0  0  0  0  0  0  0  0
   -2.4557    3.5720    2.1460 O   0  0  0  0  0  0  0  0  0  0  0  0
   -3.1264    2.9342    1.1382 C   0  0  0  0  0  0  0  0  0  0  0  0
   -3.9938    3.5322    0.2239 C   0  0  0  0  0  0  0  0  0  0  0  0
   -4.6168    2.7602   -0.7600 C   0  0  0  0  0  0  0  0  0  0  0  0
   -4.3755    1.3880   -0.8341 C   0  0  0  0  0  0  0  0  0  0  0  0
   -3.5091    0.7729    0.0776 C   0  0  0  0  0  0  0  0  0  0  0  0
   -3.2344   -0.6671   -0.0009 C   0  0  0  0  0  0  0  0  0  0  0  0
   -4.5196   -1.7576    0.2956 S   0  0  0  0  0  0  0  0  0  0  0  0
   -3.5206   -3.1370    0.0817 C   0  0  0  0  0  0  0  0  0  0  0  0
   -3.9113   -4.4864    0.1798 C   0  0  0  0  0  0  0  0  0  0  0  0
   -2.9608   -5.4919   -0.0309 C   0  0  0  0  0  0  0  0  0  0  0  0
   -1.6459   -5.1690   -0.3365 C   0  0  0  0  0  0  0  0  0  0  0  0
   -0.6309   -6.0576   -0.5650 O   0  0  0  0  0  0  0  0  0  0  0  0
   -0.9572   -7.4401   -0.5000 C   0  0  0  0  0  0  0  0  0  0  0  0
   -1.2712   -3.8233   -0.4308 C   0  0  0  0  0  0  0  0  0  0  0  0
   -2.2068   -2.7767   -0.2173 C   0  0  0  0  0  0  0  0  0  0  0  0
   -2.0490   -1.3387   -0.2604 C   0  0  0  0  0  0  0  0  0  0  0  0
   -0.8061   -0.6267   -0.5409 C   0  0  0  0  0  0  0  0  0  0  0  0
   -0.6529    0.0967   -1.7265 C   0  0  0  0  0  0  0  0  0  0  0  0
    0.5424    0.7732   -1.9817 C   0  0  0  0  0  0  0  0  0  0  0  0
    1.5948    0.7344   -1.0633 C   0  0  0  0  0  0  0  0  0  0  0  0
    2.7042    1.4407   -1.4380 O   0  0  0  0  0  0  0  0  0  0  0  0
    3.8024    1.4643   -0.5206 C   0  0  0  0  0  0  0  0  0  0  0  0
    4.9172    2.3301   -1.1349 C   0  0  0  0  0  0  0  0  0  0  0  0
    6.1592    2.4998   -0.3622 N   0  0  0  0  0  0  0  0  0  0  0  0
    6.8713    1.2415   -0.1607 C   0  0  0  0  0  0  0  0  0  0  0  0
    5.9419    3.1907    0.9053 C   0  0  0  0  0  0  0  0  0  0  0  0
    1.4442    0.0066    0.1177 C   0  0  0  0  0  0  0  0  0  0  0  0
    0.2485   -0.6728    0.3773 C   0  0  0  0  0  0  0  0  0  0  0  0
   -2.8901    1.5582    1.0599 C   0  0  0  0  0  0  0  0  0  0  0  0
   -2.0221    5.3344    3.0814 H   0  0  0  0  0  0  0  0  0  0  0  0
   -3.6754    5.2310    2.4647 H   0  0  0  0  0  0  0  0  0  0  0  0
   -2.2842    5.4867    1.3399 H   0  0  0  0  0  0  0  0  0  0  0  0
   -4.2073    4.5954    0.2485 H   0  0  0  0  0  0  0  0  0  0  0  0
   -5.2907    3.2300   -1.4720 H   0  0  0  0  0  0  0  0  0  0  0  0
   -4.8626    0.8032   -1.6111 H   0  0  0  0  0  0  0  0  0  0  0  0
   -4.9396   -4.7464    0.4160 H   0  0  0  0  0  0  0  0  0  0  0  0
   -3.2919   -6.5220    0.0523 H   0  0  0  0  0  0  0  0  0  0  0  0
   -1.2972   -7.7184    0.5030 H   0  0  0  0  0  0  0  0  0  0  0  0
   -0.0468   -8.0088   -0.7124 H   0  0  0  0  0  0  0  0  0  0  0  0
   -1.7007   -7.7067   -1.2585 H   0  0  0  0  0  0  0  0  0  0  0  0
   -0.2400   -3.5787   -0.6767 H   0  0  0  0  0  0  0  0  0  0  0  0
   -1.4574    0.1413   -2.4563 H   0  0  0  0  0  0  0  0  0  0  0  0
    0.6531    1.3373   -2.9045 H   0  0  0  0  0  0  0  0  0  0  0  0
    4.1682    0.4435   -0.3640 H   0  0  0  0  0  0  0  0  0  0  0  0
    3.4753    1.8998    0.4302 H   0  0  0  0  0  0  0  0  0  0  0  0
    5.1699    1.9231   -2.1236 H   0  0  0  0  0  0  0  0  0  0  0  0
    4.5036    3.3227   -1.3597 H   0  0  0  0  0  0  0  0  0  0  0  0
    7.0518    0.7400   -1.1178 H   0  0  0  0  0  0  0  0  0  0  0  0
    7.8552    1.4287    0.2842 H   0  0  0  0  0  0  0  0  0  0  0  0
    6.3302    0.5517    0.4959 H   0  0  0  0  0  0  0  0  0  0  0  0
    6.9016    3.4288    1.3776 H   0  0  0  0  0  0  0  0  0  0  0  0
    5.3556    2.5962    1.6141 H   0  0  0  0  0  0  0  0  0  0  0  0
    5.4280    4.1448    0.7442 H   0  0  0  0  0  0  0  0  0  0  0  0
    2.2334   -0.0541    0.8592 H   0  0  0  0  0  0  0  0  0  0  0  0
    0.1443   -1.2325    1.3043 H   0  0  0  0  0  0  0  0  0  0  0  0
   -2.2133    1.0990    1.7771 H   0  0  0  0  0  0  0  0  0  0  0  0
  1  2  1  0
  2  3  1  0
  3  4  2  0
  4  5  1  0
  5  6  2  0
  6  7  1  0
  7  8  1  0
  8  9  1  0
  9 10  1  0
 10 11  2  0
 11 12  1  0
 12 13  2  0
 13 14  1  0
 14 15  1  0
 13 16  1  0
 16 17  2  0
 17 18  1  0
 18 19  1  0
 19 20  2  0
 20 21  1  0
 21 22  2  0
 22 23  1  0
 23 24  1  0
 24 25  1  0
 25 26  1  0
 26 27  1  0
 26 28  1  0
 22 29  1  0
 29 30  2  0
  7 31  2  0
 31  3  1  0
 18  8  2  0
 30 19  1  0
 17 10  1  0
  1 32  1  0
  1 33  1  0
  1 34  1  0
  4 35  1  0
  5 36  1  0
  6 37  1  0
 11 38  1  0
 12 39  1  0
 15 40  1  0
 15 41  1  0
 15 42  1  0
 16 43  1  0
 20 44  1  0
 21 45  1  0
 24 46  1  0
 24 47  1  0
 25 48  1  0
 25 49  1  0
 27 50  1  0
 27 51  1  0
 27 52  1  0
 28 53  1  0
 28 54  1  0
 28 55  1  0
 29 56  1  0
 30 57  1  0
 31 58  1  0
M  END
$$$$
