
     RDKit          3D

 36 37  0  0  0  0  0  0  0  0999 V2000
   -1.5109    0.2881   -1.6320 O   0  0  0  0  0  0  0  0  0  0  0  0
   -0.7360   -0.6197   -1.3315 C   0  0  0  0  0  0  0  0  0  0  0  0
    0.4472   -1.0299   -2.2116 C   0  0  0  0  0  0  0  0  0  0  0  0
    1.6702   -0.4053   -1.8190 O   0  0  0  0  0  0  0  0  0  0  0  0
    2.2412   -0.9258   -0.7060 C   0  0  0  0  0  0  0  0  0  0  0  0
    1.8241   -1.8695   -0.0559 O   0  0  0  0  0  0  0  0  0  0  0  0
    3.4397   -0.1353   -0.3762 C   0  0  0  0  0  0  0  0  0  0  0  0
    4.4533   -0.0256   -1.3404 C   0  0  0  0  0  0  0  0  0  0  0  0
    5.6140    0.6936   -1.0542 C   0  0  0  0  0  0  0  0  0  0  0  0
    5.7656    1.3028    0.1905 C   0  0  0  0  0  0  0  0  0  0  0  0
    4.7566    1.1984    1.1508 C   0  0  0  0  0  0  0  0  0  0  0  0
    3.5897    0.4793    0.8716 C   0  0  0  0  0  0  0  0  0  0  0  0
    2.2447    0.4355    2.2111 Br  0  0  0  0  0  0  0  0  0  0  0  0
   -0.8759   -1.3514   -0.1690 N   0  0  0  0  0  0  0  0  0  0  0  0
   -1.8103   -0.9193    0.8545 C   0  0  0  0  0  0  0  0  0  0  0  0
   -3.2801   -1.0552    0.4290 C   0  0  0  0  0  0  0  0  0  0  0  0
   -4.0861    0.0472    0.9123 N   0  0  0  0  0  0  0  0  0  0  0  0
   -4.3570    1.1994    0.2125 C   0  0  0  0  0  0  0  0  0  0  0  0
   -3.8681    1.4221   -1.0402 O   0  0  0  0  0  0  0  0  0  0  0  0
   -5.1341    2.0711    0.8618 C   0  0  0  0  0  0  0  0  0  0  0  0
   -5.5563    1.4957    2.4437 S   0  0  0  0  0  0  0  0  0  0  0  0
   -4.6256    0.0098    2.1914 C   0  0  0  0  0  0  0  0  0  0  0  0
   -4.4979   -0.8659    3.0317 O   0  0  0  0  0  0  0  0  0  0  0  0
    0.2277   -0.7165   -3.2379 H   0  0  0  0  0  0  0  0  0  0  0  0
    0.5494   -2.1218   -2.2321 H   0  0  0  0  0  0  0  0  0  0  0  0
    4.3449   -0.5025   -2.3120 H   0  0  0  0  0  0  0  0  0  0  0  0
    6.4009    0.7785   -1.8004 H   0  0  0  0  0  0  0  0  0  0  0  0
    6.6703    1.8644    0.4139 H   0  0  0  0  0  0  0  0  0  0  0  0
    4.8890    1.6878    2.1135 H   0  0  0  0  0  0  0  0  0  0  0  0
   -0.0417   -1.8539    0.1448 H   0  0  0  0  0  0  0  0  0  0  0  0
   -1.5605    0.1198    1.1007 H   0  0  0  0  0  0  0  0  0  0  0  0
   -1.6211   -1.5246    1.7476 H   0  0  0  0  0  0  0  0  0  0  0  0
   -3.4082   -1.1441   -0.6552 H   0  0  0  0  0  0  0  0  0  0  0  0
   -3.6776   -1.9879    0.8492 H   0  0  0  0  0  0  0  0  0  0  0  0
   -3.0249    0.9345   -1.1614 H   0  0  0  0  0  0  0  0  0  0  0  0
   -5.4559    3.0260    0.4718 H   0  0  0  0  0  0  0  0  0  0  0  0
  1  2  2  0
  2  3  1  0
  3  4  1  0
  4  5  1  0
  5  6  2  0
  5  7  1  0
  7  8  2  0
  8  9  1  0
  9 10  2  0
 10 11  1  0
 11 12  2  0
 12 13  1  0
  2 14  1  0
 14 15  1  0
 15 16  1  0
 16 17  1  0
 17 18  1  0
 18 19  1  0
 18 20  2  0
 20 21  1  0
 21 22  1  0
 22 23  2  0
 12  7  1  0
 22 17  1  0
  3 24  1  0
  3 25  1  0
  8 26  1  0
  9 27  1  0
 10 28  1  0
 11 29  1  0
 14 30  1  0
 15 31  1  0
 15 32  1  0
 16 33  1  0
 16 34  1  0
 19 35  1  0
 20 36  1  0
M  END
$$$$
