
     RDKit          3D

 45 47  0  0  0  0  0  0  0  0999 V2000
   -7.6643   -0.5549   -1.3181 C   0  0  0  0  0  0  0  0  0  0  0  0
   -6.3965   -0.1804   -0.5714 C   0  0  0  0  0  0  0  0  0  0  0  0
   -5.7604   -1.3934   -0.1531 O   0  0  0  0  0  0  0  0  0  0  0  0
   -4.4327   -1.1886    0.1297 C   0  0  0  0  0  0  0  0  0  0  0  0
   -3.5190   -1.7934   -0.7355 C   0  0  0  0  0  0  0  0  0  0  0  0
   -2.1509   -1.6560   -0.5100 C   0  0  0  0  0  0  0  0  0  0  0  0
   -1.6961   -0.9237    0.5903 C   0  0  0  0  0  0  0  0  0  0  0  0
   -0.2599   -0.7675    0.8370 C   0  0  0  0  0  0  0  0  0  0  0  0
    0.5528    0.0601    0.1666 C   0  0  0  0  0  0  0  0  0  0  0  0
    0.1414    1.1396   -1.1161 S   0  0  0  0  0  0  0  0  0  0  0  0
    1.7940    1.7284   -1.2888 C   0  0  0  0  0  0  0  0  0  0  0  0
    2.2375    2.9173   -2.3715 S   0  0  0  0  0  0  0  0  0  0  0  0
    2.5885    1.0753   -0.3692 N   0  0  0  0  0  0  0  0  0  0  0  0
    3.9826    1.2660   -0.3020 N   0  0  0  0  0  0  0  0  0  0  0  0
    4.7492    0.4009   -1.0665 C   0  0  0  0  0  0  0  0  0  0  0  0
    4.2792   -0.3638   -1.9027 O   0  0  0  0  0  0  0  0  0  0  0  0
    6.2094    0.4066   -0.7931 C   0  0  0  0  0  0  0  0  0  0  0  0
    6.8631    1.5327   -0.2899 C   0  0  0  0  0  0  0  0  0  0  0  0
    8.2261    1.4417   -0.0704 C   0  0  0  0  0  0  0  0  0  0  0  0
    8.9521    0.3306   -0.3150 N   0  0  0  0  0  0  0  0  0  0  0  0
    8.2965   -0.7370   -0.8187 C   0  0  0  0  0  0  0  0  0  0  0  0
    6.9392   -0.7477   -1.0765 C   0  0  0  0  0  0  0  0  0  0  0  0
    2.0011    0.1650    0.4910 C   0  0  0  0  0  0  0  0  0  0  0  0
    2.5572   -0.4286    1.4060 O   0  0  0  0  0  0  0  0  0  0  0  0
   -2.6185   -0.3441    1.4749 C   0  0  0  0  0  0  0  0  0  0  0  0
   -3.9950   -0.4802    1.2599 C   0  0  0  0  0  0  0  0  0  0  0  0
   -4.9659    0.0273    2.0823 O   0  0  0  0  0  0  0  0  0  0  0  0
   -4.5508    0.5949    3.3168 C   0  0  0  0  0  0  0  0  0  0  0  0
   -8.3361   -1.1288   -0.6713 H   0  0  0  0  0  0  0  0  0  0  0  0
   -8.1895    0.3378   -1.6701 H   0  0  0  0  0  0  0  0  0  0  0  0
   -7.4296   -1.1912   -2.1783 H   0  0  0  0  0  0  0  0  0  0  0  0
   -5.7457    0.4016   -1.2362 H   0  0  0  0  0  0  0  0  0  0  0  0
   -6.6629    0.4279    0.2987 H   0  0  0  0  0  0  0  0  0  0  0  0
   -3.8774   -2.3671   -1.5860 H   0  0  0  0  0  0  0  0  0  0  0  0
   -1.4493   -2.1251   -1.1959 H   0  0  0  0  0  0  0  0  0  0  0  0
    0.1337   -1.3865    1.6422 H   0  0  0  0  0  0  0  0  0  0  0  0
    4.3265    1.5328    0.6154 H   0  0  0  0  0  0  0  0  0  0  0  0
    6.3516    2.4678   -0.0962 H   0  0  0  0  0  0  0  0  0  0  0  0
    8.7920    2.2865    0.3148 H   0  0  0  0  0  0  0  0  0  0  0  0
    8.9122   -1.6104   -1.0139 H   0  0  0  0  0  0  0  0  0  0  0  0
    6.4628   -1.6334   -1.4848 H   0  0  0  0  0  0  0  0  0  0  0  0
   -2.2378    0.2115    2.3260 H   0  0  0  0  0  0  0  0  0  0  0  0
   -5.4494    0.8758    3.8741 H   0  0  0  0  0  0  0  0  0  0  0  0
   -3.9642    1.5047    3.1533 H   0  0  0  0  0  0  0  0  0  0  0  0
   -3.9967   -0.1310    3.9216 H   0  0  0  0  0  0  0  0  0  0  0  0
  1  2  1  0
  2  3  1  0
  3  4  1  0
  4  5  2  0
  5  6  1  0
  6  7  2  0
  7  8  1  0
  8  9  2  3
  9 10  1  0
 10 11  1  0
 11 12  2  0
 11 13  1  0
 13 14  1  0
 14 15  1  0
 15 16  2  0
 15 17  1  0
 17 18  2  0
 18 19  1  0
 19 20  2  0
 20 21  1  0
 21 22  2  0
 13 23  1  0
 23 24  2  0
  7 25  1  0
 25 26  2  0
 26 27  1  0
 27 28  1  0
 26  4  1  0
 23  9  1  0
 22 17  1  0
  1 29  1  0
  1 30  1  0
  1 31  1  0
  2 32  1  0
  2 33  1  0
  5 34  1  0
  6 35  1  0
  8 36  1  0
 14 37  1  0
 18 38  1  0
 19 39  1  0
 21 40  1  0
 22 41  1  0
 25 42  1  0
 28 43  1  0
 28 44  1  0
 28 45  1  0
M  END
$$$$
