
     RDKit          3D

 51 55  0  0  0  0  0  0  0  0999 V2000
   -1.0439    1.1742    1.5459 C   0  0  0  0  0  0  0  0  0  0  0  0
   -1.2557   -0.1821    0.9180 C   0  0  0  0  0  0  0  0  0  0  0  0
   -0.1765   -0.6328    0.1609 N   0  0  0  0  0  0  0  0  0  0  0  0
   -0.1849   -1.8387   -0.4546 C   0  0  0  0  0  0  0  0  0  0  0  0
    0.6970   -2.5219   -1.2668 C   0  0  0  0  0  0  0  0  0  0  0  0
    1.9608   -2.0876   -1.8203 C   0  0  0  0  0  0  0  0  0  0  0  0
    2.8212   -2.8814   -2.1769 O   0  0  0  0  0  0  0  0  0  0  0  0
    2.0773   -0.7236   -1.9583 N   0  0  0  0  0  0  0  0  0  0  0  0
    3.2806   -0.0865   -2.4282 C   0  0  0  0  0  0  0  0  0  0  0  0
    3.9208    0.6825   -1.3014 C   0  0  0  0  0  0  0  0  0  0  0  0
    3.5362    2.0148   -1.0234 C   0  0  0  0  0  0  0  0  0  0  0  0
    4.1082    2.7144    0.0418 C   0  0  0  0  0  0  0  0  0  0  0  0
    5.0531    2.0633    0.8073 C   0  0  0  0  0  0  0  0  0  0  0  0
    5.4281    0.7673    0.5580 C   0  0  0  0  0  0  0  0  0  0  0  0
    4.8781    0.0512   -0.4852 C   0  0  0  0  0  0  0  0  0  0  0  0
    6.3736    0.3176    1.4301 O   0  0  0  0  0  0  0  0  0  0  0  0
    6.5812    1.4971    2.2342 C   0  0  0  0  0  0  0  0  0  0  0  0
    5.7163    2.5983    1.8701 O   0  0  0  0  0  0  0  0  0  0  0  0
    0.0802   -3.7827   -1.4429 C   0  0  0  0  0  0  0  0  0  0  0  0
   -1.1207   -3.8689   -0.8630 N   0  0  0  0  0  0  0  0  0  0  0  0
   -1.2863   -2.6518   -0.2779 N   0  0  0  0  0  0  0  0  0  0  0  0
   -2.4318   -2.2976    0.4532 C   0  0  0  0  0  0  0  0  0  0  0  0
   -3.3633   -3.0815    0.5930 O   0  0  0  0  0  0  0  0  0  0  0  0
   -2.3909   -0.9140    1.0555 C   0  0  0  0  0  0  0  0  0  0  0  0
   -3.6398   -0.5267    1.8130 C   0  0  0  0  0  0  0  0  0  0  0  0
   -4.7160    0.0503    0.9258 C   0  0  0  0  0  0  0  0  0  0  0  0
   -5.6531   -0.7836    0.2968 C   0  0  0  0  0  0  0  0  0  0  0  0
   -6.6421   -0.2472   -0.5342 C   0  0  0  0  0  0  0  0  0  0  0  0
   -6.7072    1.1297   -0.7518 C   0  0  0  0  0  0  0  0  0  0  0  0
   -5.7834    1.9689   -0.1333 C   0  0  0  0  0  0  0  0  0  0  0  0
   -4.7962    1.4246    0.6911 C   0  0  0  0  0  0  0  0  0  0  0  0
   -3.9151    2.2593    1.2588 F   0  0  0  0  0  0  0  0  0  0  0  0
   -1.8342    1.4742    2.2369 H   0  0  0  0  0  0  0  0  0  0  0  0
   -0.9773    1.9407    0.7598 H   0  0  0  0  0  0  0  0  0  0  0  0
   -0.1050    1.1827    2.1143 H   0  0  0  0  0  0  0  0  0  0  0  0
    0.6917   -0.1050    0.2826 H   0  0  0  0  0  0  0  0  0  0  0  0
    1.2855   -0.1454   -1.7277 H   0  0  0  0  0  0  0  0  0  0  0  0
    2.9998    0.5894   -3.2461 H   0  0  0  0  0  0  0  0  0  0  0  0
    3.9800   -0.8160   -2.8424 H   0  0  0  0  0  0  0  0  0  0  0  0
    2.7917    2.5129   -1.6437 H   0  0  0  0  0  0  0  0  0  0  0  0
    3.8315    3.7454    0.2517 H   0  0  0  0  0  0  0  0  0  0  0  0
    5.1821   -0.9799   -0.6673 H   0  0  0  0  0  0  0  0  0  0  0  0
    7.6204    1.8179    2.1189 H   0  0  0  0  0  0  0  0  0  0  0  0
    6.4008    1.2410    3.2877 H   0  0  0  0  0  0  0  0  0  0  0  0
    0.4576   -4.6352   -1.9969 H   0  0  0  0  0  0  0  0  0  0  0  0
   -4.0422   -1.4002    2.3462 H   0  0  0  0  0  0  0  0  0  0  0  0
   -3.4227    0.1768    2.6246 H   0  0  0  0  0  0  0  0  0  0  0  0
   -5.6152   -1.8673    0.4412 H   0  0  0  0  0  0  0  0  0  0  0  0
   -7.3558   -0.9142   -1.0131 H   0  0  0  0  0  0  0  0  0  0  0  0
   -7.4707    1.5355   -1.4023 H   0  0  0  0  0  0  0  0  0  0  0  0
   -5.8234    3.0417   -0.2772 H   0  0  0  0  0  0  0  0  0  0  0  0
  1  2  1  0
  2  3  1  0
  3  4  1  0
  4  5  2  0
  5  6  1  0
  6  7  2  0
  6  8  1  0
  8  9  1  0
  9 10  1  0
 10 11  2  0
 11 12  1  0
 12 13  2  0
 13 14  1  0
 14 15  2  0
 14 16  1  0
 16 17  1  0
 17 18  1  0
  5 19  1  0
 19 20  2  0
 20 21  1  0
 21 22  1  0
 22 23  2  0
 22 24  1  0
 24 25  1  0
 25 26  1  0
 26 27  2  0
 27 28  1  0
 28 29  2  0
 29 30  1  0
 30 31  2  0
 31 32  1  0
 24  2  2  0
 31 26  1  0
 21  4  1  0
 15 10  1  0
 18 13  1  0
  1 33  1  0
  1 34  1  0
  1 35  1  0
  3 36  1  0
  8 37  1  0
  9 38  1  0
  9 39  1  0
 11 40  1  0
 12 41  1  0
 15 42  1  0
 17 43  1  0
 17 44  1  0
 19 45  1  0
 25 46  1  0
 25 47  1  0
 27 48  1  0
 28 49  1  0
 29 50  1  0
 30 51  1  0
M  END
$$$$
