
     RDKit          3D

 37 39  0  0  0  0  0  0  0  0999 V2000
    4.2520   -0.5471    0.8467 N   0  0  0  0  0  0  0  0  0  0  0  0
    3.5499    0.5254    0.1547 C   0  0  0  0  0  0  0  0  0  0  0  0
    2.1728    0.1165   -0.3686 C   0  0  0  0  0  0  0  0  0  0  0  0
    1.1556   -0.1215    0.7572 C   0  0  0  0  0  0  0  0  0  0  0  0
   -0.1941   -0.4203    0.2211 N   0  0  0  0  0  0  0  0  0  0  0  0
   -0.5272   -1.7951    0.0343 C   0  0  0  0  0  0  0  0  0  0  0  0
    0.4560   -2.8109   -0.0065 C   0  0  0  0  0  0  0  0  0  0  0  0
    0.1408   -4.1615   -0.2022 C   0  0  0  0  0  0  0  0  0  0  0  0
   -1.1778   -4.5470   -0.3688 C   0  0  0  0  0  0  0  0  0  0  0  0
   -2.1730   -3.5778   -0.3413 C   0  0  0  0  0  0  0  0  0  0  0  0
   -1.8601   -2.2171   -0.1470 C   0  0  0  0  0  0  0  0  0  0  0  0
   -3.2534   -1.1160   -0.1102 S   0  0  0  0  0  0  0  0  0  0  0  0
   -2.4751    0.4800   -0.1214 C   0  0  0  0  0  0  0  0  0  0  0  0
   -3.3471    1.5725   -0.2958 C   0  0  0  0  0  0  0  0  0  0  0  0
   -2.8721    2.8796   -0.3040 C   0  0  0  0  0  0  0  0  0  0  0  0
   -1.5113    3.1171   -0.1318 C   0  0  0  0  0  0  0  0  0  0  0  0
   -0.9604    4.5213   -0.1673 C   0  0  0  0  0  0  0  0  0  0  0  0
   -0.5276    4.8753   -1.4082 F   0  0  0  0  0  0  0  0  0  0  0  0
   -1.8699    5.4667    0.1980 F   0  0  0  0  0  0  0  0  0  0  0  0
    0.1067    4.6921    0.6629 F   0  0  0  0  0  0  0  0  0  0  0  0
   -0.6446    2.0176    0.0357 C   0  0  0  0  0  0  0  0  0  0  0  0
   -1.0913    0.6753    0.0574 C   0  0  0  0  0  0  0  0  0  0  0  0
    3.7496   -0.8462    1.6795 H   0  0  0  0  0  0  0  0  0  0  0  0
    4.3376   -1.3624    0.2409 H   0  0  0  0  0  0  0  0  0  0  0  0
    3.4611    1.3894    0.8224 H   0  0  0  0  0  0  0  0  0  0  0  0
    4.1688    0.8442   -0.6914 H   0  0  0  0  0  0  0  0  0  0  0  0
    2.2686   -0.7712   -1.0042 H   0  0  0  0  0  0  0  0  0  0  0  0
    1.8137    0.9093   -1.0349 H   0  0  0  0  0  0  0  0  0  0  0  0
    1.1268    0.7437    1.4323 H   0  0  0  0  0  0  0  0  0  0  0  0
    1.4939   -0.9232    1.4253 H   0  0  0  0  0  0  0  0  0  0  0  0
    1.5117   -2.5857    0.0964 H   0  0  0  0  0  0  0  0  0  0  0  0
    0.9331   -4.9055   -0.2281 H   0  0  0  0  0  0  0  0  0  0  0  0
   -1.4334   -5.5917   -0.5213 H   0  0  0  0  0  0  0  0  0  0  0  0
   -3.2079   -3.8889   -0.4721 H   0  0  0  0  0  0  0  0  0  0  0  0
   -4.4150    1.4044   -0.4280 H   0  0  0  0  0  0  0  0  0  0  0  0
   -3.5687    3.7041   -0.4456 H   0  0  0  0  0  0  0  0  0  0  0  0
    0.4115    2.2545    0.1341 H   0  0  0  0  0  0  0  0  0  0  0  0
  1  2  1  0
  2  3  1  0
  3  4  1  0
  4  5  1  0
  5  6  1  0
  6  7  2  0
  7  8  1  0
  8  9  2  0
  9 10  1  0
 10 11  2  0
 11 12  1  0
 12 13  1  0
 13 14  2  0
 14 15  1  0
 15 16  2  0
 16 17  1  0
 17 18  1  0
 17 19  1  0
 17 20  1  0
 16 21  1  0
 21 22  2  0
 22  5  1  0
 11  6  1  0
 22 13  1  0
  1 23  1  0
  1 24  1  0
  2 25  1  0
  2 26  1  0
  3 27  1  0
  3 28  1  0
  4 29  1  0
  4 30  1  0
  7 31  1  0
  8 32  1  0
  9 33  1  0
 10 34  1  0
 14 35  1  0
 15 36  1  0
 21 37  1  0
M  END
$$$$
