
     RDKit          3D

 34 36  0  0  0  0  0  0  0  0999 V2000
    3.3294   -0.9559    2.0688 N   0  0  0  0  0  0  0  0  0  0  0  0
    2.4409   -0.2064    1.1827 C   0  0  0  0  0  0  0  0  0  0  0  0
    2.1269   -1.0272   -0.0646 C   0  0  0  0  0  0  0  0  0  0  0  0
    1.2745   -0.2864   -1.1086 C   0  0  0  0  0  0  0  0  0  0  0  0
   -0.0989    0.0250   -0.6379 N   0  0  0  0  0  0  0  0  0  0  0  0
   -1.0550   -1.0413   -0.7121 C   0  0  0  0  0  0  0  0  0  0  0  0
   -0.7223   -2.3345   -1.1854 C   0  0  0  0  0  0  0  0  0  0  0  0
   -1.6497   -3.3826   -1.2633 C   0  0  0  0  0  0  0  0  0  0  0  0
   -2.9582   -3.1785   -0.8685 C   0  0  0  0  0  0  0  0  0  0  0  0
   -3.3282   -1.9262   -0.3977 C   0  0  0  0  0  0  0  0  0  0  0  0
   -2.3971   -0.8680   -0.3173 C   0  0  0  0  0  0  0  0  0  0  0  0
   -3.0606    0.6519    0.3072 S   0  0  0  0  0  0  0  0  0  0  0  0
   -1.6581    1.7350    0.2613 C   0  0  0  0  0  0  0  0  0  0  0  0
   -1.9222    3.0467    0.7136 C   0  0  0  0  0  0  0  0  0  0  0  0
   -0.9256    4.0122    0.7433 C   0  0  0  0  0  0  0  0  0  0  0  0
    0.3421    3.6641    0.3194 C   0  0  0  0  0  0  0  0  0  0  0  0
    1.6034    4.8365    0.3520 Cl  0  0  0  0  0  0  0  0  0  0  0  0
    0.6128    2.3660   -0.1326 C   0  0  0  0  0  0  0  0  0  0  0  0
   -0.3728    1.3517   -0.1809 C   0  0  0  0  0  0  0  0  0  0  0  0
    4.2338   -1.0948    1.6207 H   0  0  0  0  0  0  0  0  0  0  0  0
    3.5082   -0.4061    2.9089 H   0  0  0  0  0  0  0  0  0  0  0  0
    2.9293    0.7347    0.9123 H   0  0  0  0  0  0  0  0  0  0  0  0
    1.5221    0.0271    1.7290 H   0  0  0  0  0  0  0  0  0  0  0  0
    1.6403   -1.9605    0.2403 H   0  0  0  0  0  0  0  0  0  0  0  0
    3.0681   -1.3157   -0.5511 H   0  0  0  0  0  0  0  0  0  0  0  0
    1.2306   -0.8804   -2.0304 H   0  0  0  0  0  0  0  0  0  0  0  0
    1.8188    0.5910   -1.4673 H   0  0  0  0  0  0  0  0  0  0  0  0
    0.2806   -2.5899   -1.5094 H   0  0  0  0  0  0  0  0  0  0  0  0
   -1.3366   -4.3564   -1.6317 H   0  0  0  0  0  0  0  0  0  0  0  0
   -3.6856   -3.9832   -0.9229 H   0  0  0  0  0  0  0  0  0  0  0  0
   -4.3603   -1.7726   -0.0873 H   0  0  0  0  0  0  0  0  0  0  0  0
   -2.9214    3.3203    1.0497 H   0  0  0  0  0  0  0  0  0  0  0  0
   -1.1457    5.0153    1.0954 H   0  0  0  0  0  0  0  0  0  0  0  0
    1.6364    2.1889   -0.4357 H   0  0  0  0  0  0  0  0  0  0  0  0
  1  2  1  0
  2  3  1  0
  3  4  1  0
  4  5  1  0
  5  6  1  0
  6  7  2  0
  7  8  1  0
  8  9  2  0
  9 10  1  0
 10 11  2  0
 11 12  1  0
 12 13  1  0
 13 14  2  0
 14 15  1  0
 15 16  2  0
 16 17  1  0
 16 18  1  0
 18 19  2  0
 19  5  1  0
 11  6  1  0
 19 13  1  0
  1 20  1  0
  1 21  1  0
  2 22  1  0
  2 23  1  0
  3 24  1  0
  3 25  1  0
  4 26  1  0
  4 27  1  0
  7 28  1  0
  8 29  1  0
  9 30  1  0
 10 31  1  0
 14 32  1  0
 15 33  1  0
 18 34  1  0
M  END
$$$$
