
     RDKit          3D

 46 48  0  0  0  0  0  0  0  0999 V2000
   -1.4509    2.8255   -2.1896 C   0  0  0  0  0  0  0  0  0  0  0  0
   -2.3738    1.9926   -1.6893 C   0  0  0  0  0  0  0  0  0  0  0  0
   -2.5212    1.6686   -0.2293 C   0  0  0  0  0  0  0  0  0  0  0  0
   -2.3830    0.2477    0.0389 N   0  0  0  0  0  0  0  0  0  0  0  0
   -1.2146   -0.4456    0.2248 C   0  0  0  0  0  0  0  0  0  0  0  0
    0.3624    0.2367    0.0365 S   0  0  0  0  0  0  0  0  0  0  0  0
    1.3901   -1.2451    0.2700 C   0  0  0  0  0  0  0  0  0  0  0  0
    2.8572   -0.9187    0.1221 C   0  0  0  0  0  0  0  0  0  0  0  0
    3.6236   -0.5575    1.2396 C   0  0  0  0  0  0  0  0  0  0  0  0
    4.9787   -0.2407    1.1018 C   0  0  0  0  0  0  0  0  0  0  0  0
    5.5860   -0.2761   -0.1596 C   0  0  0  0  0  0  0  0  0  0  0  0
    7.0223    0.0553   -0.3656 C   0  0  0  0  0  0  0  0  0  0  0  0
    7.5560    0.0893   -1.4632 O   0  0  0  0  0  0  0  0  0  0  0  0
    7.6330    0.3028    0.8203 O   0  0  0  0  0  0  0  0  0  0  0  0
    9.0197    0.6230    0.7019 C   0  0  0  0  0  0  0  0  0  0  0  0
    4.8217   -0.6285   -1.2793 C   0  0  0  0  0  0  0  0  0  0  0  0
    3.4680   -0.9456   -1.1397 C   0  0  0  0  0  0  0  0  0  0  0  0
   -1.4786   -1.6796    0.5817 N   0  0  0  0  0  0  0  0  0  0  0  0
   -2.8419   -1.8099    0.6471 N   0  0  0  0  0  0  0  0  0  0  0  0
   -3.3870   -0.6590    0.3020 C   0  0  0  0  0  0  0  0  0  0  0  0
   -4.8012   -0.4437    0.2875 C   0  0  0  0  0  0  0  0  0  0  0  0
   -5.6337    0.2368   -1.0474 S   0  0  0  0  0  0  0  0  0  0  0  0
   -7.1171    0.0745   -0.2098 C   0  0  0  0  0  0  0  0  0  0  0  0
   -8.2789    0.4737   -0.7536 N   0  0  0  0  0  0  0  0  0  0  0  0
   -7.0366   -0.4750    0.9741 N   0  0  0  0  0  0  0  0  0  0  0  0
   -5.7188   -0.8013    1.2648 C   0  0  0  0  0  0  0  0  0  0  0  0
   -5.4311   -1.4734    2.5610 C   0  0  0  0  0  0  0  0  0  0  0  0
   -0.7226    3.3262   -1.5573 H   0  0  0  0  0  0  0  0  0  0  0  0
   -1.3974    3.0192   -3.2576 H   0  0  0  0  0  0  0  0  0  0  0  0
   -3.0722    1.5217   -2.3785 H   0  0  0  0  0  0  0  0  0  0  0  0
   -1.7837    2.1985    0.3845 H   0  0  0  0  0  0  0  0  0  0  0  0
   -3.5005    1.9997    0.1293 H   0  0  0  0  0  0  0  0  0  0  0  0
    1.1104   -2.0103   -0.4637 H   0  0  0  0  0  0  0  0  0  0  0  0
    1.2064   -1.6699    1.2639 H   0  0  0  0  0  0  0  0  0  0  0  0
    3.1681   -0.5189    2.2275 H   0  0  0  0  0  0  0  0  0  0  0  0
    5.5456    0.0345    1.9879 H   0  0  0  0  0  0  0  0  0  0  0  0
    9.1467    1.5665    0.1620 H   0  0  0  0  0  0  0  0  0  0  0  0
    9.4256    0.7444    1.7099 H   0  0  0  0  0  0  0  0  0  0  0  0
    9.5641   -0.1870    0.2067 H   0  0  0  0  0  0  0  0  0  0  0  0
    5.2774   -0.6573   -2.2673 H   0  0  0  0  0  0  0  0  0  0  0  0
    2.8919   -1.2121   -2.0234 H   0  0  0  0  0  0  0  0  0  0  0  0
   -8.3310    0.4921   -1.7646 H   0  0  0  0  0  0  0  0  0  0  0  0
   -9.1019    0.0709   -0.3174 H   0  0  0  0  0  0  0  0  0  0  0  0
   -6.3216   -1.4902    3.1970 H   0  0  0  0  0  0  0  0  0  0  0  0
   -4.6400   -0.9470    3.1041 H   0  0  0  0  0  0  0  0  0  0  0  0
   -5.1157   -2.5077    2.3927 H   0  0  0  0  0  0  0  0  0  0  0  0
  1  2  2  0
  2  3  1  0
  3  4  1  0
  4  5  1  0
  5  6  1  0
  6  7  1  0
  7  8  1  0
  8  9  2  0
  9 10  1  0
 10 11  2  0
 11 12  1  0
 12 13  2  0
 12 14  1  0
 14 15  1  0
 11 16  1  0
 16 17  2  0
  5 18  2  0
 18 19  1  0
 19 20  2  0
 20 21  1  0
 21 22  1  0
 22 23  1  0
 23 24  1  0
 23 25  2  0
 25 26  1  0
 26 27  1  0
 20  4  1  0
 26 21  2  0
 17  8  1  0
  1 28  1  0
  1 29  1  0
  2 30  1  0
  3 31  1  0
  3 32  1  0
  7 33  1  0
  7 34  1  0
  9 35  1  0
 10 36  1  0
 15 37  1  0
 15 38  1  0
 15 39  1  0
 16 40  1  0
 17 41  1  0
 24 42  1  0
 24 43  1  0
 27 44  1  0
 27 45  1  0
 27 46  1  0
M  END
$$$$
