
     RDKit          3D

 49 52  0  0  0  0  0  0  0  0999 V2000
   -3.0455    1.2440   -1.1099 C   0  0  0  0  0  0  0  0  0  0  0  0
   -3.7688    0.3718   -0.1004 C   0  0  0  0  0  0  0  0  0  0  0  0
   -3.4223   -0.8484    0.2057 N   0  0  0  0  0  0  0  0  0  0  0  0
   -2.2517   -1.3499   -0.3009 N   0  0  0  0  0  0  0  0  0  0  0  0
   -1.0135   -0.8573    0.1162 C   0  0  0  0  0  0  0  0  0  0  0  0
   -0.8382    0.2109    0.6952 O   0  0  0  0  0  0  0  0  0  0  0  0
    0.0852   -1.7692   -0.1939 C   0  0  0  0  0  0  0  0  0  0  0  0
   -0.1299   -3.0086   -0.7334 N   0  0  0  0  0  0  0  0  0  0  0  0
    1.0405   -3.5949   -0.9046 N   0  0  0  0  0  0  0  0  0  0  0  0
    2.0327   -2.7572   -0.4775 N   0  0  0  0  0  0  0  0  0  0  0  0
    3.3970   -3.1411   -0.5447 C   0  0  0  0  0  0  0  0  0  0  0  0
    4.3679   -2.3317   -0.1210 N   0  0  0  0  0  0  0  0  0  0  0  0
    5.5390   -3.0466   -0.3638 O   0  0  0  0  0  0  0  0  0  0  0  0
    5.2643   -4.2902   -0.9216 N   0  0  0  0  0  0  0  0  0  0  0  0
    3.9374   -4.3497   -1.0252 C   0  0  0  0  0  0  0  0  0  0  0  0
    3.2622   -5.4081   -1.5115 N   0  0  0  0  0  0  0  0  0  0  0  0
    1.4475   -1.5791   -0.0199 C   0  0  0  0  0  0  0  0  0  0  0  0
    2.1982   -0.4038    0.4868 C   0  0  0  0  0  0  0  0  0  0  0  0
    2.7218    0.2391   -0.6714 O   0  0  0  0  0  0  0  0  0  0  0  0
    3.5140    1.3357   -0.4728 C   0  0  0  0  0  0  0  0  0  0  0  0
    3.7670    1.9568    0.7532 C   0  0  0  0  0  0  0  0  0  0  0  0
    4.5993    3.0791    0.8094 C   0  0  0  0  0  0  0  0  0  0  0  0
    5.1711    3.5742   -0.3566 C   0  0  0  0  0  0  0  0  0  0  0  0
    5.9670    4.6496   -0.2968 F   0  0  0  0  0  0  0  0  0  0  0  0
    4.9263    2.9698   -1.5820 C   0  0  0  0  0  0  0  0  0  0  0  0
    4.0952    1.8501   -1.6377 C   0  0  0  0  0  0  0  0  0  0  0  0
   -4.9855    0.9463    0.5594 C   0  0  0  0  0  0  0  0  0  0  0  0
   -5.9572    0.0793    1.0800 C   0  0  0  0  0  0  0  0  0  0  0  0
   -7.0990    0.5899    1.7041 C   0  0  0  0  0  0  0  0  0  0  0  0
   -7.2682    1.9681    1.8154 C   0  0  0  0  0  0  0  0  0  0  0  0
   -8.6721    2.5984    2.5836 Cl  0  0  0  0  0  0  0  0  0  0  0  0
   -6.3040    2.8396    1.3119 C   0  0  0  0  0  0  0  0  0  0  0  0
   -5.1610    2.3305    0.6863 C   0  0  0  0  0  0  0  0  0  0  0  0
   -2.3290    1.8904   -0.5970 H   0  0  0  0  0  0  0  0  0  0  0  0
   -3.7584    1.8675   -1.6581 H   0  0  0  0  0  0  0  0  0  0  0  0
   -2.5223    0.6383   -1.8543 H   0  0  0  0  0  0  0  0  0  0  0  0
   -2.2667   -2.3578   -0.4483 H   0  0  0  0  0  0  0  0  0  0  0  0
    2.2730   -5.3441   -1.7460 H   0  0  0  0  0  0  0  0  0  0  0  0
    3.7696   -6.1320   -2.0094 H   0  0  0  0  0  0  0  0  0  0  0  0
    2.9908   -0.7082    1.1787 H   0  0  0  0  0  0  0  0  0  0  0  0
    1.5350    0.2808    1.0232 H   0  0  0  0  0  0  0  0  0  0  0  0
    3.3317    1.6010    1.6810 H   0  0  0  0  0  0  0  0  0  0  0  0
    4.8029    3.5705    1.7556 H   0  0  0  0  0  0  0  0  0  0  0  0
    5.3803    3.3699   -2.4823 H   0  0  0  0  0  0  0  0  0  0  0  0
    3.9003    1.3720   -2.5947 H   0  0  0  0  0  0  0  0  0  0  0  0
   -5.8333   -0.9988    1.0010 H   0  0  0  0  0  0  0  0  0  0  0  0
   -7.8462   -0.0922    2.1012 H   0  0  0  0  0  0  0  0  0  0  0  0
   -6.4316    3.9149    1.4085 H   0  0  0  0  0  0  0  0  0  0  0  0
   -4.4130    3.0301    0.3233 H   0  0  0  0  0  0  0  0  0  0  0  0
  1  2  1  0
  2  3  2  3
  3  4  1  0
  4  5  1  0
  5  6  2  0
  5  7  1  0
  7  8  1  0
  8  9  2  0
  9 10  1  0
 10 11  1  0
 11 12  2  0
 12 13  1  0
 13 14  1  0
 14 15  2  0
 15 16  1  0
 10 17  1  0
 17 18  1  0
 18 19  1  0
 19 20  1  0
 20 21  2  0
 21 22  1  0
 22 23  2  0
 23 24  1  0
 23 25  1  0
 25 26  2  0
  2 27  1  0
 27 28  2  0
 28 29  1  0
 29 30  2  0
 30 31  1  0
 30 32  1  0
 32 33  2  0
 17  7  2  0
 26 20  1  0
 33 27  1  0
 15 11  1  0
  1 34  1  0
  1 35  1  0
  1 36  1  0
  4 37  1  0
 16 38  1  0
 16 39  1  0
 18 40  1  0
 18 41  1  0
 21 42  1  0
 22 43  1  0
 25 44  1  0
 26 45  1  0
 28 46  1  0
 29 47  1  0
 32 48  1  0
 33 49  1  0
M  END
$$$$
