
     RDKit          3D

 56 60  0  0  0  0  0  0  0  0999 V2000
   -6.8323   -1.8327   -0.2911 C   0  0  0  0  0  0  0  0  0  0  0  0
   -5.5467   -1.6315   -0.9186 N   0  0  0  0  0  0  0  0  0  0  0  0
   -4.4665   -2.4745   -0.9053 C   0  0  0  0  0  0  0  0  0  0  0  0
   -4.3827   -3.9401    0.0044 S   0  0  0  0  0  0  0  0  0  0  0  0
   -2.8558   -4.6750   -0.6492 C   0  0  0  0  0  0  0  0  0  0  0  0
   -1.6273   -4.1051    0.0447 C   0  0  0  0  0  0  0  0  0  0  0  0
   -1.1359   -4.6768    1.0184 O   0  0  0  0  0  0  0  0  0  0  0  0
   -1.1597   -2.9373   -0.5386 N   0  0  0  0  0  0  0  0  0  0  0  0
    0.0114   -2.2228   -0.2179 C   0  0  0  0  0  0  0  0  0  0  0  0
    0.1779   -0.9778   -0.8334 C   0  0  0  0  0  0  0  0  0  0  0  0
    1.3223   -0.2022   -0.6012 C   0  0  0  0  0  0  0  0  0  0  0  0
    2.3279   -0.6835    0.2597 C   0  0  0  0  0  0  0  0  0  0  0  0
    3.5138   -0.0356    0.5702 N   0  0  0  0  0  0  0  0  0  0  0  0
    4.2195   -0.7802    1.3898 C   0  0  0  0  0  0  0  0  0  0  0  0
    5.7847   -0.2711    1.9855 S   0  0  0  0  0  0  0  0  0  0  0  0
    6.1288    1.1097    0.8609 C   0  0  0  0  0  0  0  0  0  0  0  0
    7.4625    1.7443    1.2051 C   0  0  0  0  0  0  0  0  0  0  0  0
    8.3890    1.8090    0.3984 O   0  0  0  0  0  0  0  0  0  0  0  0
    7.5189    2.2807    2.4813 N   0  0  0  0  0  0  0  0  0  0  0  0
    8.7121    2.8626    3.0082 C   0  0  0  0  0  0  0  0  0  0  0  0
    8.9437    4.3432    2.9212 C   0  0  0  0  0  0  0  0  0  0  0  0
    8.6634    3.7090    4.2501 C   0  0  0  0  0  0  0  0  0  0  0  0
    3.5145   -2.2660    1.8607 S   0  0  0  0  0  0  0  0  0  0  0  0
    2.1473   -1.9266    0.8685 C   0  0  0  0  0  0  0  0  0  0  0  0
    0.9995   -2.7111    0.6460 C   0  0  0  0  0  0  0  0  0  0  0  0
   -3.5210   -2.0034   -1.6819 N   0  0  0  0  0  0  0  0  0  0  0  0
   -3.9560   -0.8041   -2.1822 N   0  0  0  0  0  0  0  0  0  0  0  0
   -5.1702   -0.5591   -1.7044 C   0  0  0  0  0  0  0  0  0  0  0  0
   -5.9710    0.6328   -1.9991 C   0  0  0  0  0  0  0  0  0  0  0  0
   -6.0685    1.0843   -3.3238 C   0  0  0  0  0  0  0  0  0  0  0  0
   -6.8220    2.2191   -3.6386 C   0  0  0  0  0  0  0  0  0  0  0  0
   -7.4792    2.9202   -2.6296 C   0  0  0  0  0  0  0  0  0  0  0  0
   -7.3743    2.4951   -1.3056 C   0  0  0  0  0  0  0  0  0  0  0  0
   -6.6187    1.3601   -0.9902 C   0  0  0  0  0  0  0  0  0  0  0  0
   -7.6150   -1.3961   -0.9177 H   0  0  0  0  0  0  0  0  0  0  0  0
   -7.0423   -2.9009   -0.1873 H   0  0  0  0  0  0  0  0  0  0  0  0
   -6.8139   -1.3527    0.6910 H   0  0  0  0  0  0  0  0  0  0  0  0
   -2.8816   -5.7527   -0.4531 H   0  0  0  0  0  0  0  0  0  0  0  0
   -2.7798   -4.5556   -1.7349 H   0  0  0  0  0  0  0  0  0  0  0  0
   -1.7963   -2.4771   -1.1950 H   0  0  0  0  0  0  0  0  0  0  0  0
   -0.5848   -0.5849   -1.5055 H   0  0  0  0  0  0  0  0  0  0  0  0
    1.4419    0.7641   -1.0824 H   0  0  0  0  0  0  0  0  0  0  0  0
    6.1718    0.7457   -0.1666 H   0  0  0  0  0  0  0  0  0  0  0  0
    5.3554    1.8752    0.9321 H   0  0  0  0  0  0  0  0  0  0  0  0
    6.7815    2.0223    3.1292 H   0  0  0  0  0  0  0  0  0  0  0  0
    9.5843    2.2258    2.8827 H   0  0  0  0  0  0  0  0  0  0  0  0
    9.9544    4.6828    2.7168 H   0  0  0  0  0  0  0  0  0  0  0  0
    8.1719    4.9552    2.4690 H   0  0  0  0  0  0  0  0  0  0  0  0
    7.7027    3.9105    4.7090 H   0  0  0  0  0  0  0  0  0  0  0  0
    9.4832    3.6219    4.9563 H   0  0  0  0  0  0  0  0  0  0  0  0
    0.9176   -3.6760    1.1341 H   0  0  0  0  0  0  0  0  0  0  0  0
   -5.5503    0.5502   -4.1194 H   0  0  0  0  0  0  0  0  0  0  0  0
   -6.8889    2.5601   -4.6706 H   0  0  0  0  0  0  0  0  0  0  0  0
   -8.0613    3.8068   -2.8729 H   0  0  0  0  0  0  0  0  0  0  0  0
   -7.8738    3.0549   -0.5182 H   0  0  0  0  0  0  0  0  0  0  0  0
   -6.5260    1.0665    0.0542 H   0  0  0  0  0  0  0  0  0  0  0  0
  1  2  1  0
  2  3  1  0
  3  4  1  0
  4  5  1  0
  5  6  1  0
  6  7  2  0
  6  8  1  0
  8  9  1  0
  9 10  2  0
 10 11  1  0
 11 12  2  0
 12 13  1  0
 13 14  2  0
 14 15  1  0
 15 16  1  0
 16 17  1  0
 17 18  2  0
 17 19  1  0
 19 20  1  0
 20 21  1  0
 21 22  1  0
 14 23  1  0
 23 24  1  0
 24 25  2  0
  3 26  2  0
 26 27  1  0
 27 28  2  0
 28 29  1  0
 29 30  2  0
 30 31  1  0
 31 32  2  0
 32 33  1  0
 33 34  2  0
 28  2  1  0
 34 29  1  0
 25  9  1  0
 24 12  1  0
 22 20  1  0
  1 35  1  0
  1 36  1  0
  1 37  1  0
  5 38  1  0
  5 39  1  0
  8 40  1  0
 10 41  1  0
 11 42  1  0
 16 43  1  0
 16 44  1  0
 19 45  1  0
 20 46  1  0
 21 47  1  0
 21 48  1  0
 22 49  1  0
 22 50  1  0
 25 51  1  0
 30 52  1  0
 31 53  1  0
 32 54  1  0
 33 55  1  0
 34 56  1  0
M  END
$$$$
