
     RDKit          3D

 49 52  0  0  0  0  0  0  0  0999 V2000
   -3.7735   -0.8562    2.1616 C   0  0  0  0  0  0  0  0  0  0  0  0
   -3.9485    0.1378    1.0322 C   0  0  0  0  0  0  0  0  0  0  0  0
   -3.0625    0.3455    0.1019 N   0  0  0  0  0  0  0  0  0  0  0  0
   -1.8833   -0.3319    0.1425 N   0  0  0  0  0  0  0  0  0  0  0  0
   -0.9378   -0.1666   -0.8604 C   0  0  0  0  0  0  0  0  0  0  0  0
   -1.0740    0.5357   -1.8568 O   0  0  0  0  0  0  0  0  0  0  0  0
    0.2650   -0.9605   -0.6186 C   0  0  0  0  0  0  0  0  0  0  0  0
    0.3573   -1.8464    0.4203 N   0  0  0  0  0  0  0  0  0  0  0  0
    1.5535   -2.4040    0.3825 N   0  0  0  0  0  0  0  0  0  0  0  0
    2.2407   -1.9270   -0.7003 N   0  0  0  0  0  0  0  0  0  0  0  0
    3.5132   -2.4536   -1.0407 C   0  0  0  0  0  0  0  0  0  0  0  0
    4.1151   -2.1312   -2.1854 N   0  0  0  0  0  0  0  0  0  0  0  0
    5.2992   -2.8654   -2.1682 O   0  0  0  0  0  0  0  0  0  0  0  0
    5.3957   -3.6395   -1.0178 N   0  0  0  0  0  0  0  0  0  0  0  0
    4.2920   -3.3793   -0.3192 C   0  0  0  0  0  0  0  0  0  0  0  0
    4.0048   -3.9294    0.8761 N   0  0  0  0  0  0  0  0  0  0  0  0
    1.4608   -0.9564   -1.3225 C   0  0  0  0  0  0  0  0  0  0  0  0
    1.8844   -0.0811   -2.4465 C   0  0  0  0  0  0  0  0  0  0  0  0
    2.1340    1.2245   -1.9090 O   0  0  0  0  0  0  0  0  0  0  0  0
    3.3583    1.4009   -1.3276 C   0  0  0  0  0  0  0  0  0  0  0  0
    3.3597    1.9493   -0.0440 C   0  0  0  0  0  0  0  0  0  0  0  0
    4.5676    2.1890    0.6115 C   0  0  0  0  0  0  0  0  0  0  0  0
    5.7631    1.8900   -0.0307 C   0  0  0  0  0  0  0  0  0  0  0  0
    6.9240    2.1189    0.5972 F   0  0  0  0  0  0  0  0  0  0  0  0
    5.7723    1.3668   -1.3188 C   0  0  0  0  0  0  0  0  0  0  0  0
    4.5635    1.1371   -1.9785 C   0  0  0  0  0  0  0  0  0  0  0  0
   -5.2183    0.9265    0.9766 C   0  0  0  0  0  0  0  0  0  0  0  0
   -5.7025    1.3426   -0.2713 C   0  0  0  0  0  0  0  0  0  0  0  0
   -6.8842    2.0840   -0.3584 C   0  0  0  0  0  0  0  0  0  0  0  0
   -7.5765    2.4194    0.8028 C   0  0  0  0  0  0  0  0  0  0  0  0
   -9.0313    3.3310    0.6995 Cl  0  0  0  0  0  0  0  0  0  0  0  0
   -7.0938    2.0263    2.0512 C   0  0  0  0  0  0  0  0  0  0  0  0
   -5.9120    1.2830    2.1406 C   0  0  0  0  0  0  0  0  0  0  0  0
   -4.7066   -1.0456    2.6980 H   0  0  0  0  0  0  0  0  0  0  0  0
   -3.0237   -0.4833    2.8647 H   0  0  0  0  0  0  0  0  0  0  0  0
   -3.4411   -1.8179    1.7575 H   0  0  0  0  0  0  0  0  0  0  0  0
   -1.6585   -0.9429    0.9205 H   0  0  0  0  0  0  0  0  0  0  0  0
    4.5504   -4.7234    1.1964 H   0  0  0  0  0  0  0  0  0  0  0  0
    3.0681   -3.8707    1.2727 H   0  0  0  0  0  0  0  0  0  0  0  0
    1.0547    0.0253   -3.1541 H   0  0  0  0  0  0  0  0  0  0  0  0
    2.7107   -0.4472   -3.0529 H   0  0  0  0  0  0  0  0  0  0  0  0
    2.4186    2.1903    0.4433 H   0  0  0  0  0  0  0  0  0  0  0  0
    4.5843    2.6082    1.6119 H   0  0  0  0  0  0  0  0  0  0  0  0
    6.7186    1.1565   -1.8053 H   0  0  0  0  0  0  0  0  0  0  0  0
    4.5820    0.7647   -2.9975 H   0  0  0  0  0  0  0  0  0  0  0  0
   -5.1631    1.0911   -1.1838 H   0  0  0  0  0  0  0  0  0  0  0  0
   -7.2521    2.3974   -1.3328 H   0  0  0  0  0  0  0  0  0  0  0  0
   -7.6283    2.3023    2.9574 H   0  0  0  0  0  0  0  0  0  0  0  0
   -5.5400    1.0152    3.1262 H   0  0  0  0  0  0  0  0  0  0  0  0
  1  2  1  0
  2  3  2  3
  3  4  1  0
  4  5  1  0
  5  6  2  0
  5  7  1  0
  7  8  1  0
  8  9  2  0
  9 10  1  0
 10 11  1  0
 11 12  2  0
 12 13  1  0
 13 14  1  0
 14 15  2  0
 15 16  1  0
 10 17  1  0
 17 18  1  0
 18 19  1  0
 19 20  1  0
 20 21  2  0
 21 22  1  0
 22 23  2  0
 23 24  1  0
 23 25  1  0
 25 26  2  0
  2 27  1  0
 27 28  2  0
 28 29  1  0
 29 30  2  0
 30 31  1  0
 30 32  1  0
 32 33  2  0
 17  7  2  0
 26 20  1  0
 33 27  1  0
 15 11  1  0
  1 34  1  0
  1 35  1  0
  1 36  1  0
  4 37  1  0
 16 38  1  0
 16 39  1  0
 18 40  1  0
 18 41  1  0
 21 42  1  0
 22 43  1  0
 25 44  1  0
 26 45  1  0
 28 46  1  0
 29 47  1  0
 32 48  1  0
 33 49  1  0
M  END
$$$$
