
     RDKit          3D

 54 58  0  0  0  0  0  0  0  0999 V2000
    2.9701   -1.7116   -1.6886 O   0  0  0  0  0  0  0  0  0  0  0  0
    2.8119   -0.8686   -0.8095 C   0  0  0  0  0  0  0  0  0  0  0  0
    1.7058    0.1666   -0.8621 C   0  0  0  0  0  0  0  0  0  0  0  0
    0.4063   -0.2856    0.3244 S   0  0  0  0  0  0  0  0  0  0  0  0
   -0.8266    0.8889   -0.1205 C   0  0  0  0  0  0  0  0  0  0  0  0
   -0.3956    2.0317   -0.5610 N   0  0  0  0  0  0  0  0  0  0  0  0
   -1.3930    2.9469   -0.9104 C   0  0  0  0  0  0  0  0  0  0  0  0
   -2.7163    2.6453   -0.8194 C   0  0  0  0  0  0  0  0  0  0  0  0
   -3.7037    3.9227   -1.3181 S   0  0  0  0  0  0  0  0  0  0  0  0
   -2.3356    4.9244   -1.6681 C   0  0  0  0  0  0  0  0  0  0  0  0
   -2.3540    6.2429   -2.1629 C   0  0  0  0  0  0  0  0  0  0  0  0
   -1.1401    6.8969   -2.3878 C   0  0  0  0  0  0  0  0  0  0  0  0
    0.0660    6.2598   -2.1288 C   0  0  0  0  0  0  0  0  0  0  0  0
    0.0814    4.9512   -1.6375 C   0  0  0  0  0  0  0  0  0  0  0  0
   -1.1314    4.2607   -1.3983 C   0  0  0  0  0  0  0  0  0  0  0  0
   -3.1943    1.3788   -0.3534 C   0  0  0  0  0  0  0  0  0  0  0  0
   -4.3819    1.0628   -0.3135 O   0  0  0  0  0  0  0  0  0  0  0  0
   -2.1628    0.5138    0.0412 N   0  0  0  0  0  0  0  0  0  0  0  0
   -2.5927   -0.8043    0.5309 C   0  0  0  0  0  0  0  0  0  0  0  0
   -2.7565   -1.8096   -0.6156 C   0  0  0  0  0  0  0  0  0  0  0  0
   -3.1309   -3.1764   -0.1029 C   0  0  0  0  0  0  0  0  0  0  0  0
   -4.4741   -3.5048    0.1242 C   0  0  0  0  0  0  0  0  0  0  0  0
   -4.8187   -4.7628    0.6199 C   0  0  0  0  0  0  0  0  0  0  0  0
   -3.8254   -5.7006    0.8963 C   0  0  0  0  0  0  0  0  0  0  0  0
   -2.4864   -5.3813    0.6784 C   0  0  0  0  0  0  0  0  0  0  0  0
   -2.1388   -4.1239    0.1829 C   0  0  0  0  0  0  0  0  0  0  0  0
    3.6276   -0.7711    0.2965 N   0  0  0  0  0  0  0  0  0  0  0  0
    4.6216   -1.7860    0.5551 C   0  0  0  0  0  0  0  0  0  0  0  0
    5.4698   -1.3387    1.6847 C   0  0  0  0  0  0  0  0  0  0  0  0
    6.8140   -1.0549    1.8084 C   0  0  0  0  0  0  0  0  0  0  0  0
    7.0193   -0.6692    3.1551 C   0  0  0  0  0  0  0  0  0  0  0  0
    5.7902   -0.7423    3.7671 C   0  0  0  0  0  0  0  0  0  0  0  0
    4.8416   -1.1449    2.8830 O   0  0  0  0  0  0  0  0  0  0  0  0
    2.1251    1.1500   -0.6255 H   0  0  0  0  0  0  0  0  0  0  0  0
    1.3028    0.1921   -1.8798 H   0  0  0  0  0  0  0  0  0  0  0  0
   -3.2956    6.7449   -2.3675 H   0  0  0  0  0  0  0  0  0  0  0  0
   -1.1425    7.9152   -2.7700 H   0  0  0  0  0  0  0  0  0  0  0  0
    1.0046    6.7787   -2.3079 H   0  0  0  0  0  0  0  0  0  0  0  0
    1.0292    4.4577   -1.4360 H   0  0  0  0  0  0  0  0  0  0  0  0
   -3.5472   -0.6945    1.0619 H   0  0  0  0  0  0  0  0  0  0  0  0
   -1.8910   -1.1784    1.2831 H   0  0  0  0  0  0  0  0  0  0  0  0
   -3.5220   -1.4619   -1.3210 H   0  0  0  0  0  0  0  0  0  0  0  0
   -1.8333   -1.8805   -1.2039 H   0  0  0  0  0  0  0  0  0  0  0  0
   -5.2608   -2.7823   -0.0852 H   0  0  0  0  0  0  0  0  0  0  0  0
   -5.8630   -5.0114    0.7900 H   0  0  0  0  0  0  0  0  0  0  0  0
   -4.0951   -6.6807    1.2808 H   0  0  0  0  0  0  0  0  0  0  0  0
   -1.7117   -6.1127    0.8937 H   0  0  0  0  0  0  0  0  0  0  0  0
   -1.0886   -3.8907    0.0192 H   0  0  0  0  0  0  0  0  0  0  0  0
    3.2591   -0.2881    1.1085 H   0  0  0  0  0  0  0  0  0  0  0  0
    5.2149   -1.9500   -0.3508 H   0  0  0  0  0  0  0  0  0  0  0  0
    4.1055   -2.7197    0.8027 H   0  0  0  0  0  0  0  0  0  0  0  0
    7.5531   -1.1183    1.0217 H   0  0  0  0  0  0  0  0  0  0  0  0
    7.9480   -0.3752    3.6237 H   0  0  0  0  0  0  0  0  0  0  0  0
    5.4415   -0.5508    4.7727 H   0  0  0  0  0  0  0  0  0  0  0  0
  1  2  2  0
  2  3  1  0
  3  4  1  0
  4  5  1  0
  5  6  2  0
  6  7  1  0
  7  8  2  0
  8  9  1  0
  9 10  1  0
 10 11  2  0
 11 12  1  0
 12 13  2  0
 13 14  1  0
 14 15  2  0
  8 16  1  0
 16 17  2  0
 16 18  1  0
 18 19  1  0
 19 20  1  0
 20 21  1  0
 21 22  2  0
 22 23  1  0
 23 24  2  0
 24 25  1  0
 25 26  2  0
  2 27  1  0
 27 28  1  0
 28 29  1  0
 29 30  2  0
 30 31  1  0
 31 32  2  0
 32 33  1  0
 18  5  1  0
 26 21  1  0
 33 29  1  0
 15  7  1  0
 15 10  1  0
  3 34  1  0
  3 35  1  0
 11 36  1  0
 12 37  1  0
 13 38  1  0
 14 39  1  0
 19 40  1  0
 19 41  1  0
 20 42  1  0
 20 43  1  0
 22 44  1  0
 23 45  1  0
 24 46  1  0
 25 47  1  0
 26 48  1  0
 27 49  1  0
 28 50  1  0
 28 51  1  0
 30 52  1  0
 31 53  1  0
 32 54  1  0
M  END
$$$$
