
     RDKit          3D

 39 40  0  0  0  0  0  0  0  0999 V2000
   -1.5374    0.1979   -2.3735 C   0  0  0  0  0  0  0  0  0  0  0  0
   -2.4276    0.0702   -1.1537 C   0  0  0  0  0  0  0  0  0  0  0  0
   -1.9332   -0.0524    0.0931 C   0  0  0  0  0  0  0  0  0  0  0  0
   -0.4762   -0.1385    0.3757 C   0  0  0  0  0  0  0  0  0  0  0  0
    0.3275   -0.9263   -0.2697 N   0  0  0  0  0  0  0  0  0  0  0  0
    1.6567   -0.8622    0.0652 N   0  0  0  0  0  0  0  0  0  0  0  0
    2.3568    0.3220    0.2637 C   0  0  0  0  0  0  0  0  0  0  0  0
    1.8397    1.4363    0.3236 O   0  0  0  0  0  0  0  0  0  0  0  0
    3.8448    0.2002    0.4008 C   0  0  0  0  0  0  0  0  0  0  0  0
    4.5463    1.3552    0.7875 C   0  0  0  0  0  0  0  0  0  0  0  0
    5.9318    1.3214    0.9383 C   0  0  0  0  0  0  0  0  0  0  0  0
    6.8585    2.8835    1.4626 Br  0  0  0  0  0  0  0  0  0  0  0  0
    6.6406    0.1454    0.7067 C   0  0  0  0  0  0  0  0  0  0  0  0
    5.9593   -1.0086    0.3181 C   0  0  0  0  0  0  0  0  0  0  0  0
    4.5693   -0.9804    0.1646 C   0  0  0  0  0  0  0  0  0  0  0  0
    3.9308   -2.1264   -0.2321 O   0  0  0  0  0  0  0  0  0  0  0  0
   -2.8577   -0.0459    1.2482 C   0  0  0  0  0  0  0  0  0  0  0  0
   -2.4052   -0.0238    2.3929 O   0  0  0  0  0  0  0  0  0  0  0  0
   -4.2071   -0.0634    0.9651 N   0  0  0  0  0  0  0  0  0  0  0  0
   -5.1322   -0.0832    2.0826 C   0  0  0  0  0  0  0  0  0  0  0  0
   -4.7362    0.0810   -0.3079 C   0  0  0  0  0  0  0  0  0  0  0  0
   -5.9501    0.1847   -0.4958 O   0  0  0  0  0  0  0  0  0  0  0  0
   -3.8125    0.1174   -1.3561 N   0  0  0  0  0  0  0  0  0  0  0  0
   -4.3591    0.2379   -2.7074 C   0  0  0  0  0  0  0  0  0  0  0  0
   -1.5152   -0.7455   -2.9285 H   0  0  0  0  0  0  0  0  0  0  0  0
   -1.8902    0.9904   -3.0415 H   0  0  0  0  0  0  0  0  0  0  0  0
   -0.5089    0.4798   -2.1355 H   0  0  0  0  0  0  0  0  0  0  0  0
   -0.1427    0.4749    1.2324 H   0  0  0  0  0  0  0  0  0  0  0  0
    2.2058   -1.6721   -0.2244 H   0  0  0  0  0  0  0  0  0  0  0  0
    4.0052    2.2817    0.9730 H   0  0  0  0  0  0  0  0  0  0  0  0
    7.7214    0.1187    0.8243 H   0  0  0  0  0  0  0  0  0  0  0  0
    6.5296   -1.9160    0.1382 H   0  0  0  0  0  0  0  0  0  0  0  0
    4.5891   -2.8352   -0.3506 H   0  0  0  0  0  0  0  0  0  0  0  0
   -6.0726   -0.5687    1.8056 H   0  0  0  0  0  0  0  0  0  0  0  0
   -4.7051   -0.6138    2.9388 H   0  0  0  0  0  0  0  0  0  0  0  0
   -5.3404    0.9512    2.3743 H   0  0  0  0  0  0  0  0  0  0  0  0
   -4.1740    1.2520   -3.0753 H   0  0  0  0  0  0  0  0  0  0  0  0
   -3.8919   -0.4989   -3.3681 H   0  0  0  0  0  0  0  0  0  0  0  0
   -5.4379    0.0594   -2.7350 H   0  0  0  0  0  0  0  0  0  0  0  0
  1  2  1  0
  2  3  2  0
  3  4  1  0
  4  5  2  3
  5  6  1  0
  6  7  1  0
  7  8  2  0
  7  9  1  0
  9 10  2  0
 10 11  1  0
 11 12  1  0
 11 13  2  0
 13 14  1  0
 14 15  2  0
 15 16  1  0
  3 17  1  0
 17 18  2  0
 17 19  1  0
 19 20  1  0
 19 21  1  0
 21 22  2  0
 21 23  1  0
 23 24  1  0
 23  2  1  0
 15  9  1  0
  1 25  1  0
  1 26  1  0
  1 27  1  0
  4 28  1  0
  6 29  1  0
 10 30  1  0
 13 31  1  0
 14 32  1  0
 16 33  1  0
 20 34  1  0
 20 35  1  0
 20 36  1  0
 24 37  1  0
 24 38  1  0
 24 39  1  0
M  END
$$$$
