
     RDKit          3D

 40 41  0  0  0  0  0  0  0  0999 V2000
    7.5483   -0.4331    2.2100 C   0  0  0  0  0  0  0  0  0  0  0  0
    6.8211    0.5490    1.4826 O   0  0  0  0  0  0  0  0  0  0  0  0
    5.5052    0.2814    1.2277 C   0  0  0  0  0  0  0  0  0  0  0  0
    4.8109   -0.8661    1.6067 C   0  0  0  0  0  0  0  0  0  0  0  0
    3.4563   -1.0121    1.2784 C   0  0  0  0  0  0  0  0  0  0  0  0
    2.7753   -0.0094    0.5769 C   0  0  0  0  0  0  0  0  0  0  0  0
    1.3635   -0.1374    0.1895 C   0  0  0  0  0  0  0  0  0  0  0  0
    0.4302   -0.7133    0.9640 C   0  0  0  0  0  0  0  0  0  0  0  0
   -0.9904   -0.8705    0.5526 C   0  0  0  0  0  0  0  0  0  0  0  0
   -1.6033   -1.8595    0.9314 O   0  0  0  0  0  0  0  0  0  0  0  0
   -1.4974    0.2085   -0.1390 N   0  0  0  0  0  0  0  0  0  0  0  0
   -2.7795    0.3828   -0.6312 C   0  0  0  0  0  0  0  0  0  0  0  0
   -3.2441    1.6383   -0.6270 C   0  0  0  0  0  0  0  0  0  0  0  0
   -4.6037    1.9426   -1.0817 C   0  0  0  0  0  0  0  0  0  0  0  0
   -4.9449    3.1197   -1.1670 O   0  0  0  0  0  0  0  0  0  0  0  0
   -5.3986    0.8621   -1.3712 N   0  0  0  0  0  0  0  0  0  0  0  0
   -6.7704    1.1099   -1.7693 C   0  0  0  0  0  0  0  0  0  0  0  0
   -4.9066   -0.4257   -1.5251 C   0  0  0  0  0  0  0  0  0  0  0  0
   -5.6077   -1.3293   -1.9875 O   0  0  0  0  0  0  0  0  0  0  0  0
   -3.5689   -0.6264   -1.1618 N   0  0  0  0  0  0  0  0  0  0  0  0
   -3.0386   -1.9488   -1.4680 C   0  0  0  0  0  0  0  0  0  0  0  0
    3.4834    1.1313    0.1841 C   0  0  0  0  0  0  0  0  0  0  0  0
    4.8346    1.2755    0.5135 C   0  0  0  0  0  0  0  0  0  0  0  0
    7.1245   -0.5786    3.2092 H   0  0  0  0  0  0  0  0  0  0  0  0
    7.5955   -1.3779    1.6585 H   0  0  0  0  0  0  0  0  0  0  0  0
    8.5725   -0.0679    2.3328 H   0  0  0  0  0  0  0  0  0  0  0  0
    5.2914   -1.6713    2.1527 H   0  0  0  0  0  0  0  0  0  0  0  0
    2.9498   -1.9295    1.5703 H   0  0  0  0  0  0  0  0  0  0  0  0
    1.1126    0.2657   -0.7888 H   0  0  0  0  0  0  0  0  0  0  0  0
    0.6630   -1.1647    1.9230 H   0  0  0  0  0  0  0  0  0  0  0  0
   -0.9518    1.0552   -0.0269 H   0  0  0  0  0  0  0  0  0  0  0  0
   -2.6806    2.4882   -0.2637 H   0  0  0  0  0  0  0  0  0  0  0  0
   -7.4153    0.2860   -1.4483 H   0  0  0  0  0  0  0  0  0  0  0  0
   -7.1469    2.0418   -1.3377 H   0  0  0  0  0  0  0  0  0  0  0  0
   -6.8068    1.1820   -2.8611 H   0  0  0  0  0  0  0  0  0  0  0  0
   -1.9613   -1.9219   -1.6506 H   0  0  0  0  0  0  0  0  0  0  0  0
   -3.2929   -2.6343   -0.6550 H   0  0  0  0  0  0  0  0  0  0  0  0
   -3.4943   -2.3393   -2.3850 H   0  0  0  0  0  0  0  0  0  0  0  0
    2.9955    1.9256   -0.3757 H   0  0  0  0  0  0  0  0  0  0  0  0
    5.3705    2.1712    0.2081 H   0  0  0  0  0  0  0  0  0  0  0  0
  1  2  1  0
  2  3  1  0
  3  4  2  0
  4  5  1  0
  5  6  2  0
  6  7  1  0
  7  8  2  3
  8  9  1  0
  9 10  2  0
  9 11  1  0
 11 12  1  0
 12 13  2  0
 13 14  1  0
 14 15  2  0
 14 16  1  0
 16 17  1  0
 16 18  1  0
 18 19  2  0
 18 20  1  0
 20 21  1  0
  6 22  1  0
 22 23  2  0
 23  3  1  0
 20 12  1  0
  1 24  1  0
  1 25  1  0
  1 26  1  0
  4 27  1  0
  5 28  1  0
  7 29  1  0
  8 30  1  0
 11 31  1  0
 13 32  1  0
 17 33  1  0
 17 34  1  0
 17 35  1  0
 21 36  1  0
 21 37  1  0
 21 38  1  0
 22 39  1  0
 23 40  1  0
M  END
$$$$
