
     RDKit          3D

 51 54  0  0  0  0  0  0  0  0999 V2000
   -6.7163    1.9175    1.0379 C   0  0  0  0  0  0  0  0  0  0  0  0
   -6.6205    1.0764   -0.2278 C   0  0  0  0  0  0  0  0  0  0  0  0
   -5.7456   -0.0904   -0.0280 N   0  0  0  0  0  0  0  0  0  0  0  0
   -6.2145   -1.3468   -0.6434 C   0  0  0  0  0  0  0  0  0  0  0  0
   -5.9810   -1.3623   -2.1486 C   0  0  0  0  0  0  0  0  0  0  0  0
   -4.3612    0.0705    0.0971 C   0  0  0  0  0  0  0  0  0  0  0  0
   -3.5792   -0.9411    0.6887 C   0  0  0  0  0  0  0  0  0  0  0  0
   -2.1892   -0.8242    0.8409 C   0  0  0  0  0  0  0  0  0  0  0  0
   -1.5390    0.3240    0.4050 C   0  0  0  0  0  0  0  0  0  0  0  0
   -0.1064    0.5119    0.5448 C   0  0  0  0  0  0  0  0  0  0  0  0
    0.4848    1.6418    0.1192 C   0  0  0  0  0  0  0  0  0  0  0  0
    1.8987    1.7643    0.2914 C   0  0  0  0  0  0  0  0  0  0  0  0
    2.7779    0.7898    0.1215 N   0  0  0  0  0  0  0  0  0  0  0  0
    4.0730    1.2123    0.3934 C   0  0  0  0  0  0  0  0  0  0  0  0
    5.2071    0.3012    0.2378 C   0  0  0  0  0  0  0  0  0  0  0  0
    6.5370    0.7384    0.2800 C   0  0  0  0  0  0  0  0  0  0  0  0
    7.5909   -0.1707    0.1278 C   0  0  0  0  0  0  0  0  0  0  0  0
    7.3422   -1.5292   -0.0723 C   0  0  0  0  0  0  0  0  0  0  0  0
    8.4611   -2.3032   -0.2042 O   0  0  0  0  0  0  0  0  0  0  0  0
    8.2579   -3.6944   -0.4179 C   0  0  0  0  0  0  0  0  0  0  0  0
    6.0237   -1.9749   -0.1223 C   0  0  0  0  0  0  0  0  0  0  0  0
    4.9681   -1.0658    0.0301 C   0  0  0  0  0  0  0  0  0  0  0  0
    4.1603    2.5174    0.8297 C   0  0  0  0  0  0  0  0  0  0  0  0
    2.6060    3.2299    0.8898 S   0  0  0  0  0  0  0  0  0  0  0  0
   -0.3054    2.7076   -0.5547 C   0  0  0  0  0  0  0  0  0  0  0  0
    0.2002    3.7145   -1.0392 O   0  0  0  0  0  0  0  0  0  0  0  0
   -1.6843    2.5114   -0.6297 O   0  0  0  0  0  0  0  0  0  0  0  0
   -2.2967    1.3316   -0.1683 C   0  0  0  0  0  0  0  0  0  0  0  0
   -3.6816    1.2227   -0.3210 C   0  0  0  0  0  0  0  0  0  0  0  0
   -7.0627    1.3123    1.8823 H   0  0  0  0  0  0  0  0  0  0  0  0
   -7.4275    2.7369    0.8924 H   0  0  0  0  0  0  0  0  0  0  0  0
   -5.7532    2.3563    1.3143 H   0  0  0  0  0  0  0  0  0  0  0  0
   -7.6374    0.7382   -0.4643 H   0  0  0  0  0  0  0  0  0  0  0  0
   -6.3052    1.6797   -1.0862 H   0  0  0  0  0  0  0  0  0  0  0  0
   -5.7463   -2.2262   -0.1892 H   0  0  0  0  0  0  0  0  0  0  0  0
   -7.2877   -1.4644   -0.4480 H   0  0  0  0  0  0  0  0  0  0  0  0
   -6.4850   -0.5228   -2.6383 H   0  0  0  0  0  0  0  0  0  0  0  0
   -6.3713   -2.2893   -2.5803 H   0  0  0  0  0  0  0  0  0  0  0  0
   -4.9147   -1.3013   -2.3891 H   0  0  0  0  0  0  0  0  0  0  0  0
   -4.0557   -1.8369    1.0796 H   0  0  0  0  0  0  0  0  0  0  0  0
   -1.6393   -1.6353    1.3115 H   0  0  0  0  0  0  0  0  0  0  0  0
    0.4663   -0.2836    1.0143 H   0  0  0  0  0  0  0  0  0  0  0  0
    6.7867    1.7859    0.4202 H   0  0  0  0  0  0  0  0  0  0  0  0
    8.6176    0.1869    0.1623 H   0  0  0  0  0  0  0  0  0  0  0  0
    7.7411   -4.1529    0.4318 H   0  0  0  0  0  0  0  0  0  0  0  0
    7.7191   -3.8757   -1.3539 H   0  0  0  0  0  0  0  0  0  0  0  0
    9.2413   -4.1667   -0.5032 H   0  0  0  0  0  0  0  0  0  0  0  0
    5.7757   -3.0191   -0.2792 H   0  0  0  0  0  0  0  0  0  0  0  0
    3.9463   -1.4391   -0.0155 H   0  0  0  0  0  0  0  0  0  0  0  0
    5.0275    3.0881    1.1254 H   0  0  0  0  0  0  0  0  0  0  0  0
   -4.2038    2.0493   -0.7895 H   0  0  0  0  0  0  0  0  0  0  0  0
  1  2  1  0
  2  3  1  0
  3  4  1  0
  4  5  1  0
  3  6  1  0
  6  7  2  0
  7  8  1  0
  8  9  2  0
  9 10  1  0
 10 11  2  0
 11 12  1  0
 12 13  2  0
 13 14  1  0
 14 15  1  0
 15 16  2  0
 16 17  1  0
 17 18  2  0
 18 19  1  0
 19 20  1  0
 18 21  1  0
 21 22  2  0
 14 23  2  0
 23 24  1  0
 11 25  1  0
 25 26  2  0
 25 27  1  0
 27 28  1  0
 28 29  2  0
 29  6  1  0
 28  9  1  0
 24 12  1  0
 22 15  1  0
  1 30  1  0
  1 31  1  0
  1 32  1  0
  2 33  1  0
  2 34  1  0
  4 35  1  0
  4 36  1  0
  5 37  1  0
  5 38  1  0
  5 39  1  0
  7 40  1  0
  8 41  1  0
 10 42  1  0
 16 43  1  0
 17 44  1  0
 20 45  1  0
 20 46  1  0
 20 47  1  0
 21 48  1  0
 22 49  1  0
 23 50  1  0
 29 51  1  0
M  END
$$$$
