
     RDKit          3D

 51 53  0  0  0  0  0  0  0  0999 V2000
    8.1462   -0.0833    2.3427 C   0  0  0  0  0  0  0  0  0  0  0  0
    8.7254   -0.3013    1.0619 O   0  0  0  0  0  0  0  0  0  0  0  0
    7.8685   -0.3641   -0.0038 C   0  0  0  0  0  0  0  0  0  0  0  0
    8.4913   -0.5787   -1.2346 C   0  0  0  0  0  0  0  0  0  0  0  0
    7.7373   -0.6638   -2.4026 C   0  0  0  0  0  0  0  0  0  0  0  0
    6.3505   -0.5332   -2.3428 C   0  0  0  0  0  0  0  0  0  0  0  0
    5.7102   -0.3174   -1.1168 C   0  0  0  0  0  0  0  0  0  0  0  0
    4.3099   -0.1937   -1.1418 N   0  0  0  0  0  0  0  0  0  0  0  0
    3.4543    0.0114   -0.0799 C   0  0  0  0  0  0  0  0  0  0  0  0
    3.7085    0.1210    1.1112 O   0  0  0  0  0  0  0  0  0  0  0  0
    1.9840    0.1007   -0.5333 C   0  0  0  0  0  0  0  0  0  0  0  0
    1.7219   -0.0374   -1.7216 O   0  0  0  0  0  0  0  0  0  0  0  0
    1.1215    0.3226    0.5263 N   0  0  0  0  0  0  0  0  0  0  0  0
   -0.2492    0.2953    0.4909 N   0  0  0  0  0  0  0  0  0  0  0  0
   -0.8589    0.5801   -0.6139 C   0  0  0  0  0  0  0  0  0  0  0  0
   -2.3124    0.5306   -0.6822 C   0  0  0  0  0  0  0  0  0  0  0  0
   -3.0838    0.9527   -1.7923 C   0  0  0  0  0  0  0  0  0  0  0  0
   -4.4209    0.7888   -1.4910 C   0  0  0  0  0  0  0  0  0  0  0  0
   -5.5818    1.2003   -2.3320 C   0  0  0  0  0  0  0  0  0  0  0  0
   -4.5083    0.2658   -0.2045 N   0  0  0  0  0  0  0  0  0  0  0  0
   -5.7139    0.0179    0.5160 C   0  0  0  0  0  0  0  0  0  0  0  0
   -6.7908   -0.6252   -0.1036 C   0  0  0  0  0  0  0  0  0  0  0  0
   -7.9697   -0.8571    0.6102 C   0  0  0  0  0  0  0  0  0  0  0  0
   -8.0813   -0.4459    1.9416 C   0  0  0  0  0  0  0  0  0  0  0  0
   -9.5695   -0.7651    2.7583 Cl  0  0  0  0  0  0  0  0  0  0  0  0
   -7.0057    0.1983    2.5628 C   0  0  0  0  0  0  0  0  0  0  0  0
   -7.0743    0.7426    4.2016 Cl  0  0  0  0  0  0  0  0  0  0  0  0
   -5.8233    0.4289    1.8516 C   0  0  0  0  0  0  0  0  0  0  0  0
   -3.2114    0.0544    0.2681 C   0  0  0  0  0  0  0  0  0  0  0  0
   -2.9065   -0.6492    1.5547 C   0  0  0  0  0  0  0  0  0  0  0  0
    6.4769   -0.2332    0.0514 C   0  0  0  0  0  0  0  0  0  0  0  0
    7.4743   -0.9029    2.6178 H   0  0  0  0  0  0  0  0  0  0  0  0
    8.9585   -0.0597    3.0756 H   0  0  0  0  0  0  0  0  0  0  0  0
    7.6323    0.8829    2.3850 H   0  0  0  0  0  0  0  0  0  0  0  0
    9.5731   -0.6795   -1.2805 H   0  0  0  0  0  0  0  0  0  0  0  0
    8.2304   -0.8310   -3.3559 H   0  0  0  0  0  0  0  0  0  0  0  0
    5.7807   -0.6028   -3.2662 H   0  0  0  0  0  0  0  0  0  0  0  0
    3.8466   -0.2669   -2.0459 H   0  0  0  0  0  0  0  0  0  0  0  0
    1.5308    0.2584    1.4596 H   0  0  0  0  0  0  0  0  0  0  0  0
   -0.3503    0.9163   -1.5319 H   0  0  0  0  0  0  0  0  0  0  0  0
   -2.7022    1.3692   -2.7180 H   0  0  0  0  0  0  0  0  0  0  0  0
   -6.3489    1.7121   -1.7435 H   0  0  0  0  0  0  0  0  0  0  0  0
   -5.2592    1.8988   -3.1122 H   0  0  0  0  0  0  0  0  0  0  0  0
   -6.0235    0.3357   -2.8349 H   0  0  0  0  0  0  0  0  0  0  0  0
   -6.7190   -0.9940   -1.1233 H   0  0  0  0  0  0  0  0  0  0  0  0
   -8.7974   -1.3676    0.1221 H   0  0  0  0  0  0  0  0  0  0  0  0
   -5.0084    0.9624    2.3359 H   0  0  0  0  0  0  0  0  0  0  0  0
   -2.7132    0.0761    2.3513 H   0  0  0  0  0  0  0  0  0  0  0  0
   -3.7153   -1.3151    1.8681 H   0  0  0  0  0  0  0  0  0  0  0  0
   -2.0250   -1.2893    1.4496 H   0  0  0  0  0  0  0  0  0  0  0  0
    5.9911   -0.0657    1.0035 H   0  0  0  0  0  0  0  0  0  0  0  0
  1  2  1  0
  2  3  1  0
  3  4  2  0
  4  5  1  0
  5  6  2  0
  6  7  1  0
  7  8  1  0
  8  9  1  0
  9 10  2  0
  9 11  1  0
 11 12  2  0
 11 13  1  0
 13 14  1  0
 14 15  2  3
 15 16  1  0
 16 17  1  0
 17 18  2  0
 18 19  1  0
 18 20  1  0
 20 21  1  0
 21 22  2  0
 22 23  1  0
 23 24  2  0
 24 25  1  0
 24 26  1  0
 26 27  1  0
 26 28  2  0
 20 29  1  0
 29 30  1  0
  7 31  2  0
 31  3  1  0
 29 16  2  0
 28 21  1  0
  1 32  1  0
  1 33  1  0
  1 34  1  0
  4 35  1  0
  5 36  1  0
  6 37  1  0
  8 38  1  0
 13 39  1  0
 15 40  1  0
 17 41  1  0
 19 42  1  0
 19 43  1  0
 19 44  1  0
 22 45  1  0
 23 46  1  0
 28 47  1  0
 30 48  1  0
 30 49  1  0
 30 50  1  0
 31 51  1  0
M  END
$$$$
