
     RDKit          3D

 60 65  0  0  0  0  0  0  0  0999 V2000
    3.4852   -5.3542    1.6725 O   0  0  0  0  0  0  0  0  0  0  0  0
    3.1212   -4.2718    1.2257 C   0  0  0  0  0  0  0  0  0  0  0  0
    2.1160   -3.5275    1.8347 N   0  0  0  0  0  0  0  0  0  0  0  0
    1.6887   -2.2769    1.3913 C   0  0  0  0  0  0  0  0  0  0  0  0
    0.5583   -1.6602    2.2124 C   0  0  0  0  0  0  0  0  0  0  0  0
    0.5486   -0.1220    2.1601 C   0  0  0  0  0  0  0  0  0  0  0  0
   -0.5454    0.4508    1.2572 C   0  0  0  0  0  0  0  0  0  0  0  0
   -0.6832   -0.3996    0.0681 N   0  0  0  0  0  0  0  0  0  0  0  0
   -1.1304    0.3186   -1.3973 S   0  0  0  0  0  6  0  0  0  0  0  0
   -1.0888   -0.6991   -2.4264 O   0  0  0  0  0  0  0  0  0  0  0  0
   -0.3914    1.5549   -1.5440 O   0  0  0  0  0  0  0  0  0  0  0  0
   -2.8372    0.7430   -1.1269 C   0  0  0  0  0  0  0  0  0  0  0  0
   -3.8471   -0.1211   -1.5657 C   0  0  0  0  0  0  0  0  0  0  0  0
   -5.1843    0.2226   -1.3605 C   0  0  0  0  0  0  0  0  0  0  0  0
   -5.5042    1.4261   -0.7326 C   0  0  0  0  0  0  0  0  0  0  0  0
   -4.4894    2.3075   -0.3410 C   0  0  0  0  0  0  0  0  0  0  0  0
   -3.1526    1.9673   -0.5302 C   0  0  0  0  0  0  0  0  0  0  0  0
   -4.7369    3.5229    0.2435 O   0  0  0  0  0  0  0  0  0  0  0  0
   -6.1001    3.9217    0.0545 C   0  0  0  0  0  0  0  0  0  0  0  0
   -7.0409    2.7701    0.3674 C   0  0  0  0  0  0  0  0  0  0  0  0
   -6.8375    1.6852   -0.5452 O   0  0  0  0  0  0  0  0  0  0  0  0
   -1.1565   -1.7745    0.3291 C   0  0  0  0  0  0  0  0  0  0  0  0
   -0.7823   -2.2382    1.7425 C   0  0  0  0  0  0  0  0  0  0  0  0
    2.1565   -1.6880    0.3278 N   0  0  0  0  0  0  0  0  0  0  0  0
    3.1221   -2.4010   -0.2960 C   0  0  0  0  0  0  0  0  0  0  0  0
    3.6431   -3.6216    0.0545 C   0  0  0  0  0  0  0  0  0  0  0  0
    4.6004   -4.0056   -0.8333 N   0  0  0  0  0  0  0  0  0  0  0  0
    4.6928   -3.0462   -1.7562 N   0  0  0  0  0  0  0  0  0  0  0  0
    3.8010   -2.0748   -1.4337 N   0  0  0  0  0  0  0  0  0  0  0  0
    3.6164   -0.9144   -2.2815 C   0  0  0  0  0  0  0  0  0  0  0  0
    4.2297    0.3237   -1.6720 C   0  0  0  0  0  0  0  0  0  0  0  0
    3.4081    1.3401   -1.1569 C   0  0  0  0  0  0  0  0  0  0  0  0
    3.9712    2.4814   -0.5851 C   0  0  0  0  0  0  0  0  0  0  0  0
    5.3534    2.6072   -0.5246 C   0  0  0  0  0  0  0  0  0  0  0  0
    5.8927    3.7017    0.0285 F   0  0  0  0  0  0  0  0  0  0  0  0
    6.1850    1.6134   -1.0267 C   0  0  0  0  0  0  0  0  0  0  0  0
    5.6252    0.4713   -1.6013 C   0  0  0  0  0  0  0  0  0  0  0  0
    1.7332   -3.9443    2.6701 H   0  0  0  0  0  0  0  0  0  0  0  0
    0.7217   -1.9639    3.2551 H   0  0  0  0  0  0  0  0  0  0  0  0
    1.5255    0.2656    1.8466 H   0  0  0  0  0  0  0  0  0  0  0  0
    0.3885    0.2723    3.1717 H   0  0  0  0  0  0  0  0  0  0  0  0
   -1.5011    0.4911    1.7929 H   0  0  0  0  0  0  0  0  0  0  0  0
   -0.2766    1.4789    0.9960 H   0  0  0  0  0  0  0  0  0  0  0  0
   -3.6030   -1.0567   -2.0646 H   0  0  0  0  0  0  0  0  0  0  0  0
   -5.9766   -0.4461   -1.6871 H   0  0  0  0  0  0  0  0  0  0  0  0
   -2.3717    2.6610   -0.2295 H   0  0  0  0  0  0  0  0  0  0  0  0
   -6.2222    4.2719   -0.9779 H   0  0  0  0  0  0  0  0  0  0  0  0
   -6.2952    4.7636    0.7258 H   0  0  0  0  0  0  0  0  0  0  0  0
   -6.8920    2.3973    1.3881 H   0  0  0  0  0  0  0  0  0  0  0  0
   -8.0819    3.0939    0.2706 H   0  0  0  0  0  0  0  0  0  0  0  0
   -0.6883   -2.4465   -0.3996 H   0  0  0  0  0  0  0  0  0  0  0  0
   -2.2417   -1.8468    0.2082 H   0  0  0  0  0  0  0  0  0  0  0  0
   -0.7763   -3.3342    1.7730 H   0  0  0  0  0  0  0  0  0  0  0  0
   -1.5657   -1.9171    2.4416 H   0  0  0  0  0  0  0  0  0  0  0  0
    2.5387   -0.7942   -2.4422 H   0  0  0  0  0  0  0  0  0  0  0  0
    4.0699   -1.1203   -3.2580 H   0  0  0  0  0  0  0  0  0  0  0  0
    2.3234    1.2468   -1.1941 H   0  0  0  0  0  0  0  0  0  0  0  0
    3.3395    3.2695   -0.1885 H   0  0  0  0  0  0  0  0  0  0  0  0
    7.2620    1.7322   -0.9661 H   0  0  0  0  0  0  0  0  0  0  0  0
    6.2822   -0.3068   -1.9875 H   0  0  0  0  0  0  0  0  0  0  0  0
  1  2  2  0
  2  3  1  0
  3  4  1  0
  4  5  1  0
  5  6  1  0
  6  7  1  0
  7  8  1  0
  8  9  1  0
  9 10  2  0
  9 11  2  0
  9 12  1  0
 12 13  2  0
 13 14  1  0
 14 15  2  0
 15 16  1  0
 16 17  2  0
 16 18  1  0
 18 19  1  0
 19 20  1  0
 20 21  1  0
  8 22  1  0
 22 23  1  0
  4 24  2  0
 24 25  1  0
 25 26  2  0
 26 27  1  0
 27 28  2  0
 28 29  1  0
 29 30  1  0
 30 31  1  0
 31 32  2  0
 32 33  1  0
 33 34  2  0
 34 35  1  0
 34 36  1  0
 36 37  2  0
 26  2  1  0
 37 31  1  0
 23  5  1  0
 29 25  1  0
 17 12  1  0
 21 15  1  0
  3 38  1  0
  5 39  1  0
  6 40  1  0
  6 41  1  0
  7 42  1  0
  7 43  1  0
 13 44  1  0
 14 45  1  0
 17 46  1  0
 19 47  1  0
 19 48  1  0
 20 49  1  0
 20 50  1  0
 22 51  1  0
 22 52  1  0
 23 53  1  0
 23 54  1  0
 30 55  1  0
 30 56  1  0
 32 57  1  0
 33 58  1  0
 36 59  1  0
 37 60  1  0
M  END
$$$$
