
     RDKit          3D

 41 42  0  0  0  0  0  0  0  0999 V2000
   -4.8059    2.0706   -0.6614 C   0  0  0  0  0  0  0  0  0  0  0  0
   -4.5519    0.6080   -0.9971 C   0  0  0  0  0  0  0  0  0  0  0  0
   -3.6727   -0.0176   -0.0000 N   0  0  0  0  0  0  0  0  0  0  0  0
   -4.3516   -0.6751    1.1245 C   0  0  0  0  0  0  0  0  0  0  0  0
   -4.5987   -2.1475    0.8285 C   0  0  0  0  0  0  0  0  0  0  0  0
   -2.2869    0.0140   -0.1122 C   0  0  0  0  0  0  0  0  0  0  0  0
   -1.6285    0.7502   -1.1117 C   0  0  0  0  0  0  0  0  0  0  0  0
   -0.2287    0.7894   -1.2294 C   0  0  0  0  0  0  0  0  0  0  0  0
    0.5805    0.0924   -0.3350 C   0  0  0  0  0  0  0  0  0  0  0  0
    2.0464    0.0770   -0.4303 C   0  0  0  0  0  0  0  0  0  0  0  0
    2.7790    1.1371   -0.8049 C   0  0  0  0  0  0  0  0  0  0  0  0
    4.2592    1.1238   -0.9351 C   0  0  0  0  0  0  0  0  0  0  0  0
    4.7935    1.8248   -1.7892 O   0  0  0  0  0  0  0  0  0  0  0  0
    5.0901    0.2897   -0.0448 C   0  0  0  0  0  0  0  0  0  0  0  0
    4.7879    0.0705    1.3010 C   0  0  0  0  0  0  0  0  0  0  0  0
    5.6423   -0.7162    2.0716 C   0  0  0  0  0  0  0  0  0  0  0  0
    6.7737   -1.2461    1.4702 C   0  0  0  0  0  0  0  0  0  0  0  0
    7.1029   -1.0375    0.1769 N   0  0  0  0  0  0  0  0  0  0  0  0
    6.2601   -0.2620   -0.5501 C   0  0  0  0  0  0  0  0  0  0  0  0
   -0.0437   -0.6632    0.6553 C   0  0  0  0  0  0  0  0  0  0  0  0
   -1.4443   -0.6921    0.7627 C   0  0  0  0  0  0  0  0  0  0  0  0
   -5.4791    2.5162   -1.4005 H   0  0  0  0  0  0  0  0  0  0  0  0
   -5.2703    2.1727    0.3250 H   0  0  0  0  0  0  0  0  0  0  0  0
   -3.8794    2.6524   -0.6528 H   0  0  0  0  0  0  0  0  0  0  0  0
   -4.1573    0.5009   -2.0137 H   0  0  0  0  0  0  0  0  0  0  0  0
   -5.5171    0.0857   -1.0167 H   0  0  0  0  0  0  0  0  0  0  0  0
   -3.8004   -0.5505    2.0633 H   0  0  0  0  0  0  0  0  0  0  0  0
   -5.3205   -0.1915    1.3040 H   0  0  0  0  0  0  0  0  0  0  0  0
   -5.1229   -2.6181    1.6662 H   0  0  0  0  0  0  0  0  0  0  0  0
   -5.2144   -2.2703   -0.0686 H   0  0  0  0  0  0  0  0  0  0  0  0
   -3.6636   -2.6915    0.6651 H   0  0  0  0  0  0  0  0  0  0  0  0
   -2.1880    1.3303   -1.8389 H   0  0  0  0  0  0  0  0  0  0  0  0
    0.2039    1.3680   -2.0419 H   0  0  0  0  0  0  0  0  0  0  0  0
    2.5144   -0.8703   -0.1738 H   0  0  0  0  0  0  0  0  0  0  0  0
    2.3237    2.0742   -1.1102 H   0  0  0  0  0  0  0  0  0  0  0  0
    3.9112    0.5160    1.7623 H   0  0  0  0  0  0  0  0  0  0  0  0
    5.4363   -0.9049    3.1197 H   0  0  0  0  0  0  0  0  0  0  0  0
    7.4695   -1.8647    2.0307 H   0  0  0  0  0  0  0  0  0  0  0  0
    6.5622   -0.0982   -1.5819 H   0  0  0  0  0  0  0  0  0  0  0  0
    0.5433   -1.2402    1.3660 H   0  0  0  0  0  0  0  0  0  0  0  0
   -1.8541   -1.3064    1.5582 H   0  0  0  0  0  0  0  0  0  0  0  0
  1  2  1  0
  2  3  1  0
  3  4  1  0
  4  5  1  0
  3  6  1  0
  6  7  2  0
  7  8  1  0
  8  9  2  0
  9 10  1  0
 10 11  2  3
 11 12  1  0
 12 13  2  0
 12 14  1  0
 14 15  2  0
 15 16  1  0
 16 17  2  0
 17 18  1  0
 18 19  2  0
  9 20  1  0
 20 21  2  0
 21  6  1  0
 19 14  1  0
  1 22  1  0
  1 23  1  0
  1 24  1  0
  2 25  1  0
  2 26  1  0
  4 27  1  0
  4 28  1  0
  5 29  1  0
  5 30  1  0
  5 31  1  0
  7 32  1  0
  8 33  1  0
 10 34  1  0
 11 35  1  0
 15 36  1  0
 16 37  1  0
 17 38  1  0
 19 39  1  0
 20 40  1  0
 21 41  1  0
M  END
$$$$
