
     RDKit          3D

 27 27  0  0  0  0  0  0  0  0999 V2000
   -2.2250   -0.0937    0.3522 C   0  0  0  0  0  0  0  0  0  0  0  0
   -1.2269    0.4238   -0.6939 C   0  0  0  0  0  0  0  0  0  0  0  0
   -0.6746    1.7781   -0.2426 C   0  0  0  0  0  0  0  0  0  0  0  0
   -1.9678    0.6113   -2.0309 C   0  0  0  0  0  0  0  0  0  0  0  0
    0.1067   -0.7850   -0.9723 S   0  0  0  0  0  6  0  0  0  0  0  0
   -0.4870   -2.0853   -1.2227 O   0  0  0  0  0  0  0  0  0  0  0  0
    1.1028   -0.2492   -1.8766 O   0  0  0  0  0  0  0  0  0  0  0  0
    0.9363   -1.0187    0.5422 C   0  0  0  0  0  0  0  0  0  0  0  0
    0.4412   -1.9187    1.5445 C   0  0  0  0  0  0  0  0  0  0  0  0
    1.2897   -2.0214    2.6221 C   0  0  0  0  0  0  0  0  0  0  0  0
    2.6930   -1.0734    2.4177 S   0  0  0  0  0  0  0  0  0  0  0  0
    2.1649   -0.4844    0.8919 C   0  0  0  0  0  0  0  0  0  0  0  0
    3.0367    0.4275    0.2002 C   0  0  0  0  0  0  0  0  0  0  0  0
    4.2445    0.3446    0.0346 O   0  0  0  0  0  0  0  0  0  0  0  0
    2.3712    1.5271   -0.2087 O   0  0  0  0  0  0  0  0  0  0  0  0
   -3.0845    0.5807    0.4419 H   0  0  0  0  0  0  0  0  0  0  0  0
   -2.6097   -1.0846    0.0887 H   0  0  0  0  0  0  0  0  0  0  0  0
   -1.7696   -0.1651    1.3445 H   0  0  0  0  0  0  0  0  0  0  0  0
    0.0079    2.1984   -0.9880 H   0  0  0  0  0  0  0  0  0  0  0  0
   -0.1380    1.6982    0.7079 H   0  0  0  0  0  0  0  0  0  0  0  0
   -1.4834    2.5038   -0.0980 H   0  0  0  0  0  0  0  0  0  0  0  0
   -2.3937   -0.3341   -2.3855 H   0  0  0  0  0  0  0  0  0  0  0  0
   -1.2921    0.9785   -2.8115 H   0  0  0  0  0  0  0  0  0  0  0  0
   -2.7881    1.3312   -1.9338 H   0  0  0  0  0  0  0  0  0  0  0  0
   -0.4810   -2.4844    1.4639 H   0  0  0  0  0  0  0  0  0  0  0  0
    1.1661   -2.6295    3.5087 H   0  0  0  0  0  0  0  0  0  0  0  0
    3.0605    2.0243   -0.6967 H   0  0  0  0  0  0  0  0  0  0  0  0
  1  2  1  0
  2  3  1  0
  2  4  1  0
  2  5  1  0
  5  6  2  0
  5  7  2  0
  5  8  1  0
  8  9  1  0
  9 10  2  0
 10 11  1  0
 11 12  1  0
 12 13  1  0
 13 14  2  0
 13 15  1  0
 12  8  2  0
  1 16  1  0
  1 17  1  0
  1 18  1  0
  3 19  1  0
  3 20  1  0
  3 21  1  0
  4 22  1  0
  4 23  1  0
  4 24  1  0
  9 25  1  0
 10 26  1  0
 15 27  1  0
M  END
$$$$
