
     RDKit          3D

 49 53  0  0  0  0  0  0  0  0999 V2000
    4.5833   -2.3122   -0.9455 C   0  0  0  0  0  0  0  0  0  0  0  0
    4.2183   -1.1301   -0.1051 C   0  0  0  0  0  0  0  0  0  0  0  0
    5.4463   -0.0482    0.3754 S   0  0  0  0  0  0  0  0  0  0  0  0
    4.3480    0.9367    1.2153 C   0  0  0  0  0  0  0  0  0  0  0  0
    4.7975    2.0308    1.8534 N   0  0  0  0  0  0  0  0  0  0  0  0
    3.8272    2.7046    2.4675 C   0  0  0  0  0  0  0  0  0  0  0  0
    2.5208    2.4179    2.4650 N   0  0  0  0  0  0  0  0  0  0  0  0
    2.1062    1.3242    1.7897 C   0  0  0  0  0  0  0  0  0  0  0  0
    0.3575    1.0584    1.7542 S   0  0  0  0  0  0  0  0  0  0  0  0
   -0.0695    1.8928    0.1593 C   0  0  0  0  0  0  0  0  0  0  0  0
    0.3108    3.3743    0.1808 C   0  0  0  0  0  0  0  0  0  0  0  0
   -1.5923    1.7465   -0.1033 C   0  0  0  0  0  0  0  0  0  0  0  0
   -2.3138    2.7219   -0.3311 O   0  0  0  0  0  0  0  0  0  0  0  0
   -2.0575    0.4214   -0.1149 N   0  0  0  0  0  0  0  0  0  0  0  0
   -1.6971   -0.4525   -1.2017 C   0  0  0  0  0  0  0  0  0  0  0  0
   -1.1418    0.0956   -2.3773 C   0  0  0  0  0  0  0  0  0  0  0  0
   -0.7641   -0.7083   -3.4571 C   0  0  0  0  0  0  0  0  0  0  0  0
   -0.9317   -2.0837   -3.3905 C   0  0  0  0  0  0  0  0  0  0  0  0
   -1.4955   -2.6476   -2.2509 C   0  0  0  0  0  0  0  0  0  0  0  0
   -1.8946   -1.8430   -1.1679 C   0  0  0  0  0  0  0  0  0  0  0  0
   -2.6006   -2.6824    0.2187 S   0  0  0  0  0  0  0  0  0  0  0  0
   -3.4390   -1.3372    1.0081 C   0  0  0  0  0  0  0  0  0  0  0  0
   -4.4552   -1.6876    1.9165 C   0  0  0  0  0  0  0  0  0  0  0  0
   -5.1342   -0.7142    2.6424 C   0  0  0  0  0  0  0  0  0  0  0  0
   -4.7808    0.6173    2.4855 C   0  0  0  0  0  0  0  0  0  0  0  0
   -3.7649    0.9719    1.5922 C   0  0  0  0  0  0  0  0  0  0  0  0
   -3.0867    0.0104    0.8110 C   0  0  0  0  0  0  0  0  0  0  0  0
    3.0337    0.4870    1.1393 C   0  0  0  0  0  0  0  0  0  0  0  0
    2.9704   -0.7650    0.3918 C   0  0  0  0  0  0  0  0  0  0  0  0
    1.7329   -1.5769    0.1715 C   0  0  0  0  0  0  0  0  0  0  0  0
    3.7970   -2.5224   -1.6789 H   0  0  0  0  0  0  0  0  0  0  0  0
    4.7084   -3.1971   -0.3179 H   0  0  0  0  0  0  0  0  0  0  0  0
    5.5136   -2.1539   -1.5048 H   0  0  0  0  0  0  0  0  0  0  0  0
    4.1283    3.5887    3.0221 H   0  0  0  0  0  0  0  0  0  0  0  0
    0.4869    1.4047   -0.6456 H   0  0  0  0  0  0  0  0  0  0  0  0
    1.3910    3.5128    0.2818 H   0  0  0  0  0  0  0  0  0  0  0  0
    0.0219    3.8598   -0.7554 H   0  0  0  0  0  0  0  0  0  0  0  0
   -0.1852    3.9062    0.9937 H   0  0  0  0  0  0  0  0  0  0  0  0
   -1.0206    1.1683   -2.4983 H   0  0  0  0  0  0  0  0  0  0  0  0
   -0.3492   -0.2538   -4.3494 H   0  0  0  0  0  0  0  0  0  0  0  0
   -0.6390   -2.7168   -4.2247 H   0  0  0  0  0  0  0  0  0  0  0  0
   -1.6267   -3.7295   -2.2138 H   0  0  0  0  0  0  0  0  0  0  0  0
   -4.7321   -2.7255    2.0632 H   0  0  0  0  0  0  0  0  0  0  0  0
   -5.9251   -0.9984    3.3319 H   0  0  0  0  0  0  0  0  0  0  0  0
   -5.2994    1.3887    3.0481 H   0  0  0  0  0  0  0  0  0  0  0  0
   -3.5436    2.0255    1.5099 H   0  0  0  0  0  0  0  0  0  0  0  0
    1.9645   -2.5975   -0.1584 H   0  0  0  0  0  0  0  0  0  0  0  0
    1.1542   -1.6741    1.0924 H   0  0  0  0  0  0  0  0  0  0  0  0
    1.1216   -1.1086   -0.6031 H   0  0  0  0  0  0  0  0  0  0  0  0
  1  2  1  0
  2  3  1  0
  3  4  1  0
  4  5  2  0
  5  6  1  0
  6  7  2  0
  7  8  1  0
  8  9  1  0
  9 10  1  0
 10 11  1  0
 10 12  1  0
 12 13  2  0
 12 14  1  0
 14 15  1  0
 15 16  2  0
 16 17  1  0
 17 18  2  0
 18 19  1  0
 19 20  2  0
 20 21  1  0
 21 22  1  0
 22 23  2  0
 23 24  1  0
 24 25  2  0
 25 26  1  0
 26 27  2  0
  8 28  2  0
 28 29  1  0
 29 30  1  0
 29  2  2  0
 28  4  1  0
 27 14  1  0
 20 15  1  0
 27 22  1  0
  1 31  1  0
  1 32  1  0
  1 33  1  0
  6 34  1  0
 10 35  1  0
 11 36  1  0
 11 37  1  0
 11 38  1  0
 16 39  1  0
 17 40  1  0
 18 41  1  0
 19 42  1  0
 23 43  1  0
 24 44  1  0
 25 45  1  0
 26 46  1  0
 30 47  1  0
 30 48  1  0
 30 49  1  0
M  END
$$$$
