
     RDKit          3D

 39 40  0  0  0  0  0  0  0  0999 V2000
   -1.4512    0.5237   -2.2811 C   0  0  0  0  0  0  0  0  0  0  0  0
   -2.3876    0.3215   -1.1074 C   0  0  0  0  0  0  0  0  0  0  0  0
   -1.9410    0.1725    0.1530 C   0  0  0  0  0  0  0  0  0  0  0  0
   -0.4941    0.2007    0.4487 C   0  0  0  0  0  0  0  0  0  0  0  0
    0.2156   -0.8818    0.4982 N   0  0  0  0  0  0  0  0  0  0  0  0
    1.5599   -0.7257    0.7195 N   0  0  0  0  0  0  0  0  0  0  0  0
    2.3560    0.1950    0.0484 C   0  0  0  0  0  0  0  0  0  0  0  0
    1.9269    1.0842   -0.6834 O   0  0  0  0  0  0  0  0  0  0  0  0
    3.8373    0.0512    0.2308 C   0  0  0  0  0  0  0  0  0  0  0  0
    4.6473    1.0848   -0.2685 C   0  0  0  0  0  0  0  0  0  0  0  0
    6.0343    1.0138   -0.1451 C   0  0  0  0  0  0  0  0  0  0  0  0
    7.1086    2.4083   -0.8357 Br  0  0  0  0  0  0  0  0  0  0  0  0
    6.6374   -0.0802    0.4700 C   0  0  0  0  0  0  0  0  0  0  0  0
    5.8478   -1.1216    0.9598 C   0  0  0  0  0  0  0  0  0  0  0  0
    4.4561   -1.0572    0.8376 C   0  0  0  0  0  0  0  0  0  0  0  0
    3.7082   -2.1060    1.3083 O   0  0  0  0  0  0  0  0  0  0  0  0
   -2.8956    0.0035    1.2634 C   0  0  0  0  0  0  0  0  0  0  0  0
   -2.4990    0.0515    2.4259 O   0  0  0  0  0  0  0  0  0  0  0  0
   -4.2160   -0.1824    0.9081 N   0  0  0  0  0  0  0  0  0  0  0  0
   -5.1822   -0.4307    1.9631 C   0  0  0  0  0  0  0  0  0  0  0  0
   -4.7120    0.0240   -0.3727 C   0  0  0  0  0  0  0  0  0  0  0  0
   -5.9179   -0.0232   -0.6106 O   0  0  0  0  0  0  0  0  0  0  0  0
   -3.7624    0.2989   -1.3641 N   0  0  0  0  0  0  0  0  0  0  0  0
   -4.2610    0.5136   -2.7239 C   0  0  0  0  0  0  0  0  0  0  0  0
   -1.6647   -0.1938   -3.0823 H   0  0  0  0  0  0  0  0  0  0  0  0
   -0.3971    0.3882   -2.0286 H   0  0  0  0  0  0  0  0  0  0  0  0
   -1.5564    1.5403   -2.6792 H   0  0  0  0  0  0  0  0  0  0  0  0
   -0.0851    1.2071    0.6439 H   0  0  0  0  0  0  0  0  0  0  0  0
    2.0280   -1.5672    1.0597 H   0  0  0  0  0  0  0  0  0  0  0  0
    4.1909    1.9437   -0.7575 H   0  0  0  0  0  0  0  0  0  0  0  0
    7.7193   -0.1358    0.5638 H   0  0  0  0  0  0  0  0  0  0  0  0
    6.3358   -1.9731    1.4262 H   0  0  0  0  0  0  0  0  0  0  0  0
    4.3019   -2.7830    1.6882 H   0  0  0  0  0  0  0  0  0  0  0  0
   -5.9143   -1.1740    1.6304 H   0  0  0  0  0  0  0  0  0  0  0  0
   -5.7048    0.5043    2.1839 H   0  0  0  0  0  0  0  0  0  0  0  0
   -4.7042   -0.7972    2.8728 H   0  0  0  0  0  0  0  0  0  0  0  0
   -5.3519    0.6013   -2.7563 H   0  0  0  0  0  0  0  0  0  0  0  0
   -3.9703   -0.3407   -3.3538 H   0  0  0  0  0  0  0  0  0  0  0  0
   -3.8429    1.4414   -3.1332 H   0  0  0  0  0  0  0  0  0  0  0  0
  1  2  1  0
  2  3  2  0
  3  4  1  0
  4  5  2  3
  5  6  1  0
  6  7  1  0
  7  8  2  0
  7  9  1  0
  9 10  2  0
 10 11  1  0
 11 12  1  0
 11 13  2  0
 13 14  1  0
 14 15  2  0
 15 16  1  0
  3 17  1  0
 17 18  2  0
 17 19  1  0
 19 20  1  0
 19 21  1  0
 21 22  2  0
 21 23  1  0
 23 24  1  0
 23  2  1  0
 15  9  1  0
  1 25  1  0
  1 26  1  0
  1 27  1  0
  4 28  1  0
  6 29  1  0
 10 30  1  0
 13 31  1  0
 14 32  1  0
 16 33  1  0
 20 34  1  0
 20 35  1  0
 20 36  1  0
 24 37  1  0
 24 38  1  0
 24 39  1  0
M  END
$$$$
