
     RDKit          3D

 55 58  0  0  0  0  0  0  0  0999 V2000
    8.9193   -0.5316   -0.9179 C   0  0  0  0  0  0  0  0  0  0  0  0
    7.9846    0.0573   -0.0264 O   0  0  0  0  0  0  0  0  0  0  0  0
    6.6496   -0.1252   -0.2875 C   0  0  0  0  0  0  0  0  0  0  0  0
    6.1480   -0.8087   -1.4009 C   0  0  0  0  0  0  0  0  0  0  0  0
    4.7691   -0.9433   -1.5886 C   0  0  0  0  0  0  0  0  0  0  0  0
    3.8818   -0.3892   -0.6632 C   0  0  0  0  0  0  0  0  0  0  0  0
    2.4063   -0.5193   -0.8190 C   0  0  0  0  0  0  0  0  0  0  0  0
    1.8616   -0.3923   -2.2081 C   0  0  0  0  0  0  0  0  0  0  0  0
    0.5246   -0.5020   -2.3408 C   0  0  0  0  0  0  0  0  0  0  0  0
   -0.1871   -0.3756   -3.6328 C   0  0  0  0  0  0  0  0  0  0  0  0
   -0.8725   -1.4932   -3.9750 F   0  0  0  0  0  0  0  0  0  0  0  0
   -1.0518    0.6689   -3.6560 F   0  0  0  0  0  0  0  0  0  0  0  0
    0.6882   -0.1503   -4.6548 F   0  0  0  0  0  0  0  0  0  0  0  0
   -0.2614   -0.7298   -1.2174 N   0  0  0  0  0  0  0  0  0  0  0  0
   -1.6065   -0.8642   -1.1409 N   0  0  0  0  0  0  0  0  0  0  0  0
   -1.8703   -1.0924    0.1559 C   0  0  0  0  0  0  0  0  0  0  0  0
   -3.2341   -1.3355    0.6425 C   0  0  0  0  0  0  0  0  0  0  0  0
   -3.7978   -2.4032    0.4027 O   0  0  0  0  0  0  0  0  0  0  0  0
   -3.8259   -0.3322    1.4195 N   0  0  0  0  0  0  0  0  0  0  0  0
   -3.2992    1.0199    1.5681 C   0  0  0  0  0  0  0  0  0  0  0  0
   -5.1501   -0.5880    1.9804 C   0  0  0  0  0  0  0  0  0  0  0  0
   -6.2585    0.1121    1.2283 C   0  0  0  0  0  0  0  0  0  0  0  0
   -7.0037    1.1320    1.8389 C   0  0  0  0  0  0  0  0  0  0  0  0
   -8.0254    1.7782    1.1402 C   0  0  0  0  0  0  0  0  0  0  0  0
   -8.3133    1.4122   -0.1734 C   0  0  0  0  0  0  0  0  0  0  0  0
   -7.5822    0.3986   -0.7896 C   0  0  0  0  0  0  0  0  0  0  0  0
   -6.5615   -0.2498   -0.0927 C   0  0  0  0  0  0  0  0  0  0  0  0
   -0.6905   -1.0796    0.9320 C   0  0  0  0  0  0  0  0  0  0  0  0
    0.3290   -0.8319    0.0465 C   0  0  0  0  0  0  0  0  0  0  0  0
    1.6733   -0.7068    0.2412 N   0  0  0  0  0  0  0  0  0  0  0  0
    4.3763    0.2825    0.4621 C   0  0  0  0  0  0  0  0  0  0  0  0
    5.7551    0.4230    0.6541 C   0  0  0  0  0  0  0  0  0  0  0  0
    6.3253    1.0810    1.7155 O   0  0  0  0  0  0  0  0  0  0  0  0
    5.4651    1.5104    2.7627 C   0  0  0  0  0  0  0  0  0  0  0  0
    8.8102   -1.6203   -0.9447 H   0  0  0  0  0  0  0  0  0  0  0  0
    8.8347   -0.1024   -1.9212 H   0  0  0  0  0  0  0  0  0  0  0  0
    9.9224   -0.3078   -0.5442 H   0  0  0  0  0  0  0  0  0  0  0  0
    6.8053   -1.2577   -2.1372 H   0  0  0  0  0  0  0  0  0  0  0  0
    4.4125   -1.5050   -2.4480 H   0  0  0  0  0  0  0  0  0  0  0  0
    2.5194   -0.1839   -3.0421 H   0  0  0  0  0  0  0  0  0  0  0  0
   -3.2245    1.2481    2.6359 H   0  0  0  0  0  0  0  0  0  0  0  0
   -2.3173    1.1532    1.1127 H   0  0  0  0  0  0  0  0  0  0  0  0
   -3.9846    1.7287    1.0935 H   0  0  0  0  0  0  0  0  0  0  0  0
   -5.1276   -0.2616    3.0280 H   0  0  0  0  0  0  0  0  0  0  0  0
   -5.3672   -1.6627    2.0045 H   0  0  0  0  0  0  0  0  0  0  0  0
   -6.7942    1.4303    2.8635 H   0  0  0  0  0  0  0  0  0  0  0  0
   -8.5984    2.5665    1.6213 H   0  0  0  0  0  0  0  0  0  0  0  0
   -9.1080    1.9150   -0.7181 H   0  0  0  0  0  0  0  0  0  0  0  0
   -7.8046    0.1101   -1.8137 H   0  0  0  0  0  0  0  0  0  0  0  0
   -6.0009   -1.0428   -0.5855 H   0  0  0  0  0  0  0  0  0  0  0  0
   -0.5936   -1.2358    1.9966 H   0  0  0  0  0  0  0  0  0  0  0  0
    3.6645    0.6935    1.1708 H   0  0  0  0  0  0  0  0  0  0  0  0
    4.9190    0.6676    3.2003 H   0  0  0  0  0  0  0  0  0  0  0  0
    6.0890    1.9461    3.5474 H   0  0  0  0  0  0  0  0  0  0  0  0
    4.7787    2.2890    2.4133 H   0  0  0  0  0  0  0  0  0  0  0  0
  1  2  1  0
  2  3  1  0
  3  4  2  0
  4  5  1  0
  5  6  2  0
  6  7  1  0
  7  8  1  0
  8  9  2  0
  9 10  1  0
 10 11  1  0
 10 12  1  0
 10 13  1  0
  9 14  1  0
 14 15  1  0
 15 16  2  0
 16 17  1  0
 17 18  2  0
 17 19  1  0
 19 20  1  0
 19 21  1  0
 21 22  1  0
 22 23  2  0
 23 24  1  0
 24 25  2  0
 25 26  1  0
 26 27  2  0
 16 28  1  0
 28 29  2  0
 29 30  1  0
  6 31  1  0
 31 32  2  0
 32 33  1  0
 33 34  1  0
 32  3  1  0
 30  7  2  0
 29 14  1  0
 27 22  1  0
  1 35  1  0
  1 36  1  0
  1 37  1  0
  4 38  1  0
  5 39  1  0
  8 40  1  0
 20 41  1  0
 20 42  1  0
 20 43  1  0
 21 44  1  0
 21 45  1  0
 23 46  1  0
 24 47  1  0
 25 48  1  0
 26 49  1  0
 27 50  1  0
 28 51  1  0
 31 52  1  0
 34 53  1  0
 34 54  1  0
 34 55  1  0
M  END
$$$$
