
     RDKit          3D

 55 60  0  0  0  0  0  0  0  0999 V2000
    3.8271   -1.3259    2.8256 O   0  0  0  0  0  0  0  0  0  0  0  0
    3.8824   -0.5693    1.8572 C   0  0  0  0  0  0  0  0  0  0  0  0
    5.0417    0.2920    1.6746 C   0  0  0  0  0  0  0  0  0  0  0  0
    5.8641    0.8531    2.6973 C   0  0  0  0  0  0  0  0  0  0  0  0
    6.8574    1.5605    2.0641 C   0  0  0  0  0  0  0  0  0  0  0  0
    6.7255    1.4542    0.7181 O   0  0  0  0  0  0  0  0  0  0  0  0
    5.6427    0.6674    0.4893 C   0  0  0  0  0  0  0  0  0  0  0  0
    2.8427   -0.5132    0.9204 N   0  0  0  0  0  0  0  0  0  0  0  0
    1.7874   -1.5108    1.0361 C   0  0  0  0  0  0  0  0  0  0  0  0
    1.0061   -1.6777   -0.2629 C   0  0  0  0  0  0  0  0  0  0  0  0
    0.4115   -0.3444   -0.8112 C   0  0  0  0  0  0  0  0  0  0  0  0
    1.0673    0.8700   -0.1046 C   0  0  0  0  0  0  0  0  0  0  0  0
    2.5677    0.6542    0.0846 C   0  0  0  0  0  0  0  0  0  0  0  0
    0.8444   -0.3309   -2.2037 O   0  0  0  0  0  0  0  0  0  0  0  0
    0.1738    0.4740   -3.0775 C   0  0  0  0  0  0  0  0  0  0  0  0
    0.7616    0.6409   -4.3325 C   0  0  0  0  0  0  0  0  0  0  0  0
    0.1604    1.4717   -5.2799 C   0  0  0  0  0  0  0  0  0  0  0  0
   -1.0256    2.1287   -4.9659 C   0  0  0  0  0  0  0  0  0  0  0  0
   -1.5946    2.9291   -5.8759 F   0  0  0  0  0  0  0  0  0  0  0  0
   -1.6286    1.9646   -3.7262 C   0  0  0  0  0  0  0  0  0  0  0  0
   -1.0251    1.1220   -2.7901 C   0  0  0  0  0  0  0  0  0  0  0  0
   -1.6399    0.9028   -1.4750 C   0  0  0  0  0  0  0  0  0  0  0  0
   -2.4827    1.6891   -1.0524 O   0  0  0  0  0  0  0  0  0  0  0  0
   -1.1406   -0.3175   -0.7118 C   0  0  0  0  0  0  0  0  0  0  0  0
   -1.7057   -0.3636    0.6993 C   0  0  0  0  0  0  0  0  0  0  0  0
   -2.9035   -1.2127    0.4353 C   0  0  0  0  0  0  0  0  0  0  0  0
   -4.0096   -1.3456    1.4126 C   0  0  0  0  0  0  0  0  0  0  0  0
   -5.1404   -2.0939    1.0570 C   0  0  0  0  0  0  0  0  0  0  0  0
   -6.2004   -2.2426    1.9558 C   0  0  0  0  0  0  0  0  0  0  0  0
   -6.1304   -1.6445    3.2115 C   0  0  0  0  0  0  0  0  0  0  0  0
   -7.4324   -1.8261    4.3203 Cl  0  0  0  0  0  0  0  0  0  0  0  0
   -5.0093   -0.9001    3.5759 C   0  0  0  0  0  0  0  0  0  0  0  0
   -3.9469   -0.7498    2.6779 C   0  0  0  0  0  0  0  0  0  0  0  0
   -2.8777   -1.8465   -0.6939 N   0  0  0  0  0  0  0  0  0  0  0  0
   -1.6919   -1.4749   -1.3640 O   0  0  0  0  0  0  0  0  0  0  0  0
    5.7347    0.7451    3.7658 H   0  0  0  0  0  0  0  0  0  0  0  0
    7.6959    2.1499    2.4085 H   0  0  0  0  0  0  0  0  0  0  0  0
    5.4415    0.4590   -0.5521 H   0  0  0  0  0  0  0  0  0  0  0  0
    1.1307   -1.2033    1.8575 H   0  0  0  0  0  0  0  0  0  0  0  0
    2.2279   -2.4729    1.3234 H   0  0  0  0  0  0  0  0  0  0  0  0
    1.6836   -2.1167   -1.0086 H   0  0  0  0  0  0  0  0  0  0  0  0
    0.2256   -2.4299   -0.1027 H   0  0  0  0  0  0  0  0  0  0  0  0
    0.6090    1.0397    0.8771 H   0  0  0  0  0  0  0  0  0  0  0  0
    0.9284    1.7879   -0.6868 H   0  0  0  0  0  0  0  0  0  0  0  0
    3.0541    0.4918   -0.8832 H   0  0  0  0  0  0  0  0  0  0  0  0
    2.9991    1.5504    0.5417 H   0  0  0  0  0  0  0  0  0  0  0  0
    1.6903    0.1286   -4.5727 H   0  0  0  0  0  0  0  0  0  0  0  0
    0.6088    1.6118   -6.2590 H   0  0  0  0  0  0  0  0  0  0  0  0
   -2.5592    2.4791   -3.5057 H   0  0  0  0  0  0  0  0  0  0  0  0
   -1.9580    0.6150    1.1130 H   0  0  0  0  0  0  0  0  0  0  0  0
   -1.0691   -0.9040    1.4035 H   0  0  0  0  0  0  0  0  0  0  0  0
   -5.2060   -2.5645    0.0773 H   0  0  0  0  0  0  0  0  0  0  0  0
   -7.0728   -2.8236    1.6679 H   0  0  0  0  0  0  0  0  0  0  0  0
   -4.9565   -0.4345    4.5571 H   0  0  0  0  0  0  0  0  0  0  0  0
   -3.0864   -0.1671    2.9924 H   0  0  0  0  0  0  0  0  0  0  0  0
  1  2  2  0
  2  3  1  0
  3  4  1  0
  4  5  2  0
  5  6  1  0
  6  7  1  0
  2  8  1  0
  8  9  1  0
  9 10  1  0
 10 11  1  0
 11 12  1  0
 12 13  1  0
 11 14  1  0
 14 15  1  0
 15 16  2  0
 16 17  1  0
 17 18  2  0
 18 19  1  0
 18 20  1  0
 20 21  2  0
 21 22  1  0
 22 23  2  0
 22 24  1  0
 24 25  1  0
 25 26  1  0
 26 27  1  0
 27 28  2  0
 28 29  1  0
 29 30  2  0
 30 31  1  0
 30 32  1  0
 32 33  2  0
 26 34  2  0
 34 35  1  0
  7  3  2  0
 13  8  1  0
 21 15  1  0
 35 24  1  0
 24 11  1  0
 33 27  1  0
  4 36  1  0
  5 37  1  0
  7 38  1  0
  9 39  1  0
  9 40  1  0
 10 41  1  0
 10 42  1  0
 12 43  1  0
 12 44  1  0
 13 45  1  0
 13 46  1  0
 16 47  1  0
 17 48  1  0
 20 49  1  0
 25 50  1  0
 25 51  1  0
 28 52  1  0
 29 53  1  0
 32 54  1  0
 33 55  1  0
M  END
$$$$
