
     RDKit          3D

 39 40  0  0  0  0  0  0  0  0999 V2000
   -1.8246    1.1032   -1.0663 O   0  0  0  0  0  0  0  0  0  0  0  0
   -1.4891    0.0008   -0.6392 C   0  0  0  0  0  0  0  0  0  0  0  0
   -2.4313   -1.1594   -0.6007 C   0  0  0  0  0  0  0  0  0  0  0  0
   -3.7726   -1.1129   -0.6154 C   0  0  0  0  0  0  0  0  0  0  0  0
   -4.6460    0.0654   -0.6288 C   0  0  0  0  0  0  0  0  0  0  0  0
   -5.6418    0.1605   -1.6096 C   0  0  0  0  0  0  0  0  0  0  0  0
   -6.5230    1.2440   -1.6209 C   0  0  0  0  0  0  0  0  0  0  0  0
   -6.4137    2.2292   -0.6479 C   0  0  0  0  0  0  0  0  0  0  0  0
   -7.2907    3.2721   -0.6971 O   0  0  0  0  0  0  0  0  0  0  0  0
   -5.4409    2.1467    0.3426 C   0  0  0  0  0  0  0  0  0  0  0  0
   -4.5624    1.0591    0.3549 C   0  0  0  0  0  0  0  0  0  0  0  0
   -0.1042   -0.2149   -0.0796 C   0  0  0  0  0  0  0  0  0  0  0  0
    0.7762   -1.1098   -0.9137 C   0  0  0  0  0  0  0  0  0  0  0  0
    0.3283   -1.8621   -1.7785 O   0  0  0  0  0  0  0  0  0  0  0  0
    2.2462   -1.1382   -0.6668 C   0  0  0  0  0  0  0  0  0  0  0  0
    2.8678   -0.4883    0.3283 C   0  0  0  0  0  0  0  0  0  0  0  0
    4.3209   -0.5524    0.5448 C   0  0  0  0  0  0  0  0  0  0  0  0
    4.8094   -0.5909    1.8590 C   0  0  0  0  0  0  0  0  0  0  0  0
    6.1847   -0.6251    2.1092 C   0  0  0  0  0  0  0  0  0  0  0  0
    7.0739   -0.6085    1.0409 C   0  0  0  0  0  0  0  0  0  0  0  0
    8.4222   -0.6396    1.2364 O   0  0  0  0  0  0  0  0  0  0  0  0
    6.6108   -0.5540   -0.2673 C   0  0  0  0  0  0  0  0  0  0  0  0
    5.2365   -0.5205   -0.5161 C   0  0  0  0  0  0  0  0  0  0  0  0
   -1.9515   -2.1338   -0.5717 H   0  0  0  0  0  0  0  0  0  0  0  0
   -4.3136   -2.0582   -0.6271 H   0  0  0  0  0  0  0  0  0  0  0  0
   -5.7333   -0.6020   -2.3793 H   0  0  0  0  0  0  0  0  0  0  0  0
   -7.2870    1.3199   -2.3889 H   0  0  0  0  0  0  0  0  0  0  0  0
   -7.0500    3.9070   -0.0030 H   0  0  0  0  0  0  0  0  0  0  0  0
   -5.3481    2.9107    1.1073 H   0  0  0  0  0  0  0  0  0  0  0  0
   -3.8068    1.0003    1.1333 H   0  0  0  0  0  0  0  0  0  0  0  0
    0.3613    0.7741    0.0021 H   0  0  0  0  0  0  0  0  0  0  0  0
   -0.1955   -0.6335    0.9285 H   0  0  0  0  0  0  0  0  0  0  0  0
    2.7910   -1.7659   -1.3671 H   0  0  0  0  0  0  0  0  0  0  0  0
    2.3236    0.1110    1.0523 H   0  0  0  0  0  0  0  0  0  0  0  0
    4.1229   -0.6037    2.7028 H   0  0  0  0  0  0  0  0  0  0  0  0
    6.5376   -0.6627    3.1349 H   0  0  0  0  0  0  0  0  0  0  0  0
    8.5990   -0.6774    2.1905 H   0  0  0  0  0  0  0  0  0  0  0  0
    7.3166   -0.5319   -1.0931 H   0  0  0  0  0  0  0  0  0  0  0  0
    4.8970   -0.4581   -1.5473 H   0  0  0  0  0  0  0  0  0  0  0  0
  1  2  2  0
  2  3  1  0
  3  4  2  3
  4  5  1  0
  5  6  2  0
  6  7  1  0
  7  8  2  0
  8  9  1  0
  8 10  1  0
 10 11  2  0
  2 12  1  0
 12 13  1  0
 13 14  2  0
 13 15  1  0
 15 16  2  3
 16 17  1  0
 17 18  2  0
 18 19  1  0
 19 20  2  0
 20 21  1  0
 20 22  1  0
 22 23  2  0
 11  5  1  0
 23 17  1  0
  3 24  1  0
  4 25  1  0
  6 26  1  0
  7 27  1  0
  9 28  1  0
 10 29  1  0
 11 30  1  0
 12 31  1  0
 12 32  1  0
 15 33  1  0
 16 34  1  0
 18 35  1  0
 19 36  1  0
 21 37  1  0
 22 38  1  0
 23 39  1  0
M  END
$$$$
