
     RDKit          3D

 58 60  0  0  0  0  0  0  0  0999 V2000
    0.6287    0.8486   -2.5234 C   0  0  0  0  0  0  0  0  0  0  0  0
   -0.6342    1.0967   -1.7398 C   0  0  0  0  0  0  0  0  0  0  0  0
   -1.3272    2.3005   -1.9684 C   0  0  0  0  0  0  0  0  0  0  0  0
   -2.4982    2.5933   -1.2753 C   0  0  0  0  0  0  0  0  0  0  0  0
   -2.9729    1.6832   -0.3356 C   0  0  0  0  0  0  0  0  0  0  0  0
   -4.4589    2.0429    0.5639 S   0  0  0  0  0  6  0  0  0  0  0  0
   -5.1780    3.0807   -0.1456 O   0  0  0  0  0  0  0  0  0  0  0  0
   -4.0844    2.2039    1.9518 O   0  0  0  0  0  0  0  0  0  0  0  0
   -5.3694    0.6099    0.4133 N   0  0  0  0  0  0  0  0  0  0  0  0
   -5.8279    0.2862   -0.9749 C   0  0  0  0  0  0  0  0  0  0  0  0
   -6.5119   -1.0855   -0.9762 C   0  0  0  0  0  0  0  0  0  0  0  0
   -7.6334   -1.1050   -0.0802 O   0  0  0  0  0  0  0  0  0  0  0  0
   -7.2031   -0.8235    1.2607 C   0  0  0  0  0  0  0  0  0  0  0  0
   -6.5331    0.5519    1.3551 C   0  0  0  0  0  0  0  0  0  0  0  0
   -2.2996    0.4809   -0.0893 C   0  0  0  0  0  0  0  0  0  0  0  0
   -1.1313    0.1708   -0.7922 C   0  0  0  0  0  0  0  0  0  0  0  0
   -0.4221   -1.0339   -0.5836 N   0  0  0  0  0  0  0  0  0  0  0  0
   -0.7940   -2.1250    0.1857 C   0  0  0  0  0  0  0  0  0  0  0  0
   -1.8459   -2.2561    0.8031 O   0  0  0  0  0  0  0  0  0  0  0  0
    0.2473   -3.2537    0.1679 C   0  0  0  0  0  0  0  0  0  0  0  0
    1.4268   -2.9888    0.9280 O   0  0  0  0  0  0  0  0  0  0  0  0
    2.3582   -2.2097    0.3183 C   0  0  0  0  0  0  0  0  0  0  0  0
    2.2218   -1.7019   -0.7917 O   0  0  0  0  0  0  0  0  0  0  0  0
    3.5760   -2.0370    1.2105 C   0  0  0  0  0  0  0  0  0  0  0  0
    4.5588   -1.1734    0.5765 N   0  0  0  0  0  0  0  0  0  0  0  0
    5.7377   -0.8792    1.2245 C   0  0  0  0  0  0  0  0  0  0  0  0
    6.0452   -1.3783    2.3015 O   0  0  0  0  0  0  0  0  0  0  0  0
    6.6211    0.1271    0.5731 C   0  0  0  0  0  0  0  0  0  0  0  0
    7.4610    0.8969    1.3871 C   0  0  0  0  0  0  0  0  0  0  0  0
    8.2975    1.8606    0.8193 C   0  0  0  0  0  0  0  0  0  0  0  0
    8.3054    2.0510   -0.5627 C   0  0  0  0  0  0  0  0  0  0  0  0
    7.4848    1.2744   -1.3803 C   0  0  0  0  0  0  0  0  0  0  0  0
    6.6438    0.3102   -0.8164 C   0  0  0  0  0  0  0  0  0  0  0  0
    0.5681   -0.1054   -3.0577 H   0  0  0  0  0  0  0  0  0  0  0  0
    1.4945    0.8444   -1.8533 H   0  0  0  0  0  0  0  0  0  0  0  0
    0.7963    1.6277   -3.2753 H   0  0  0  0  0  0  0  0  0  0  0  0
   -0.9545    3.0215   -2.6928 H   0  0  0  0  0  0  0  0  0  0  0  0
   -3.0216    3.5282   -1.4631 H   0  0  0  0  0  0  0  0  0  0  0  0
   -6.5386    1.0519   -1.3078 H   0  0  0  0  0  0  0  0  0  0  0  0
   -4.9788    0.2600   -1.6634 H   0  0  0  0  0  0  0  0  0  0  0  0
   -6.8859   -1.3153   -1.9782 H   0  0  0  0  0  0  0  0  0  0  0  0
   -5.8108   -1.8791   -0.6914 H   0  0  0  0  0  0  0  0  0  0  0  0
   -6.5234   -1.6179    1.5914 H   0  0  0  0  0  0  0  0  0  0  0  0
   -8.0879   -0.8508    1.9047 H   0  0  0  0  0  0  0  0  0  0  0  0
   -7.2516    1.3354    1.0873 H   0  0  0  0  0  0  0  0  0  0  0  0
   -6.1962    0.7095    2.3845 H   0  0  0  0  0  0  0  0  0  0  0  0
   -2.7048   -0.1843    0.6679 H   0  0  0  0  0  0  0  0  0  0  0  0
    0.4680   -1.1263   -1.0731 H   0  0  0  0  0  0  0  0  0  0  0  0
    0.4934   -3.5162   -0.8683 H   0  0  0  0  0  0  0  0  0  0  0  0
   -0.2213   -4.1431    0.6044 H   0  0  0  0  0  0  0  0  0  0  0  0
    4.0386   -3.0109    1.3955 H   0  0  0  0  0  0  0  0  0  0  0  0
    3.2721   -1.5749    2.1546 H   0  0  0  0  0  0  0  0  0  0  0  0
    4.2473   -0.5952   -0.1963 H   0  0  0  0  0  0  0  0  0  0  0  0
    7.4617    0.7503    2.4660 H   0  0  0  0  0  0  0  0  0  0  0  0
    8.9428    2.4607    1.4555 H   0  0  0  0  0  0  0  0  0  0  0  0
    8.9603    2.8002   -1.0033 H   0  0  0  0  0  0  0  0  0  0  0  0
    7.5067    1.4160   -2.4589 H   0  0  0  0  0  0  0  0  0  0  0  0
    6.0374   -0.3046   -1.4743 H   0  0  0  0  0  0  0  0  0  0  0  0
  1  2  1  0
  2  3  2  0
  3  4  1  0
  4  5  2  0
  5  6  1  0
  6  7  2  0
  6  8  2  0
  6  9  1  0
  9 10  1  0
 10 11  1  0
 11 12  1  0
 12 13  1  0
 13 14  1  0
  5 15  1  0
 15 16  2  0
 16 17  1  0
 17 18  1  0
 18 19  2  0
 18 20  1  0
 20 21  1  0
 21 22  1  0
 22 23  2  0
 22 24  1  0
 24 25  1  0
 25 26  1  0
 26 27  2  0
 26 28  1  0
 28 29  2  0
 29 30  1  0
 30 31  2  0
 31 32  1  0
 32 33  2  0
 16  2  1  0
 33 28  1  0
 14  9  1  0
  1 34  1  0
  1 35  1  0
  1 36  1  0
  3 37  1  0
  4 38  1  0
 10 39  1  0
 10 40  1  0
 11 41  1  0
 11 42  1  0
 13 43  1  0
 13 44  1  0
 14 45  1  0
 14 46  1  0
 15 47  1  0
 17 48  1  0
 20 49  1  0
 20 50  1  0
 24 51  1  0
 24 52  1  0
 25 53  1  0
 29 54  1  0
 30 55  1  0
 31 56  1  0
 32 57  1  0
 33 58  1  0
M  END
$$$$
