
     RDKit          3D

 60 63  0  0  0  0  0  0  0  0999 V2000
    6.4192    3.8815    2.2748 C   0  0  0  0  0  0  0  0  0  0  0  0
    7.1103    2.7550    1.7497 O   0  0  0  0  0  0  0  0  0  0  0  0
    6.3995    1.5901    1.6573 C   0  0  0  0  0  0  0  0  0  0  0  0
    5.0325    1.4428    1.8901 C   0  0  0  0  0  0  0  0  0  0  0  0
    4.4296    0.1866    1.7649 C   0  0  0  0  0  0  0  0  0  0  0  0
    5.1853   -0.9399    1.4084 C   0  0  0  0  0  0  0  0  0  0  0  0
    4.5184   -2.2822    1.2597 C   0  0  0  0  0  0  0  0  0  0  0  0
    3.8055   -2.3487    0.0044 N   0  0  0  0  0  0  0  0  0  0  0  0
    2.4323   -2.1917   -0.0536 C   0  0  0  0  0  0  0  0  0  0  0  0
    1.7345   -2.2061    0.9599 O   0  0  0  0  0  0  0  0  0  0  0  0
    1.8491   -2.1042   -1.4842 C   0  0  0  0  0  0  0  0  0  0  0  0
    2.5922   -1.1334   -2.4019 C   0  0  0  0  0  0  0  0  0  0  0  0
    0.4088   -1.8188   -1.4260 N   0  0  0  0  0  0  0  0  0  0  0  0
   -0.4277   -2.8444   -1.8936 N   0  0  0  0  0  0  0  0  0  0  0  0
   -1.7238   -2.7128   -1.8826 C   0  0  0  0  0  0  0  0  0  0  0  0
   -2.5597   -3.8609   -2.3711 C   0  0  0  0  0  0  0  0  0  0  0  0
   -2.3087   -1.4819   -1.4132 C   0  0  0  0  0  0  0  0  0  0  0  0
   -3.6040   -0.9970   -1.3391 C   0  0  0  0  0  0  0  0  0  0  0  0
   -4.8693   -1.5735   -1.8623 C   0  0  0  0  0  0  0  0  0  0  0  0
   -3.4985    0.2437   -0.6987 N   0  0  0  0  0  0  0  0  0  0  0  0
   -4.5102    1.1065   -0.1737 C   0  0  0  0  0  0  0  0  0  0  0  0
   -4.1885    2.4488    0.0856 C   0  0  0  0  0  0  0  0  0  0  0  0
   -5.1500    3.3283    0.5931 C   0  0  0  0  0  0  0  0  0  0  0  0
   -6.4430    2.8785    0.8748 C   0  0  0  0  0  0  0  0  0  0  0  0
   -7.4766    3.8346    1.3917 C   0  0  0  0  0  0  0  0  0  0  0  0
   -6.7602    1.5376    0.6360 C   0  0  0  0  0  0  0  0  0  0  0  0
   -5.7997    0.6538    0.1273 C   0  0  0  0  0  0  0  0  0  0  0  0
   -2.1974    0.6303   -0.6037 N   0  0  0  0  0  0  0  0  0  0  0  0
   -1.4889   -0.4443   -0.9585 C   0  0  0  0  0  0  0  0  0  0  0  0
   -0.0363   -0.5641   -0.9518 C   0  0  0  0  0  0  0  0  0  0  0  0
    0.7168    0.3405   -0.5968 O   0  0  0  0  0  0  0  0  0  0  0  0
    6.5533   -0.7825    1.1581 C   0  0  0  0  0  0  0  0  0  0  0  0
    7.1523    0.4734    1.2835 C   0  0  0  0  0  0  0  0  0  0  0  0
    5.6064    4.1935    1.6099 H   0  0  0  0  0  0  0  0  0  0  0  0
    6.0487    3.6806    3.2850 H   0  0  0  0  0  0  0  0  0  0  0  0
    7.1312    4.7097    2.3392 H   0  0  0  0  0  0  0  0  0  0  0  0
    4.4016    2.2817    2.1637 H   0  0  0  0  0  0  0  0  0  0  0  0
    3.3576    0.0910    1.9415 H   0  0  0  0  0  0  0  0  0  0  0  0
    5.2661   -3.0823    1.2482 H   0  0  0  0  0  0  0  0  0  0  0  0
    3.8538   -2.4703    2.1092 H   0  0  0  0  0  0  0  0  0  0  0  0
    4.3588   -2.2137   -0.8294 H   0  0  0  0  0  0  0  0  0  0  0  0
    1.9569   -3.1109   -1.9092 H   0  0  0  0  0  0  0  0  0  0  0  0
    2.0283   -0.9513   -3.3230 H   0  0  0  0  0  0  0  0  0  0  0  0
    2.7785   -0.1698   -1.9174 H   0  0  0  0  0  0  0  0  0  0  0  0
    3.5673   -1.5387   -2.6911 H   0  0  0  0  0  0  0  0  0  0  0  0
   -1.9399   -4.7539   -2.4958 H   0  0  0  0  0  0  0  0  0  0  0  0
   -3.0003   -3.6092   -3.3392 H   0  0  0  0  0  0  0  0  0  0  0  0
   -3.3516   -4.0842   -1.6504 H   0  0  0  0  0  0  0  0  0  0  0  0
   -5.3375   -2.2233   -1.1164 H   0  0  0  0  0  0  0  0  0  0  0  0
   -4.6862   -2.1711   -2.7602 H   0  0  0  0  0  0  0  0  0  0  0  0
   -5.5776   -0.7985   -2.1695 H   0  0  0  0  0  0  0  0  0  0  0  0
   -3.1904    2.8340   -0.1201 H   0  0  0  0  0  0  0  0  0  0  0  0
   -4.8798    4.3686    0.7624 H   0  0  0  0  0  0  0  0  0  0  0  0
   -7.0560    4.4648    2.1820 H   0  0  0  0  0  0  0  0  0  0  0  0
   -8.3329    3.3026    1.8187 H   0  0  0  0  0  0  0  0  0  0  0  0
   -7.8365    4.4724    0.5783 H   0  0  0  0  0  0  0  0  0  0  0  0
   -7.7592    1.1652    0.8515 H   0  0  0  0  0  0  0  0  0  0  0  0
   -6.0869   -0.3855    0.0290 H   0  0  0  0  0  0  0  0  0  0  0  0
    7.1659   -1.6324    0.8657 H   0  0  0  0  0  0  0  0  0  0  0  0
    8.2165    0.5855    1.0920 H   0  0  0  0  0  0  0  0  0  0  0  0
  1  2  1  0
  2  3  1  0
  3  4  2  0
  4  5  1  0
  5  6  2  0
  6  7  1  0
  7  8  1  0
  8  9  1  0
  9 10  2  0
  9 11  1  0
 11 12  1  0
 11 13  1  0
 13 14  1  0
 14 15  2  0
 15 16  1  0
 15 17  1  0
 17 18  2  0
 18 19  1  0
 18 20  1  0
 20 21  1  0
 21 22  2  0
 22 23  1  0
 23 24  2  0
 24 25  1  0
 24 26  1  0
 26 27  2  0
 20 28  1  0
 28 29  2  0
 29 30  1  0
 30 31  2  0
  6 32  1  0
 32 33  2  0
 33  3  1  0
 30 13  1  0
 29 17  1  0
 27 21  1  0
  1 34  1  0
  1 35  1  0
  1 36  1  0
  4 37  1  0
  5 38  1  0
  7 39  1  0
  7 40  1  0
  8 41  1  0
 11 42  1  0
 12 43  1  0
 12 44  1  0
 12 45  1  0
 16 46  1  0
 16 47  1  0
 16 48  1  0
 19 49  1  0
 19 50  1  0
 19 51  1  0
 22 52  1  0
 23 53  1  0
 25 54  1  0
 25 55  1  0
 25 56  1  0
 26 57  1  0
 27 58  1  0
 32 59  1  0
 33 60  1  0
M  END
$$$$
