
     RDKit          3D

 57 60  0  0  0  0  0  0  0  0999 V2000
   -1.2627    0.0673    4.6935 C   0  0  0  0  0  0  0  0  0  0  0  0
   -0.6156   -0.6872    3.5318 C   0  0  0  0  0  0  0  0  0  0  0  0
   -0.5376    0.1592    2.2550 C   0  0  0  0  0  0  0  0  0  0  0  0
    0.0651   -0.9281    0.8777 S   0  0  0  0  0  0  0  0  0  0  0  0
   -1.0948   -0.6113   -0.4115 C   0  0  0  0  0  0  0  0  0  0  0  0
   -2.2358   -0.1071   -0.0476 N   0  0  0  0  0  0  0  0  0  0  0  0
   -3.1326    0.1400   -1.0791 C   0  0  0  0  0  0  0  0  0  0  0  0
   -4.4529    0.6128   -0.8811 C   0  0  0  0  0  0  0  0  0  0  0  0
   -5.1032    0.7733   -2.0913 C   0  0  0  0  0  0  0  0  0  0  0  0
   -4.0939    0.3495   -3.4253 S   0  0  0  0  0  0  0  0  0  0  0  0
   -2.8218   -0.0744   -2.3870 C   0  0  0  0  0  0  0  0  0  0  0  0
   -1.5581   -0.6078   -2.8011 C   0  0  0  0  0  0  0  0  0  0  0  0
   -1.2473   -0.7879   -3.9774 O   0  0  0  0  0  0  0  0  0  0  0  0
   -0.7040   -0.9057   -1.7250 N   0  0  0  0  0  0  0  0  0  0  0  0
    0.5875   -1.5132   -2.0804 C   0  0  0  0  0  0  0  0  0  0  0  0
    0.6012   -3.0263   -1.9238 C   0  0  0  0  0  0  0  0  0  0  0  0
    1.4962   -3.6406   -1.0339 C   0  0  0  0  0  0  0  0  0  0  0  0
    1.5352   -5.0362   -0.8974 C   0  0  0  0  0  0  0  0  0  0  0  0
    0.6862   -5.8410   -1.6619 C   0  0  0  0  0  0  0  0  0  0  0  0
    0.6998   -7.3213   -1.5647 C   0  0  0  0  0  0  0  0  0  0  0  0
   -0.0606   -8.0830   -2.1370 O   0  0  0  0  0  0  0  0  0  0  0  0
    1.6719   -7.7844   -0.7591 O   0  0  0  0  0  0  0  0  0  0  0  0
   -0.2071   -5.2406   -2.5552 C   0  0  0  0  0  0  0  0  0  0  0  0
   -0.2470   -3.8456   -2.6873 C   0  0  0  0  0  0  0  0  0  0  0  0
    0.4508    1.3344    2.3561 C   0  0  0  0  0  0  0  0  0  0  0  0
    1.2921    1.4017    3.2470 O   0  0  0  0  0  0  0  0  0  0  0  0
    0.2822    2.2581    1.3248 N   0  0  0  0  0  0  0  0  0  0  0  0
    1.0394    3.4252    1.0802 C   0  0  0  0  0  0  0  0  0  0  0  0
    0.7946    4.1058   -0.1205 C   0  0  0  0  0  0  0  0  0  0  0  0
    1.5168    5.2606   -0.4553 C   0  0  0  0  0  0  0  0  0  0  0  0
    2.4877    5.7751    0.4152 C   0  0  0  0  0  0  0  0  0  0  0  0
    3.2672    7.0046    0.0301 C   0  0  0  0  0  0  0  0  0  0  0  0
    2.7229    5.0921    1.6205 C   0  0  0  0  0  0  0  0  0  0  0  0
    3.9113    5.6535    2.7458 Cl  0  0  0  0  0  0  0  0  0  0  0  0
    2.0023    3.9323    1.9508 C   0  0  0  0  0  0  0  0  0  0  0  0
   -0.6645    0.9332    4.9944 H   0  0  0  0  0  0  0  0  0  0  0  0
   -2.2691    0.4149    4.4383 H   0  0  0  0  0  0  0  0  0  0  0  0
   -1.3431   -0.5957    5.5615 H   0  0  0  0  0  0  0  0  0  0  0  0
   -1.2238   -1.5833    3.3469 H   0  0  0  0  0  0  0  0  0  0  0  0
    0.3792   -1.0306    3.8495 H   0  0  0  0  0  0  0  0  0  0  0  0
   -1.5313    0.5829    2.0553 H   0  0  0  0  0  0  0  0  0  0  0  0
   -4.9091    0.8192    0.0803 H   0  0  0  0  0  0  0  0  0  0  0  0
   -6.1255    1.0982   -2.2566 H   0  0  0  0  0  0  0  0  0  0  0  0
    1.3805   -1.0540   -1.4788 H   0  0  0  0  0  0  0  0  0  0  0  0
    0.8567   -1.2810   -3.1185 H   0  0  0  0  0  0  0  0  0  0  0  0
    2.1778   -3.0390   -0.4324 H   0  0  0  0  0  0  0  0  0  0  0  0
    2.2310   -5.4826   -0.1911 H   0  0  0  0  0  0  0  0  0  0  0  0
    1.5487   -8.7567   -0.7885 H   0  0  0  0  0  0  0  0  0  0  0  0
   -0.8701   -5.8574   -3.1610 H   0  0  0  0  0  0  0  0  0  0  0  0
   -0.9364   -3.4094   -3.4080 H   0  0  0  0  0  0  0  0  0  0  0  0
   -0.4194    2.0285    0.6341 H   0  0  0  0  0  0  0  0  0  0  0  0
    0.0541    3.7367   -0.8253 H   0  0  0  0  0  0  0  0  0  0  0  0
    1.3156    5.7546   -1.4049 H   0  0  0  0  0  0  0  0  0  0  0  0
    4.3182    6.7434   -0.1462 H   0  0  0  0  0  0  0  0  0  0  0  0
    3.2064    7.7688    0.8133 H   0  0  0  0  0  0  0  0  0  0  0  0
    2.8733    7.4554   -0.8877 H   0  0  0  0  0  0  0  0  0  0  0  0
    2.2151    3.4502    2.8994 H   0  0  0  0  0  0  0  0  0  0  0  0
  1  2  1  0
  2  3  1  0
  3  4  1  0
  4  5  1  0
  5  6  2  0
  6  7  1  0
  7  8  1  0
  8  9  2  0
  9 10  1  0
 10 11  1  0
 11 12  1  0
 12 13  2  0
 12 14  1  0
 14 15  1  0
 15 16  1  0
 16 17  2  0
 17 18  1  0
 18 19  2  0
 19 20  1  0
 20 21  2  0
 20 22  1  0
 19 23  1  0
 23 24  2  0
  3 25  1  0
 25 26  2  0
 25 27  1  0
 27 28  1  0
 28 29  2  0
 29 30  1  0
 30 31  2  0
 31 32  1  0
 31 33  1  0
 33 34  1  0
 33 35  2  0
 14  5  1  0
 24 16  1  0
 35 28  1  0
 11  7  2  0
  1 36  1  0
  1 37  1  0
  1 38  1  0
  2 39  1  0
  2 40  1  0
  3 41  1  0
  8 42  1  0
  9 43  1  0
 15 44  1  0
 15 45  1  0
 17 46  1  0
 18 47  1  0
 22 48  1  0
 23 49  1  0
 24 50  1  0
 27 51  1  0
 29 52  1  0
 30 53  1  0
 32 54  1  0
 32 55  1  0
 32 56  1  0
 35 57  1  0
M  END
$$$$
