
     RDKit          3D

 34 36  0  0  0  0  0  0  0  0999 V2000
   -0.2057   -2.2639    0.5065 O   0  0  0  0  0  0  0  0  0  0  0  0
    0.2748   -1.1552    0.3139 C   0  0  0  0  0  0  0  0  0  0  0  0
    1.7390   -0.9885    0.4062 C   0  0  0  0  0  0  0  0  0  0  0  0
    2.4747   -0.5200   -0.6880 C   0  0  0  0  0  0  0  0  0  0  0  0
    3.8609   -0.3874   -0.5812 C   0  0  0  0  0  0  0  0  0  0  0  0
    4.5017   -0.7367    0.6090 C   0  0  0  0  0  0  0  0  0  0  0  0
    6.2091   -0.5698    0.7374 Cl  0  0  0  0  0  0  0  0  0  0  0  0
    3.7710   -1.2272    1.6921 C   0  0  0  0  0  0  0  0  0  0  0  0
    2.3849   -1.3618    1.5893 C   0  0  0  0  0  0  0  0  0  0  0  0
   -0.4974   -0.0570    0.0366 N   0  0  0  0  0  0  0  0  0  0  0  0
   -0.0901    1.3546   -0.0168 C   0  0  0  0  0  0  0  0  0  0  0  0
   -0.2939    1.7799   -1.4499 C   0  0  0  0  0  0  0  0  0  0  0  0
   -1.6177    1.8477   -1.6737 C   0  0  0  0  0  0  0  0  0  0  0  0
   -2.2968    1.3898   -0.3923 C   0  0  0  0  0  0  0  0  0  0  0  0
   -1.3077    2.0579    0.5843 C   0  0  0  0  0  0  0  0  0  0  0  0
   -2.0069   -0.1413   -0.1478 C   0  0  0  0  0  0  0  0  0  0  0  0
   -2.8075   -0.6423    1.0565 C   0  0  0  0  0  0  0  0  0  0  0  0
   -2.7412   -1.9681    1.2717 F   0  0  0  0  0  0  0  0  0  0  0  0
   -2.4074   -0.0474    2.2084 F   0  0  0  0  0  0  0  0  0  0  0  0
   -4.1220   -0.3328    0.9189 F   0  0  0  0  0  0  0  0  0  0  0  0
   -2.4947   -1.0008   -1.3136 C   0  0  0  0  0  0  0  0  0  0  0  0
   -3.7896   -0.7190   -1.6076 F   0  0  0  0  0  0  0  0  0  0  0  0
   -1.7923   -0.7695   -2.4515 F   0  0  0  0  0  0  0  0  0  0  0  0
   -2.4249   -2.3277   -1.0941 F   0  0  0  0  0  0  0  0  0  0  0  0
    1.9796   -0.2793   -1.6252 H   0  0  0  0  0  0  0  0  0  0  0  0
    4.4366   -0.0248   -1.4291 H   0  0  0  0  0  0  0  0  0  0  0  0
    4.2741   -1.5140    2.6121 H   0  0  0  0  0  0  0  0  0  0  0  0
    1.8122   -1.7609    2.4239 H   0  0  0  0  0  0  0  0  0  0  0  0
    0.8710    1.6016    0.4330 H   0  0  0  0  0  0  0  0  0  0  0  0
    0.4897    1.9863   -2.1632 H   0  0  0  0  0  0  0  0  0  0  0  0
   -2.1063    2.0952   -2.6053 H   0  0  0  0  0  0  0  0  0  0  0  0
   -3.3325    1.7179   -0.2899 H   0  0  0  0  0  0  0  0  0  0  0  0
   -1.4723    1.8121    1.6351 H   0  0  0  0  0  0  0  0  0  0  0  0
   -1.2723    3.1523    0.4944 H   0  0  0  0  0  0  0  0  0  0  0  0
  1  2  2  0
  2  3  1  0
  3  4  2  0
  4  5  1  0
  5  6  2  0
  6  7  1  0
  6  8  1  0
  8  9  2  0
  2 10  1  0
 10 11  1  0
 11 12  1  0
 12 13  2  0
 13 14  1  0
 14 15  1  0
 14 16  1  0
 16 17  1  0
 17 18  1  0
 17 19  1  0
 17 20  1  0
 16 21  1  0
 21 22  1  0
 21 23  1  0
 21 24  1  0
  9  3  1  0
 16 10  1  0
 15 11  1  0
  4 25  1  0
  5 26  1  0
  8 27  1  0
  9 28  1  0
 11 29  1  0
 12 30  1  0
 13 31  1  0
 14 32  1  0
 15 33  1  0
 15 34  1  0
M  END
$$$$
