
     RDKit          3D

 58 62  0  0  0  0  0  0  0  0999 V2000
    8.4520    0.8637   -0.0655 C   0  0  0  0  0  0  0  0  0  0  0  0
    7.4971    1.0492    0.9721 O   0  0  0  0  0  0  0  0  0  0  0  0
    6.1712    1.0316    0.6156 C   0  0  0  0  0  0  0  0  0  0  0  0
    5.6898    0.5025   -0.5853 C   0  0  0  0  0  0  0  0  0  0  0  0
    4.3181    0.5154   -0.8629 C   0  0  0  0  0  0  0  0  0  0  0  0
    3.4056    1.0520    0.0532 C   0  0  0  0  0  0  0  0  0  0  0  0
    1.9712    1.0946   -0.2184 C   0  0  0  0  0  0  0  0  0  0  0  0
    1.0011    1.6180    0.5109 N   0  0  0  0  0  0  0  0  0  0  0  0
   -0.1448    1.3830   -0.2224 C   0  0  0  0  0  0  0  0  0  0  0  0
   -1.4634    1.8467    0.2777 C   0  0  0  0  0  0  0  0  0  0  0  0
   -2.2815    0.7336    0.7309 N   0  0  0  0  0  0  0  0  0  0  0  0
   -3.4471    0.2624    0.1750 C   0  0  0  0  0  0  0  0  0  0  0  0
   -4.1284    0.9039   -1.2836 S   0  0  0  0  0  0  0  0  0  0  0  0
   -5.5926   -0.1432   -1.5172 C   0  0  0  0  0  0  0  0  0  0  0  0
   -5.3094   -1.3493   -2.3809 C   0  0  0  0  0  0  0  0  0  0  0  0
   -4.9284   -2.5707   -1.8033 C   0  0  0  0  0  0  0  0  0  0  0  0
   -4.6738   -3.6913   -2.6023 C   0  0  0  0  0  0  0  0  0  0  0  0
   -4.7994   -3.6013   -3.9876 C   0  0  0  0  0  0  0  0  0  0  0  0
   -5.1648   -2.3913   -4.5625 C   0  0  0  0  0  0  0  0  0  0  0  0
   -5.2737   -2.2997   -5.8947 F   0  0  0  0  0  0  0  0  0  0  0  0
   -5.4147   -1.2687   -3.7776 C   0  0  0  0  0  0  0  0  0  0  0  0
   -3.9796   -0.6962    0.8951 N   0  0  0  0  0  0  0  0  0  0  0  0
   -3.1332   -0.8684    1.9605 C   0  0  0  0  0  0  0  0  0  0  0  0
   -3.2257   -1.7568    3.0305 C   0  0  0  0  0  0  0  0  0  0  0  0
   -2.2013   -1.6849    3.9602 C   0  0  0  0  0  0  0  0  0  0  0  0
   -1.1534   -0.8334    3.8924 N   0  0  0  0  0  0  0  0  0  0  0  0
   -1.0614    0.0257    2.8496 C   0  0  0  0  0  0  0  0  0  0  0  0
   -2.0589    0.0089    1.8853 C   0  0  0  0  0  0  0  0  0  0  0  0
    0.1868    0.7185   -1.3872 C   0  0  0  0  0  0  0  0  0  0  0  0
   -0.5614    0.2014   -2.5470 C   0  0  0  0  0  0  0  0  0  0  0  0
    1.5409    0.5296   -1.3913 O   0  0  0  0  0  0  0  0  0  0  0  0
    3.8941    1.5690    1.2642 C   0  0  0  0  0  0  0  0  0  0  0  0
    5.2638    1.5588    1.5563 C   0  0  0  0  0  0  0  0  0  0  0  0
    5.8128    2.0608    2.7119 O   0  0  0  0  0  0  0  0  0  0  0  0
    4.9229    2.4352    3.7536 C   0  0  0  0  0  0  0  0  0  0  0  0
    8.4362   -0.1677   -0.4357 H   0  0  0  0  0  0  0  0  0  0  0  0
    8.3000    1.5814   -0.8815 H   0  0  0  0  0  0  0  0  0  0  0  0
    9.4451    1.0472    0.3596 H   0  0  0  0  0  0  0  0  0  0  0  0
    6.3554    0.0622   -1.3228 H   0  0  0  0  0  0  0  0  0  0  0  0
    3.9720    0.0988   -1.8056 H   0  0  0  0  0  0  0  0  0  0  0  0
   -1.9882    2.4158   -0.4928 H   0  0  0  0  0  0  0  0  0  0  0  0
   -1.3380    2.5187    1.1360 H   0  0  0  0  0  0  0  0  0  0  0  0
   -6.0399   -0.4425   -0.5625 H   0  0  0  0  0  0  0  0  0  0  0  0
   -6.3566    0.4703   -2.0110 H   0  0  0  0  0  0  0  0  0  0  0  0
   -4.8240   -2.6519   -0.7206 H   0  0  0  0  0  0  0  0  0  0  0  0
   -4.3799   -4.6306   -2.1435 H   0  0  0  0  0  0  0  0  0  0  0  0
   -4.6155   -4.4633   -4.6193 H   0  0  0  0  0  0  0  0  0  0  0  0
   -5.6950   -0.3398   -4.2650 H   0  0  0  0  0  0  0  0  0  0  0  0
   -4.0450   -2.4548    3.1254 H   0  0  0  0  0  0  0  0  0  0  0  0
   -2.1961   -2.3436    4.8246 H   0  0  0  0  0  0  0  0  0  0  0  0
   -0.2011    0.6816    2.8241 H   0  0  0  0  0  0  0  0  0  0  0  0
    0.1101   -0.0186   -3.3829 H   0  0  0  0  0  0  0  0  0  0  0  0
   -1.2929    0.9373   -2.8938 H   0  0  0  0  0  0  0  0  0  0  0  0
   -1.0905   -0.7196   -2.2818 H   0  0  0  0  0  0  0  0  0  0  0  0
    3.1775    1.9844    1.9664 H   0  0  0  0  0  0  0  0  0  0  0  0
    4.2942    1.5940    4.0614 H   0  0  0  0  0  0  0  0  0  0  0  0
    5.5259    2.7329    4.6165 H   0  0  0  0  0  0  0  0  0  0  0  0
    4.3158    3.2981    3.4615 H   0  0  0  0  0  0  0  0  0  0  0  0
  1  2  1  0
  2  3  1  0
  3  4  2  0
  4  5  1  0
  5  6  2  0
  6  7  1  0
  7  8  2  0
  8  9  1  0
  9 10  1  0
 10 11  1  0
 11 12  1  0
 12 13  1  0
 13 14  1  0
 14 15  1  0
 15 16  2  0
 16 17  1  0
 17 18  2  0
 18 19  1  0
 19 20  1  0
 19 21  2  0
 12 22  2  0
 22 23  1  0
 23 24  2  0
 24 25  1  0
 25 26  2  0
 26 27  1  0
 27 28  2  0
  9 29  2  0
 29 30  1  0
 29 31  1  0
  6 32  1  0
 32 33  2  0
 33 34  1  0
 34 35  1  0
 33  3  1  0
 31  7  1  0
 28 11  1  0
 21 15  1  0
 28 23  1  0
  1 36  1  0
  1 37  1  0
  1 38  1  0
  4 39  1  0
  5 40  1  0
 10 41  1  0
 10 42  1  0
 14 43  1  0
 14 44  1  0
 16 45  1  0
 17 46  1  0
 18 47  1  0
 21 48  1  0
 24 49  1  0
 25 50  1  0
 27 51  1  0
 30 52  1  0
 30 53  1  0
 30 54  1  0
 32 55  1  0
 35 56  1  0
 35 57  1  0
 35 58  1  0
M  END
$$$$
