
     RDKit          3D

 48 51  0  0  0  0  0  0  0  0999 V2000
   -1.0771    0.8992    2.2094 C   0  0  0  0  0  0  0  0  0  0  0  0
   -0.6651    1.6692    0.9639 C   0  0  0  0  0  0  0  0  0  0  0  0
   -1.0519    1.0412   -0.2794 N   0  0  0  0  0  0  0  0  0  0  0  0
   -2.3181    1.0574   -0.8199 C   0  0  0  0  0  0  0  0  0  0  0  0
   -3.7247    1.6646   -0.0158 S   0  0  0  0  0  0  0  0  0  0  0  0
   -5.0502    0.8249   -0.9345 C   0  0  0  0  0  0  0  0  0  0  0  0
   -5.3114   -0.5713   -0.4177 C   0  0  0  0  0  0  0  0  0  0  0  0
   -6.2250   -0.7842    0.6295 C   0  0  0  0  0  0  0  0  0  0  0  0
   -6.4674   -2.0729    1.1073 C   0  0  0  0  0  0  0  0  0  0  0  0
   -5.7901   -3.1492    0.5497 C   0  0  0  0  0  0  0  0  0  0  0  0
   -6.0239   -4.3857    1.0112 F   0  0  0  0  0  0  0  0  0  0  0  0
   -4.8747   -2.9622   -0.4792 C   0  0  0  0  0  0  0  0  0  0  0  0
   -4.6364   -1.6741   -0.9648 C   0  0  0  0  0  0  0  0  0  0  0  0
   -2.2864    0.6144   -2.0514 N   0  0  0  0  0  0  0  0  0  0  0  0
   -0.9881    0.3147   -2.3441 N   0  0  0  0  0  0  0  0  0  0  0  0
   -0.2388    0.5406   -1.2774 C   0  0  0  0  0  0  0  0  0  0  0  0
    1.3024    0.2786   -1.3795 C   0  0  0  0  0  0  0  0  0  0  0  0
    1.9213   -0.0044   -2.6121 C   0  0  0  0  0  0  0  0  0  0  0  0
    3.2331   -0.1820   -2.4955 N   0  0  0  0  0  0  0  0  0  0  0  0
    3.5045    0.1007   -1.1936 N   0  0  0  0  0  0  0  0  0  0  0  0
    4.8693    0.3004   -0.8138 C   0  0  0  0  0  0  0  0  0  0  0  0
    5.2329    0.9736    0.3599 C   0  0  0  0  0  0  0  0  0  0  0  0
    6.5831    1.1538    0.6796 C   0  0  0  0  0  0  0  0  0  0  0  0
    7.5792    0.6845   -0.1736 C   0  0  0  0  0  0  0  0  0  0  0  0
    7.2302    0.0383   -1.3564 C   0  0  0  0  0  0  0  0  0  0  0  0
    5.8843   -0.1481   -1.6794 C   0  0  0  0  0  0  0  0  0  0  0  0
    2.3282    0.1593   -0.4570 C   0  0  0  0  0  0  0  0  0  0  0  0
    2.3229   -0.0705    0.9877 C   0  0  0  0  0  0  0  0  0  0  0  0
    1.1825   -0.6893    1.3800 F   0  0  0  0  0  0  0  0  0  0  0  0
    2.3925    1.0884    1.6893 F   0  0  0  0  0  0  0  0  0  0  0  0
    3.3347   -0.8630    1.4199 F   0  0  0  0  0  0  0  0  0  0  0  0
   -0.8794   -0.1719    2.1191 H   0  0  0  0  0  0  0  0  0  0  0  0
   -2.1456    1.0093    2.4155 H   0  0  0  0  0  0  0  0  0  0  0  0
   -0.5393    1.2838    3.0822 H   0  0  0  0  0  0  0  0  0  0  0  0
   -1.1020    2.6747    0.9840 H   0  0  0  0  0  0  0  0  0  0  0  0
    0.4107    1.8260    0.9406 H   0  0  0  0  0  0  0  0  0  0  0  0
   -5.9612    1.4250   -0.8158 H   0  0  0  0  0  0  0  0  0  0  0  0
   -4.8470    0.8127   -2.0117 H   0  0  0  0  0  0  0  0  0  0  0  0
   -6.7558    0.0559    1.0734 H   0  0  0  0  0  0  0  0  0  0  0  0
   -7.1784   -2.2452    1.9092 H   0  0  0  0  0  0  0  0  0  0  0  0
   -4.3546   -3.8164   -0.8982 H   0  0  0  0  0  0  0  0  0  0  0  0
   -3.9193   -1.5346   -1.7734 H   0  0  0  0  0  0  0  0  0  0  0  0
    1.4607   -0.0906   -3.5900 H   0  0  0  0  0  0  0  0  0  0  0  0
    4.5088    1.4073    1.0384 H   0  0  0  0  0  0  0  0  0  0  0  0
    6.8573    1.6695    1.5947 H   0  0  0  0  0  0  0  0  0  0  0  0
    8.6262    0.8289    0.0783 H   0  0  0  0  0  0  0  0  0  0  0  0
    8.0034   -0.3236   -2.0304 H   0  0  0  0  0  0  0  0  0  0  0  0
    5.6438   -0.6578   -2.6102 H   0  0  0  0  0  0  0  0  0  0  0  0
  1  2  1  0
  2  3  1  0
  3  4  1  0
  4  5  1  0
  5  6  1  0
  6  7  1  0
  7  8  2  0
  8  9  1  0
  9 10  2  0
 10 11  1  0
 10 12  1  0
 12 13  2  0
  4 14  2  0
 14 15  1  0
 15 16  2  0
 16 17  1  0
 17 18  1  0
 18 19  2  0
 19 20  1  0
 20 21  1  0
 21 22  2  0
 22 23  1  0
 23 24  2  0
 24 25  1  0
 25 26  2  0
 20 27  1  0
 27 28  1  0
 28 29  1  0
 28 30  1  0
 28 31  1  0
 16  3  1  0
 27 17  2  0
 13  7  1  0
 26 21  1  0
  1 32  1  0
  1 33  1  0
  1 34  1  0
  2 35  1  0
  2 36  1  0
  6 37  1  0
  6 38  1  0
  8 39  1  0
  9 40  1  0
 12 41  1  0
 13 42  1  0
 18 43  1  0
 22 44  1  0
 23 45  1  0
 24 46  1  0
 25 47  1  0
 26 48  1  0
M  END
$$$$
