
     RDKit          3D

 61 66  0  0  0  0  0  0  0  0999 V2000
   -1.0542    1.8658    0.6070 C   0  0  0  0  0  0  0  0  0  0  0  0
   -1.9611    2.3311   -0.5349 C   0  0  0  0  0  0  0  0  0  0  0  0
   -3.4350    2.1763   -0.1627 C   0  0  0  0  0  0  0  0  0  0  0  0
   -1.6371    1.7601   -1.9146 C   0  0  0  0  0  0  0  0  0  0  0  0
   -1.6647    2.6809   -2.9880 C   0  0  0  0  0  0  0  0  0  0  0  0
   -1.3034    2.3183   -4.2913 C   0  0  0  0  0  0  0  0  0  0  0  0
   -0.8953    1.0194   -4.5663 C   0  0  0  0  0  0  0  0  0  0  0  0
   -0.8735    0.0778   -3.5417 C   0  0  0  0  0  0  0  0  0  0  0  0
   -1.2655    0.4382   -2.2337 C   0  0  0  0  0  0  0  0  0  0  0  0
   -1.2836   -0.6131   -1.2925 N   0  0  0  0  0  0  0  0  0  0  0  0
   -0.1837   -1.2535   -0.7481 C   0  0  0  0  0  0  0  0  0  0  0  0
    1.4540   -0.7410   -0.9931 S   0  0  0  0  0  0  0  0  0  0  0  0
    2.4092   -2.1423   -0.3344 C   0  0  0  0  0  0  0  0  0  0  0  0
    2.4800   -2.1654    1.1752 C   0  0  0  0  0  0  0  0  0  0  0  0
    1.8306   -3.1830    1.7773 C   0  0  0  0  0  0  0  0  0  0  0  0
    1.7028   -3.3572    3.2218 C   0  0  0  0  0  0  0  0  0  0  0  0
    1.1697   -4.3449    3.7085 O   0  0  0  0  0  0  0  0  0  0  0  0
    2.2031   -2.3346    3.9893 O   0  0  0  0  0  0  0  0  0  0  0  0
    2.9630   -1.2903    3.4189 C   0  0  0  0  0  0  0  0  0  0  0  0
    3.4797   -0.4202    4.3748 C   0  0  0  0  0  0  0  0  0  0  0  0
    4.2875    0.6227    3.9688 C   0  0  0  0  0  0  0  0  0  0  0  0
    4.6066    0.7885    2.6196 C   0  0  0  0  0  0  0  0  0  0  0  0
    5.4606    1.8565    2.2935 C   0  0  0  0  0  0  0  0  0  0  0  0
    5.8503    2.0982    0.9819 C   0  0  0  0  0  0  0  0  0  0  0  0
    5.3966    1.2573   -0.0163 C   0  0  0  0  0  0  0  0  0  0  0  0
    4.5487    0.1854    0.2997 C   0  0  0  0  0  0  0  0  0  0  0  0
    4.0906   -0.0985    1.6191 C   0  0  0  0  0  0  0  0  0  0  0  0
    3.2011   -1.1666    2.0316 C   0  0  0  0  0  0  0  0  0  0  0  0
   -0.5695   -2.2544    0.0031 N   0  0  0  0  0  0  0  0  0  0  0  0
   -1.9329   -2.3167   -0.0594 N   0  0  0  0  0  0  0  0  0  0  0  0
   -2.3772   -1.3728   -0.8789 C   0  0  0  0  0  0  0  0  0  0  0  0
   -3.7917   -1.2312   -1.2431 C   0  0  0  0  0  0  0  0  0  0  0  0
   -4.7737   -1.6228   -0.3213 C   0  0  0  0  0  0  0  0  0  0  0  0
   -6.1271   -1.5252   -0.6412 C   0  0  0  0  0  0  0  0  0  0  0  0
   -6.4696   -1.0485   -1.8944 C   0  0  0  0  0  0  0  0  0  0  0  0
   -5.5649   -0.6683   -2.8195 N   0  0  0  0  0  0  0  0  0  0  0  0
   -4.2538   -0.7695   -2.4728 C   0  0  0  0  0  0  0  0  0  0  0  0
    0.0025    1.9461    0.3240 H   0  0  0  0  0  0  0  0  0  0  0  0
   -1.2565    0.8377    0.9254 H   0  0  0  0  0  0  0  0  0  0  0  0
   -1.2066    2.4948    1.4915 H   0  0  0  0  0  0  0  0  0  0  0  0
   -1.7741    3.4129   -0.5951 H   0  0  0  0  0  0  0  0  0  0  0  0
   -3.6812    2.8232    0.6870 H   0  0  0  0  0  0  0  0  0  0  0  0
   -3.6730    1.1547    0.1398 H   0  0  0  0  0  0  0  0  0  0  0  0
   -4.0914    2.4533   -0.9952 H   0  0  0  0  0  0  0  0  0  0  0  0
   -1.9605    3.7171   -2.8147 H   0  0  0  0  0  0  0  0  0  0  0  0
   -1.3321    3.0583   -5.0898 H   0  0  0  0  0  0  0  0  0  0  0  0
   -0.6048    0.7388   -5.5767 H   0  0  0  0  0  0  0  0  0  0  0  0
   -0.5698   -0.9437   -3.7759 H   0  0  0  0  0  0  0  0  0  0  0  0
    1.9467   -3.0578   -0.7311 H   0  0  0  0  0  0  0  0  0  0  0  0
    3.4134   -2.1690   -0.7678 H   0  0  0  0  0  0  0  0  0  0  0  0
    1.2942   -3.9398    1.2103 H   0  0  0  0  0  0  0  0  0  0  0  0
    3.2542   -0.5593    5.4288 H   0  0  0  0  0  0  0  0  0  0  0  0
    4.6805    1.2991    4.7250 H   0  0  0  0  0  0  0  0  0  0  0  0
    5.8386    2.5186    3.0717 H   0  0  0  0  0  0  0  0  0  0  0  0
    6.5092    2.9294    0.7466 H   0  0  0  0  0  0  0  0  0  0  0  0
    5.6980    1.4226   -1.0486 H   0  0  0  0  0  0  0  0  0  0  0  0
    4.2695   -0.4212   -0.5497 H   0  0  0  0  0  0  0  0  0  0  0  0
   -4.4869   -2.0129    0.6545 H   0  0  0  0  0  0  0  0  0  0  0  0
   -6.8898   -1.8290    0.0659 H   0  0  0  0  0  0  0  0  0  0  0  0
   -7.5100   -0.9605   -2.1965 H   0  0  0  0  0  0  0  0  0  0  0  0
   -3.5862   -0.4699   -3.2716 H   0  0  0  0  0  0  0  0  0  0  0  0
  1  2  1  0
  2  3  1  0
  2  4  1  0
  4  5  2  0
  5  6  1  0
  6  7  2  0
  7  8  1  0
  8  9  2  0
  9 10  1  0
 10 11  1  0
 11 12  1  0
 12 13  1  0
 13 14  1  0
 14 15  2  0
 15 16  1  0
 16 17  2  0
 16 18  1  0
 18 19  1  0
 19 20  2  0
 20 21  1  0
 21 22  2  0
 22 23  1  0
 23 24  2  0
 24 25  1  0
 25 26  2  0
 26 27  1  0
 27 28  2  0
 11 29  2  0
 29 30  1  0
 30 31  2  0
 31 32  1  0
 32 33  2  0
 33 34  1  0
 34 35  2  0
 35 36  1  0
 36 37  2  0
  9  4  1  0
 31 10  1  0
 37 32  1  0
 28 14  1  0
 28 19  1  0
 27 22  1  0
  1 38  1  0
  1 39  1  0
  1 40  1  0
  2 41  1  0
  3 42  1  0
  3 43  1  0
  3 44  1  0
  5 45  1  0
  6 46  1  0
  7 47  1  0
  8 48  1  0
 13 49  1  0
 13 50  1  0
 15 51  1  0
 20 52  1  0
 21 53  1  0
 23 54  1  0
 24 55  1  0
 25 56  1  0
 26 57  1  0
 33 58  1  0
 34 59  1  0
 35 60  1  0
 37 61  1  0
M  END
$$$$
