
     RDKit          3D

 56 61  0  0  0  0  0  0  0  0999 V2000
    7.1333    0.0482   -3.8596 C   0  0  0  0  0  0  0  0  0  0  0  0
    5.9476   -0.0292   -2.9402 C   0  0  0  0  0  0  0  0  0  0  0  0
    4.7920    0.7078   -3.2142 C   0  0  0  0  0  0  0  0  0  0  0  0
    3.6993    0.6663   -2.3421 C   0  0  0  0  0  0  0  0  0  0  0  0
    3.7523   -0.1120   -1.1794 C   0  0  0  0  0  0  0  0  0  0  0  0
    2.5220   -0.1462   -0.2019 C   0  0  0  0  0  0  0  0  0  0  0  0
    1.3473    0.5866   -0.3295 C   0  0  0  0  0  0  0  0  0  0  0  0
    0.5173    0.3053    0.7549 N   0  0  0  0  0  4  0  0  0  0  0  0
   -0.8337    0.8343    1.0012 C   0  0  0  0  0  0  0  0  0  0  0  0
   -1.9121   -0.2388    0.7567 C   0  0  0  0  0  0  0  0  0  0  0  0
   -1.6449   -1.4375    0.8478 O   0  0  0  0  0  0  0  0  0  0  0  0
   -3.1864    0.2980    0.5382 N   0  0  0  0  0  0  0  0  0  0  0  0
   -3.4293    1.0744   -0.6520 C   0  0  0  0  0  0  0  0  0  0  0  0
   -2.5429    0.9508   -1.7467 C   0  0  0  0  0  0  0  0  0  0  0  0
   -2.7194    1.6837   -2.9239 C   0  0  0  0  0  0  0  0  0  0  0  0
   -3.7932    2.5517   -3.0396 C   0  0  0  0  0  0  0  0  0  0  0  0
   -4.6955    2.6685   -1.9862 C   0  0  0  0  0  0  0  0  0  0  0  0
   -4.5297    1.9273   -0.8035 C   0  0  0  0  0  0  0  0  0  0  0  0
   -5.7416    2.1653    0.4585 S   0  0  0  0  0  0  0  0  0  0  0  0
   -5.4820    0.7091    1.4346 C   0  0  0  0  0  0  0  0  0  0  0  0
   -6.5228    0.3666    2.3175 C   0  0  0  0  0  0  0  0  0  0  0  0
   -6.3910   -0.6967    3.2013 C   0  0  0  0  0  0  0  0  0  0  0  0
   -5.2086   -1.4177    3.2181 C   0  0  0  0  0  0  0  0  0  0  0  0
   -4.1699   -1.0826    2.3432 C   0  0  0  0  0  0  0  0  0  0  0  0
   -4.2840   -0.0250    1.4175 C   0  0  0  0  0  0  0  0  0  0  0  0
    1.1475   -0.5816    1.5200 C   0  0  0  0  0  0  0  0  0  0  0  0
    2.3223   -0.8647    0.9637 N   0  0  0  0  0  0  0  0  0  0  0  0
    3.0662   -1.8482    1.7379 C   0  0  0  0  0  0  0  0  0  0  0  0
    2.0248   -2.3712    2.7656 C   0  0  0  0  0  0  0  0  0  0  0  0
    0.9197   -1.2984    2.7967 C   0  0  0  0  0  0  0  0  0  0  0  0
    4.9090   -0.8382   -0.8956 C   0  0  0  0  0  0  0  0  0  0  0  0
    6.0009   -0.7936   -1.7697 C   0  0  0  0  0  0  0  0  0  0  0  0
    7.7463    0.9181   -3.6066 H   0  0  0  0  0  0  0  0  0  0  0  0
    7.7498   -0.8517   -3.7814 H   0  0  0  0  0  0  0  0  0  0  0  0
    6.8098    0.1303   -4.9015 H   0  0  0  0  0  0  0  0  0  0  0  0
    4.7387    1.3196   -4.1145 H   0  0  0  0  0  0  0  0  0  0  0  0
    2.8245    1.2523   -2.6054 H   0  0  0  0  0  0  0  0  0  0  0  0
    0.9983    1.2958   -1.0620 H   0  0  0  0  0  0  0  0  0  0  0  0
   -0.9813    1.7217    0.3833 H   0  0  0  0  0  0  0  0  0  0  0  0
   -0.8895    1.1375    2.0515 H   0  0  0  0  0  0  0  0  0  0  0  0
   -1.7245    0.2357   -1.7354 H   0  0  0  0  0  0  0  0  0  0  0  0
   -2.0358    1.5564   -3.7601 H   0  0  0  0  0  0  0  0  0  0  0  0
   -3.9461    3.1214   -3.9542 H   0  0  0  0  0  0  0  0  0  0  0  0
   -5.5459    3.3401   -2.0995 H   0  0  0  0  0  0  0  0  0  0  0  0
   -7.4511    0.9367    2.3264 H   0  0  0  0  0  0  0  0  0  0  0  0
   -7.2045   -0.9537    3.8750 H   0  0  0  0  0  0  0  0  0  0  0  0
   -5.0950   -2.2515    3.9043 H   0  0  0  0  0  0  0  0  0  0  0  0
   -3.2874   -1.7104    2.3954 H   0  0  0  0  0  0  0  0  0  0  0  0
    3.4256   -2.6586    1.0997 H   0  0  0  0  0  0  0  0  0  0  0  0
    3.8982   -1.3450    2.2399 H   0  0  0  0  0  0  0  0  0  0  0  0
    1.6011   -3.3135    2.3950 H   0  0  0  0  0  0  0  0  0  0  0  0
    2.4602   -2.5626    3.7510 H   0  0  0  0  0  0  0  0  0  0  0  0
    1.0725   -0.5658    3.5927 H   0  0  0  0  0  0  0  0  0  0  0  0
   -0.0856   -1.7159    2.8204 H   0  0  0  0  0  0  0  0  0  0  0  0
    5.0072   -1.4401   -0.0023 H   0  0  0  0  0  0  0  0  0  0  0  0
    6.8999   -1.3591   -1.5305 H   0  0  0  0  0  0  0  0  0  0  0  0
  1  2  1  0
  2  3  2  0
  3  4  1  0
  4  5  2  0
  5  6  1  0
  6  7  2  0
  7  8  1  0
  8  9  1  0
  9 10  1  0
 10 11  2  0
 10 12  1  0
 12 13  1  0
 13 14  2  0
 14 15  1  0
 15 16  2  0
 16 17  1  0
 17 18  2  0
 18 19  1  0
 19 20  1  0
 20 21  2  0
 21 22  1  0
 22 23  2  0
 23 24  1  0
 24 25  2  0
  8 26  2  0
 26 27  1  0
 27 28  1  0
 28 29  1  0
 29 30  1  0
  5 31  1  0
 31 32  2  0
 32  2  1  0
 27  6  1  0
 25 12  1  0
 30 26  1  0
 18 13  1  0
 25 20  1  0
  1 33  1  0
  1 34  1  0
  1 35  1  0
  3 36  1  0
  4 37  1  0
  7 38  1  0
  9 39  1  0
  9 40  1  0
 14 41  1  0
 15 42  1  0
 16 43  1  0
 17 44  1  0
 21 45  1  0
 22 46  1  0
 23 47  1  0
 24 48  1  0
 28 49  1  0
 28 50  1  0
 29 51  1  0
 29 52  1  0
 30 53  1  0
 30 54  1  0
 31 55  1  0
 32 56  1  0
M  CHG  1   8   1
M  END
$$$$
