
     RDKit          3D

 31 32  0  0  0  0  0  0  0  0999 V2000
    2.2968   -1.5726   -2.0804 C   0  0  0  0  0  0  0  0  0  0  0  0
    2.7238   -1.7651   -0.6326 C   0  0  0  0  0  0  0  0  0  0  0  0
    2.8976   -0.4873    0.0542 N   0  0  0  0  0  0  0  0  0  0  0  0
    1.9392    0.3496    0.5469 C   0  0  0  0  0  0  0  0  0  0  0  0
    0.5345    0.0213    0.6561 C   0  0  0  0  0  0  0  0  0  0  0  0
    0.0314   -1.1508    1.1852 C   0  0  0  0  0  0  0  0  0  0  0  0
   -1.6754   -1.2139    1.1658 S   0  0  0  0  0  0  0  0  0  0  0  0
   -1.7946    0.3615    0.5041 C   0  0  0  0  0  0  0  0  0  0  0  0
   -3.1301    1.0125    0.2182 C   0  0  0  0  0  0  0  0  0  0  0  0
   -3.9285    0.2462   -0.8374 C   0  0  0  0  0  0  0  0  0  0  0  0
   -3.9527    1.2203    1.4907 C   0  0  0  0  0  0  0  0  0  0  0  0
   -0.5404    0.9046    0.2988 C   0  0  0  0  0  0  0  0  0  0  0  0
    2.3696    1.5261    0.9068 N   0  0  0  0  0  0  0  0  0  0  0  0
    3.7090    1.4791    0.6573 N   0  0  0  0  0  0  0  0  0  0  0  0
    4.0538    0.2573    0.1009 C   0  0  0  0  0  0  0  0  0  0  0  0
    5.5904   -0.1177   -0.3939 S   0  0  0  0  0  0  0  0  0  0  0  0
    3.0366   -0.9883   -2.6369 H   0  0  0  0  0  0  0  0  0  0  0  0
    1.3398   -1.0452   -2.1447 H   0  0  0  0  0  0  0  0  0  0  0  0
    2.1849   -2.5424   -2.5749 H   0  0  0  0  0  0  0  0  0  0  0  0
    1.9774   -2.3663   -0.1114 H   0  0  0  0  0  0  0  0  0  0  0  0
    3.6638   -2.3247   -0.6020 H   0  0  0  0  0  0  0  0  0  0  0  0
    0.5792   -1.9838    1.6030 H   0  0  0  0  0  0  0  0  0  0  0  0
   -2.9267    2.0096   -0.1969 H   0  0  0  0  0  0  0  0  0  0  0  0
   -3.3389    0.1053   -1.7502 H   0  0  0  0  0  0  0  0  0  0  0  0
   -4.8366    0.7964   -1.1067 H   0  0  0  0  0  0  0  0  0  0  0  0
   -4.2346   -0.7433   -0.4809 H   0  0  0  0  0  0  0  0  0  0  0  0
   -4.8613    1.7918    1.2718 H   0  0  0  0  0  0  0  0  0  0  0  0
   -3.3804    1.7757    2.2421 H   0  0  0  0  0  0  0  0  0  0  0  0
   -4.2599    0.2695    1.9396 H   0  0  0  0  0  0  0  0  0  0  0  0
   -0.3857    1.9004   -0.1026 H   0  0  0  0  0  0  0  0  0  0  0  0
    4.3179    2.2742    0.8097 H   0  0  0  0  0  0  0  0  0  0  0  0
  1  2  1  0
  2  3  1  0
  3  4  1  0
  4  5  1  0
  5  6  2  0
  6  7  1  0
  7  8  1  0
  8  9  1  0
  9 10  1  0
  9 11  1  0
  8 12  2  0
  4 13  2  0
 13 14  1  0
 14 15  1  0
 15 16  2  0
 15  3  1  0
 12  5  1  0
  1 17  1  0
  1 18  1  0
  1 19  1  0
  2 20  1  0
  2 21  1  0
  6 22  1  0
  9 23  1  0
 10 24  1  0
 10 25  1  0
 10 26  1  0
 11 27  1  0
 11 28  1  0
 11 29  1  0
 12 30  1  0
 14 31  1  0
M  END
$$$$
