
     RDKit          3D

 39 41  0  0  0  0  0  0  0  0999 V2000
   -4.3291   -2.7727    2.4689 C   0  0  0  0  0  0  0  0  0  0  0  0
   -3.9574   -1.5487    3.0921 O   0  0  0  0  0  0  0  0  0  0  0  0
   -3.3599   -0.6077    2.2995 C   0  0  0  0  0  0  0  0  0  0  0  0
   -3.0589    0.5945    2.9501 C   0  0  0  0  0  0  0  0  0  0  0  0
   -2.4430    1.6430    2.2643 C   0  0  0  0  0  0  0  0  0  0  0  0
   -2.1174    1.4784    0.9169 C   0  0  0  0  0  0  0  0  0  0  0  0
   -1.3360    2.8106    0.0336 S   0  0  0  0  0  6  0  0  0  0  0  0
   -1.7156    4.0466    0.6864 O   0  0  0  0  0  0  0  0  0  0  0  0
   -1.5659    2.6095   -1.3805 O   0  0  0  0  0  0  0  0  0  0  0  0
    0.3019    2.5853    0.3801 N   0  0  0  0  0  0  0  0  0  0  0  0
    0.9070    1.3210    0.1366 C   0  0  0  0  0  0  0  0  0  0  0  0
    1.4002    0.5943    1.2212 C   0  0  0  0  0  0  0  0  0  0  0  0
    1.9638   -0.6664    1.0195 C   0  0  0  0  0  0  0  0  0  0  0  0
    2.0349   -1.1940   -0.2702 C   0  0  0  0  0  0  0  0  0  0  0  0
    2.5755   -2.4370   -0.4594 O   0  0  0  0  0  0  0  0  0  0  0  0
    1.5538   -0.4673   -1.3685 C   0  0  0  0  0  0  0  0  0  0  0  0
    1.6187   -1.1095   -3.0324 S   0  0  0  0  0  0  0  0  0  0  0  0
    3.2150   -0.6209   -3.5434 C   0  0  0  0  0  0  0  0  0  0  0  0
    4.0525    0.1877   -2.8152 N   0  0  0  0  0  0  0  0  0  0  0  0
    5.1053    0.3022   -3.5885 C   0  0  0  0  0  0  0  0  0  0  0  0
    4.9021   -0.3972   -4.7342 N   0  0  0  0  0  0  0  0  0  0  0  0
    3.7019   -0.9932   -4.7343 N   0  0  0  0  0  0  0  0  0  0  0  0
    0.9854    0.7953   -1.1529 C   0  0  0  0  0  0  0  0  0  0  0  0
   -2.4299    0.2903    0.2501 C   0  0  0  0  0  0  0  0  0  0  0  0
   -3.0444   -0.7552    0.9467 C   0  0  0  0  0  0  0  0  0  0  0  0
   -4.8123   -3.3991    3.2253 H   0  0  0  0  0  0  0  0  0  0  0  0
   -5.0530   -2.6033    1.6647 H   0  0  0  0  0  0  0  0  0  0  0  0
   -3.4479   -3.3119    2.1039 H   0  0  0  0  0  0  0  0  0  0  0  0
   -3.3157    0.7145    4.0005 H   0  0  0  0  0  0  0  0  0  0  0  0
   -2.2297    2.5744    2.7833 H   0  0  0  0  0  0  0  0  0  0  0  0
    0.5927    3.1074    1.2043 H   0  0  0  0  0  0  0  0  0  0  0  0
    1.3388    0.9911    2.2307 H   0  0  0  0  0  0  0  0  0  0  0  0
    2.3331   -1.2235    1.8753 H   0  0  0  0  0  0  0  0  0  0  0  0
    2.9526   -2.7558    0.3757 H   0  0  0  0  0  0  0  0  0  0  0  0
    6.0075    0.8592   -3.3805 H   0  0  0  0  0  0  0  0  0  0  0  0
    5.5141   -0.5117   -5.5339 H   0  0  0  0  0  0  0  0  0  0  0  0
    0.6178    1.3728   -1.9982 H   0  0  0  0  0  0  0  0  0  0  0  0
   -2.1944    0.1661   -0.8054 H   0  0  0  0  0  0  0  0  0  0  0  0
   -3.2638   -1.6690    0.4029 H   0  0  0  0  0  0  0  0  0  0  0  0
  1  2  1  0
  2  3  1  0
  3  4  2  0
  4  5  1  0
  5  6  2  0
  6  7  1  0
  7  8  2  0
  7  9  2  0
  7 10  1  0
 10 11  1  0
 11 12  2  0
 12 13  1  0
 13 14  2  0
 14 15  1  0
 14 16  1  0
 16 17  1  0
 17 18  1  0
 18 19  1  0
 19 20  2  0
 20 21  1  0
 21 22  1  0
 16 23  2  0
  6 24  1  0
 24 25  2  0
 25  3  1  0
 23 11  1  0
 22 18  2  0
  1 26  1  0
  1 27  1  0
  1 28  1  0
  4 29  1  0
  5 30  1  0
 10 31  1  0
 12 32  1  0
 13 33  1  0
 15 34  1  0
 20 35  1  0
 21 36  1  0
 23 37  1  0
 24 38  1  0
 25 39  1  0
M  END
$$$$
