
     RDKit          3D

 33 33  0  0  0  0  0  0  0  0999 V2000
   -3.4169   -1.9444    1.9849 C   0  0  0  0  0  0  0  0  0  0  0  0
   -3.4708   -0.9980    0.7817 C   0  0  0  0  0  0  0  0  0  0  0  0
   -4.6948   -0.0886    0.9036 C   0  0  0  0  0  0  0  0  0  0  0  0
   -2.2174   -0.2290    0.7387 N   0  0  0  0  0  0  0  0  0  0  0  0
   -2.0107    0.4522   -0.5410 C   0  0  0  0  0  0  0  0  0  0  0  0
   -0.7302    1.2897   -0.5460 C   0  0  0  0  0  0  0  0  0  0  0  0
    0.5484    0.4633   -0.4399 C   0  0  0  0  0  0  0  0  0  0  0  0
    1.6552    1.3506   -0.6075 O   0  0  0  0  0  0  0  0  0  0  0  0
    2.9182    0.8246   -0.5600 C   0  0  0  0  0  0  0  0  0  0  0  0
    3.2061   -0.5266   -0.3388 C   0  0  0  0  0  0  0  0  0  0  0  0
    4.5321   -0.9726   -0.3062 C   0  0  0  0  0  0  0  0  0  0  0  0
    5.5762   -0.0705   -0.4943 C   0  0  0  0  0  0  0  0  0  0  0  0
    7.2030   -0.6281   -0.4530 Cl  0  0  0  0  0  0  0  0  0  0  0  0
    5.3112    1.2765   -0.7153 C   0  0  0  0  0  0  0  0  0  0  0  0
    3.9859    1.7198   -0.7474 C   0  0  0  0  0  0  0  0  0  0  0  0
    3.6841    3.5723   -1.0549 Br  0  0  0  0  0  0  0  0  0  0  0  0
   -4.3288   -2.5486    2.0430 H   0  0  0  0  0  0  0  0  0  0  0  0
   -3.3181   -1.3928    2.9269 H   0  0  0  0  0  0  0  0  0  0  0  0
   -2.5698   -2.6351    1.9058 H   0  0  0  0  0  0  0  0  0  0  0  0
   -3.5633   -1.6147   -0.1210 H   0  0  0  0  0  0  0  0  0  0  0  0
   -5.6063   -0.6840    1.0270 H   0  0  0  0  0  0  0  0  0  0  0  0
   -4.8332    0.5288    0.0109 H   0  0  0  0  0  0  0  0  0  0  0  0
   -4.6126    0.5784    1.7692 H   0  0  0  0  0  0  0  0  0  0  0  0
   -1.4390   -0.8602    0.9207 H   0  0  0  0  0  0  0  0  0  0  0  0
   -1.9713   -0.2788   -1.3575 H   0  0  0  0  0  0  0  0  0  0  0  0
   -2.8433    1.1328   -0.7468 H   0  0  0  0  0  0  0  0  0  0  0  0
   -0.6960    1.8757   -1.4738 H   0  0  0  0  0  0  0  0  0  0  0  0
   -0.7551    2.0305    0.2638 H   0  0  0  0  0  0  0  0  0  0  0  0
    0.6044   -0.0137    0.5449 H   0  0  0  0  0  0  0  0  0  0  0  0
    0.5584   -0.2974   -1.2295 H   0  0  0  0  0  0  0  0  0  0  0  0
    2.4232   -1.2622   -0.1860 H   0  0  0  0  0  0  0  0  0  0  0  0
    4.7412   -2.0255   -0.1327 H   0  0  0  0  0  0  0  0  0  0  0  0
    6.1302    1.9755   -0.8611 H   0  0  0  0  0  0  0  0  0  0  0  0
  1  2  1  0
  2  3  1  0
  2  4  1  0
  4  5  1  0
  5  6  1  0
  6  7  1  0
  7  8  1  0
  8  9  1  0
  9 10  2  0
 10 11  1  0
 11 12  2  0
 12 13  1  0
 12 14  1  0
 14 15  2  0
 15 16  1  0
 15  9  1  0
  1 17  1  0
  1 18  1  0
  1 19  1  0
  2 20  1  0
  3 21  1  0
  3 22  1  0
  3 23  1  0
  4 24  1  0
  5 25  1  0
  5 26  1  0
  6 27  1  0
  6 28  1  0
  7 29  1  0
  7 30  1  0
 10 31  1  0
 11 32  1  0
 14 33  1  0
M  END
$$$$
