
     RDKit          3D

 44 47  0  0  0  0  0  0  0  0999 V2000
   -3.2145   -1.4610   -1.5719 O   0  0  0  0  0  0  0  0  0  0  0  0
   -2.6703   -0.8308   -0.6773 C   0  0  0  0  0  0  0  0  0  0  0  0
   -1.9220   -1.3354    0.3681 O   0  0  0  0  0  0  0  0  0  0  0  0
   -1.7167   -2.7204    0.3106 C   0  0  0  0  0  0  0  0  0  0  0  0
   -2.4541   -3.5145    1.1900 C   0  0  0  0  0  0  0  0  0  0  0  0
   -2.2358   -4.8922    1.2140 C   0  0  0  0  0  0  0  0  0  0  0  0
   -1.2797   -5.4634    0.3720 C   0  0  0  0  0  0  0  0  0  0  0  0
   -0.5346   -4.6592   -0.4964 C   0  0  0  0  0  0  0  0  0  0  0  0
   -0.7396   -3.2741   -0.5318 C   0  0  0  0  0  0  0  0  0  0  0  0
    0.0586   -2.4655   -1.4588 C   0  0  0  0  0  0  0  0  0  0  0  0
    1.0263   -1.5895   -1.1373 C   0  0  0  0  0  0  0  0  0  0  0  0
    1.5202   -1.2876    0.2460 C   0  0  0  0  0  0  0  0  0  0  0  0
    1.3461   -2.0804    1.1680 O   0  0  0  0  0  0  0  0  0  0  0  0
    2.2223   -0.0317    0.4362 C   0  0  0  0  0  0  0  0  0  0  0  0
    2.7833    0.5136    1.5776 C   0  0  0  0  0  0  0  0  0  0  0  0
    3.3362    1.7680    1.2127 C   0  0  0  0  0  0  0  0  0  0  0  0
    4.0416    2.7882    1.8758 C   0  0  0  0  0  0  0  0  0  0  0  0
    4.4379    3.9178    1.1435 C   0  0  0  0  0  0  0  0  0  0  0  0
    4.1307    4.0406   -0.2164 C   0  0  0  0  0  0  0  0  0  0  0  0
    3.4356    3.0325   -0.8942 C   0  0  0  0  0  0  0  0  0  0  0  0
    3.0632    1.9199   -0.1412 C   0  0  0  0  0  0  0  0  0  0  0  0
    2.3944    0.8330   -0.6139 O   0  0  0  0  0  0  0  0  0  0  0  0
   -2.7315    0.6559   -0.5717 C   0  0  0  0  0  0  0  0  0  0  0  0
   -2.0850    1.3733    0.4487 C   0  0  0  0  0  0  0  0  0  0  0  0
   -2.1746    2.7678    0.4940 C   0  0  0  0  0  0  0  0  0  0  0  0
   -2.9077    3.4521   -0.4763 C   0  0  0  0  0  0  0  0  0  0  0  0
   -3.5535    2.7474   -1.4929 C   0  0  0  0  0  0  0  0  0  0  0  0
   -3.4656    1.3536   -1.5421 C   0  0  0  0  0  0  0  0  0  0  0  0
   -3.1874   -3.0647    1.8522 H   0  0  0  0  0  0  0  0  0  0  0  0
   -2.8040   -5.5203    1.8946 H   0  0  0  0  0  0  0  0  0  0  0  0
   -1.1050   -6.5371    0.3980 H   0  0  0  0  0  0  0  0  0  0  0  0
    0.2181   -5.1204   -1.1334 H   0  0  0  0  0  0  0  0  0  0  0  0
   -0.2125   -2.5966   -2.5062 H   0  0  0  0  0  0  0  0  0  0  0  0
    1.4952   -1.0250   -1.9370 H   0  0  0  0  0  0  0  0  0  0  0  0
    2.7866    0.0491    2.5542 H   0  0  0  0  0  0  0  0  0  0  0  0
    4.2915    2.6983    2.9301 H   0  0  0  0  0  0  0  0  0  0  0  0
    4.9998    4.7088    1.6422 H   0  0  0  0  0  0  0  0  0  0  0  0
    4.4528    4.9273   -0.7604 H   0  0  0  0  0  0  0  0  0  0  0  0
    3.2034    3.1045   -1.9496 H   0  0  0  0  0  0  0  0  0  0  0  0
   -1.5030    0.8651    1.2134 H   0  0  0  0  0  0  0  0  0  0  0  0
   -1.6717    3.3203    1.2857 H   0  0  0  0  0  0  0  0  0  0  0  0
   -2.9760    4.5371   -0.4379 H   0  0  0  0  0  0  0  0  0  0  0  0
   -4.1267    3.2821   -2.2460 H   0  0  0  0  0  0  0  0  0  0  0  0
   -3.9722    0.8133   -2.3418 H   0  0  0  0  0  0  0  0  0  0  0  0
  1  2  2  0
  2  3  1  0
  3  4  1  0
  4  5  2  0
  5  6  1  0
  6  7  2  0
  7  8  1  0
  8  9  2  0
  9 10  1  0
 10 11  2  3
 11 12  1  0
 12 13  2  0
 12 14  1  0
 14 15  2  0
 15 16  1  0
 16 17  2  0
 17 18  1  0
 18 19  2  0
 19 20  1  0
 20 21  2  0
 21 22  1  0
  2 23  1  0
 23 24  2  0
 24 25  1  0
 25 26  2  0
 26 27  1  0
 27 28  2  0
  9  4  1  0
 22 14  1  0
 28 23  1  0
 21 16  1  0
  5 29  1  0
  6 30  1  0
  7 31  1  0
  8 32  1  0
 10 33  1  0
 11 34  1  0
 15 35  1  0
 17 36  1  0
 18 37  1  0
 19 38  1  0
 20 39  1  0
 24 40  1  0
 25 41  1  0
 26 42  1  0
 27 43  1  0
 28 44  1  0
M  END
$$$$
