
     RDKit          3D

 39 41  0  0  0  0  0  0  0  0999 V2000
    5.3986   -0.8357   -1.5345 C   0  0  0  0  0  0  0  0  0  0  0  0
    4.4598    0.2702   -1.9831 C   0  0  0  0  0  0  0  0  0  0  0  0
    4.0336    1.1133   -0.8775 N   0  0  0  0  0  0  0  0  0  0  0  0
    4.7931    2.1923   -0.5748 N   0  0  0  0  0  0  0  0  0  0  0  0
    4.1572    2.7522    0.4530 C   0  0  0  0  0  0  0  0  0  0  0  0
    2.9924    2.0520    0.7845 C   0  0  0  0  0  0  0  0  0  0  0  0
    1.8895    2.5328    2.2196 Br  0  0  0  0  0  0  0  0  0  0  0  0
    2.8981    0.9941   -0.0989 C   0  0  0  0  0  0  0  0  0  0  0  0
    1.9212   -0.0698   -0.2381 C   0  0  0  0  0  0  0  0  0  0  0  0
    2.2435   -1.1609   -0.6927 O   0  0  0  0  0  0  0  0  0  0  0  0
    0.6426    0.2978    0.1359 N   0  0  0  0  0  0  0  0  0  0  0  0
   -0.5027   -0.4886    0.1484 C   0  0  0  0  0  0  0  0  0  0  0  0
   -0.4296   -2.1744   -0.1655 S   0  0  0  0  0  0  0  0  0  0  0  0
   -2.0720   -2.3239    0.0612 C   0  0  0  0  0  0  0  0  0  0  0  0
   -2.7001   -1.1508    0.3683 C   0  0  0  0  0  0  0  0  0  0  0  0
   -1.8000   -0.0485    0.4333 C   0  0  0  0  0  0  0  0  0  0  0  0
   -2.1210    1.3430    0.7374 C   0  0  0  0  0  0  0  0  0  0  0  0
   -1.2816    2.2383    0.7227 O   0  0  0  0  0  0  0  0  0  0  0  0
   -3.4379    1.5336    1.0379 O   0  0  0  0  0  0  0  0  0  0  0  0
   -3.7775    2.8861    1.3433 C   0  0  0  0  0  0  0  0  0  0  0  0
   -4.1593   -1.3683    0.5547 C   0  0  0  0  0  0  0  0  0  0  0  0
   -4.3628   -2.8027   -0.0266 C   0  0  0  0  0  0  0  0  0  0  0  0
   -2.9691   -3.4995   -0.0073 C   0  0  0  0  0  0  0  0  0  0  0  0
    6.3047   -0.4213   -1.0798 H   0  0  0  0  0  0  0  0  0  0  0  0
    4.9258   -1.4881   -0.7936 H   0  0  0  0  0  0  0  0  0  0  0  0
    5.6974   -1.4497   -2.3896 H   0  0  0  0  0  0  0  0  0  0  0  0
    4.9630    0.9175   -2.7112 H   0  0  0  0  0  0  0  0  0  0  0  0
    3.5728   -0.1315   -2.4809 H   0  0  0  0  0  0  0  0  0  0  0  0
    4.5776    3.6379    0.9117 H   0  0  0  0  0  0  0  0  0  0  0  0
    0.4927    1.2724    0.3908 H   0  0  0  0  0  0  0  0  0  0  0  0
   -3.2260    3.2309    2.2235 H   0  0  0  0  0  0  0  0  0  0  0  0
   -4.8469    2.9239    1.5687 H   0  0  0  0  0  0  0  0  0  0  0  0
   -3.5821    3.5343    0.4833 H   0  0  0  0  0  0  0  0  0  0  0  0
   -4.7715   -0.6401    0.0158 H   0  0  0  0  0  0  0  0  0  0  0  0
   -4.4164   -1.3463    1.6189 H   0  0  0  0  0  0  0  0  0  0  0  0
   -4.7053   -2.7196   -1.0667 H   0  0  0  0  0  0  0  0  0  0  0  0
   -5.1199   -3.3703    0.5232 H   0  0  0  0  0  0  0  0  0  0  0  0
   -2.8185   -4.1099   -0.9017 H   0  0  0  0  0  0  0  0  0  0  0  0
   -2.8636   -4.1227    0.8867 H   0  0  0  0  0  0  0  0  0  0  0  0
  1  2  1  0
  2  3  1  0
  3  4  1  0
  4  5  2  0
  5  6  1  0
  6  7  1  0
  6  8  2  0
  8  9  1  0
  9 10  2  0
  9 11  1  0
 11 12  1  0
 12 13  1  0
 13 14  1  0
 14 15  2  0
 15 16  1  0
 16 17  1  0
 17 18  2  0
 17 19  1  0
 19 20  1  0
 15 21  1  0
 21 22  1  0
 22 23  1  0
  8  3  1  0
 16 12  2  0
 23 14  1  0
  1 24  1  0
  1 25  1  0
  1 26  1  0
  2 27  1  0
  2 28  1  0
  5 29  1  0
 11 30  1  0
 20 31  1  0
 20 32  1  0
 20 33  1  0
 21 34  1  0
 21 35  1  0
 22 36  1  0
 22 37  1  0
 23 38  1  0
 23 39  1  0
M  END
$$$$
