
     RDKit          3D

 39 40  0  0  0  0  0  0  0  0999 V2000
    5.6153   -0.1539    3.2292 C   0  0  0  0  0  0  0  0  0  0  0  0
    4.2894   -0.3480    2.5519 C   0  0  0  0  0  0  0  0  0  0  0  0
    3.8030   -1.6349    2.2945 C   0  0  0  0  0  0  0  0  0  0  0  0
    2.5550   -1.8154    1.6901 C   0  0  0  0  0  0  0  0  0  0  0  0
    1.7733   -0.7058    1.3477 C   0  0  0  0  0  0  0  0  0  0  0  0
    0.4388   -0.8355    0.7043 C   0  0  0  0  0  0  0  0  0  0  0  0
   -0.2377    0.1255    0.3575 O   0  0  0  0  0  0  0  0  0  0  0  0
    0.0785   -2.1382    0.5746 O   0  0  0  0  0  0  0  0  0  0  0  0
   -1.1671   -2.3405   -0.0996 C   0  0  0  0  0  0  0  0  0  0  0  0
   -1.1533   -1.8131   -1.5378 C   0  0  0  0  0  0  0  0  0  0  0  0
   -0.1538   -1.8699   -2.2515 O   0  0  0  0  0  0  0  0  0  0  0  0
   -2.3339   -1.2164   -1.9426 N   0  0  0  0  0  0  0  0  0  0  0  0
   -2.3315   -0.3567   -3.1169 C   0  0  0  0  0  0  0  0  0  0  0  0
   -1.8004    1.0484   -2.7892 C   0  0  0  0  0  0  0  0  0  0  0  0
   -2.8110    1.8924   -2.1631 N   0  0  0  0  0  0  0  0  0  0  0  0
   -3.2445    1.7988   -0.8609 C   0  0  0  0  0  0  0  0  0  0  0  0
   -2.7001    0.9101    0.0159 O   0  0  0  0  0  0  0  0  0  0  0  0
   -4.2811    2.5876   -0.5578 C   0  0  0  0  0  0  0  0  0  0  0  0
   -4.7952    3.5220   -1.9252 S   0  0  0  0  0  0  0  0  0  0  0  0
   -3.5550    2.7721   -2.9470 C   0  0  0  0  0  0  0  0  0  0  0  0
   -3.4333    3.0043   -4.1387 O   0  0  0  0  0  0  0  0  0  0  0  0
    2.2534    0.5808    1.6154 C   0  0  0  0  0  0  0  0  0  0  0  0
    3.5005    0.7584    2.2186 C   0  0  0  0  0  0  0  0  0  0  0  0
    5.4878   -0.1824    4.3159 H   0  0  0  0  0  0  0  0  0  0  0  0
    6.3236   -0.9361    2.9320 H   0  0  0  0  0  0  0  0  0  0  0  0
    6.0582    0.8098    2.9514 H   0  0  0  0  0  0  0  0  0  0  0  0
    4.3973   -2.5078    2.5593 H   0  0  0  0  0  0  0  0  0  0  0  0
    2.2102   -2.8258    1.4914 H   0  0  0  0  0  0  0  0  0  0  0  0
   -1.9740   -1.8876    0.4880 H   0  0  0  0  0  0  0  0  0  0  0  0
   -1.3518   -3.4181   -0.1454 H   0  0  0  0  0  0  0  0  0  0  0  0
   -3.0087   -0.9756   -1.2222 H   0  0  0  0  0  0  0  0  0  0  0  0
   -1.7068   -0.8201   -3.8865 H   0  0  0  0  0  0  0  0  0  0  0  0
   -3.3581   -0.3113   -3.4919 H   0  0  0  0  0  0  0  0  0  0  0  0
   -1.4942    1.5233   -3.7287 H   0  0  0  0  0  0  0  0  0  0  0  0
   -0.9136    1.0175   -2.1470 H   0  0  0  0  0  0  0  0  0  0  0  0
   -1.7231    0.8881   -0.1127 H   0  0  0  0  0  0  0  0  0  0  0  0
   -4.7683    2.6322    0.4053 H   0  0  0  0  0  0  0  0  0  0  0  0
    1.6612    1.4539    1.3603 H   0  0  0  0  0  0  0  0  0  0  0  0
    3.8513    1.7680    2.4253 H   0  0  0  0  0  0  0  0  0  0  0  0
  1  2  1  0
  2  3  2  0
  3  4  1  0
  4  5  2  0
  5  6  1  0
  6  7  2  0
  6  8  1  0
  8  9  1  0
  9 10  1  0
 10 11  2  0
 10 12  1  0
 12 13  1  0
 13 14  1  0
 14 15  1  0
 15 16  1  0
 16 17  1  0
 16 18  2  0
 18 19  1  0
 19 20  1  0
 20 21  2  0
  5 22  1  0
 22 23  2  0
 23  2  1  0
 20 15  1  0
  1 24  1  0
  1 25  1  0
  1 26  1  0
  3 27  1  0
  4 28  1  0
  9 29  1  0
  9 30  1  0
 12 31  1  0
 13 32  1  0
 13 33  1  0
 14 34  1  0
 14 35  1  0
 17 36  1  0
 18 37  1  0
 22 38  1  0
 23 39  1  0
M  END
$$$$
