
     RDKit          3D

 50 54  0  0  0  0  0  0  0  0999 V2000
   -4.8587    1.4483    0.3274 C   0  0  0  0  0  0  0  0  0  0  0  0
   -4.7009   -0.0050    0.6521 C   0  0  0  0  0  0  0  0  0  0  0  0
   -5.7257   -0.7988    1.0014 C   0  0  0  0  0  0  0  0  0  0  0  0
   -5.5185   -2.1892    1.3020 C   0  0  0  0  0  0  0  0  0  0  0  0
   -4.2887   -2.7100    1.2323 C   0  0  0  0  0  0  0  0  0  0  0  0
   -3.1871   -1.9409    0.8756 N   0  0  0  0  0  0  0  0  0  0  0  0
   -1.9380   -2.5366    0.8231 C   0  0  0  0  0  0  0  0  0  0  0  0
   -1.7250   -3.7239    1.0774 O   0  0  0  0  0  0  0  0  0  0  0  0
   -0.8048   -1.6506    0.4331 C   0  0  0  0  0  0  0  0  0  0  0  0
    0.5402   -2.1976    0.3539 C   0  0  0  0  0  0  0  0  0  0  0  0
    1.5958   -1.4557   -0.0205 C   0  0  0  0  0  0  0  0  0  0  0  0
    3.1552   -2.1968   -0.1183 S   0  0  0  0  0  6  0  0  0  0  0  0
    3.5565   -2.3242   -1.5091 O   0  0  0  0  0  0  0  0  0  0  0  0
    3.1795   -3.3853    0.7263 O   0  0  0  0  0  0  0  0  0  0  0  0
    4.2721   -1.0544    0.6796 C   0  0  0  0  0  0  0  0  0  0  0  0
    4.1748   -0.8619    2.0648 C   0  0  0  0  0  0  0  0  0  0  0  0
    5.0489    0.0223    2.6944 C   0  0  0  0  0  0  0  0  0  0  0  0
    6.0109    0.6899    1.9412 C   0  0  0  0  0  0  0  0  0  0  0  0
    6.8403    1.5448    2.5491 F   0  0  0  0  0  0  0  0  0  0  0  0
    6.1254    0.4846    0.5692 C   0  0  0  0  0  0  0  0  0  0  0  0
    5.2560   -0.3986   -0.0694 C   0  0  0  0  0  0  0  0  0  0  0  0
    1.3289   -0.0316   -0.3838 C   0  0  0  0  0  0  0  0  0  0  0  0
    2.3278    0.6463   -0.8597 N   0  0  0  0  0  0  0  0  0  0  0  0
    0.0363    0.4895   -0.2041 N   0  0  0  0  0  0  0  0  0  0  0  0
   -0.2296    1.9257   -0.4234 C   0  0  0  0  0  0  0  0  0  0  0  0
   -0.4088    2.3420   -1.8461 C   0  0  0  0  0  0  0  0  0  0  0  0
   -0.6380    1.6604   -3.0242 C   0  0  0  0  0  0  0  0  0  0  0  0
   -0.7019    2.6365   -4.0460 C   0  0  0  0  0  0  0  0  0  0  0  0
   -0.5260    3.8528   -3.4269 C   0  0  0  0  0  0  0  0  0  0  0  0
   -0.3432    3.6848   -2.0920 O   0  0  0  0  0  0  0  0  0  0  0  0
   -1.0496   -0.3478    0.1670 C   0  0  0  0  0  0  0  0  0  0  0  0
   -2.3217    0.1664    0.2457 N   0  0  0  0  0  0  0  0  0  0  0  0
   -3.3170   -0.5943    0.5777 C   0  0  0  0  0  0  0  0  0  0  0  0
   -4.2794    2.0635    1.0235 H   0  0  0  0  0  0  0  0  0  0  0  0
   -5.9037    1.7675    0.3990 H   0  0  0  0  0  0  0  0  0  0  0  0
   -4.5154    1.6558   -0.6918 H   0  0  0  0  0  0  0  0  0  0  0  0
   -6.7406   -0.4163    1.0656 H   0  0  0  0  0  0  0  0  0  0  0  0
   -6.3725   -2.7984    1.5823 H   0  0  0  0  0  0  0  0  0  0  0  0
   -4.1107   -3.7605    1.4546 H   0  0  0  0  0  0  0  0  0  0  0  0
    0.6583   -3.2509    0.6068 H   0  0  0  0  0  0  0  0  0  0  0  0
    3.4330   -1.3978    2.6526 H   0  0  0  0  0  0  0  0  0  0  0  0
    4.9925    0.1914    3.7658 H   0  0  0  0  0  0  0  0  0  0  0  0
    6.8851    1.0146    0.0047 H   0  0  0  0  0  0  0  0  0  0  0  0
    5.3354   -0.5565   -1.1431 H   0  0  0  0  0  0  0  0  0  0  0  0
    2.0666    1.5935   -1.1371 H   0  0  0  0  0  0  0  0  0  0  0  0
    0.5898    2.5095    0.0184 H   0  0  0  0  0  0  0  0  0  0  0  0
   -1.1129    2.2552    0.1394 H   0  0  0  0  0  0  0  0  0  0  0  0
   -0.7309    0.5868   -3.1307 H   0  0  0  0  0  0  0  0  0  0  0  0
   -0.8631    2.4754   -5.1023 H   0  0  0  0  0  0  0  0  0  0  0  0
   -0.4965    4.8762   -3.7773 H   0  0  0  0  0  0  0  0  0  0  0  0
  1  2  1  0
  2  3  2  0
  3  4  1  0
  4  5  2  0
  5  6  1  0
  6  7  1  0
  7  8  2  0
  7  9  1  0
  9 10  1  0
 10 11  2  0
 11 12  1  0
 12 13  2  0
 12 14  2  0
 12 15  1  0
 15 16  2  0
 16 17  1  0
 17 18  2  0
 18 19  1  0
 18 20  1  0
 20 21  2  0
 11 22  1  0
 22 23  2  3
 22 24  1  0
 24 25  1  0
 25 26  1  0
 26 27  2  0
 27 28  1  0
 28 29  2  0
 29 30  1  0
 24 31  1  0
 31 32  1  0
 32 33  2  0
 33  2  1  0
 33  6  1  0
 31  9  2  0
 21 15  1  0
 30 26  1  0
  1 34  1  0
  1 35  1  0
  1 36  1  0
  3 37  1  0
  4 38  1  0
  5 39  1  0
 10 40  1  0
 16 41  1  0
 17 42  1  0
 20 43  1  0
 21 44  1  0
 23 45  1  0
 25 46  1  0
 25 47  1  0
 27 48  1  0
 28 49  1  0
 29 50  1  0
M  END
$$$$
