
     RDKit          3D

 32 33  0  0  0  0  0  0  0  0999 V2000
    4.0261   -2.2842   -0.0662 C   0  0  0  0  0  0  0  0  0  0  0  0
    4.3150   -0.8415   -0.4444 C   0  0  0  0  0  0  0  0  0  0  0  0
    3.1999    0.3144    0.4059 S   0  0  0  0  0  0  0  0  0  0  0  0
    1.6856    0.0640   -0.4036 C   0  0  0  0  0  0  0  0  0  0  0  0
    1.3818   -0.2928   -1.6955 C   0  0  0  0  0  0  0  0  0  0  0  0
    0.0282   -0.3460   -1.8839 N   0  0  0  0  0  0  0  0  0  0  0  0
   -0.5163   -0.0315   -0.7226 C   0  0  0  0  0  0  0  0  0  0  0  0
   -1.9552    0.0470   -0.4813 C   0  0  0  0  0  0  0  0  0  0  0  0
   -2.7073    1.0594   -1.0886 C   0  0  0  0  0  0  0  0  0  0  0  0
   -4.0825    1.1480   -0.8650 C   0  0  0  0  0  0  0  0  0  0  0  0
   -4.7161    0.2179   -0.0417 C   0  0  0  0  0  0  0  0  0  0  0  0
   -3.9782   -0.8059    0.5514 C   0  0  0  0  0  0  0  0  0  0  0  0
   -2.6025   -0.8948    0.3284 C   0  0  0  0  0  0  0  0  0  0  0  0
    0.4684    0.2566    0.2107 N   0  0  0  0  0  0  0  0  0  0  0  0
    0.2349    0.7196    1.5684 C   0  0  0  0  0  0  0  0  0  0  0  0
    0.1449    2.2339    1.6578 C   0  0  0  0  0  0  0  0  0  0  0  0
    4.7459   -2.9471   -0.5579 H   0  0  0  0  0  0  0  0  0  0  0  0
    3.0252   -2.5975   -0.3795 H   0  0  0  0  0  0  0  0  0  0  0  0
    4.1174   -2.4413    1.0138 H   0  0  0  0  0  0  0  0  0  0  0  0
    4.2584   -0.7031   -1.5283 H   0  0  0  0  0  0  0  0  0  0  0  0
    5.3377   -0.5915   -0.1435 H   0  0  0  0  0  0  0  0  0  0  0  0
    2.0605   -0.5080   -2.5094 H   0  0  0  0  0  0  0  0  0  0  0  0
   -2.2204    1.7783   -1.7444 H   0  0  0  0  0  0  0  0  0  0  0  0
   -4.6592    1.9369   -1.3408 H   0  0  0  0  0  0  0  0  0  0  0  0
   -5.7880    0.2835    0.1267 H   0  0  0  0  0  0  0  0  0  0  0  0
   -4.4756   -1.5410    1.1788 H   0  0  0  0  0  0  0  0  0  0  0  0
   -2.0399   -1.7093    0.7784 H   0  0  0  0  0  0  0  0  0  0  0  0
   -0.6867    0.2639    1.9406 H   0  0  0  0  0  0  0  0  0  0  0  0
    1.0364    0.3410    2.2102 H   0  0  0  0  0  0  0  0  0  0  0  0
   -0.0288    2.5420    2.6934 H   0  0  0  0  0  0  0  0  0  0  0  0
   -0.6775    2.6194    1.0463 H   0  0  0  0  0  0  0  0  0  0  0  0
    1.0680    2.7098    1.3116 H   0  0  0  0  0  0  0  0  0  0  0  0
  1  2  1  0
  2  3  1  0
  3  4  1  0
  4  5  2  0
  5  6  1  0
  6  7  2  0
  7  8  1  0
  8  9  2  0
  9 10  1  0
 10 11  2  0
 11 12  1  0
 12 13  2  0
  7 14  1  0
 14 15  1  0
 15 16  1  0
 14  4  1  0
 13  8  1  0
  1 17  1  0
  1 18  1  0
  1 19  1  0
  2 20  1  0
  2 21  1  0
  5 22  1  0
  9 23  1  0
 10 24  1  0
 11 25  1  0
 12 26  1  0
 13 27  1  0
 15 28  1  0
 15 29  1  0
 16 30  1  0
 16 31  1  0
 16 32  1  0
M  END
$$$$
