
     RDKit          3D

 35 37  0  0  0  0  0  0  0  0999 V2000
   -2.3302    4.3748    4.2986 C   0  0  0  0  0  0  0  0  0  0  0  0
   -1.8330    3.0489    4.4291 O   0  0  0  0  0  0  0  0  0  0  0  0
   -1.3376    2.4616    3.2980 C   0  0  0  0  0  0  0  0  0  0  0  0
   -0.9223    1.1384    3.4610 C   0  0  0  0  0  0  0  0  0  0  0  0
   -0.3972    0.4171    2.3853 C   0  0  0  0  0  0  0  0  0  0  0  0
   -0.2863    1.0130    1.1262 C   0  0  0  0  0  0  0  0  0  0  0  0
    0.2888    0.2404    0.0180 C   0  0  0  0  0  0  0  0  0  0  0  0
   -0.3110   -0.0556   -1.1547 C   0  0  0  0  0  0  0  0  0  0  0  0
   -1.6430    0.3878   -1.4484 C   0  0  0  0  0  0  0  0  0  0  0  0
   -2.7134    0.7631   -1.7001 N   0  0  0  0  0  0  0  0  0  0  0  0
    0.3517   -0.8315   -2.1671 C   0  0  0  0  0  0  0  0  0  0  0  0
    0.4299   -0.4743   -3.4983 C   0  0  0  0  0  0  0  0  0  0  0  0
    1.1414   -1.4428   -4.1555 N   0  0  0  0  0  0  0  0  0  0  0  0
    1.5242   -2.4316   -3.2785 C   0  0  0  0  0  0  0  0  0  0  0  0
    2.2552   -3.6032   -3.5109 C   0  0  0  0  0  0  0  0  0  0  0  0
    2.4906   -4.4484   -2.4234 C   0  0  0  0  0  0  0  0  0  0  0  0
    2.0095   -4.1350   -1.1555 C   0  0  0  0  0  0  0  0  0  0  0  0
    1.2806   -2.9595   -0.9396 C   0  0  0  0  0  0  0  0  0  0  0  0
    1.0359   -2.0806   -2.0175 C   0  0  0  0  0  0  0  0  0  0  0  0
   -0.6865    2.3441    0.9668 C   0  0  0  0  0  0  0  0  0  0  0  0
   -1.2148    3.0635    2.0461 C   0  0  0  0  0  0  0  0  0  0  0  0
   -1.5306    5.0694    4.0206 H   0  0  0  0  0  0  0  0  0  0  0  0
   -2.7154    4.6848    5.2747 H   0  0  0  0  0  0  0  0  0  0  0  0
   -3.1591    4.4185    3.5843 H   0  0  0  0  0  0  0  0  0  0  0  0
   -1.0115    0.6636    4.4352 H   0  0  0  0  0  0  0  0  0  0  0  0
   -0.0851   -0.6125    2.5432 H   0  0  0  0  0  0  0  0  0  0  0  0
    1.2994   -0.1165    0.2105 H   0  0  0  0  0  0  0  0  0  0  0  0
    0.0479    0.3832   -4.0380 H   0  0  0  0  0  0  0  0  0  0  0  0
    1.3529   -1.4414   -5.1441 H   0  0  0  0  0  0  0  0  0  0  0  0
    2.6255   -3.8554   -4.4994 H   0  0  0  0  0  0  0  0  0  0  0  0
    3.0534   -5.3673   -2.5723 H   0  0  0  0  0  0  0  0  0  0  0  0
    2.1969   -4.8107   -0.3244 H   0  0  0  0  0  0  0  0  0  0  0  0
    0.9033   -2.7377    0.0542 H   0  0  0  0  0  0  0  0  0  0  0  0
   -0.5925    2.8412    0.0036 H   0  0  0  0  0  0  0  0  0  0  0  0
   -1.5176    4.0906    1.8724 H   0  0  0  0  0  0  0  0  0  0  0  0
  1  2  1  0
  2  3  1  0
  3  4  2  0
  4  5  1  0
  5  6  2  0
  6  7  1  0
  7  8  2  3
  8  9  1  0
  9 10  3  0
  8 11  1  0
 11 12  2  0
 12 13  1  0
 13 14  1  0
 14 15  2  0
 15 16  1  0
 16 17  2  0
 17 18  1  0
 18 19  2  0
  6 20  1  0
 20 21  2  0
 21  3  1  0
 19 11  1  0
 19 14  1  0
  1 22  1  0
  1 23  1  0
  1 24  1  0
  4 25  1  0
  5 26  1  0
  7 27  1  0
 12 28  1  0
 13 29  1  0
 15 30  1  0
 16 31  1  0
 17 32  1  0
 18 33  1  0
 20 34  1  0
 21 35  1  0
M  END
$$$$
