
     RDKit          3D

 32 32  0  0  0  0  0  0  0  0999 V2000
    1.4653    1.6658   -4.4652 C   0  0  0  0  0  0  0  0  0  0  0  0
    0.6731    2.1186   -3.6827 C   0  0  0  0  0  0  0  0  0  0  0  0
   -0.2947    2.7087   -2.7452 C   0  0  0  0  0  0  0  0  0  0  0  0
   -1.1996    1.7599   -2.0921 N   0  0  0  0  0  0  0  0  0  0  0  0
   -2.0514    1.0237   -3.0164 C   0  0  0  0  0  0  0  0  0  0  0  0
   -0.6015    0.9427   -1.0330 C   0  0  0  0  0  0  0  0  0  0  0  0
    0.1542   -0.3272   -1.4552 C   0  0  0  0  0  0  0  0  0  0  0  0
    0.7743   -1.0285   -0.2466 C   0  0  0  0  0  0  0  0  0  0  0  0
   -0.2764   -1.5396    0.5871 O   0  0  0  0  0  0  0  0  0  0  0  0
    0.0921   -1.5516    1.9068 C   0  0  0  0  0  0  0  0  0  0  0  0
   -0.4397   -0.5441    2.7162 C   0  0  0  0  0  0  0  0  0  0  0  0
   -0.1282   -0.5147    4.0738 C   0  0  0  0  0  0  0  0  0  0  0  0
   -0.7623    0.7359    5.0695 Cl  0  0  0  0  0  0  0  0  0  0  0  0
    0.7052   -1.4838    4.6296 C   0  0  0  0  0  0  0  0  0  0  0  0
    1.2287   -2.4978    3.8206 C   0  0  0  0  0  0  0  0  0  0  0  0
    0.9111   -2.5422    2.4612 C   0  0  0  0  0  0  0  0  0  0  0  0
    1.5428   -3.8451    1.5230 Cl  0  0  0  0  0  0  0  0  0  0  0  0
    2.1576    1.2750   -5.1768 H   0  0  0  0  0  0  0  0  0  0  0  0
    0.2385    3.2899   -1.9833 H   0  0  0  0  0  0  0  0  0  0  0  0
   -0.8993    3.4498   -3.2861 H   0  0  0  0  0  0  0  0  0  0  0  0
   -1.4891    0.3416   -3.6632 H   0  0  0  0  0  0  0  0  0  0  0  0
   -2.7929    0.4369   -2.4639 H   0  0  0  0  0  0  0  0  0  0  0  0
   -2.6136    1.7143   -3.6551 H   0  0  0  0  0  0  0  0  0  0  0  0
   -1.4147    0.6521   -0.3548 H   0  0  0  0  0  0  0  0  0  0  0  0
    0.0623    1.5671   -0.4224 H   0  0  0  0  0  0  0  0  0  0  0  0
   -0.5335   -1.0202   -1.9516 H   0  0  0  0  0  0  0  0  0  0  0  0
    0.9592   -0.0850   -2.1530 H   0  0  0  0  0  0  0  0  0  0  0  0
    1.3826   -1.8666   -0.6015 H   0  0  0  0  0  0  0  0  0  0  0  0
    1.4261   -0.3263    0.2919 H   0  0  0  0  0  0  0  0  0  0  0  0
   -1.0928    0.2098    2.2849 H   0  0  0  0  0  0  0  0  0  0  0  0
    0.9477   -1.4584    5.6888 H   0  0  0  0  0  0  0  0  0  0  0  0
    1.8688   -3.2607    4.2596 H   0  0  0  0  0  0  0  0  0  0  0  0
  1  2  3  0
  2  3  1  0
  3  4  1  0
  4  5  1  0
  4  6  1  0
  6  7  1  0
  7  8  1  0
  8  9  1  0
  9 10  1  0
 10 11  2  0
 11 12  1  0
 12 13  1  0
 12 14  2  0
 14 15  1  0
 15 16  2  0
 16 17  1  0
 16 10  1  0
  1 18  1  0
  3 19  1  0
  3 20  1  0
  5 21  1  0
  5 22  1  0
  5 23  1  0
  6 24  1  0
  6 25  1  0
  7 26  1  0
  7 27  1  0
  8 28  1  0
  8 29  1  0
 11 30  1  0
 14 31  1  0
 15 32  1  0
M  END
$$$$
