
     RDKit          3D

 60 62  0  0  0  0  0  0  0  0999 V2000
   -2.1468    4.1735   -2.4798 C   0  0  0  0  0  0  0  0  0  0  0  0
   -2.4063    3.3036   -1.2861 C   0  0  0  0  0  0  0  0  0  0  0  0
   -3.4759    2.4109   -1.2829 C   0  0  0  0  0  0  0  0  0  0  0  0
   -3.7272    1.6222   -0.1620 C   0  0  0  0  0  0  0  0  0  0  0  0
   -2.9064    1.7121    0.9734 C   0  0  0  0  0  0  0  0  0  0  0  0
   -3.3213    0.6262    2.3340 S   0  0  0  0  0  6  0  0  0  0  0  0
   -4.7346    0.7943    2.5982 O   0  0  0  0  0  0  0  0  0  0  0  0
   -2.3548    0.7525    3.3979 O   0  0  0  0  0  0  0  0  0  0  0  0
   -3.1635   -0.9190    1.6805 N   0  0  0  0  0  0  0  0  0  0  0  0
   -2.0137   -1.2884    0.9116 C   0  0  0  0  0  0  0  0  0  0  0  0
   -0.7387   -1.0827    1.4540 C   0  0  0  0  0  0  0  0  0  0  0  0
    0.4171   -1.4153    0.7420 C   0  0  0  0  0  0  0  0  0  0  0  0
    1.7823   -1.0648    1.3224 C   0  0  0  0  0  0  0  0  0  0  0  0
    2.4890   -0.0193    0.4749 C   0  0  0  0  0  0  0  0  0  0  0  0
    2.1112    1.1412    0.3683 O   0  0  0  0  0  0  0  0  0  0  0  0
    3.5826   -0.5402   -0.1435 O   0  0  0  0  0  0  0  0  0  0  0  0
    4.2864    0.3207   -1.0609 C   0  0  0  0  0  0  0  0  0  0  0  0
    3.6145    0.2595   -2.4254 C   0  0  0  0  0  0  0  0  0  0  0  0
    5.7144   -0.1923   -1.1381 C   0  0  0  0  0  0  0  0  0  0  0  0
    2.6573   -2.2768    1.6039 C   0  0  0  0  0  0  0  0  0  0  0  0
    2.4874   -3.3643    1.0358 O   0  0  0  0  0  0  0  0  0  0  0  0
    3.7358   -2.0418    2.6474 C   0  0  0  0  0  0  0  0  0  0  0  0
    4.7582   -2.9376    2.5747 F   0  0  0  0  0  0  0  0  0  0  0  0
    4.2976   -0.8041    2.5482 F   0  0  0  0  0  0  0  0  0  0  0  0
    3.2292   -2.1231    3.9084 F   0  0  0  0  0  0  0  0  0  0  0  0
    0.2587   -2.0154   -0.5117 C   0  0  0  0  0  0  0  0  0  0  0  0
    1.3756   -2.4196   -1.1951 O   0  0  0  0  0  0  0  0  0  0  0  0
   -1.0061   -2.2417   -1.0923 C   0  0  0  0  0  0  0  0  0  0  0  0
   -1.1359   -2.8285   -2.3686 C   0  0  0  0  0  0  0  0  0  0  0  0
   -2.3818   -3.0564   -2.9464 C   0  0  0  0  0  0  0  0  0  0  0  0
   -3.5282   -2.6964   -2.2602 C   0  0  0  0  0  0  0  0  0  0  0  0
   -3.4243   -2.1132   -0.9957 C   0  0  0  0  0  0  0  0  0  0  0  0
   -2.1702   -1.8744   -0.3758 C   0  0  0  0  0  0  0  0  0  0  0  0
   -1.8418    2.6313    1.0049 C   0  0  0  0  0  0  0  0  0  0  0  0
   -0.9318    2.8286    2.1821 C   0  0  0  0  0  0  0  0  0  0  0  0
   -1.6085    3.4159   -0.1406 C   0  0  0  0  0  0  0  0  0  0  0  0
   -2.7716    5.0668   -2.4372 H   0  0  0  0  0  0  0  0  0  0  0  0
   -2.3619    3.6355   -3.4047 H   0  0  0  0  0  0  0  0  0  0  0  0
   -1.0998    4.4783   -2.5207 H   0  0  0  0  0  0  0  0  0  0  0  0
   -4.1239    2.3257   -2.1517 H   0  0  0  0  0  0  0  0  0  0  0  0
   -4.5691    0.9382   -0.1828 H   0  0  0  0  0  0  0  0  0  0  0  0
   -4.0628   -1.3367    1.4596 H   0  0  0  0  0  0  0  0  0  0  0  0
   -0.6413   -0.6524    2.4468 H   0  0  0  0  0  0  0  0  0  0  0  0
    1.6259   -0.5917    2.3042 H   0  0  0  0  0  0  0  0  0  0  0  0
    4.3051    1.3519   -0.6903 H   0  0  0  0  0  0  0  0  0  0  0  0
    4.1887    0.8086   -3.1790 H   0  0  0  0  0  0  0  0  0  0  0  0
    2.6095    0.6896   -2.3793 H   0  0  0  0  0  0  0  0  0  0  0  0
    3.4951   -0.7783   -2.7572 H   0  0  0  0  0  0  0  0  0  0  0  0
    5.7363   -1.2364   -1.4505 H   0  0  0  0  0  0  0  0  0  0  0  0
    6.1811   -0.1531   -0.1542 H   0  0  0  0  0  0  0  0  0  0  0  0
    6.3215    0.3955   -1.8308 H   0  0  0  0  0  0  0  0  0  0  0  0
    1.7995   -3.1093   -0.6378 H   0  0  0  0  0  0  0  0  0  0  0  0
   -0.2474   -3.1095   -2.9297 H   0  0  0  0  0  0  0  0  0  0  0  0
   -2.4496   -3.5086   -3.9316 H   0  0  0  0  0  0  0  0  0  0  0  0
   -4.5047   -2.8673   -2.7058 H   0  0  0  0  0  0  0  0  0  0  0  0
   -4.3525   -1.8429   -0.5053 H   0  0  0  0  0  0  0  0  0  0  0  0
   -0.2593    3.6883    2.0295 H   0  0  0  0  0  0  0  0  0  0  0  0
   -0.3013    1.9494    2.3346 H   0  0  0  0  0  0  0  0  0  0  0  0
   -1.5108    3.0489    3.0829 H   0  0  0  0  0  0  0  0  0  0  0  0
   -0.7860    4.1325   -0.1430 H   0  0  0  0  0  0  0  0  0  0  0  0
  1  2  1  0
  2  3  2  0
  3  4  1  0
  4  5  2  0
  5  6  1  0
  6  7  2  0
  6  8  2  0
  6  9  1  0
  9 10  1  0
 10 11  2  0
 11 12  1  0
 12 13  1  0
 13 14  1  0
 14 15  2  0
 14 16  1  0
 16 17  1  0
 17 18  1  0
 17 19  1  0
 13 20  1  0
 20 21  2  0
 20 22  1  0
 22 23  1  0
 22 24  1  0
 22 25  1  0
 12 26  2  0
 26 27  1  0
 26 28  1  0
 28 29  2  0
 29 30  1  0
 30 31  2  0
 31 32  1  0
 32 33  2  0
  5 34  1  0
 34 35  1  0
 34 36  2  0
 36  2  1  0
 33 10  1  0
 33 28  1  0
  1 37  1  0
  1 38  1  0
  1 39  1  0
  3 40  1  0
  4 41  1  0
  9 42  1  0
 11 43  1  0
 13 44  1  0
 17 45  1  0
 18 46  1  0
 18 47  1  0
 18 48  1  0
 19 49  1  0
 19 50  1  0
 19 51  1  0
 27 52  1  0
 29 53  1  0
 30 54  1  0
 31 55  1  0
 32 56  1  0
 35 57  1  0
 35 58  1  0
 35 59  1  0
 36 60  1  0
M  END
$$$$
