
     RDKit          3D

 38 40  0  0  0  0  0  0  0  0999 V2000
   -6.6512   -1.5568   -0.5792 C   0  0  0  0  0  0  0  0  0  0  0  0
   -7.2252   -0.2053   -0.1941 C   0  0  0  0  0  0  0  0  0  0  0  0
   -6.2181    0.7932   -0.0493 O   0  0  0  0  0  0  0  0  0  0  0  0
   -5.6580    1.2501   -1.2835 C   0  0  0  0  0  0  0  0  0  0  0  0
   -4.2739    0.7071   -1.4161 C   0  0  0  0  0  0  0  0  0  0  0  0
   -3.8974   -0.1888   -2.3079 N   0  0  0  0  0  0  0  0  0  0  0  0
   -2.5574   -0.4977   -2.1944 N   0  0  0  0  0  0  0  0  0  0  0  0
   -1.9702    0.1837   -1.2353 C   0  0  0  0  0  0  0  0  0  0  0  0
   -0.6362    0.0251   -0.9539 N   0  0  0  0  0  0  0  0  0  0  0  0
    0.0984    0.7025    0.0013 C   0  0  0  0  0  0  0  0  0  0  0  0
   -0.3194    1.5754    0.7537 O   0  0  0  0  0  0  0  0  0  0  0  0
    1.5592    0.2290    0.0195 C   0  0  0  0  0  0  0  0  0  0  0  0
    2.3231    0.9343    0.9853 O   0  0  0  0  0  0  0  0  0  0  0  0
    3.6453    0.6030    1.1021 C   0  0  0  0  0  0  0  0  0  0  0  0
    4.3422    1.3416    2.0801 C   0  0  0  0  0  0  0  0  0  0  0  0
    5.7020    1.1220    2.3215 C   0  0  0  0  0  0  0  0  0  0  0  0
    6.3324    0.1584    1.5685 C   0  0  0  0  0  0  0  0  0  0  0  0
    5.6577   -0.5649    0.6136 C   0  0  0  0  0  0  0  0  0  0  0  0
    4.3152   -0.3689    0.3543 C   0  0  0  0  0  0  0  0  0  0  0  0
    6.4604   -1.4650   -0.0172 O   0  0  0  0  0  0  0  0  0  0  0  0
    7.7166   -1.2240    0.6521 C   0  0  0  0  0  0  0  0  0  0  0  0
    7.6417   -0.1943    1.6592 O   0  0  0  0  0  0  0  0  0  0  0  0
   -2.9989    1.2488   -0.3982 S   0  0  0  0  0  0  0  0  0  0  0  0
   -6.2540   -1.5422   -1.5982 H   0  0  0  0  0  0  0  0  0  0  0  0
   -7.4237   -2.3300   -0.5306 H   0  0  0  0  0  0  0  0  0  0  0  0
   -5.8289   -1.8343    0.0880 H   0  0  0  0  0  0  0  0  0  0  0  0
   -7.9878    0.1237   -0.9091 H   0  0  0  0  0  0  0  0  0  0  0  0
   -7.7167   -0.2977    0.7802 H   0  0  0  0  0  0  0  0  0  0  0  0
   -6.2761    0.9678   -2.1436 H   0  0  0  0  0  0  0  0  0  0  0  0
   -5.6273    2.3446   -1.2489 H   0  0  0  0  0  0  0  0  0  0  0  0
   -0.1887   -0.6617   -1.5451 H   0  0  0  0  0  0  0  0  0  0  0  0
    1.5515   -0.8422    0.2559 H   0  0  0  0  0  0  0  0  0  0  0  0
    1.9712    0.4011   -0.9826 H   0  0  0  0  0  0  0  0  0  0  0  0
    3.8105    2.0961    2.6571 H   0  0  0  0  0  0  0  0  0  0  0  0
    6.2384    1.6892    3.0732 H   0  0  0  0  0  0  0  0  0  0  0  0
    3.8369   -0.9676   -0.4087 H   0  0  0  0  0  0  0  0  0  0  0  0
    8.4612   -0.9293   -0.0963 H   0  0  0  0  0  0  0  0  0  0  0  0
    8.0448   -2.1559    1.1268 H   0  0  0  0  0  0  0  0  0  0  0  0
  1  2  1  0
  2  3  1  0
  3  4  1  0
  4  5  1  0
  5  6  2  0
  6  7  1  0
  7  8  2  0
  8  9  1  0
  9 10  1  0
 10 11  2  0
 10 12  1  0
 12 13  1  0
 13 14  1  0
 14 15  2  0
 15 16  1  0
 16 17  2  0
 17 18  1  0
 18 19  2  0
 18 20  1  0
 20 21  1  0
 21 22  1  0
  8 23  1  0
 23  5  1  0
 19 14  1  0
 22 17  1  0
  1 24  1  0
  1 25  1  0
  1 26  1  0
  2 27  1  0
  2 28  1  0
  4 29  1  0
  4 30  1  0
  9 31  1  0
 12 32  1  0
 12 33  1  0
 15 34  1  0
 16 35  1  0
 19 36  1  0
 21 37  1  0
 21 38  1  0
M  END
$$$$
