
     RDKit          3D

 51 54  0  0  0  0  0  0  0  0999 V2000
   -3.4499   -4.4264    2.2927 C   0  0  0  0  0  0  0  0  0  0  0  0
   -2.1943   -4.4405    1.6245 O   0  0  0  0  0  0  0  0  0  0  0  0
   -1.6954   -3.2390    1.2016 C   0  0  0  0  0  0  0  0  0  0  0  0
   -2.2626   -1.9951    1.4637 C   0  0  0  0  0  0  0  0  0  0  0  0
   -1.6676   -0.8208    0.9624 C   0  0  0  0  0  0  0  0  0  0  0  0
   -2.2790    0.4796    1.2796 C   0  0  0  0  0  0  0  0  0  0  0  0
   -3.2720    0.5061    2.0027 O   0  0  0  0  0  0  0  0  0  0  0  0
   -1.6644    1.6049    0.7556 N   0  0  0  0  0  0  0  0  0  0  0  0
   -2.2739    2.8971    1.0361 C   0  0  0  0  0  0  0  0  0  0  0  0
   -3.1084    3.3158   -0.1265 C   0  0  0  0  0  0  0  0  0  0  0  0
   -2.8429    4.0475   -1.2671 C   0  0  0  0  0  0  0  0  0  0  0  0
   -4.0534    4.1031   -1.9982 C   0  0  0  0  0  0  0  0  0  0  0  0
   -4.9794    3.4053   -1.2589 C   0  0  0  0  0  0  0  0  0  0  0  0
   -4.4157    2.9243   -0.1215 O   0  0  0  0  0  0  0  0  0  0  0  0
   -0.4974    1.5952    0.0092 C   0  0  0  0  0  0  0  0  0  0  0  0
    0.0487    2.6387   -0.3618 O   0  0  0  0  0  0  0  0  0  0  0  0
    0.0372    0.3523   -0.3139 N   0  0  0  0  0  0  0  0  0  0  0  0
    1.2714    0.3539   -1.1040 C   0  0  0  0  0  0  0  0  0  0  0  0
    2.5085    0.3634   -0.2056 C   0  0  0  0  0  0  0  0  0  0  0  0
    2.4908   -0.0450    0.9565 O   0  0  0  0  0  0  0  0  0  0  0  0
    3.8033    0.8441   -0.7752 C   0  0  0  0  0  0  0  0  0  0  0  0
    4.0061    1.0005   -2.1537 C   0  0  0  0  0  0  0  0  0  0  0  0
    5.2400    1.4490   -2.6346 C   0  0  0  0  0  0  0  0  0  0  0  0
    6.2761    1.7382   -1.7463 C   0  0  0  0  0  0  0  0  0  0  0  0
    6.0775    1.5748   -0.3765 C   0  0  0  0  0  0  0  0  0  0  0  0
    7.4837    1.9634    0.8265 Br  0  0  0  0  0  0  0  0  0  0  0  0
    4.8508    1.1288    0.1134 C   0  0  0  0  0  0  0  0  0  0  0  0
   -0.5130   -0.8609    0.1830 C   0  0  0  0  0  0  0  0  0  0  0  0
    0.0613   -2.1134   -0.0662 C   0  0  0  0  0  0  0  0  0  0  0  0
   -0.5130   -3.2792    0.4546 C   0  0  0  0  0  0  0  0  0  0  0  0
    0.0918   -4.4715    0.1381 O   0  0  0  0  0  0  0  0  0  0  0  0
    0.9170   -4.9064    1.2201 C   0  0  0  0  0  0  0  0  0  0  0  0
   -3.7241   -5.4633    2.5100 H   0  0  0  0  0  0  0  0  0  0  0  0
   -3.3807   -3.8939    3.2469 H   0  0  0  0  0  0  0  0  0  0  0  0
   -4.2339   -4.0011    1.6565 H   0  0  0  0  0  0  0  0  0  0  0  0
   -3.1673   -1.9024    2.0572 H   0  0  0  0  0  0  0  0  0  0  0  0
   -2.8901    2.8523    1.9407 H   0  0  0  0  0  0  0  0  0  0  0  0
   -1.4935    3.6446    1.2208 H   0  0  0  0  0  0  0  0  0  0  0  0
   -1.8867    4.4785   -1.5339 H   0  0  0  0  0  0  0  0  0  0  0  0
   -4.2301    4.5901   -2.9469 H   0  0  0  0  0  0  0  0  0  0  0  0
   -6.0262    3.1708   -1.3950 H   0  0  0  0  0  0  0  0  0  0  0  0
    1.3012   -0.5026   -1.7830 H   0  0  0  0  0  0  0  0  0  0  0  0
    1.2819    1.2513   -1.7324 H   0  0  0  0  0  0  0  0  0  0  0  0
    3.2291    0.7743   -2.8790 H   0  0  0  0  0  0  0  0  0  0  0  0
    5.3949    1.5724   -3.7048 H   0  0  0  0  0  0  0  0  0  0  0  0
    7.2312    2.0882   -2.1298 H   0  0  0  0  0  0  0  0  0  0  0  0
    4.7046    1.0050    1.1859 H   0  0  0  0  0  0  0  0  0  0  0  0
    0.9712   -2.2322   -0.6437 H   0  0  0  0  0  0  0  0  0  0  0  0
    1.2843   -5.9078    0.9766 H   0  0  0  0  0  0  0  0  0  0  0  0
    0.3684   -4.9685    2.1658 H   0  0  0  0  0  0  0  0  0  0  0  0
    1.7835   -4.2437    1.3312 H   0  0  0  0  0  0  0  0  0  0  0  0
  1  2  1  0
  2  3  1  0
  3  4  2  0
  4  5  1  0
  5  6  1  0
  6  7  2  0
  6  8  1  0
  8  9  1  0
  9 10  1  0
 10 11  2  0
 11 12  1  0
 12 13  2  0
 13 14  1  0
  8 15  1  0
 15 16  2  0
 15 17  1  0
 17 18  1  0
 18 19  1  0
 19 20  2  0
 19 21  1  0
 21 22  2  0
 22 23  1  0
 23 24  2  0
 24 25  1  0
 25 26  1  0
 25 27  2  0
 17 28  1  0
 28 29  1  0
 29 30  2  0
 30 31  1  0
 31 32  1  0
 30  3  1  0
 28  5  2  0
 14 10  1  0
 27 21  1  0
  1 33  1  0
  1 34  1  0
  1 35  1  0
  4 36  1  0
  9 37  1  0
  9 38  1  0
 11 39  1  0
 12 40  1  0
 13 41  1  0
 18 42  1  0
 18 43  1  0
 22 44  1  0
 23 45  1  0
 24 46  1  0
 27 47  1  0
 29 48  1  0
 32 49  1  0
 32 50  1  0
 32 51  1  0
M  END
$$$$
