
     RDKit          3D

 32 32  0  0  0  0  0  0  0  0999 V2000
   -4.8170    1.1683   -1.8249 C   0  0  0  0  0  0  0  0  0  0  0  0
   -3.8047    0.6261   -2.1777 C   0  0  0  0  0  0  0  0  0  0  0  0
   -2.5641   -0.0330   -2.6179 C   0  0  0  0  0  0  0  0  0  0  0  0
   -2.1930   -1.1608   -1.7518 N   0  0  0  0  0  0  0  0  0  0  0  0
   -1.1022   -1.9262   -2.3524 C   0  0  0  0  0  0  0  0  0  0  0  0
   -1.9089   -0.7878   -0.3571 C   0  0  0  0  0  0  0  0  0  0  0  0
   -0.7439    0.1801   -0.1234 C   0  0  0  0  0  0  0  0  0  0  0  0
   -0.5681    0.4668    1.3675 C   0  0  0  0  0  0  0  0  0  0  0  0
    0.5107    1.3779    1.5757 O   0  0  0  0  0  0  0  0  0  0  0  0
    1.7722    0.8958    1.7987 C   0  0  0  0  0  0  0  0  0  0  0  0
    2.1540   -0.4415    1.6503 C   0  0  0  0  0  0  0  0  0  0  0  0
    3.4755   -0.8323    1.8941 C   0  0  0  0  0  0  0  0  0  0  0  0
    4.4227    0.1117    2.2829 C   0  0  0  0  0  0  0  0  0  0  0  0
    6.0444   -0.3788    2.5791 Cl  0  0  0  0  0  0  0  0  0  0  0  0
    4.0656    1.4471    2.4291 C   0  0  0  0  0  0  0  0  0  0  0  0
    2.7458    1.8354    2.1851 C   0  0  0  0  0  0  0  0  0  0  0  0
    2.3519    3.5097    2.3788 Cl  0  0  0  0  0  0  0  0  0  0  0  0
   -5.7173    1.6435   -1.5107 H   0  0  0  0  0  0  0  0  0  0  0  0
   -2.7416   -0.4063   -3.6351 H   0  0  0  0  0  0  0  0  0  0  0  0
   -1.7525    0.6995   -2.6971 H   0  0  0  0  0  0  0  0  0  0  0  0
   -1.4130   -2.3394   -3.3188 H   0  0  0  0  0  0  0  0  0  0  0  0
   -0.2041   -1.3215   -2.5174 H   0  0  0  0  0  0  0  0  0  0  0  0
   -0.8335   -2.7820   -1.7231 H   0  0  0  0  0  0  0  0  0  0  0  0
   -1.7197   -1.7100    0.2090 H   0  0  0  0  0  0  0  0  0  0  0  0
   -2.8172   -0.3725    0.0970 H   0  0  0  0  0  0  0  0  0  0  0  0
    0.1869   -0.2263   -0.5325 H   0  0  0  0  0  0  0  0  0  0  0  0
   -0.9111    1.1316   -0.6412 H   0  0  0  0  0  0  0  0  0  0  0  0
   -1.4691    0.9698    1.7386 H   0  0  0  0  0  0  0  0  0  0  0  0
   -0.4669   -0.4432    1.9698 H   0  0  0  0  0  0  0  0  0  0  0  0
    1.4541   -1.2085    1.3361 H   0  0  0  0  0  0  0  0  0  0  0  0
    3.7581   -1.8758    1.7751 H   0  0  0  0  0  0  0  0  0  0  0  0
    4.8062    2.1828    2.7296 H   0  0  0  0  0  0  0  0  0  0  0  0
  1  2  3  0
  2  3  1  0
  3  4  1  0
  4  5  1  0
  4  6  1  0
  6  7  1  0
  7  8  1  0
  8  9  1  0
  9 10  1  0
 10 11  2  0
 11 12  1  0
 12 13  2  0
 13 14  1  0
 13 15  1  0
 15 16  2  0
 16 17  1  0
 16 10  1  0
  1 18  1  0
  3 19  1  0
  3 20  1  0
  5 21  1  0
  5 22  1  0
  5 23  1  0
  6 24  1  0
  6 25  1  0
  7 26  1  0
  7 27  1  0
  8 28  1  0
  8 29  1  0
 11 30  1  0
 12 31  1  0
 15 32  1  0
M  END
$$$$
