
     RDKit          3D

 51 54  0  0  0  0  0  0  0  0999 V2000
    6.5565    1.0591   -1.5338 C   0  0  0  0  0  0  0  0  0  0  0  0
    5.4615    0.1289   -2.0332 C   0  0  0  0  0  0  0  0  0  0  0  0
    4.1235    0.4617   -1.4259 C   0  0  0  0  0  0  0  0  0  0  0  0
    3.2473    1.3382   -2.0681 C   0  0  0  0  0  0  0  0  0  0  0  0
    2.0104    1.6583   -1.4940 C   0  0  0  0  0  0  0  0  0  0  0  0
    1.6109    1.1196   -0.2593 C   0  0  0  0  0  0  0  0  0  0  0  0
    0.3249    1.4541    0.3267 N   0  0  0  0  0  0  0  0  0  0  0  0
   -0.1797    2.7449    0.1257 C   0  0  0  0  0  0  0  0  0  0  0  0
    0.4261    3.6853   -0.3902 O   0  0  0  0  0  0  0  0  0  0  0  0
   -1.5363    3.0284    0.6193 C   0  0  0  0  0  0  0  0  0  0  0  0
   -2.1399    4.2601    0.3095 C   0  0  0  0  0  0  0  0  0  0  0  0
   -3.4167    4.5538    0.7763 C   0  0  0  0  0  0  0  0  0  0  0  0
   -4.0896    3.6183    1.5511 C   0  0  0  0  0  0  0  0  0  0  0  0
   -3.4835    2.3961    1.8629 C   0  0  0  0  0  0  0  0  0  0  0  0
   -2.1925    2.0877    1.4036 C   0  0  0  0  0  0  0  0  0  0  0  0
   -1.5433    0.8641    1.6971 N   0  0  0  0  0  0  0  0  0  0  0  0
   -2.1746   -0.1245    2.5780 C   0  0  0  0  0  0  0  0  0  0  0  0
   -3.1036   -1.0524    1.7960 C   0  0  0  0  0  0  0  0  0  0  0  0
   -4.3207   -0.8871    1.7642 O   0  0  0  0  0  0  0  0  0  0  0  0
   -2.4582   -2.0607    1.1177 N   0  0  0  0  0  0  0  0  0  0  0  0
   -3.1762   -2.9032    0.1927 C   0  0  0  0  0  0  0  0  0  0  0  0
   -2.3123   -4.0489   -0.1704 C   0  0  0  0  0  0  0  0  0  0  0  0
   -2.1617   -5.3231    0.3381 C   0  0  0  0  0  0  0  0  0  0  0  0
   -1.1535   -5.9452   -0.4372 C   0  0  0  0  0  0  0  0  0  0  0  0
   -0.7509   -5.0121   -1.3633 C   0  0  0  0  0  0  0  0  0  0  0  0
   -1.4493   -3.8577   -1.2108 O   0  0  0  0  0  0  0  0  0  0  0  0
   -0.3462    0.4876    1.0869 C   0  0  0  0  0  0  0  0  0  0  0  0
    0.0308   -0.6843    1.2097 O   0  0  0  0  0  0  0  0  0  0  0  0
    2.5088    0.2478    0.3779 C   0  0  0  0  0  0  0  0  0  0  0  0
    3.7460   -0.0764   -0.1939 C   0  0  0  0  0  0  0  0  0  0  0  0
    6.3333    2.1021   -1.7835 H   0  0  0  0  0  0  0  0  0  0  0  0
    7.5148    0.7978   -1.9942 H   0  0  0  0  0  0  0  0  0  0  0  0
    6.6722    0.9905   -0.4468 H   0  0  0  0  0  0  0  0  0  0  0  0
    5.3961    0.1881   -3.1273 H   0  0  0  0  0  0  0  0  0  0  0  0
    5.7207   -0.9120   -1.8024 H   0  0  0  0  0  0  0  0  0  0  0  0
    3.5145    1.7815   -3.0251 H   0  0  0  0  0  0  0  0  0  0  0  0
    1.3582    2.3235   -2.0553 H   0  0  0  0  0  0  0  0  0  0  0  0
   -1.6129    4.9941   -0.2977 H   0  0  0  0  0  0  0  0  0  0  0  0
   -3.8835    5.5049    0.5329 H   0  0  0  0  0  0  0  0  0  0  0  0
   -5.0933    3.8317    1.9121 H   0  0  0  0  0  0  0  0  0  0  0  0
   -4.0715    1.6976    2.4520 H   0  0  0  0  0  0  0  0  0  0  0  0
   -2.7194    0.3569    3.3957 H   0  0  0  0  0  0  0  0  0  0  0  0
   -1.4071   -0.7356    3.0698 H   0  0  0  0  0  0  0  0  0  0  0  0
   -1.4515   -1.9605    0.9764 H   0  0  0  0  0  0  0  0  0  0  0  0
   -3.4323   -2.3041   -0.6876 H   0  0  0  0  0  0  0  0  0  0  0  0
   -4.1093   -3.2416    0.6558 H   0  0  0  0  0  0  0  0  0  0  0  0
   -2.7083   -5.7449    1.1705 H   0  0  0  0  0  0  0  0  0  0  0  0
   -0.7618   -6.9471   -0.3308 H   0  0  0  0  0  0  0  0  0  0  0  0
   -0.0168   -5.0116   -2.1570 H   0  0  0  0  0  0  0  0  0  0  0  0
    2.2864   -0.1791    1.3524 H   0  0  0  0  0  0  0  0  0  0  0  0
    4.4134   -0.7506    0.3386 H   0  0  0  0  0  0  0  0  0  0  0  0
  1  2  1  0
  2  3  1  0
  3  4  2  0
  4  5  1  0
  5  6  2  0
  6  7  1  0
  7  8  1  0
  8  9  2  0
  8 10  1  0
 10 11  2  0
 11 12  1  0
 12 13  2  0
 13 14  1  0
 14 15  2  0
 15 16  1  0
 16 17  1  0
 17 18  1  0
 18 19  2  0
 18 20  1  0
 20 21  1  0
 21 22  1  0
 22 23  2  0
 23 24  1  0
 24 25  2  0
 25 26  1  0
 16 27  1  0
 27 28  2  0
  6 29  1  0
 29 30  2  0
 30  3  1  0
 27  7  1  0
 15 10  1  0
 26 22  1  0
  1 31  1  0
  1 32  1  0
  1 33  1  0
  2 34  1  0
  2 35  1  0
  4 36  1  0
  5 37  1  0
 11 38  1  0
 12 39  1  0
 13 40  1  0
 14 41  1  0
 17 42  1  0
 17 43  1  0
 20 44  1  0
 21 45  1  0
 21 46  1  0
 23 47  1  0
 24 48  1  0
 25 49  1  0
 29 50  1  0
 30 51  1  0
M  END
$$$$
