
     RDKit          3D

 56 60  0  0  0  0  0  0  0  0999 V2000
   -5.7719   -0.4991    0.7988 C   0  0  0  0  0  0  0  0  0  0  0  0
   -4.2935   -0.2934    0.6179 C   0  0  0  0  0  0  0  0  0  0  0  0
   -3.6139    0.5202    1.5378 C   0  0  0  0  0  0  0  0  0  0  0  0
   -2.2362    0.7344    1.4325 C   0  0  0  0  0  0  0  0  0  0  0  0
   -1.4879    0.1294    0.4145 C   0  0  0  0  0  0  0  0  0  0  0  0
   -0.0412    0.3617    0.3098 C   0  0  0  0  0  0  0  0  0  0  0  0
    0.2784    1.6137   -0.0900 N   0  0  0  0  0  0  0  0  0  0  0  0
    1.5842    1.9679   -0.2518 N   0  0  0  0  0  0  0  0  0  0  0  0
    2.5742    1.0848    0.0011 C   0  0  0  0  0  0  0  0  0  0  0  0
    3.8880    1.5773   -0.1758 N   0  0  0  0  0  0  0  0  0  0  0  0
    4.8853    1.6820    0.8318 C   0  0  0  0  0  0  0  0  0  0  0  0
    4.5907    1.6009    2.2113 C   0  0  0  0  0  0  0  0  0  0  0  0
    5.5938    1.7532    3.1758 C   0  0  0  0  0  0  0  0  0  0  0  0
    6.8742    2.0019    2.7356 C   0  0  0  0  0  0  0  0  0  0  0  0
    7.1690    2.1049    1.3981 C   0  0  0  0  0  0  0  0  0  0  0  0
    6.2006    1.9588    0.4268 C   0  0  0  0  0  0  0  0  0  0  0  0
    8.4857    2.3625    1.1755 O   0  0  0  0  0  0  0  0  0  0  0  0
    8.9862    2.4049    2.5283 C   0  0  0  0  0  0  0  0  0  0  0  0
    7.9669    2.1796    3.5240 O   0  0  0  0  0  0  0  0  0  0  0  0
    2.2953   -0.2420    0.3971 C   0  0  0  0  0  0  0  0  0  0  0  0
    3.2927   -1.2276    0.6069 C   0  0  0  0  0  0  0  0  0  0  0  0
    2.9758   -2.5224    1.0182 C   0  0  0  0  0  0  0  0  0  0  0  0
    1.6510   -2.8718    1.2256 C   0  0  0  0  0  0  0  0  0  0  0  0
    0.6462   -1.9302    1.0053 C   0  0  0  0  0  0  0  0  0  0  0  0
    0.9419   -0.6114    0.5740 C   0  0  0  0  0  0  0  0  0  0  0  0
   -2.1612   -0.6827   -0.5105 C   0  0  0  0  0  0  0  0  0  0  0  0
   -3.5474   -0.8937   -0.4132 C   0  0  0  0  0  0  0  0  0  0  0  0
   -4.3055   -1.9545   -1.6284 S   0  0  0  0  0  6  0  0  0  0  0  0
   -5.2118   -2.8554   -0.9558 O   0  0  0  0  0  0  0  0  0  0  0  0
   -3.2803   -2.4430   -2.5251 O   0  0  0  0  0  0  0  0  0  0  0  0
   -5.1926   -0.8376   -2.5502 N   0  0  0  0  0  0  0  0  0  0  0  0
   -6.3873   -1.4170   -3.2111 C   0  0  0  0  0  0  0  0  0  0  0  0
   -7.1051   -0.3423   -4.0299 C   0  0  0  0  0  0  0  0  0  0  0  0
   -8.2322   -0.8820   -4.7092 O   0  0  0  0  0  0  0  0  0  0  0  0
   -5.9748   -1.5157    1.1491 H   0  0  0  0  0  0  0  0  0  0  0  0
   -6.3163   -0.3073   -0.1297 H   0  0  0  0  0  0  0  0  0  0  0  0
   -6.1798    0.1909    1.5464 H   0  0  0  0  0  0  0  0  0  0  0  0
   -4.1553    1.0028    2.3502 H   0  0  0  0  0  0  0  0  0  0  0  0
   -1.7440    1.3829    2.1562 H   0  0  0  0  0  0  0  0  0  0  0  0
    3.7483    2.5169   -0.5545 H   0  0  0  0  0  0  0  0  0  0  0  0
    3.5726    1.4253    2.5510 H   0  0  0  0  0  0  0  0  0  0  0  0
    5.3693    1.6854    4.2342 H   0  0  0  0  0  0  0  0  0  0  0  0
    6.4596    2.0445   -0.6228 H   0  0  0  0  0  0  0  0  0  0  0  0
    9.7612    1.6374    2.6397 H   0  0  0  0  0  0  0  0  0  0  0  0
    9.4371    3.3884    2.7048 H   0  0  0  0  0  0  0  0  0  0  0  0
    4.3419   -0.9894    0.4410 H   0  0  0  0  0  0  0  0  0  0  0  0
    3.7665   -3.2520    1.1743 H   0  0  0  0  0  0  0  0  0  0  0  0
    1.3949   -3.8774    1.5501 H   0  0  0  0  0  0  0  0  0  0  0  0
   -0.3830   -2.2418    1.1753 H   0  0  0  0  0  0  0  0  0  0  0  0
   -1.5928   -1.1482   -1.3156 H   0  0  0  0  0  0  0  0  0  0  0  0
   -4.5463   -0.4518   -3.2435 H   0  0  0  0  0  0  0  0  0  0  0  0
   -7.0816   -1.8175   -2.4647 H   0  0  0  0  0  0  0  0  0  0  0  0
   -6.0886   -2.2385   -3.8718 H   0  0  0  0  0  0  0  0  0  0  0  0
   -7.4568    0.4627   -3.3766 H   0  0  0  0  0  0  0  0  0  0  0  0
   -6.4334    0.1034   -4.7708 H   0  0  0  0  0  0  0  0  0  0  0  0
   -7.9110   -1.5330   -5.3567 H   0  0  0  0  0  0  0  0  0  0  0  0
  1  2  1  0
  2  3  2  0
  3  4  1  0
  4  5  2  0
  5  6  1  0
  6  7  2  0
  7  8  1  0
  8  9  2  0
  9 10  1  0
 10 11  1  0
 11 12  2  0
 12 13  1  0
 13 14  2  0
 14 15  1  0
 15 16  2  0
 15 17  1  0
 17 18  1  0
 18 19  1  0
  9 20  1  0
 20 21  2  0
 21 22  1  0
 22 23  2  0
 23 24  1  0
 24 25  2  0
  5 26  1  0
 26 27  2  0
 27 28  1  0
 28 29  2  0
 28 30  2  0
 28 31  1  0
 31 32  1  0
 32 33  1  0
 33 34  1  0
 27  2  1  0
 25  6  1  0
 16 11  1  0
 25 20  1  0
 19 14  1  0
  1 35  1  0
  1 36  1  0
  1 37  1  0
  3 38  1  0
  4 39  1  0
 10 40  1  0
 12 41  1  0
 13 42  1  0
 16 43  1  0
 18 44  1  0
 18 45  1  0
 21 46  1  0
 22 47  1  0
 23 48  1  0
 24 49  1  0
 26 50  1  0
 31 51  1  0
 32 52  1  0
 32 53  1  0
 33 54  1  0
 33 55  1  0
 34 56  1  0
M  END
$$$$
