
     RDKit          3D

 32 33  0  0  0  0  0  0  0  0999 V2000
   -5.1544   -1.0026    0.7861 C   0  0  0  0  0  0  0  0  0  0  0  0
   -3.8865   -0.4479    0.2060 C   0  0  0  0  0  0  0  0  0  0  0  0
   -3.1036    0.4500    0.9423 C   0  0  0  0  0  0  0  0  0  0  0  0
   -1.9395    0.9932    0.3903 C   0  0  0  0  0  0  0  0  0  0  0  0
   -1.0324    2.1158    1.3410 Cl  0  0  0  0  0  0  0  0  0  0  0  0
   -1.5368    0.6369   -0.9031 C   0  0  0  0  0  0  0  0  0  0  0  0
   -0.4077    1.1934   -1.4511 O   0  0  0  0  0  0  0  0  0  0  0  0
    0.7495    0.4011   -1.1451 C   0  0  0  0  0  0  0  0  0  0  0  0
    1.9787    1.2604   -1.4284 C   0  0  0  0  0  0  0  0  0  0  0  0
    3.2888    0.4900   -1.3040 C   0  0  0  0  0  0  0  0  0  0  0  0
    3.5430   -0.0196    0.0262 N   0  0  0  0  0  0  0  0  0  0  0  0
    3.4537   -1.3237    0.4243 C   0  0  0  0  0  0  0  0  0  0  0  0
    3.7989   -1.3101    1.7557 C   0  0  0  0  0  0  0  0  0  0  0  0
    4.0998   -0.0376    2.1670 N   0  0  0  0  0  0  0  0  0  0  0  0
    3.9426    0.7177    1.1034 C   0  0  0  0  0  0  0  0  0  0  0  0
   -2.3416   -0.2232   -1.6578 C   0  0  0  0  0  0  0  0  0  0  0  0
   -1.9145   -0.6751   -3.4517 Br  0  0  0  0  0  0  0  0  0  0  0  0
   -3.5067   -0.7657   -1.1044 C   0  0  0  0  0  0  0  0  0  0  0  0
   -5.9933   -0.3391    0.5547 H   0  0  0  0  0  0  0  0  0  0  0  0
   -5.3666   -1.9973    0.3801 H   0  0  0  0  0  0  0  0  0  0  0  0
   -5.0737   -1.1063    1.8732 H   0  0  0  0  0  0  0  0  0  0  0  0
   -3.4044    0.7336    1.9490 H   0  0  0  0  0  0  0  0  0  0  0  0
    0.7465    0.0810   -0.0962 H   0  0  0  0  0  0  0  0  0  0  0  0
    0.7591   -0.4887   -1.7850 H   0  0  0  0  0  0  0  0  0  0  0  0
    1.9025    1.6737   -2.4420 H   0  0  0  0  0  0  0  0  0  0  0  0
    1.9743    2.1264   -0.7544 H   0  0  0  0  0  0  0  0  0  0  0  0
    3.3059   -0.3569   -1.9997 H   0  0  0  0  0  0  0  0  0  0  0  0
    4.1326    1.1405   -1.5625 H   0  0  0  0  0  0  0  0  0  0  0  0
    3.1650   -2.1260   -0.2399 H   0  0  0  0  0  0  0  0  0  0  0  0
    3.8497   -2.1479    2.4390 H   0  0  0  0  0  0  0  0  0  0  0  0
    4.0997    1.7880    1.0626 H   0  0  0  0  0  0  0  0  0  0  0  0
   -4.1284   -1.4340   -1.6975 H   0  0  0  0  0  0  0  0  0  0  0  0
  1  2  1  0
  2  3  2  0
  3  4  1  0
  4  5  1  0
  4  6  2  0
  6  7  1  0
  7  8  1  0
  8  9  1  0
  9 10  1  0
 10 11  1  0
 11 12  1  0
 12 13  2  0
 13 14  1  0
 14 15  2  0
  6 16  1  0
 16 17  1  0
 16 18  2  0
 18  2  1  0
 15 11  1  0
  1 19  1  0
  1 20  1  0
  1 21  1  0
  3 22  1  0
  8 23  1  0
  8 24  1  0
  9 25  1  0
  9 26  1  0
 10 27  1  0
 10 28  1  0
 12 29  1  0
 13 30  1  0
 15 31  1  0
 18 32  1  0
M  END
$$$$
