
     RDKit          3D

 29 30  0  0  0  0  0  0  0  0999 V2000
    2.5766    0.3653   -1.3700 C   0  0  0  0  0  0  0  0  0  0  0  0
    3.5730   -0.1267   -0.3393 C   0  0  0  0  0  0  0  0  0  0  0  0
    3.0279   -0.0686    1.0229 N   0  0  0  0  0  0  0  0  0  0  0  0
    1.9335   -1.2420    1.5405 S   0  0  0  0  0  6  0  0  0  0  0  0
    2.0601   -1.2871    2.9820 O   0  0  0  0  0  0  0  0  0  0  0  0
    2.1071   -2.4222    0.7234 O   0  0  0  0  0  0  0  0  0  0  0  0
    0.3649   -0.5031    1.1752 C   0  0  0  0  0  0  0  0  0  0  0  0
   -0.0311    0.6416    1.8949 C   0  0  0  0  0  0  0  0  0  0  0  0
   -1.2821    1.2145    1.6602 C   0  0  0  0  0  0  0  0  0  0  0  0
   -2.0940    0.6316    0.7017 C   0  0  0  0  0  0  0  0  0  0  0  0
   -1.6907   -0.4923   -0.0215 C   0  0  0  0  0  0  0  0  0  0  0  0
   -0.4736   -1.0940    0.2228 C   0  0  0  0  0  0  0  0  0  0  0  0
   -2.6896   -0.9747   -0.9009 N   0  0  0  0  0  0  0  0  0  0  0  0
   -3.6367    0.1531   -0.9779 C   0  0  0  0  0  0  0  0  0  0  0  0
   -3.4815    0.9967    0.3010 C   0  0  0  0  0  0  0  0  0  0  0  0
    1.7414   -0.3296   -1.4883 H   0  0  0  0  0  0  0  0  0  0  0  0
    3.0638    0.4571   -2.3472 H   0  0  0  0  0  0  0  0  0  0  0  0
    2.1742    1.3456   -1.0963 H   0  0  0  0  0  0  0  0  0  0  0  0
    4.4503    0.5318   -0.3689 H   0  0  0  0  0  0  0  0  0  0  0  0
    3.9394   -1.1334   -0.5719 H   0  0  0  0  0  0  0  0  0  0  0  0
    3.6845    0.1581    1.7723 H   0  0  0  0  0  0  0  0  0  0  0  0
    0.6258    1.0660    2.6515 H   0  0  0  0  0  0  0  0  0  0  0  0
   -1.6105    2.0821    2.2245 H   0  0  0  0  0  0  0  0  0  0  0  0
   -0.1876   -2.0000   -0.2993 H   0  0  0  0  0  0  0  0  0  0  0  0
   -2.2915   -1.2570   -1.7950 H   0  0  0  0  0  0  0  0  0  0  0  0
   -3.4003    0.7592   -1.8628 H   0  0  0  0  0  0  0  0  0  0  0  0
   -4.6612   -0.2146   -1.0891 H   0  0  0  0  0  0  0  0  0  0  0  0
   -3.6011    2.0640    0.0959 H   0  0  0  0  0  0  0  0  0  0  0  0
   -4.1909    0.6785    1.0710 H   0  0  0  0  0  0  0  0  0  0  0  0
  1  2  1  0
  2  3  1  0
  3  4  1  0
  4  5  2  0
  4  6  2  0
  4  7  1  0
  7  8  2  0
  8  9  1  0
  9 10  2  0
 10 11  1  0
 11 12  2  0
 11 13  1  0
 13 14  1  0
 14 15  1  0
 12  7  1  0
 15 10  1  0
  1 16  1  0
  1 17  1  0
  1 18  1  0
  2 19  1  0
  2 20  1  0
  3 21  1  0
  8 22  1  0
  9 23  1  0
 12 24  1  0
 13 25  1  0
 14 26  1  0
 14 27  1  0
 15 28  1  0
 15 29  1  0
M  END
$$$$
