
     RDKit          3D

 29 30  0  0  0  0  0  0  0  0999 V2000
    4.2295    0.8417   -0.4977 C   0  0  0  0  0  0  0  0  0  0  0  0
    2.8368    0.2473   -0.3883 C   0  0  0  0  0  0  0  0  0  0  0  0
    2.8217   -0.7314    0.6975 N   0  0  0  0  0  0  0  0  0  0  0  0
    1.6575   -1.9398    0.7126 S   0  0  0  0  0  6  0  0  0  0  0  0
    1.7265   -2.6533   -0.5431 O   0  0  0  0  0  0  0  0  0  0  0  0
    1.7908   -2.6184    1.9830 O   0  0  0  0  0  0  0  0  0  0  0  0
    0.1420   -1.0163    0.7472 C   0  0  0  0  0  0  0  0  0  0  0  0
   -0.3528   -0.5561    1.9830 C   0  0  0  0  0  0  0  0  0  0  0  0
   -1.5358    0.1829    2.0293 C   0  0  0  0  0  0  0  0  0  0  0  0
   -2.2015    0.4174    0.8378 C   0  0  0  0  0  0  0  0  0  0  0  0
   -1.7259   -0.0711   -0.3811 C   0  0  0  0  0  0  0  0  0  0  0  0
   -0.5441   -0.7797   -0.4496 C   0  0  0  0  0  0  0  0  0  0  0  0
   -2.5104    0.3401   -1.4850 N   0  0  0  0  0  0  0  0  0  0  0  0
   -3.7685    0.7703   -0.8471 C   0  0  0  0  0  0  0  0  0  0  0  0
   -3.4431    1.2054    0.5941 C   0  0  0  0  0  0  0  0  0  0  0  0
    4.9717    0.0651   -0.7113 H   0  0  0  0  0  0  0  0  0  0  0  0
    4.5215    1.3351    0.4355 H   0  0  0  0  0  0  0  0  0  0  0  0
    4.2664    1.5824   -1.3024 H   0  0  0  0  0  0  0  0  0  0  0  0
    2.1185    1.0443   -0.1720 H   0  0  0  0  0  0  0  0  0  0  0  0
    2.5707   -0.2201   -1.3411 H   0  0  0  0  0  0  0  0  0  0  0  0
    3.1194   -0.4393    1.6263 H   0  0  0  0  0  0  0  0  0  0  0  0
    0.1859   -0.7662    2.9048 H   0  0  0  0  0  0  0  0  0  0  0  0
   -1.9181    0.5624    2.9715 H   0  0  0  0  0  0  0  0  0  0  0  0
   -0.1605   -1.1308   -1.4019 H   0  0  0  0  0  0  0  0  0  0  0  0
   -2.6144   -0.4089   -2.1661 H   0  0  0  0  0  0  0  0  0  0  0  0
   -4.4698   -0.0747   -0.8358 H   0  0  0  0  0  0  0  0  0  0  0  0
   -4.2352    1.5816   -1.4149 H   0  0  0  0  0  0  0  0  0  0  0  0
   -3.2251    2.2773    0.6429 H   0  0  0  0  0  0  0  0  0  0  0  0
   -4.2538    0.9529    1.2827 H   0  0  0  0  0  0  0  0  0  0  0  0
  1  2  1  0
  2  3  1  0
  3  4  1  0
  4  5  2  0
  4  6  2  0
  4  7  1  0
  7  8  2  0
  8  9  1  0
  9 10  2  0
 10 11  1  0
 11 12  2  0
 11 13  1  0
 13 14  1  0
 14 15  1  0
 12  7  1  0
 15 10  1  0
  1 16  1  0
  1 17  1  0
  1 18  1  0
  2 19  1  0
  2 20  1  0
  3 21  1  0
  8 22  1  0
  9 23  1  0
 12 24  1  0
 13 25  1  0
 14 26  1  0
 14 27  1  0
 15 28  1  0
 15 29  1  0
M  END
$$$$
