
     RDKit          3D

 28 30  0  0  0  0  0  0  0  0999 V2000
    3.7594   -1.2085    1.6724 O   0  0  0  0  0  0  0  0  0  0  0  0
    3.5773   -0.5146    0.6762 C   0  0  0  0  0  0  0  0  0  0  0  0
    4.6508   -0.0399   -0.0270 N   0  0  0  0  0  0  0  0  0  0  0  0
    4.6050    0.7338   -1.1404 C   0  0  0  0  0  0  0  0  0  0  0  0
    5.9912    1.2439   -1.9003 S   0  0  0  0  0  0  0  0  0  0  0  0
    3.3764    1.0736   -1.6075 N   0  0  0  0  0  0  0  0  0  0  0  0
    2.1681    0.7155   -1.0699 C   0  0  0  0  0  0  0  0  0  0  0  0
    1.1366    1.1027   -1.6088 O   0  0  0  0  0  0  0  0  0  0  0  0
    2.2245   -0.1338    0.1523 C   0  0  0  0  0  0  0  0  0  0  0  0
    1.1968   -0.6250    0.8784 C   0  0  0  0  0  0  0  0  0  0  0  0
   -0.2135   -0.5031    0.7284 C   0  0  0  0  0  0  0  0  0  0  0  0
   -1.2324   -1.0304    1.5064 C   0  0  0  0  0  0  0  0  0  0  0  0
   -2.4812   -0.6338    0.9579 C   0  0  0  0  0  0  0  0  0  0  0  0
   -3.8260   -0.8597    1.3076 C   0  0  0  0  0  0  0  0  0  0  0  0
   -4.8396   -0.3003    0.5203 C   0  0  0  0  0  0  0  0  0  0  0  0
   -4.5275    0.4717   -0.5972 C   0  0  0  0  0  0  0  0  0  0  0  0
   -3.1984    0.7080   -0.9616 C   0  0  0  0  0  0  0  0  0  0  0  0
   -2.1993    0.1405   -0.1625 C   0  0  0  0  0  0  0  0  0  0  0  0
   -0.8284    0.2022   -0.2762 N   0  0  0  0  0  0  0  0  0  0  0  0
    5.5601   -0.3015    0.3334 H   0  0  0  0  0  0  0  0  0  0  0  0
    3.3324    1.6508   -2.4381 H   0  0  0  0  0  0  0  0  0  0  0  0
    1.4560   -1.2327    1.7490 H   0  0  0  0  0  0  0  0  0  0  0  0
   -1.0948   -1.6440    2.3876 H   0  0  0  0  0  0  0  0  0  0  0  0
   -4.0766   -1.4600    2.1768 H   0  0  0  0  0  0  0  0  0  0  0  0
   -5.8800   -0.4711    0.7852 H   0  0  0  0  0  0  0  0  0  0  0  0
   -5.3289    0.8978   -1.1964 H   0  0  0  0  0  0  0  0  0  0  0  0
   -2.9553    1.3090   -1.8317 H   0  0  0  0  0  0  0  0  0  0  0  0
   -0.3530    0.7088   -1.0145 H   0  0  0  0  0  0  0  0  0  0  0  0
  1  2  2  0
  2  3  1  0
  3  4  1  0
  4  5  2  0
  4  6  1  0
  6  7  1  0
  7  8  2  0
  7  9  1  0
  9 10  2  3
 10 11  1  0
 11 12  2  0
 12 13  1  0
 13 14  2  0
 14 15  1  0
 15 16  2  0
 16 17  1  0
 17 18  2  0
 18 19  1  0
  9  2  1  0
 19 11  1  0
 18 13  1  0
  3 20  1  0
  6 21  1  0
 10 22  1  0
 12 23  1  0
 14 24  1  0
 15 25  1  0
 16 26  1  0
 17 27  1  0
 19 28  1  0
M  END
$$$$
