
     RDKit          3D

 74 75  0  0  0  0  0  0  0  0999 V2000
   -0.7340    4.2263    5.7269 C   0  0  0  0  0  0  0  0  0  0  0  0
   -0.6897    3.0047    4.9966 O   0  0  0  0  0  0  0  0  0  0  0  0
   -0.4372    3.0846    3.6514 C   0  0  0  0  0  0  0  0  0  0  0  0
    0.1418    4.1984    3.0413 C   0  0  0  0  0  0  0  0  0  0  0  0
    0.4314    4.1798    1.6795 C   0  0  0  0  0  0  0  0  0  0  0  0
    0.1546    3.0453    0.9217 C   0  0  0  0  0  0  0  0  0  0  0  0
   -0.4346    1.8989    1.4972 C   0  0  0  0  0  0  0  0  0  0  0  0
   -0.6497    0.6958    0.5718 C   0  0  0  0  0  0  0  0  0  0  0  0
   -1.0637   -0.6850    1.1621 C   0  0  0  0  0  0  0  0  0  0  0  0
   -2.1085   -1.2585    0.8607 O   0  0  0  0  0  0  0  0  0  0  0  0
   -0.1044   -1.2678    1.9810 N   0  0  0  0  0  0  0  0  0  0  0  0
   -0.2466   -2.5886    2.6153 C   0  0  0  0  0  0  0  0  0  0  0  0
   -1.4342   -2.6190    3.5892 C   0  0  0  0  0  0  0  0  0  0  0  0
    1.0436   -2.8701    3.4077 C   0  0  0  0  0  0  0  0  0  0  0  0
   -0.4009   -3.6953    1.5582 C   0  0  0  0  0  0  0  0  0  0  0  0
   -1.3898    1.0148   -0.7010 N   0  0  0  0  0  0  0  0  0  0  0  0
   -0.8360    0.6815   -1.9515 C   0  0  0  0  0  0  0  0  0  0  0  0
   -1.3775    0.9690   -3.0208 O   0  0  0  0  0  0  0  0  0  0  0  0
    0.5003   -0.0457   -1.9890 C   0  0  0  0  0  0  0  0  0  0  0  0
    0.8351   -0.5182   -3.4033 C   0  0  0  0  0  0  0  0  0  0  0  0
    2.2076   -1.1543   -3.4805 C   0  0  0  0  0  0  0  0  0  0  0  0
    3.0132   -1.0921   -2.5560 O   0  0  0  0  0  0  0  0  0  0  0  0
    2.4203   -1.7630   -4.6967 N   0  0  0  0  0  0  0  0  0  0  0  0
    3.5793   -2.4003   -5.0787 C   0  0  0  0  0  0  0  0  0  0  0  0
    4.8027   -2.5328   -4.3861 C   0  0  0  0  0  0  0  0  0  0  0  0
    5.6007   -3.2626   -5.2318 C   0  0  0  0  0  0  0  0  0  0  0  0
    6.9802   -3.7707   -5.1618 C   0  0  0  0  0  0  0  0  0  0  0  0
    4.9040   -3.5501   -6.3627 O   0  0  0  0  0  0  0  0  0  0  0  0
    3.6372   -3.0039   -6.2716 N   0  0  0  0  0  0  0  0  0  0  0  0
   -2.8185    1.5305   -0.6784 C   0  0  0  0  0  0  0  0  0  0  0  0
   -2.9048    2.8937   -1.4065 C   0  0  0  0  0  0  0  0  0  0  0  0
   -3.4131    1.7732    0.7266 C   0  0  0  0  0  0  0  0  0  0  0  0
   -3.7786    0.5280   -1.3664 C   0  0  0  0  0  0  0  0  0  0  0  0
   -0.7398    1.9434    2.8725 C   0  0  0  0  0  0  0  0  0  0  0  0
   -1.2878    0.8217    3.4391 O   0  0  0  0  0  0  0  0  0  0  0  0
   -2.5193    1.0614    4.1234 C   0  0  0  0  0  0  0  0  0  0  0  0
    0.2750    4.6378    5.8594 H   0  0  0  0  0  0  0  0  0  0  0  0
   -1.4017    4.9568    5.2513 H   0  0  0  0  0  0  0  0  0  0  0  0
   -1.1357    4.0057    6.7195 H   0  0  0  0  0  0  0  0  0  0  0  0
    0.4045    5.0885    3.6041 H   0  0  0  0  0  0  0  0  0  0  0  0
    0.8946    5.0451    1.2082 H   0  0  0  0  0  0  0  0  0  0  0  0
    0.4081    3.0577   -0.1390 H   0  0  0  0  0  0  0  0  0  0  0  0
    0.3880    0.4930    0.2836 H   0  0  0  0  0  0  0  0  0  0  0  0
    0.4829   -0.6018    2.4737 H   0  0  0  0  0  0  0  0  0  0  0  0
   -2.3877   -2.4493    3.0789 H   0  0  0  0  0  0  0  0  0  0  0  0
   -1.5006   -3.5875    4.0990 H   0  0  0  0  0  0  0  0  0  0  0  0
   -1.3341   -1.8444    4.3565 H   0  0  0  0  0  0  0  0  0  0  0  0
    1.0080   -3.8506    3.8964 H   0  0  0  0  0  0  0  0  0  0  0  0
    1.9218   -2.8484    2.7515 H   0  0  0  0  0  0  0  0  0  0  0  0
    1.2028   -2.1144    4.1855 H   0  0  0  0  0  0  0  0  0  0  0  0
   -0.4176   -4.6877    2.0249 H   0  0  0  0  0  0  0  0  0  0  0  0
    0.4305   -3.6743    0.8432 H   0  0  0  0  0  0  0  0  0  0  0  0
   -1.3271   -3.5936    0.9823 H   0  0  0  0  0  0  0  0  0  0  0  0
    0.4641   -0.9215   -1.3321 H   0  0  0  0  0  0  0  0  0  0  0  0
    1.2771    0.6446   -1.6407 H   0  0  0  0  0  0  0  0  0  0  0  0
    0.8237    0.3277   -4.1018 H   0  0  0  0  0  0  0  0  0  0  0  0
    0.0840   -1.2445   -3.7370 H   0  0  0  0  0  0  0  0  0  0  0  0
    1.6779   -1.8138   -5.3839 H   0  0  0  0  0  0  0  0  0  0  0  0
    5.0695   -2.1594   -3.4098 H   0  0  0  0  0  0  0  0  0  0  0  0
    7.5045   -3.6019   -6.1085 H   0  0  0  0  0  0  0  0  0  0  0  0
    7.5432   -3.2708   -4.3674 H   0  0  0  0  0  0  0  0  0  0  0  0
    6.9812   -4.8456   -4.9543 H   0  0  0  0  0  0  0  0  0  0  0  0
   -2.6957    2.8212   -2.4759 H   0  0  0  0  0  0  0  0  0  0  0  0
   -2.1916    3.6094   -0.9835 H   0  0  0  0  0  0  0  0  0  0  0  0
   -3.9080    3.3286   -1.3159 H   0  0  0  0  0  0  0  0  0  0  0  0
   -2.9291    2.6072    1.2385 H   0  0  0  0  0  0  0  0  0  0  0  0
   -4.4748    2.0482    0.6620 H   0  0  0  0  0  0  0  0  0  0  0  0
   -3.3634    0.8841    1.3571 H   0  0  0  0  0  0  0  0  0  0  0  0
   -3.5767    0.4066   -2.4331 H   0  0  0  0  0  0  0  0  0  0  0  0
   -4.8215    0.8570   -1.2869 H   0  0  0  0  0  0  0  0  0  0  0  0
   -3.7109   -0.4616   -0.9089 H   0  0  0  0  0  0  0  0  0  0  0  0
   -2.3382    1.0806    5.2025 H   0  0  0  0  0  0  0  0  0  0  0  0
   -3.0241    1.9786    3.8009 H   0  0  0  0  0  0  0  0  0  0  0  0
   -3.1859    0.2204    3.9096 H   0  0  0  0  0  0  0  0  0  0  0  0
  1  2  1  0
  2  3  1  0
  3  4  2  0
  4  5  1  0
  5  6  2  0
  6  7  1  0
  7  8  1  0
  8  9  1  0
  9 10  2  0
  9 11  1  0
 11 12  1  0
 12 13  1  0
 12 14  1  0
 12 15  1  0
  8 16  1  0
 16 17  1  0
 17 18  2  0
 17 19  1  0
 19 20  1  0
 20 21  1  0
 21 22  2  0
 21 23  1  0
 23 24  1  0
 24 25  1  0
 25 26  2  0
 26 27  1  0
 26 28  1  0
 28 29  1  0
 16 30  1  0
 30 31  1  0
 30 32  1  0
 30 33  1  0
  7 34  2  0
 34 35  1  0
 35 36  1  0
 34  3  1  0
 29 24  2  0
  1 37  1  0
  1 38  1  0
  1 39  1  0
  4 40  1  0
  5 41  1  0
  6 42  1  0
  8 43  1  0
 11 44  1  0
 13 45  1  0
 13 46  1  0
 13 47  1  0
 14 48  1  0
 14 49  1  0
 14 50  1  0
 15 51  1  0
 15 52  1  0
 15 53  1  0
 19 54  1  0
 19 55  1  0
 20 56  1  0
 20 57  1  0
 23 58  1  0
 25 59  1  0
 27 60  1  0
 27 61  1  0
 27 62  1  0
 31 63  1  0
 31 64  1  0
 31 65  1  0
 32 66  1  0
 32 67  1  0
 32 68  1  0
 33 69  1  0
 33 70  1  0
 33 71  1  0
 36 72  1  0
 36 73  1  0
 36 74  1  0
M  END
$$$$
