
     RDKit          3D

 53 55  0  0  0  0  0  0  0  0999 V2000
   -6.8707   -2.2575    1.1482 C   0  0  0  0  0  0  0  0  0  0  0  0
   -5.6911   -1.5370    1.4828 O   0  0  0  0  0  0  0  0  0  0  0  0
   -5.6127   -0.2311    1.0730 C   0  0  0  0  0  0  0  0  0  0  0  0
   -6.6244    0.4508    0.3880 C   0  0  0  0  0  0  0  0  0  0  0  0
   -6.4438    1.7796   -0.0053 C   0  0  0  0  0  0  0  0  0  0  0  0
   -5.2512    2.4372    0.2776 C   0  0  0  0  0  0  0  0  0  0  0  0
   -4.2386    1.7689    0.9619 C   0  0  0  0  0  0  0  0  0  0  0  0
   -4.4117    0.4369    1.3776 C   0  0  0  0  0  0  0  0  0  0  0  0
   -3.2824   -0.2581    2.0974 C   0  0  0  0  0  0  0  0  0  0  0  0
   -2.4428   -0.9731    1.1711 N   0  0  0  0  0  0  0  0  0  0  0  0
   -1.3191   -0.4179    0.6109 C   0  0  0  0  0  0  0  0  0  0  0  0
   -0.7971    0.6406    0.9322 O   0  0  0  0  0  0  0  0  0  0  0  0
   -0.7104   -1.2729   -0.5242 C   0  0  0  0  0  0  0  0  0  0  0  0
   -1.1110   -2.4130   -0.7109 O   0  0  0  0  0  0  0  0  0  0  0  0
    0.2688   -0.6268   -1.2407 N   0  0  0  0  0  0  0  0  0  0  0  0
    1.1357   -1.3169   -2.1838 C   0  0  0  0  0  0  0  0  0  0  0  0
    2.4672   -1.8145   -1.5633 C   0  0  0  0  0  0  0  0  0  0  0  0
    2.1739   -2.8410   -0.5919 O   0  0  0  0  0  0  0  0  0  0  0  0
    2.8031   -2.4783    0.6403 C   0  0  0  0  0  0  0  0  0  0  0  0
    3.0136   -0.9823    0.5676 C   0  0  0  0  0  0  0  0  0  0  0  0
    3.2853   -0.8010   -0.8583 N   0  0  0  0  0  0  0  0  0  0  0  0
    3.3629    0.7404   -1.4992 S   0  0  0  0  0  6  0  0  0  0  0  0
    2.1685    1.4510   -1.0940 O   0  0  0  0  0  0  0  0  0  0  0  0
    3.7228    0.6199   -2.8951 O   0  0  0  0  0  0  0  0  0  0  0  0
    4.7505    1.4437   -0.6447 C   0  0  0  0  0  0  0  0  0  0  0  0
    6.0413    1.0268   -0.9872 C   0  0  0  0  0  0  0  0  0  0  0  0
    7.1397    1.5784   -0.3257 C   0  0  0  0  0  0  0  0  0  0  0  0
    6.9392    2.5428    0.6635 C   0  0  0  0  0  0  0  0  0  0  0  0
    8.4286    3.2874    1.5587 Br  0  0  0  0  0  0  0  0  0  0  0  0
    5.6510    2.9654    0.9971 C   0  0  0  0  0  0  0  0  0  0  0  0
    4.5486    2.4172    0.3386 C   0  0  0  0  0  0  0  0  0  0  0  0
   -7.7503   -1.8196    1.6312 H   0  0  0  0  0  0  0  0  0  0  0  0
   -7.0021   -2.3193    0.0629 H   0  0  0  0  0  0  0  0  0  0  0  0
   -6.7571   -3.2777    1.5275 H   0  0  0  0  0  0  0  0  0  0  0  0
   -7.5678   -0.0235    0.1392 H   0  0  0  0  0  0  0  0  0  0  0  0
   -7.2350    2.2990   -0.5401 H   0  0  0  0  0  0  0  0  0  0  0  0
   -5.1060    3.4671   -0.0379 H   0  0  0  0  0  0  0  0  0  0  0  0
   -3.3026    2.2869    1.1668 H   0  0  0  0  0  0  0  0  0  0  0  0
   -3.6648   -0.9769    2.8298 H   0  0  0  0  0  0  0  0  0  0  0  0
   -2.6835    0.4702    2.6569 H   0  0  0  0  0  0  0  0  0  0  0  0
   -2.8102   -1.8095    0.7265 H   0  0  0  0  0  0  0  0  0  0  0  0
    0.5276    0.3148   -0.9345 H   0  0  0  0  0  0  0  0  0  0  0  0
    1.3222   -0.6235   -3.0089 H   0  0  0  0  0  0  0  0  0  0  0  0
    0.5879   -2.1769   -2.5853 H   0  0  0  0  0  0  0  0  0  0  0  0
    3.0788   -2.2785   -2.3448 H   0  0  0  0  0  0  0  0  0  0  0  0
    3.7581   -3.0122    0.6991 H   0  0  0  0  0  0  0  0  0  0  0  0
    2.1782   -2.7793    1.4853 H   0  0  0  0  0  0  0  0  0  0  0  0
    3.8463   -0.6687    1.2010 H   0  0  0  0  0  0  0  0  0  0  0  0
    2.1055   -0.4505    0.8663 H   0  0  0  0  0  0  0  0  0  0  0  0
    6.1940    0.2801   -1.7639 H   0  0  0  0  0  0  0  0  0  0  0  0
    8.1437    1.2554   -0.5900 H   0  0  0  0  0  0  0  0  0  0  0  0
    5.4971    3.7225    1.7624 H   0  0  0  0  0  0  0  0  0  0  0  0
    3.5463    2.7546    0.5952 H   0  0  0  0  0  0  0  0  0  0  0  0
  1  2  1  0
  2  3  1  0
  3  4  2  0
  4  5  1  0
  5  6  2  0
  6  7  1  0
  7  8  2  0
  8  9  1  0
  9 10  1  0
 10 11  1  0
 11 12  2  0
 11 13  1  0
 13 14  2  0
 13 15  1  0
 15 16  1  0
 16 17  1  0
 17 18  1  0
 18 19  1  0
 19 20  1  0
 20 21  1  0
 21 22  1  0
 22 23  2  0
 22 24  2  0
 22 25  1  0
 25 26  2  0
 26 27  1  0
 27 28  2  0
 28 29  1  0
 28 30  1  0
 30 31  2  0
  8  3  1  0
 21 17  1  0
 31 25  1  0
  1 32  1  0
  1 33  1  0
  1 34  1  0
  4 35  1  0
  5 36  1  0
  6 37  1  0
  7 38  1  0
  9 39  1  0
  9 40  1  0
 10 41  1  0
 15 42  1  0
 16 43  1  0
 16 44  1  0
 17 45  1  0
 19 46  1  0
 19 47  1  0
 20 48  1  0
 20 49  1  0
 26 50  1  0
 27 51  1  0
 30 52  1  0
 31 53  1  0
M  END
$$$$
