
     RDKit          3D

 43 46  0  0  0  0  0  0  0  0999 V2000
    6.5555    1.0068   -1.4505 C   0  0  0  0  0  0  0  0  0  0  0  0
    5.1057    0.9407   -1.0663 C   0  0  0  0  0  0  0  0  0  0  0  0
    4.1382    1.5993   -1.8301 C   0  0  0  0  0  0  0  0  0  0  0  0
    2.7845    1.5108   -1.4916 C   0  0  0  0  0  0  0  0  0  0  0  0
    2.3822    0.7536   -0.3852 C   0  0  0  0  0  0  0  0  0  0  0  0
    0.8588    0.6593   -0.0137 C   0  0  0  0  0  0  0  0  0  0  0  0
   -0.1987    1.2187   -0.7219 C   0  0  0  0  0  0  0  0  0  0  0  0
   -1.3980    0.8778   -0.0946 N   0  0  0  0  0  4  0  0  0  0  0  0
   -2.7444    1.2569   -0.5164 C   0  0  0  0  0  0  0  0  0  0  0  0
   -3.5577    0.0164   -0.7815 C   0  0  0  0  0  0  0  0  0  0  0  0
   -4.8042   -0.1643   -0.1617 C   0  0  0  0  0  0  0  0  0  0  0  0
   -5.5598   -1.3137   -0.4070 C   0  0  0  0  0  0  0  0  0  0  0  0
   -5.0829   -2.2932   -1.2775 C   0  0  0  0  0  0  0  0  0  0  0  0
   -3.8545   -2.1166   -1.9069 C   0  0  0  0  0  0  0  0  0  0  0  0
   -3.2590   -3.3182   -2.9826 Cl  0  0  0  0  0  0  0  0  0  0  0  0
   -3.0961   -0.9699   -1.6690 C   0  0  0  0  0  0  0  0  0  0  0  0
   -1.0902    0.1530    0.9765 C   0  0  0  0  0  0  0  0  0  0  0  0
    0.2319    0.0305    1.0473 N   0  0  0  0  0  0  0  0  0  0  0  0
    0.6439   -0.7393    2.2126 C   0  0  0  0  0  0  0  0  0  0  0  0
   -0.6502   -0.8217    3.0685 C   0  0  0  0  0  0  0  0  0  0  0  0
   -1.8002   -0.5256    2.0856 C   0  0  0  0  0  0  0  0  0  0  0  0
    3.3433    0.0791    0.3680 C   0  0  0  0  0  0  0  0  0  0  0  0
    4.6966    0.1696    0.0259 C   0  0  0  0  0  0  0  0  0  0  0  0
    6.7842    1.9531   -1.9530 H   0  0  0  0  0  0  0  0  0  0  0  0
    6.8015    0.1803   -2.1247 H   0  0  0  0  0  0  0  0  0  0  0  0
    7.1966    0.9464   -0.5642 H   0  0  0  0  0  0  0  0  0  0  0  0
    4.4362    2.1879   -2.6966 H   0  0  0  0  0  0  0  0  0  0  0  0
    2.0754    2.0479   -2.1143 H   0  0  0  0  0  0  0  0  0  0  0  0
   -0.2521    1.8120   -1.6191 H   0  0  0  0  0  0  0  0  0  0  0  0
   -2.6949    1.8703   -1.4225 H   0  0  0  0  0  0  0  0  0  0  0  0
   -3.1822    1.8641    0.2840 H   0  0  0  0  0  0  0  0  0  0  0  0
   -5.2090    0.5885    0.5135 H   0  0  0  0  0  0  0  0  0  0  0  0
   -6.5276   -1.4451    0.0737 H   0  0  0  0  0  0  0  0  0  0  0  0
   -5.6774   -3.1842   -1.4673 H   0  0  0  0  0  0  0  0  0  0  0  0
   -2.1428   -0.8499   -2.1794 H   0  0  0  0  0  0  0  0  0  0  0  0
    0.9644   -1.7322    1.8841 H   0  0  0  0  0  0  0  0  0  0  0  0
    1.4418   -0.2302    2.7578 H   0  0  0  0  0  0  0  0  0  0  0  0
   -0.7611   -1.7826    3.5780 H   0  0  0  0  0  0  0  0  0  0  0  0
   -0.6214   -0.0363    3.8330 H   0  0  0  0  0  0  0  0  0  0  0  0
   -2.5567    0.1474    2.4905 H   0  0  0  0  0  0  0  0  0  0  0  0
   -2.2367   -1.4364    1.6705 H   0  0  0  0  0  0  0  0  0  0  0  0
    3.0822   -0.5404    1.2156 H   0  0  0  0  0  0  0  0  0  0  0  0
    5.4350   -0.3706    0.6168 H   0  0  0  0  0  0  0  0  0  0  0  0
  1  2  1  0
  2  3  2  0
  3  4  1  0
  4  5  2  0
  5  6  1  0
  6  7  2  0
  7  8  1  0
  8  9  1  0
  9 10  1  0
 10 11  2  0
 11 12  1  0
 12 13  2  0
 13 14  1  0
 14 15  1  0
 14 16  2  0
  8 17  2  0
 17 18  1  0
 18 19  1  0
 19 20  1  0
 20 21  1  0
  5 22  1  0
 22 23  2  0
 23  2  1  0
 18  6  1  0
 16 10  1  0
 21 17  1  0
  1 24  1  0
  1 25  1  0
  1 26  1  0
  3 27  1  0
  4 28  1  0
  7 29  1  0
  9 30  1  0
  9 31  1  0
 11 32  1  0
 12 33  1  0
 13 34  1  0
 16 35  1  0
 19 36  1  0
 19 37  1  0
 20 38  1  0
 20 39  1  0
 21 40  1  0
 21 41  1  0
 22 42  1  0
 23 43  1  0
M  CHG  1   8   1
M  END
$$$$
