
     RDKit          3D

 52 55  0  0  0  0  0  0  0  0999 V2000
   -3.6566   -1.0007   -3.2848 C   0  0  0  0  0  0  0  0  0  0  0  0
   -3.3550   -2.0469   -2.2287 C   0  0  0  0  0  0  0  0  0  0  0  0
   -3.4787   -1.4736   -0.9208 O   0  0  0  0  0  0  0  0  0  0  0  0
   -2.3727   -0.8605   -0.4179 C   0  0  0  0  0  0  0  0  0  0  0  0
   -1.3016   -0.7888   -1.0128 O   0  0  0  0  0  0  0  0  0  0  0  0
   -2.5721   -0.2884    0.9174 C   0  0  0  0  0  0  0  0  0  0  0  0
   -3.8001   -0.2333    1.6835 C   0  0  0  0  0  0  0  0  0  0  0  0
   -5.1258   -0.7046    1.3155 C   0  0  0  0  0  0  0  0  0  0  0  0
   -5.9620    0.0990    0.5319 C   0  0  0  0  0  0  0  0  0  0  0  0
   -7.2333   -0.3549    0.1771 C   0  0  0  0  0  0  0  0  0  0  0  0
   -7.6714   -1.6086    0.6041 C   0  0  0  0  0  0  0  0  0  0  0  0
   -6.8408   -2.4111    1.3863 C   0  0  0  0  0  0  0  0  0  0  0  0
   -5.5686   -1.9611    1.7434 C   0  0  0  0  0  0  0  0  0  0  0  0
   -3.6205    0.3722    2.9105 C   0  0  0  0  0  0  0  0  0  0  0  0
   -2.0139    0.8744    3.1488 S   0  0  0  0  0  0  0  0  0  0  0  0
   -1.5286    0.3001    1.6267 C   0  0  0  0  0  0  0  0  0  0  0  0
   -0.2157    0.4321    1.1988 N   0  0  0  0  0  0  0  0  0  0  0  0
    0.8494    1.0086    1.8674 C   0  0  0  0  0  0  0  0  0  0  0  0
    0.8376    1.5226    2.9801 O   0  0  0  0  0  0  0  0  0  0  0  0
    2.0946    0.9613    1.0895 C   0  0  0  0  0  0  0  0  0  0  0  0
    3.3665    1.4529    1.4779 C   0  0  0  0  0  0  0  0  0  0  0  0
    4.1975    1.1657    0.4215 C   0  0  0  0  0  0  0  0  0  0  0  0
    5.6056    1.4122    0.1331 C   0  0  0  0  0  0  0  0  0  0  0  0
    6.2143    2.5706    0.6477 C   0  0  0  0  0  0  0  0  0  0  0  0
    7.5623    2.8483    0.4020 C   0  0  0  0  0  0  0  0  0  0  0  0
    8.3294    1.9659   -0.3530 C   0  0  0  0  0  0  0  0  0  0  0  0
    7.7487    0.8081   -0.8667 C   0  0  0  0  0  0  0  0  0  0  0  0
    6.3926    0.5409   -0.6406 C   0  0  0  0  0  0  0  0  0  0  0  0
    5.8659   -0.6424   -1.0966 O   0  0  0  0  0  0  0  0  0  0  0  0
    5.7628   -0.6465   -2.5210 C   0  0  0  0  0  0  0  0  0  0  0  0
    3.4649    0.5526   -0.5506 O   0  0  0  0  0  0  0  0  0  0  0  0
    2.1500    0.4203   -0.1399 N   0  0  0  0  0  0  0  0  0  0  0  0
   -3.6238   -1.4393   -4.2860 H   0  0  0  0  0  0  0  0  0  0  0  0
   -4.6480   -0.5651   -3.1218 H   0  0  0  0  0  0  0  0  0  0  0  0
   -2.9361   -0.1779   -3.2395 H   0  0  0  0  0  0  0  0  0  0  0  0
   -2.3663   -2.4958   -2.3775 H   0  0  0  0  0  0  0  0  0  0  0  0
   -4.0888   -2.8570   -2.2933 H   0  0  0  0  0  0  0  0  0  0  0  0
   -5.6293    1.0775    0.1941 H   0  0  0  0  0  0  0  0  0  0  0  0
   -7.8821    0.2693   -0.4320 H   0  0  0  0  0  0  0  0  0  0  0  0
   -8.6621   -1.9607    0.3272 H   0  0  0  0  0  0  0  0  0  0  0  0
   -7.1837   -3.3879    1.7177 H   0  0  0  0  0  0  0  0  0  0  0  0
   -4.9273   -2.5951    2.3508 H   0  0  0  0  0  0  0  0  0  0  0  0
   -4.3604    0.5490    3.6805 H   0  0  0  0  0  0  0  0  0  0  0  0
   -0.0040    0.0622    0.2682 H   0  0  0  0  0  0  0  0  0  0  0  0
    3.6239    1.9391    2.4072 H   0  0  0  0  0  0  0  0  0  0  0  0
    5.6397    3.2782    1.2420 H   0  0  0  0  0  0  0  0  0  0  0  0
    8.0133    3.7506    0.8084 H   0  0  0  0  0  0  0  0  0  0  0  0
    9.3817    2.1722   -0.5311 H   0  0  0  0  0  0  0  0  0  0  0  0
    8.3600    0.1048   -1.4256 H   0  0  0  0  0  0  0  0  0  0  0  0
    5.3068    0.2764   -2.8975 H   0  0  0  0  0  0  0  0  0  0  0  0
    5.1182   -1.4830   -2.8065 H   0  0  0  0  0  0  0  0  0  0  0  0
    6.7431   -0.8039   -2.9821 H   0  0  0  0  0  0  0  0  0  0  0  0
  1  2  1  0
  2  3  1  0
  3  4  1  0
  4  5  2  0
  4  6  1  0
  6  7  1  0
  7  8  1  0
  8  9  2  0
  9 10  1  0
 10 11  2  0
 11 12  1  0
 12 13  2  0
  7 14  2  0
 14 15  1  0
 15 16  1  0
 16 17  1  0
 17 18  1  0
 18 19  2  0
 18 20  1  0
 20 21  1  0
 21 22  2  0
 22 23  1  0
 23 24  2  0
 24 25  1  0
 25 26  2  0
 26 27  1  0
 27 28  2  0
 28 29  1  0
 29 30  1  0
 22 31  1  0
 31 32  1  0
 16  6  2  0
 32 20  2  0
 13  8  1  0
 28 23  1  0
  1 33  1  0
  1 34  1  0
  1 35  1  0
  2 36  1  0
  2 37  1  0
  9 38  1  0
 10 39  1  0
 11 40  1  0
 12 41  1  0
 13 42  1  0
 14 43  1  0
 17 44  1  0
 21 45  1  0
 24 46  1  0
 25 47  1  0
 26 48  1  0
 27 49  1  0
 30 50  1  0
 30 51  1  0
 30 52  1  0
M  END
$$$$
