
     RDKit          3D

 31 31  0  0  0  0  0  0  0  0999 V2000
    2.6528   -1.3502    2.7639 C   0  0  0  0  0  0  0  0  0  0  0  0
    3.5049   -0.3145    2.2903 O   0  0  0  0  0  0  0  0  0  0  0  0
    3.0688    0.1859    1.0273 C   0  0  0  0  0  0  0  0  0  0  0  0
    1.7838    0.7989    1.1219 O   0  0  0  0  0  0  0  0  0  0  0  0
    1.3135    1.1847   -0.1079 C   0  0  0  0  0  0  0  0  0  0  0  0
    0.1011    0.8543   -0.5880 C   0  0  0  0  0  0  0  0  0  0  0  0
   -0.2898    1.3246   -1.8264 N   0  0  0  0  0  0  0  0  0  0  0  0
   -1.4980    1.1184   -2.4730 C   0  0  0  0  0  0  0  0  0  0  0  0
   -1.5556    1.8221   -3.8062 C   0  0  0  0  0  0  0  0  0  0  0  0
   -2.4562    0.4752   -2.0631 O   0  0  0  0  0  0  0  0  0  0  0  0
   -0.7646   -0.0300    0.2135 C   0  0  0  0  0  0  0  0  0  0  0  0
   -1.5002    0.4806    1.2915 C   0  0  0  0  0  0  0  0  0  0  0  0
   -2.2824   -0.3681    2.0776 C   0  0  0  0  0  0  0  0  0  0  0  0
   -2.3327   -1.7325    1.7947 C   0  0  0  0  0  0  0  0  0  0  0  0
   -1.6018   -2.2509    0.7265 C   0  0  0  0  0  0  0  0  0  0  0  0
   -0.8178   -1.4041   -0.0599 C   0  0  0  0  0  0  0  0  0  0  0  0
    3.0702   -1.7348    3.6986 H   0  0  0  0  0  0  0  0  0  0  0  0
    2.6035   -2.1713    2.0420 H   0  0  0  0  0  0  0  0  0  0  0  0
    1.6490   -0.9661    2.9686 H   0  0  0  0  0  0  0  0  0  0  0  0
    3.8053    0.9322    0.7083 H   0  0  0  0  0  0  0  0  0  0  0  0
    3.0610   -0.6337    0.2966 H   0  0  0  0  0  0  0  0  0  0  0  0
    2.0160    1.8185   -0.6342 H   0  0  0  0  0  0  0  0  0  0  0  0
    0.3706    1.9271   -2.3010 H   0  0  0  0  0  0  0  0  0  0  0  0
   -0.5955    1.7519   -4.3256 H   0  0  0  0  0  0  0  0  0  0  0  0
   -2.3161    1.3494   -4.4344 H   0  0  0  0  0  0  0  0  0  0  0  0
   -1.8153    2.8725   -3.6508 H   0  0  0  0  0  0  0  0  0  0  0  0
   -1.4643    1.5419    1.5226 H   0  0  0  0  0  0  0  0  0  0  0  0
   -2.8544    0.0374    2.9075 H   0  0  0  0  0  0  0  0  0  0  0  0
   -2.9479   -2.3905    2.4024 H   0  0  0  0  0  0  0  0  0  0  0  0
   -1.6490   -3.3122    0.4994 H   0  0  0  0  0  0  0  0  0  0  0  0
   -0.2589   -1.8165   -0.8953 H   0  0  0  0  0  0  0  0  0  0  0  0
  1  2  1  0
  2  3  1  0
  3  4  1  0
  4  5  1  0
  5  6  2  3
  6  7  1  0
  7  8  1  0
  8  9  1  0
  8 10  2  0
  6 11  1  0
 11 12  2  0
 12 13  1  0
 13 14  2  0
 14 15  1  0
 15 16  2  0
 16 11  1  0
  1 17  1  0
  1 18  1  0
  1 19  1  0
  3 20  1  0
  3 21  1  0
  5 22  1  0
  7 23  1  0
  9 24  1  0
  9 25  1  0
  9 26  1  0
 12 27  1  0
 13 28  1  0
 14 29  1  0
 15 30  1  0
 16 31  1  0
M  END
$$$$
