
     RDKit          3D

 42 44  0  0  0  0  0  0  0  0999 V2000
   -6.0598    1.5196   -0.0405 C   0  0  0  0  0  0  0  0  0  0  0  0
   -4.8061    1.8600    0.5374 O   0  0  0  0  0  0  0  0  0  0  0  0
   -3.9323    0.8349    0.7731 C   0  0  0  0  0  0  0  0  0  0  0  0
   -2.7256    1.2236    1.3645 C   0  0  0  0  0  0  0  0  0  0  0  0
   -1.7399    0.2809    1.6618 C   0  0  0  0  0  0  0  0  0  0  0  0
   -1.9593   -1.0608    1.3452 C   0  0  0  0  0  0  0  0  0  0  0  0
   -0.7182   -2.2753    1.7315 S   0  0  0  0  0  6  0  0  0  0  0  0
    0.0826   -1.7653    2.8230 O   0  0  0  0  0  0  0  0  0  0  0  0
   -1.3833   -3.5586    1.8301 O   0  0  0  0  0  0  0  0  0  0  0  0
    0.2105   -2.3461    0.3253 N   0  0  0  0  0  0  0  0  0  0  0  0
    0.7933   -1.1630   -0.2160 C   0  0  0  0  0  0  0  0  0  0  0  0
    1.7390   -0.4542    0.5343 C   0  0  0  0  0  0  0  0  0  0  0  0
    2.3106    0.7200    0.0343 C   0  0  0  0  0  0  0  0  0  0  0  0
    3.4926    1.6229    1.0171 S   0  0  0  0  0  0  0  0  0  0  0  0
    5.0016    0.8915    0.5299 C   0  0  0  0  0  0  0  0  0  0  0  0
    5.1023   -0.2751   -0.1800 N   0  0  0  0  0  0  0  0  0  0  0  0
    6.3975   -0.4344   -0.3124 C   0  0  0  0  0  0  0  0  0  0  0  0
    7.0428    0.5978    0.2891 N   0  0  0  0  0  0  0  0  0  0  0  0
    6.1724    1.4665    0.8263 N   0  0  0  0  0  0  0  0  0  0  0  0
    1.9165    1.1773   -1.2260 C   0  0  0  0  0  0  0  0  0  0  0  0
    2.4191    2.3257   -1.7752 O   0  0  0  0  0  0  0  0  0  0  0  0
    0.9846    0.4737   -1.9845 C   0  0  0  0  0  0  0  0  0  0  0  0
    0.4119   -0.7080   -1.4906 C   0  0  0  0  0  0  0  0  0  0  0  0
   -0.5801   -1.4475   -2.3432 C   0  0  0  0  0  0  0  0  0  0  0  0
   -3.1688   -1.4654    0.7733 C   0  0  0  0  0  0  0  0  0  0  0  0
   -4.1521   -0.5137    0.4827 C   0  0  0  0  0  0  0  0  0  0  0  0
   -6.6280    0.8509    0.6145 H   0  0  0  0  0  0  0  0  0  0  0  0
   -5.9295    1.0823   -1.0359 H   0  0  0  0  0  0  0  0  0  0  0  0
   -6.6365    2.4425   -0.1551 H   0  0  0  0  0  0  0  0  0  0  0  0
   -2.5553    2.2719    1.6000 H   0  0  0  0  0  0  0  0  0  0  0  0
   -0.8134    0.6015    2.1326 H   0  0  0  0  0  0  0  0  0  0  0  0
   -0.1079   -3.0695   -0.3154 H   0  0  0  0  0  0  0  0  0  0  0  0
    2.0493   -0.8287    1.5074 H   0  0  0  0  0  0  0  0  0  0  0  0
    6.9045   -1.2461   -0.8140 H   0  0  0  0  0  0  0  0  0  0  0  0
    8.0381    0.7742    0.3692 H   0  0  0  0  0  0  0  0  0  0  0  0
    3.0605    2.6911   -1.1380 H   0  0  0  0  0  0  0  0  0  0  0  0
    0.7098    0.8573   -2.9646 H   0  0  0  0  0  0  0  0  0  0  0  0
   -0.1860   -2.4326   -2.6124 H   0  0  0  0  0  0  0  0  0  0  0  0
   -1.5296   -1.5677   -1.8140 H   0  0  0  0  0  0  0  0  0  0  0  0
   -0.7923   -0.9098   -3.2735 H   0  0  0  0  0  0  0  0  0  0  0  0
   -3.3567   -2.5141    0.5534 H   0  0  0  0  0  0  0  0  0  0  0  0
   -5.0791   -0.8579    0.0357 H   0  0  0  0  0  0  0  0  0  0  0  0
  1  2  1  0
  2  3  1  0
  3  4  2  0
  4  5  1  0
  5  6  2  0
  6  7  1  0
  7  8  2  0
  7  9  2  0
  7 10  1  0
 10 11  1  0
 11 12  2  0
 12 13  1  0
 13 14  1  0
 14 15  1  0
 15 16  1  0
 16 17  2  0
 17 18  1  0
 18 19  1  0
 13 20  2  0
 20 21  1  0
 20 22  1  0
 22 23  2  0
 23 24  1  0
  6 25  1  0
 25 26  2  0
 26  3  1  0
 23 11  1  0
 19 15  2  0
  1 27  1  0
  1 28  1  0
  1 29  1  0
  4 30  1  0
  5 31  1  0
 10 32  1  0
 12 33  1  0
 17 34  1  0
 18 35  1  0
 21 36  1  0
 22 37  1  0
 24 38  1  0
 24 39  1  0
 24 40  1  0
 25 41  1  0
 26 42  1  0
M  END
$$$$
