
     RDKit          3D

 30 31  0  0  0  0  0  0  0  0999 V2000
    4.3521   -3.1869   -2.4031 C   0  0  0  0  0  0  0  0  0  0  0  0
    4.0789   -1.7944   -2.3086 O   0  0  0  0  0  0  0  0  0  0  0  0
    3.0015   -1.4254   -1.5524 C   0  0  0  0  0  0  0  0  0  0  0  0
    2.7799   -0.0487   -1.4851 C   0  0  0  0  0  0  0  0  0  0  0  0
    1.7121    0.4685   -0.7458 C   0  0  0  0  0  0  0  0  0  0  0  0
    0.8420   -0.3897   -0.0599 C   0  0  0  0  0  0  0  0  0  0  0  0
   -0.2860    0.1455    0.7337 C   0  0  0  0  0  0  0  0  0  0  0  0
   -0.3953   -0.2298    2.1091 C   0  0  0  0  0  0  0  0  0  0  0  0
   -0.4777   -0.5229    3.2293 N   0  0  0  0  0  0  0  0  0  0  0  0
   -1.1969    0.9259    0.1182 C   0  0  0  0  0  0  0  0  0  0  0  0
   -2.3992    1.5316    0.7001 C   0  0  0  0  0  0  0  0  0  0  0  0
   -2.3939    2.2488    1.8923 C   0  0  0  0  0  0  0  0  0  0  0  0
   -3.5853    2.8175    2.3375 C   0  0  0  0  0  0  0  0  0  0  0  0
   -4.7376    2.6687    1.5767 C   0  0  0  0  0  0  0  0  0  0  0  0
   -4.6479    1.9602    0.3916 C   0  0  0  0  0  0  0  0  0  0  0  0
   -3.5059    1.4002   -0.0657 N   0  0  0  0  0  0  0  0  0  0  0  0
    1.0716   -1.7715   -0.1281 C   0  0  0  0  0  0  0  0  0  0  0  0
    2.1428   -2.2860   -0.8702 C   0  0  0  0  0  0  0  0  0  0  0  0
    4.5813   -3.6119   -1.4203 H   0  0  0  0  0  0  0  0  0  0  0  0
    5.2373   -3.3117   -3.0343 H   0  0  0  0  0  0  0  0  0  0  0  0
    3.5240   -3.7199   -2.8819 H   0  0  0  0  0  0  0  0  0  0  0  0
    3.4477    0.6289   -2.0123 H   0  0  0  0  0  0  0  0  0  0  0  0
    1.5761    1.5473   -0.7085 H   0  0  0  0  0  0  0  0  0  0  0  0
   -1.1146    1.1177   -0.9505 H   0  0  0  0  0  0  0  0  0  0  0  0
   -1.4884    2.3794    2.4754 H   0  0  0  0  0  0  0  0  0  0  0  0
   -3.6106    3.3734    3.2707 H   0  0  0  0  0  0  0  0  0  0  0  0
   -5.6805    3.0975    1.8968 H   0  0  0  0  0  0  0  0  0  0  0  0
   -5.5180    1.8198   -0.2435 H   0  0  0  0  0  0  0  0  0  0  0  0
    0.4153   -2.4691    0.3901 H   0  0  0  0  0  0  0  0  0  0  0  0
    2.2751   -3.3628   -0.8926 H   0  0  0  0  0  0  0  0  0  0  0  0
  1  2  1  0
  2  3  1  0
  3  4  2  0
  4  5  1  0
  5  6  2  0
  6  7  1  0
  7  8  1  0
  8  9  3  0
  7 10  2  3
 10 11  1  0
 11 12  2  0
 12 13  1  0
 13 14  2  0
 14 15  1  0
 15 16  2  0
  6 17  1  0
 17 18  2  0
 18  3  1  0
 16 11  1  0
  1 19  1  0
  1 20  1  0
  1 21  1  0
  4 22  1  0
  5 23  1  0
 10 24  1  0
 12 25  1  0
 13 26  1  0
 14 27  1  0
 15 28  1  0
 17 29  1  0
 18 30  1  0
M  END
$$$$
