
     RDKit          3D

 39 39  0  0  0  0  0  0  0  0999 V2000
   -5.5130    3.3112   -0.8478 C   0  0  0  0  0  0  0  0  0  0  0  0
   -4.1552    2.9257   -1.3491 C   0  0  0  0  0  0  0  0  0  0  0  0
   -3.6653    3.3235   -2.3959 O   0  0  0  0  0  0  0  0  0  0  0  0
   -3.5587    2.0743   -0.4699 O   0  0  0  0  0  0  0  0  0  0  0  0
   -2.2433    1.6492   -0.8601 C   0  0  0  0  0  0  0  0  0  0  0  0
   -1.7419    0.6641    0.1930 C   0  0  0  0  0  0  0  0  0  0  0  0
   -0.3482    0.1100   -0.1459 C   0  0  0  0  0  0  0  0  0  0  0  0
    0.6372    1.1984   -0.0120 N   0  0  0  0  0  0  0  0  0  0  0  0
    2.0264    1.1061   -0.9399 S   0  0  0  0  0  6  0  0  0  0  0  0
    1.6474    0.8320   -2.3054 O   0  0  0  0  0  0  0  0  0  0  0  0
    2.8228    2.2589   -0.5887 O   0  0  0  0  0  0  0  0  0  0  0  0
    2.7902   -0.1978   -0.3658 O   0  0  0  0  0  0  0  0  0  0  0  0
    4.1293   -0.4155   -0.8032 C   0  0  0  0  0  0  0  0  0  0  0  0
    4.5953   -1.8474   -0.5091 C   0  0  0  0  0  0  0  0  0  0  0  0
    4.4988   -2.2039    1.2427 Cl  0  0  0  0  0  0  0  0  0  0  0  0
    6.3017   -2.0352   -1.0305 Cl  0  0  0  0  0  0  0  0  0  0  0  0
    3.6000   -3.0345   -1.4073 Cl  0  0  0  0  0  0  0  0  0  0  0  0
   -0.0054   -1.0715    0.7457 C   0  0  0  0  0  0  0  0  0  0  0  0
    0.0722   -0.9461    2.1427 C   0  0  0  0  0  0  0  0  0  0  0  0
    0.4142   -2.0419    2.9375 C   0  0  0  0  0  0  0  0  0  0  0  0
    0.6814   -3.2755    2.3491 C   0  0  0  0  0  0  0  0  0  0  0  0
    0.6045   -3.4166    0.9661 C   0  0  0  0  0  0  0  0  0  0  0  0
    0.2635   -2.3227    0.1688 C   0  0  0  0  0  0  0  0  0  0  0  0
   -6.1382    2.4204   -0.7483 H   0  0  0  0  0  0  0  0  0  0  0  0
   -5.4213    3.8267    0.1115 H   0  0  0  0  0  0  0  0  0  0  0  0
   -5.9849    3.9895   -1.5645 H   0  0  0  0  0  0  0  0  0  0  0  0
   -2.2932    1.1607   -1.8402 H   0  0  0  0  0  0  0  0  0  0  0  0
   -1.5860    2.5241   -0.9166 H   0  0  0  0  0  0  0  0  0  0  0  0
   -1.7487    1.1578    1.1740 H   0  0  0  0  0  0  0  0  0  0  0  0
   -2.4674   -0.1570    0.2726 H   0  0  0  0  0  0  0  0  0  0  0  0
   -0.3834   -0.2263   -1.1896 H   0  0  0  0  0  0  0  0  0  0  0  0
    0.8652    1.4587    0.9451 H   0  0  0  0  0  0  0  0  0  0  0  0
    4.1992   -0.2149   -1.8803 H   0  0  0  0  0  0  0  0  0  0  0  0
    4.7744    0.3076   -0.2887 H   0  0  0  0  0  0  0  0  0  0  0  0
   -0.1334    0.0043    2.6293 H   0  0  0  0  0  0  0  0  0  0  0  0
    0.4740   -1.9337    4.0177 H   0  0  0  0  0  0  0  0  0  0  0  0
    0.9524   -4.1270    2.9680 H   0  0  0  0  0  0  0  0  0  0  0  0
    0.8176   -4.3784    0.5057 H   0  0  0  0  0  0  0  0  0  0  0  0
    0.2198   -2.4571   -0.9107 H   0  0  0  0  0  0  0  0  0  0  0  0
  1  2  1  0
  2  3  2  0
  2  4  1  0
  4  5  1  0
  5  6  1  0
  6  7  1  0
  7  8  1  0
  8  9  1  0
  9 10  2  0
  9 11  2  0
  9 12  1  0
 12 13  1  0
 13 14  1  0
 14 15  1  0
 14 16  1  0
 14 17  1  0
  7 18  1  0
 18 19  2  0
 19 20  1  0
 20 21  2  0
 21 22  1  0
 22 23  2  0
 23 18  1  0
  1 24  1  0
  1 25  1  0
  1 26  1  0
  5 27  1  0
  5 28  1  0
  6 29  1  0
  6 30  1  0
  7 31  1  0
  8 32  1  0
 13 33  1  0
 13 34  1  0
 19 35  1  0
 20 36  1  0
 21 37  1  0
 22 38  1  0
 23 39  1  0
M  END
$$$$
