
     RDKit          3D

 57 60  0  0  0  0  0  0  0  0999 V2000
   -6.3659   -2.3383   -0.1714 C   0  0  0  0  0  0  0  0  0  0  0  0
   -5.0942   -1.7545    0.4477 C   0  0  0  0  0  0  0  0  0  0  0  0
   -4.6777   -2.5844    1.6609 C   0  0  0  0  0  0  0  0  0  0  0  0
   -3.9569   -1.7305   -0.5759 C   0  0  0  0  0  0  0  0  0  0  0  0
   -3.9321   -2.5404   -1.5050 O   0  0  0  0  0  0  0  0  0  0  0  0
   -2.9385   -0.8048   -0.3970 N   0  0  0  0  0  0  0  0  0  0  0  0
   -2.9252    0.2657    0.6116 C   0  0  0  0  0  0  0  0  0  0  0  0
   -1.5134    0.8056    0.9043 C   0  0  0  0  0  0  0  0  0  0  0  0
   -0.7755    1.2066   -0.3178 N   0  0  0  0  0  0  0  0  0  0  0  0
   -0.5344    2.6041   -0.3883 C   0  0  0  0  0  0  0  0  0  0  0  0
   -1.5632    3.5389   -0.5723 C   0  0  0  0  0  0  0  0  0  0  0  0
   -1.2773    4.9039   -0.6288 C   0  0  0  0  0  0  0  0  0  0  0  0
    0.0371    5.3482   -0.5001 C   0  0  0  0  0  0  0  0  0  0  0  0
    1.0749    4.4328   -0.3110 C   0  0  0  0  0  0  0  0  0  0  0  0
    0.7972    3.0678   -0.2503 C   0  0  0  0  0  0  0  0  0  0  0  0
    1.7727    2.0675   -0.0580 N   0  0  0  0  0  0  0  0  0  0  0  0
    3.1227    2.2171    0.1611 C   0  0  0  0  0  0  0  0  0  0  0  0
    3.7345    3.2734    0.2692 O   0  0  0  0  0  0  0  0  0  0  0  0
    3.8804    0.9411    0.3115 C   0  0  0  0  0  0  0  0  0  0  0  0
    5.0045    0.9280    1.1506 C   0  0  0  0  0  0  0  0  0  0  0  0
    5.7385   -0.2473    1.3272 C   0  0  0  0  0  0  0  0  0  0  0  0
    5.3551   -1.4090    0.6610 C   0  0  0  0  0  0  0  0  0  0  0  0
    4.2593   -1.3892   -0.2088 C   0  0  0  0  0  0  0  0  0  0  0  0
    3.5145   -0.2222   -0.3779 C   0  0  0  0  0  0  0  0  0  0  0  0
    3.8537   -2.4840   -0.9299 O   0  0  0  0  0  0  0  0  0  0  0  0
    4.8693   -3.4944   -0.9582 C   0  0  0  0  0  0  0  0  0  0  0  0
    5.4467   -3.7132    0.4303 C   0  0  0  0  0  0  0  0  0  0  0  0
    6.1071   -2.5309    0.8966 O   0  0  0  0  0  0  0  0  0  0  0  0
   -1.2968    0.6524   -1.5903 C   0  0  0  0  0  0  0  0  0  0  0  0
   -1.8489   -0.7675   -1.3843 C   0  0  0  0  0  0  0  0  0  0  0  0
   -7.1966   -2.3001    0.5417 H   0  0  0  0  0  0  0  0  0  0  0  0
   -6.6584   -1.7711   -1.0620 H   0  0  0  0  0  0  0  0  0  0  0  0
   -6.2274   -3.3824   -0.4738 H   0  0  0  0  0  0  0  0  0  0  0  0
   -5.3291   -0.7304    0.7559 H   0  0  0  0  0  0  0  0  0  0  0  0
   -4.4937   -3.6274    1.3790 H   0  0  0  0  0  0  0  0  0  0  0  0
   -5.4611   -2.5732    2.4259 H   0  0  0  0  0  0  0  0  0  0  0  0
   -3.7564   -2.2099    2.1166 H   0  0  0  0  0  0  0  0  0  0  0  0
   -3.5641    1.0680    0.2241 H   0  0  0  0  0  0  0  0  0  0  0  0
   -3.3718   -0.0844    1.5448 H   0  0  0  0  0  0  0  0  0  0  0  0
   -0.9293    0.0067    1.3783 H   0  0  0  0  0  0  0  0  0  0  0  0
   -1.5732    1.6187    1.6387 H   0  0  0  0  0  0  0  0  0  0  0  0
   -2.5940    3.2154   -0.6745 H   0  0  0  0  0  0  0  0  0  0  0  0
   -2.0796    5.6225   -0.7749 H   0  0  0  0  0  0  0  0  0  0  0  0
    0.2607    6.4112   -0.5460 H   0  0  0  0  0  0  0  0  0  0  0  0
    2.0877    4.8107   -0.2158 H   0  0  0  0  0  0  0  0  0  0  0  0
    1.3545    1.1418   -0.0277 H   0  0  0  0  0  0  0  0  0  0  0  0
    5.3059    1.8341    1.6736 H   0  0  0  0  0  0  0  0  0  0  0  0
    6.6015   -0.2564    1.9874 H   0  0  0  0  0  0  0  0  0  0  0  0
    2.6822   -0.2279   -1.0756 H   0  0  0  0  0  0  0  0  0  0  0  0
    5.6439   -3.1902   -1.6729 H   0  0  0  0  0  0  0  0  0  0  0  0
    4.4089   -4.4167   -1.3259 H   0  0  0  0  0  0  0  0  0  0  0  0
    6.1859   -4.5201    0.4099 H   0  0  0  0  0  0  0  0  0  0  0  0
    4.6655   -3.9831    1.1518 H   0  0  0  0  0  0  0  0  0  0  0  0
   -0.4839    0.6216   -2.3255 H   0  0  0  0  0  0  0  0  0  0  0  0
   -2.0987    1.2782   -2.0024 H   0  0  0  0  0  0  0  0  0  0  0  0
   -1.0596   -1.4284   -1.0059 H   0  0  0  0  0  0  0  0  0  0  0  0
   -2.1881   -1.1700   -2.3447 H   0  0  0  0  0  0  0  0  0  0  0  0
  1  2  1  0
  2  3  1  0
  2  4  1  0
  4  5  2  0
  4  6  1  0
  6  7  1  0
  7  8  1  0
  8  9  1  0
  9 10  1  0
 10 11  2  0
 11 12  1  0
 12 13  2  0
 13 14  1  0
 14 15  2  0
 15 16  1  0
 16 17  1  0
 17 18  2  0
 17 19  1  0
 19 20  2  0
 20 21  1  0
 21 22  2  0
 22 23  1  0
 23 24  2  0
 23 25  1  0
 25 26  1  0
 26 27  1  0
 27 28  1  0
  9 29  1  0
 29 30  1  0
 30  6  1  0
 15 10  1  0
 24 19  1  0
 28 22  1  0
  1 31  1  0
  1 32  1  0
  1 33  1  0
  2 34  1  0
  3 35  1  0
  3 36  1  0
  3 37  1  0
  7 38  1  0
  7 39  1  0
  8 40  1  0
  8 41  1  0
 11 42  1  0
 12 43  1  0
 13 44  1  0
 14 45  1  0
 16 46  1  0
 20 47  1  0
 21 48  1  0
 24 49  1  0
 26 50  1  0
 26 51  1  0
 27 52  1  0
 27 53  1  0
 29 54  1  0
 29 55  1  0
 30 56  1  0
 30 57  1  0
M  END
$$$$
