
     RDKit          3D

 38 40  0  0  0  0  0  0  0  0999 V2000
   -3.6445   -0.7843   -3.0461 C   0  0  0  0  0  0  0  0  0  0  0  0
   -4.8425   -1.4022   -2.3481 C   0  0  0  0  0  0  0  0  0  0  0  0
   -4.7416   -1.3363   -0.9274 O   0  0  0  0  0  0  0  0  0  0  0  0
   -4.9554   -0.0322   -0.3793 C   0  0  0  0  0  0  0  0  0  0  0  0
   -3.6428    0.5470    0.0331 C   0  0  0  0  0  0  0  0  0  0  0  0
   -3.0933    1.6202   -0.5011 N   0  0  0  0  0  0  0  0  0  0  0  0
   -1.8800    1.9228    0.0824 N   0  0  0  0  0  0  0  0  0  0  0  0
   -1.5642    1.0784    1.0394 C   0  0  0  0  0  0  0  0  0  0  0  0
   -0.4005    1.1904    1.7535 N   0  0  0  0  0  0  0  0  0  0  0  0
    0.0490    0.3630    2.7568 C   0  0  0  0  0  0  0  0  0  0  0  0
   -0.5267   -0.6117    3.2297 O   0  0  0  0  0  0  0  0  0  0  0  0
    1.4057    0.8083    3.3165 C   0  0  0  0  0  0  0  0  0  0  0  0
    2.1756    1.6180    2.4355 O   0  0  0  0  0  0  0  0  0  0  0  0
    2.9050    0.9914    1.4599 C   0  0  0  0  0  0  0  0  0  0  0  0
    3.7283    1.8578    0.7114 C   0  0  0  0  0  0  0  0  0  0  0  0
    4.5246    1.3776   -0.3329 C   0  0  0  0  0  0  0  0  0  0  0  0
    4.4714    0.0298   -0.6038 C   0  0  0  0  0  0  0  0  0  0  0  0
    3.6683   -0.8186    0.1205 C   0  0  0  0  0  0  0  0  0  0  0  0
    2.8716   -0.3725    1.1572 C   0  0  0  0  0  0  0  0  0  0  0  0
    3.7588   -2.1071   -0.3076 O   0  0  0  0  0  0  0  0  0  0  0  0
    4.7073   -1.9701   -1.3864 C   0  0  0  0  0  0  0  0  0  0  0  0
    5.1675   -0.6159   -1.5760 O   0  0  0  0  0  0  0  0  0  0  0  0
   -2.7198   -0.1415    1.3095 S   0  0  0  0  0  0  0  0  0  0  0  0
   -2.7092   -1.1773   -2.6348 H   0  0  0  0  0  0  0  0  0  0  0  0
   -3.6755   -0.9938   -4.1194 H   0  0  0  0  0  0  0  0  0  0  0  0
   -3.6279    0.3017   -2.9168 H   0  0  0  0  0  0  0  0  0  0  0  0
   -4.8895   -2.4649   -2.6086 H   0  0  0  0  0  0  0  0  0  0  0  0
   -5.7804   -0.9471   -2.6859 H   0  0  0  0  0  0  0  0  0  0  0  0
   -5.4747    0.6265   -1.0849 H   0  0  0  0  0  0  0  0  0  0  0  0
   -5.6012   -0.1442    0.4984 H   0  0  0  0  0  0  0  0  0  0  0  0
    0.2015    1.9480    1.4516 H   0  0  0  0  0  0  0  0  0  0  0  0
    1.1885    1.4205    4.1995 H   0  0  0  0  0  0  0  0  0  0  0  0
    1.9753   -0.0593    3.6692 H   0  0  0  0  0  0  0  0  0  0  0  0
    3.7482    2.9194    0.9499 H   0  0  0  0  0  0  0  0  0  0  0  0
    5.1593    2.0410   -0.9090 H   0  0  0  0  0  0  0  0  0  0  0  0
    2.2559   -1.0909    1.6836 H   0  0  0  0  0  0  0  0  0  0  0  0
    5.5730   -2.6084   -1.1751 H   0  0  0  0  0  0  0  0  0  0  0  0
    4.2352   -2.3134   -2.3142 H   0  0  0  0  0  0  0  0  0  0  0  0
  1  2  1  0
  2  3  1  0
  3  4  1  0
  4  5  1  0
  5  6  2  0
  6  7  1  0
  7  8  2  0
  8  9  1  0
  9 10  1  0
 10 11  2  0
 10 12  1  0
 12 13  1  0
 13 14  1  0
 14 15  2  0
 15 16  1  0
 16 17  2  0
 17 18  1  0
 18 19  2  0
 18 20  1  0
 20 21  1  0
 21 22  1  0
  8 23  1  0
 23  5  1  0
 19 14  1  0
 22 17  1  0
  1 24  1  0
  1 25  1  0
  1 26  1  0
  2 27  1  0
  2 28  1  0
  4 29  1  0
  4 30  1  0
  9 31  1  0
 12 32  1  0
 12 33  1  0
 15 34  1  0
 16 35  1  0
 19 36  1  0
 21 37  1  0
 21 38  1  0
M  END
$$$$
