
     RDKit          3D

 60 62  0  0  0  0  0  0  0  0999 V2000
   -8.5765    0.6742   -1.5117 C   0  0  0  0  0  0  0  0  0  0  0  0
   -8.0153    0.5835   -0.0993 C   0  0  0  0  0  0  0  0  0  0  0  0
   -6.5357    0.3019   -0.0919 C   0  0  0  0  0  0  0  0  0  0  0  0
   -5.6164    1.3233    0.1674 C   0  0  0  0  0  0  0  0  0  0  0  0
   -4.2443    1.0564    0.1766 C   0  0  0  0  0  0  0  0  0  0  0  0
   -3.7632   -0.2331   -0.0796 C   0  0  0  0  0  0  0  0  0  0  0  0
   -2.3660   -0.4093   -0.0445 N   0  0  0  0  0  0  0  0  0  0  0  0
   -1.6455   -1.5826   -0.2218 C   0  0  0  0  0  0  0  0  0  0  0  0
   -2.1294   -2.6907   -0.4341 O   0  0  0  0  0  0  0  0  0  0  0  0
   -0.1187   -1.3597   -0.0918 C   0  0  0  0  0  0  0  0  0  0  0  0
    0.1973   -1.0724    1.3263 N   0  0  0  0  0  0  0  0  0  0  0  0
    0.3841    0.5056    1.8385 S   0  0  0  0  0  6  0  0  0  0  0  0
   -0.5109    1.3164    1.0391 O   0  0  0  0  0  0  0  0  0  0  0  0
    0.3222    0.4877    3.2788 O   0  0  0  0  0  0  0  0  0  0  0  0
    2.0570    0.8625    1.3752 C   0  0  0  0  0  0  0  0  0  0  0  0
    3.0945    0.0911    1.9229 C   0  0  0  0  0  0  0  0  0  0  0  0
    4.4284    0.3483    1.5751 C   0  0  0  0  0  0  0  0  0  0  0  0
    4.7076    1.3791    0.6892 C   0  0  0  0  0  0  0  0  0  0  0  0
    3.6589    2.1475    0.1643 C   0  0  0  0  0  0  0  0  0  0  0  0
    2.3295    1.9052    0.4883 C   0  0  0  0  0  0  0  0  0  0  0  0
    4.1587    3.2078   -0.7679 C   0  0  0  0  0  0  0  0  0  0  0  0
    5.6722    3.0363   -0.6529 C   0  0  0  0  0  0  0  0  0  0  0  0
    5.9319    1.8515    0.1797 N   0  0  0  0  0  0  0  0  0  0  0  0
    7.2362    1.4360    0.3458 C   0  0  0  0  0  0  0  0  0  0  0  0
    7.5323    0.2175    1.1736 C   0  0  0  0  0  0  0  0  0  0  0  0
    8.1735    2.0422   -0.1876 O   0  0  0  0  0  0  0  0  0  0  0  0
    0.7801   -2.5222   -0.5733 C   0  0  0  0  0  0  0  0  0  0  0  0
    0.5987   -3.8435    0.1807 C   0  0  0  0  0  0  0  0  0  0  0  0
    0.6388   -2.7471   -2.0810 C   0  0  0  0  0  0  0  0  0  0  0  0
   -4.6782   -1.2505   -0.3483 C   0  0  0  0  0  0  0  0  0  0  0  0
   -6.0534   -0.9845   -0.3524 C   0  0  0  0  0  0  0  0  0  0  0  0
   -9.6391    0.9300   -1.4753 H   0  0  0  0  0  0  0  0  0  0  0  0
   -8.4753   -0.2777   -2.0440 H   0  0  0  0  0  0  0  0  0  0  0  0
   -8.0608    1.4439   -2.0989 H   0  0  0  0  0  0  0  0  0  0  0  0
   -8.5374   -0.2029    0.4615 H   0  0  0  0  0  0  0  0  0  0  0  0
   -8.2198    1.5226    0.4325 H   0  0  0  0  0  0  0  0  0  0  0  0
   -5.9595    2.3354    0.3689 H   0  0  0  0  0  0  0  0  0  0  0  0
   -3.5568    1.8721    0.3908 H   0  0  0  0  0  0  0  0  0  0  0  0
   -1.8266    0.4263    0.1864 H   0  0  0  0  0  0  0  0  0  0  0  0
    0.1366   -0.4901   -0.7104 H   0  0  0  0  0  0  0  0  0  0  0  0
   -0.1718   -1.7078    2.0365 H   0  0  0  0  0  0  0  0  0  0  0  0
    2.8690   -0.7088    2.6273 H   0  0  0  0  0  0  0  0  0  0  0  0
    5.1912   -0.2683    2.0297 H   0  0  0  0  0  0  0  0  0  0  0  0
    1.5358    2.5163    0.0665 H   0  0  0  0  0  0  0  0  0  0  0  0
    3.8463    4.2093   -0.4507 H   0  0  0  0  0  0  0  0  0  0  0  0
    3.8153    3.0210   -1.7919 H   0  0  0  0  0  0  0  0  0  0  0  0
    6.1412    2.9086   -1.6354 H   0  0  0  0  0  0  0  0  0  0  0  0
    6.1361    3.9054   -0.1708 H   0  0  0  0  0  0  0  0  0  0  0  0
    8.6045    0.0062    1.1257 H   0  0  0  0  0  0  0  0  0  0  0  0
    7.2763    0.3984    2.2200 H   0  0  0  0  0  0  0  0  0  0  0  0
    7.0080   -0.6516    0.7708 H   0  0  0  0  0  0  0  0  0  0  0  0
    1.8204   -2.2115   -0.3997 H   0  0  0  0  0  0  0  0  0  0  0  0
    0.6856   -3.7084    1.2636 H   0  0  0  0  0  0  0  0  0  0  0  0
   -0.3668   -4.3145   -0.0293 H   0  0  0  0  0  0  0  0  0  0  0  0
    1.3759   -4.5575   -0.1179 H   0  0  0  0  0  0  0  0  0  0  0  0
   -0.3601   -3.1047   -2.3465 H   0  0  0  0  0  0  0  0  0  0  0  0
    0.8237   -1.8183   -2.6324 H   0  0  0  0  0  0  0  0  0  0  0  0
    1.3651   -3.4884   -2.4316 H   0  0  0  0  0  0  0  0  0  0  0  0
   -4.3602   -2.2660   -0.5589 H   0  0  0  0  0  0  0  0  0  0  0  0
   -6.7453   -1.7975   -0.5606 H   0  0  0  0  0  0  0  0  0  0  0  0
  1  2  1  0
  2  3  1  0
  3  4  2  0
  4  5  1  0
  5  6  2  0
  6  7  1  0
  7  8  1  0
  8  9  2  0
  8 10  1  0
 10 11  1  0
 11 12  1  0
 12 13  2  0
 12 14  2  0
 12 15  1  0
 15 16  2  0
 16 17  1  0
 17 18  2  0
 18 19  1  0
 19 20  2  0
 19 21  1  0
 21 22  1  0
 22 23  1  0
 23 24  1  0
 24 25  1  0
 24 26  2  0
 10 27  1  0
 27 28  1  0
 27 29  1  0
  6 30  1  0
 30 31  2  0
 31  3  1  0
 20 15  1  0
 23 18  1  0
  1 32  1  0
  1 33  1  0
  1 34  1  0
  2 35  1  0
  2 36  1  0
  4 37  1  0
  5 38  1  0
  7 39  1  0
 10 40  1  0
 11 41  1  0
 16 42  1  0
 17 43  1  0
 20 44  1  0
 21 45  1  0
 21 46  1  0
 22 47  1  0
 22 48  1  0
 25 49  1  0
 25 50  1  0
 25 51  1  0
 27 52  1  0
 28 53  1  0
 28 54  1  0
 28 55  1  0
 29 56  1  0
 29 57  1  0
 29 58  1  0
 30 59  1  0
 31 60  1  0
M  END
$$$$
