
     RDKit          3D

 36 39  0  0  0  0  0  0  0  0999 V2000
   -6.2341   -0.5843    1.8530 C   0  0  0  0  0  0  0  0  0  0  0  0
   -5.3553    0.1064    0.8529 C   0  0  0  0  0  0  0  0  0  0  0  0
   -5.1366    1.3099    0.8426 O   0  0  0  0  0  0  0  0  0  0  0  0
   -4.8540   -0.8440   -0.0312 O   0  0  0  0  0  0  0  0  0  0  0  0
   -4.0032   -0.3583   -1.0327 C   0  0  0  0  0  0  0  0  0  0  0  0
   -4.3717   -0.5948   -2.3551 C   0  0  0  0  0  0  0  0  0  0  0  0
   -3.5337   -0.1686   -3.3834 C   0  0  0  0  0  0  0  0  0  0  0  0
   -2.3290    0.4736   -3.0831 C   0  0  0  0  0  0  0  0  0  0  0  0
   -1.9479    0.6830   -1.7509 C   0  0  0  0  0  0  0  0  0  0  0  0
   -0.6822    1.3657   -1.4660 C   0  0  0  0  0  0  0  0  0  0  0  0
    0.3904    0.8185   -0.8767 C   0  0  0  0  0  0  0  0  0  0  0  0
    0.5630   -0.8338   -0.3124 S   0  0  0  0  0  0  0  0  0  0  0  0
    2.1633   -0.4848    0.1944 C   0  0  0  0  0  0  0  0  0  0  0  0
    3.1211   -1.1559    0.7654 N   0  0  0  0  0  0  0  0  0  0  0  0
    4.1179   -0.1919    0.8492 C   0  0  0  0  0  0  0  0  0  0  0  0
    5.5167   -0.5001    1.4763 C   0  0  0  0  0  0  0  0  0  0  0  0
    5.9075   -1.7184    1.9988 C   0  0  0  0  0  0  0  0  0  0  0  0
    7.2381   -1.5581    2.4562 C   0  0  0  0  0  0  0  0  0  0  0  0
    7.5783   -0.2542    2.1857 C   0  0  0  0  0  0  0  0  0  0  0  0
    6.5441    0.3947    1.5929 O   0  0  0  0  0  0  0  0  0  0  0  0
    3.7903    1.0187    0.3529 N   0  0  0  0  0  0  0  0  0  0  0  0
    2.5322    0.7874   -0.0541 N   0  0  0  0  0  0  0  0  0  0  0  0
    1.6266    1.6321   -0.6591 C   0  0  0  0  0  0  0  0  0  0  0  0
    1.8509    2.7956   -0.9377 O   0  0  0  0  0  0  0  0  0  0  0  0
   -2.7931    0.2621   -0.7187 C   0  0  0  0  0  0  0  0  0  0  0  0
   -6.6341    0.1539    2.5540 H   0  0  0  0  0  0  0  0  0  0  0  0
   -5.6505   -1.3175    2.4152 H   0  0  0  0  0  0  0  0  0  0  0  0
   -7.0702   -1.0670    1.3409 H   0  0  0  0  0  0  0  0  0  0  0  0
   -5.3048   -1.1005   -2.5849 H   0  0  0  0  0  0  0  0  0  0  0  0
   -3.8164   -0.3357   -4.4198 H   0  0  0  0  0  0  0  0  0  0  0  0
   -1.6888    0.8030   -3.8991 H   0  0  0  0  0  0  0  0  0  0  0  0
   -0.6493    2.4048   -1.7941 H   0  0  0  0  0  0  0  0  0  0  0  0
    5.2974   -2.6104    2.0402 H   0  0  0  0  0  0  0  0  0  0  0  0
    7.8703   -2.2994    2.9243 H   0  0  0  0  0  0  0  0  0  0  0  0
    8.4697    0.3371    2.3437 H   0  0  0  0  0  0  0  0  0  0  0  0
   -2.5228    0.4255    0.3206 H   0  0  0  0  0  0  0  0  0  0  0  0
  1  2  1  0
  2  3  2  0
  2  4  1  0
  4  5  1  0
  5  6  2  0
  6  7  1  0
  7  8  2  0
  8  9  1  0
  9 10  1  0
 10 11  2  3
 11 12  1  0
 12 13  1  0
 13 14  2  0
 14 15  1  0
 15 16  1  0
 16 17  2  0
 17 18  1  0
 18 19  2  0
 19 20  1  0
 15 21  2  0
 21 22  1  0
 22 23  1  0
 23 24  2  0
  9 25  2  0
 25  5  1  0
 23 11  1  0
 22 13  1  0
 20 16  1  0
  1 26  1  0
  1 27  1  0
  1 28  1  0
  6 29  1  0
  7 30  1  0
  8 31  1  0
 10 32  1  0
 17 33  1  0
 18 34  1  0
 19 35  1  0
 25 36  1  0
M  END
$$$$
