
     RDKit          3D

 36 37  0  0  0  0  0  0  0  0999 V2000
   -0.0050   -3.4696   -1.0102 O   0  0  0  0  0  0  0  0  0  0  0  0
   -0.3164   -2.7894   -0.0362 C   0  0  0  0  0  0  0  0  0  0  0  0
    0.5819   -2.6552    1.1915 C   0  0  0  0  0  0  0  0  0  0  0  0
    1.5982   -1.6743    0.9702 O   0  0  0  0  0  0  0  0  0  0  0  0
    1.2771   -0.3970    1.2773 C   0  0  0  0  0  0  0  0  0  0  0  0
    0.2321   -0.0162    1.7868 O   0  0  0  0  0  0  0  0  0  0  0  0
    2.3861    0.5225    0.9043 C   0  0  0  0  0  0  0  0  0  0  0  0
    3.5230    0.0839    0.2086 C   0  0  0  0  0  0  0  0  0  0  0  0
    4.5293    0.9900   -0.1342 C   0  0  0  0  0  0  0  0  0  0  0  0
    4.4070    2.3347    0.2155 C   0  0  0  0  0  0  0  0  0  0  0  0
    3.2772    2.7710    0.9051 C   0  0  0  0  0  0  0  0  0  0  0  0
    3.1252    4.4315    1.3337 Cl  0  0  0  0  0  0  0  0  0  0  0  0
    2.2676    1.8747    1.2516 C   0  0  0  0  0  0  0  0  0  0  0  0
   -1.4817   -2.0631    0.0359 N   0  0  0  0  0  0  0  0  0  0  0  0
   -2.3841   -1.9414   -1.0979 C   0  0  0  0  0  0  0  0  0  0  0  0
   -3.5330   -0.9576   -0.8286 C   0  0  0  0  0  0  0  0  0  0  0  0
   -3.0781    0.4266   -0.7901 N   0  0  0  0  0  0  0  0  0  0  0  0
   -2.4596    0.9992    0.2943 C   0  0  0  0  0  0  0  0  0  0  0  0
   -2.3292    0.2696    1.4391 O   0  0  0  0  0  0  0  0  0  0  0  0
   -1.9834    2.2307    0.0840 C   0  0  0  0  0  0  0  0  0  0  0  0
   -2.3069    2.7591   -1.5383 S   0  0  0  0  0  0  0  0  0  0  0  0
   -3.0803    1.2107   -1.9342 C   0  0  0  0  0  0  0  0  0  0  0  0
   -3.5007    0.9276   -3.0435 O   0  0  0  0  0  0  0  0  0  0  0  0
    1.0745   -3.6194    1.3582 H   0  0  0  0  0  0  0  0  0  0  0  0
   -0.0057   -2.4402    2.0919 H   0  0  0  0  0  0  0  0  0  0  0  0
    3.6363   -0.9598   -0.0818 H   0  0  0  0  0  0  0  0  0  0  0  0
    5.4061    0.6484   -0.6792 H   0  0  0  0  0  0  0  0  0  0  0  0
    5.1919    3.0366   -0.0555 H   0  0  0  0  0  0  0  0  0  0  0  0
    1.3922    2.2323    1.7904 H   0  0  0  0  0  0  0  0  0  0  0  0
   -1.5720   -1.3684    0.7739 H   0  0  0  0  0  0  0  0  0  0  0  0
   -2.7846   -2.9410   -1.3009 H   0  0  0  0  0  0  0  0  0  0  0  0
   -1.7973   -1.6303   -1.9701 H   0  0  0  0  0  0  0  0  0  0  0  0
   -4.0431   -1.1941    0.1132 H   0  0  0  0  0  0  0  0  0  0  0  0
   -4.2717   -1.0544   -1.6328 H   0  0  0  0  0  0  0  0  0  0  0  0
   -1.5177    0.5826    1.8968 H   0  0  0  0  0  0  0  0  0  0  0  0
   -1.4550    2.8400    0.8019 H   0  0  0  0  0  0  0  0  0  0  0  0
  1  2  2  0
  2  3  1  0
  3  4  1  0
  4  5  1  0
  5  6  2  0
  5  7  1  0
  7  8  2  0
  8  9  1  0
  9 10  2  0
 10 11  1  0
 11 12  1  0
 11 13  2  0
  2 14  1  0
 14 15  1  0
 15 16  1  0
 16 17  1  0
 17 18  1  0
 18 19  1  0
 18 20  2  0
 20 21  1  0
 21 22  1  0
 22 23  2  0
 13  7  1  0
 22 17  1  0
  3 24  1  0
  3 25  1  0
  8 26  1  0
  9 27  1  0
 10 28  1  0
 13 29  1  0
 14 30  1  0
 15 31  1  0
 15 32  1  0
 16 33  1  0
 16 34  1  0
 19 35  1  0
 20 36  1  0
M  END
$$$$
