
     RDKit          3D

 42 44  0  0  0  0  0  0  0  0999 V2000
   -5.4603    0.5735   -1.7346 C   0  0  0  0  0  0  0  0  0  0  0  0
   -5.2583   -0.0365   -0.4657 O   0  0  0  0  0  0  0  0  0  0  0  0
   -4.0971    0.2694    0.1886 C   0  0  0  0  0  0  0  0  0  0  0  0
   -3.9784   -0.3022    1.4604 C   0  0  0  0  0  0  0  0  0  0  0  0
   -2.8421   -0.0794    2.2402 C   0  0  0  0  0  0  0  0  0  0  0  0
   -1.8096    0.7118    1.7319 C   0  0  0  0  0  0  0  0  0  0  0  0
   -0.3628    1.0126    2.7218 S   0  0  0  0  0  6  0  0  0  0  0  0
    0.2351    2.2518    2.2753 O   0  0  0  0  0  0  0  0  0  0  0  0
   -0.7369    0.8227    4.1083 O   0  0  0  0  0  0  0  0  0  0  0  0
    0.6492   -0.2819    2.3374 N   0  0  0  0  0  0  0  0  0  0  0  0
    0.9608   -0.5770    0.9770 C   0  0  0  0  0  0  0  0  0  0  0  0
    1.6145    0.3783    0.1923 C   0  0  0  0  0  0  0  0  0  0  0  0
    1.9008    0.1263   -1.1549 C   0  0  0  0  0  0  0  0  0  0  0  0
    2.6977    1.3948   -2.1241 S   0  0  0  0  0  0  0  0  0  0  0  0
    4.3836    1.1318   -1.7544 C   0  0  0  0  0  0  0  0  0  0  0  0
    4.8499    0.2076   -0.8523 N   0  0  0  0  0  0  0  0  0  0  0  0
    6.1492    0.3818   -0.8891 C   0  0  0  0  0  0  0  0  0  0  0  0
    6.4471    1.3673   -1.7730 N   0  0  0  0  0  0  0  0  0  0  0  0
    5.3383    1.8681   -2.3358 N   0  0  0  0  0  0  0  0  0  0  0  0
    1.5227   -1.1015   -1.7073 C   0  0  0  0  0  0  0  0  0  0  0  0
    1.7741   -1.3600   -3.0273 O   0  0  0  0  0  0  0  0  0  0  0  0
    0.8859   -2.0686   -0.9267 C   0  0  0  0  0  0  0  0  0  0  0  0
    0.5989   -1.8183    0.4251 C   0  0  0  0  0  0  0  0  0  0  0  0
   -0.0830   -2.8839    1.2374 C   0  0  0  0  0  0  0  0  0  0  0  0
   -1.9258    1.3072    0.4726 C   0  0  0  0  0  0  0  0  0  0  0  0
   -3.0673    1.0767   -0.3014 C   0  0  0  0  0  0  0  0  0  0  0  0
   -6.4340    0.2455   -2.1113 H   0  0  0  0  0  0  0  0  0  0  0  0
   -4.6992    0.2498   -2.4528 H   0  0  0  0  0  0  0  0  0  0  0  0
   -5.4868    1.6648   -1.6477 H   0  0  0  0  0  0  0  0  0  0  0  0
   -4.7851   -0.9209    1.8478 H   0  0  0  0  0  0  0  0  0  0  0  0
   -2.7748   -0.5213    3.2314 H   0  0  0  0  0  0  0  0  0  0  0  0
    0.5604   -1.0510    2.9973 H   0  0  0  0  0  0  0  0  0  0  0  0
    1.9207    1.3244    0.6335 H   0  0  0  0  0  0  0  0  0  0  0  0
    6.8941   -0.1557   -0.3191 H   0  0  0  0  0  0  0  0  0  0  0  0
    7.3502    1.7449   -2.0325 H   0  0  0  0  0  0  0  0  0  0  0  0
    1.4963   -2.2642   -3.2404 H   0  0  0  0  0  0  0  0  0  0  0  0
    0.6021   -3.0199   -1.3685 H   0  0  0  0  0  0  0  0  0  0  0  0
    0.5794   -3.2299    2.0377 H   0  0  0  0  0  0  0  0  0  0  0  0
   -0.3444   -3.7542    0.6255 H   0  0  0  0  0  0  0  0  0  0  0  0
   -1.0105   -2.5018    1.6728 H   0  0  0  0  0  0  0  0  0  0  0  0
   -1.1342    1.9462    0.0840 H   0  0  0  0  0  0  0  0  0  0  0  0
   -3.1201    1.5435   -1.2793 H   0  0  0  0  0  0  0  0  0  0  0  0
  1  2  1  0
  2  3  1  0
  3  4  2  0
  4  5  1  0
  5  6  2  0
  6  7  1  0
  7  8  2  0
  7  9  2  0
  7 10  1  0
 10 11  1  0
 11 12  2  0
 12 13  1  0
 13 14  1  0
 14 15  1  0
 15 16  1  0
 16 17  2  0
 17 18  1  0
 18 19  1  0
 13 20  2  0
 20 21  1  0
 20 22  1  0
 22 23  2  0
 23 24  1  0
  6 25  1  0
 25 26  2  0
 26  3  1  0
 23 11  1  0
 19 15  2  0
  1 27  1  0
  1 28  1  0
  1 29  1  0
  4 30  1  0
  5 31  1  0
 10 32  1  0
 12 33  1  0
 17 34  1  0
 18 35  1  0
 21 36  1  0
 22 37  1  0
 24 38  1  0
 24 39  1  0
 24 40  1  0
 25 41  1  0
 26 42  1  0
M  END
$$$$
