
     RDKit          3D

 34 36  0  0  0  0  0  0  0  0999 V2000
    5.2054    0.5803   -1.8754 C   0  0  0  0  0  0  0  0  0  0  0  0
    4.6213    0.6653   -0.5582 N   0  0  0  0  0  0  0  0  0  0  0  0
    5.2661    0.9497    0.6052 C   0  0  0  0  0  0  0  0  0  0  0  0
    4.2966    0.9205    1.5746 C   0  0  0  0  0  0  0  0  0  0  0  0
    4.5680    1.2395    3.3985 Br  0  0  0  0  0  0  0  0  0  0  0  0
    3.0813    0.6091    0.9188 C   0  0  0  0  0  0  0  0  0  0  0  0
    1.7218    0.4536    1.4784 C   0  0  0  0  0  0  0  0  0  0  0  0
    1.4996    0.5726    2.6772 O   0  0  0  0  0  0  0  0  0  0  0  0
    0.8019    0.1643    0.4860 N   0  0  0  0  0  0  0  0  0  0  0  0
   -0.5629   -0.0351    0.6038 C   0  0  0  0  0  0  0  0  0  0  0  0
   -1.3405    0.0844    2.1272 S   0  0  0  0  0  0  0  0  0  0  0  0
   -2.8205   -0.2260    1.4329 C   0  0  0  0  0  0  0  0  0  0  0  0
   -2.7730   -0.4354    0.0828 C   0  0  0  0  0  0  0  0  0  0  0  0
   -1.4457   -0.3452   -0.4380 C   0  0  0  0  0  0  0  0  0  0  0  0
   -0.9989   -0.5124   -1.8189 C   0  0  0  0  0  0  0  0  0  0  0  0
   -1.8769   -1.1102   -2.6775 N   0  0  0  0  0  0  0  0  0  0  0  0
    0.1150   -0.1839   -2.2170 O   0  0  0  0  0  0  0  0  0  0  0  0
   -4.1417   -0.6757   -0.4493 C   0  0  0  0  0  0  0  0  0  0  0  0
   -5.0524   -0.2256    0.7348 C   0  0  0  0  0  0  0  0  0  0  0  0
   -4.1776   -0.2956    2.0205 C   0  0  0  0  0  0  0  0  0  0  0  0
    3.3021    0.4491   -0.4084 N   0  0  0  0  0  0  0  0  0  0  0  0
    4.7218    1.3229   -2.5150 H   0  0  0  0  0  0  0  0  0  0  0  0
    5.0383   -0.4283   -2.2615 H   0  0  0  0  0  0  0  0  0  0  0  0
    6.2773    0.7833   -1.8119 H   0  0  0  0  0  0  0  0  0  0  0  0
    6.3280    1.1454    0.6477 H   0  0  0  0  0  0  0  0  0  0  0  0
    1.1954    0.1118   -0.4581 H   0  0  0  0  0  0  0  0  0  0  0  0
   -1.5003   -1.3539   -3.5835 H   0  0  0  0  0  0  0  0  0  0  0  0
   -2.6482   -1.6579   -2.3303 H   0  0  0  0  0  0  0  0  0  0  0  0
   -4.3563   -0.0941   -1.3501 H   0  0  0  0  0  0  0  0  0  0  0  0
   -4.2903   -1.7407   -0.6564 H   0  0  0  0  0  0  0  0  0  0  0  0
   -5.9609   -0.8304    0.8146 H   0  0  0  0  0  0  0  0  0  0  0  0
   -5.3624    0.8149    0.5698 H   0  0  0  0  0  0  0  0  0  0  0  0
   -4.3293   -1.2483    2.5380 H   0  0  0  0  0  0  0  0  0  0  0  0
   -4.4020    0.5321    2.6987 H   0  0  0  0  0  0  0  0  0  0  0  0
  1  2  1  0
  2  3  1  0
  3  4  2  0
  4  5  1  0
  4  6  1  0
  6  7  1  0
  7  8  2  0
  7  9  1  0
  9 10  1  0
 10 11  1  0
 11 12  1  0
 12 13  2  0
 13 14  1  0
 14 15  1  0
 15 16  1  0
 15 17  2  0
 13 18  1  0
 18 19  1  0
 19 20  1  0
  6 21  2  0
 21  2  1  0
 14 10  2  0
 20 12  1  0
  1 22  1  0
  1 23  1  0
  1 24  1  0
  3 25  1  0
  9 26  1  0
 16 27  1  0
 16 28  1  0
 18 29  1  0
 18 30  1  0
 19 31  1  0
 19 32  1  0
 20 33  1  0
 20 34  1  0
M  END
$$$$
