
     RDKit          3D

 53 58  0  0  0  0  0  0  0  0999 V2000
   -0.7365   -0.9504   -2.0032 O   0  0  0  0  0  0  0  0  0  0  0  0
   -1.3794   -0.7227   -0.9758 C   0  0  0  0  0  0  0  0  0  0  0  0
   -0.8795   -1.1687    0.4060 C   0  0  0  0  0  0  0  0  0  0  0  0
    0.5718   -0.9594    0.5477 N   0  0  0  0  0  4  0  0  0  0  0  0
    1.2099   -0.0428    1.3817 C   0  0  0  0  0  0  0  0  0  0  0  0
    2.5832   -0.1284    1.1790 C   0  0  0  0  0  0  0  0  0  0  0  0
    3.6879    0.7628    1.8612 C   0  0  0  0  0  0  0  0  0  0  0  0
    5.0203    0.6908    1.4453 C   0  0  0  0  0  0  0  0  0  0  0  0
    5.9882    1.5099    2.0403 C   0  0  0  0  0  0  0  0  0  0  0  0
    5.6359    2.3970    3.0641 C   0  0  0  0  0  0  0  0  0  0  0  0
    6.8837    3.3735    3.7511 Cl  0  0  0  0  0  0  0  0  0  0  0  0
    4.3056    2.4648    3.4864 C   0  0  0  0  0  0  0  0  0  0  0  0
    3.7849    3.5218    4.7475 Cl  0  0  0  0  0  0  0  0  0  0  0  0
    3.3317    1.6564    2.8796 C   0  0  0  0  0  0  0  0  0  0  0  0
    2.7045   -1.1472    0.2511 N   0  0  0  0  0  0  0  0  0  0  0  0
    1.5159   -1.6117   -0.1290 C   0  0  0  0  0  0  0  0  0  0  0  0
    1.6130   -2.7163   -1.1120 C   0  0  0  0  0  0  0  0  0  0  0  0
    3.0927   -3.1248   -0.9829 C   0  0  0  0  0  0  0  0  0  0  0  0
    3.7938   -1.8705   -0.3950 C   0  0  0  0  0  0  0  0  0  0  0  0
   -2.6096   -0.0684   -0.9278 N   0  0  0  0  0  0  0  0  0  0  0  0
   -2.6589    1.2957   -0.4717 C   0  0  0  0  0  0  0  0  0  0  0  0
   -1.4533    2.0334   -0.3783 C   0  0  0  0  0  0  0  0  0  0  0  0
   -1.4305    3.3635    0.0590 C   0  0  0  0  0  0  0  0  0  0  0  0
   -2.6167    3.9920    0.4094 C   0  0  0  0  0  0  0  0  0  0  0  0
   -3.8193    3.2907    0.3140 C   0  0  0  0  0  0  0  0  0  0  0  0
   -3.8501    1.9529   -0.1305 C   0  0  0  0  0  0  0  0  0  0  0  0
   -5.4361    1.1701   -0.1733 S   0  0  0  0  0  0  0  0  0  0  0  0
   -5.0883   -0.2503   -1.1720 C   0  0  0  0  0  0  0  0  0  0  0  0
   -6.2075   -0.9507   -1.6589 C   0  0  0  0  0  0  0  0  0  0  0  0
   -6.0558   -2.1200   -2.3956 C   0  0  0  0  0  0  0  0  0  0  0  0
   -4.7831   -2.6030   -2.6513 C   0  0  0  0  0  0  0  0  0  0  0  0
   -3.6658   -1.9165   -2.1673 C   0  0  0  0  0  0  0  0  0  0  0  0
   -3.7901   -0.7227   -1.4243 C   0  0  0  0  0  0  0  0  0  0  0  0
   -1.3973   -0.6406    1.2120 H   0  0  0  0  0  0  0  0  0  0  0  0
   -1.0817   -2.2401    0.5144 H   0  0  0  0  0  0  0  0  0  0  0  0
    0.5984    0.5884    1.9998 H   0  0  0  0  0  0  0  0  0  0  0  0
    5.3386    0.0169    0.6543 H   0  0  0  0  0  0  0  0  0  0  0  0
    7.0233    1.4590    1.6967 H   0  0  0  0  0  0  0  0  0  0  0  0
    2.3102    1.7317    3.2342 H   0  0  0  0  0  0  0  0  0  0  0  0
    1.3965   -2.2935   -2.0924 H   0  0  0  0  0  0  0  0  0  0  0  0
    0.9137   -3.5045   -0.8361 H   0  0  0  0  0  0  0  0  0  0  0  0
    3.5315   -3.4556   -1.9273 H   0  0  0  0  0  0  0  0  0  0  0  0
    3.1748   -3.9478   -0.2624 H   0  0  0  0  0  0  0  0  0  0  0  0
    4.2123   -1.2449   -1.1900 H   0  0  0  0  0  0  0  0  0  0  0  0
    4.5642   -2.1507    0.3276 H   0  0  0  0  0  0  0  0  0  0  0  0
   -0.4999    1.6105   -0.6957 H   0  0  0  0  0  0  0  0  0  0  0  0
   -0.4933    3.9172    0.1018 H   0  0  0  0  0  0  0  0  0  0  0  0
   -2.6144    5.0300    0.7427 H   0  0  0  0  0  0  0  0  0  0  0  0
   -4.7440    3.8046    0.5845 H   0  0  0  0  0  0  0  0  0  0  0  0
   -7.2159   -0.5909   -1.4573 H   0  0  0  0  0  0  0  0  0  0  0  0
   -6.9321   -2.6462   -2.7672 H   0  0  0  0  0  0  0  0  0  0  0  0
   -4.6517   -3.5112   -3.2339 H   0  0  0  0  0  0  0  0  0  0  0  0
   -2.6958   -2.3331   -2.4267 H   0  0  0  0  0  0  0  0  0  0  0  0
  1  2  2  0
  2  3  1  0
  3  4  1  0
  4  5  1  0
  5  6  2  0
  6  7  1  0
  7  8  2  0
  8  9  1  0
  9 10  2  0
 10 11  1  0
 10 12  1  0
 12 13  1  0
 12 14  2  0
  6 15  1  0
 15 16  1  0
 16 17  1  0
 17 18  1  0
 18 19  1  0
  2 20  1  0
 20 21  1  0
 21 22  2  0
 22 23  1  0
 23 24  2  0
 24 25  1  0
 25 26  2  0
 26 27  1  0
 27 28  1  0
 28 29  2  0
 29 30  1  0
 30 31  2  0
 31 32  1  0
 32 33  2  0
 16  4  2  0
 33 20  1  0
 14  7  1  0
 19 15  1  0
 26 21  1  0
 33 28  1  0
  3 34  1  0
  3 35  1  0
  5 36  1  0
  8 37  1  0
  9 38  1  0
 14 39  1  0
 17 40  1  0
 17 41  1  0
 18 42  1  0
 18 43  1  0
 19 44  1  0
 19 45  1  0
 22 46  1  0
 23 47  1  0
 24 48  1  0
 25 49  1  0
 29 50  1  0
 30 51  1  0
 31 52  1  0
 32 53  1  0
M  CHG  1   4   1
M  END
$$$$
