
     RDKit          3D

 60 62  0  0  0  0  0  0  0  0999 V2000
   -3.3979    2.7234   -3.7427 C   0  0  0  0  0  0  0  0  0  0  0  0
   -3.0866    2.6603   -2.2759 C   0  0  0  0  0  0  0  0  0  0  0  0
   -1.7597    2.5817   -1.8492 C   0  0  0  0  0  0  0  0  0  0  0  0
   -1.4636    2.5064   -0.4901 C   0  0  0  0  0  0  0  0  0  0  0  0
   -2.4949    2.4832    0.4629 C   0  0  0  0  0  0  0  0  0  0  0  0
   -2.0072    2.3773    2.1823 S   0  0  0  0  0  6  0  0  0  0  0  0
   -3.0327    2.9880    3.0016 O   0  0  0  0  0  0  0  0  0  0  0  0
   -0.6316    2.8204    2.2870 O   0  0  0  0  0  0  0  0  0  0  0  0
   -2.0724    0.7173    2.5038 N   0  0  0  0  0  0  0  0  0  0  0  0
   -1.3129   -0.1805    1.6888 C   0  0  0  0  0  0  0  0  0  0  0  0
    0.0780   -0.1398    1.8166 C   0  0  0  0  0  0  0  0  0  0  0  0
    0.9016   -0.9268    1.0075 C   0  0  0  0  0  0  0  0  0  0  0  0
    2.4134   -0.8307    1.1690 C   0  0  0  0  0  0  0  0  0  0  0  0
    3.1710   -0.4300   -0.0800 C   0  0  0  0  0  0  0  0  0  0  0  0
    2.6822    0.0833   -1.0774 O   0  0  0  0  0  0  0  0  0  0  0  0
    4.5120   -0.6108    0.1128 O   0  0  0  0  0  0  0  0  0  0  0  0
    5.3765   -0.1784   -0.9566 C   0  0  0  0  0  0  0  0  0  0  0  0
    5.4531   -1.2571   -2.0297 C   0  0  0  0  0  0  0  0  0  0  0  0
    6.7491    0.0721   -0.3446 C   0  0  0  0  0  0  0  0  0  0  0  0
    2.9825   -2.0081    1.9286 C   0  0  0  0  0  0  0  0  0  0  0  0
    3.0494   -1.9517    3.1668 O   0  0  0  0  0  0  0  0  0  0  0  0
    3.3567   -3.2718    1.1688 C   0  0  0  0  0  0  0  0  0  0  0  0
    2.3529   -4.1965    1.1813 F   0  0  0  0  0  0  0  0  0  0  0  0
    3.6908   -3.0815   -0.1356 F   0  0  0  0  0  0  0  0  0  0  0  0
    4.4359   -3.8953    1.7263 F   0  0  0  0  0  0  0  0  0  0  0  0
    0.2915   -1.7825    0.0826 C   0  0  0  0  0  0  0  0  0  0  0  0
    1.1570   -2.5549   -0.6453 O   0  0  0  0  0  0  0  0  0  0  0  0
   -1.1184   -1.8524   -0.0827 C   0  0  0  0  0  0  0  0  0  0  0  0
   -1.7568   -2.6841   -1.0379 C   0  0  0  0  0  0  0  0  0  0  0  0
   -3.1457   -2.7256   -1.1732 C   0  0  0  0  0  0  0  0  0  0  0  0
   -3.9387   -1.9359   -0.3599 C   0  0  0  0  0  0  0  0  0  0  0  0
   -3.3412   -1.1037    0.5846 C   0  0  0  0  0  0  0  0  0  0  0  0
   -1.9352   -1.0353    0.7443 C   0  0  0  0  0  0  0  0  0  0  0  0
   -3.8409    2.5561    0.0553 C   0  0  0  0  0  0  0  0  0  0  0  0
   -5.0045    2.5666    1.0049 C   0  0  0  0  0  0  0  0  0  0  0  0
   -4.1144    2.6459   -1.3226 C   0  0  0  0  0  0  0  0  0  0  0  0
   -3.2399    1.7406   -4.2015 H   0  0  0  0  0  0  0  0  0  0  0  0
   -4.4364    3.0239   -3.9197 H   0  0  0  0  0  0  0  0  0  0  0  0
   -2.7552    3.4593   -4.2373 H   0  0  0  0  0  0  0  0  0  0  0  0
   -0.9472    2.5831   -2.5710 H   0  0  0  0  0  0  0  0  0  0  0  0
   -0.4203    2.4545   -0.1836 H   0  0  0  0  0  0  0  0  0  0  0  0
   -2.9787    0.4162    2.8541 H   0  0  0  0  0  0  0  0  0  0  0  0
    0.5208    0.5197    2.5620 H   0  0  0  0  0  0  0  0  0  0  0  0
    2.6026    0.0348    1.8263 H   0  0  0  0  0  0  0  0  0  0  0  0
    5.0110    0.7627   -1.3837 H   0  0  0  0  0  0  0  0  0  0  0  0
    6.1453   -0.9728   -2.8277 H   0  0  0  0  0  0  0  0  0  0  0  0
    4.4694   -1.4362   -2.4749 H   0  0  0  0  0  0  0  0  0  0  0  0
    5.7816   -2.2108   -1.6025 H   0  0  0  0  0  0  0  0  0  0  0  0
    6.6811    0.8297    0.4422 H   0  0  0  0  0  0  0  0  0  0  0  0
    7.4655    0.4153   -1.0983 H   0  0  0  0  0  0  0  0  0  0  0  0
    7.1412   -0.8355    0.1267 H   0  0  0  0  0  0  0  0  0  0  0  0
    0.6737   -3.1980   -1.1837 H   0  0  0  0  0  0  0  0  0  0  0  0
   -1.1894   -3.3143   -1.7158 H   0  0  0  0  0  0  0  0  0  0  0  0
   -3.6028   -3.3719   -1.9183 H   0  0  0  0  0  0  0  0  0  0  0  0
   -5.0208   -1.9585   -0.4613 H   0  0  0  0  0  0  0  0  0  0  0  0
   -4.0026   -0.4976    1.1958 H   0  0  0  0  0  0  0  0  0  0  0  0
   -4.9331    1.7458    1.7247 H   0  0  0  0  0  0  0  0  0  0  0  0
   -5.0624    3.5248    1.5283 H   0  0  0  0  0  0  0  0  0  0  0  0
   -5.9530    2.4282    0.4723 H   0  0  0  0  0  0  0  0  0  0  0  0
   -5.1488    2.7083   -1.6622 H   0  0  0  0  0  0  0  0  0  0  0  0
  1  2  1  0
  2  3  2  0
  3  4  1  0
  4  5  2  0
  5  6  1  0
  6  7  2  0
  6  8  2  0
  6  9  1  0
  9 10  1  0
 10 11  2  0
 11 12  1  0
 12 13  1  0
 13 14  1  0
 14 15  2  0
 14 16  1  0
 16 17  1  0
 17 18  1  0
 17 19  1  0
 13 20  1  0
 20 21  2  0
 20 22  1  0
 22 23  1  0
 22 24  1  0
 22 25  1  0
 12 26  2  0
 26 27  1  0
 26 28  1  0
 28 29  2  0
 29 30  1  0
 30 31  2  0
 31 32  1  0
 32 33  2  0
  5 34  1  0
 34 35  1  0
 34 36  2  0
 36  2  1  0
 33 10  1  0
 33 28  1  0
  1 37  1  0
  1 38  1  0
  1 39  1  0
  3 40  1  0
  4 41  1  0
  9 42  1  0
 11 43  1  0
 13 44  1  0
 17 45  1  0
 18 46  1  0
 18 47  1  0
 18 48  1  0
 19 49  1  0
 19 50  1  0
 19 51  1  0
 27 52  1  0
 29 53  1  0
 30 54  1  0
 31 55  1  0
 32 56  1  0
 35 57  1  0
 35 58  1  0
 35 59  1  0
 36 60  1  0
M  END
$$$$
