
     RDKit          3D

 51 54  0  0  0  0  0  0  0  0999 V2000
   -3.5515   -4.3620    2.3185 C   0  0  0  0  0  0  0  0  0  0  0  0
   -2.2834   -4.4170    1.6780 O   0  0  0  0  0  0  0  0  0  0  0  0
   -1.7510   -3.2368    1.2364 C   0  0  0  0  0  0  0  0  0  0  0  0
   -2.3108   -1.9778    1.4359 C   0  0  0  0  0  0  0  0  0  0  0  0
   -1.6826   -0.8289    0.9167 C   0  0  0  0  0  0  0  0  0  0  0  0
   -2.2927    0.4878    1.1623 C   0  0  0  0  0  0  0  0  0  0  0  0
   -3.3076    0.5517    1.8543 O   0  0  0  0  0  0  0  0  0  0  0  0
   -1.6541    1.5857    0.6095 N   0  0  0  0  0  0  0  0  0  0  0  0
   -2.2737    2.8896    0.7972 C   0  0  0  0  0  0  0  0  0  0  0  0
   -3.0616    3.2412   -0.4183 C   0  0  0  0  0  0  0  0  0  0  0  0
   -2.7674    3.9533   -1.5640 C   0  0  0  0  0  0  0  0  0  0  0  0
   -3.9384    3.9341   -2.3585 C   0  0  0  0  0  0  0  0  0  0  0  0
   -4.8712    3.2144   -1.6488 C   0  0  0  0  0  0  0  0  0  0  0  0
   -4.3485    2.7898   -0.4706 O   0  0  0  0  0  0  0  0  0  0  0  0
   -0.4563    1.5386   -0.0846 C   0  0  0  0  0  0  0  0  0  0  0  0
    0.1130    2.5630   -0.4734 O   0  0  0  0  0  0  0  0  0  0  0  0
    0.0834    0.2803   -0.3330 N   0  0  0  0  0  0  0  0  0  0  0  0
    1.3471    0.2442   -1.0746 C   0  0  0  0  0  0  0  0  0  0  0  0
    2.5460    0.2939   -0.1275 C   0  0  0  0  0  0  0  0  0  0  0  0
    2.5095   -0.1659    1.0146 O   0  0  0  0  0  0  0  0  0  0  0  0
    3.8264    0.8861   -0.6198 C   0  0  0  0  0  0  0  0  0  0  0  0
    4.0953    1.0642   -1.9838 C   0  0  0  0  0  0  0  0  0  0  0  0
    5.3092    1.6261   -2.3920 C   0  0  0  0  0  0  0  0  0  0  0  0
    6.2610    2.0052   -1.4441 C   0  0  0  0  0  0  0  0  0  0  0  0
    5.9992    1.8161   -0.0883 C   0  0  0  0  0  0  0  0  0  0  0  0
    7.2924    2.3233    1.1956 Br  0  0  0  0  0  0  0  0  0  0  0  0
    4.7917    1.2573    0.3289 C   0  0  0  0  0  0  0  0  0  0  0  0
   -0.4996   -0.9091    0.1835 C   0  0  0  0  0  0  0  0  0  0  0  0
    0.0670   -2.1762   -0.0007 C   0  0  0  0  0  0  0  0  0  0  0  0
   -0.5422   -3.3168    0.5364 C   0  0  0  0  0  0  0  0  0  0  0  0
    0.0587   -4.5256    0.2844 O   0  0  0  0  0  0  0  0  0  0  0  0
    0.8246   -4.9430    1.4134 C   0  0  0  0  0  0  0  0  0  0  0  0
   -3.8437   -5.3873    2.5661 H   0  0  0  0  0  0  0  0  0  0  0  0
   -4.3162   -3.9495    1.6510 H   0  0  0  0  0  0  0  0  0  0  0  0
   -3.4950   -3.7962    3.2549 H   0  0  0  0  0  0  0  0  0  0  0  0
   -3.2357   -1.8537    1.9928 H   0  0  0  0  0  0  0  0  0  0  0  0
   -2.9262    2.8918    1.6764 H   0  0  0  0  0  0  0  0  0  0  0  0
   -1.5026    3.6480    0.9720 H   0  0  0  0  0  0  0  0  0  0  0  0
   -1.8181    4.4204   -1.7936 H   0  0  0  0  0  0  0  0  0  0  0  0
   -4.0854    4.3870   -3.3286 H   0  0  0  0  0  0  0  0  0  0  0  0
   -5.8980    2.9285   -1.8321 H   0  0  0  0  0  0  0  0  0  0  0  0
    1.4060   -0.6414   -1.7127 H   0  0  0  0  0  0  0  0  0  0  0  0
    1.3785    1.1096   -1.7450 H   0  0  0  0  0  0  0  0  0  0  0  0
    3.3853    0.7689   -2.7526 H   0  0  0  0  0  0  0  0  0  0  0  0
    5.5148    1.7685   -3.4512 H   0  0  0  0  0  0  0  0  0  0  0  0
    7.2000    2.4448   -1.7714 H   0  0  0  0  0  0  0  0  0  0  0  0
    4.5948    1.1146    1.3905 H   0  0  0  0  0  0  0  0  0  0  0  0
    0.9958   -2.3251   -0.5389 H   0  0  0  0  0  0  0  0  0  0  0  0
    1.1398   -5.9753    1.2418 H   0  0  0  0  0  0  0  0  0  0  0  0
    1.7243   -4.3250    1.5068 H   0  0  0  0  0  0  0  0  0  0  0  0
    0.2496   -4.9156    2.3432 H   0  0  0  0  0  0  0  0  0  0  0  0
  1  2  1  0
  2  3  1  0
  3  4  2  0
  4  5  1  0
  5  6  1  0
  6  7  2  0
  6  8  1  0
  8  9  1  0
  9 10  1  0
 10 11  2  0
 11 12  1  0
 12 13  2  0
 13 14  1  0
  8 15  1  0
 15 16  2  0
 15 17  1  0
 17 18  1  0
 18 19  1  0
 19 20  2  0
 19 21  1  0
 21 22  2  0
 22 23  1  0
 23 24  2  0
 24 25  1  0
 25 26  1  0
 25 27  2  0
 17 28  1  0
 28 29  1  0
 29 30  2  0
 30 31  1  0
 31 32  1  0
 30  3  1  0
 28  5  2  0
 14 10  1  0
 27 21  1  0
  1 33  1  0
  1 34  1  0
  1 35  1  0
  4 36  1  0
  9 37  1  0
  9 38  1  0
 11 39  1  0
 12 40  1  0
 13 41  1  0
 18 42  1  0
 18 43  1  0
 22 44  1  0
 23 45  1  0
 24 46  1  0
 27 47  1  0
 29 48  1  0
 32 49  1  0
 32 50  1  0
 32 51  1  0
M  END
$$$$
