
     RDKit          3D

 51 54  0  0  0  0  0  0  0  0999 V2000
   -6.4426   -1.4578    1.2639 C   0  0  0  0  0  0  0  0  0  0  0  0
   -6.5322    0.0615    1.3216 C   0  0  0  0  0  0  0  0  0  0  0  0
   -5.7959    0.6948    0.2175 N   0  0  0  0  0  0  0  0  0  0  0  0
   -6.6092    1.3110   -0.8411 C   0  0  0  0  0  0  0  0  0  0  0  0
   -6.9916    0.2991   -1.9103 C   0  0  0  0  0  0  0  0  0  0  0  0
   -4.4050    0.7250    0.1750 C   0  0  0  0  0  0  0  0  0  0  0  0
   -3.6131    0.4146    1.2988 C   0  0  0  0  0  0  0  0  0  0  0  0
   -2.2080    0.4430    1.2717 C   0  0  0  0  0  0  0  0  0  0  0  0
   -1.5425    0.7862    0.1028 C   0  0  0  0  0  0  0  0  0  0  0  0
   -0.0952    0.8448    0.0124 C   0  0  0  0  0  0  0  0  0  0  0  0
    0.5093    1.1837   -1.1395 C   0  0  0  0  0  0  0  0  0  0  0  0
    1.9384    1.2263   -1.1588 C   0  0  0  0  0  0  0  0  0  0  0  0
    2.7377    0.3738   -0.5375 N   0  0  0  0  0  0  0  0  0  0  0  0
    4.0757    0.6946   -0.7236 C   0  0  0  0  0  0  0  0  0  0  0  0
    5.1333   -0.1357   -0.1496 C   0  0  0  0  0  0  0  0  0  0  0  0
    4.8131   -1.0641    0.8497 C   0  0  0  0  0  0  0  0  0  0  0  0
    5.8016   -1.8722    1.4207 C   0  0  0  0  0  0  0  0  0  0  0  0
    7.1290   -1.7749    1.0033 C   0  0  0  0  0  0  0  0  0  0  0  0
    7.9938   -2.6198    1.6412 O   0  0  0  0  0  0  0  0  0  0  0  0
    9.3567   -2.5696    1.2391 C   0  0  0  0  0  0  0  0  0  0  0  0
    7.4591   -0.8606    0.0045 C   0  0  0  0  0  0  0  0  0  0  0  0
    6.4686   -0.0488   -0.5683 C   0  0  0  0  0  0  0  0  0  0  0  0
    4.2846    1.8466   -1.4519 C   0  0  0  0  0  0  0  0  0  0  0  0
    2.7890    2.5301   -1.9236 S   0  0  0  0  0  0  0  0  0  0  0  0
   -0.2887    1.4557   -2.3661 C   0  0  0  0  0  0  0  0  0  0  0  0
    0.2167    1.6817   -3.4606 O   0  0  0  0  0  0  0  0  0  0  0  0
   -1.6765    1.4343   -2.2273 O   0  0  0  0  0  0  0  0  0  0  0  0
   -2.2996    1.0925   -1.0130 C   0  0  0  0  0  0  0  0  0  0  0  0
   -3.6977    1.0669   -0.9895 C   0  0  0  0  0  0  0  0  0  0  0  0
   -6.8255   -1.8419    0.3136 H   0  0  0  0  0  0  0  0  0  0  0  0
   -5.4140   -1.8131    1.3740 H   0  0  0  0  0  0  0  0  0  0  0  0
   -7.0366   -1.8994    2.0704 H   0  0  0  0  0  0  0  0  0  0  0  0
   -7.5938    0.3343    1.2718 H   0  0  0  0  0  0  0  0  0  0  0  0
   -6.1906    0.4372    2.2924 H   0  0  0  0  0  0  0  0  0  0  0  0
   -6.1034    2.1732   -1.2907 H   0  0  0  0  0  0  0  0  0  0  0  0
   -7.5271    1.7279   -0.4077 H   0  0  0  0  0  0  0  0  0  0  0  0
   -7.5534    0.7910   -2.7106 H   0  0  0  0  0  0  0  0  0  0  0  0
   -7.6250   -0.4912   -1.4957 H   0  0  0  0  0  0  0  0  0  0  0  0
   -6.1117   -0.1763   -2.3539 H   0  0  0  0  0  0  0  0  0  0  0  0
   -4.0732    0.1488    2.2460 H   0  0  0  0  0  0  0  0  0  0  0  0
   -1.6581    0.1957    2.1764 H   0  0  0  0  0  0  0  0  0  0  0  0
    0.4788    0.6170    0.9068 H   0  0  0  0  0  0  0  0  0  0  0  0
    3.7862   -1.1672    1.1949 H   0  0  0  0  0  0  0  0  0  0  0  0
    5.5303   -2.5847    2.1958 H   0  0  0  0  0  0  0  0  0  0  0  0
    9.9085   -3.3024    1.8358 H   0  0  0  0  0  0  0  0  0  0  0  0
    9.7906   -1.5840    1.4377 H   0  0  0  0  0  0  0  0  0  0  0  0
    9.4682   -2.8463    0.1855 H   0  0  0  0  0  0  0  0  0  0  0  0
    8.4761   -0.7536   -0.3580 H   0  0  0  0  0  0  0  0  0  0  0  0
    6.7671    0.6387   -1.3549 H   0  0  0  0  0  0  0  0  0  0  0  0
    5.2108    2.3315   -1.7212 H   0  0  0  0  0  0  0  0  0  0  0  0
   -4.2130    1.3018   -1.9147 H   0  0  0  0  0  0  0  0  0  0  0  0
  1  2  1  0
  2  3  1  0
  3  4  1  0
  4  5  1  0
  3  6  1  0
  6  7  2  0
  7  8  1  0
  8  9  2  0
  9 10  1  0
 10 11  2  0
 11 12  1  0
 12 13  2  0
 13 14  1  0
 14 15  1  0
 15 16  2  0
 16 17  1  0
 17 18  2  0
 18 19  1  0
 19 20  1  0
 18 21  1  0
 21 22  2  0
 14 23  2  0
 23 24  1  0
 11 25  1  0
 25 26  2  0
 25 27  1  0
 27 28  1  0
 28 29  2  0
 29  6  1  0
 28  9  1  0
 24 12  1  0
 22 15  1  0
  1 30  1  0
  1 31  1  0
  1 32  1  0
  2 33  1  0
  2 34  1  0
  4 35  1  0
  4 36  1  0
  5 37  1  0
  5 38  1  0
  5 39  1  0
  7 40  1  0
  8 41  1  0
 10 42  1  0
 16 43  1  0
 17 44  1  0
 20 45  1  0
 20 46  1  0
 20 47  1  0
 21 48  1  0
 22 49  1  0
 23 50  1  0
 29 51  1  0
M  END
$$$$
