
     RDKit          3D

 44 46  0  0  0  0  0  0  0  0999 V2000
    7.6761   -2.9829    1.4767 C   0  0  0  0  0  0  0  0  0  0  0  0
    6.4877   -2.4634    0.7222 C   0  0  0  0  0  0  0  0  0  0  0  0
    5.3667   -1.9813    1.4093 C   0  0  0  0  0  0  0  0  0  0  0  0
    4.2695   -1.4692    0.7096 C   0  0  0  0  0  0  0  0  0  0  0  0
    4.2915   -1.4178   -0.6893 C   0  0  0  0  0  0  0  0  0  0  0  0
    3.1503   -0.8830   -1.4834 C   0  0  0  0  0  0  0  0  0  0  0  0
    2.9810   -1.2320   -2.6464 O   0  0  0  0  0  0  0  0  0  0  0  0
    2.3372    0.0326   -0.8572 N   0  0  0  0  0  0  0  0  0  0  0  0
    1.2472    0.6701   -1.5777 C   0  0  0  0  0  0  0  0  0  0  0  0
    0.5204    1.6492   -0.6714 C   0  0  0  0  0  0  0  0  0  0  0  0
    0.8910    1.9493    0.4591 O   0  0  0  0  0  0  0  0  0  0  0  0
   -0.5733    2.1510   -1.3017 O   0  0  0  0  0  0  0  0  0  0  0  0
   -1.3592    3.0718   -0.5272 C   0  0  0  0  0  0  0  0  0  0  0  0
   -2.3579    2.3724    0.3391 C   0  0  0  0  0  0  0  0  0  0  0  0
   -2.1888    2.0104    1.6602 C   0  0  0  0  0  0  0  0  0  0  0  0
   -3.5905    1.2236    2.2391 S   0  0  0  0  0  0  0  0  0  0  0  0
   -4.3443    1.4114    0.6979 C   0  0  0  0  0  0  0  0  0  0  0  0
   -5.7090    0.9139    0.4200 C   0  0  0  0  0  0  0  0  0  0  0  0
   -6.5492    0.3570    1.3990 C   0  0  0  0  0  0  0  0  0  0  0  0
   -7.8332   -0.0964    1.0750 C   0  0  0  0  0  0  0  0  0  0  0  0
   -8.3012   -0.0005   -0.2326 C   0  0  0  0  0  0  0  0  0  0  0  0
   -7.4879    0.5492   -1.2183 C   0  0  0  0  0  0  0  0  0  0  0  0
   -6.2059    1.0017   -0.8931 C   0  0  0  0  0  0  0  0  0  0  0  0
   -3.5899    2.0256   -0.1969 N   0  0  0  0  0  0  0  0  0  0  0  0
    5.4103   -1.9003   -1.3783 C   0  0  0  0  0  0  0  0  0  0  0  0
    6.5052   -2.4106   -0.6764 C   0  0  0  0  0  0  0  0  0  0  0  0
    7.3685   -3.4406    2.4228 H   0  0  0  0  0  0  0  0  0  0  0  0
    8.1997   -3.7521    0.8994 H   0  0  0  0  0  0  0  0  0  0  0  0
    8.3711   -2.1647    1.6887 H   0  0  0  0  0  0  0  0  0  0  0  0
    5.3370   -2.0111    2.4968 H   0  0  0  0  0  0  0  0  0  0  0  0
    3.4017   -1.1395    1.2731 H   0  0  0  0  0  0  0  0  0  0  0  0
    2.6119    0.4493    0.0256 H   0  0  0  0  0  0  0  0  0  0  0  0
    0.5575   -0.1093   -1.9151 H   0  0  0  0  0  0  0  0  0  0  0  0
    1.6641    1.2070   -2.4350 H   0  0  0  0  0  0  0  0  0  0  0  0
   -1.8910    3.7089   -1.2431 H   0  0  0  0  0  0  0  0  0  0  0  0
   -0.7187    3.7421    0.0593 H   0  0  0  0  0  0  0  0  0  0  0  0
   -1.3234    2.1612    2.2908 H   0  0  0  0  0  0  0  0  0  0  0  0
   -6.2284    0.2651    2.4333 H   0  0  0  0  0  0  0  0  0  0  0  0
   -8.4672   -0.5243    1.8478 H   0  0  0  0  0  0  0  0  0  0  0  0
   -9.2983   -0.3532   -0.4827 H   0  0  0  0  0  0  0  0  0  0  0  0
   -7.8463    0.6277   -2.2414 H   0  0  0  0  0  0  0  0  0  0  0  0
   -5.5856    1.4282   -1.6806 H   0  0  0  0  0  0  0  0  0  0  0  0
    5.4342   -1.8759   -2.4661 H   0  0  0  0  0  0  0  0  0  0  0  0
    7.3694   -2.7706   -1.2308 H   0  0  0  0  0  0  0  0  0  0  0  0
  1  2  1  0
  2  3  2  0
  3  4  1  0
  4  5  2  0
  5  6  1  0
  6  7  2  0
  6  8  1  0
  8  9  1  0
  9 10  1  0
 10 11  2  0
 10 12  1  0
 12 13  1  0
 13 14  1  0
 14 15  2  0
 15 16  1  0
 16 17  1  0
 17 18  1  0
 18 19  2  0
 19 20  1  0
 20 21  2  0
 21 22  1  0
 22 23  2  0
 17 24  2  0
  5 25  1  0
 25 26  2  0
 26  2  1  0
 24 14  1  0
 23 18  1  0
  1 27  1  0
  1 28  1  0
  1 29  1  0
  3 30  1  0
  4 31  1  0
  8 32  1  0
  9 33  1  0
  9 34  1  0
 13 35  1  0
 13 36  1  0
 15 37  1  0
 19 38  1  0
 20 39  1  0
 21 40  1  0
 22 41  1  0
 23 42  1  0
 25 43  1  0
 26 44  1  0
M  END
$$$$
