
     RDKit          3D

 34 35  0  0  0  0  0  0  0  0999 V2000
   -2.9290    0.7147    1.9867 C   0  0  0  0  0  0  0  0  0  0  0  0
   -3.4408    0.2731    0.6415 C   0  0  0  0  0  0  0  0  0  0  0  0
   -4.8131   -0.0098    0.5134 C   0  0  0  0  0  0  0  0  0  0  0  0
   -5.3477   -0.4204   -0.7052 C   0  0  0  0  0  0  0  0  0  0  0  0
   -4.5151   -0.5657   -1.8072 C   0  0  0  0  0  0  0  0  0  0  0  0
   -3.1497   -0.2913   -1.6946 C   0  0  0  0  0  0  0  0  0  0  0  0
   -2.5982    0.1493   -0.4859 C   0  0  0  0  0  0  0  0  0  0  0  0
   -1.2112    0.3965   -0.3352 N   0  0  0  0  0  0  0  0  0  0  0  0
   -0.2549    0.7524   -1.2548 C   0  0  0  0  0  0  0  0  0  0  0  0
   -0.4575    1.4079   -2.7772 S   0  0  0  0  0  0  0  0  0  0  0  0
    1.0376    0.5787   -0.8337 N   0  0  0  0  0  0  0  0  0  0  0  0
    1.4931   -0.2496    0.2665 C   0  0  0  0  0  0  0  0  0  0  0  0
    2.9953   -0.2942    0.3218 C   0  0  0  0  0  0  0  0  0  0  0  0
    3.6978   -1.3637   -0.2506 C   0  0  0  0  0  0  0  0  0  0  0  0
    5.0930   -1.3909   -0.2191 C   0  0  0  0  0  0  0  0  0  0  0  0
    5.7986   -0.3470    0.3764 C   0  0  0  0  0  0  0  0  0  0  0  0
    5.1110    0.7275    0.9374 C   0  0  0  0  0  0  0  0  0  0  0  0
    3.7160    0.7566    0.9073 C   0  0  0  0  0  0  0  0  0  0  0  0
   -2.2226   -0.0213    2.3837 H   0  0  0  0  0  0  0  0  0  0  0  0
   -3.7408    0.8183    2.7147 H   0  0  0  0  0  0  0  0  0  0  0  0
   -2.4388    1.6905    1.9066 H   0  0  0  0  0  0  0  0  0  0  0  0
   -5.4784    0.0909    1.3685 H   0  0  0  0  0  0  0  0  0  0  0  0
   -6.4096   -0.6343   -0.7917 H   0  0  0  0  0  0  0  0  0  0  0  0
   -4.9210   -0.9027   -2.7576 H   0  0  0  0  0  0  0  0  0  0  0  0
   -2.5315   -0.4693   -2.5681 H   0  0  0  0  0  0  0  0  0  0  0  0
   -0.9072    0.5308    0.6166 H   0  0  0  0  0  0  0  0  0  0  0  0
    1.7257    0.7967   -1.5474 H   0  0  0  0  0  0  0  0  0  0  0  0
    1.0957    0.1524    1.2053 H   0  0  0  0  0  0  0  0  0  0  0  0
    1.0719   -1.2541    0.1425 H   0  0  0  0  0  0  0  0  0  0  0  0
    3.1623   -2.1819   -0.7279 H   0  0  0  0  0  0  0  0  0  0  0  0
    5.6302   -2.2251   -0.6633 H   0  0  0  0  0  0  0  0  0  0  0  0
    6.8851   -0.3681    0.3981 H   0  0  0  0  0  0  0  0  0  0  0  0
    5.6618    1.5456    1.3943 H   0  0  0  0  0  0  0  0  0  0  0  0
    3.1924    1.6075    1.3383 H   0  0  0  0  0  0  0  0  0  0  0  0
  1  2  1  0
  2  3  2  0
  3  4  1  0
  4  5  2  0
  5  6  1  0
  6  7  2  0
  7  8  1  0
  8  9  1  0
  9 10  2  0
  9 11  1  0
 11 12  1  0
 12 13  1  0
 13 14  2  0
 14 15  1  0
 15 16  2  0
 16 17  1  0
 17 18  2  0
  7  2  1  0
 18 13  1  0
  1 19  1  0
  1 20  1  0
  1 21  1  0
  3 22  1  0
  4 23  1  0
  5 24  1  0
  6 25  1  0
  8 26  1  0
 11 27  1  0
 12 28  1  0
 12 29  1  0
 14 30  1  0
 15 31  1  0
 16 32  1  0
 17 33  1  0
 18 34  1  0
M  END
$$$$
