
     RDKit          3D

 60 63  0  0  0  0  0  0  0  0999 V2000
    3.2335    3.5092   -1.5194 C   0  0  0  0  0  0  0  0  0  0  0  0
    4.3220    2.4714   -1.3158 C   0  0  0  0  0  0  0  0  0  0  0  0
    4.7643    2.5555    0.0448 O   0  0  0  0  0  0  0  0  0  0  0  0
    5.6241    1.5324    0.3416 C   0  0  0  0  0  0  0  0  0  0  0  0
    6.9718    1.6907    0.0039 C   0  0  0  0  0  0  0  0  0  0  0  0
    7.9062    0.7235    0.3743 C   0  0  0  0  0  0  0  0  0  0  0  0
    7.5011   -0.3940    1.1030 C   0  0  0  0  0  0  0  0  0  0  0  0
    6.1599   -0.5460    1.4619 C   0  0  0  0  0  0  0  0  0  0  0  0
    5.2142    0.4156    1.0792 C   0  0  0  0  0  0  0  0  0  0  0  0
    3.8165    0.1796    1.4973 C   0  0  0  0  0  0  0  0  0  0  0  0
    2.7980    0.6656    0.8627 N   0  0  0  0  0  0  0  0  0  0  0  0
    1.5782    0.3467    1.3785 N   0  0  0  0  0  0  0  0  0  0  0  0
    0.4112    0.7736    0.7606 C   0  0  0  0  0  0  0  0  0  0  0  0
    0.3577    1.4154   -0.2833 O   0  0  0  0  0  0  0  0  0  0  0  0
   -0.7818    0.3725    1.5046 C   0  0  0  0  0  0  0  0  0  0  0  0
   -0.6874   -0.2425    2.7247 N   0  0  0  0  0  0  0  0  0  0  0  0
   -1.9076   -0.4548    3.1755 N   0  0  0  0  0  0  0  0  0  0  0  0
   -2.8117    0.0715    2.2942 N   0  0  0  0  0  0  0  0  0  0  0  0
   -4.1901    0.1240    2.6303 C   0  0  0  0  0  0  0  0  0  0  0  0
   -5.0717    0.7697    1.8687 N   0  0  0  0  0  0  0  0  0  0  0  0
   -6.2823    0.6218    2.5409 O   0  0  0  0  0  0  0  0  0  0  0  0
   -6.1208   -0.1026    3.7158 N   0  0  0  0  0  0  0  0  0  0  0  0
   -4.8259   -0.4106    3.7690 C   0  0  0  0  0  0  0  0  0  0  0  0
   -4.2580   -1.1217    4.7631 N   0  0  0  0  0  0  0  0  0  0  0  0
   -2.1225    0.5069    1.1597 C   0  0  0  0  0  0  0  0  0  0  0  0
   -2.7446    1.0297   -0.0925 C   0  0  0  0  0  0  0  0  0  0  0  0
   -2.9820    0.0330   -1.1481 N   0  0  0  0  0  0  0  0  0  0  0  0
   -3.9171   -1.0322   -0.7925 C   0  0  0  0  0  0  0  0  0  0  0  0
   -4.2803   -1.8919   -2.0061 C   0  0  0  0  0  0  0  0  0  0  0  0
   -3.0306   -2.4575   -2.6856 C   0  0  0  0  0  0  0  0  0  0  0  0
   -3.3983   -3.2451   -3.9399 C   0  0  0  0  0  0  0  0  0  0  0  0
   -2.0701   -1.3123   -3.0169 C   0  0  0  0  0  0  0  0  0  0  0  0
   -1.7583   -0.4679   -1.7784 C   0  0  0  0  0  0  0  0  0  0  0  0
    2.3985    3.3330   -0.8341 H   0  0  0  0  0  0  0  0  0  0  0  0
    3.6141    4.5135   -1.3047 H   0  0  0  0  0  0  0  0  0  0  0  0
    2.8593    3.4856   -2.5468 H   0  0  0  0  0  0  0  0  0  0  0  0
    3.9264    1.4731   -1.5421 H   0  0  0  0  0  0  0  0  0  0  0  0
    5.1572    2.6865   -1.9942 H   0  0  0  0  0  0  0  0  0  0  0  0
    7.2954    2.5785   -0.5334 H   0  0  0  0  0  0  0  0  0  0  0  0
    8.9521    0.8498    0.1060 H   0  0  0  0  0  0  0  0  0  0  0  0
    8.2318   -1.1440    1.3965 H   0  0  0  0  0  0  0  0  0  0  0  0
    5.8628   -1.4233    2.0309 H   0  0  0  0  0  0  0  0  0  0  0  0
    3.6804   -0.4811    2.3732 H   0  0  0  0  0  0  0  0  0  0  0  0
    1.5101   -0.1643    2.2534 H   0  0  0  0  0  0  0  0  0  0  0  0
   -4.7766   -1.2412    5.6278 H   0  0  0  0  0  0  0  0  0  0  0  0
   -3.2458   -1.1265    4.8821 H   0  0  0  0  0  0  0  0  0  0  0  0
   -2.1107    1.8260   -0.5027 H   0  0  0  0  0  0  0  0  0  0  0  0
   -3.6802    1.5564    0.1095 H   0  0  0  0  0  0  0  0  0  0  0  0
   -4.8483   -0.6028   -0.4106 H   0  0  0  0  0  0  0  0  0  0  0  0
   -3.5004   -1.6778   -0.0101 H   0  0  0  0  0  0  0  0  0  0  0  0
   -4.8531   -1.2860   -2.7209 H   0  0  0  0  0  0  0  0  0  0  0  0
   -4.9370   -2.7103   -1.6872 H   0  0  0  0  0  0  0  0  0  0  0  0
   -2.5314   -3.1422   -1.9873 H   0  0  0  0  0  0  0  0  0  0  0  0
   -3.9052   -2.6109   -4.6749 H   0  0  0  0  0  0  0  0  0  0  0  0
   -4.0665   -4.0767   -3.6933 H   0  0  0  0  0  0  0  0  0  0  0  0
   -2.5033   -3.6621   -4.4125 H   0  0  0  0  0  0  0  0  0  0  0  0
   -1.1357   -1.7133   -3.4266 H   0  0  0  0  0  0  0  0  0  0  0  0
   -2.5059   -0.6699   -3.7931 H   0  0  0  0  0  0  0  0  0  0  0  0
   -1.1343    0.3708   -2.1057 H   0  0  0  0  0  0  0  0  0  0  0  0
   -1.1710   -1.0701   -1.0750 H   0  0  0  0  0  0  0  0  0  0  0  0
  1  2  1  0
  2  3  1  0
  3  4  1  0
  4  5  2  0
  5  6  1  0
  6  7  2  0
  7  8  1  0
  8  9  2  0
  9 10  1  0
 10 11  2  3
 11 12  1  0
 12 13  1  0
 13 14  2  0
 13 15  1  0
 15 16  1  0
 16 17  2  0
 17 18  1  0
 18 19  1  0
 19 20  2  0
 20 21  1  0
 21 22  1  0
 22 23  2  0
 23 24  1  0
 18 25  1  0
 25 26  1  0
 26 27  1  0
 27 28  1  0
 28 29  1  0
 29 30  1  0
 30 31  1  0
 30 32  1  0
 32 33  1  0
  9  4  1  0
 25 15  2  0
 33 27  1  0
 23 19  1  0
  1 34  1  0
  1 35  1  0
  1 36  1  0
  2 37  1  0
  2 38  1  0
  5 39  1  0
  6 40  1  0
  7 41  1  0
  8 42  1  0
 10 43  1  0
 12 44  1  0
 24 45  1  0
 24 46  1  0
 26 47  1  0
 26 48  1  0
 28 49  1  0
 28 50  1  0
 29 51  1  0
 29 52  1  0
 30 53  1  0
 31 54  1  0
 31 55  1  0
 31 56  1  0
 32 57  1  0
 32 58  1  0
 33 59  1  0
 33 60  1  0
M  END
$$$$
