
     RDKit          3D

 46 49  0  0  0  0  0  0  0  0999 V2000
    4.4122    0.8658    0.1458 O   0  0  0  0  0  0  0  0  0  0  0  0
    3.3792    1.4778    0.4138 C   0  0  0  0  0  0  0  0  0  0  0  0
    2.9321    2.6590   -0.4372 C   0  0  0  0  0  0  0  0  0  0  0  0
    1.8217    2.1097   -1.7702 S   0  0  0  0  0  0  0  0  0  0  0  0
    0.3870    1.7713   -0.8691 C   0  0  0  0  0  0  0  0  0  0  0  0
    0.1414    2.2108    0.3427 N   0  0  0  0  0  0  0  0  0  0  0  0
   -1.0303    1.6488    0.7598 N   0  0  0  0  0  0  0  0  0  0  0  0
   -1.5085    0.9018   -0.2220 C   0  0  0  0  0  0  0  0  0  0  0  0
   -2.7742    0.1061   -0.1565 C   0  0  0  0  0  0  0  0  0  0  0  0
   -3.8375    0.5441   -1.1241 C   0  0  0  0  0  0  0  0  0  0  0  0
   -4.4649   -0.2111   -2.0980 C   0  0  0  0  0  0  0  0  0  0  0  0
   -5.4319    0.5394   -2.8273 C   0  0  0  0  0  0  0  0  0  0  0  0
   -5.5276    1.8352   -2.3741 C   0  0  0  0  0  0  0  0  0  0  0  0
   -4.4570    2.1426   -1.0788 S   0  0  0  0  0  0  0  0  0  0  0  0
   -0.6224    0.9446   -1.2806 N   0  0  0  0  0  0  0  0  0  0  0  0
   -0.7250    0.2396   -2.5442 C   0  0  0  0  0  0  0  0  0  0  0  0
   -0.2884   -1.1709   -2.3907 C   0  0  0  0  0  0  0  0  0  0  0  0
    0.9436   -1.7778   -2.2485 C   0  0  0  0  0  0  0  0  0  0  0  0
    0.6935   -3.1669   -2.1392 C   0  0  0  0  0  0  0  0  0  0  0  0
   -0.6703   -3.3194   -2.2246 C   0  0  0  0  0  0  0  0  0  0  0  0
   -1.2753   -2.1144   -2.3816 O   0  0  0  0  0  0  0  0  0  0  0  0
    2.5113    1.1933    1.4547 N   0  0  0  0  0  0  0  0  0  0  0  0
    2.6518    0.2073    2.4516 C   0  0  0  0  0  0  0  0  0  0  0  0
    3.8219   -0.5256    2.6626 C   0  0  0  0  0  0  0  0  0  0  0  0
    3.8901   -1.4737    3.6896 C   0  0  0  0  0  0  0  0  0  0  0  0
    2.7874   -1.6962    4.5123 C   0  0  0  0  0  0  0  0  0  0  0  0
    1.6189   -0.9682    4.3021 C   0  0  0  0  0  0  0  0  0  0  0  0
    0.2513   -1.2457    5.3096 Cl  0  0  0  0  0  0  0  0  0  0  0  0
    1.5469   -0.0199    3.2822 C   0  0  0  0  0  0  0  0  0  0  0  0
    3.8218    3.1081   -0.8884 H   0  0  0  0  0  0  0  0  0  0  0  0
    2.4635    3.4330    0.1808 H   0  0  0  0  0  0  0  0  0  0  0  0
   -2.5407   -0.9543   -0.3028 H   0  0  0  0  0  0  0  0  0  0  0  0
   -3.1826    0.1811    0.8599 H   0  0  0  0  0  0  0  0  0  0  0  0
   -4.2334   -1.2524   -2.2925 H   0  0  0  0  0  0  0  0  0  0  0  0
   -6.0324    0.1466   -3.6386 H   0  0  0  0  0  0  0  0  0  0  0  0
   -6.1777    2.6209   -2.7337 H   0  0  0  0  0  0  0  0  0  0  0  0
   -0.1164    0.7505   -3.2943 H   0  0  0  0  0  0  0  0  0  0  0  0
   -1.7573    0.3076   -2.8959 H   0  0  0  0  0  0  0  0  0  0  0  0
    1.9050   -1.2817   -2.2186 H   0  0  0  0  0  0  0  0  0  0  0  0
    1.4174   -3.9603   -2.0113 H   0  0  0  0  0  0  0  0  0  0  0  0
   -1.3309   -4.1762   -2.1927 H   0  0  0  0  0  0  0  0  0  0  0  0
    1.6034    1.6624    1.4253 H   0  0  0  0  0  0  0  0  0  0  0  0
    4.7062   -0.3711    2.0520 H   0  0  0  0  0  0  0  0  0  0  0  0
    4.8070   -2.0300    3.8466 H   0  0  0  0  0  0  0  0  0  0  0  0
    2.8457   -2.4320    5.3093 H   0  0  0  0  0  0  0  0  0  0  0  0
    0.6244    0.5402    3.1365 H   0  0  0  0  0  0  0  0  0  0  0  0
  1  2  2  0
  2  3  1  0
  3  4  1  0
  4  5  1  0
  5  6  2  0
  6  7  1  0
  7  8  2  0
  8  9  1  0
  9 10  1  0
 10 11  2  0
 11 12  1  0
 12 13  2  0
 13 14  1  0
  8 15  1  0
 15 16  1  0
 16 17  1  0
 17 18  2  0
 18 19  1  0
 19 20  2  0
 20 21  1  0
  2 22  1  0
 22 23  1  0
 23 24  2  0
 24 25  1  0
 25 26  2  0
 26 27  1  0
 27 28  1  0
 27 29  2  0
 15  5  1  0
 21 17  1  0
 29 23  1  0
 14 10  1  0
  3 30  1  0
  3 31  1  0
  9 32  1  0
  9 33  1  0
 11 34  1  0
 12 35  1  0
 13 36  1  0
 16 37  1  0
 16 38  1  0
 18 39  1  0
 19 40  1  0
 20 41  1  0
 22 42  1  0
 24 43  1  0
 25 44  1  0
 26 45  1  0
 29 46  1  0
M  END
$$$$
