
     RDKit          3D

 61 63  0  0  0  0  0  0  0  0999 V2000
   -9.5933    0.4532    1.7037 C   0  0  0  0  0  0  0  0  0  0  0  0
   -8.5629    1.2142    1.0856 O   0  0  0  0  0  0  0  0  0  0  0  0
   -7.2754    0.8902    1.4129 C   0  0  0  0  0  0  0  0  0  0  0  0
   -6.8791   -0.1278    2.2801 C   0  0  0  0  0  0  0  0  0  0  0  0
   -5.5200   -0.3519    2.5297 C   0  0  0  0  0  0  0  0  0  0  0  0
   -4.5405    0.4439    1.9214 C   0  0  0  0  0  0  0  0  0  0  0  0
   -3.0763    0.1958    2.1755 C   0  0  0  0  0  0  0  0  0  0  0  0
   -2.5310   -0.7128    1.2030 N   0  0  0  0  0  0  0  0  0  0  0  0
   -1.8723   -0.2835    0.0773 C   0  0  0  0  0  0  0  0  0  0  0  0
   -1.5819    0.8734   -0.2038 O   0  0  0  0  0  0  0  0  0  0  0  0
   -1.5084   -1.4280   -0.8992 C   0  0  0  0  0  0  0  0  0  0  0  0
   -1.8259   -2.5845   -0.6581 O   0  0  0  0  0  0  0  0  0  0  0  0
   -0.8039   -1.0018   -2.0024 N   0  0  0  0  0  0  0  0  0  0  0  0
   -0.1603   -1.9411   -2.8944 C   0  0  0  0  0  0  0  0  0  0  0  0
    1.1169   -2.5958   -2.3278 C   0  0  0  0  0  0  0  0  0  0  0  0
    1.7104   -3.3859   -3.3777 O   0  0  0  0  0  0  0  0  0  0  0  0
    3.1224   -3.2545   -3.2204 C   0  0  0  0  0  0  0  0  0  0  0  0
    3.2953   -1.8102   -2.8156 C   0  0  0  0  0  0  0  0  0  0  0  0
    2.1195   -1.5532   -1.9554 N   0  0  0  0  0  0  0  0  0  0  0  0
    2.4204   -1.4787   -0.2872 S   0  0  0  0  0  6  0  0  0  0  0  0
    3.2865   -2.5902    0.0466 O   0  0  0  0  0  0  0  0  0  0  0  0
    1.1689   -1.2667    0.4047 O   0  0  0  0  0  0  0  0  0  0  0  0
    3.3536    0.0249   -0.1420 C   0  0  0  0  0  0  0  0  0  0  0  0
    2.7036    1.2429   -0.3529 C   0  0  0  0  0  0  0  0  0  0  0  0
    3.4263    2.4298   -0.2460 C   0  0  0  0  0  0  0  0  0  0  0  0
    4.7855    2.3949    0.0883 C   0  0  0  0  0  0  0  0  0  0  0  0
    5.5470    3.5354    0.1689 O   0  0  0  0  0  0  0  0  0  0  0  0
    4.9184    4.6100    0.8595 C   0  0  0  0  0  0  0  0  0  0  0  0
    5.4391    1.1639    0.2981 C   0  0  0  0  0  0  0  0  0  0  0  0
    6.7751    1.2348    0.6039 O   0  0  0  0  0  0  0  0  0  0  0  0
    7.4376    0.0270    0.9538 C   0  0  0  0  0  0  0  0  0  0  0  0
    4.7125   -0.0242    0.1896 C   0  0  0  0  0  0  0  0  0  0  0  0
   -4.9444    1.4544    1.0410 C   0  0  0  0  0  0  0  0  0  0  0  0
   -6.3009    1.6760    0.7949 C   0  0  0  0  0  0  0  0  0  0  0  0
  -10.5525    0.8337    1.3393 H   0  0  0  0  0  0  0  0  0  0  0  0
   -9.5264   -0.6047    1.4255 H   0  0  0  0  0  0  0  0  0  0  0  0
   -9.5774    0.5790    2.7922 H   0  0  0  0  0  0  0  0  0  0  0  0
   -7.6002   -0.7681    2.7768 H   0  0  0  0  0  0  0  0  0  0  0  0
   -5.2321   -1.1549    3.2057 H   0  0  0  0  0  0  0  0  0  0  0  0
   -2.9312   -0.2512    3.1657 H   0  0  0  0  0  0  0  0  0  0  0  0
   -2.5236    1.1425    2.1645 H   0  0  0  0  0  0  0  0  0  0  0  0
   -2.7662   -1.7001    1.2399 H   0  0  0  0  0  0  0  0  0  0  0  0
   -0.4803   -0.0396   -1.9678 H   0  0  0  0  0  0  0  0  0  0  0  0
   -0.8794   -2.7244   -3.1629 H   0  0  0  0  0  0  0  0  0  0  0  0
    0.0724   -1.3962   -3.8170 H   0  0  0  0  0  0  0  0  0  0  0  0
    0.8820   -3.2645   -1.4924 H   0  0  0  0  0  0  0  0  0  0  0  0
    3.6312   -3.4965   -4.1568 H   0  0  0  0  0  0  0  0  0  0  0  0
    3.4554   -3.9469   -2.4404 H   0  0  0  0  0  0  0  0  0  0  0  0
    4.2602   -1.6276   -2.3398 H   0  0  0  0  0  0  0  0  0  0  0  0
    3.2170   -1.1478   -3.6849 H   0  0  0  0  0  0  0  0  0  0  0  0
    1.6428    1.2744   -0.5989 H   0  0  0  0  0  0  0  0  0  0  0  0
    2.9203    3.3700   -0.4426 H   0  0  0  0  0  0  0  0  0  0  0  0
    4.4197    4.2698    1.7725 H   0  0  0  0  0  0  0  0  0  0  0  0
    4.2174    5.1357    0.2053 H   0  0  0  0  0  0  0  0  0  0  0  0
    5.6966    5.3215    1.1500 H   0  0  0  0  0  0  0  0  0  0  0  0
    6.9652   -0.4513    1.8186 H   0  0  0  0  0  0  0  0  0  0  0  0
    7.4837   -0.6565    0.0988 H   0  0  0  0  0  0  0  0  0  0  0  0
    8.4641    0.2788    1.2355 H   0  0  0  0  0  0  0  0  0  0  0  0
    5.1818   -0.9889    0.3527 H   0  0  0  0  0  0  0  0  0  0  0  0
   -4.2026    2.0731    0.5394 H   0  0  0  0  0  0  0  0  0  0  0  0
   -6.6003    2.4671    0.1127 H   0  0  0  0  0  0  0  0  0  0  0  0
  1  2  1  0
  2  3  1  0
  3  4  2  0
  4  5  1  0
  5  6  2  0
  6  7  1  0
  7  8  1  0
  8  9  1  0
  9 10  2  0
  9 11  1  0
 11 12  2  0
 11 13  1  0
 13 14  1  0
 14 15  1  0
 15 16  1  0
 16 17  1  0
 17 18  1  0
 18 19  1  0
 19 20  1  0
 20 21  2  0
 20 22  2  0
 20 23  1  0
 23 24  2  0
 24 25  1  0
 25 26  2  0
 26 27  1  0
 27 28  1  0
 26 29  1  0
 29 30  1  0
 30 31  1  0
 29 32  2  0
  6 33  1  0
 33 34  2  0
 34  3  1  0
 19 15  1  0
 32 23  1  0
  1 35  1  0
  1 36  1  0
  1 37  1  0
  4 38  1  0
  5 39  1  0
  7 40  1  0
  7 41  1  0
  8 42  1  0
 13 43  1  0
 14 44  1  0
 14 45  1  0
 15 46  1  0
 17 47  1  0
 17 48  1  0
 18 49  1  0
 18 50  1  0
 24 51  1  0
 25 52  1  0
 28 53  1  0
 28 54  1  0
 28 55  1  0
 31 56  1  0
 31 57  1  0
 31 58  1  0
 32 59  1  0
 33 60  1  0
 34 61  1  0
M  END
$$$$
