
     RDKit          3D

 57 60  0  0  0  0  0  0  0  0999 V2000
   -8.2003    1.7445    1.7425 C   0  0  0  0  0  0  0  0  0  0  0  0
   -7.7471    0.5549    1.1068 O   0  0  0  0  0  0  0  0  0  0  0  0
   -6.5189    0.6063    0.5044 C   0  0  0  0  0  0  0  0  0  0  0  0
   -5.7075    1.7347    0.3911 C   0  0  0  0  0  0  0  0  0  0  0  0
   -4.4654    1.6509   -0.2506 C   0  0  0  0  0  0  0  0  0  0  0  0
   -4.0272    0.4387   -0.7816 C   0  0  0  0  0  0  0  0  0  0  0  0
   -2.7858    0.2658   -1.4319 N   0  0  0  0  0  0  0  0  0  0  0  0
   -1.7893    1.1993   -1.6514 C   0  0  0  0  0  0  0  0  0  0  0  0
   -1.8296    2.3883   -1.3443 O   0  0  0  0  0  0  0  0  0  0  0  0
   -0.5781    0.6203   -2.3578 C   0  0  0  0  0  0  0  0  0  0  0  0
    0.4559    0.2242   -1.4140 N   0  0  0  0  0  0  0  0  0  0  0  0
    1.4222    1.0729   -0.9413 C   0  0  0  0  0  0  0  0  0  0  0  0
    2.2225    0.3624   -0.0711 C   0  0  0  0  0  0  0  0  0  0  0  0
    3.6055    0.9813    0.7715 S   0  0  0  0  0  6  0  0  0  0  0  0
    3.4600    0.4691    2.1201 O   0  0  0  0  0  0  0  0  0  0  0  0
    3.6012    2.4001    0.4681 O   0  0  0  0  0  0  0  0  0  0  0  0
    4.9645    0.1726   -0.0657 C   0  0  0  0  0  0  0  0  0  0  0  0
    6.2663    0.6766    0.5003 C   0  0  0  0  0  0  0  0  0  0  0  0
    6.8185    0.0935    1.6503 C   0  0  0  0  0  0  0  0  0  0  0  0
    8.0221    0.5671    2.1744 C   0  0  0  0  0  0  0  0  0  0  0  0
    8.6853    1.6264    1.5571 C   0  0  0  0  0  0  0  0  0  0  0  0
    8.1432    2.2171    0.4176 C   0  0  0  0  0  0  0  0  0  0  0  0
    6.9387    1.7473   -0.1077 C   0  0  0  0  0  0  0  0  0  0  0  0
    1.7334   -0.9752   -0.0174 C   0  0  0  0  0  0  0  0  0  0  0  0
    2.1114   -2.1423    0.6827 C   0  0  0  0  0  0  0  0  0  0  0  0
    1.4084   -3.3345    0.4835 C   0  0  0  0  0  0  0  0  0  0  0  0
    0.3371   -3.3823   -0.4000 C   0  0  0  0  0  0  0  0  0  0  0  0
   -0.0670   -2.2426   -1.1014 C   0  0  0  0  0  0  0  0  0  0  0  0
    0.6385   -1.0440   -0.8925 C   0  0  0  0  0  0  0  0  0  0  0  0
   -4.8454   -0.7052   -0.6705 C   0  0  0  0  0  0  0  0  0  0  0  0
   -4.3256   -1.8553   -1.2230 O   0  0  0  0  0  0  0  0  0  0  0  0
   -5.0868   -3.0468   -1.0573 C   0  0  0  0  0  0  0  0  0  0  0  0
   -6.0858   -0.6103   -0.0334 C   0  0  0  0  0  0  0  0  0  0  0  0
   -9.1641    1.5242    2.2102 H   0  0  0  0  0  0  0  0  0  0  0  0
   -7.5118    2.0576    2.5346 H   0  0  0  0  0  0  0  0  0  0  0  0
   -8.3588    2.5447    1.0134 H   0  0  0  0  0  0  0  0  0  0  0  0
   -6.0046    2.6979    0.7913 H   0  0  0  0  0  0  0  0  0  0  0  0
   -3.8623    2.5521   -0.3119 H   0  0  0  0  0  0  0  0  0  0  0  0
   -2.6239   -0.6967   -1.7119 H   0  0  0  0  0  0  0  0  0  0  0  0
   -0.1584    1.3773   -3.0311 H   0  0  0  0  0  0  0  0  0  0  0  0
   -0.8458   -0.2421   -2.9766 H   0  0  0  0  0  0  0  0  0  0  0  0
    1.4553    2.1157   -1.2383 H   0  0  0  0  0  0  0  0  0  0  0  0
    4.8750   -0.9092    0.0749 H   0  0  0  0  0  0  0  0  0  0  0  0
    4.8898    0.3966   -1.1347 H   0  0  0  0  0  0  0  0  0  0  0  0
    6.3093   -0.7258    2.1561 H   0  0  0  0  0  0  0  0  0  0  0  0
    8.4394    0.1162    3.0718 H   0  0  0  0  0  0  0  0  0  0  0  0
    9.6197    1.9977    1.9694 H   0  0  0  0  0  0  0  0  0  0  0  0
    8.6543    3.0511   -0.0569 H   0  0  0  0  0  0  0  0  0  0  0  0
    6.5249    2.2336   -0.9889 H   0  0  0  0  0  0  0  0  0  0  0  0
    2.9344   -2.1219    1.3932 H   0  0  0  0  0  0  0  0  0  0  0  0
    1.7003   -4.2279    1.0313 H   0  0  0  0  0  0  0  0  0  0  0  0
   -0.2000   -4.3184   -0.5407 H   0  0  0  0  0  0  0  0  0  0  0  0
   -0.9098   -2.3046   -1.7814 H   0  0  0  0  0  0  0  0  0  0  0  0
   -6.0414   -2.9792   -1.5891 H   0  0  0  0  0  0  0  0  0  0  0  0
   -4.5174   -3.8704   -1.4992 H   0  0  0  0  0  0  0  0  0  0  0  0
   -5.2339   -3.2781    0.0032 H   0  0  0  0  0  0  0  0  0  0  0  0
   -6.7452   -1.4661    0.0653 H   0  0  0  0  0  0  0  0  0  0  0  0
  1  2  1  0
  2  3  1  0
  3  4  2  0
  4  5  1  0
  5  6  2  0
  6  7  1  0
  7  8  1  0
  8  9  2  0
  8 10  1  0
 10 11  1  0
 11 12  1  0
 12 13  2  0
 13 14  1  0
 14 15  2  0
 14 16  2  0
 14 17  1  0
 17 18  1  0
 18 19  2  0
 19 20  1  0
 20 21  2  0
 21 22  1  0
 22 23  2  0
 13 24  1  0
 24 25  2  0
 25 26  1  0
 26 27  2  0
 27 28  1  0
 28 29  2  0
  6 30  1  0
 30 31  1  0
 31 32  1  0
 30 33  2  0
 33  3  1  0
 29 11  1  0
 23 18  1  0
 29 24  1  0
  1 34  1  0
  1 35  1  0
  1 36  1  0
  4 37  1  0
  5 38  1  0
  7 39  1  0
 10 40  1  0
 10 41  1  0
 12 42  1  0
 17 43  1  0
 17 44  1  0
 19 45  1  0
 20 46  1  0
 21 47  1  0
 22 48  1  0
 23 49  1  0
 25 50  1  0
 26 51  1  0
 27 52  1  0
 28 53  1  0
 32 54  1  0
 32 55  1  0
 32 56  1  0
 33 57  1  0
M  END
$$$$
