
     RDKit          3D

 55 58  0  0  0  0  0  0  0  0999 V2000
    3.0097   -1.7929   -1.9693 O   0  0  0  0  0  0  0  0  0  0  0  0
    2.2062   -1.5280   -1.0724 C   0  0  0  0  0  0  0  0  0  0  0  0
    0.8352   -2.1697   -0.9985 C   0  0  0  0  0  0  0  0  0  0  0  0
   -0.4224   -1.1124   -1.7667 S   0  0  0  0  0  0  0  0  0  0  0  0
   -0.9130   -0.1570   -0.4135 C   0  0  0  0  0  0  0  0  0  0  0  0
   -0.2268    0.0059    0.6914 N   0  0  0  0  0  0  0  0  0  0  0  0
   -0.9138    0.8940    1.4757 N   0  0  0  0  0  0  0  0  0  0  0  0
   -2.0387    1.2285    0.8589 C   0  0  0  0  0  0  0  0  0  0  0  0
   -2.9954    2.2197    1.3513 C   0  0  0  0  0  0  0  0  0  0  0  0
   -2.5229    3.5059    1.6626 C   0  0  0  0  0  0  0  0  0  0  0  0
   -3.3934    4.4932    2.1280 C   0  0  0  0  0  0  0  0  0  0  0  0
   -4.7487    4.2040    2.2970 C   0  0  0  0  0  0  0  0  0  0  0  0
   -5.2311    2.9249    2.0154 C   0  0  0  0  0  0  0  0  0  0  0  0
   -4.3564    1.9405    1.5522 C   0  0  0  0  0  0  0  0  0  0  0  0
   -4.8347    0.6843    1.3026 O   0  0  0  0  0  0  0  0  0  0  0  0
   -2.0817    0.5643   -0.3541 N   0  0  0  0  0  0  0  0  0  0  0  0
   -3.0598    0.7387   -1.4157 C   0  0  0  0  0  0  0  0  0  0  0  0
   -3.8565   -0.5011   -1.7677 C   0  0  0  0  0  0  0  0  0  0  0  0
   -4.3949   -0.6084   -3.0609 C   0  0  0  0  0  0  0  0  0  0  0  0
   -5.1597   -1.7170   -3.4301 C   0  0  0  0  0  0  0  0  0  0  0  0
   -5.4088   -2.7317   -2.5088 C   0  0  0  0  0  0  0  0  0  0  0  0
   -4.8989   -2.6344   -1.2171 C   0  0  0  0  0  0  0  0  0  0  0  0
   -4.1347   -1.5252   -0.8462 C   0  0  0  0  0  0  0  0  0  0  0  0
    2.4882   -0.6435   -0.0494 N   0  0  0  0  0  0  0  0  0  0  0  0
    3.8299   -0.2796    0.1436 N   0  0  0  0  0  0  0  0  0  0  0  0
    4.4379   -0.6915    1.3155 C   0  0  0  0  0  0  0  0  0  0  0  0
    3.7988   -1.0649    2.2974 O   0  0  0  0  0  0  0  0  0  0  0  0
    5.9346   -0.6823    1.3431 C   0  0  0  0  0  0  0  0  0  0  0  0
    6.5583   -0.9748    2.5683 C   0  0  0  0  0  0  0  0  0  0  0  0
    7.9510   -1.0059    2.6736 C   0  0  0  0  0  0  0  0  0  0  0  0
    8.7403   -0.7442    1.5555 C   0  0  0  0  0  0  0  0  0  0  0  0
    8.1392   -0.4517    0.3307 C   0  0  0  0  0  0  0  0  0  0  0  0
    6.7436   -0.4258    0.2249 C   0  0  0  0  0  0  0  0  0  0  0  0
    6.1845   -0.1530   -0.9962 O   0  0  0  0  0  0  0  0  0  0  0  0
    0.8781   -3.1101   -1.5579 H   0  0  0  0  0  0  0  0  0  0  0  0
    0.5836   -2.4305    0.0340 H   0  0  0  0  0  0  0  0  0  0  0  0
   -1.4630    3.7409    1.5459 H   0  0  0  0  0  0  0  0  0  0  0  0
   -3.0118    5.4851    2.3625 H   0  0  0  0  0  0  0  0  0  0  0  0
   -5.4256    4.9726    2.6594 H   0  0  0  0  0  0  0  0  0  0  0  0
   -6.2886    2.7142    2.1665 H   0  0  0  0  0  0  0  0  0  0  0  0
   -5.7791    0.6432    1.5374 H   0  0  0  0  0  0  0  0  0  0  0  0
   -3.7513    1.5415   -1.1450 H   0  0  0  0  0  0  0  0  0  0  0  0
   -2.4976    1.0889   -2.2909 H   0  0  0  0  0  0  0  0  0  0  0  0
   -4.2172    0.1751   -3.7983 H   0  0  0  0  0  0  0  0  0  0  0  0
   -5.5639   -1.7883   -4.4368 H   0  0  0  0  0  0  0  0  0  0  0  0
   -6.0010   -3.5952   -2.7964 H   0  0  0  0  0  0  0  0  0  0  0  0
   -5.0968   -3.4226   -0.4939 H   0  0  0  0  0  0  0  0  0  0  0  0
   -3.7571   -1.4767    0.1743 H   0  0  0  0  0  0  0  0  0  0  0  0
    1.8646   -0.5330    0.7554 H   0  0  0  0  0  0  0  0  0  0  0  0
    4.4051   -0.2400   -0.7032 H   0  0  0  0  0  0  0  0  0  0  0  0
    5.9558   -1.1797    3.4505 H   0  0  0  0  0  0  0  0  0  0  0  0
    8.4175   -1.2363    3.6293 H   0  0  0  0  0  0  0  0  0  0  0  0
    9.8259   -0.7654    1.6370 H   0  0  0  0  0  0  0  0  0  0  0  0
    8.7728   -0.2463   -0.5287 H   0  0  0  0  0  0  0  0  0  0  0  0
    6.8841   -0.1462   -1.6731 H   0  0  0  0  0  0  0  0  0  0  0  0
  1  2  2  0
  2  3  1  0
  3  4  1  0
  4  5  1  0
  5  6  2  0
  6  7  1  0
  7  8  2  0
  8  9  1  0
  9 10  2  0
 10 11  1  0
 11 12  2  0
 12 13  1  0
 13 14  2  0
 14 15  1  0
  8 16  1  0
 16 17  1  0
 17 18  1  0
 18 19  2  0
 19 20  1  0
 20 21  2  0
 21 22  1  0
 22 23  2  0
  2 24  1  0
 24 25  1  0
 25 26  1  0
 26 27  2  0
 26 28  1  0
 28 29  2  0
 29 30  1  0
 30 31  2  0
 31 32  1  0
 32 33  2  0
 33 34  1  0
 16  5  1  0
 23 18  1  0
 33 28  1  0
 14  9  1  0
  3 35  1  0
  3 36  1  0
 10 37  1  0
 11 38  1  0
 12 39  1  0
 13 40  1  0
 15 41  1  0
 17 42  1  0
 17 43  1  0
 19 44  1  0
 20 45  1  0
 21 46  1  0
 22 47  1  0
 23 48  1  0
 24 49  1  0
 25 50  1  0
 29 51  1  0
 30 52  1  0
 31 53  1  0
 32 54  1  0
 34 55  1  0
M  END
$$$$
