
     RDKit          3D

 55 60  0  0  0  0  0  0  0  0999 V2000
   -5.2104   -0.8370    0.4764 O   0  0  0  0  0  0  0  0  0  0  0  0
   -4.4086    0.0936    0.5396 C   0  0  0  0  0  0  0  0  0  0  0  0
   -4.8765    1.4289    0.8808 C   0  0  0  0  0  0  0  0  0  0  0  0
   -6.1403    2.0060    0.5552 C   0  0  0  0  0  0  0  0  0  0  0  0
   -6.1596    3.2604    1.1159 C   0  0  0  0  0  0  0  0  0  0  0  0
   -5.0066    3.4909    1.7929 O   0  0  0  0  0  0  0  0  0  0  0  0
   -4.2463    2.3730    1.6674 C   0  0  0  0  0  0  0  0  0  0  0  0
   -3.0438   -0.1061    0.2988 N   0  0  0  0  0  0  0  0  0  0  0  0
   -2.5929   -1.4839    0.1483 C   0  0  0  0  0  0  0  0  0  0  0  0
   -1.0794   -1.5913    0.2876 C   0  0  0  0  0  0  0  0  0  0  0  0
   -0.3663   -0.8171   -0.8493 C   0  0  0  0  0  0  0  0  0  0  0  0
   -1.1331    0.5027   -1.1723 C   0  0  0  0  0  0  0  0  0  0  0  0
   -2.1083    0.9492   -0.0837 C   0  0  0  0  0  0  0  0  0  0  0  0
   -0.5173   -1.5927   -2.0757 O   0  0  0  0  0  0  0  0  0  0  0  0
    0.3496   -2.6218   -2.2977 C   0  0  0  0  0  0  0  0  0  0  0  0
    0.0225   -3.4847   -3.3450 C   0  0  0  0  0  0  0  0  0  0  0  0
    0.8382   -4.5824   -3.6257 C   0  0  0  0  0  0  0  0  0  0  0  0
    1.9765   -4.8085   -2.8577 C   0  0  0  0  0  0  0  0  0  0  0  0
    2.7523   -5.8658   -3.1273 F   0  0  0  0  0  0  0  0  0  0  0  0
    2.3210   -3.9538   -1.8193 C   0  0  0  0  0  0  0  0  0  0  0  0
    1.5043   -2.8522   -1.5544 C   0  0  0  0  0  0  0  0  0  0  0  0
    1.8421   -1.9115   -0.4792 C   0  0  0  0  0  0  0  0  0  0  0  0
    2.6332   -2.2432    0.3992 O   0  0  0  0  0  0  0  0  0  0  0  0
    1.1371   -0.5618   -0.5396 C   0  0  0  0  0  0  0  0  0  0  0  0
    1.4174    0.2682    0.7029 C   0  0  0  0  0  0  0  0  0  0  0  0
    2.5843    1.0487    0.1989 C   0  0  0  0  0  0  0  0  0  0  0  0
    3.4614    1.8294    1.1029 C   0  0  0  0  0  0  0  0  0  0  0  0
    3.2023    1.9253    2.4749 C   0  0  0  0  0  0  0  0  0  0  0  0
    4.0486    2.6758    3.2959 C   0  0  0  0  0  0  0  0  0  0  0  0
    5.1519    3.3324    2.7523 C   0  0  0  0  0  0  0  0  0  0  0  0
    5.4135    3.2414    1.3866 C   0  0  0  0  0  0  0  0  0  0  0  0
    4.5708    2.4926    0.5630 C   0  0  0  0  0  0  0  0  0  0  0  0
    2.7375    1.0195   -1.0870 N   0  0  0  0  0  0  0  0  0  0  0  0
    1.7362    0.1779   -1.6179 O   0  0  0  0  0  0  0  0  0  0  0  0
   -6.9327    1.5488   -0.0219 H   0  0  0  0  0  0  0  0  0  0  0  0
   -6.8843    4.0627    1.1359 H   0  0  0  0  0  0  0  0  0  0  0  0
   -3.3048    2.3991    2.1971 H   0  0  0  0  0  0  0  0  0  0  0  0
   -3.0807   -2.1019    0.9111 H   0  0  0  0  0  0  0  0  0  0  0  0
   -2.9293   -1.8465   -0.8305 H   0  0  0  0  0  0  0  0  0  0  0  0
   -0.7867   -1.1973    1.2682 H   0  0  0  0  0  0  0  0  0  0  0  0
   -0.8097   -2.6532    0.2722 H   0  0  0  0  0  0  0  0  0  0  0  0
   -0.4412    1.3273   -1.3771 H   0  0  0  0  0  0  0  0  0  0  0  0
   -1.7098    0.3752   -2.0995 H   0  0  0  0  0  0  0  0  0  0  0  0
   -2.6520    1.8263   -0.4473 H   0  0  0  0  0  0  0  0  0  0  0  0
   -1.5677    1.2409    0.8218 H   0  0  0  0  0  0  0  0  0  0  0  0
   -0.8709   -3.3071   -3.9391 H   0  0  0  0  0  0  0  0  0  0  0  0
    0.5927   -5.2628   -4.4356 H   0  0  0  0  0  0  0  0  0  0  0  0
    3.2186   -4.1437   -1.2384 H   0  0  0  0  0  0  0  0  0  0  0  0
    1.6492   -0.3213    1.5924 H   0  0  0  0  0  0  0  0  0  0  0  0
    0.6241    0.9811    0.9360 H   0  0  0  0  0  0  0  0  0  0  0  0
    2.3525    1.4282    2.9314 H   0  0  0  0  0  0  0  0  0  0  0  0
    3.8487    2.7477    4.3625 H   0  0  0  0  0  0  0  0  0  0  0  0
    5.8099    3.9142    3.3933 H   0  0  0  0  0  0  0  0  0  0  0  0
    6.2741    3.7513    0.9608 H   0  0  0  0  0  0  0  0  0  0  0  0
    4.7885    2.4289   -0.5015 H   0  0  0  0  0  0  0  0  0  0  0  0
  1  2  2  0
  2  3  1  0
  3  4  1  0
  4  5  2  0
  5  6  1  0
  6  7  1  0
  2  8  1  0
  8  9  1  0
  9 10  1  0
 10 11  1  0
 11 12  1  0
 12 13  1  0
 11 14  1  0
 14 15  1  0
 15 16  2  0
 16 17  1  0
 17 18  2  0
 18 19  1  0
 18 20  1  0
 20 21  2  0
 21 22  1  0
 22 23  2  0
 22 24  1  0
 24 25  1  0
 25 26  1  0
 26 27  1  0
 27 28  2  0
 28 29  1  0
 29 30  2  0
 30 31  1  0
 31 32  2  0
 26 33  2  0
 33 34  1  0
  7  3  2  0
 13  8  1  0
 21 15  1  0
 34 24  1  0
 24 11  1  0
 32 27  1  0
  4 35  1  0
  5 36  1  0
  7 37  1  0
  9 38  1  0
  9 39  1  0
 10 40  1  0
 10 41  1  0
 12 42  1  0
 12 43  1  0
 13 44  1  0
 13 45  1  0
 16 46  1  0
 17 47  1  0
 20 48  1  0
 25 49  1  0
 25 50  1  0
 28 51  1  0
 29 52  1  0
 30 53  1  0
 31 54  1  0
 32 55  1  0
M  END
$$$$
