
     RDKit          3D

 57 60  0  0  0  0  0  0  0  0999 V2000
   -0.6972    3.3627   -2.0318 C   0  0  0  0  0  0  0  0  0  0  0  0
   -1.3821    3.1811   -0.6812 C   0  0  0  0  0  0  0  0  0  0  0  0
   -0.7277    2.1753    0.2841 C   0  0  0  0  0  0  0  0  0  0  0  0
   -0.4593    0.5163   -0.4664 S   0  0  0  0  0  0  0  0  0  0  0  0
   -2.1283   -0.0014   -0.6656 C   0  0  0  0  0  0  0  0  0  0  0  0
   -2.9016    0.2224    0.3541 N   0  0  0  0  0  0  0  0  0  0  0  0
   -4.2232   -0.1805    0.1862 C   0  0  0  0  0  0  0  0  0  0  0  0
   -5.2249   -0.0311    1.1698 C   0  0  0  0  0  0  0  0  0  0  0  0
   -6.4366   -0.5129    0.7134 C   0  0  0  0  0  0  0  0  0  0  0  0
   -6.3236   -1.1305   -0.8894 S   0  0  0  0  0  0  0  0  0  0  0  0
   -4.6716   -0.7547   -0.9633 C   0  0  0  0  0  0  0  0  0  0  0  0
   -3.8208   -1.0021   -2.0889 C   0  0  0  0  0  0  0  0  0  0  0  0
   -4.2093   -1.5072   -3.1400 O   0  0  0  0  0  0  0  0  0  0  0  0
   -2.4923   -0.6060   -1.8715 N   0  0  0  0  0  0  0  0  0  0  0  0
   -1.5594   -0.8623   -2.9750 C   0  0  0  0  0  0  0  0  0  0  0  0
   -0.7673   -2.1444   -2.8002 C   0  0  0  0  0  0  0  0  0  0  0  0
    0.6304   -2.1071   -2.6857 C   0  0  0  0  0  0  0  0  0  0  0  0
    1.3660   -3.2861   -2.5326 C   0  0  0  0  0  0  0  0  0  0  0  0
    0.7156   -4.5237   -2.5003 C   0  0  0  0  0  0  0  0  0  0  0  0
    1.5372   -5.7473   -2.3381 C   0  0  0  0  0  0  0  0  0  0  0  0
    2.7483   -5.7815   -2.2190 O   0  0  0  0  0  0  0  0  0  0  0  0
    0.8025   -6.8738   -2.3313 O   0  0  0  0  0  0  0  0  0  0  0  0
   -0.6761   -4.5731   -2.6287 C   0  0  0  0  0  0  0  0  0  0  0  0
   -1.4098   -3.3923   -2.7810 C   0  0  0  0  0  0  0  0  0  0  0  0
    0.6053    2.6888    0.8653 C   0  0  0  0  0  0  0  0  0  0  0  0
    1.0628    3.7893    0.5716 O   0  0  0  0  0  0  0  0  0  0  0  0
    1.1619    1.8025    1.7790 N   0  0  0  0  0  0  0  0  0  0  0  0
    2.3378    1.9623    2.5395 C   0  0  0  0  0  0  0  0  0  0  0  0
    3.1213    3.1149    2.5356 C   0  0  0  0  0  0  0  0  0  0  0  0
    4.2727    3.1962    3.3289 C   0  0  0  0  0  0  0  0  0  0  0  0
    4.6658    2.1253    4.1418 C   0  0  0  0  0  0  0  0  0  0  0  0
    5.9005    2.2483    4.9880 C   0  0  0  0  0  0  0  0  0  0  0  0
    3.8740    0.9703    4.1433 C   0  0  0  0  0  0  0  0  0  0  0  0
    4.2734   -0.3965    5.1231 Cl  0  0  0  0  0  0  0  0  0  0  0  0
    2.7228    0.8902    3.3510 C   0  0  0  0  0  0  0  0  0  0  0  0
   -0.7519    2.4565   -2.6394 H   0  0  0  0  0  0  0  0  0  0  0  0
    0.3543    3.6424   -1.9218 H   0  0  0  0  0  0  0  0  0  0  0  0
   -1.1963    4.1598   -2.5937 H   0  0  0  0  0  0  0  0  0  0  0  0
   -2.4234    2.8860   -0.8623 H   0  0  0  0  0  0  0  0  0  0  0  0
   -1.4338    4.1609   -0.1877 H   0  0  0  0  0  0  0  0  0  0  0  0
   -1.3889    2.0688    1.1532 H   0  0  0  0  0  0  0  0  0  0  0  0
   -5.0780    0.4006    2.1512 H   0  0  0  0  0  0  0  0  0  0  0  0
   -7.3826   -0.5340    1.2376 H   0  0  0  0  0  0  0  0  0  0  0  0
   -2.0968   -0.9251   -3.9293 H   0  0  0  0  0  0  0  0  0  0  0  0
   -0.8848   -0.0071   -3.0896 H   0  0  0  0  0  0  0  0  0  0  0  0
    1.1654   -1.1597   -2.7145 H   0  0  0  0  0  0  0  0  0  0  0  0
    2.4492   -3.2344   -2.4419 H   0  0  0  0  0  0  0  0  0  0  0  0
    1.4667   -7.5862   -2.2191 H   0  0  0  0  0  0  0  0  0  0  0  0
   -1.2019   -5.5257   -2.6178 H   0  0  0  0  0  0  0  0  0  0  0  0
   -2.4899   -3.4642   -2.8985 H   0  0  0  0  0  0  0  0  0  0  0  0
    0.6933    0.9056    1.8598 H   0  0  0  0  0  0  0  0  0  0  0  0
    2.8654    3.9783    1.9291 H   0  0  0  0  0  0  0  0  0  0  0  0
    4.8581    4.1126    3.3037 H   0  0  0  0  0  0  0  0  0  0  0  0
    5.6367    2.2113    6.0495 H   0  0  0  0  0  0  0  0  0  0  0  0
    6.6071    1.4438    4.7581 H   0  0  0  0  0  0  0  0  0  0  0  0
    6.4170    3.1974    4.8088 H   0  0  0  0  0  0  0  0  0  0  0  0
    2.1276   -0.0188    3.3800 H   0  0  0  0  0  0  0  0  0  0  0  0
  1  2  1  0
  2  3  1  0
  3  4  1  0
  4  5  1  0
  5  6  2  0
  6  7  1  0
  7  8  1  0
  8  9  2  0
  9 10  1  0
 10 11  1  0
 11 12  1  0
 12 13  2  0
 12 14  1  0
 14 15  1  0
 15 16  1  0
 16 17  2  0
 17 18  1  0
 18 19  2  0
 19 20  1  0
 20 21  2  0
 20 22  1  0
 19 23  1  0
 23 24  2  0
  3 25  1  0
 25 26  2  0
 25 27  1  0
 27 28  1  0
 28 29  2  0
 29 30  1  0
 30 31  2  0
 31 32  1  0
 31 33  1  0
 33 34  1  0
 33 35  2  0
 14  5  1  0
 24 16  1  0
 35 28  1  0
 11  7  2  0
  1 36  1  0
  1 37  1  0
  1 38  1  0
  2 39  1  0
  2 40  1  0
  3 41  1  0
  8 42  1  0
  9 43  1  0
 15 44  1  0
 15 45  1  0
 17 46  1  0
 18 47  1  0
 22 48  1  0
 23 49  1  0
 24 50  1  0
 27 51  1  0
 29 52  1  0
 30 53  1  0
 32 54  1  0
 32 55  1  0
 32 56  1  0
 35 57  1  0
M  END
$$$$
