
     RDKit          3D

 46 49  0  0  0  0  0  0  0  0999 V2000
    2.6806   -0.8801   -2.8720 O   0  0  0  0  0  0  0  0  0  0  0  0
    1.6963   -0.1531   -2.9951 C   0  0  0  0  0  0  0  0  0  0  0  0
    0.6622   -0.4341   -4.0762 C   0  0  0  0  0  0  0  0  0  0  0  0
   -0.6083   -1.5730   -3.4482 S   0  0  0  0  0  0  0  0  0  0  0  0
   -1.4758   -0.5031   -2.4070 C   0  0  0  0  0  0  0  0  0  0  0  0
   -1.6215    0.7854   -2.6074 N   0  0  0  0  0  0  0  0  0  0  0  0
   -2.3619    1.2849   -1.5707 N   0  0  0  0  0  0  0  0  0  0  0  0
   -2.6349    0.2960   -0.7394 C   0  0  0  0  0  0  0  0  0  0  0  0
   -3.4361    0.4199    0.5153 C   0  0  0  0  0  0  0  0  0  0  0  0
   -2.6070    0.3761    1.7680 C   0  0  0  0  0  0  0  0  0  0  0  0
   -1.3756    0.9542    2.0174 C   0  0  0  0  0  0  0  0  0  0  0  0
   -0.9092    0.6963    3.3369 C   0  0  0  0  0  0  0  0  0  0  0  0
   -1.8077   -0.0521    4.0632 C   0  0  0  0  0  0  0  0  0  0  0  0
   -3.2008   -0.4435    3.1529 S   0  0  0  0  0  0  0  0  0  0  0  0
   -2.0680   -0.8633   -1.2277 N   0  0  0  0  0  0  0  0  0  0  0  0
   -2.0893   -2.1779   -0.6138 C   0  0  0  0  0  0  0  0  0  0  0  0
   -0.9363   -2.3863    0.3010 C   0  0  0  0  0  0  0  0  0  0  0  0
   -0.8078   -3.0060    1.5283 C   0  0  0  0  0  0  0  0  0  0  0  0
    0.5534   -2.8846    1.8988 C   0  0  0  0  0  0  0  0  0  0  0  0
    1.1709   -2.2112    0.8726 C   0  0  0  0  0  0  0  0  0  0  0  0
    0.2761   -1.9071   -0.0997 O   0  0  0  0  0  0  0  0  0  0  0  0
    1.4077    0.9629   -2.2255 N   0  0  0  0  0  0  0  0  0  0  0  0
    2.1309    1.4606   -1.1139 C   0  0  0  0  0  0  0  0  0  0  0  0
    3.2868    0.8456   -0.6182 C   0  0  0  0  0  0  0  0  0  0  0  0
    3.9416    1.3553    0.5098 C   0  0  0  0  0  0  0  0  0  0  0  0
    3.4482    2.4879    1.1491 C   0  0  0  0  0  0  0  0  0  0  0  0
    4.2490    3.1003    2.5428 Cl  0  0  0  0  0  0  0  0  0  0  0  0
    2.3144    3.1298    0.6643 C   0  0  0  0  0  0  0  0  0  0  0  0
    1.6638    2.6193   -0.4627 C   0  0  0  0  0  0  0  0  0  0  0  0
    0.2709    3.4705   -1.0375 Cl  0  0  0  0  0  0  0  0  0  0  0  0
    1.1736   -0.9090   -4.9196 H   0  0  0  0  0  0  0  0  0  0  0  0
    0.2222    0.4942   -4.4540 H   0  0  0  0  0  0  0  0  0  0  0  0
   -4.2100   -0.3568    0.5242 H   0  0  0  0  0  0  0  0  0  0  0  0
   -3.9704    1.3792    0.4962 H   0  0  0  0  0  0  0  0  0  0  0  0
   -0.8285    1.5264    1.2791 H   0  0  0  0  0  0  0  0  0  0  0  0
    0.0360    1.0480    3.7346 H   0  0  0  0  0  0  0  0  0  0  0  0
   -1.7151   -0.3881    5.0869 H   0  0  0  0  0  0  0  0  0  0  0  0
   -3.0359   -2.2807   -0.0731 H   0  0  0  0  0  0  0  0  0  0  0  0
   -2.0961   -2.9359   -1.4023 H   0  0  0  0  0  0  0  0  0  0  0  0
   -1.5989   -3.4805    2.0924 H   0  0  0  0  0  0  0  0  0  0  0  0
    1.0263   -3.2476    2.8004 H   0  0  0  0  0  0  0  0  0  0  0  0
    2.1870   -1.8897    0.6883 H   0  0  0  0  0  0  0  0  0  0  0  0
    0.5231    1.4400   -2.4109 H   0  0  0  0  0  0  0  0  0  0  0  0
    3.7049   -0.0444   -1.0768 H   0  0  0  0  0  0  0  0  0  0  0  0
    4.8338    0.8559    0.8802 H   0  0  0  0  0  0  0  0  0  0  0  0
    1.9355    4.0195    1.1583 H   0  0  0  0  0  0  0  0  0  0  0  0
  1  2  2  0
  2  3  1  0
  3  4  1  0
  4  5  1  0
  5  6  2  0
  6  7  1  0
  7  8  2  0
  8  9  1  0
  9 10  1  0
 10 11  2  0
 11 12  1  0
 12 13  2  0
 13 14  1  0
  8 15  1  0
 15 16  1  0
 16 17  1  0
 17 18  2  0
 18 19  1  0
 19 20  2  0
 20 21  1  0
  2 22  1  0
 22 23  1  0
 23 24  2  0
 24 25  1  0
 25 26  2  0
 26 27  1  0
 26 28  1  0
 28 29  2  0
 29 30  1  0
 15  5  1  0
 21 17  1  0
 29 23  1  0
 14 10  1  0
  3 31  1  0
  3 32  1  0
  9 33  1  0
  9 34  1  0
 11 35  1  0
 12 36  1  0
 13 37  1  0
 16 38  1  0
 16 39  1  0
 18 40  1  0
 19 41  1  0
 20 42  1  0
 22 43  1  0
 24 44  1  0
 25 45  1  0
 28 46  1  0
M  END
$$$$
