
     RDKit          3D

 45 47  0  0  0  0  0  0  0  0999 V2000
   -3.4869   -0.1110   -2.7542 O   0  0  0  0  0  0  0  0  0  0  0  0
   -3.6564   -0.5493   -1.6140 C   0  0  0  0  0  0  0  0  0  0  0  0
   -5.0477   -0.5680   -1.0037 C   0  0  0  0  0  0  0  0  0  0  0  0
   -5.3068    0.5802   -0.0565 C   0  0  0  0  0  0  0  0  0  0  0  0
   -5.1489    1.9075   -0.4845 C   0  0  0  0  0  0  0  0  0  0  0  0
   -5.3994    2.9690    0.3880 C   0  0  0  0  0  0  0  0  0  0  0  0
   -5.8176    2.7101    1.6906 C   0  0  0  0  0  0  0  0  0  0  0  0
   -6.1278    4.0170    2.7657 Cl  0  0  0  0  0  0  0  0  0  0  0  0
   -5.9914    1.3988    2.1269 C   0  0  0  0  0  0  0  0  0  0  0  0
   -5.7410    0.3366    1.2547 C   0  0  0  0  0  0  0  0  0  0  0  0
   -2.5161   -1.0448   -0.8372 C   0  0  0  0  0  0  0  0  0  0  0  0
   -2.5232   -1.5675    0.4417 C   0  0  0  0  0  0  0  0  0  0  0  0
   -1.2383   -1.9036    0.7794 N   0  0  0  0  0  0  0  0  0  0  0  0
   -0.3756   -1.6130   -0.2551 C   0  0  0  0  0  0  0  0  0  0  0  0
    1.0421   -1.8768   -0.1436 C   0  0  0  0  0  0  0  0  0  0  0  0
    1.5309   -2.4034    0.8519 O   0  0  0  0  0  0  0  0  0  0  0  0
    1.8037   -1.4876   -1.2216 N   0  0  0  0  0  0  0  0  0  0  0  0
    3.2424   -1.6324   -1.2294 C   0  0  0  0  0  0  0  0  0  0  0  0
    3.9276   -0.4871   -0.4915 C   0  0  0  0  0  0  0  0  0  0  0  0
    5.4380   -0.6921   -0.4534 C   0  0  0  0  0  0  0  0  0  0  0  0
    6.1200    0.4017    0.2071 N   0  0  0  0  0  0  0  0  0  0  0  0
    6.6525    1.5058   -0.3960 C   0  0  0  0  0  0  0  0  0  0  0  0
    7.2015    2.2375    0.6315 C   0  0  0  0  0  0  0  0  0  0  0  0
    7.0179    1.6031    1.8331 N   0  0  0  0  0  0  0  0  0  0  0  0
    6.3647    0.4995    1.5464 C   0  0  0  0  0  0  0  0  0  0  0  0
   -1.1542   -1.0811   -1.2693 C   0  0  0  0  0  0  0  0  0  0  0  0
   -5.7817   -0.5213   -1.8183 H   0  0  0  0  0  0  0  0  0  0  0  0
   -5.2091   -1.5361   -0.5152 H   0  0  0  0  0  0  0  0  0  0  0  0
   -4.8296    2.1261   -1.5031 H   0  0  0  0  0  0  0  0  0  0  0  0
   -5.2688    3.9915    0.0438 H   0  0  0  0  0  0  0  0  0  0  0  0
   -6.3242    1.1974    3.1417 H   0  0  0  0  0  0  0  0  0  0  0  0
   -5.8898   -0.6810    1.6096 H   0  0  0  0  0  0  0  0  0  0  0  0
   -3.3231   -1.7295    1.1516 H   0  0  0  0  0  0  0  0  0  0  0  0
   -0.9366   -2.3066    1.6595 H   0  0  0  0  0  0  0  0  0  0  0  0
    1.3612   -0.9812   -1.9751 H   0  0  0  0  0  0  0  0  0  0  0  0
    3.5588   -1.6582   -2.2775 H   0  0  0  0  0  0  0  0  0  0  0  0
    3.5030   -2.5935   -0.7717 H   0  0  0  0  0  0  0  0  0  0  0  0
    3.5384   -0.4082    0.5314 H   0  0  0  0  0  0  0  0  0  0  0  0
    3.6856    0.4643   -0.9826 H   0  0  0  0  0  0  0  0  0  0  0  0
    5.8483   -0.7718   -1.4668 H   0  0  0  0  0  0  0  0  0  0  0  0
    5.6963   -1.6128    0.0826 H   0  0  0  0  0  0  0  0  0  0  0  0
    6.6015    1.6786   -1.4615 H   0  0  0  0  0  0  0  0  0  0  0  0
    7.7198    3.1857    0.5707 H   0  0  0  0  0  0  0  0  0  0  0  0
    6.0485   -0.2492    2.2617 H   0  0  0  0  0  0  0  0  0  0  0  0
   -0.8083   -0.7434   -2.2384 H   0  0  0  0  0  0  0  0  0  0  0  0
  1  2  2  0
  2  3  1  0
  3  4  1  0
  4  5  2  0
  5  6  1  0
  6  7  2  0
  7  8  1  0
  7  9  1  0
  9 10  2  0
  2 11  1  0
 11 12  2  0
 12 13  1  0
 13 14  1  0
 14 15  1  0
 15 16  2  0
 15 17  1  0
 17 18  1  0
 18 19  1  0
 19 20  1  0
 20 21  1  0
 21 22  1  0
 22 23  2  0
 23 24  1  0
 24 25  2  0
 14 26  2  0
 10  4  1  0
 26 11  1  0
 25 21  1  0
  3 27  1  0
  3 28  1  0
  5 29  1  0
  6 30  1  0
  9 31  1  0
 10 32  1  0
 12 33  1  0
 13 34  1  0
 17 35  1  0
 18 36  1  0
 18 37  1  0
 19 38  1  0
 19 39  1  0
 20 40  1  0
 20 41  1  0
 22 42  1  0
 23 43  1  0
 25 44  1  0
 26 45  1  0
M  END
$$$$
