
     RDKit          3D

 43 43  0  0  0  0  0  0  0  0999 V2000
   -5.1987    2.7219    2.6431 C   0  0  0  0  0  0  0  0  0  0  0  0
   -4.2408    1.6014    2.3800 C   0  0  0  0  0  0  0  0  0  0  0  0
   -4.3295    0.3105    3.5296 Cl  0  0  0  0  0  0  0  0  0  0  0  0
   -3.3822    1.5745    1.3454 C   0  0  0  0  0  0  0  0  0  0  0  0
   -2.3494    0.5318    1.0518 C   0  0  0  0  0  0  0  0  0  0  0  0
   -2.6960   -0.4449   -0.0823 N   0  0  0  0  0  4  0  0  0  0  0  0
   -3.9498   -1.2444    0.2570 C   0  0  0  0  0  0  0  0  0  0  0  0
   -2.9069    0.2895   -1.4030 C   0  0  0  0  0  0  0  0  0  0  0  0
   -1.5147   -1.4694   -0.2315 C   0  0  0  0  0  0  0  0  0  0  0  0
   -0.1710   -0.8668   -0.6288 C   0  0  0  0  0  0  0  0  0  0  0  0
    0.0295   -0.3114   -1.7009 O   0  0  0  0  0  0  0  0  0  0  0  0
    0.7221   -0.9788    0.3924 O   0  0  0  0  0  0  0  0  0  0  0  0
    2.0209   -0.3934    0.1620 C   0  0  0  0  0  0  0  0  0  0  0  0
    2.9347   -1.3841   -0.5564 C   0  0  0  0  0  0  0  0  0  0  0  0
    4.2841   -0.7940   -0.8685 C   0  0  0  0  0  0  0  0  0  0  0  0
    5.1997   -0.5180    0.1586 C   0  0  0  0  0  0  0  0  0  0  0  0
    6.4464    0.0367   -0.1363 C   0  0  0  0  0  0  0  0  0  0  0  0
    6.7928    0.3155   -1.4586 C   0  0  0  0  0  0  0  0  0  0  0  0
    5.8926    0.0416   -2.4874 C   0  0  0  0  0  0  0  0  0  0  0  0
    4.6431   -0.5082   -2.1949 C   0  0  0  0  0  0  0  0  0  0  0  0
   -5.0668    3.5459    1.9315 H   0  0  0  0  0  0  0  0  0  0  0  0
   -6.2323    2.3679    2.5603 H   0  0  0  0  0  0  0  0  0  0  0  0
   -5.0488    3.1281    3.6493 H   0  0  0  0  0  0  0  0  0  0  0  0
   -3.3754    2.4311    0.6745 H   0  0  0  0  0  0  0  0  0  0  0  0
   -1.4214    1.0409    0.7639 H   0  0  0  0  0  0  0  0  0  0  0  0
   -2.1151   -0.0803    1.9301 H   0  0  0  0  0  0  0  0  0  0  0  0
   -4.8011   -0.5624    0.3251 H   0  0  0  0  0  0  0  0  0  0  0  0
   -4.1219   -1.9697   -0.5463 H   0  0  0  0  0  0  0  0  0  0  0  0
   -3.7864   -1.7632    1.2074 H   0  0  0  0  0  0  0  0  0  0  0  0
   -2.9303   -0.4501   -2.2077 H   0  0  0  0  0  0  0  0  0  0  0  0
   -3.8625    0.8201   -1.3585 H   0  0  0  0  0  0  0  0  0  0  0  0
   -2.0956    1.0056   -1.5502 H   0  0  0  0  0  0  0  0  0  0  0  0
   -1.8084   -2.1975   -0.9979 H   0  0  0  0  0  0  0  0  0  0  0  0
   -1.4298   -1.9960    0.7275 H   0  0  0  0  0  0  0  0  0  0  0  0
    1.9269    0.5562   -0.3814 H   0  0  0  0  0  0  0  0  0  0  0  0
    2.4289   -0.1487    1.1500 H   0  0  0  0  0  0  0  0  0  0  0  0
    2.4516   -1.7390   -1.4757 H   0  0  0  0  0  0  0  0  0  0  0  0
    3.0623   -2.2847    0.0577 H   0  0  0  0  0  0  0  0  0  0  0  0
    4.9546   -0.7354    1.1974 H   0  0  0  0  0  0  0  0  0  0  0  0
    7.1524    0.2463    0.6651 H   0  0  0  0  0  0  0  0  0  0  0  0
    7.7668    0.7409   -1.6879 H   0  0  0  0  0  0  0  0  0  0  0  0
    6.1677    0.2513   -3.5191 H   0  0  0  0  0  0  0  0  0  0  0  0
    3.9576   -0.7174   -3.0140 H   0  0  0  0  0  0  0  0  0  0  0  0
  1  2  1  0
  2  3  1  0
  2  4  2  3
  4  5  1  0
  5  6  1  0
  6  7  1  0
  6  8  1  0
  6  9  1  0
  9 10  1  0
 10 11  2  0
 10 12  1  0
 12 13  1  0
 13 14  1  0
 14 15  1  0
 15 16  2  0
 16 17  1  0
 17 18  2  0
 18 19  1  0
 19 20  2  0
 20 15  1  0
  1 21  1  0
  1 22  1  0
  1 23  1  0
  4 24  1  0
  5 25  1  0
  5 26  1  0
  7 27  1  0
  7 28  1  0
  7 29  1  0
  8 30  1  0
  8 31  1  0
  8 32  1  0
  9 33  1  0
  9 34  1  0
 13 35  1  0
 13 36  1  0
 14 37  1  0
 14 38  1  0
 16 39  1  0
 17 40  1  0
 18 41  1  0
 19 42  1  0
 20 43  1  0
M  CHG  1   6   1
M  END
$$$$
