
     RDKit          3D

 31 33  0  0  0  0  0  0  0  0999 V2000
   -3.2205    0.8987    1.1729 C   0  0  0  0  0  0  0  0  0  0  0  0
   -3.2107   -0.0986    0.0580 C   0  0  0  0  0  0  0  0  0  0  0  0
   -4.4128   -0.5555   -0.5806 C   0  0  0  0  0  0  0  0  0  0  0  0
   -4.1770   -1.4712   -1.5771 C   0  0  0  0  0  0  0  0  0  0  0  0
   -2.5177   -1.7972   -1.7595 S   0  0  0  0  0  0  0  0  0  0  0  0
   -2.0850   -0.7048   -0.4973 C   0  0  0  0  0  0  0  0  0  0  0  0
   -0.6076   -0.5597   -0.1653 C   0  0  0  0  0  0  0  0  0  0  0  0
   -0.3311   -0.7434    1.3110 C   0  0  0  0  0  0  0  0  0  0  0  0
    0.9767   -1.4290    1.5364 C   0  0  0  0  0  0  0  0  0  0  0  0
    1.0393   -2.3902    2.3117 O   0  0  0  0  0  0  0  0  0  0  0  0
    2.1356   -1.0235    0.9699 N   0  0  0  0  0  0  0  0  0  0  0  0
    2.5291    0.0020    0.0873 C   0  0  0  0  0  0  0  0  0  0  0  0
    3.9311    0.0611   -0.0925 C   0  0  0  0  0  0  0  0  0  0  0  0
    4.5396    1.0186   -0.9038 C   0  0  0  0  0  0  0  0  0  0  0  0
    3.7554    1.9479   -1.5613 C   0  0  0  0  0  0  0  0  0  0  0  0
    2.3707    1.9020   -1.4086 C   0  0  0  0  0  0  0  0  0  0  0  0
    1.7317    0.9325   -0.6000 C   0  0  0  0  0  0  0  0  0  0  0  0
   -0.0424    1.1019   -0.6393 S   0  0  0  0  0  0  0  0  0  0  0  0
   -4.2300    1.2877    1.3438 H   0  0  0  0  0  0  0  0  0  0  0  0
   -2.8828    0.4358    2.1050 H   0  0  0  0  0  0  0  0  0  0  0  0
   -2.5757    1.7519    0.9460 H   0  0  0  0  0  0  0  0  0  0  0  0
   -5.4096   -0.2218   -0.3167 H   0  0  0  0  0  0  0  0  0  0  0  0
   -4.9040   -1.9646   -2.2073 H   0  0  0  0  0  0  0  0  0  0  0  0
   -0.0420   -1.2871   -0.7619 H   0  0  0  0  0  0  0  0  0  0  0  0
   -0.3488    0.1831    1.8974 H   0  0  0  0  0  0  0  0  0  0  0  0
   -1.0918   -1.4010    1.7546 H   0  0  0  0  0  0  0  0  0  0  0  0
    2.8862   -1.6121    1.3175 H   0  0  0  0  0  0  0  0  0  0  0  0
    4.5843   -0.6467    0.4164 H   0  0  0  0  0  0  0  0  0  0  0  0
    5.6208    1.0364   -1.0135 H   0  0  0  0  0  0  0  0  0  0  0  0
    4.2102    2.7044   -2.1953 H   0  0  0  0  0  0  0  0  0  0  0  0
    1.7791    2.6425   -1.9480 H   0  0  0  0  0  0  0  0  0  0  0  0
  1  2  1  0
  2  3  1  0
  3  4  2  0
  4  5  1  0
  5  6  1  0
  6  7  1  0
  7  8  1  0
  8  9  1  0
  9 10  2  0
  9 11  1  0
 11 12  1  0
 12 13  2  0
 13 14  1  0
 14 15  2  0
 15 16  1  0
 16 17  2  0
 17 18  1  0
  6  2  2  0
 18  7  1  0
 17 12  1  0
  1 19  1  0
  1 20  1  0
  1 21  1  0
  3 22  1  0
  4 23  1  0
  7 24  1  0
  8 25  1  0
  8 26  1  0
 11 27  1  0
 13 28  1  0
 14 29  1  0
 15 30  1  0
 16 31  1  0
M  END
$$$$
