
     RDKit          3D

 57 59  0  0  0  0  0  0  0  0999 V2000
   -9.5454    0.9932    0.9995 C   0  0  0  0  0  0  0  0  0  0  0  0
   -8.9829    0.0981    0.0472 O   0  0  0  0  0  0  0  0  0  0  0  0
   -7.6606    0.2705   -0.2560 C   0  0  0  0  0  0  0  0  0  0  0  0
   -6.7872    1.1712    0.3619 C   0  0  0  0  0  0  0  0  0  0  0  0
   -5.4521    1.2455   -0.0466 C   0  0  0  0  0  0  0  0  0  0  0  0
   -4.9921    0.4103   -1.0695 C   0  0  0  0  0  0  0  0  0  0  0  0
   -3.3007    0.5386   -1.5927 S   0  0  0  0  0  6  0  0  0  0  0  0
   -3.1300   -0.2441   -2.7973 O   0  0  0  0  0  0  0  0  0  0  0  0
   -2.9395    1.9373   -1.5561 O   0  0  0  0  0  0  0  0  0  0  0  0
   -2.4774   -0.2450   -0.3675 N   0  0  0  0  0  0  0  0  0  0  0  0
   -2.7492   -1.6685   -0.1147 C   0  0  0  0  0  0  0  0  0  0  0  0
   -1.3753   -2.2904    0.0006 C   0  0  0  0  0  0  0  0  0  0  0  0
   -0.5336   -1.2202    0.4278 O   0  0  0  0  0  0  0  0  0  0  0  0
   -1.0170   -0.0381   -0.2490 C   0  0  0  0  0  0  0  0  0  0  0  0
   -0.2543    0.1309   -1.5931 C   0  0  0  0  0  0  0  0  0  0  0  0
    1.1929    0.1030   -1.4686 N   0  0  0  0  0  0  0  0  0  0  0  0
    1.8960    1.0469   -0.7600 C   0  0  0  0  0  0  0  0  0  0  0  0
    1.4165    1.9838   -0.1380 O   0  0  0  0  0  0  0  0  0  0  0  0
    3.4270    0.8355   -0.7948 C   0  0  0  0  0  0  0  0  0  0  0  0
    3.9022   -0.0534   -1.4865 O   0  0  0  0  0  0  0  0  0  0  0  0
    4.1157    1.7173    0.0006 N   0  0  0  0  0  0  0  0  0  0  0  0
    5.5497    1.6667    0.1596 C   0  0  0  0  0  0  0  0  0  0  0  0
    5.9881    0.6839    1.2195 C   0  0  0  0  0  0  0  0  0  0  0  0
    5.3816    0.6751    2.4872 C   0  0  0  0  0  0  0  0  0  0  0  0
    5.8128   -0.2060    3.4829 C   0  0  0  0  0  0  0  0  0  0  0  0
    6.8671   -1.0836    3.2318 C   0  0  0  0  0  0  0  0  0  0  0  0
    7.4912   -1.0796    1.9873 C   0  0  0  0  0  0  0  0  0  0  0  0
    7.0455   -0.2096    0.9878 C   0  0  0  0  0  0  0  0  0  0  0  0
    7.7122   -0.1741   -0.2090 O   0  0  0  0  0  0  0  0  0  0  0  0
    7.3394   -1.2931   -1.0206 C   0  0  0  0  0  0  0  0  0  0  0  0
   -5.8573   -0.4877   -1.6996 C   0  0  0  0  0  0  0  0  0  0  0  0
   -7.1873   -0.5572   -1.2811 C   0  0  0  0  0  0  0  0  0  0  0  0
   -9.4724    2.0306    0.6571 H   0  0  0  0  0  0  0  0  0  0  0  0
  -10.6073    0.7494    1.0994 H   0  0  0  0  0  0  0  0  0  0  0  0
   -9.0809    0.8670    1.9837 H   0  0  0  0  0  0  0  0  0  0  0  0
   -7.1121    1.8294    1.1613 H   0  0  0  0  0  0  0  0  0  0  0  0
   -4.7781    1.9544    0.4332 H   0  0  0  0  0  0  0  0  0  0  0  0
   -3.3442   -2.1629   -0.8869 H   0  0  0  0  0  0  0  0  0  0  0  0
   -3.2905   -1.7453    0.8379 H   0  0  0  0  0  0  0  0  0  0  0  0
   -1.3430   -3.1069    0.7279 H   0  0  0  0  0  0  0  0  0  0  0  0
   -1.0146   -2.6642   -0.9644 H   0  0  0  0  0  0  0  0  0  0  0  0
   -0.8276    0.8117    0.4128 H   0  0  0  0  0  0  0  0  0  0  0  0
   -0.5162    1.0807   -2.0701 H   0  0  0  0  0  0  0  0  0  0  0  0
   -0.5058   -0.6809   -2.2839 H   0  0  0  0  0  0  0  0  0  0  0  0
    1.7353   -0.6297   -1.9134 H   0  0  0  0  0  0  0  0  0  0  0  0
    3.5613    2.3680    0.5479 H   0  0  0  0  0  0  0  0  0  0  0  0
    5.8853    2.6710    0.4391 H   0  0  0  0  0  0  0  0  0  0  0  0
    5.9840    1.4309   -0.8196 H   0  0  0  0  0  0  0  0  0  0  0  0
    4.5701    1.3620    2.7127 H   0  0  0  0  0  0  0  0  0  0  0  0
    5.3323   -0.2009    4.4566 H   0  0  0  0  0  0  0  0  0  0  0  0
    7.2108   -1.7618    4.0102 H   0  0  0  0  0  0  0  0  0  0  0  0
    8.3319   -1.7423    1.7979 H   0  0  0  0  0  0  0  0  0  0  0  0
    6.2540   -1.4415   -1.0405 H   0  0  0  0  0  0  0  0  0  0  0  0
    7.6716   -1.0865   -2.0423 H   0  0  0  0  0  0  0  0  0  0  0  0
    7.8424   -2.2031   -0.6777 H   0  0  0  0  0  0  0  0  0  0  0  0
   -5.5136   -1.1294   -2.5084 H   0  0  0  0  0  0  0  0  0  0  0  0
   -7.8683   -1.2570   -1.7657 H   0  0  0  0  0  0  0  0  0  0  0  0
  1  2  1  0
  2  3  1  0
  3  4  2  0
  4  5  1  0
  5  6  2  0
  6  7  1  0
  7  8  2  0
  7  9  2  0
  7 10  1  0
 10 11  1  0
 11 12  1  0
 12 13  1  0
 13 14  1  0
 14 15  1  0
 15 16  1  0
 16 17  1  0
 17 18  2  0
 17 19  1  0
 19 20  2  0
 19 21  1  0
 21 22  1  0
 22 23  1  0
 23 24  2  0
 24 25  1  0
 25 26  2  0
 26 27  1  0
 27 28  2  0
 28 29  1  0
 29 30  1  0
  6 31  1  0
 31 32  2  0
 32  3  1  0
 14 10  1  0
 28 23  1  0
  1 33  1  0
  1 34  1  0
  1 35  1  0
  4 36  1  0
  5 37  1  0
 11 38  1  0
 11 39  1  0
 12 40  1  0
 12 41  1  0
 14 42  1  0
 15 43  1  0
 15 44  1  0
 16 45  1  0
 21 46  1  0
 22 47  1  0
 22 48  1  0
 24 49  1  0
 25 50  1  0
 26 51  1  0
 27 52  1  0
 30 53  1  0
 30 54  1  0
 30 55  1  0
 31 56  1  0
 32 57  1  0
M  END
$$$$
