
     RDKit          3D

 52 55  0  0  0  0  0  0  0  0999 V2000
   -6.4189    3.0713    0.3802 C   0  0  0  0  0  0  0  0  0  0  0  0
   -6.4502    1.9710    1.4316 C   0  0  0  0  0  0  0  0  0  0  0  0
   -5.1113    1.2463    1.5548 C   0  0  0  0  0  0  0  0  0  0  0  0
   -4.8317    0.5821    0.3228 O   0  0  0  0  0  0  0  0  0  0  0  0
   -3.6308   -0.0624    0.2214 C   0  0  0  0  0  0  0  0  0  0  0  0
   -2.7109   -0.2513    1.2513 C   0  0  0  0  0  0  0  0  0  0  0  0
   -1.5152   -0.9387    1.0096 C   0  0  0  0  0  0  0  0  0  0  0  0
   -1.2268   -1.4498   -0.2623 C   0  0  0  0  0  0  0  0  0  0  0  0
    0.0247   -2.1576   -0.5135 C   0  0  0  0  0  0  0  0  0  0  0  0
    1.3329   -1.6816   -0.4475 C   0  0  0  0  0  0  0  0  0  0  0  0
    1.8342   -0.3862    0.0113 C   0  0  0  0  0  0  0  0  0  0  0  0
    1.1189    0.4647    0.5304 O   0  0  0  0  0  0  0  0  0  0  0  0
    3.2011   -0.2555   -0.1975 N   0  0  0  0  0  0  0  0  0  0  0  0
    3.8619    0.8769    0.1752 N   0  0  0  0  0  0  0  0  0  0  0  0
    5.1320    0.8846   -0.0772 C   0  0  0  0  0  0  0  0  0  0  0  0
    5.9863    2.0387    0.2653 C   0  0  0  0  0  0  0  0  0  0  0  0
    5.4453    3.1749    0.8742 C   0  0  0  0  0  0  0  0  0  0  0  0
    6.2733    4.2534    1.1880 C   0  0  0  0  0  0  0  0  0  0  0  0
    7.6362    4.1960    0.8944 C   0  0  0  0  0  0  0  0  0  0  0  0
    8.1751    3.0612    0.2864 C   0  0  0  0  0  0  0  0  0  0  0  0
    7.3515    1.9792   -0.0301 C   0  0  0  0  0  0  0  0  0  0  0  0
    2.1862   -2.6238   -0.9526 N   0  0  0  0  0  0  0  0  0  0  0  0
    1.4730   -3.6593   -1.3450 N   0  0  0  0  0  0  0  0  0  0  0  0
    0.1589   -3.4620   -1.0149 N   0  0  0  0  0  0  0  0  0  0  0  0
   -0.7944   -4.5047   -1.2012 C   0  0  0  0  0  0  0  0  0  0  0  0
   -0.4315   -5.5253   -1.9893 N   0  0  0  0  0  0  0  0  0  0  0  0
   -1.5406   -6.3543   -2.0340 O   0  0  0  0  0  0  0  0  0  0  0  0
   -2.5617   -5.8593   -1.2419 N   0  0  0  0  0  0  0  0  0  0  0  0
   -2.0927   -4.7337   -0.7020 C   0  0  0  0  0  0  0  0  0  0  0  0
   -2.8046   -4.0393    0.2022 N   0  0  0  0  0  0  0  0  0  0  0  0
   -2.1459   -1.2419   -1.2969 C   0  0  0  0  0  0  0  0  0  0  0  0
   -3.3421   -0.5621   -1.0498 C   0  0  0  0  0  0  0  0  0  0  0  0
   -5.6499    3.8143    0.6142 H   0  0  0  0  0  0  0  0  0  0  0  0
   -7.3854    3.5838    0.3419 H   0  0  0  0  0  0  0  0  0  0  0  0
   -6.2138    2.6658   -0.6155 H   0  0  0  0  0  0  0  0  0  0  0  0
   -7.2326    1.2529    1.1595 H   0  0  0  0  0  0  0  0  0  0  0  0
   -6.7179    2.4057    2.4009 H   0  0  0  0  0  0  0  0  0  0  0  0
   -4.3226    1.9721    1.7879 H   0  0  0  0  0  0  0  0  0  0  0  0
   -5.1867    0.5093    2.3631 H   0  0  0  0  0  0  0  0  0  0  0  0
   -2.8836    0.1327    2.2512 H   0  0  0  0  0  0  0  0  0  0  0  0
   -0.8027   -1.0483    1.8256 H   0  0  0  0  0  0  0  0  0  0  0  0
    3.7034   -1.0228   -0.6359 H   0  0  0  0  0  0  0  0  0  0  0  0
    5.6321    0.0258   -0.5607 H   0  0  0  0  0  0  0  0  0  0  0  0
    4.3831    3.2259    1.1049 H   0  0  0  0  0  0  0  0  0  0  0  0
    5.8541    5.1380    1.6611 H   0  0  0  0  0  0  0  0  0  0  0  0
    8.2789    5.0381    1.1398 H   0  0  0  0  0  0  0  0  0  0  0  0
    9.2378    3.0218    0.0593 H   0  0  0  0  0  0  0  0  0  0  0  0
    7.7843    1.1023   -0.5035 H   0  0  0  0  0  0  0  0  0  0  0  0
   -2.3892   -3.4054    0.8734 H   0  0  0  0  0  0  0  0  0  0  0  0
   -3.6705   -4.4533    0.5362 H   0  0  0  0  0  0  0  0  0  0  0  0
   -1.9489   -1.5989   -2.3052 H   0  0  0  0  0  0  0  0  0  0  0  0
   -4.0522   -0.4116   -1.8598 H   0  0  0  0  0  0  0  0  0  0  0  0
  1  2  1  0
  2  3  1  0
  3  4  1  0
  4  5  1  0
  5  6  2  0
  6  7  1  0
  7  8  2  0
  8  9  1  0
  9 10  2  0
 10 11  1  0
 11 12  2  0
 11 13  1  0
 13 14  1  0
 14 15  2  3
 15 16  1  0
 16 17  2  0
 17 18  1  0
 18 19  2  0
 19 20  1  0
 20 21  2  0
 10 22  1  0
 22 23  2  0
 23 24  1  0
 24 25  1  0
 25 26  2  0
 26 27  1  0
 27 28  1  0
 28 29  2  0
 29 30  1  0
  8 31  1  0
 31 32  2  0
 32  5  1  0
 24  9  1  0
 29 25  1  0
 21 16  1  0
  1 33  1  0
  1 34  1  0
  1 35  1  0
  2 36  1  0
  2 37  1  0
  3 38  1  0
  3 39  1  0
  6 40  1  0
  7 41  1  0
 13 42  1  0
 15 43  1  0
 17 44  1  0
 18 45  1  0
 19 46  1  0
 20 47  1  0
 21 48  1  0
 30 49  1  0
 30 50  1  0
 31 51  1  0
 32 52  1  0
M  END
$$$$
