
     RDKit          3D

 36 37  0  0  0  0  0  0  0  0999 V2000
   -0.4854   -1.4397    0.7402 O   0  0  0  0  0  0  0  0  0  0  0  0
    0.1929   -0.4349    0.5412 C   0  0  0  0  0  0  0  0  0  0  0  0
   -0.3106    0.9829    0.8278 C   0  0  0  0  0  0  0  0  0  0  0  0
   -1.7302    1.0525    0.9315 O   0  0  0  0  0  0  0  0  0  0  0  0
   -2.3636    0.9413   -0.2594 C   0  0  0  0  0  0  0  0  0  0  0  0
   -1.8527    0.8797   -1.3644 O   0  0  0  0  0  0  0  0  0  0  0  0
   -3.8056    0.8021   -0.0202 C   0  0  0  0  0  0  0  0  0  0  0  0
   -4.4099   -0.3867   -0.4509 C   0  0  0  0  0  0  0  0  0  0  0  0
   -5.7750   -0.5718   -0.2511 C   0  0  0  0  0  0  0  0  0  0  0  0
   -6.5262   -2.0292   -0.7688 Cl  0  0  0  0  0  0  0  0  0  0  0  0
   -6.5399    0.4183    0.3656 C   0  0  0  0  0  0  0  0  0  0  0  0
   -5.9362    1.6090    0.7810 C   0  0  0  0  0  0  0  0  0  0  0  0
   -4.5658    1.8077    0.5858 C   0  0  0  0  0  0  0  0  0  0  0  0
   -3.8936    3.3221    1.0706 Cl  0  0  0  0  0  0  0  0  0  0  0  0
    1.4808   -0.4822    0.0560 N   0  0  0  0  0  0  0  0  0  0  0  0
    2.1292   -1.7418   -0.2605 C   0  0  0  0  0  0  0  0  0  0  0  0
    3.4744   -1.5479   -0.9662 C   0  0  0  0  0  0  0  0  0  0  0  0
    4.4821   -0.9454   -0.1070 N   0  0  0  0  0  0  0  0  0  0  0  0
    4.6551    0.4076    0.0521 C   0  0  0  0  0  0  0  0  0  0  0  0
    3.8297    1.2652   -0.6153 O   0  0  0  0  0  0  0  0  0  0  0  0
    5.6385    0.7484    0.8927 C   0  0  0  0  0  0  0  0  0  0  0  0
    6.4089   -0.6573    1.5626 S   0  0  0  0  0  0  0  0  0  0  0  0
    5.3280   -1.7347    0.6577 C   0  0  0  0  0  0  0  0  0  0  0  0
    5.3650   -2.9512    0.7313 O   0  0  0  0  0  0  0  0  0  0  0  0
    0.0570    1.6881    0.0727 H   0  0  0  0  0  0  0  0  0  0  0  0
    0.1035    1.2889    1.7945 H   0  0  0  0  0  0  0  0  0  0  0  0
   -3.8118   -1.1598   -0.9297 H   0  0  0  0  0  0  0  0  0  0  0  0
   -7.6065    0.2722    0.5204 H   0  0  0  0  0  0  0  0  0  0  0  0
   -6.5435    2.3801    1.2501 H   0  0  0  0  0  0  0  0  0  0  0  0
    1.9936    0.3751   -0.1274 H   0  0  0  0  0  0  0  0  0  0  0  0
    1.4523   -2.3150   -0.9041 H   0  0  0  0  0  0  0  0  0  0  0  0
    2.2510   -2.2974    0.6762 H   0  0  0  0  0  0  0  0  0  0  0  0
    3.8417   -2.5293   -1.2892 H   0  0  0  0  0  0  0  0  0  0  0  0
    3.3588   -0.9354   -1.8683 H   0  0  0  0  0  0  0  0  0  0  0  0
    4.1805    2.1670   -0.4998 H   0  0  0  0  0  0  0  0  0  0  0  0
    5.9337    1.7515    1.1630 H   0  0  0  0  0  0  0  0  0  0  0  0
  1  2  2  0
  2  3  1  0
  3  4  1  0
  4  5  1  0
  5  6  2  0
  5  7  1  0
  7  8  2  0
  8  9  1  0
  9 10  1  0
  9 11  2  0
 11 12  1  0
 12 13  2  0
 13 14  1  0
  2 15  1  0
 15 16  1  0
 16 17  1  0
 17 18  1  0
 18 19  1  0
 19 20  1  0
 19 21  2  0
 21 22  1  0
 22 23  1  0
 23 24  2  0
 13  7  1  0
 23 18  1  0
  3 25  1  0
  3 26  1  0
  8 27  1  0
 11 28  1  0
 12 29  1  0
 15 30  1  0
 16 31  1  0
 16 32  1  0
 17 33  1  0
 17 34  1  0
 20 35  1  0
 21 36  1  0
M  END
$$$$
