
     RDKit          3D

 60 65  0  0  0  0  0  0  0  0999 V2000
    3.5764   -2.9400   -3.7863 C   0  0  0  0  0  0  0  0  0  0  0  0
    4.3928   -2.5273   -2.6225 C   0  0  0  0  0  0  0  0  0  0  0  0
    5.3959   -3.2988   -2.1857 N   0  0  0  0  0  0  0  0  0  0  0  0
    5.9675   -2.6091   -1.1320 O   0  0  0  0  0  0  0  0  0  0  0  0
    5.2993   -1.4411   -0.9361 C   0  0  0  0  0  0  0  0  0  0  0  0
    5.8181   -0.5637    0.1290 C   0  0  0  0  0  0  0  0  0  0  0  0
    4.2554   -1.3608   -1.8304 C   0  0  0  0  0  0  0  0  0  0  0  0
    3.3031   -0.2853   -1.9728 C   0  0  0  0  0  0  0  0  0  0  0  0
    3.3479    0.4469   -2.9567 O   0  0  0  0  0  0  0  0  0  0  0  0
    2.3339   -0.1538   -0.9723 N   0  0  0  0  0  0  0  0  0  0  0  0
    2.0768   -1.1763    0.0428 C   0  0  0  0  0  0  0  0  0  0  0  0
    1.0785   -0.7010    1.0943 C   0  0  0  0  0  0  0  0  0  0  0  0
   -0.3003   -0.3108    0.4703 C   0  0  0  0  0  0  0  0  0  0  0  0
   -0.0682    0.2952   -0.9475 C   0  0  0  0  0  0  0  0  0  0  0  0
    1.3235    0.8930   -1.1106 C   0  0  0  0  0  0  0  0  0  0  0  0
   -1.0716   -1.5176    0.2229 O   0  0  0  0  0  0  0  0  0  0  0  0
   -1.6273   -2.1207    1.3169 C   0  0  0  0  0  0  0  0  0  0  0  0
   -2.0629   -3.4344    1.1391 C   0  0  0  0  0  0  0  0  0  0  0  0
   -2.6187   -4.1339    2.2116 C   0  0  0  0  0  0  0  0  0  0  0  0
   -2.7382   -3.5136    3.4519 C   0  0  0  0  0  0  0  0  0  0  0  0
   -3.2714   -4.1903    4.4765 F   0  0  0  0  0  0  0  0  0  0  0  0
   -2.3219   -2.2022    3.6410 C   0  0  0  0  0  0  0  0  0  0  0  0
   -1.7749   -1.5052    2.5613 C   0  0  0  0  0  0  0  0  0  0  0  0
   -1.3640   -0.0966    2.7105 C   0  0  0  0  0  0  0  0  0  0  0  0
   -1.3040    0.4050    3.8274 O   0  0  0  0  0  0  0  0  0  0  0  0
   -1.0990    0.6456    1.4049 C   0  0  0  0  0  0  0  0  0  0  0  0
   -2.4470    1.1346    0.8820 C   0  0  0  0  0  0  0  0  0  0  0  0
   -2.0925    2.5465    0.5684 C   0  0  0  0  0  0  0  0  0  0  0  0
   -3.0154    3.4444   -0.1649 C   0  0  0  0  0  0  0  0  0  0  0  0
   -4.3113    3.0396   -0.5083 C   0  0  0  0  0  0  0  0  0  0  0  0
   -5.1549    3.9118   -1.2048 C   0  0  0  0  0  0  0  0  0  0  0  0
   -4.7058    5.1845   -1.5559 C   0  0  0  0  0  0  0  0  0  0  0  0
   -5.7473    6.2509   -2.4135 Cl  0  0  0  0  0  0  0  0  0  0  0  0
   -3.4197    5.5965   -1.2148 C   0  0  0  0  0  0  0  0  0  0  0  0
   -2.5751    4.7275   -0.5185 C   0  0  0  0  0  0  0  0  0  0  0  0
   -0.9209    2.9159    0.9736 N   0  0  0  0  0  0  0  0  0  0  0  0
   -0.3415    1.8302    1.6649 O   0  0  0  0  0  0  0  0  0  0  0  0
    3.6581   -2.2021   -4.5908 H   0  0  0  0  0  0  0  0  0  0  0  0
    3.8987   -3.9083   -4.1826 H   0  0  0  0  0  0  0  0  0  0  0  0
    2.5227   -3.0258   -3.5023 H   0  0  0  0  0  0  0  0  0  0  0  0
    5.4420   -0.8857    1.1049 H   0  0  0  0  0  0  0  0  0  0  0  0
    6.9121   -0.5897    0.1567 H   0  0  0  0  0  0  0  0  0  0  0  0
    5.5118    0.4750   -0.0326 H   0  0  0  0  0  0  0  0  0  0  0  0
    1.7017   -2.0701   -0.4701 H   0  0  0  0  0  0  0  0  0  0  0  0
    3.0129   -1.4481    0.5365 H   0  0  0  0  0  0  0  0  0  0  0  0
    0.9709   -1.4983    1.8378 H   0  0  0  0  0  0  0  0  0  0  0  0
    1.5188    0.1588    1.6146 H   0  0  0  0  0  0  0  0  0  0  0  0
   -0.8166    1.0497   -1.2006 H   0  0  0  0  0  0  0  0  0  0  0  0
   -0.1970   -0.4899   -1.7067 H   0  0  0  0  0  0  0  0  0  0  0  0
    1.3988    1.3877   -2.0837 H   0  0  0  0  0  0  0  0  0  0  0  0
    1.5246    1.6521   -0.3473 H   0  0  0  0  0  0  0  0  0  0  0  0
   -1.9599   -3.9195    0.1710 H   0  0  0  0  0  0  0  0  0  0  0  0
   -2.9553   -5.1596    2.0904 H   0  0  0  0  0  0  0  0  0  0  0  0
   -2.4345   -1.7366    4.6162 H   0  0  0  0  0  0  0  0  0  0  0  0
   -2.7948    0.5902    0.0003 H   0  0  0  0  0  0  0  0  0  0  0  0
   -3.2357    1.1305    1.6429 H   0  0  0  0  0  0  0  0  0  0  0  0
   -4.6927    2.0583   -0.2413 H   0  0  0  0  0  0  0  0  0  0  0  0
   -6.1611    3.5943   -1.4682 H   0  0  0  0  0  0  0  0  0  0  0  0
   -3.0675    6.5897   -1.4837 H   0  0  0  0  0  0  0  0  0  0  0  0
   -1.5730    5.0619   -0.2541 H   0  0  0  0  0  0  0  0  0  0  0  0
  1  2  1  0
  2  3  2  0
  3  4  1  0
  4  5  1  0
  5  6  1  0
  5  7  2  0
  7  8  1  0
  8  9  2  0
  8 10  1  0
 10 11  1  0
 11 12  1  0
 12 13  1  0
 13 14  1  0
 14 15  1  0
 13 16  1  0
 16 17  1  0
 17 18  2  0
 18 19  1  0
 19 20  2  0
 20 21  1  0
 20 22  1  0
 22 23  2  0
 23 24  1  0
 24 25  2  0
 24 26  1  0
 26 27  1  0
 27 28  1  0
 28 29  1  0
 29 30  2  0
 30 31  1  0
 31 32  2  0
 32 33  1  0
 32 34  1  0
 34 35  2  0
 28 36  2  0
 36 37  1  0
  7  2  1  0
 15 10  1  0
 23 17  1  0
 37 26  1  0
 26 13  1  0
 35 29  1  0
  1 38  1  0
  1 39  1  0
  1 40  1  0
  6 41  1  0
  6 42  1  0
  6 43  1  0
 11 44  1  0
 11 45  1  0
 12 46  1  0
 12 47  1  0
 14 48  1  0
 14 49  1  0
 15 50  1  0
 15 51  1  0
 18 52  1  0
 19 53  1  0
 22 54  1  0
 27 55  1  0
 27 56  1  0
 30 57  1  0
 31 58  1  0
 34 59  1  0
 35 60  1  0
M  END
$$$$
