
     RDKit          3D

 47 48  0  0  0  0  0  0  0  0999 V2000
    1.2488    1.2909    4.7675 C   0  0  0  0  0  0  0  0  0  0  0  0
    2.3439    1.8289    3.8673 C   0  0  0  0  0  0  0  0  0  0  0  0
    2.0035    1.5040    2.5132 O   0  0  0  0  0  0  0  0  0  0  0  0
    2.9063    1.9202    1.5856 C   0  0  0  0  0  0  0  0  0  0  0  0
    3.9366    2.5254    1.8449 O   0  0  0  0  0  0  0  0  0  0  0  0
    2.5051    1.5323    0.2029 C   0  0  0  0  0  0  0  0  0  0  0  0
    3.5215    1.6583   -0.7830 C   0  0  0  0  0  0  0  0  0  0  0  0
    4.3334    1.7534   -1.6079 N   0  0  0  0  0  0  0  0  0  0  0  0
    1.2588    1.0788   -0.0489 C   0  0  0  0  0  0  0  0  0  0  0  0
    0.6198    0.6370   -1.2976 C   0  0  0  0  0  0  0  0  0  0  0  0
   -0.4540   -0.2022   -1.2772 C   0  0  0  0  0  0  0  0  0  0  0  0
   -0.8941   -0.8114   -0.0823 N   0  0  0  0  0  0  0  0  0  0  0  0
   -0.0634   -1.8324    0.6055 C   0  0  0  0  0  0  0  0  0  0  0  0
   -0.9459   -2.9045    1.2621 C   0  0  0  0  0  0  0  0  0  0  0  0
   -1.8615   -2.3746    2.2333 O   0  0  0  0  0  0  0  0  0  0  0  0
   -2.3070   -1.0443    1.9248 C   0  0  0  0  0  0  0  0  0  0  0  0
   -2.2761   -0.7193    0.4231 C   0  0  0  0  0  0  0  0  0  0  0  0
   -1.1733   -0.5974   -2.6066 C   0  0  0  0  0  0  0  0  0  0  0  0
   -2.5728    0.0292   -2.7317 C   0  0  0  0  0  0  0  0  0  0  0  0
   -1.2867   -2.1248   -2.7413 C   0  0  0  0  0  0  0  0  0  0  0  0
   -0.4152   -0.2068   -3.7738 O   0  0  0  0  0  0  0  0  0  0  0  0
    0.0777    1.1228   -3.7068 C   0  0  0  0  0  0  0  0  0  0  0  0
    1.1164    1.2136   -2.6035 C   0  0  0  0  0  0  0  0  0  0  0  0
    0.2812    1.7296    4.5017 H   0  0  0  0  0  0  0  0  0  0  0  0
    1.1495    0.2068    4.6478 H   0  0  0  0  0  0  0  0  0  0  0  0
    1.4616    1.5129    5.8168 H   0  0  0  0  0  0  0  0  0  0  0  0
    2.4158    2.9165    3.9792 H   0  0  0  0  0  0  0  0  0  0  0  0
    3.3011    1.3649    4.1297 H   0  0  0  0  0  0  0  0  0  0  0  0
    0.5717    1.0088    0.7961 H   0  0  0  0  0  0  0  0  0  0  0  0
    0.5330   -1.3365    1.3793 H   0  0  0  0  0  0  0  0  0  0  0  0
    0.6216   -2.3106   -0.1039 H   0  0  0  0  0  0  0  0  0  0  0  0
   -0.3219   -3.6462    1.7707 H   0  0  0  0  0  0  0  0  0  0  0  0
   -1.5328   -3.4365    0.5044 H   0  0  0  0  0  0  0  0  0  0  0  0
   -3.3252   -0.9416    2.3129 H   0  0  0  0  0  0  0  0  0  0  0  0
   -1.6708   -0.3450    2.4803 H   0  0  0  0  0  0  0  0  0  0  0  0
   -2.6665    0.2917    0.2643 H   0  0  0  0  0  0  0  0  0  0  0  0
   -2.9108   -1.4335   -0.1115 H   0  0  0  0  0  0  0  0  0  0  0  0
   -2.5656    1.0890   -2.4538 H   0  0  0  0  0  0  0  0  0  0  0  0
   -2.9290   -0.0222   -3.7674 H   0  0  0  0  0  0  0  0  0  0  0  0
   -3.3141   -0.4712   -2.1034 H   0  0  0  0  0  0  0  0  0  0  0  0
   -1.9243   -2.5704   -1.9723 H   0  0  0  0  0  0  0  0  0  0  0  0
   -1.6998   -2.3981   -3.7198 H   0  0  0  0  0  0  0  0  0  0  0  0
   -0.2976   -2.5950   -2.6836 H   0  0  0  0  0  0  0  0  0  0  0  0
   -0.7390    1.8381   -3.5610 H   0  0  0  0  0  0  0  0  0  0  0  0
    0.5413    1.3582   -4.6705 H   0  0  0  0  0  0  0  0  0  0  0  0
    1.3965    2.2671   -2.4930 H   0  0  0  0  0  0  0  0  0  0  0  0
    2.0025    0.6461   -2.9124 H   0  0  0  0  0  0  0  0  0  0  0  0
  1  2  1  0
  2  3  1  0
  3  4  1  0
  4  5  2  0
  4  6  1  0
  6  7  1  0
  7  8  3  0
  6  9  2  3
  9 10  1  0
 10 11  2  0
 11 12  1  0
 12 13  1  0
 13 14  1  0
 14 15  1  0
 15 16  1  0
 16 17  1  0
 11 18  1  0
 18 19  1  0
 18 20  1  0
 18 21  1  0
 21 22  1  0
 22 23  1  0
 23 10  1  0
 17 12  1  0
  1 24  1  0
  1 25  1  0
  1 26  1  0
  2 27  1  0
  2 28  1  0
  9 29  1  0
 13 30  1  0
 13 31  1  0
 14 32  1  0
 14 33  1  0
 16 34  1  0
 16 35  1  0
 17 36  1  0
 17 37  1  0
 19 38  1  0
 19 39  1  0
 19 40  1  0
 20 41  1  0
 20 42  1  0
 20 43  1  0
 22 44  1  0
 22 45  1  0
 23 46  1  0
 23 47  1  0
M  END
$$$$
