
     RDKit          3D

 43 45  0  0  0  0  0  0  0  0999 V2000
    7.6806    1.1255    1.1861 O   0  0  0  0  0  0  0  0  0  0  0  0
    8.1317    0.1468    0.6160 C   0  0  0  0  0  0  0  0  0  0  0  0
    9.4618    0.0526    0.3961 O   0  0  0  0  0  0  0  0  0  0  0  0
    7.3953   -1.0758    0.1251 C   0  0  0  0  0  0  0  0  0  0  0  0
    5.8966   -0.9064    0.0531 C   0  0  0  0  0  0  0  0  0  0  0  0
    5.2592   -0.7130   -1.1780 C   0  0  0  0  0  0  0  0  0  0  0  0
    3.8700   -0.5526   -1.2477 C   0  0  0  0  0  0  0  0  0  0  0  0
    3.0947   -0.5739   -0.0890 C   0  0  0  0  0  0  0  0  0  0  0  0
    1.6921   -0.4224   -0.0740 N   0  0  0  0  0  0  0  0  0  0  0  0
    0.8644   -0.1632   -1.1514 C   0  0  0  0  0  0  0  0  0  0  0  0
    1.2004    0.0395   -2.3112 O   0  0  0  0  0  0  0  0  0  0  0  0
   -0.5861   -0.1001   -0.8180 C   0  0  0  0  0  0  0  0  0  0  0  0
   -1.1685   -0.9799    0.0994 C   0  0  0  0  0  0  0  0  0  0  0  0
   -2.5374   -0.8910    0.3783 C   0  0  0  0  0  0  0  0  0  0  0  0
   -3.3412    0.0694   -0.2538 C   0  0  0  0  0  0  0  0  0  0  0  0
   -4.7098    0.0837    0.0904 N   0  0  0  0  0  0  0  0  0  0  0  0
   -5.6945    0.9560   -0.3596 C   0  0  0  0  0  0  0  0  0  0  0  0
   -5.4864    1.8893   -1.1290 O   0  0  0  0  0  0  0  0  0  0  0  0
   -7.0232    0.6762    0.1753 C   0  0  0  0  0  0  0  0  0  0  0  0
   -7.5446   -0.3229    0.9838 C   0  0  0  0  0  0  0  0  0  0  0  0
   -8.9243   -0.0436    1.1534 C   0  0  0  0  0  0  0  0  0  0  0  0
   -9.1704    1.1038    0.4418 C   0  0  0  0  0  0  0  0  0  0  0  0
   -8.0349    1.5449   -0.1513 O   0  0  0  0  0  0  0  0  0  0  0  0
   -2.7534    0.9316   -1.1815 C   0  0  0  0  0  0  0  0  0  0  0  0
   -1.3852    0.8438   -1.4679 C   0  0  0  0  0  0  0  0  0  0  0  0
    3.7311   -0.7644    1.1434 C   0  0  0  0  0  0  0  0  0  0  0  0
    5.1181   -0.9289    1.2155 C   0  0  0  0  0  0  0  0  0  0  0  0
    9.8164    0.8912    0.7606 H   0  0  0  0  0  0  0  0  0  0  0  0
    7.6320   -1.9124    0.7929 H   0  0  0  0  0  0  0  0  0  0  0  0
    7.7793   -1.3316   -0.8699 H   0  0  0  0  0  0  0  0  0  0  0  0
    5.8333   -0.6837   -2.1018 H   0  0  0  0  0  0  0  0  0  0  0  0
    3.4257   -0.4103   -2.2279 H   0  0  0  0  0  0  0  0  0  0  0  0
    1.2631   -0.4368    0.8414 H   0  0  0  0  0  0  0  0  0  0  0  0
   -0.5807   -1.7576    0.5796 H   0  0  0  0  0  0  0  0  0  0  0  0
   -2.9652   -1.5913    1.0917 H   0  0  0  0  0  0  0  0  0  0  0  0
   -4.9977   -0.6146    0.7588 H   0  0  0  0  0  0  0  0  0  0  0  0
   -7.0117   -1.1631    1.4044 H   0  0  0  0  0  0  0  0  0  0  0  0
   -9.6502   -0.6094    1.7207 H   0  0  0  0  0  0  0  0  0  0  0  0
  -10.0527    1.7033    0.2636 H   0  0  0  0  0  0  0  0  0  0  0  0
   -3.3278    1.6838   -1.7140 H   0  0  0  0  0  0  0  0  0  0  0  0
   -0.9475    1.5187   -2.2017 H   0  0  0  0  0  0  0  0  0  0  0  0
    3.1611   -0.7807    2.0683 H   0  0  0  0  0  0  0  0  0  0  0  0
    5.5864   -1.0621    2.1885 H   0  0  0  0  0  0  0  0  0  0  0  0
  1  2  2  0
  2  3  1  0
  2  4  1  0
  4  5  1  0
  5  6  2  0
  6  7  1  0
  7  8  2  0
  8  9  1  0
  9 10  1  0
 10 11  2  0
 10 12  1  0
 12 13  2  0
 13 14  1  0
 14 15  2  0
 15 16  1  0
 16 17  1  0
 17 18  2  0
 17 19  1  0
 19 20  2  0
 20 21  1  0
 21 22  2  0
 22 23  1  0
 15 24  1  0
 24 25  2  0
  8 26  1  0
 26 27  2  0
 27  5  1  0
 25 12  1  0
 23 19  1  0
  3 28  1  0
  4 29  1  0
  4 30  1  0
  6 31  1  0
  7 32  1  0
  9 33  1  0
 13 34  1  0
 14 35  1  0
 16 36  1  0
 20 37  1  0
 21 38  1  0
 22 39  1  0
 24 40  1  0
 25 41  1  0
 26 42  1  0
 27 43  1  0
M  END
$$$$
