
     RDKit          3D

 39 40  0  0  0  0  0  0  0  0999 V2000
   -0.9794    2.1136   -1.0935 C   0  0  0  0  0  0  0  0  0  0  0  0
   -1.7619    1.0010   -0.4241 C   0  0  0  0  0  0  0  0  0  0  0  0
   -1.8112    0.8541    0.9135 C   0  0  0  0  0  0  0  0  0  0  0  0
   -1.0499    1.7392    1.8353 C   0  0  0  0  0  0  0  0  0  0  0  0
    0.2306    1.9040    1.9466 N   0  0  0  0  0  0  0  0  0  0  0  0
    1.0438    1.1002    1.2041 N   0  0  0  0  0  0  0  0  0  0  0  0
    2.4117    1.2991    1.1849 C   0  0  0  0  0  0  0  0  0  0  0  0
    2.9894    2.2339    1.7335 O   0  0  0  0  0  0  0  0  0  0  0  0
    3.2108    0.2893    0.4158 C   0  0  0  0  0  0  0  0  0  0  0  0
    4.6055    0.4634    0.3956 C   0  0  0  0  0  0  0  0  0  0  0  0
    5.4187   -0.4317   -0.2974 C   0  0  0  0  0  0  0  0  0  0  0  0
    7.2919   -0.1792   -0.3178 Br  0  0  0  0  0  0  0  0  0  0  0  0
    4.8625   -1.5108   -0.9794 C   0  0  0  0  0  0  0  0  0  0  0  0
    3.4801   -1.6989   -0.9689 C   0  0  0  0  0  0  0  0  0  0  0  0
    2.6581   -0.8039   -0.2755 C   0  0  0  0  0  0  0  0  0  0  0  0
    1.3023   -1.0184   -0.2908 O   0  0  0  0  0  0  0  0  0  0  0  0
   -2.7025   -0.1643    1.5055 C   0  0  0  0  0  0  0  0  0  0  0  0
   -2.8957   -0.1714    2.7199 O   0  0  0  0  0  0  0  0  0  0  0  0
   -3.2757   -1.0634    0.6318 N   0  0  0  0  0  0  0  0  0  0  0  0
   -4.1158   -2.1085    1.1869 C   0  0  0  0  0  0  0  0  0  0  0  0
   -3.2432   -0.9332   -0.7490 C   0  0  0  0  0  0  0  0  0  0  0  0
   -3.8696   -1.6972   -1.4853 O   0  0  0  0  0  0  0  0  0  0  0  0
   -2.4674    0.1178   -1.2483 N   0  0  0  0  0  0  0  0  0  0  0  0
   -2.4302    0.2785   -2.7026 C   0  0  0  0  0  0  0  0  0  0  0  0
   -0.6118    2.8699   -0.3950 H   0  0  0  0  0  0  0  0  0  0  0  0
   -1.6079    2.6590   -1.8051 H   0  0  0  0  0  0  0  0  0  0  0  0
   -0.1142    1.7052   -1.6259 H   0  0  0  0  0  0  0  0  0  0  0  0
   -1.6882    2.3256    2.5193 H   0  0  0  0  0  0  0  0  0  0  0  0
    0.6684    0.2782    0.7367 H   0  0  0  0  0  0  0  0  0  0  0  0
    5.0538    1.3031    0.9251 H   0  0  0  0  0  0  0  0  0  0  0  0
    5.4974   -2.2087   -1.5204 H   0  0  0  0  0  0  0  0  0  0  0  0
    3.0665   -2.5470   -1.5077 H   0  0  0  0  0  0  0  0  0  0  0  0
    1.1228   -1.8418   -0.7818 H   0  0  0  0  0  0  0  0  0  0  0  0
   -4.0587   -3.0139    0.5745 H   0  0  0  0  0  0  0  0  0  0  0  0
   -3.8189   -2.3585    2.2098 H   0  0  0  0  0  0  0  0  0  0  0  0
   -5.1506   -1.7516    1.1927 H   0  0  0  0  0  0  0  0  0  0  0  0
   -2.9253   -0.5442   -3.2257 H   0  0  0  0  0  0  0  0  0  0  0  0
   -2.9448    1.2058   -2.9726 H   0  0  0  0  0  0  0  0  0  0  0  0
   -1.3912    0.3060   -3.0443 H   0  0  0  0  0  0  0  0  0  0  0  0
  1  2  1  0
  2  3  2  0
  3  4  1  0
  4  5  2  3
  5  6  1  0
  6  7  1  0
  7  8  2  0
  7  9  1  0
  9 10  2  0
 10 11  1  0
 11 12  1  0
 11 13  2  0
 13 14  1  0
 14 15  2  0
 15 16  1  0
  3 17  1  0
 17 18  2  0
 17 19  1  0
 19 20  1  0
 19 21  1  0
 21 22  2  0
 21 23  1  0
 23 24  1  0
 23  2  1  0
 15  9  1  0
  1 25  1  0
  1 26  1  0
  1 27  1  0
  4 28  1  0
  6 29  1  0
 10 30  1  0
 13 31  1  0
 14 32  1  0
 16 33  1  0
 20 34  1  0
 20 35  1  0
 20 36  1  0
 24 37  1  0
 24 38  1  0
 24 39  1  0
M  END
$$$$
