
     RDKit          3D

 45 47  0  0  0  0  0  0  0  0999 V2000
   -3.7525    1.2093   -1.8725 O   0  0  0  0  0  0  0  0  0  0  0  0
   -3.3561    0.7257   -0.8130 C   0  0  0  0  0  0  0  0  0  0  0  0
   -4.2824    0.4627    0.3686 C   0  0  0  0  0  0  0  0  0  0  0  0
   -5.7229    0.8583    0.1366 C   0  0  0  0  0  0  0  0  0  0  0  0
   -6.1628    2.1536    0.4472 C   0  0  0  0  0  0  0  0  0  0  0  0
   -7.4911    2.5223    0.2222 C   0  0  0  0  0  0  0  0  0  0  0  0
   -8.3836    1.6002   -0.3195 C   0  0  0  0  0  0  0  0  0  0  0  0
  -10.0202    2.0547   -0.5954 Cl  0  0  0  0  0  0  0  0  0  0  0  0
   -7.9591    0.3132   -0.6412 C   0  0  0  0  0  0  0  0  0  0  0  0
   -6.6310   -0.0566   -0.4166 C   0  0  0  0  0  0  0  0  0  0  0  0
   -1.9410    0.3724   -0.6428 C   0  0  0  0  0  0  0  0  0  0  0  0
   -0.9623    0.5634   -1.6006 C   0  0  0  0  0  0  0  0  0  0  0  0
    0.2363    0.1372   -1.0981 N   0  0  0  0  0  0  0  0  0  0  0  0
    0.0664   -0.3665    0.1721 C   0  0  0  0  0  0  0  0  0  0  0  0
    1.1034   -0.9066    1.0270 C   0  0  0  0  0  0  0  0  0  0  0  0
    0.9718   -1.0224    2.2404 O   0  0  0  0  0  0  0  0  0  0  0  0
    2.2499   -1.3077    0.3646 N   0  0  0  0  0  0  0  0  0  0  0  0
    3.2893   -2.0234    1.0814 C   0  0  0  0  0  0  0  0  0  0  0  0
    4.6563   -1.8285    0.4386 C   0  0  0  0  0  0  0  0  0  0  0  0
    5.1707   -0.4025    0.6305 C   0  0  0  0  0  0  0  0  0  0  0  0
    6.4735   -0.2144    0.0244 N   0  0  0  0  0  0  0  0  0  0  0  0
    6.7186    0.2009   -1.2539 C   0  0  0  0  0  0  0  0  0  0  0  0
    8.0900    0.2258   -1.3588 C   0  0  0  0  0  0  0  0  0  0  0  0
    8.6749   -0.1590   -0.1801 N   0  0  0  0  0  0  0  0  0  0  0  0
    7.6772   -0.4110    0.6369 C   0  0  0  0  0  0  0  0  0  0  0  0
   -1.2774   -0.2042    0.4776 C   0  0  0  0  0  0  0  0  0  0  0  0
   -4.2420   -0.6061    0.6128 H   0  0  0  0  0  0  0  0  0  0  0  0
   -3.9003    1.0081    1.2405 H   0  0  0  0  0  0  0  0  0  0  0  0
   -5.4734    2.8873    0.8597 H   0  0  0  0  0  0  0  0  0  0  0  0
   -7.8199    3.5289    0.4654 H   0  0  0  0  0  0  0  0  0  0  0  0
   -8.6530   -0.4035   -1.0717 H   0  0  0  0  0  0  0  0  0  0  0  0
   -6.3098   -1.0611   -0.6838 H   0  0  0  0  0  0  0  0  0  0  0  0
   -1.0296    0.9867   -2.5959 H   0  0  0  0  0  0  0  0  0  0  0  0
    1.1226    0.2171   -1.5786 H   0  0  0  0  0  0  0  0  0  0  0  0
    2.1378   -1.5398   -0.6122 H   0  0  0  0  0  0  0  0  0  0  0  0
    3.0140   -3.0837    1.0580 H   0  0  0  0  0  0  0  0  0  0  0  0
    3.3114   -1.7114    2.1313 H   0  0  0  0  0  0  0  0  0  0  0  0
    4.6091   -2.0717   -0.6305 H   0  0  0  0  0  0  0  0  0  0  0  0
    5.3645   -2.5338    0.8913 H   0  0  0  0  0  0  0  0  0  0  0  0
    4.4931    0.3307    0.1784 H   0  0  0  0  0  0  0  0  0  0  0  0
    5.2634   -0.1578    1.6950 H   0  0  0  0  0  0  0  0  0  0  0  0
    5.9345    0.4364   -1.9589 H   0  0  0  0  0  0  0  0  0  0  0  0
    8.6874    0.5011   -2.2184 H   0  0  0  0  0  0  0  0  0  0  0  0
    7.7729   -0.7364    1.6648 H   0  0  0  0  0  0  0  0  0  0  0  0
   -1.7186   -0.4878    1.4267 H   0  0  0  0  0  0  0  0  0  0  0  0
  1  2  2  0
  2  3  1  0
  3  4  1  0
  4  5  2  0
  5  6  1  0
  6  7  2  0
  7  8  1  0
  7  9  1  0
  9 10  2  0
  2 11  1  0
 11 12  2  0
 12 13  1  0
 13 14  1  0
 14 15  1  0
 15 16  2  0
 15 17  1  0
 17 18  1  0
 18 19  1  0
 19 20  1  0
 20 21  1  0
 21 22  1  0
 22 23  2  0
 23 24  1  0
 24 25  2  0
 14 26  2  0
 10  4  1  0
 26 11  1  0
 25 21  1  0
  3 27  1  0
  3 28  1  0
  5 29  1  0
  6 30  1  0
  9 31  1  0
 10 32  1  0
 12 33  1  0
 13 34  1  0
 17 35  1  0
 18 36  1  0
 18 37  1  0
 19 38  1  0
 19 39  1  0
 20 40  1  0
 20 41  1  0
 22 42  1  0
 23 43  1  0
 25 44  1  0
 26 45  1  0
M  END
$$$$
