
     RDKit          3D

 46 48  0  0  0  0  0  0  0  0999 V2000
   -4.8217   -1.3143   -1.9493 C   0  0  0  0  0  0  0  0  0  0  0  0
   -3.5142   -1.6042   -1.9001 C   0  0  0  0  0  0  0  0  0  0  0  0
   -2.4391   -0.6226   -1.5327 C   0  0  0  0  0  0  0  0  0  0  0  0
   -1.7342   -1.0144   -0.3274 N   0  0  0  0  0  0  0  0  0  0  0  0
   -0.5874   -1.7542   -0.2207 C   0  0  0  0  0  0  0  0  0  0  0  0
    0.2812   -2.3902   -1.5729 S   0  0  0  0  0  0  0  0  0  0  0  0
    1.8396   -2.9081   -0.7948 C   0  0  0  0  0  0  0  0  0  0  0  0
    2.8183   -1.7669   -0.6443 C   0  0  0  0  0  0  0  0  0  0  0  0
    3.6106   -1.3592   -1.7277 C   0  0  0  0  0  0  0  0  0  0  0  0
    4.5107   -0.2968   -1.5910 C   0  0  0  0  0  0  0  0  0  0  0  0
    4.6312    0.3772   -0.3699 C   0  0  0  0  0  0  0  0  0  0  0  0
    5.6012    1.5038   -0.2836 C   0  0  0  0  0  0  0  0  0  0  0  0
    6.3031    1.8596   -1.2173 O   0  0  0  0  0  0  0  0  0  0  0  0
    5.5839    2.0634    0.9523 O   0  0  0  0  0  0  0  0  0  0  0  0
    6.4902    3.1554    1.1090 C   0  0  0  0  0  0  0  0  0  0  0  0
    3.8401   -0.0227    0.7142 C   0  0  0  0  0  0  0  0  0  0  0  0
    2.9401   -1.0837    0.5754 C   0  0  0  0  0  0  0  0  0  0  0  0
   -0.2831   -1.9212    1.0451 N   0  0  0  0  0  0  0  0  0  0  0  0
   -1.2381   -1.2777    1.7947 N   0  0  0  0  0  0  0  0  0  0  0  0
   -2.1093   -0.7366    0.9665 C   0  0  0  0  0  0  0  0  0  0  0  0
   -3.2669   -0.0139    1.3754 C   0  0  0  0  0  0  0  0  0  0  0  0
   -4.6401   -0.8257    1.9993 S   0  0  0  0  0  0  0  0  0  0  0  0
   -5.4403    0.6794    2.1787 C   0  0  0  0  0  0  0  0  0  0  0  0
   -6.6904    0.7540    2.6617 N   0  0  0  0  0  0  0  0  0  0  0  0
   -4.7590    1.7307    1.7956 N   0  0  0  0  0  0  0  0  0  0  0  0
   -3.4924    1.3529    1.3689 C   0  0  0  0  0  0  0  0  0  0  0  0
   -2.5482    2.4255    0.9579 C   0  0  0  0  0  0  0  0  0  0  0  0
   -5.5490   -2.0746   -2.2250 H   0  0  0  0  0  0  0  0  0  0  0  0
   -5.2016   -0.3229   -1.7113 H   0  0  0  0  0  0  0  0  0  0  0  0
   -3.1934   -2.6146   -2.1502 H   0  0  0  0  0  0  0  0  0  0  0  0
   -2.8429    0.3826   -1.3763 H   0  0  0  0  0  0  0  0  0  0  0  0
   -1.7187   -0.5343   -2.3515 H   0  0  0  0  0  0  0  0  0  0  0  0
    1.6576   -3.4052    0.1650 H   0  0  0  0  0  0  0  0  0  0  0  0
    2.2900   -3.6730   -1.4403 H   0  0  0  0  0  0  0  0  0  0  0  0
    3.5313   -1.8647   -2.6878 H   0  0  0  0  0  0  0  0  0  0  0  0
    5.1171    0.0041   -2.4450 H   0  0  0  0  0  0  0  0  0  0  0  0
    6.3167    3.6008    2.0936 H   0  0  0  0  0  0  0  0  0  0  0  0
    7.5231    2.7962    1.0647 H   0  0  0  0  0  0  0  0  0  0  0  0
    6.3127    3.9239    0.3490 H   0  0  0  0  0  0  0  0  0  0  0  0
    3.9076    0.4831    1.6754 H   0  0  0  0  0  0  0  0  0  0  0  0
    2.3295   -1.3729    1.4297 H   0  0  0  0  0  0  0  0  0  0  0  0
   -7.2737   -0.0694    2.5992 H   0  0  0  0  0  0  0  0  0  0  0  0
   -7.1747    1.6253    2.4794 H   0  0  0  0  0  0  0  0  0  0  0  0
   -1.5171    2.1726    1.2188 H   0  0  0  0  0  0  0  0  0  0  0  0
   -2.6036    2.5859   -0.1234 H   0  0  0  0  0  0  0  0  0  0  0  0
   -2.7966    3.3676    1.4567 H   0  0  0  0  0  0  0  0  0  0  0  0
  1  2  2  0
  2  3  1  0
  3  4  1  0
  4  5  1  0
  5  6  1  0
  6  7  1  0
  7  8  1  0
  8  9  2  0
  9 10  1  0
 10 11  2  0
 11 12  1  0
 12 13  2  0
 12 14  1  0
 14 15  1  0
 11 16  1  0
 16 17  2  0
  5 18  2  0
 18 19  1  0
 19 20  2  0
 20 21  1  0
 21 22  1  0
 22 23  1  0
 23 24  1  0
 23 25  2  0
 25 26  1  0
 26 27  1  0
 20  4  1  0
 26 21  2  0
 17  8  1  0
  1 28  1  0
  1 29  1  0
  2 30  1  0
  3 31  1  0
  3 32  1  0
  7 33  1  0
  7 34  1  0
  9 35  1  0
 10 36  1  0
 15 37  1  0
 15 38  1  0
 15 39  1  0
 16 40  1  0
 17 41  1  0
 24 42  1  0
 24 43  1  0
 27 44  1  0
 27 45  1  0
 27 46  1  0
M  END
$$$$
