
     RDKit          3D

 46 49  0  0  0  0  0  0  0  0999 V2000
    1.0446   -0.2883   -2.3202 O   0  0  0  0  0  0  0  0  0  0  0  0
    1.5652    0.7764   -2.0108 C   0  0  0  0  0  0  0  0  0  0  0  0
    0.8640    1.8672   -1.2142 C   0  0  0  0  0  0  0  0  0  0  0  0
   -0.2836    1.3330   -0.4561 N   0  0  0  0  0  4  0  0  0  0  0  0
   -1.6094    1.7535   -0.5276 C   0  0  0  0  0  0  0  0  0  0  0  0
   -2.3813    0.9579    0.3130 C   0  0  0  0  0  0  0  0  0  0  0  0
   -3.9374    1.0555    0.5235 C   0  0  0  0  0  0  0  0  0  0  0  0
   -4.6720    2.0536   -0.1271 C   0  0  0  0  0  0  0  0  0  0  0  0
   -6.0567    2.1420    0.0571 C   0  0  0  0  0  0  0  0  0  0  0  0
   -6.7191    1.2359    0.8882 C   0  0  0  0  0  0  0  0  0  0  0  0
   -8.4261    1.4045    1.0685 Cl  0  0  0  0  0  0  0  0  0  0  0  0
   -5.9880    0.2362    1.5342 C   0  0  0  0  0  0  0  0  0  0  0  0
   -6.7287   -0.9311    2.5709 Cl  0  0  0  0  0  0  0  0  0  0  0  0
   -4.6009    0.1471    1.3503 C   0  0  0  0  0  0  0  0  0  0  0  0
   -1.4548    0.0999    0.8787 N   0  0  0  0  0  0  0  0  0  0  0  0
   -0.2359    0.3028    0.3848 C   0  0  0  0  0  0  0  0  0  0  0  0
    0.7807   -0.6279    0.9316 C   0  0  0  0  0  0  0  0  0  0  0  0
    0.0391   -1.2374    2.1363 C   0  0  0  0  0  0  0  0  0  0  0  0
   -1.4667   -0.9927    1.8444 C   0  0  0  0  0  0  0  0  0  0  0  0
    2.8485    1.1412   -2.2697 O   0  0  0  0  0  0  0  0  0  0  0  0
    3.6903    0.0929   -2.7769 C   0  0  0  0  0  0  0  0  0  0  0  0
    4.1683   -0.7493   -1.6212 C   0  0  0  0  0  0  0  0  0  0  0  0
    5.0452   -0.2117   -0.6672 C   0  0  0  0  0  0  0  0  0  0  0  0
    5.4664   -0.9805    0.4184 C   0  0  0  0  0  0  0  0  0  0  0  0
    5.0170   -2.2917    0.5615 C   0  0  0  0  0  0  0  0  0  0  0  0
    4.1448   -2.8354   -0.3794 C   0  0  0  0  0  0  0  0  0  0  0  0
    3.7188   -2.0675   -1.4649 C   0  0  0  0  0  0  0  0  0  0  0  0
    1.5562    2.2947   -0.4816 H   0  0  0  0  0  0  0  0  0  0  0  0
    0.5201    2.6451   -1.9013 H   0  0  0  0  0  0  0  0  0  0  0  0
   -1.8430    2.5695   -1.1901 H   0  0  0  0  0  0  0  0  0  0  0  0
   -4.2034    2.7826   -0.7828 H   0  0  0  0  0  0  0  0  0  0  0  0
   -6.6186    2.9232   -0.4528 H   0  0  0  0  0  0  0  0  0  0  0  0
   -4.0717   -0.6509    1.8552 H   0  0  0  0  0  0  0  0  0  0  0  0
    1.6727   -0.0638    1.2065 H   0  0  0  0  0  0  0  0  0  0  0  0
    0.9823   -1.3691    0.1567 H   0  0  0  0  0  0  0  0  0  0  0  0
    0.3194   -0.6888    3.0431 H   0  0  0  0  0  0  0  0  0  0  0  0
    0.2754   -2.2932    2.2944 H   0  0  0  0  0  0  0  0  0  0  0  0
   -1.9994   -0.7062    2.7536 H   0  0  0  0  0  0  0  0  0  0  0  0
   -1.9267   -1.8692    1.3790 H   0  0  0  0  0  0  0  0  0  0  0  0
    4.5498    0.5629   -3.2678 H   0  0  0  0  0  0  0  0  0  0  0  0
    3.1746   -0.4972   -3.5437 H   0  0  0  0  0  0  0  0  0  0  0  0
    5.4149    0.8067   -0.7709 H   0  0  0  0  0  0  0  0  0  0  0  0
    6.1596   -0.5634    1.1454 H   0  0  0  0  0  0  0  0  0  0  0  0
    5.3607   -2.8960    1.3979 H   0  0  0  0  0  0  0  0  0  0  0  0
    3.8069   -3.8640   -0.2756 H   0  0  0  0  0  0  0  0  0  0  0  0
    3.0378   -2.5093   -2.1913 H   0  0  0  0  0  0  0  0  0  0  0  0
  1  2  2  0
  2  3  1  0
  3  4  1  0
  4  5  1  0
  5  6  2  0
  6  7  1  0
  7  8  2  0
  8  9  1  0
  9 10  2  0
 10 11  1  0
 10 12  1  0
 12 13  1  0
 12 14  2  0
  6 15  1  0
 15 16  1  0
 16 17  1  0
 17 18  1  0
 18 19  1  0
  2 20  1  0
 20 21  1  0
 21 22  1  0
 22 23  2  0
 23 24  1  0
 24 25  2  0
 25 26  1  0
 26 27  2  0
 16  4  2  0
 27 22  1  0
 14  7  1  0
 19 15  1  0
  3 28  1  0
  3 29  1  0
  5 30  1  0
  8 31  1  0
  9 32  1  0
 14 33  1  0
 17 34  1  0
 17 35  1  0
 18 36  1  0
 18 37  1  0
 19 38  1  0
 19 39  1  0
 21 40  1  0
 21 41  1  0
 23 42  1  0
 24 43  1  0
 25 44  1  0
 26 45  1  0
 27 46  1  0
M  CHG  1   4   1
M  END
$$$$
