
     RDKit          3D

 46 49  0  0  0  0  0  0  0  0999 V2000
    1.6113   -1.4904    0.5139 O   0  0  0  0  0  0  0  0  0  0  0  0
    2.1389   -0.3948    0.6577 C   0  0  0  0  0  0  0  0  0  0  0  0
    1.4100    0.8469    1.1577 C   0  0  0  0  0  0  0  0  0  0  0  0
   -0.0439    0.6185    1.2586 N   0  0  0  0  0  4  0  0  0  0  0  0
   -1.0315    1.1346    0.4221 C   0  0  0  0  0  0  0  0  0  0  0  0
   -2.2638    0.6172    0.8068 C   0  0  0  0  0  0  0  0  0  0  0  0
   -3.6596    0.9444    0.1565 C   0  0  0  0  0  0  0  0  0  0  0  0
   -4.8332    0.3843    0.6644 C   0  0  0  0  0  0  0  0  0  0  0  0
   -6.0692    0.6838    0.0758 C   0  0  0  0  0  0  0  0  0  0  0  0
   -6.1426    1.5464   -1.0210 C   0  0  0  0  0  0  0  0  0  0  0  0
   -7.6996    1.8684   -1.6920 Cl  0  0  0  0  0  0  0  0  0  0  0  0
   -4.9704    2.1103   -1.5304 C   0  0  0  0  0  0  0  0  0  0  0  0
   -4.9705    3.1794   -2.8832 Cl  0  0  0  0  0  0  0  0  0  0  0  0
   -3.7327    1.8126   -0.9426 C   0  0  0  0  0  0  0  0  0  0  0  0
   -1.9424   -0.2202    1.8607 N   0  0  0  0  0  0  0  0  0  0  0  0
   -0.6380   -0.2027    2.1188 C   0  0  0  0  0  0  0  0  0  0  0  0
   -0.2518   -1.0620    3.2604 C   0  0  0  0  0  0  0  0  0  0  0  0
   -1.5316   -1.8848    3.5011 C   0  0  0  0  0  0  0  0  0  0  0  0
   -2.6591   -1.1192    2.7547 C   0  0  0  0  0  0  0  0  0  0  0  0
    3.4429   -0.1009    0.4297 O   0  0  0  0  0  0  0  0  0  0  0  0
    4.2314   -1.1262   -0.1947 C   0  0  0  0  0  0  0  0  0  0  0  0
    4.4681   -0.7079   -1.6203 C   0  0  0  0  0  0  0  0  0  0  0  0
    5.4859    0.2068   -1.9267 C   0  0  0  0  0  0  0  0  0  0  0  0
    5.6928    0.6221   -3.2439 C   0  0  0  0  0  0  0  0  0  0  0  0
    4.8799    0.1351   -4.2658 C   0  0  0  0  0  0  0  0  0  0  0  0
    3.8592   -0.7677   -3.9719 C   0  0  0  0  0  0  0  0  0  0  0  0
    3.6494   -1.1853   -2.6540 C   0  0  0  0  0  0  0  0  0  0  0  0
    1.5860    1.6733    0.4620 H   0  0  0  0  0  0  0  0  0  0  0  0
    1.7832    1.1103    2.1531 H   0  0  0  0  0  0  0  0  0  0  0  0
   -0.7272    1.8184   -0.3520 H   0  0  0  0  0  0  0  0  0  0  0  0
   -4.8327   -0.2835    1.5201 H   0  0  0  0  0  0  0  0  0  0  0  0
   -6.9780    0.2404    0.4812 H   0  0  0  0  0  0  0  0  0  0  0  0
   -2.8426    2.2688   -1.3669 H   0  0  0  0  0  0  0  0  0  0  0  0
    0.6074   -1.6720    2.9838 H   0  0  0  0  0  0  0  0  0  0  0  0
   -0.0243   -0.3886    4.0903 H   0  0  0  0  0  0  0  0  0  0  0  0
   -1.7496   -2.0175    4.5656 H   0  0  0  0  0  0  0  0  0  0  0  0
   -1.4137   -2.8809    3.0558 H   0  0  0  0  0  0  0  0  0  0  0  0
   -3.2896   -1.8116    2.1881 H   0  0  0  0  0  0  0  0  0  0  0  0
   -3.2587   -0.5229    3.4499 H   0  0  0  0  0  0  0  0  0  0  0  0
    5.1838   -1.1886    0.3430 H   0  0  0  0  0  0  0  0  0  0  0  0
    3.7747   -2.1217   -0.1395 H   0  0  0  0  0  0  0  0  0  0  0  0
    6.1297    0.5960   -1.1415 H   0  0  0  0  0  0  0  0  0  0  0  0
    6.4917    1.3228   -3.4764 H   0  0  0  0  0  0  0  0  0  0  0  0
    5.0514    0.4542   -5.2910 H   0  0  0  0  0  0  0  0  0  0  0  0
    3.2299   -1.1521   -4.7728 H   0  0  0  0  0  0  0  0  0  0  0  0
    2.8487   -1.8933   -2.4451 H   0  0  0  0  0  0  0  0  0  0  0  0
  1  2  2  0
  2  3  1  0
  3  4  1  0
  4  5  1  0
  5  6  2  0
  6  7  1  0
  7  8  2  0
  8  9  1  0
  9 10  2  0
 10 11  1  0
 10 12  1  0
 12 13  1  0
 12 14  2  0
  6 15  1  0
 15 16  1  0
 16 17  1  0
 17 18  1  0
 18 19  1  0
  2 20  1  0
 20 21  1  0
 21 22  1  0
 22 23  2  0
 23 24  1  0
 24 25  2  0
 25 26  1  0
 26 27  2  0
 16  4  2  0
 27 22  1  0
 14  7  1  0
 19 15  1  0
  3 28  1  0
  3 29  1  0
  5 30  1  0
  8 31  1  0
  9 32  1  0
 14 33  1  0
 17 34  1  0
 17 35  1  0
 18 36  1  0
 18 37  1  0
 19 38  1  0
 19 39  1  0
 21 40  1  0
 21 41  1  0
 23 42  1  0
 24 43  1  0
 25 44  1  0
 26 45  1  0
 27 46  1  0
M  CHG  1   4   1
M  END
$$$$
