
     RDKit          3D

 44 46  0  0  0  0  0  0  0  0999 V2000
   -2.5291    3.1021    0.6927 C   0  0  0  0  0  0  0  0  0  0  0  0
   -2.6197    2.2374   -0.4337 O   0  0  0  0  0  0  0  0  0  0  0  0
   -2.3673    0.9053   -0.2487 C   0  0  0  0  0  0  0  0  0  0  0  0
   -2.2092    0.3301    1.0220 C   0  0  0  0  0  0  0  0  0  0  0  0
   -1.9182   -1.0295    1.1717 C   0  0  0  0  0  0  0  0  0  0  0  0
   -1.7669   -1.8421    0.0500 C   0  0  0  0  0  0  0  0  0  0  0  0
   -1.3852   -3.2548    0.1613 C   0  0  0  0  0  0  0  0  0  0  0  0
   -0.2938   -3.7479    0.7832 C   0  0  0  0  0  0  0  0  0  0  0  0
   -0.0981   -5.1574    0.8544 C   0  0  0  0  0  0  0  0  0  0  0  0
    0.0300   -6.3110    0.8564 N   0  0  0  0  0  0  0  0  0  0  0  0
    0.7260   -2.9021    1.4807 C   0  0  0  0  0  0  0  0  0  0  0  0
    1.0407   -3.1803    2.6316 O   0  0  0  0  0  0  0  0  0  0  0  0
    1.2110   -1.8590    0.7132 N   0  0  0  0  0  0  0  0  0  0  0  0
    2.1189   -0.8365    1.1015 C   0  0  0  0  0  0  0  0  0  0  0  0
    2.8213   -0.9089    2.3086 C   0  0  0  0  0  0  0  0  0  0  0  0
    3.7086    0.0981    2.6718 C   0  0  0  0  0  0  0  0  0  0  0  0
    3.8993    1.1898    1.8310 C   0  0  0  0  0  0  0  0  0  0  0  0
    3.2254    1.3087    0.6285 C   0  0  0  0  0  0  0  0  0  0  0  0
    3.4718    2.4073   -0.1068 N   0  0  0  0  0  0  0  0  0  0  0  0
    2.8192    2.5579   -1.2758 C   0  0  0  0  0  0  0  0  0  0  0  0
    1.9115    1.6450   -1.7610 C   0  0  0  0  0  0  0  0  0  0  0  0
    1.6644    0.5066   -1.0001 C   0  0  0  0  0  0  0  0  0  0  0  0
    2.3195    0.2919    0.2387 C   0  0  0  0  0  0  0  0  0  0  0  0
   -1.9680   -1.2870   -1.2160 C   0  0  0  0  0  0  0  0  0  0  0  0
   -2.2642    0.0776   -1.3806 C   0  0  0  0  0  0  0  0  0  0  0  0
   -2.3851    0.4126   -2.7052 O   0  0  0  0  0  0  0  0  0  0  0  0
   -2.7635    1.7388   -3.0482 C   0  0  0  0  0  0  0  0  0  0  0  0
   -1.5364    3.0534    1.1500 H   0  0  0  0  0  0  0  0  0  0  0  0
   -3.3174    2.8796    1.4201 H   0  0  0  0  0  0  0  0  0  0  0  0
   -2.6817    4.1258    0.3385 H   0  0  0  0  0  0  0  0  0  0  0  0
   -2.2982    0.9179    1.9307 H   0  0  0  0  0  0  0  0  0  0  0  0
   -1.7941   -1.4307    2.1767 H   0  0  0  0  0  0  0  0  0  0  0  0
   -2.0831   -3.9405   -0.3203 H   0  0  0  0  0  0  0  0  0  0  0  0
    0.8139   -1.7646   -0.2097 H   0  0  0  0  0  0  0  0  0  0  0  0
    2.7162   -1.7475    2.9899 H   0  0  0  0  0  0  0  0  0  0  0  0
    4.2538    0.0310    3.6099 H   0  0  0  0  0  0  0  0  0  0  0  0
    4.5930    1.9739    2.1249 H   0  0  0  0  0  0  0  0  0  0  0  0
    3.0534    3.4652   -1.8241 H   0  0  0  0  0  0  0  0  0  0  0  0
    1.4040    1.8106   -2.7048 H   0  0  0  0  0  0  0  0  0  0  0  0
    0.9415   -0.1967   -1.3961 H   0  0  0  0  0  0  0  0  0  0  0  0
   -1.8786   -1.9081   -2.1068 H   0  0  0  0  0  0  0  0  0  0  0  0
   -2.8724    1.7803   -4.1364 H   0  0  0  0  0  0  0  0  0  0  0  0
   -3.7346    2.0043   -2.6174 H   0  0  0  0  0  0  0  0  0  0  0  0
   -1.9786    2.4533   -2.7779 H   0  0  0  0  0  0  0  0  0  0  0  0
  1  2  1  0
  2  3  1  0
  3  4  2  0
  4  5  1  0
  5  6  2  0
  6  7  1  0
  7  8  2  3
  8  9  1  0
  9 10  3  0
  8 11  1  0
 11 12  2  0
 11 13  1  0
 13 14  1  0
 14 15  2  0
 15 16  1  0
 16 17  2  0
 17 18  1  0
 18 19  2  0
 19 20  1  0
 20 21  2  0
 21 22  1  0
 22 23  2  0
  6 24  1  0
 24 25  2  0
 25 26  1  0
 26 27  1  0
 25  3  1  0
 23 14  1  0
 23 18  1  0
  1 28  1  0
  1 29  1  0
  1 30  1  0
  4 31  1  0
  5 32  1  0
  7 33  1  0
 13 34  1  0
 15 35  1  0
 16 36  1  0
 17 37  1  0
 20 38  1  0
 21 39  1  0
 22 40  1  0
 24 41  1  0
 27 42  1  0
 27 43  1  0
 27 44  1  0
M  END
$$$$
