
     RDKit          3D

 82 86  0  0  0  0  0  0  0  0999 V2000
    0.0281    5.2966   -2.3083 C   0  0  0  0  0  0  0  0  0  0  0  0
    0.4174    4.3319   -1.2138 C   0  0  0  0  0  0  0  0  0  0  0  0
    1.5749    3.6466   -1.3167 C   0  0  0  0  0  0  0  0  0  0  0  0
    2.2292    2.7376   -0.3079 C   0  0  0  0  0  0  0  0  0  0  0  0
    2.1248    1.2498   -0.6772 C   0  0  0  0  0  0  0  0  0  0  0  0
    0.7381    0.6865   -0.3664 C   0  0  0  0  0  0  0  0  0  0  0  0
    0.7579   -0.8322   -0.1863 C   0  0  0  0  0  0  0  0  0  0  0  0
    1.9476   -1.4285   -0.9261 C   0  0  0  0  0  0  0  0  0  0  0  0
    3.2494   -0.8515   -0.3393 C   0  0  0  0  0  0  0  0  0  0  0  0
    4.3926   -0.9943   -1.3536 C   0  0  0  0  0  0  0  0  0  0  0  0
    5.7341   -0.6213   -0.7298 C   0  0  0  0  0  0  0  0  0  0  0  0
    5.9661   -1.4090    0.5666 C   0  0  0  0  0  0  0  0  0  0  0  0
    7.2731   -0.9626    1.2212 C   0  0  0  0  0  0  0  0  0  0  0  0
    4.7478   -1.2559    1.4982 C   0  0  0  0  0  0  0  0  0  0  0  0
    4.8408   -2.1402    2.7385 C   0  0  0  0  0  0  0  0  0  0  0  0
    3.5465   -1.6436    0.8179 O   0  0  0  0  0  0  0  0  0  0  0  0
    3.1084    0.5208    0.0554 O   0  0  0  0  0  0  0  0  0  0  0  0
   -0.4583   -1.3731   -0.7378 O   0  0  0  0  0  0  0  0  0  0  0  0
   -1.5394   -1.3721    0.1023 C   0  0  0  0  0  0  0  0  0  0  0  0
   -1.5046   -1.0605    1.2842 O   0  0  0  0  0  0  0  0  0  0  0  0
   -2.7807   -1.8133   -0.6623 C   0  0  0  0  0  0  0  0  0  0  0  0
   -2.7621   -3.3360   -0.7742 C   0  0  0  0  0  0  0  0  0  0  0  0
   -3.6519   -4.1574   -0.1743 C   0  0  0  0  0  0  0  0  0  0  0  0
   -3.6241   -5.6440   -0.3924 C   0  0  0  0  0  0  0  0  0  0  0  0
   -4.7503   -3.6258    0.7293 C   0  0  0  0  0  0  0  0  0  0  0  0
   -4.8429   -4.4507    1.8944 O   0  0  0  0  0  0  0  0  0  0  0  0
   -4.4387   -2.1927    1.1690 C   0  0  0  0  0  0  0  0  0  0  0  0
   -5.5485   -1.5475    1.8200 O   0  0  0  0  0  0  0  0  0  0  0  0
   -5.2143   -0.1464    1.7808 C   0  0  0  0  0  0  0  0  0  0  0  0
   -4.2869    0.0537    0.6003 C   0  0  0  0  0  0  0  0  0  0  0  0
   -3.7813    1.2644    0.3024 C   0  0  0  0  0  0  0  0  0  0  0  0
   -2.9549    1.6038   -0.8274 C   0  0  0  0  0  0  0  0  0  0  0  0
   -2.2699    2.7331   -1.0780 C   0  0  0  0  0  0  0  0  0  0  0  0
   -2.0381    4.0455   -0.3441 C   0  0  0  0  0  0  0  0  0  0  0  0
   -2.8432    4.2889    0.9345 C   0  0  0  0  0  0  0  0  0  0  0  0
   -0.5287    4.2669   -0.0236 C   0  0  0  0  0  0  0  0  0  0  0  0
   -4.0937   -1.3000   -0.0285 C   0  0  0  0  0  0  0  0  0  0  0  0
   -5.1368   -1.3918   -1.0288 O   0  0  0  0  0  0  0  0  0  0  0  0
   -0.8438    4.9315   -2.8594 H   0  0  0  0  0  0  0  0  0  0  0  0
    0.8350    5.4467   -3.0341 H   0  0  0  0  0  0  0  0  0  0  0  0
   -0.2092    6.2771   -1.8819 H   0  0  0  0  0  0  0  0  0  0  0  0
    2.1726    3.7825   -2.2194 H   0  0  0  0  0  0  0  0  0  0  0  0
    1.8610    2.9095    0.7093 H   0  0  0  0  0  0  0  0  0  0  0  0
    3.2909    3.0156   -0.2587 H   0  0  0  0  0  0  0  0  0  0  0  0
    2.3456    1.1410   -1.7477 H   0  0  0  0  0  0  0  0  0  0  0  0
    0.0466    0.9794   -1.1634 H   0  0  0  0  0  0  0  0  0  0  0  0
    0.3400    1.1213    0.5586 H   0  0  0  0  0  0  0  0  0  0  0  0
    0.8444   -1.0943    0.8762 H   0  0  0  0  0  0  0  0  0  0  0  0
    1.8532   -1.1944   -1.9953 H   0  0  0  0  0  0  0  0  0  0  0  0
    1.9271   -2.5234   -0.8540 H   0  0  0  0  0  0  0  0  0  0  0  0
    4.4515   -2.0335   -1.7016 H   0  0  0  0  0  0  0  0  0  0  0  0
    4.2202   -0.3575   -2.2287 H   0  0  0  0  0  0  0  0  0  0  0  0
    5.7576    0.4564   -0.5256 H   0  0  0  0  0  0  0  0  0  0  0  0
    6.5388   -0.8253   -1.4461 H   0  0  0  0  0  0  0  0  0  0  0  0
    6.0627   -2.4678    0.2896 H   0  0  0  0  0  0  0  0  0  0  0  0
    7.2068    0.0721    1.5733 H   0  0  0  0  0  0  0  0  0  0  0  0
    8.1030   -1.0228    0.5093 H   0  0  0  0  0  0  0  0  0  0  0  0
    7.5313   -1.5984    2.0727 H   0  0  0  0  0  0  0  0  0  0  0  0
    4.6491   -0.2160    1.8342 H   0  0  0  0  0  0  0  0  0  0  0  0
    5.6718   -1.8495    3.3869 H   0  0  0  0  0  0  0  0  0  0  0  0
    4.9614   -3.1933    2.4610 H   0  0  0  0  0  0  0  0  0  0  0  0
    3.9156   -2.0745    3.3226 H   0  0  0  0  0  0  0  0  0  0  0  0
   -2.7137   -1.4112   -1.6816 H   0  0  0  0  0  0  0  0  0  0  0  0
   -1.9867   -3.7570   -1.4126 H   0  0  0  0  0  0  0  0  0  0  0  0
   -4.6033   -5.9972   -0.7309 H   0  0  0  0  0  0  0  0  0  0  0  0
   -2.8887   -5.9332   -1.1511 H   0  0  0  0  0  0  0  0  0  0  0  0
   -3.3633   -6.1645    0.5342 H   0  0  0  0  0  0  0  0  0  0  0  0
   -5.7197   -3.6856    0.2216 H   0  0  0  0  0  0  0  0  0  0  0  0
   -5.4177   -3.9616    2.5113 H   0  0  0  0  0  0  0  0  0  0  0  0
   -3.6330   -2.2181    1.9172 H   0  0  0  0  0  0  0  0  0  0  0  0
   -6.1429    0.4215    1.6737 H   0  0  0  0  0  0  0  0  0  0  0  0
   -4.7219    0.1152    2.7233 H   0  0  0  0  0  0  0  0  0  0  0  0
   -4.0659    2.0762    0.9624 H   0  0  0  0  0  0  0  0  0  0  0  0
   -2.8926    0.8457   -1.6056 H   0  0  0  0  0  0  0  0  0  0  0  0
   -1.7444    2.7223   -2.0371 H   0  0  0  0  0  0  0  0  0  0  0  0
   -2.3568    4.8338   -1.0398 H   0  0  0  0  0  0  0  0  0  0  0  0
   -3.9191    4.2392    0.7393 H   0  0  0  0  0  0  0  0  0  0  0  0
   -2.5804    3.5752    1.7221 H   0  0  0  0  0  0  0  0  0  0  0  0
   -2.6443    5.2928    1.3277 H   0  0  0  0  0  0  0  0  0  0  0  0
   -0.2152    3.4917    0.6839 H   0  0  0  0  0  0  0  0  0  0  0  0
   -0.4211    5.2201    0.5122 H   0  0  0  0  0  0  0  0  0  0  0  0
   -5.1298   -0.5629   -1.5380 H   0  0  0  0  0  0  0  0  0  0  0  0
  1  2  1  0
  2  3  2  3
  3  4  1  0
  4  5  1  0
  5  6  1  0
  6  7  1  0
  7  8  1  0
  8  9  1  0
  9 10  1  0
 10 11  1  0
 11 12  1  0
 12 13  1  0
 12 14  1  0
 14 15  1  0
 14 16  1  0
  9 17  1  0
  7 18  1  0
 18 19  1  0
 19 20  2  0
 19 21  1  0
 21 22  1  0
 22 23  2  0
 23 24  1  0
 23 25  1  0
 25 26  1  0
 25 27  1  0
 27 28  1  0
 28 29  1  0
 29 30  1  0
 30 31  2  3
 31 32  1  0
 32 33  2  3
 33 34  1  0
 34 35  1  0
 34 36  1  0
 30 37  1  0
 37 38  1  0
 36  2  1  0
 17  5  1  0
 37 21  1  0
 16  9  1  0
 37 27  1  0
  1 39  1  0
  1 40  1  0
  1 41  1  0
  3 42  1  0
  4 43  1  0
  4 44  1  0
  5 45  1  0
  6 46  1  0
  6 47  1  0
  7 48  1  0
  8 49  1  0
  8 50  1  0
 10 51  1  0
 10 52  1  0
 11 53  1  0
 11 54  1  0
 12 55  1  0
 13 56  1  0
 13 57  1  0
 13 58  1  0
 14 59  1  0
 15 60  1  0
 15 61  1  0
 15 62  1  0
 21 63  1  0
 22 64  1  0
 24 65  1  0
 24 66  1  0
 24 67  1  0
 25 68  1  0
 26 69  1  0
 27 70  1  0
 29 71  1  0
 29 72  1  0
 31 73  1  0
 32 74  1  0
 33 75  1  0
 34 76  1  0
 35 77  1  0
 35 78  1  0
 35 79  1  0
 36 80  1  0
 36 81  1  0
 38 82  1  0
M  END
$$$$
