
     RDKit          3D

 35 37  0  0  0  0  0  0  0  0999 V2000
   -1.7855    5.0834    2.2331 C   0  0  0  0  0  0  0  0  0  0  0  0
   -1.9430    4.1601    1.1633 O   0  0  0  0  0  0  0  0  0  0  0  0
   -1.5787    2.8647    1.4052 C   0  0  0  0  0  0  0  0  0  0  0  0
   -1.0512    2.3684    2.5970 C   0  0  0  0  0  0  0  0  0  0  0  0
   -0.7174    1.0129    2.7088 C   0  0  0  0  0  0  0  0  0  0  0  0
   -0.8974    0.1418    1.6287 C   0  0  0  0  0  0  0  0  0  0  0  0
   -0.5588   -1.2789    1.7897 C   0  0  0  0  0  0  0  0  0  0  0  0
    0.2504   -2.0208    1.0025 C   0  0  0  0  0  0  0  0  0  0  0  0
    0.4103   -3.4074    1.3319 C   0  0  0  0  0  0  0  0  0  0  0  0
    0.5128   -4.5282    1.6186 N   0  0  0  0  0  0  0  0  0  0  0  0
    0.9856   -1.5402   -0.1327 C   0  0  0  0  0  0  0  0  0  0  0  0
    1.8342   -0.4515   -0.1188 C   0  0  0  0  0  0  0  0  0  0  0  0
    2.3468   -0.2986   -1.3791 N   0  0  0  0  0  0  0  0  0  0  0  0
    1.8570   -1.2755   -2.2154 C   0  0  0  0  0  0  0  0  0  0  0  0
    2.1092   -1.5032   -3.5738 C   0  0  0  0  0  0  0  0  0  0  0  0
    1.4647   -2.5837   -4.1815 C   0  0  0  0  0  0  0  0  0  0  0  0
    0.6014   -3.4017   -3.4582 C   0  0  0  0  0  0  0  0  0  0  0  0
    0.3581   -3.1600   -2.1009 C   0  0  0  0  0  0  0  0  0  0  0  0
    0.9989   -2.0778   -1.4592 C   0  0  0  0  0  0  0  0  0  0  0  0
   -1.4417    0.6397    0.4412 C   0  0  0  0  0  0  0  0  0  0  0  0
   -1.7725    1.9932    0.3316 C   0  0  0  0  0  0  0  0  0  0  0  0
   -0.7330    5.1798    2.5192 H   0  0  0  0  0  0  0  0  0  0  0  0
   -2.1260    6.0625    1.8826 H   0  0  0  0  0  0  0  0  0  0  0  0
   -2.4052    4.8031    3.0914 H   0  0  0  0  0  0  0  0  0  0  0  0
   -0.8871    3.0059    3.4593 H   0  0  0  0  0  0  0  0  0  0  0  0
   -0.3080    0.6476    3.6483 H   0  0  0  0  0  0  0  0  0  0  0  0
   -1.0411   -1.7451    2.6491 H   0  0  0  0  0  0  0  0  0  0  0  0
    2.1126    0.2324    0.6725 H   0  0  0  0  0  0  0  0  0  0  0  0
    2.9922    0.4261   -1.6618 H   0  0  0  0  0  0  0  0  0  0  0  0
    2.7811   -0.8675   -4.1414 H   0  0  0  0  0  0  0  0  0  0  0  0
    1.6413   -2.7884   -5.2351 H   0  0  0  0  0  0  0  0  0  0  0  0
    0.1105   -4.2383   -3.9496 H   0  0  0  0  0  0  0  0  0  0  0  0
   -0.3198   -3.8102   -1.5551 H   0  0  0  0  0  0  0  0  0  0  0  0
   -1.6124   -0.0141   -0.4112 H   0  0  0  0  0  0  0  0  0  0  0  0
   -2.1881    2.3698   -0.6000 H   0  0  0  0  0  0  0  0  0  0  0  0
  1  2  1  0
  2  3  1  0
  3  4  2  0
  4  5  1  0
  5  6  2  0
  6  7  1  0
  7  8  2  3
  8  9  1  0
  9 10  3  0
  8 11  1  0
 11 12  2  0
 12 13  1  0
 13 14  1  0
 14 15  2  0
 15 16  1  0
 16 17  2  0
 17 18  1  0
 18 19  2  0
  6 20  1  0
 20 21  2  0
 21  3  1  0
 19 11  1  0
 19 14  1  0
  1 22  1  0
  1 23  1  0
  1 24  1  0
  4 25  1  0
  5 26  1  0
  7 27  1  0
 12 28  1  0
 13 29  1  0
 15 30  1  0
 16 31  1  0
 17 32  1  0
 18 33  1  0
 20 34  1  0
 21 35  1  0
M  END
$$$$
