
     RDKit          3D

 41 43  0  0  0  0  0  0  0  0999 V2000
   -3.0706    1.1683    1.6658 C   0  0  0  0  0  0  0  0  0  0  0  0
   -3.0395    0.5097    0.3848 N   0  0  0  0  0  0  0  0  0  0  0  0
   -1.9337    0.1963   -0.3559 C   0  0  0  0  0  0  0  0  0  0  0  0
   -0.3088    0.4010    0.1928 S   0  0  0  0  0  0  0  0  0  0  0  0
    0.5848    0.1194   -1.3642 C   0  0  0  0  0  0  0  0  0  0  0  0
    2.0766    0.1935   -1.0988 C   0  0  0  0  0  0  0  0  0  0  0  0
    2.6842    1.2627   -1.1026 O   0  0  0  0  0  0  0  0  0  0  0  0
    2.6472   -1.0541   -0.8397 N   0  0  0  0  0  0  0  0  0  0  0  0
    3.9966   -1.2814   -0.7105 N   0  0  0  0  0  0  0  0  0  0  0  0
    4.7116   -0.3909   -0.0937 C   0  0  0  0  0  0  0  0  0  0  0  0
    6.1406   -0.5697    0.0210 C   0  0  0  0  0  0  0  0  0  0  0  0
    6.9346   -1.5824   -0.4844 C   0  0  0  0  0  0  0  0  0  0  0  0
    8.3130   -1.4042   -0.1579 C   0  0  0  0  0  0  0  0  0  0  0  0
    8.5084   -0.2602    0.5857 C   0  0  0  0  0  0  0  0  0  0  0  0
    9.7648    0.2307    1.0901 N   0  0  0  0  0  4  0  0  0  0  0  0
    9.7636    1.2703    1.7614 O   0  0  0  0  0  0  0  0  0  0  0  0
   10.7675   -0.4408    0.8105 O   0  0  0  0  0  1  0  0  0  0  0  0
    7.0644    0.5845    0.8844 S   0  0  0  0  0  0  0  0  0  0  0  0
   -2.2972   -0.2902   -1.5167 N   0  0  0  0  0  0  0  0  0  0  0  0
   -3.6689   -0.3185   -1.5407 N   0  0  0  0  0  0  0  0  0  0  0  0
   -4.1219    0.1238   -0.3799 C   0  0  0  0  0  0  0  0  0  0  0  0
   -5.5324    0.2138   -0.0091 C   0  0  0  0  0  0  0  0  0  0  0  0
   -6.4469    0.7711   -0.9146 C   0  0  0  0  0  0  0  0  0  0  0  0
   -7.8038    0.8635   -0.5919 C   0  0  0  0  0  0  0  0  0  0  0  0
   -8.2554    0.3861    0.6358 C   0  0  0  0  0  0  0  0  0  0  0  0
   -9.9241    0.4981    1.0369 Cl  0  0  0  0  0  0  0  0  0  0  0  0
   -7.3636   -0.1888    1.5391 C   0  0  0  0  0  0  0  0  0  0  0  0
   -6.0060   -0.2800    1.2151 C   0  0  0  0  0  0  0  0  0  0  0  0
   -2.2600    1.8984    1.7269 H   0  0  0  0  0  0  0  0  0  0  0  0
   -4.0141    1.7053    1.7867 H   0  0  0  0  0  0  0  0  0  0  0  0
   -2.9612    0.4099    2.4448 H   0  0  0  0  0  0  0  0  0  0  0  0
    0.3250    0.8871   -2.1006 H   0  0  0  0  0  0  0  0  0  0  0  0
    0.3262   -0.8572   -1.7862 H   0  0  0  0  0  0  0  0  0  0  0  0
    2.1303   -1.8807   -1.1293 H   0  0  0  0  0  0  0  0  0  0  0  0
    4.2714    0.4983    0.3900 H   0  0  0  0  0  0  0  0  0  0  0  0
    6.5415   -2.4109   -1.0641 H   0  0  0  0  0  0  0  0  0  0  0  0
    9.1076   -2.0798   -0.4553 H   0  0  0  0  0  0  0  0  0  0  0  0
   -6.1029    1.1346   -1.8822 H   0  0  0  0  0  0  0  0  0  0  0  0
   -8.4982    1.3010   -1.3044 H   0  0  0  0  0  0  0  0  0  0  0  0
   -7.7195   -0.5772    2.4899 H   0  0  0  0  0  0  0  0  0  0  0  0
   -5.3312   -0.7605    1.9195 H   0  0  0  0  0  0  0  0  0  0  0  0
  1  2  1  0
  2  3  1  0
  3  4  1  0
  4  5  1  0
  5  6  1  0
  6  7  2  0
  6  8  1  0
  8  9  1  0
  9 10  2  3
 10 11  1  0
 11 12  2  0
 12 13  1  0
 13 14  2  0
 14 15  1  0
 15 16  2  0
 15 17  1  0
 14 18  1  0
  3 19  2  0
 19 20  1  0
 20 21  2  0
 21 22  1  0
 22 23  2  0
 23 24  1  0
 24 25  2  0
 25 26  1  0
 25 27  1  0
 27 28  2  0
 21  2  1  0
 28 22  1  0
 18 11  1  0
  1 29  1  0
  1 30  1  0
  1 31  1  0
  5 32  1  0
  5 33  1  0
  8 34  1  0
 10 35  1  0
 12 36  1  0
 13 37  1  0
 23 38  1  0
 24 39  1  0
 27 40  1  0
 28 41  1  0
M  CHG  2  15   1  17  -1
M  END
$$$$
