
     RDKit          3D

 36 38  0  0  0  0  0  0  0  0999 V2000
   -2.5056    1.7635   -2.0019 C   0  0  0  0  0  0  0  0  0  0  0  0
   -1.8869    1.1325   -0.7942 C   0  0  0  0  0  0  0  0  0  0  0  0
   -0.9616    1.8469   -0.1210 N   0  0  0  0  0  0  0  0  0  0  0  0
   -0.4298    1.2510    0.9752 C   0  0  0  0  0  0  0  0  0  0  0  0
    0.8139    2.1822    1.8575 S   0  0  0  0  0  6  0  0  0  0  0  0
    0.2593    2.5380    3.1572 O   0  0  0  0  0  0  0  0  0  0  0  0
    1.3403    3.2343    0.9981 O   0  0  0  0  0  0  0  0  0  0  0  0
    2.1215    1.0027    2.1413 C   0  0  0  0  0  0  0  0  0  0  0  0
    2.6100    0.3755    0.8579 C   0  0  0  0  0  0  0  0  0  0  0  0
    3.3865    1.1053   -0.0549 C   0  0  0  0  0  0  0  0  0  0  0  0
    3.8298    0.5168   -1.2420 C   0  0  0  0  0  0  0  0  0  0  0  0
    3.5082   -0.8087   -1.5208 C   0  0  0  0  0  0  0  0  0  0  0  0
    4.0506   -1.5332   -2.9836 Cl  0  0  0  0  0  0  0  0  0  0  0  0
    2.7500   -1.5523   -0.6204 C   0  0  0  0  0  0  0  0  0  0  0  0
    2.3059   -0.9638    0.5659 C   0  0  0  0  0  0  0  0  0  0  0  0
   -0.7074    0.0280    1.4807 N   0  0  0  0  0  0  0  0  0  0  0  0
   -1.6251   -0.6246    0.7632 C   0  0  0  0  0  0  0  0  0  0  0  0
   -2.2381   -0.1293   -0.3761 C   0  0  0  0  0  0  0  0  0  0  0  0
   -3.2382   -1.0933   -0.9162 C   0  0  0  0  0  0  0  0  0  0  0  0
   -2.8018   -2.3932   -0.2218 C   0  0  0  0  0  0  0  0  0  0  0  0
   -2.1631   -1.9838    1.1122 C   0  0  0  0  0  0  0  0  0  0  0  0
   -3.5911    1.8334   -1.8807 H   0  0  0  0  0  0  0  0  0  0  0  0
   -2.2796    1.1739   -2.8957 H   0  0  0  0  0  0  0  0  0  0  0  0
   -2.1161    2.7751   -2.1552 H   0  0  0  0  0  0  0  0  0  0  0  0
    2.9410    1.5340    2.6372 H   0  0  0  0  0  0  0  0  0  0  0  0
    1.7479    0.2487    2.8421 H   0  0  0  0  0  0  0  0  0  0  0  0
    3.6458    2.1452    0.1429 H   0  0  0  0  0  0  0  0  0  0  0  0
    4.4214    1.1001   -1.9427 H   0  0  0  0  0  0  0  0  0  0  0  0
    2.5019   -2.5883   -0.8348 H   0  0  0  0  0  0  0  0  0  0  0  0
    1.7138   -1.5610    1.2578 H   0  0  0  0  0  0  0  0  0  0  0  0
   -3.1887   -1.1912   -2.0042 H   0  0  0  0  0  0  0  0  0  0  0  0
   -4.2485   -0.8024   -0.6108 H   0  0  0  0  0  0  0  0  0  0  0  0
   -2.0466   -2.8959   -0.8422 H   0  0  0  0  0  0  0  0  0  0  0  0
   -3.6306   -3.0960   -0.0909 H   0  0  0  0  0  0  0  0  0  0  0  0
   -1.3743   -2.6760    1.4181 H   0  0  0  0  0  0  0  0  0  0  0  0
   -2.9147   -1.8942    1.9028 H   0  0  0  0  0  0  0  0  0  0  0  0
  1  2  1  0
  2  3  2  0
  3  4  1  0
  4  5  1  0
  5  6  2  0
  5  7  2  0
  5  8  1  0
  8  9  1  0
  9 10  2  0
 10 11  1  0
 11 12  2  0
 12 13  1  0
 12 14  1  0
 14 15  2  0
  4 16  2  0
 16 17  1  0
 17 18  2  0
 18 19  1  0
 19 20  1  0
 20 21  1  0
 18  2  1  0
 15  9  1  0
 21 17  1  0
  1 22  1  0
  1 23  1  0
  1 24  1  0
  8 25  1  0
  8 26  1  0
 10 27  1  0
 11 28  1  0
 14 29  1  0
 15 30  1  0
 19 31  1  0
 19 32  1  0
 20 33  1  0
 20 34  1  0
 21 35  1  0
 21 36  1  0
M  END
$$$$
