
     RDKit          3D

 44 46  0  0  0  0  0  0  0  0999 V2000
    7.3996    4.8422    2.7881 C   0  0  0  0  0  0  0  0  0  0  0  0
    7.1977    4.2422    1.5147 O   0  0  0  0  0  0  0  0  0  0  0  0
    6.0259    3.5625    1.3327 C   0  0  0  0  0  0  0  0  0  0  0  0
    5.0609    3.3150    2.3063 C   0  0  0  0  0  0  0  0  0  0  0  0
    3.9016    2.5966    1.9829 C   0  0  0  0  0  0  0  0  0  0  0  0
    3.6827    2.1156    0.6833 C   0  0  0  0  0  0  0  0  0  0  0  0
    2.4754    1.3717    0.3417 C   0  0  0  0  0  0  0  0  0  0  0  0
    1.8920    0.9517   -0.8304 C   0  0  0  0  0  0  0  0  0  0  0  0
    0.7177    0.2647   -0.4322 C   0  0  0  0  0  0  0  0  0  0  0  0
   -0.2782   -0.3773   -1.2992 C   0  0  0  0  0  0  0  0  0  0  0  0
   -0.1713   -0.3347   -2.5198 O   0  0  0  0  0  0  0  0  0  0  0  0
   -1.2871   -0.9962   -0.5836 N   0  0  0  0  0  0  0  0  0  0  0  0
   -2.4040   -1.6962   -1.0729 C   0  0  0  0  0  0  0  0  0  0  0  0
   -2.6913   -1.8599   -2.4292 C   0  0  0  0  0  0  0  0  0  0  0  0
   -3.8244   -2.5783   -2.8416 C   0  0  0  0  0  0  0  0  0  0  0  0
   -4.6914   -3.1403   -1.9029 C   0  0  0  0  0  0  0  0  0  0  0  0
   -5.8116   -3.8685   -2.2002 O   0  0  0  0  0  0  0  0  0  0  0  0
   -6.1064   -4.0811   -3.5733 C   0  0  0  0  0  0  0  0  0  0  0  0
   -4.4074   -2.9545   -0.5438 C   0  0  0  0  0  0  0  0  0  0  0  0
   -5.1902   -3.5174    0.4342 O   0  0  0  0  0  0  0  0  0  0  0  0
   -6.3210   -2.6843    0.6968 C   0  0  0  0  0  0  0  0  0  0  0  0
   -3.2690   -2.2565   -0.1295 C   0  0  0  0  0  0  0  0  0  0  0  0
    0.5988    0.2631    0.9076 N   0  0  0  0  0  0  0  0  0  0  0  0
    1.6967    0.9571    1.3826 O   0  0  0  0  0  0  0  0  0  0  0  0
    4.6598    2.3727   -0.2875 C   0  0  0  0  0  0  0  0  0  0  0  0
    5.8193    3.0852    0.0377 C   0  0  0  0  0  0  0  0  0  0  0  0
    7.4786    4.0832    3.5730 H   0  0  0  0  0  0  0  0  0  0  0  0
    6.6082    5.5652    3.0144 H   0  0  0  0  0  0  0  0  0  0  0  0
    8.3473    5.3886    2.7551 H   0  0  0  0  0  0  0  0  0  0  0  0
    5.1768    3.6597    3.3283 H   0  0  0  0  0  0  0  0  0  0  0  0
    3.1678    2.4232    2.7674 H   0  0  0  0  0  0  0  0  0  0  0  0
    2.2421    1.1120   -1.8394 H   0  0  0  0  0  0  0  0  0  0  0  0
   -1.1861   -0.9297    0.4259 H   0  0  0  0  0  0  0  0  0  0  0  0
   -2.0516   -1.4441   -3.2019 H   0  0  0  0  0  0  0  0  0  0  0  0
   -3.9908   -2.6817   -3.9086 H   0  0  0  0  0  0  0  0  0  0  0  0
   -6.3059   -3.1335   -4.0836 H   0  0  0  0  0  0  0  0  0  0  0  0
   -5.3053   -4.6365   -4.0713 H   0  0  0  0  0  0  0  0  0  0  0  0
   -7.0159   -4.6870   -3.6284 H   0  0  0  0  0  0  0  0  0  0  0  0
   -6.9353   -2.5258   -0.1973 H   0  0  0  0  0  0  0  0  0  0  0  0
   -6.0024   -1.7214    1.1152 H   0  0  0  0  0  0  0  0  0  0  0  0
   -6.9382   -3.1904    1.4466 H   0  0  0  0  0  0  0  0  0  0  0  0
   -3.0742   -2.1634    0.9358 H   0  0  0  0  0  0  0  0  0  0  0  0
    4.5412    2.0180   -1.3091 H   0  0  0  0  0  0  0  0  0  0  0  0
    6.5692    3.2685   -0.7288 H   0  0  0  0  0  0  0  0  0  0  0  0
  1  2  1  0
  2  3  1  0
  3  4  2  0
  4  5  1  0
  5  6  2  0
  6  7  1  0
  7  8  2  0
  8  9  1  0
  9 10  1  0
 10 11  2  0
 10 12  1  0
 12 13  1  0
 13 14  2  0
 14 15  1  0
 15 16  2  0
 16 17  1  0
 17 18  1  0
 16 19  1  0
 19 20  1  0
 20 21  1  0
 19 22  2  0
  9 23  2  0
 23 24  1  0
  6 25  1  0
 25 26  2  0
 26  3  1  0
 24  7  1  0
 22 13  1  0
  1 27  1  0
  1 28  1  0
  1 29  1  0
  4 30  1  0
  5 31  1  0
  8 32  1  0
 12 33  1  0
 14 34  1  0
 15 35  1  0
 18 36  1  0
 18 37  1  0
 18 38  1  0
 21 39  1  0
 21 40  1  0
 21 41  1  0
 22 42  1  0
 25 43  1  0
 26 44  1  0
M  END
$$$$
