
     RDKit          3D

 50 53  0  0  0  0  0  0  0  0999 V2000
   -6.5219   -3.2197    3.6455 C   0  0  0  0  0  0  0  0  0  0  0  0
   -5.2860   -2.5748    3.0923 C   0  0  0  0  0  0  0  0  0  0  0  0
   -5.1698   -1.1820    3.0464 C   0  0  0  0  0  0  0  0  0  0  0  0
   -4.0302   -0.5746    2.5034 C   0  0  0  0  0  0  0  0  0  0  0  0
   -2.9967   -1.3547    1.9743 C   0  0  0  0  0  0  0  0  0  0  0  0
   -1.8105   -0.7832    1.4171 N   0  0  0  0  0  0  0  0  0  0  0  0
   -0.7111   -1.5735    1.2795 N   0  0  0  0  0  0  0  0  0  0  0  0
    0.2803   -0.7404    0.9600 C   0  0  0  0  0  0  0  0  0  0  0  0
    1.6819   -1.0955    0.7782 C   0  0  0  0  0  0  0  0  0  0  0  0
    2.1222   -2.2341    0.9131 O   0  0  0  0  0  0  0  0  0  0  0  0
    2.4793    0.0121    0.4250 N   0  0  0  0  0  0  0  0  0  0  0  0
    3.9079   -0.1997    0.1909 C   0  0  0  0  0  0  0  0  0  0  0  0
    4.2350   -0.4476   -1.2836 C   0  0  0  0  0  0  0  0  0  0  0  0
    5.3354   -0.8611   -1.6440 O   0  0  0  0  0  0  0  0  0  0  0  0
    3.2458   -0.0775   -2.1673 N   0  0  0  0  0  0  0  0  0  0  0  0
    3.4581   -0.0341   -3.5929 C   0  0  0  0  0  0  0  0  0  0  0  0
    3.8114    1.3704   -3.9679 C   0  0  0  0  0  0  0  0  0  0  0  0
    5.0635    1.9538   -3.9982 C   0  0  0  0  0  0  0  0  0  0  0  0
    5.0165    3.3191   -4.4006 C   0  0  0  0  0  0  0  0  0  0  0  0
    3.7302    3.7347   -4.6618 C   0  0  0  0  0  0  0  0  0  0  0  0
    2.5888    2.4849   -4.4177 S   0  0  0  0  0  0  0  0  0  0  0  0
    2.0032    1.3140    0.2108 N   0  0  0  0  0  0  0  0  0  0  0  0
    0.7438    1.6082    0.3847 C   0  0  0  0  0  0  0  0  0  0  0  0
    0.3061    3.0273    0.1596 C   0  0  0  0  0  0  0  0  0  0  0  0
   -0.1779    0.5675    0.7678 C   0  0  0  0  0  0  0  0  0  0  0  0
   -1.5485    0.5160    0.9623 C   0  0  0  0  0  0  0  0  0  0  0  0
   -2.5877    1.5460    0.7027 C   0  0  0  0  0  0  0  0  0  0  0  0
   -3.1108   -2.7538    2.0331 C   0  0  0  0  0  0  0  0  0  0  0  0
   -4.2502   -3.3563    2.5745 C   0  0  0  0  0  0  0  0  0  0  0  0
   -6.9647   -2.6030    4.4347 H   0  0  0  0  0  0  0  0  0  0  0  0
   -7.2595   -3.3588    2.8492 H   0  0  0  0  0  0  0  0  0  0  0  0
   -6.2899   -4.1945    4.0876 H   0  0  0  0  0  0  0  0  0  0  0  0
   -5.9635   -0.5558    3.4494 H   0  0  0  0  0  0  0  0  0  0  0  0
   -3.9752    0.5055    2.5575 H   0  0  0  0  0  0  0  0  0  0  0  0
    4.4509    0.6919    0.5218 H   0  0  0  0  0  0  0  0  0  0  0  0
    4.2569   -1.0617    0.7682 H   0  0  0  0  0  0  0  0  0  0  0  0
    2.5029    0.4957   -1.7795 H   0  0  0  0  0  0  0  0  0  0  0  0
    4.2545   -0.7267   -3.8847 H   0  0  0  0  0  0  0  0  0  0  0  0
    2.5304   -0.3594   -4.0749 H   0  0  0  0  0  0  0  0  0  0  0  0
    5.9706    1.4197   -3.7363 H   0  0  0  0  0  0  0  0  0  0  0  0
    5.8827    3.9628   -4.4922 H   0  0  0  0  0  0  0  0  0  0  0  0
    3.4041    4.7142   -4.9835 H   0  0  0  0  0  0  0  0  0  0  0  0
    1.1766    3.6869    0.0927 H   0  0  0  0  0  0  0  0  0  0  0  0
   -0.3232    3.3662    0.9865 H   0  0  0  0  0  0  0  0  0  0  0  0
   -0.2498    3.0923   -0.7794 H   0  0  0  0  0  0  0  0  0  0  0  0
   -2.2905    2.2027   -0.1196 H   0  0  0  0  0  0  0  0  0  0  0  0
   -3.5368    1.1009    0.3902 H   0  0  0  0  0  0  0  0  0  0  0  0
   -2.7471    2.1686    1.5879 H   0  0  0  0  0  0  0  0  0  0  0  0
   -2.3209   -3.3968    1.6460 H   0  0  0  0  0  0  0  0  0  0  0  0
   -4.3165   -4.4422    2.5911 H   0  0  0  0  0  0  0  0  0  0  0  0
  1  2  1  0
  2  3  2  0
  3  4  1  0
  4  5  2  0
  5  6  1  0
  6  7  1  0
  7  8  2  0
  8  9  1  0
  9 10  2  0
  9 11  1  0
 11 12  1  0
 12 13  1  0
 13 14  2  0
 13 15  1  0
 15 16  1  0
 16 17  1  0
 17 18  2  0
 18 19  1  0
 19 20  2  0
 20 21  1  0
 11 22  1  0
 22 23  2  0
 23 24  1  0
 23 25  1  0
 25 26  2  0
 26 27  1  0
  5 28  1  0
 28 29  2  0
 29  2  1  0
 26  6  1  0
 25  8  1  0
 21 17  1  0
  1 30  1  0
  1 31  1  0
  1 32  1  0
  3 33  1  0
  4 34  1  0
 12 35  1  0
 12 36  1  0
 15 37  1  0
 16 38  1  0
 16 39  1  0
 18 40  1  0
 19 41  1  0
 20 42  1  0
 24 43  1  0
 24 44  1  0
 24 45  1  0
 27 46  1  0
 27 47  1  0
 27 48  1  0
 28 49  1  0
 29 50  1  0
M  END
$$$$
