
     RDKit          3D

 54 58  0  0  0  0  0  0  0  0999 V2000
    6.0292    1.8646   -2.0536 F   0  0  0  0  0  0  0  0  0  0  0  0
    5.9437    0.5348   -2.3345 C   0  0  0  0  0  0  0  0  0  0  0  0
    6.9260    0.2912   -3.2497 F   0  0  0  0  0  0  0  0  0  0  0  0
    4.7723    0.3621   -3.0074 F   0  0  0  0  0  0  0  0  0  0  0  0
    6.0444   -0.3318   -1.0962 C   0  0  0  0  0  0  0  0  0  0  0  0
    7.1614   -1.1775   -0.9465 C   0  0  0  0  0  0  0  0  0  0  0  0
    7.3057   -1.9905    0.1774 C   0  0  0  0  0  0  0  0  0  0  0  0
    6.3374   -1.9719    1.1740 C   0  0  0  0  0  0  0  0  0  0  0  0
    5.2256   -1.1406    1.0482 C   0  0  0  0  0  0  0  0  0  0  0  0
    5.0636   -0.3116   -0.0775 C   0  0  0  0  0  0  0  0  0  0  0  0
    3.8201    0.5543   -0.1527 C   0  0  0  0  0  0  0  0  0  0  0  0
    2.6054   -0.2329   -0.6784 C   0  0  0  0  0  0  0  0  0  0  0  0
    1.4032    0.6071   -0.7893 N   0  0  0  0  0  0  0  0  0  0  0  0
    0.7601    0.8925    0.5112 C   0  0  0  0  0  0  0  0  0  0  0  0
   -0.4557    0.0051    0.8666 C   0  0  0  0  0  0  0  0  0  0  0  0
   -1.4894    0.0346   -0.1775 N   0  0  0  0  0  0  0  0  0  0  0  0
   -2.8422    0.1449    0.1315 C   0  0  0  0  0  0  0  0  0  0  0  0
   -3.5907    0.8892   -0.6463 N   0  0  0  0  0  0  0  0  0  0  0  0
   -4.9573    1.0801   -0.3709 C   0  0  0  0  0  0  0  0  0  0  0  0
   -5.6977    1.8992   -1.2256 C   0  0  0  0  0  0  0  0  0  0  0  0
   -7.0555    2.1330   -0.9919 C   0  0  0  0  0  0  0  0  0  0  0  0
   -7.6875    1.5467    0.1051 C   0  0  0  0  0  0  0  0  0  0  0  0
   -6.9669    0.7244    0.9720 C   0  0  0  0  0  0  0  0  0  0  0  0
   -5.6088    0.5006    0.7251 C   0  0  0  0  0  0  0  0  0  0  0  0
   -4.8124   -0.3234    1.5362 N   0  0  0  0  0  0  0  0  0  0  0  0
   -5.1624   -1.0460    2.6523 C   0  0  0  0  0  0  0  0  0  0  0  0
   -4.0627   -1.7668    3.0610 C   0  0  0  0  0  0  0  0  0  0  0  0
   -3.0071   -1.4572    2.1723 C   0  0  0  0  0  0  0  0  0  0  0  0
   -3.4766   -0.5284    1.2587 C   0  0  0  0  0  0  0  0  0  0  0  0
   -1.0179    0.4644   -1.5066 C   0  0  0  0  0  0  0  0  0  0  0  0
    0.4354    0.0057   -1.7363 C   0  0  0  0  0  0  0  0  0  0  0  0
    7.9339   -1.2064   -1.7147 H   0  0  0  0  0  0  0  0  0  0  0  0
    8.1749   -2.6365    0.2743 H   0  0  0  0  0  0  0  0  0  0  0  0
    6.4478   -2.6038    2.0517 H   0  0  0  0  0  0  0  0  0  0  0  0
    4.4798   -1.1398    1.8414 H   0  0  0  0  0  0  0  0  0  0  0  0
    3.9997    1.4324   -0.7828 H   0  0  0  0  0  0  0  0  0  0  0  0
    3.6244    0.9568    0.8487 H   0  0  0  0  0  0  0  0  0  0  0  0
    2.4062   -1.1114   -0.0507 H   0  0  0  0  0  0  0  0  0  0  0  0
    2.8695   -0.6191   -1.6720 H   0  0  0  0  0  0  0  0  0  0  0  0
    0.4162    1.9347    0.4717 H   0  0  0  0  0  0  0  0  0  0  0  0
    1.4787    0.8549    1.3372 H   0  0  0  0  0  0  0  0  0  0  0  0
   -0.1221   -1.0293    1.0075 H   0  0  0  0  0  0  0  0  0  0  0  0
   -0.8566    0.3650    1.8209 H   0  0  0  0  0  0  0  0  0  0  0  0
   -5.2068    2.3590   -2.0793 H   0  0  0  0  0  0  0  0  0  0  0  0
   -7.6172    2.7735   -1.6670 H   0  0  0  0  0  0  0  0  0  0  0  0
   -8.7443    1.7308    0.2830 H   0  0  0  0  0  0  0  0  0  0  0  0
   -7.4810    0.2774    1.8162 H   0  0  0  0  0  0  0  0  0  0  0  0
   -6.1617   -1.0147    3.0614 H   0  0  0  0  0  0  0  0  0  0  0  0
   -4.0301   -2.4504    3.8997 H   0  0  0  0  0  0  0  0  0  0  0  0
   -2.0116   -1.8765    2.2012 H   0  0  0  0  0  0  0  0  0  0  0  0
   -1.0898    1.5552   -1.5998 H   0  0  0  0  0  0  0  0  0  0  0  0
   -1.6485    0.0166   -2.2841 H   0  0  0  0  0  0  0  0  0  0  0  0
    0.7386    0.2662   -2.7569 H   0  0  0  0  0  0  0  0  0  0  0  0
    0.4573   -1.0903   -1.6582 H   0  0  0  0  0  0  0  0  0  0  0  0
  1  2  1  0
  2  3  1  0
  2  4  1  0
  2  5  1  0
  5  6  2  0
  6  7  1  0
  7  8  2  0
  8  9  1  0
  9 10  2  0
 10 11  1  0
 11 12  1  0
 12 13  1  0
 13 14  1  0
 14 15  1  0
 15 16  1  0
 16 17  1  0
 17 18  2  0
 18 19  1  0
 19 20  2  0
 20 21  1  0
 21 22  2  0
 22 23  1  0
 23 24  2  0
 24 25  1  0
 25 26  1  0
 26 27  2  0
 27 28  1  0
 28 29  2  0
 16 30  1  0
 30 31  1  0
 10  5  1  0
 31 13  1  0
 29 17  1  0
 24 19  1  0
 29 25  1  0
  6 32  1  0
  7 33  1  0
  8 34  1  0
  9 35  1  0
 11 36  1  0
 11 37  1  0
 12 38  1  0
 12 39  1  0
 14 40  1  0
 14 41  1  0
 15 42  1  0
 15 43  1  0
 20 44  1  0
 21 45  1  0
 22 46  1  0
 23 47  1  0
 26 48  1  0
 27 49  1  0
 28 50  1  0
 30 51  1  0
 30 52  1  0
 31 53  1  0
 31 54  1  0
M  END
$$$$
