
     RDKit          3D

 53 52  0  0  0  0  0  0  0  0999 V2000
   -7.4334    0.5294    1.1865 C   0  0  0  0  0  0  0  0  0  0  0  0
   -6.4299    0.5418    0.0302 C   0  0  0  0  0  0  0  0  0  0  0  0
   -5.1416   -0.1584    0.4593 C   0  0  0  0  0  0  0  0  0  0  0  0
   -6.2138    1.9896   -0.4552 C   0  0  0  0  0  0  0  0  0  0  0  0
   -5.2984    2.1220   -1.6725 C   0  0  0  0  0  0  0  0  0  0  0  0
   -3.9043    2.2739   -1.3093 N   0  0  0  0  0  0  0  0  0  0  0  0
   -2.9642    2.5541   -2.2781 C   0  0  0  0  0  0  0  0  0  0  0  0
   -3.2485    2.7894   -3.4490 O   0  0  0  0  0  0  0  0  0  0  0  0
   -1.5411    2.6045   -1.7625 C   0  0  0  0  0  0  0  0  0  0  0  0
   -0.6103    1.7510   -2.6122 C   0  0  0  0  0  0  0  0  0  0  0  0
   -0.7615   -0.0304   -2.2198 S   0  0  0  0  0  0  0  0  0  0  0  0
    0.3244   -0.1339   -0.7527 C   0  0  0  0  0  0  0  0  0  0  0  0
    1.7916   -0.2081   -1.1532 C   0  0  0  0  0  0  0  0  0  0  0  0
    2.6824   -0.3220    0.0657 C   0  0  0  0  0  0  0  0  0  0  0  0
    2.2616   -0.2936    1.2170 O   0  0  0  0  0  0  0  0  0  0  0  0
    4.0172   -0.4427   -0.2595 N   0  0  0  0  0  0  0  0  0  0  0  0
    5.0396   -0.6231    0.7518 C   0  0  0  0  0  0  0  0  0  0  0  0
    5.2035   -2.0974    1.1228 C   0  0  0  0  0  0  0  0  0  0  0  0
    6.1837   -2.3312    2.2867 C   0  0  0  0  0  0  0  0  0  0  0  0
    6.1941   -3.8145    2.6680 C   0  0  0  0  0  0  0  0  0  0  0  0
    7.6059   -1.8733    1.9553 C   0  0  0  0  0  0  0  0  0  0  0  0
   -7.0395    1.0555    2.0613 H   0  0  0  0  0  0  0  0  0  0  0  0
   -7.6639   -0.4976    1.4865 H   0  0  0  0  0  0  0  0  0  0  0  0
   -8.3766    1.0043    0.8929 H   0  0  0  0  0  0  0  0  0  0  0  0
   -6.8678   -0.0368   -0.7944 H   0  0  0  0  0  0  0  0  0  0  0  0
   -5.3598   -1.1556    0.8610 H   0  0  0  0  0  0  0  0  0  0  0  0
   -4.6185    0.4040    1.2401 H   0  0  0  0  0  0  0  0  0  0  0  0
   -4.4614   -0.2981   -0.3868 H   0  0  0  0  0  0  0  0  0  0  0  0
   -7.1967    2.3902   -0.7394 H   0  0  0  0  0  0  0  0  0  0  0  0
   -5.8474    2.6193    0.3670 H   0  0  0  0  0  0  0  0  0  0  0  0
   -5.3933    1.2636   -2.3473 H   0  0  0  0  0  0  0  0  0  0  0  0
   -5.5788    3.0173   -2.2399 H   0  0  0  0  0  0  0  0  0  0  0  0
   -3.5798    1.8309   -0.4606 H   0  0  0  0  0  0  0  0  0  0  0  0
   -1.2318    3.6553   -1.8335 H   0  0  0  0  0  0  0  0  0  0  0  0
   -1.4884    2.3388   -0.7019 H   0  0  0  0  0  0  0  0  0  0  0  0
   -0.8296    1.8691   -3.6782 H   0  0  0  0  0  0  0  0  0  0  0  0
    0.4269    2.0658   -2.4637 H   0  0  0  0  0  0  0  0  0  0  0  0
    0.1287    0.7101   -0.0838 H   0  0  0  0  0  0  0  0  0  0  0  0
    0.0435   -1.0408   -0.2054 H   0  0  0  0  0  0  0  0  0  0  0  0
    1.9700   -1.0840   -1.7881 H   0  0  0  0  0  0  0  0  0  0  0  0
    2.0957    0.6895   -1.7032 H   0  0  0  0  0  0  0  0  0  0  0  0
    4.2719   -0.5972   -1.2275 H   0  0  0  0  0  0  0  0  0  0  0  0
    4.7766   -0.0312    1.6339 H   0  0  0  0  0  0  0  0  0  0  0  0
    5.9640   -0.2223    0.3281 H   0  0  0  0  0  0  0  0  0  0  0  0
    4.2232   -2.5073    1.3979 H   0  0  0  0  0  0  0  0  0  0  0  0
    5.5286   -2.6596    0.2381 H   0  0  0  0  0  0  0  0  0  0  0  0
    5.8342   -1.7632    3.1597 H   0  0  0  0  0  0  0  0  0  0  0  0
    6.5549   -4.4358    1.8411 H   0  0  0  0  0  0  0  0  0  0  0  0
    5.1890   -4.1559    2.9370 H   0  0  0  0  0  0  0  0  0  0  0  0
    6.8453   -3.9883    3.5310 H   0  0  0  0  0  0  0  0  0  0  0  0
    8.2894   -2.0990    2.7817 H   0  0  0  0  0  0  0  0  0  0  0  0
    7.6497   -0.7938    1.7871 H   0  0  0  0  0  0  0  0  0  0  0  0
    7.9842   -2.3740    1.0580 H   0  0  0  0  0  0  0  0  0  0  0  0
  1  2  1  0
  2  3  1  0
  2  4  1  0
  4  5  1  0
  5  6  1  0
  6  7  1  0
  7  8  2  0
  7  9  1  0
  9 10  1  0
 10 11  1  0
 11 12  1  0
 12 13  1  0
 13 14  1  0
 14 15  2  0
 14 16  1  0
 16 17  1  0
 17 18  1  0
 18 19  1  0
 19 20  1  0
 19 21  1  0
  1 22  1  0
  1 23  1  0
  1 24  1  0
  2 25  1  0
  3 26  1  0
  3 27  1  0
  3 28  1  0
  4 29  1  0
  4 30  1  0
  5 31  1  0
  5 32  1  0
  6 33  1  0
  9 34  1  0
  9 35  1  0
 10 36  1  0
 10 37  1  0
 12 38  1  0
 12 39  1  0
 13 40  1  0
 13 41  1  0
 16 42  1  0
 17 43  1  0
 17 44  1  0
 18 45  1  0
 18 46  1  0
 19 47  1  0
 20 48  1  0
 20 49  1  0
 20 50  1  0
 21 51  1  0
 21 52  1  0
 21 53  1  0
M  END
$$$$
