
     RDKit          3D

 97 99  0  0  0  0  0  0  0  0999 V2000
   -3.3941    2.1755   -3.8286 C   0  0  0  0  0  0  0  0  0  0  0  0
   -2.5876    1.4071   -2.8283 C   0  0  0  0  0  0  0  0  0  0  0  0
   -1.6435    0.6843   -3.1136 O   0  0  0  0  0  0  0  0  0  0  0  0
   -3.0430    1.6539   -1.5733 O   0  0  0  0  0  0  0  0  0  0  0  0
   -2.3336    1.0097   -0.4801 C   0  0  1  0  0  0  0  0  0  0  0  0
   -1.1812    1.9196    0.0446 C   0  0  2  0  0  0  0  0  0  0  0  0
   -0.3146    2.3603   -1.0240 O   0  0  0  0  0  0  0  0  0  0  0  0
   -0.5548    3.5942   -1.5419 C   0  0  0  0  0  0  0  0  0  0  0  0
    0.4669    3.9342   -2.5795 C   0  0  0  0  0  0  0  0  0  0  0  0
   -1.4638    4.3420   -1.2064 O   0  0  0  0  0  0  0  0  0  0  0  0
   -0.2553    1.2387    1.0535 C   0  0  0  0  0  0  0  0  0  0  0  0
   -0.2463    1.8853    2.4190 C   0  0  0  0  0  0  0  0  0  0  0  0
    0.5833    0.2041    0.8162 C   0  0  0  0  0  0  0  0  0  0  0  0
    0.8782   -0.5338   -0.4804 C   0  0  1  0  0  0  0  0  0  0  0  0
    2.0735    0.1177   -1.2425 C   0  0  1  0  0  0  0  0  0  0  0  0
    2.9815    0.7481   -0.3219 O   0  0  0  0  0  0  0  0  0  0  0  0
    3.4513    1.9653   -0.6920 C   0  0  0  0  0  0  0  0  0  0  0  0
    3.3272    2.4845   -1.7901 O   0  0  0  0  0  0  0  0  0  0  0  0
    4.1274    2.6320    0.4513 C   0  0  0  0  0  0  0  0  0  0  0  0
    4.2227    2.0419    1.7184 C   0  0  0  0  0  0  0  0  0  0  0  0
    4.8411    2.7301    2.7661 C   0  0  0  0  0  0  0  0  0  0  0  0
    5.3585    4.0103    2.5567 C   0  0  0  0  0  0  0  0  0  0  0  0
    5.2632    4.6030    1.2983 C   0  0  0  0  0  0  0  0  0  0  0  0
    4.6566    3.9169    0.2446 C   0  0  0  0  0  0  0  0  0  0  0  0
    2.7533   -1.0063   -2.0460 C   0  0  1  0  0  0  0  0  0  0  0  0
    4.2410   -1.1999   -1.7664 C   0  0  0  0  0  0  0  0  0  0  0  0
    1.9266   -2.2640   -1.7577 C   0  0  0  0  0  0  0  0  0  0  0  0
    1.2579   -2.0549   -0.3731 C   0  0  1  0  0  0  0  0  0  0  0  0
    2.2226   -2.1744    0.7121 O   0  0  0  0  0  0  0  0  0  0  0  0
    3.0409   -3.2442    0.8867 C   0  0  0  0  0  0  0  0  0  0  0  0
    3.8790   -3.0256    2.1100 C   0  0  0  0  0  0  0  0  0  0  0  0
    3.1306   -4.2312    0.1752 O   0  0  0  0  0  0  0  0  0  0  0  0
    0.0262   -3.0182   -0.2260 C   0  0  1  0  0  0  0  0  0  0  0  0
    0.5001   -4.3871   -0.3771 O   0  0  0  0  0  0  0  0  0  0  0  0
    0.1322   -5.0797   -1.4821 C   0  0  0  0  0  0  0  0  0  0  0  0
    0.7693   -6.4369   -1.4656 C   0  0  0  0  0  0  0  0  0  0  0  0
   -0.6130   -4.6757   -2.3602 O   0  0  0  0  0  0  0  0  0  0  0  0
   -0.8500   -3.0498    1.0583 C   0  0  1  0  0  0  0  0  0  0  0  0
   -0.0692   -3.2004    2.3647 C   0  0  0  0  0  0  0  0  0  0  0  0
   -1.8468   -1.9192    1.1524 C   0  0  0  0  0  0  0  0  0  0  0  0
   -3.0227   -1.8938    0.4960 C   0  0  0  0  0  0  0  0  0  0  0  0
   -4.0322   -0.7398    0.4929 C   0  0  0  0  0  0  0  0  0  0  0  0
   -5.0053   -0.9718    1.6678 C   0  0  0  0  0  0  0  0  0  0  0  0
   -4.8487   -0.8175   -0.8160 C   0  0  0  0  0  0  0  0  0  0  0  0
   -3.3574    0.6730    0.6486 C   0  0  2  0  0  0  0  0  0  0  0  0
   -4.3834    1.7030    0.6613 O   0  0  0  0  0  0  0  0  0  0  0  0
   -4.4161    2.5501    1.7231 C   0  0  0  0  0  0  0  0  0  0  0  0
   -5.4563    3.6034    1.5052 C   0  0  0  0  0  0  0  0  0  0  0  0
   -3.6855    2.4937    2.7039 O   0  0  0  0  0  0  0  0  0  0  0  0
   -4.4578    1.9759   -3.6841 H   0  0  0  0  0  0  0  0  0  0  0  0
   -3.1828    3.2410   -3.7311 H   0  0  0  0  0  0  0  0  0  0  0  0
   -3.1200    1.8530   -4.8373 H   0  0  0  0  0  0  0  0  0  0  0  0
   -1.9076    0.0826   -0.8559 H   0  0  0  0  0  0  0  0  0  0  0  0
   -1.6383    2.7963    0.5229 H   0  0  0  0  0  0  0  0  0  0  0  0
    0.0538    4.6923   -3.2517 H   0  0  0  0  0  0  0  0  0  0  0  0
    1.3648    4.3210   -2.0911 H   0  0  0  0  0  0  0  0  0  0  0  0
    0.7070    3.0487   -3.1782 H   0  0  0  0  0  0  0  0  0  0  0  0
   -1.2219    1.7872    2.8967 H   0  0  0  0  0  0  0  0  0  0  0  0
    0.4927    1.4350    3.0921 H   0  0  0  0  0  0  0  0  0  0  0  0
   -0.0011    2.9521    2.3293 H   0  0  0  0  0  0  0  0  0  0  0  0
    1.2148   -0.1169    1.6445 H   0  0  0  0  0  0  0  0  0  0  0  0
    0.0214   -0.4775   -1.1559 H   0  0  0  0  0  0  0  0  0  0  0  0
    1.6577    0.8571   -1.9388 H   0  0  0  0  0  0  0  0  0  0  0  0
    3.8213    1.0471    1.9050 H   0  0  0  0  0  0  0  0  0  0  0  0
    4.9090    2.2715    3.7510 H   0  0  0  0  0  0  0  0  0  0  0  0
    5.8356    4.5438    3.3765 H   0  0  0  0  0  0  0  0  0  0  0  0
    5.6638    5.6015    1.1383 H   0  0  0  0  0  0  0  0  0  0  0  0
    4.5857    4.3901   -0.7335 H   0  0  0  0  0  0  0  0  0  0  0  0
    2.6600   -0.7839   -3.1177 H   0  0  0  0  0  0  0  0  0  0  0  0
    4.6350   -2.0478   -2.3353 H   0  0  0  0  0  0  0  0  0  0  0  0
    4.8095   -0.3128   -2.0647 H   0  0  0  0  0  0  0  0  0  0  0  0
    4.4424   -1.3906   -0.7082 H   0  0  0  0  0  0  0  0  0  0  0  0
    2.5310   -3.1700   -1.8344 H   0  0  0  0  0  0  0  0  0  0  0  0
    1.1488   -2.3374   -2.5296 H   0  0  0  0  0  0  0  0  0  0  0  0
    4.6366   -2.2604    1.9116 H   0  0  0  0  0  0  0  0  0  0  0  0
    3.2398   -2.7270    2.9461 H   0  0  0  0  0  0  0  0  0  0  0  0
    4.3734   -3.9620    2.3903 H   0  0  0  0  0  0  0  0  0  0  0  0
   -0.6496   -2.7844   -1.0586 H   0  0  0  0  0  0  0  0  0  0  0  0
    1.8567   -6.3349   -1.4545 H   0  0  0  0  0  0  0  0  0  0  0  0
    0.4255   -6.9975   -0.5909 H   0  0  0  0  0  0  0  0  0  0  0  0
    0.4774   -6.9815   -2.3683 H   0  0  0  0  0  0  0  0  0  0  0  0
   -1.4465   -3.9738    0.9925 H   0  0  0  0  0  0  0  0  0  0  0  0
    0.6106   -4.0567    2.3202 H   0  0  0  0  0  0  0  0  0  0  0  0
    0.5175   -2.3078    2.6019 H   0  0  0  0  0  0  0  0  0  0  0  0
   -0.7551   -3.3672    3.2062 H   0  0  0  0  0  0  0  0  0  0  0  0
   -1.5776   -1.1026    1.8163 H   0  0  0  0  0  0  0  0  0  0  0  0
   -3.2871   -2.7606   -0.1152 H   0  0  0  0  0  0  0  0  0  0  0  0
   -5.4563   -1.9702    1.6228 H   0  0  0  0  0  0  0  0  0  0  0  0
   -5.8243   -0.2440    1.6612 H   0  0  0  0  0  0  0  0  0  0  0  0
   -4.4916   -0.8868    2.6320 H   0  0  0  0  0  0  0  0  0  0  0  0
   -5.5693    0.0051   -0.8941 H   0  0  0  0  0  0  0  0  0  0  0  0
   -5.4206   -1.7525   -0.8737 H   0  0  0  0  0  0  0  0  0  0  0  0
   -4.2017   -0.7907   -1.7003 H   0  0  0  0  0  0  0  0  0  0  0  0
   -2.8419    0.6571    1.6120 H   0  0  0  0  0  0  0  0  0  0  0  0
   -6.3697    3.1487    1.1115 H   0  0  0  0  0  0  0  0  0  0  0  0
   -5.0767    4.3518    0.8081 H   0  0  0  0  0  0  0  0  0  0  0  0
   -5.7013    4.0808    2.4597 H   0  0  0  0  0  0  0  0  0  0  0  0
  1  2  1  0
  2  3  2  0
  2  4  1  0
  4  5  1  0
  5  6  1  0
  6  7  1  0
  7  8  1  0
  8  9  1  0
  8 10  2  0
  6 11  1  0
 11 12  1  0
 11 13  2  0
 13 14  1  0
 14 15  1  0
 15 16  1  0
 16 17  1  0
 17 18  2  0
 17 19  1  0
 19 20  2  0
 20 21  1  0
 21 22  2  0
 22 23  1  0
 23 24  2  0
 15 25  1  0
 25 26  1  0
 25 27  1  0
 27 28  1  0
 28 29  1  1
 29 30  1  0
 30 31  1  0
 30 32  2  0
 28 33  1  0
 33 34  1  0
 34 35  1  0
 35 36  1  0
 35 37  2  0
 33 38  1  0
 38 39  1  0
 38 40  1  0
 40 41  2  0
 41 42  1  0
 42 43  1  0
 42 44  1  0
 42 45  1  0
 45 46  1  0
 46 47  1  0
 47 48  1  0
 47 49  2  0
 45  5  1  0
 28 14  1  0
 24 19  1  0
  1 50  1  0
  1 51  1  0
  1 52  1  0
  5 53  1  6
  6 54  1  1
  9 55  1  0
  9 56  1  0
  9 57  1  0
 12 58  1  0
 12 59  1  0
 12 60  1  0
 13 61  1  0
 14 62  1  6
 15 63  1  6
 20 64  1  0
 21 65  1  0
 22 66  1  0
 23 67  1  0
 24 68  1  0
 25 69  1  6
 26 70  1  0
 26 71  1  0
 26 72  1  0
 27 73  1  0
 27 74  1  0
 31 75  1  0
 31 76  1  0
 31 77  1  0
 33 78  1  6
 36 79  1  0
 36 80  1  0
 36 81  1  0
 38 82  1  6
 39 83  1  0
 39 84  1  0
 39 85  1  0
 40 86  1  0
 41 87  1  0
 43 88  1  0
 43 89  1  0
 43 90  1  0
 44 91  1  0
 44 92  1  0
 44 93  1  0
 45 94  1  1
 48 95  1  0
 48 96  1  0
 48 97  1  0
M  END
$$$$
