
     RDKit          3D

 58 61  0  0  0  0  0  0  0  0999 V2000
   -2.0033    4.3191   -1.2971 C   0  0  0  0  0  0  0  0  0  0  0  0
   -2.9070    4.4673   -0.2075 O   0  0  0  0  0  0  0  0  0  0  0  0
   -3.4047    3.3173    0.3405 C   0  0  0  0  0  0  0  0  0  0  0  0
   -4.2819    3.5127    1.4092 C   0  0  0  0  0  0  0  0  0  0  0  0
   -4.8566    2.4245    2.0649 C   0  0  0  0  0  0  0  0  0  0  0  0
   -4.5515    1.1270    1.6555 C   0  0  0  0  0  0  0  0  0  0  0  0
   -3.6738    0.9105    0.5836 C   0  0  0  0  0  0  0  0  0  0  0  0
   -3.3257   -0.4546    0.1619 C   0  0  0  0  0  0  0  0  0  0  0  0
   -4.5790   -1.4835   -0.3872 S   0  0  0  0  0  0  0  0  0  0  0  0
   -3.5025   -2.7822   -0.7014 C   0  0  0  0  0  0  0  0  0  0  0  0
   -3.8383   -4.0548   -1.2019 C   0  0  0  0  0  0  0  0  0  0  0  0
   -2.8282   -5.0041   -1.3937 C   0  0  0  0  0  0  0  0  0  0  0  0
   -1.5078   -4.7014   -1.0928 C   0  0  0  0  0  0  0  0  0  0  0  0
   -0.4377   -5.5424   -1.2319 O   0  0  0  0  0  0  0  0  0  0  0  0
   -0.7136   -6.8714   -1.6538 C   0  0  0  0  0  0  0  0  0  0  0  0
   -1.1873   -3.4306   -0.6006 C   0  0  0  0  0  0  0  0  0  0  0  0
   -2.1851   -2.4411   -0.3973 C   0  0  0  0  0  0  0  0  0  0  0  0
   -2.0902   -1.0841    0.0974 C   0  0  0  0  0  0  0  0  0  0  0  0
   -0.8593   -0.4091    0.4997 C   0  0  0  0  0  0  0  0  0  0  0  0
   -0.6388   -0.0659    1.8359 C   0  0  0  0  0  0  0  0  0  0  0  0
    0.5383    0.5913    2.2030 C   0  0  0  0  0  0  0  0  0  0  0  0
    1.5044    0.9158    1.2471 C   0  0  0  0  0  0  0  0  0  0  0  0
    2.6052    1.5548    1.7467 O   0  0  0  0  0  0  0  0  0  0  0  0
    3.5273    2.1387    0.8197 C   0  0  0  0  0  0  0  0  0  0  0  0
    4.6460    1.1437    0.4631 C   0  0  0  0  0  0  0  0  0  0  0  0
    5.5174    1.5951   -0.6397 N   0  0  0  0  0  0  0  0  0  0  0  0
    6.3051    2.7727   -0.2684 C   0  0  0  0  0  0  0  0  0  0  0  0
    6.4139    0.5075   -1.0451 C   0  0  0  0  0  0  0  0  0  0  0  0
    1.2910    0.5582   -0.0846 C   0  0  0  0  0  0  0  0  0  0  0  0
    0.1142   -0.1019   -0.4571 C   0  0  0  0  0  0  0  0  0  0  0  0
   -3.1077    2.0169   -0.0724 C   0  0  0  0  0  0  0  0  0  0  0  0
   -1.6849    5.3192   -1.6066 H   0  0  0  0  0  0  0  0  0  0  0  0
   -1.1062    3.7639   -0.9971 H   0  0  0  0  0  0  0  0  0  0  0  0
   -2.4944    3.8469   -2.1535 H   0  0  0  0  0  0  0  0  0  0  0  0
   -4.5169    4.5234    1.7340 H   0  0  0  0  0  0  0  0  0  0  0  0
   -5.5359    2.5882    2.8964 H   0  0  0  0  0  0  0  0  0  0  0  0
   -4.9956    0.2863    2.1840 H   0  0  0  0  0  0  0  0  0  0  0  0
   -4.8705   -4.2999   -1.4371 H   0  0  0  0  0  0  0  0  0  0  0  0
   -3.1176   -5.9750   -1.7824 H   0  0  0  0  0  0  0  0  0  0  0  0
    0.2330   -7.4189   -1.6755 H   0  0  0  0  0  0  0  0  0  0  0  0
   -1.3765   -7.3803   -0.9474 H   0  0  0  0  0  0  0  0  0  0  0  0
   -1.1290   -6.8845   -2.6660 H   0  0  0  0  0  0  0  0  0  0  0  0
   -0.1502   -3.2035   -0.3630 H   0  0  0  0  0  0  0  0  0  0  0  0
   -1.3776   -0.3014    2.5977 H   0  0  0  0  0  0  0  0  0  0  0  0
    0.6998    0.8595    3.2441 H   0  0  0  0  0  0  0  0  0  0  0  0
    3.0208    2.5431   -0.0658 H   0  0  0  0  0  0  0  0  0  0  0  0
    3.9633    3.0023    1.3358 H   0  0  0  0  0  0  0  0  0  0  0  0
    4.1768    0.1916    0.1785 H   0  0  0  0  0  0  0  0  0  0  0  0
    5.2310    0.9188    1.3670 H   0  0  0  0  0  0  0  0  0  0  0  0
    6.9599    3.0730   -1.0954 H   0  0  0  0  0  0  0  0  0  0  0  0
    6.9292    2.5924    0.6142 H   0  0  0  0  0  0  0  0  0  0  0  0
    5.6595    3.6333   -0.0682 H   0  0  0  0  0  0  0  0  0  0  0  0
    7.0269    0.8133   -1.9007 H   0  0  0  0  0  0  0  0  0  0  0  0
    7.0811    0.1977   -0.2333 H   0  0  0  0  0  0  0  0  0  0  0  0
    5.8392   -0.3657   -1.3721 H   0  0  0  0  0  0  0  0  0  0  0  0
    2.0216    0.7665   -0.8597 H   0  0  0  0  0  0  0  0  0  0  0  0
   -0.0367   -0.3710   -1.5003 H   0  0  0  0  0  0  0  0  0  0  0  0
   -2.4327    1.8347   -0.9030 H   0  0  0  0  0  0  0  0  0  0  0  0
  1  2  1  0
  2  3  1  0
  3  4  2  0
  4  5  1  0
  5  6  2  0
  6  7  1  0
  7  8  1  0
  8  9  1  0
  9 10  1  0
 10 11  2  0
 11 12  1  0
 12 13  2  0
 13 14  1  0
 14 15  1  0
 13 16  1  0
 16 17  2  0
 17 18  1  0
 18 19  1  0
 19 20  2  0
 20 21  1  0
 21 22  2  0
 22 23  1  0
 23 24  1  0
 24 25  1  0
 25 26  1  0
 26 27  1  0
 26 28  1  0
 22 29  1  0
 29 30  2  0
  7 31  2  0
 31  3  1  0
 18  8  2  0
 30 19  1  0
 17 10  1  0
  1 32  1  0
  1 33  1  0
  1 34  1  0
  4 35  1  0
  5 36  1  0
  6 37  1  0
 11 38  1  0
 12 39  1  0
 15 40  1  0
 15 41  1  0
 15 42  1  0
 16 43  1  0
 20 44  1  0
 21 45  1  0
 24 46  1  0
 24 47  1  0
 25 48  1  0
 25 49  1  0
 27 50  1  0
 27 51  1  0
 27 52  1  0
 28 53  1  0
 28 54  1  0
 28 55  1  0
 29 56  1  0
 30 57  1  0
 31 58  1  0
M  END
$$$$
