
     RDKit          3D

 54 57  0  0  0  0  0  0  0  0999 V2000
    0.9983   -1.3751   -2.0535 O   0  0  0  0  0  0  0  0  0  0  0  0
    0.1746   -1.4795   -1.1470 C   0  0  0  0  0  0  0  0  0  0  0  0
   -1.0920   -2.3270   -1.3282 C   0  0  0  0  0  0  0  0  0  0  0  0
   -2.3159   -1.5911   -1.2838 O   0  0  0  0  0  0  0  0  0  0  0  0
   -2.7819   -1.3050   -0.0451 C   0  0  0  0  0  0  0  0  0  0  0  0
   -2.2078   -1.5803    0.9987 O   0  0  0  0  0  0  0  0  0  0  0  0
   -4.0831   -0.5893   -0.1148 C   0  0  0  0  0  0  0  0  0  0  0  0
   -4.6856   -0.2442   -1.3341 C   0  0  0  0  0  0  0  0  0  0  0  0
   -5.9065    0.4365   -1.3462 C   0  0  0  0  0  0  0  0  0  0  0  0
   -6.5252    0.7761   -0.1452 C   0  0  0  0  0  0  0  0  0  0  0  0
   -5.9412    0.4107    1.0715 C   0  0  0  0  0  0  0  0  0  0  0  0
   -4.7172   -0.2562    1.0896 C   0  0  0  0  0  0  0  0  0  0  0  0
   -6.5106    0.6832    2.2890 O   0  0  0  0  0  0  0  0  0  0  0  0
   -7.8881    1.0529    2.1523 C   0  0  0  0  0  0  0  0  0  0  0  0
   -8.0666    2.0518    1.0209 C   0  0  0  0  0  0  0  0  0  0  0  0
   -7.7085    1.4621   -0.2346 O   0  0  0  0  0  0  0  0  0  0  0  0
    0.2896   -0.9313    0.1188 N   0  0  0  0  0  0  0  0  0  0  0  0
    1.3058   -0.0826    0.5947 C   0  0  0  0  0  0  0  0  0  0  0  0
    1.3331    0.1786    1.9708 C   0  0  0  0  0  0  0  0  0  0  0  0
    2.3278    0.9889    2.5253 C   0  0  0  0  0  0  0  0  0  0  0  0
    3.3081    1.5450    1.7074 C   0  0  0  0  0  0  0  0  0  0  0  0
    3.2789    1.2908    0.3337 C   0  0  0  0  0  0  0  0  0  0  0  0
    4.5092    2.0188   -0.7281 S   0  0  0  0  0  6  0  0  0  0  0  0
    5.2551    2.9715    0.0690 O   0  0  0  0  0  0  0  0  0  0  0  0
    3.8472    2.4259   -1.9484 O   0  0  0  0  0  0  0  0  0  0  0  0
    5.5496    0.7327   -1.0801 N   0  0  0  0  0  0  0  0  0  0  0  0
    6.3908    0.2139    0.0317 C   0  0  0  0  0  0  0  0  0  0  0  0
    7.1555   -1.0303   -0.4312 C   0  0  0  0  0  0  0  0  0  0  0  0
    6.2912   -2.1154   -0.7977 O   0  0  0  0  0  0  0  0  0  0  0  0
    5.0345   -1.6884   -1.3467 C   0  0  0  0  0  0  0  0  0  0  0  0
    5.0980   -0.3202   -2.0338 C   0  0  0  0  0  0  0  0  0  0  0  0
    2.2651    0.5067   -0.2273 C   0  0  0  0  0  0  0  0  0  0  0  0
   -1.0933   -3.1472   -0.5995 H   0  0  0  0  0  0  0  0  0  0  0  0
   -1.0400   -2.7940   -2.3182 H   0  0  0  0  0  0  0  0  0  0  0  0
   -4.2158   -0.4904   -2.2835 H   0  0  0  0  0  0  0  0  0  0  0  0
   -6.3678    0.7124   -2.2911 H   0  0  0  0  0  0  0  0  0  0  0  0
   -4.2691   -0.5222    2.0444 H   0  0  0  0  0  0  0  0  0  0  0  0
   -8.2086    1.4940    3.1012 H   0  0  0  0  0  0  0  0  0  0  0  0
   -8.4772    0.1433    1.9814 H   0  0  0  0  0  0  0  0  0  0  0  0
   -7.4506    2.9467    1.1741 H   0  0  0  0  0  0  0  0  0  0  0  0
   -9.1131    2.3651    0.9538 H   0  0  0  0  0  0  0  0  0  0  0  0
   -0.4185   -1.2167    0.7982 H   0  0  0  0  0  0  0  0  0  0  0  0
    0.5836   -0.2529    2.6312 H   0  0  0  0  0  0  0  0  0  0  0  0
    2.3357    1.1841    3.5951 H   0  0  0  0  0  0  0  0  0  0  0  0
    4.0784    2.1779    2.1430 H   0  0  0  0  0  0  0  0  0  0  0  0
    5.7578   -0.0501    0.8848 H   0  0  0  0  0  0  0  0  0  0  0  0
    7.1046    0.9856    0.3364 H   0  0  0  0  0  0  0  0  0  0  0  0
    7.7892   -0.7979   -1.2951 H   0  0  0  0  0  0  0  0  0  0  0  0
    7.8109   -1.3902    0.3683 H   0  0  0  0  0  0  0  0  0  0  0  0
    4.3061   -1.6790   -0.5288 H   0  0  0  0  0  0  0  0  0  0  0  0
    4.7127   -2.4539   -2.0598 H   0  0  0  0  0  0  0  0  0  0  0  0
    5.8295   -0.3478   -2.8504 H   0  0  0  0  0  0  0  0  0  0  0  0
    4.1316   -0.0798   -2.4827 H   0  0  0  0  0  0  0  0  0  0  0  0
    2.2319    0.3829   -1.3044 H   0  0  0  0  0  0  0  0  0  0  0  0
  1  2  2  0
  2  3  1  0
  3  4  1  0
  4  5  1  0
  5  6  2  0
  5  7  1  0
  7  8  2  0
  8  9  1  0
  9 10  2  0
 10 11  1  0
 11 12  2  0
 11 13  1  0
 13 14  1  0
 14 15  1  0
 15 16  1  0
  2 17  1  0
 17 18  1  0
 18 19  2  0
 19 20  1  0
 20 21  2  0
 21 22  1  0
 22 23  1  0
 23 24  2  0
 23 25  2  0
 23 26  1  0
 26 27  1  0
 27 28  1  0
 28 29  1  0
 29 30  1  0
 30 31  1  0
 22 32  2  0
 12  7  1  0
 32 18  1  0
 16 10  1  0
 31 26  1  0
  3 33  1  0
  3 34  1  0
  8 35  1  0
  9 36  1  0
 12 37  1  0
 14 38  1  0
 14 39  1  0
 15 40  1  0
 15 41  1  0
 17 42  1  0
 19 43  1  0
 20 44  1  0
 21 45  1  0
 27 46  1  0
 27 47  1  0
 28 48  1  0
 28 49  1  0
 30 50  1  0
 30 51  1  0
 31 52  1  0
 31 53  1  0
 32 54  1  0
M  END
$$$$
