
     RDKit          3D

 53 54  0  0  0  0  0  0  0  0999 V2000
   -6.3194   -0.0588    1.9681 C   0  0  0  0  0  0  0  0  0  0  0  0
   -5.7906   -1.1517    1.0566 C   0  0  0  0  0  0  0  0  0  0  0  0
   -6.0030   -0.8929   -0.3893 N   0  0  0  0  0  0  0  0  0  0  0  0
   -7.3967   -1.1186   -0.8505 C   0  0  0  0  0  0  0  0  0  0  0  0
   -7.4407   -2.3891   -1.6819 C   0  0  0  0  0  0  0  0  0  0  0  0
   -5.1980    0.4046   -1.1405 S   0  0  0  0  0  6  0  0  0  0  0  0
   -5.3648    0.2663   -2.5723 O   0  0  0  0  0  0  0  0  0  0  0  0
   -5.5825    1.6260   -0.4656 O   0  0  0  0  0  0  0  0  0  0  0  0
   -3.4898    0.0731   -0.7828 C   0  0  0  0  0  0  0  0  0  0  0  0
   -2.7683    0.9275    0.0548 C   0  0  0  0  0  0  0  0  0  0  0  0
   -1.4258    0.6503    0.3288 C   0  0  0  0  0  0  0  0  0  0  0  0
   -0.8062   -0.4768   -0.2341 C   0  0  0  0  0  0  0  0  0  0  0  0
    0.6170   -0.8224    0.0351 C   0  0  0  0  0  0  0  0  0  0  0  0
    1.1797   -1.7896   -0.4531 O   0  0  0  0  0  0  0  0  0  0  0  0
    1.1674    0.0608    0.9033 O   0  0  0  0  0  0  0  0  0  0  0  0
    2.5628   -0.1363    1.1262 C   0  0  0  0  0  0  0  0  0  0  0  0
    3.4258    0.3496   -0.0423 C   0  0  0  0  0  0  0  0  0  0  0  0
    3.0186    1.1255   -0.9038 O   0  0  0  0  0  0  0  0  0  0  0  0
    4.7186   -0.1435   -0.0255 N   0  0  0  0  0  0  0  0  0  0  0  0
    5.7166    0.3916   -0.9371 C   0  0  0  0  0  0  0  0  0  0  0  0
    6.2950    1.7301   -0.4514 C   0  0  0  0  0  0  0  0  0  0  0  0
    7.2641    1.5607    0.6273 N   0  0  0  0  0  0  0  0  0  0  0  0
    8.6242    1.6277    0.4389 C   0  0  0  0  0  0  0  0  0  0  0  0
    9.1096    1.8684   -0.8111 O   0  0  0  0  0  0  0  0  0  0  0  0
    9.3509    1.4329    1.5452 C   0  0  0  0  0  0  0  0  0  0  0  0
    8.3344    1.1373    2.9220 S   0  0  0  0  0  0  0  0  0  0  0  0
    6.8734    1.2621    1.9234 C   0  0  0  0  0  0  0  0  0  0  0  0
    5.7477    1.0632    2.3523 O   0  0  0  0  0  0  0  0  0  0  0  0
   -1.5408   -1.3177   -1.0847 C   0  0  0  0  0  0  0  0  0  0  0  0
   -2.8814   -1.0435   -1.3637 C   0  0  0  0  0  0  0  0  0  0  0  0
   -5.7020    0.8418    1.9152 H   0  0  0  0  0  0  0  0  0  0  0  0
   -6.2976   -0.4010    3.0081 H   0  0  0  0  0  0  0  0  0  0  0  0
   -7.3502    0.2162    1.7252 H   0  0  0  0  0  0  0  0  0  0  0  0
   -4.7265   -1.3207    1.2504 H   0  0  0  0  0  0  0  0  0  0  0  0
   -6.2837   -2.0993    1.3097 H   0  0  0  0  0  0  0  0  0  0  0  0
   -7.7595   -0.2730   -1.4443 H   0  0  0  0  0  0  0  0  0  0  0  0
   -8.0826   -1.2134   -0.0018 H   0  0  0  0  0  0  0  0  0  0  0  0
   -8.4590   -2.5788   -2.0349 H   0  0  0  0  0  0  0  0  0  0  0  0
   -6.7844   -2.3125   -2.5553 H   0  0  0  0  0  0  0  0  0  0  0  0
   -7.1159   -3.2537   -1.0941 H   0  0  0  0  0  0  0  0  0  0  0  0
   -3.2368    1.8067    0.4928 H   0  0  0  0  0  0  0  0  0  0  0  0
   -0.8722    1.3260    0.9771 H   0  0  0  0  0  0  0  0  0  0  0  0
    2.8369    0.4573    2.0048 H   0  0  0  0  0  0  0  0  0  0  0  0
    2.7770   -1.1864    1.3580 H   0  0  0  0  0  0  0  0  0  0  0  0
    5.0499   -0.4970    0.8670 H   0  0  0  0  0  0  0  0  0  0  0  0
    5.2466    0.5323   -1.9172 H   0  0  0  0  0  0  0  0  0  0  0  0
    6.5044   -0.3633   -1.0387 H   0  0  0  0  0  0  0  0  0  0  0  0
    5.4925    2.3787   -0.0795 H   0  0  0  0  0  0  0  0  0  0  0  0
    6.7679    2.2522   -1.2903 H   0  0  0  0  0  0  0  0  0  0  0  0
   10.0804    1.9106   -0.7627 H   0  0  0  0  0  0  0  0  0  0  0  0
   10.4288    1.4437    1.6140 H   0  0  0  0  0  0  0  0  0  0  0  0
   -1.0673   -2.1876   -1.5381 H   0  0  0  0  0  0  0  0  0  0  0  0
   -3.4444   -1.6956   -2.0290 H   0  0  0  0  0  0  0  0  0  0  0  0
  1  2  1  0
  2  3  1  0
  3  4  1  0
  4  5  1  0
  3  6  1  0
  6  7  2  0
  6  8  2  0
  6  9  1  0
  9 10  2  0
 10 11  1  0
 11 12  2  0
 12 13  1  0
 13 14  2  0
 13 15  1  0
 15 16  1  0
 16 17  1  0
 17 18  2  0
 17 19  1  0
 19 20  1  0
 20 21  1  0
 21 22  1  0
 22 23  1  0
 23 24  1  0
 23 25  2  0
 25 26  1  0
 26 27  1  0
 27 28  2  0
 12 29  1  0
 29 30  2  0
 30  9  1  0
 27 22  1  0
  1 31  1  0
  1 32  1  0
  1 33  1  0
  2 34  1  0
  2 35  1  0
  4 36  1  0
  4 37  1  0
  5 38  1  0
  5 39  1  0
  5 40  1  0
 10 41  1  0
 11 42  1  0
 16 43  1  0
 16 44  1  0
 19 45  1  0
 20 46  1  0
 20 47  1  0
 21 48  1  0
 21 49  1  0
 24 50  1  0
 25 51  1  0
 29 52  1  0
 30 53  1  0
M  END
$$$$
