
     RDKit          3D

 34 36  0  0  0  0  0  0  0  0999 V2000
    3.1774   -1.9120    1.7073 N   0  0  0  0  0  0  0  0  0  0  0  0
    2.1988   -1.6138    0.6631 C   0  0  0  0  0  0  0  0  0  0  0  0
    2.3321   -0.1720    0.1793 C   0  0  0  0  0  0  0  0  0  0  0  0
    1.3776    0.1893   -0.9720 C   0  0  0  0  0  0  0  0  0  0  0  0
   -0.0396    0.2899   -0.5418 N   0  0  0  0  0  0  0  0  0  0  0  0
   -0.9048   -0.8142   -0.8198 C   0  0  0  0  0  0  0  0  0  0  0  0
   -0.4586   -2.0035   -1.4443 C   0  0  0  0  0  0  0  0  0  0  0  0
   -1.3031   -3.0891   -1.7184 C   0  0  0  0  0  0  0  0  0  0  0  0
   -2.6402   -3.0300   -1.3761 C   0  0  0  0  0  0  0  0  0  0  0  0
   -3.1215   -1.8847   -0.7583 C   0  0  0  0  0  0  0  0  0  0  0  0
   -2.2740   -0.7903   -0.4796 C   0  0  0  0  0  0  0  0  0  0  0  0
   -3.0784    0.5730    0.3197 S   0  0  0  0  0  0  0  0  0  0  0  0
   -1.7621    1.7433    0.5085 C   0  0  0  0  0  0  0  0  0  0  0  0
   -2.1397    2.9554    1.1266 C   0  0  0  0  0  0  0  0  0  0  0  0
   -1.2183    3.9716    1.3425 C   0  0  0  0  0  0  0  0  0  0  0  0
    0.0885    3.7761    0.9387 C   0  0  0  0  0  0  0  0  0  0  0  0
    1.2553    5.0161    1.1961 Cl  0  0  0  0  0  0  0  0  0  0  0  0
    0.4724    2.5780    0.3244 C   0  0  0  0  0  0  0  0  0  0  0  0
   -0.4351    1.5169    0.0861 C   0  0  0  0  0  0  0  0  0  0  0  0
    3.0036   -1.3151    2.5160 H   0  0  0  0  0  0  0  0  0  0  0  0
    4.1168   -1.6855    1.3846 H   0  0  0  0  0  0  0  0  0  0  0  0
    2.3616   -2.3086   -0.1668 H   0  0  0  0  0  0  0  0  0  0  0  0
    1.1987   -1.7992    1.0659 H   0  0  0  0  0  0  0  0  0  0  0  0
    2.1908    0.5042    1.0299 H   0  0  0  0  0  0  0  0  0  0  0  0
    3.3579   -0.0111   -0.1776 H   0  0  0  0  0  0  0  0  0  0  0  0
    1.6976    1.1359   -1.4259 H   0  0  0  0  0  0  0  0  0  0  0  0
    1.5334   -0.4941   -1.8108 H   0  0  0  0  0  0  0  0  0  0  0  0
    0.5721   -2.1544   -1.7403 H   0  0  0  0  0  0  0  0  0  0  0  0
   -0.9024   -3.9791   -2.1978 H   0  0  0  0  0  0  0  0  0  0  0  0
   -3.3032   -3.8650   -1.5825 H   0  0  0  0  0  0  0  0  0  0  0  0
   -4.1753   -1.8451   -0.4876 H   0  0  0  0  0  0  0  0  0  0  0  0
   -3.1695    3.1108    1.4454 H   0  0  0  0  0  0  0  0  0  0  0  0
   -1.5267    4.8969    1.8198 H   0  0  0  0  0  0  0  0  0  0  0  0
    1.5176    2.5093    0.0458 H   0  0  0  0  0  0  0  0  0  0  0  0
  1  2  1  0
  2  3  1  0
  3  4  1  0
  4  5  1  0
  5  6  1  0
  6  7  2  0
  7  8  1  0
  8  9  2  0
  9 10  1  0
 10 11  2  0
 11 12  1  0
 12 13  1  0
 13 14  2  0
 14 15  1  0
 15 16  2  0
 16 17  1  0
 16 18  1  0
 18 19  2  0
 19  5  1  0
 11  6  1  0
 19 13  1  0
  1 20  1  0
  1 21  1  0
  2 22  1  0
  2 23  1  0
  3 24  1  0
  3 25  1  0
  4 26  1  0
  4 27  1  0
  7 28  1  0
  8 29  1  0
  9 30  1  0
 10 31  1  0
 14 32  1  0
 15 33  1  0
 18 34  1  0
M  END
$$$$
