
     RDKit          3D

 44 46  0  0  0  0  0  0  0  0999 V2000
   -4.5788    0.5336    4.3558 C   0  0  0  0  0  0  0  0  0  0  0  0
   -3.4369    0.1852    3.4391 C   0  0  0  0  0  0  0  0  0  0  0  0
   -2.8802    1.1868    2.6247 C   0  0  0  0  0  0  0  0  0  0  0  0
   -1.8129    0.9250    1.7481 C   0  0  0  0  0  0  0  0  0  0  0  0
   -1.2623    2.0612    0.9323 C   0  0  0  0  0  0  0  0  0  0  0  0
   -1.2967   -0.3808    1.7078 C   0  0  0  0  0  0  0  0  0  0  0  0
    0.0694   -0.8237    0.6433 S   0  0  0  0  0  6  0  0  0  0  0  0
    1.0777    0.2071    0.7468 O   0  0  0  0  0  0  0  0  0  0  0  0
    0.3866   -2.2186    0.8765 O   0  0  0  0  0  0  0  0  0  0  0  0
   -0.6844   -0.7661   -0.8903 N   0  0  0  0  0  0  0  0  0  0  0  0
    0.2394   -0.8019   -1.9869 C   0  0  0  0  0  0  0  0  0  0  0  0
    0.6355   -2.0241   -2.5279 C   0  0  0  0  0  0  0  0  0  0  0  0
    1.5673   -2.0477   -3.5640 C   0  0  0  0  0  0  0  0  0  0  0  0
    2.1133   -0.8550   -4.0375 C   0  0  0  0  0  0  0  0  0  0  0  0
    3.0323   -0.9782   -5.0434 O   0  0  0  0  0  0  0  0  0  0  0  0
    1.7322    0.3811   -3.4949 C   0  0  0  0  0  0  0  0  0  0  0  0
    2.3087    1.9581   -4.1067 S   0  0  0  0  0  0  0  0  0  0  0  0
    4.0027    1.9041   -3.7182 C   0  0  0  0  0  0  0  0  0  0  0  0
    4.8299    0.9109   -4.1801 N   0  0  0  0  0  0  0  0  0  0  0  0
    5.9952    1.2458   -3.6756 C   0  0  0  0  0  0  0  0  0  0  0  0
    5.8687    2.3968   -2.9631 N   0  0  0  0  0  0  0  0  0  0  0  0
    4.6064    2.8500   -2.9951 N   0  0  0  0  0  0  0  0  0  0  0  0
    0.7904    0.3921   -2.4567 C   0  0  0  0  0  0  0  0  0  0  0  0
   -1.8392   -1.3870    2.5235 C   0  0  0  0  0  0  0  0  0  0  0  0
   -2.9099   -1.1173    3.3886 C   0  0  0  0  0  0  0  0  0  0  0  0
   -3.4605   -2.2222    4.2486 C   0  0  0  0  0  0  0  0  0  0  0  0
   -5.4585   -0.0713    4.1144 H   0  0  0  0  0  0  0  0  0  0  0  0
   -4.2934    0.3649    5.3989 H   0  0  0  0  0  0  0  0  0  0  0  0
   -4.8672    1.5856    4.2586 H   0  0  0  0  0  0  0  0  0  0  0  0
   -3.2870    2.1967    2.6786 H   0  0  0  0  0  0  0  0  0  0  0  0
   -1.9138    2.9407    0.9857 H   0  0  0  0  0  0  0  0  0  0  0  0
   -0.2798    2.3605    1.3084 H   0  0  0  0  0  0  0  0  0  0  0  0
   -1.1936    1.7928   -0.1245 H   0  0  0  0  0  0  0  0  0  0  0  0
   -1.3332   -1.5543   -0.9326 H   0  0  0  0  0  0  0  0  0  0  0  0
    0.2396   -2.9615   -2.1476 H   0  0  0  0  0  0  0  0  0  0  0  0
    1.8833   -2.9944   -3.9943 H   0  0  0  0  0  0  0  0  0  0  0  0
    3.6510   -0.2201   -4.9716 H   0  0  0  0  0  0  0  0  0  0  0  0
    6.9302    0.7152   -3.7877 H   0  0  0  0  0  0  0  0  0  0  0  0
    6.5725    2.9169   -2.4505 H   0  0  0  0  0  0  0  0  0  0  0  0
    0.4796    1.3336   -2.0105 H   0  0  0  0  0  0  0  0  0  0  0  0
   -1.4226   -2.3931    2.4942 H   0  0  0  0  0  0  0  0  0  0  0  0
   -2.9401   -3.1691    4.0699 H   0  0  0  0  0  0  0  0  0  0  0  0
   -4.5204   -2.3839    4.0282 H   0  0  0  0  0  0  0  0  0  0  0  0
   -3.3405   -1.9746    5.3080 H   0  0  0  0  0  0  0  0  0  0  0  0
  1  2  1  0
  2  3  2  0
  3  4  1  0
  4  5  1  0
  4  6  2  0
  6  7  1  0
  7  8  2  0
  7  9  2  0
  7 10  1  0
 10 11  1  0
 11 12  2  0
 12 13  1  0
 13 14  2  0
 14 15  1  0
 14 16  1  0
 16 17  1  0
 17 18  1  0
 18 19  1  0
 19 20  2  0
 20 21  1  0
 21 22  1  0
 16 23  2  0
  6 24  1  0
 24 25  2  0
 25 26  1  0
 25  2  1  0
 23 11  1  0
 22 18  2  0
  1 27  1  0
  1 28  1  0
  1 29  1  0
  3 30  1  0
  5 31  1  0
  5 32  1  0
  5 33  1  0
 10 34  1  0
 12 35  1  0
 13 36  1  0
 15 37  1  0
 20 38  1  0
 21 39  1  0
 23 40  1  0
 24 41  1  0
 26 42  1  0
 26 43  1  0
 26 44  1  0
M  END
$$$$
