
     RDKit          3D

 44 47  0  0  0  0  0  0  0  0999 V2000
   -1.8201    4.9347   -0.3892 C   0  0  0  0  0  0  0  0  0  0  0  0
   -1.9111    3.4982   -0.1694 N   0  0  0  0  0  0  0  0  0  0  0  0
   -3.0985    2.9392    0.2624 C   0  0  0  0  0  0  0  0  0  0  0  0
   -4.1090    3.6073    0.4770 O   0  0  0  0  0  0  0  0  0  0  0  0
   -3.1334    1.4601    0.4788 C   0  0  0  0  0  0  0  0  0  0  0  0
   -4.3672    0.9222    0.9587 C   0  0  0  0  0  0  0  0  0  0  0  0
   -5.3474    0.4373    1.3488 N   0  0  0  0  0  0  0  0  0  0  0  0
   -2.0478    0.6896    0.2382 C   0  0  0  0  0  0  0  0  0  0  0  0
   -2.1311   -0.7701    0.4973 C   0  0  0  0  0  0  0  0  0  0  0  0
   -1.7168   -1.2868    1.7349 C   0  0  0  0  0  0  0  0  0  0  0  0
   -1.7614   -2.6622    1.9680 C   0  0  0  0  0  0  0  0  0  0  0  0
   -2.2204   -3.5131    0.9690 C   0  0  0  0  0  0  0  0  0  0  0  0
   -2.2572   -4.8325    1.1930 F   0  0  0  0  0  0  0  0  0  0  0  0
   -2.6366   -3.0158   -0.2610 C   0  0  0  0  0  0  0  0  0  0  0  0
   -2.5920   -1.6414   -0.5010 C   0  0  0  0  0  0  0  0  0  0  0  0
   -0.8121    1.3460   -0.2498 C   0  0  0  0  0  0  0  0  0  0  0  0
    0.3464    0.6046   -0.5377 C   0  0  0  0  0  0  0  0  0  0  0  0
    1.5097    1.2521   -0.9540 C   0  0  0  0  0  0  0  0  0  0  0  0
    2.7629    0.5349   -1.2680 C   0  0  0  0  0  0  0  0  0  0  0  0
    3.4904    0.9691   -2.1590 O   0  0  0  0  0  0  0  0  0  0  0  0
    3.1700   -0.7140   -0.5750 C   0  0  0  0  0  0  0  0  0  0  0  0
    2.8396   -0.9317    0.7689 C   0  0  0  0  0  0  0  0  0  0  0  0
    3.2011   -2.1290    1.3860 C   0  0  0  0  0  0  0  0  0  0  0  0
    2.7546   -2.4003    3.0251 Cl  0  0  0  0  0  0  0  0  0  0  0  0
    3.9092   -3.1047    0.6907 C   0  0  0  0  0  0  0  0  0  0  0  0
    4.2735   -2.8754   -0.6366 C   0  0  0  0  0  0  0  0  0  0  0  0
    5.1699   -4.0996   -1.4600 Cl  0  0  0  0  0  0  0  0  0  0  0  0
    3.9182   -1.6784   -1.2708 C   0  0  0  0  0  0  0  0  0  0  0  0
    4.3082   -1.4797   -2.5716 O   0  0  0  0  0  0  0  0  0  0  0  0
    1.4579    2.6242   -1.1226 C   0  0  0  0  0  0  0  0  0  0  0  0
    0.3554    3.3668   -0.8637 N   0  0  0  0  0  0  0  0  0  0  0  0
   -0.7603    2.7283   -0.4332 C   0  0  0  0  0  0  0  0  0  0  0  0
   -1.0353    5.3523    0.2501 H   0  0  0  0  0  0  0  0  0  0  0  0
   -2.7587    5.4416   -0.1485 H   0  0  0  0  0  0  0  0  0  0  0  0
   -1.5896    5.1273   -1.4421 H   0  0  0  0  0  0  0  0  0  0  0  0
   -1.3603   -0.6287    2.5246 H   0  0  0  0  0  0  0  0  0  0  0  0
   -1.4468   -3.0759    2.9214 H   0  0  0  0  0  0  0  0  0  0  0  0
   -2.9957   -3.7019   -1.0223 H   0  0  0  0  0  0  0  0  0  0  0  0
   -2.9196   -1.2621   -1.4669 H   0  0  0  0  0  0  0  0  0  0  0  0
    0.3355   -0.4791   -0.4527 H   0  0  0  0  0  0  0  0  0  0  0  0
    2.3121   -0.1791    1.3491 H   0  0  0  0  0  0  0  0  0  0  0  0
    4.1854   -4.0356    1.1799 H   0  0  0  0  0  0  0  0  0  0  0  0
    4.2092   -0.5264   -2.7917 H   0  0  0  0  0  0  0  0  0  0  0  0
    2.3192    3.1878   -1.4753 H   0  0  0  0  0  0  0  0  0  0  0  0
  1  2  1  0
  2  3  1  0
  3  4  2  0
  3  5  1  0
  5  6  1  0
  6  7  3  0
  5  8  2  0
  8  9  1  0
  9 10  2  0
 10 11  1  0
 11 12  2  0
 12 13  1  0
 12 14  1  0
 14 15  2  0
  8 16  1  0
 16 17  2  0
 17 18  1  0
 18 19  1  0
 19 20  2  0
 19 21  1  0
 21 22  2  0
 22 23  1  0
 23 24  1  0
 23 25  2  0
 25 26  1  0
 26 27  1  0
 26 28  2  0
 28 29  1  0
 18 30  2  0
 30 31  1  0
 31 32  2  0
 32  2  1  0
 15  9  1  0
 32 16  1  0
 28 21  1  0
  1 33  1  0
  1 34  1  0
  1 35  1  0
 10 36  1  0
 11 37  1  0
 14 38  1  0
 15 39  1  0
 17 40  1  0
 22 41  1  0
 25 42  1  0
 29 43  1  0
 30 44  1  0
M  END
$$$$
