
     RDKit          3D

 60 65  0  0  0  0  0  0  0  0999 V2000
    0.9200    4.5212    0.8085 O   0  0  0  0  0  0  0  0  0  0  0  0
    1.3731    3.4662    0.3735 C   0  0  0  0  0  0  0  0  0  0  0  0
    0.5946    2.3200    0.2697 N   0  0  0  0  0  0  0  0  0  0  0  0
    1.0554    1.0952   -0.2155 C   0  0  0  0  0  0  0  0  0  0  0  0
   -0.0002   -0.0024   -0.2324 C   0  0  0  0  0  0  0  0  0  0  0  0
   -1.0774    0.3001   -1.2897 C   0  0  0  0  0  0  0  0  0  0  0  0
   -1.2963   -0.8425   -2.2780 C   0  0  0  0  0  0  0  0  0  0  0  0
   -1.4529   -2.1338   -1.5859 N   0  0  0  0  0  0  0  0  0  0  0  0
   -2.9714   -2.8880   -1.5549 S   0  0  0  0  0  6  0  0  0  0  0  0
   -3.5798   -2.7419   -2.8618 O   0  0  0  0  0  0  0  0  0  0  0  0
   -2.8162   -4.1885   -0.9369 O   0  0  0  0  0  0  0  0  0  0  0  0
   -3.8921   -1.8686   -0.4172 C   0  0  0  0  0  0  0  0  0  0  0  0
   -3.8824   -2.1667    0.9520 C   0  0  0  0  0  0  0  0  0  0  0  0
   -4.5968   -1.3593    1.8399 C   0  0  0  0  0  0  0  0  0  0  0  0
   -5.3262   -0.2731    1.3566 C   0  0  0  0  0  0  0  0  0  0  0  0
   -5.3804   -0.0172   -0.0202 C   0  0  0  0  0  0  0  0  0  0  0  0
   -4.6600   -0.8094   -0.9116 C   0  0  0  0  0  0  0  0  0  0  0  0
   -6.1132    1.0071   -0.5629 O   0  0  0  0  0  0  0  0  0  0  0  0
   -7.0767    1.5054    0.3730 C   0  0  0  0  0  0  0  0  0  0  0  0
   -6.4337    1.7307    1.7321 C   0  0  0  0  0  0  0  0  0  0  0  0
   -5.9757    0.4935    2.2906 O   0  0  0  0  0  0  0  0  0  0  0  0
   -0.5044   -2.4390   -0.4955 C   0  0  0  0  0  0  0  0  0  0  0  0
    0.6042   -1.3971   -0.4148 C   0  0  0  0  0  0  0  0  0  0  0  0
    2.2711    0.8906   -0.6455 N   0  0  0  0  0  0  0  0  0  0  0  0
    3.0570    1.9927   -0.5432 C   0  0  0  0  0  0  0  0  0  0  0  0
    2.7198    3.2436   -0.0801 C   0  0  0  0  0  0  0  0  0  0  0  0
    3.7885    4.0843   -0.1429 N   0  0  0  0  0  0  0  0  0  0  0  0
    4.8129    3.3864   -0.6370 N   0  0  0  0  0  0  0  0  0  0  0  0
    4.3800    2.1191   -0.8614 N   0  0  0  0  0  0  0  0  0  0  0  0
    5.2699    1.1194   -1.4158 C   0  0  0  0  0  0  0  0  0  0  0  0
    5.8330    0.2140   -0.3448 C   0  0  0  0  0  0  0  0  0  0  0  0
    5.4345   -1.1309   -0.2670 C   0  0  0  0  0  0  0  0  0  0  0  0
    5.9653   -1.9691    0.7153 C   0  0  0  0  0  0  0  0  0  0  0  0
    6.8888   -1.4653    1.6232 C   0  0  0  0  0  0  0  0  0  0  0  0
    7.3959   -2.2715    2.5655 F   0  0  0  0  0  0  0  0  0  0  0  0
    7.2915   -0.1370    1.5689 C   0  0  0  0  0  0  0  0  0  0  0  0
    6.7665    0.7036    0.5853 C   0  0  0  0  0  0  0  0  0  0  0  0
   -0.3583    2.4296    0.5897 H   0  0  0  0  0  0  0  0  0  0  0  0
   -0.4882    0.0256    0.7533 H   0  0  0  0  0  0  0  0  0  0  0  0
   -0.8419    1.2083   -1.8621 H   0  0  0  0  0  0  0  0  0  0  0  0
   -2.0196    0.5146   -0.7664 H   0  0  0  0  0  0  0  0  0  0  0  0
   -2.1629   -0.6156   -2.9072 H   0  0  0  0  0  0  0  0  0  0  0  0
   -0.4424   -0.9208   -2.9635 H   0  0  0  0  0  0  0  0  0  0  0  0
   -3.3265   -3.0207    1.3333 H   0  0  0  0  0  0  0  0  0  0  0  0
   -4.5846   -1.5751    2.9065 H   0  0  0  0  0  0  0  0  0  0  0  0
   -4.7075   -0.6036   -1.9790 H   0  0  0  0  0  0  0  0  0  0  0  0
   -7.4629    2.4514   -0.0199 H   0  0  0  0  0  0  0  0  0  0  0  0
   -7.9082    0.7913    0.4353 H   0  0  0  0  0  0  0  0  0  0  0  0
   -7.1622    2.1606    2.4281 H   0  0  0  0  0  0  0  0  0  0  0  0
   -5.5804    2.4172    1.6621 H   0  0  0  0  0  0  0  0  0  0  0  0
   -1.0268   -2.4814    0.4674 H   0  0  0  0  0  0  0  0  0  0  0  0
   -0.0626   -3.4254   -0.6826 H   0  0  0  0  0  0  0  0  0  0  0  0
    1.2227   -1.4378   -1.3206 H   0  0  0  0  0  0  0  0  0  0  0  0
    1.2716   -1.6299    0.4239 H   0  0  0  0  0  0  0  0  0  0  0  0
    4.7052    0.5509   -2.1643 H   0  0  0  0  0  0  0  0  0  0  0  0
    6.0806    1.6339   -1.9463 H   0  0  0  0  0  0  0  0  0  0  0  0
    4.7076   -1.5368   -0.9682 H   0  0  0  0  0  0  0  0  0  0  0  0
    5.6655   -3.0101    0.7759 H   0  0  0  0  0  0  0  0  0  0  0  0
    8.0107    0.2369    2.2910 H   0  0  0  0  0  0  0  0  0  0  0  0
    7.0846    1.7452    0.5516 H   0  0  0  0  0  0  0  0  0  0  0  0
  1  2  2  0
  2  3  1  0
  3  4  1  0
  4  5  1  0
  5  6  1  0
  6  7  1  0
  7  8  1  0
  8  9  1  0
  9 10  2  0
  9 11  2  0
  9 12  1  0
 12 13  2  0
 13 14  1  0
 14 15  2  0
 15 16  1  0
 16 17  2  0
 16 18  1  0
 18 19  1  0
 19 20  1  0
 20 21  1  0
  8 22  1  0
 22 23  1  0
  4 24  2  0
 24 25  1  0
 25 26  2  0
 26 27  1  0
 27 28  2  0
 28 29  1  0
 29 30  1  0
 30 31  1  0
 31 32  2  0
 32 33  1  0
 33 34  2  0
 34 35  1  0
 34 36  1  0
 36 37  2  0
 26  2  1  0
 37 31  1  0
 23  5  1  0
 29 25  1  0
 17 12  1  0
 21 15  1  0
  3 38  1  0
  5 39  1  0
  6 40  1  0
  6 41  1  0
  7 42  1  0
  7 43  1  0
 13 44  1  0
 14 45  1  0
 17 46  1  0
 19 47  1  0
 19 48  1  0
 20 49  1  0
 20 50  1  0
 22 51  1  0
 22 52  1  0
 23 53  1  0
 23 54  1  0
 30 55  1  0
 30 56  1  0
 32 57  1  0
 33 58  1  0
 36 59  1  0
 37 60  1  0
M  END
$$$$
