
     RDKit          3D

 53 56  0  0  0  0  0  0  0  0999 V2000
    8.6881   -3.3461   -1.4586 C   0  0  0  0  0  0  0  0  0  0  0  0
    7.7382   -2.1760   -1.2763 C   0  0  0  0  0  0  0  0  0  0  0  0
    6.4181   -2.6985   -1.1380 O   0  0  0  0  0  0  0  0  0  0  0  0
    5.4050   -1.7972   -0.9620 C   0  0  0  0  0  0  0  0  0  0  0  0
    4.1349   -2.3674   -0.8330 C   0  0  0  0  0  0  0  0  0  0  0  0
    3.0072   -1.5643   -0.6475 C   0  0  0  0  0  0  0  0  0  0  0  0
    3.1498   -0.1771   -0.5915 C   0  0  0  0  0  0  0  0  0  0  0  0
    1.9791    0.7048   -0.3972 C   0  0  0  0  0  0  0  0  0  0  0  0
    0.7845    0.2221   -0.2656 N   0  0  0  0  0  0  0  0  0  0  0  0
   -0.2627    1.0800   -0.0405 N   0  0  0  0  0  0  0  0  0  0  0  0
   -0.2160    2.3052    0.6240 C   0  0  0  0  0  0  0  0  0  0  0  0
    0.8063    2.8785    0.9871 O   0  0  0  0  0  0  0  0  0  0  0  0
   -1.5343    2.8925    0.8663 C   0  0  0  0  0  0  0  0  0  0  0  0
   -1.7467    4.2402    0.7857 N   0  0  0  0  0  0  0  0  0  0  0  0
   -3.0254    4.4756    1.0209 N   0  0  0  0  0  0  0  0  0  0  0  0
   -3.6652    3.2941    1.2505 N   0  0  0  0  0  0  0  0  0  0  0  0
   -5.0705    3.2443    1.4310 C   0  0  0  0  0  0  0  0  0  0  0  0
   -5.7114    2.0819    1.5561 N   0  0  0  0  0  0  0  0  0  0  0  0
   -7.0522    2.4446    1.6775 O   0  0  0  0  0  0  0  0  0  0  0  0
   -7.2084    3.8250    1.6236 N   0  0  0  0  0  0  0  0  0  0  0  0
   -5.9800    4.3185    1.4741 C   0  0  0  0  0  0  0  0  0  0  0  0
   -5.6932    5.6311    1.3877 N   0  0  0  0  0  0  0  0  0  0  0  0
   -2.7193    2.2718    1.2411 C   0  0  0  0  0  0  0  0  0  0  0  0
   -2.9802    0.8534    1.5844 C   0  0  0  0  0  0  0  0  0  0  0  0
   -3.1024    0.1889    0.3311 O   0  0  0  0  0  0  0  0  0  0  0  0
   -3.3309   -1.1595    0.3572 C   0  0  0  0  0  0  0  0  0  0  0  0
   -3.4587   -1.7496   -0.9059 C   0  0  0  0  0  0  0  0  0  0  0  0
   -3.6870   -3.1208   -1.0284 C   0  0  0  0  0  0  0  0  0  0  0  0
   -3.7865   -3.8989    0.1167 C   0  0  0  0  0  0  0  0  0  0  0  0
   -4.0052   -5.2152    0.0054 F   0  0  0  0  0  0  0  0  0  0  0  0
   -3.6616   -3.3291    1.3781 C   0  0  0  0  0  0  0  0  0  0  0  0
   -3.4326   -1.9551    1.5014 C   0  0  0  0  0  0  0  0  0  0  0  0
    4.4151    0.4020   -0.7186 C   0  0  0  0  0  0  0  0  0  0  0  0
    5.5412   -0.4088   -0.9038 C   0  0  0  0  0  0  0  0  0  0  0  0
    9.7188   -2.9980   -1.5699 H   0  0  0  0  0  0  0  0  0  0  0  0
    8.4145   -3.9306   -2.3433 H   0  0  0  0  0  0  0  0  0  0  0  0
    8.6343   -4.0237   -0.6000 H   0  0  0  0  0  0  0  0  0  0  0  0
    8.0238   -1.6205   -0.3755 H   0  0  0  0  0  0  0  0  0  0  0  0
    7.7995   -1.5251   -2.1561 H   0  0  0  0  0  0  0  0  0  0  0  0
    4.0231   -3.4484   -0.8770 H   0  0  0  0  0  0  0  0  0  0  0  0
    2.0285   -2.0270   -0.5487 H   0  0  0  0  0  0  0  0  0  0  0  0
    2.1961    1.7852   -0.4072 H   0  0  0  0  0  0  0  0  0  0  0  0
   -1.1698    0.6542   -0.2193 H   0  0  0  0  0  0  0  0  0  0  0  0
   -6.4461    6.2907    1.2207 H   0  0  0  0  0  0  0  0  0  0  0  0
   -4.7770    5.9511    1.0749 H   0  0  0  0  0  0  0  0  0  0  0  0
   -3.8641    0.7141    2.2101 H   0  0  0  0  0  0  0  0  0  0  0  0
   -2.1167    0.4570    2.1344 H   0  0  0  0  0  0  0  0  0  0  0  0
   -3.3806   -1.1383   -1.8020 H   0  0  0  0  0  0  0  0  0  0  0  0
   -3.7865   -3.5826   -2.0053 H   0  0  0  0  0  0  0  0  0  0  0  0
   -3.7425   -3.9588    2.2589 H   0  0  0  0  0  0  0  0  0  0  0  0
   -3.3389   -1.5469    2.5022 H   0  0  0  0  0  0  0  0  0  0  0  0
    4.5389    1.4814   -0.6722 H   0  0  0  0  0  0  0  0  0  0  0  0
    6.5077    0.0754   -0.9977 H   0  0  0  0  0  0  0  0  0  0  0  0
  1  2  1  0
  2  3  1  0
  3  4  1  0
  4  5  2  0
  5  6  1  0
  6  7  2  0
  7  8  1  0
  8  9  2  3
  9 10  1  0
 10 11  1  0
 11 12  2  0
 11 13  1  0
 13 14  1  0
 14 15  2  0
 15 16  1  0
 16 17  1  0
 17 18  2  0
 18 19  1  0
 19 20  1  0
 20 21  2  0
 21 22  1  0
 16 23  1  0
 23 24  1  0
 24 25  1  0
 25 26  1  0
 26 27  2  0
 27 28  1  0
 28 29  2  0
 29 30  1  0
 29 31  1  0
 31 32  2  0
  7 33  1  0
 33 34  2  0
 34  4  1  0
 23 13  2  0
 32 26  1  0
 21 17  1  0
  1 35  1  0
  1 36  1  0
  1 37  1  0
  2 38  1  0
  2 39  1  0
  5 40  1  0
  6 41  1  0
  8 42  1  0
 10 43  1  0
 22 44  1  0
 22 45  1  0
 24 46  1  0
 24 47  1  0
 27 48  1  0
 28 49  1  0
 31 50  1  0
 32 51  1  0
 33 52  1  0
 34 53  1  0
M  END
$$$$
