
     RDKit          3D

 53 56  0  0  0  0  0  0  0  0999 V2000
   -8.7373    2.1625   -1.1276 C   0  0  0  0  0  0  0  0  0  0  0  0
   -7.3448    1.7068   -0.8059 C   0  0  0  0  0  0  0  0  0  0  0  0
   -6.2393    2.4589   -1.2106 C   0  0  0  0  0  0  0  0  0  0  0  0
   -4.9419    2.0161   -0.9358 C   0  0  0  0  0  0  0  0  0  0  0  0
   -4.7248    0.8121   -0.2467 C   0  0  0  0  0  0  0  0  0  0  0  0
   -3.3807    0.3947    0.0060 N   0  0  0  0  0  0  0  0  0  0  0  0
   -2.3750    0.9771   -0.7019 N   0  0  0  0  0  0  0  0  0  0  0  0
   -1.2888    0.2529   -0.4238 C   0  0  0  0  0  0  0  0  0  0  0  0
    0.0419    0.4331   -0.9898 C   0  0  0  0  0  0  0  0  0  0  0  0
    0.3210    1.2898   -1.8262 O   0  0  0  0  0  0  0  0  0  0  0  0
    0.9716   -0.5025   -0.4945 N   0  0  0  0  0  0  0  0  0  0  0  0
    2.3580   -0.3854   -0.9117 C   0  0  0  0  0  0  0  0  0  0  0  0
    3.1429    0.5417    0.0195 C   0  0  0  0  0  0  0  0  0  0  0  0
    2.6301    1.2901    0.8467 O   0  0  0  0  0  0  0  0  0  0  0  0
    4.5148    0.4814   -0.1852 N   0  0  0  0  0  0  0  0  0  0  0  0
    5.4191    1.1737    0.7187 C   0  0  0  0  0  0  0  0  0  0  0  0
    6.8464    1.2757    0.1717 C   0  0  0  0  0  0  0  0  0  0  0  0
    7.4731   -0.0692   -0.0810 C   0  0  0  0  0  0  0  0  0  0  0  0
    7.6804   -0.6952   -1.2948 C   0  0  0  0  0  0  0  0  0  0  0  0
    8.2794   -1.9789   -1.1455 C   0  0  0  0  0  0  0  0  0  0  0  0
    8.5194   -2.2859    0.1750 C   0  0  0  0  0  0  0  0  0  0  0  0
    8.0358   -1.0272    1.2243 S   0  0  0  0  0  0  0  0  0  0  0  0
    0.6953   -1.5006    0.4493 N   0  0  0  0  0  0  0  0  0  0  0  0
   -0.5002   -1.6299    0.9541 C   0  0  0  0  0  0  0  0  0  0  0  0
   -0.7338   -2.7164    1.9647 C   0  0  0  0  0  0  0  0  0  0  0  0
   -1.5511   -0.7390    0.5269 C   0  0  0  0  0  0  0  0  0  0  0  0
   -2.8772   -0.5692    0.8883 C   0  0  0  0  0  0  0  0  0  0  0  0
   -3.6454   -1.1856    2.0005 C   0  0  0  0  0  0  0  0  0  0  0  0
   -5.8319    0.0403    0.1196 C   0  0  0  0  0  0  0  0  0  0  0  0
   -7.1304    0.4871   -0.1565 C   0  0  0  0  0  0  0  0  0  0  0  0
   -9.4357    1.8653   -0.3376 H   0  0  0  0  0  0  0  0  0  0  0  0
   -8.7837    3.2533   -1.2088 H   0  0  0  0  0  0  0  0  0  0  0  0
   -9.0645    1.7240   -2.0755 H   0  0  0  0  0  0  0  0  0  0  0  0
   -6.3746    3.3955   -1.7462 H   0  0  0  0  0  0  0  0  0  0  0  0
   -4.1045    2.6331   -1.2608 H   0  0  0  0  0  0  0  0  0  0  0  0
    2.8095   -1.3836   -0.9039 H   0  0  0  0  0  0  0  0  0  0  0  0
    2.4167    0.0169   -1.9283 H   0  0  0  0  0  0  0  0  0  0  0  0
    4.8703   -0.3601   -0.6243 H   0  0  0  0  0  0  0  0  0  0  0  0
    5.0256    2.1812    0.8990 H   0  0  0  0  0  0  0  0  0  0  0  0
    5.3956    0.6375    1.6746 H   0  0  0  0  0  0  0  0  0  0  0  0
    6.8327    1.8437   -0.7679 H   0  0  0  0  0  0  0  0  0  0  0  0
    7.4662    1.8462    0.8745 H   0  0  0  0  0  0  0  0  0  0  0  0
    7.4121   -0.2544   -2.2491 H   0  0  0  0  0  0  0  0  0  0  0  0
    8.5260   -2.6431   -1.9651 H   0  0  0  0  0  0  0  0  0  0  0  0
    8.9634   -3.1870    0.5765 H   0  0  0  0  0  0  0  0  0  0  0  0
   -1.6350   -3.2811    1.7135 H   0  0  0  0  0  0  0  0  0  0  0  0
   -0.8404   -2.2738    2.9581 H   0  0  0  0  0  0  0  0  0  0  0  0
    0.1138   -3.4077    1.9826 H   0  0  0  0  0  0  0  0  0  0  0  0
   -4.4195   -0.5173    2.3875 H   0  0  0  0  0  0  0  0  0  0  0  0
   -2.9921   -1.3955    2.8527 H   0  0  0  0  0  0  0  0  0  0  0  0
   -4.0985   -2.1307    1.6851 H   0  0  0  0  0  0  0  0  0  0  0  0
   -5.7327   -0.9376    0.5744 H   0  0  0  0  0  0  0  0  0  0  0  0
   -7.9776   -0.1335    0.1290 H   0  0  0  0  0  0  0  0  0  0  0  0
  1  2  1  0
  2  3  2  0
  3  4  1  0
  4  5  2  0
  5  6  1  0
  6  7  1  0
  7  8  2  0
  8  9  1  0
  9 10  2  0
  9 11  1  0
 11 12  1  0
 12 13  1  0
 13 14  2  0
 13 15  1  0
 15 16  1  0
 16 17  1  0
 17 18  1  0
 18 19  2  0
 19 20  1  0
 20 21  2  0
 21 22  1  0
 11 23  1  0
 23 24  2  0
 24 25  1  0
 24 26  1  0
 26 27  2  0
 27 28  1  0
  5 29  1  0
 29 30  2  0
 30  2  1  0
 27  6  1  0
 26  8  1  0
 22 18  1  0
  1 31  1  0
  1 32  1  0
  1 33  1  0
  3 34  1  0
  4 35  1  0
 12 36  1  0
 12 37  1  0
 15 38  1  0
 16 39  1  0
 16 40  1  0
 17 41  1  0
 17 42  1  0
 19 43  1  0
 20 44  1  0
 21 45  1  0
 25 46  1  0
 25 47  1  0
 25 48  1  0
 28 49  1  0
 28 50  1  0
 28 51  1  0
 29 52  1  0
 30 53  1  0
M  END
$$$$
