
     RDKit          3D

 55 58  0  0  0  0  0  0  0  0999 V2000
    3.4057    1.8499    1.1881 O   0  0  0  0  0  0  0  0  0  0  0  0
    2.5519    1.0429    1.5651 C   0  0  0  0  0  0  0  0  0  0  0  0
    1.6296    1.3275    2.7364 C   0  0  0  0  0  0  0  0  0  0  0  0
    0.0355    0.4596    2.6410 S   0  0  0  0  0  0  0  0  0  0  0  0
   -0.7900    1.4155    1.4603 C   0  0  0  0  0  0  0  0  0  0  0  0
   -0.2796    2.4305    0.8076 N   0  0  0  0  0  0  0  0  0  0  0  0
   -1.2600    2.9386   -0.0036 N   0  0  0  0  0  0  0  0  0  0  0  0
   -2.3703    2.2511    0.2012 C   0  0  0  0  0  0  0  0  0  0  0  0
   -3.6614    2.5276   -0.4212 C   0  0  0  0  0  0  0  0  0  0  0  0
   -3.7706    2.4735   -1.8179 C   0  0  0  0  0  0  0  0  0  0  0  0
   -4.9879    2.7411   -2.4462 C   0  0  0  0  0  0  0  0  0  0  0  0
   -6.1067    3.0795   -1.6854 C   0  0  0  0  0  0  0  0  0  0  0  0
   -6.0104    3.1593   -0.2963 C   0  0  0  0  0  0  0  0  0  0  0  0
   -4.7913    2.8882    0.3275 C   0  0  0  0  0  0  0  0  0  0  0  0
   -4.7033    2.9758    1.6910 O   0  0  0  0  0  0  0  0  0  0  0  0
   -2.0868    1.2173    1.0729 N   0  0  0  0  0  0  0  0  0  0  0  0
   -2.9801    0.1408    1.4568 C   0  0  0  0  0  0  0  0  0  0  0  0
   -3.2141   -0.8309    0.3230 C   0  0  0  0  0  0  0  0  0  0  0  0
   -2.1685   -1.6253   -0.1733 C   0  0  0  0  0  0  0  0  0  0  0  0
   -2.3920   -2.5133   -1.2265 C   0  0  0  0  0  0  0  0  0  0  0  0
   -3.6598   -2.6208   -1.7935 C   0  0  0  0  0  0  0  0  0  0  0  0
   -4.7071   -1.8447   -1.3063 C   0  0  0  0  0  0  0  0  0  0  0  0
   -4.4875   -0.9563   -0.2517 C   0  0  0  0  0  0  0  0  0  0  0  0
    2.4723   -0.2290    1.0200 N   0  0  0  0  0  0  0  0  0  0  0  0
    3.5745   -0.6370    0.2375 N   0  0  0  0  0  0  0  0  0  0  0  0
    4.2848   -1.7257    0.7148 C   0  0  0  0  0  0  0  0  0  0  0  0
    3.8471   -2.4741    1.5894 O   0  0  0  0  0  0  0  0  0  0  0  0
    5.6561   -1.9348    0.1753 C   0  0  0  0  0  0  0  0  0  0  0  0
    6.0489   -1.3938   -1.0584 C   0  0  0  0  0  0  0  0  0  0  0  0
    7.3598   -1.5692   -1.5177 C   0  0  0  0  0  0  0  0  0  0  0  0
    8.2811   -2.2883   -0.7560 C   0  0  0  0  0  0  0  0  0  0  0  0
    7.8884   -2.8580    0.4535 C   0  0  0  0  0  0  0  0  0  0  0  0
    6.5809   -2.6928    0.9103 C   0  0  0  0  0  0  0  0  0  0  0  0
    6.2773   -3.2967    2.1019 O   0  0  0  0  0  0  0  0  0  0  0  0
    2.1427    0.9927    3.6444 H   0  0  0  0  0  0  0  0  0  0  0  0
    1.4676    2.4066    2.8181 H   0  0  0  0  0  0  0  0  0  0  0  0
   -2.9024    2.2157   -2.4229 H   0  0  0  0  0  0  0  0  0  0  0  0
   -5.0604    2.6867   -3.5301 H   0  0  0  0  0  0  0  0  0  0  0  0
   -7.0524    3.2824   -2.1798 H   0  0  0  0  0  0  0  0  0  0  0  0
   -6.8898    3.4278    0.2821 H   0  0  0  0  0  0  0  0  0  0  0  0
   -5.4397    3.5242    2.0127 H   0  0  0  0  0  0  0  0  0  0  0  0
   -2.5698   -0.4012    2.3139 H   0  0  0  0  0  0  0  0  0  0  0  0
   -3.9168    0.5811    1.8075 H   0  0  0  0  0  0  0  0  0  0  0  0
   -1.1673   -1.5561    0.2492 H   0  0  0  0  0  0  0  0  0  0  0  0
   -1.5727   -3.1196   -1.6091 H   0  0  0  0  0  0  0  0  0  0  0  0
   -3.8304   -3.3093   -2.6174 H   0  0  0  0  0  0  0  0  0  0  0  0
   -5.6964   -1.9257   -1.7512 H   0  0  0  0  0  0  0  0  0  0  0  0
   -5.3208   -0.3528    0.1080 H   0  0  0  0  0  0  0  0  0  0  0  0
    2.0368   -0.9725    1.5673 H   0  0  0  0  0  0  0  0  0  0  0  0
    4.0821    0.1451   -0.1797 H   0  0  0  0  0  0  0  0  0  0  0  0
    5.3477   -0.8517   -1.6914 H   0  0  0  0  0  0  0  0  0  0  0  0
    7.6634   -1.1414   -2.4710 H   0  0  0  0  0  0  0  0  0  0  0  0
    9.3044   -2.4108   -1.1087 H   0  0  0  0  0  0  0  0  0  0  0  0
    8.6003   -3.4293    1.0435 H   0  0  0  0  0  0  0  0  0  0  0  0
    5.3074   -3.2200    2.2442 H   0  0  0  0  0  0  0  0  0  0  0  0
  1  2  2  0
  2  3  1  0
  3  4  1  0
  4  5  1  0
  5  6  2  0
  6  7  1  0
  7  8  2  0
  8  9  1  0
  9 10  2  0
 10 11  1  0
 11 12  2  0
 12 13  1  0
 13 14  2  0
 14 15  1  0
  8 16  1  0
 16 17  1  0
 17 18  1  0
 18 19  2  0
 19 20  1  0
 20 21  2  0
 21 22  1  0
 22 23  2  0
  2 24  1  0
 24 25  1  0
 25 26  1  0
 26 27  2  0
 26 28  1  0
 28 29  2  0
 29 30  1  0
 30 31  2  0
 31 32  1  0
 32 33  2  0
 33 34  1  0
 16  5  1  0
 23 18  1  0
 33 28  1  0
 14  9  1  0
  3 35  1  0
  3 36  1  0
 10 37  1  0
 11 38  1  0
 12 39  1  0
 13 40  1  0
 15 41  1  0
 17 42  1  0
 17 43  1  0
 19 44  1  0
 20 45  1  0
 21 46  1  0
 22 47  1  0
 23 48  1  0
 24 49  1  0
 25 50  1  0
 29 51  1  0
 30 52  1  0
 31 53  1  0
 32 54  1  0
 34 55  1  0
M  END
$$$$
