
     RDKit          3D

 68 69  0  0  0  0  0  0  0  0999 V2000
   -4.3560    2.7919   -1.3054 C   0  0  0  0  0  0  0  0  0  0  0  0
   -3.2229    2.5535   -0.4792 O   0  0  0  0  0  0  0  0  0  0  0  0
   -2.1256    1.9778   -1.1953 C   0  0  0  0  0  0  0  0  0  0  0  0
   -2.1482    0.4480   -1.0671 C   0  0  0  0  0  0  0  0  0  0  0  0
   -1.3059   -0.0794    0.0228 N   0  0  0  0  0  0  0  0  0  0  0  0
    0.0047   -0.5034   -0.1656 C   0  0  0  0  0  0  0  0  0  0  0  0
    0.6252   -1.1024    0.7131 O   0  0  0  0  0  0  0  0  0  0  0  0
    0.6396   -0.2688   -1.5249 C   0  0  0  0  0  0  0  0  0  0  0  0
    2.1267   -0.6162   -1.4964 C   0  0  0  0  0  0  0  0  0  0  0  0
    2.8093   -0.3253   -2.8149 C   0  0  0  0  0  0  0  0  0  0  0  0
    2.2041    0.1276   -3.7826 O   0  0  0  0  0  0  0  0  0  0  0  0
    4.1501   -0.6390   -2.7696 N   0  0  0  0  0  0  0  0  0  0  0  0
    5.0402   -0.5012   -3.8091 C   0  0  0  0  0  0  0  0  0  0  0  0
    4.8237   -0.0377   -5.1249 C   0  0  0  0  0  0  0  0  0  0  0  0
    6.0573   -0.1092   -5.7221 C   0  0  0  0  0  0  0  0  0  0  0  0
    6.5742    0.2105   -7.0631 C   0  0  0  0  0  0  0  0  0  0  0  0
    6.9582   -0.5853   -4.8228 O   0  0  0  0  0  0  0  0  0  0  0  0
    6.3204   -0.8371   -3.6228 N   0  0  0  0  0  0  0  0  0  0  0  0
   -1.8331    0.0442    1.4165 C   0  0  0  0  0  0  0  0  0  0  0  0
   -1.8966   -1.2918    2.2256 C   0  0  0  0  0  0  0  0  0  0  0  0
   -1.9685   -1.3276    3.4505 O   0  0  0  0  0  0  0  0  0  0  0  0
   -2.0309   -2.4228    1.4331 N   0  0  0  0  0  0  0  0  0  0  0  0
   -1.9942   -3.8013    1.9445 C   0  0  0  0  0  0  0  0  0  0  0  0
   -2.1997   -4.7500    0.7496 C   0  0  0  0  0  0  0  0  0  0  0  0
   -3.1232   -4.0629    2.9545 C   0  0  0  0  0  0  0  0  0  0  0  0
   -0.6308   -4.1056    2.5832 C   0  0  0  0  0  0  0  0  0  0  0  0
   -1.2258    1.2088    2.1996 C   0  0  0  0  0  0  0  0  0  0  0  0
   -1.9934    2.3620    2.4420 C   0  0  0  0  0  0  0  0  0  0  0  0
   -1.4786    3.4423    3.1709 C   0  0  0  0  0  0  0  0  0  0  0  0
   -0.1807    3.3910    3.6739 C   0  0  0  0  0  0  0  0  0  0  0  0
    0.4372    4.3822    4.3866 O   0  0  0  0  0  0  0  0  0  0  0  0
   -0.4274    5.3109    5.0321 C   0  0  0  0  0  0  0  0  0  0  0  0
    0.5956    2.2581    3.4346 C   0  0  0  0  0  0  0  0  0  0  0  0
    0.0746    1.1717    2.7217 C   0  0  0  0  0  0  0  0  0  0  0  0
   -4.1242    3.5779   -2.0270 H   0  0  0  0  0  0  0  0  0  0  0  0
   -5.1765    3.1372   -0.6680 H   0  0  0  0  0  0  0  0  0  0  0  0
   -4.6637    1.8824   -1.8257 H   0  0  0  0  0  0  0  0  0  0  0  0
   -2.1701    2.2717   -2.2516 H   0  0  0  0  0  0  0  0  0  0  0  0
   -1.2011    2.3930   -0.7796 H   0  0  0  0  0  0  0  0  0  0  0  0
   -1.8050    0.0162   -2.0111 H   0  0  0  0  0  0  0  0  0  0  0  0
   -3.1659    0.0727   -0.9097 H   0  0  0  0  0  0  0  0  0  0  0  0
    0.5125    0.7830   -1.8038 H   0  0  0  0  0  0  0  0  0  0  0  0
    0.1365   -0.8988   -2.2666 H   0  0  0  0  0  0  0  0  0  0  0  0
    2.2571   -1.6811   -1.2696 H   0  0  0  0  0  0  0  0  0  0  0  0
    2.6331   -0.0420   -0.7114 H   0  0  0  0  0  0  0  0  0  0  0  0
    4.5665   -0.9992   -1.9210 H   0  0  0  0  0  0  0  0  0  0  0  0
    3.9043    0.3032   -5.5776 H   0  0  0  0  0  0  0  0  0  0  0  0
    5.7620    0.4710   -7.7475 H   0  0  0  0  0  0  0  0  0  0  0  0
    7.1098   -0.6455   -7.4831 H   0  0  0  0  0  0  0  0  0  0  0  0
    7.2629    1.0589   -7.0137 H   0  0  0  0  0  0  0  0  0  0  0  0
   -2.9031    0.2703    1.2977 H   0  0  0  0  0  0  0  0  0  0  0  0
   -1.6692   -2.2869    0.4983 H   0  0  0  0  0  0  0  0  0  0  0  0
   -2.1851   -5.8006    1.0617 H   0  0  0  0  0  0  0  0  0  0  0  0
   -3.1598   -4.5573    0.2564 H   0  0  0  0  0  0  0  0  0  0  0  0
   -1.4137   -4.6138   -0.0024 H   0  0  0  0  0  0  0  0  0  0  0  0
   -3.1676   -5.1232    3.2309 H   0  0  0  0  0  0  0  0  0  0  0  0
   -2.9903   -3.4973    3.8813 H   0  0  0  0  0  0  0  0  0  0  0  0
   -4.0972   -3.7833    2.5371 H   0  0  0  0  0  0  0  0  0  0  0  0
    0.1862   -3.9295    1.8746 H   0  0  0  0  0  0  0  0  0  0  0  0
   -0.5728   -5.1506    2.9085 H   0  0  0  0  0  0  0  0  0  0  0  0
   -0.4420   -3.4765    3.4581 H   0  0  0  0  0  0  0  0  0  0  0  0
   -3.0137    2.4351    2.0685 H   0  0  0  0  0  0  0  0  0  0  0  0
   -2.1191    4.3058    3.3212 H   0  0  0  0  0  0  0  0  0  0  0  0
   -0.9225    5.9649    4.3053 H   0  0  0  0  0  0  0  0  0  0  0  0
   -1.1598    4.7941    5.6641 H   0  0  0  0  0  0  0  0  0  0  0  0
    0.1877    5.9434    5.6802 H   0  0  0  0  0  0  0  0  0  0  0  0
    1.6075    2.2046    3.8277 H   0  0  0  0  0  0  0  0  0  0  0  0
    0.6968    0.2865    2.6090 H   0  0  0  0  0  0  0  0  0  0  0  0
  1  2  1  0
  2  3  1  0
  3  4  1  0
  4  5  1  0
  5  6  1  0
  6  7  2  0
  6  8  1  0
  8  9  1  0
  9 10  1  0
 10 11  2  0
 10 12  1  0
 12 13  1  0
 13 14  1  0
 14 15  2  0
 15 16  1  0
 15 17  1  0
 17 18  1  0
  5 19  1  0
 19 20  1  0
 20 21  2  0
 20 22  1  0
 22 23  1  0
 23 24  1  0
 23 25  1  0
 23 26  1  0
 19 27  1  0
 27 28  2  0
 28 29  1  0
 29 30  2  0
 30 31  1  0
 31 32  1  0
 30 33  1  0
 33 34  2  0
 18 13  2  0
 34 27  1  0
  1 35  1  0
  1 36  1  0
  1 37  1  0
  3 38  1  0
  3 39  1  0
  4 40  1  0
  4 41  1  0
  8 42  1  0
  8 43  1  0
  9 44  1  0
  9 45  1  0
 12 46  1  0
 14 47  1  0
 16 48  1  0
 16 49  1  0
 16 50  1  0
 19 51  1  0
 22 52  1  0
 24 53  1  0
 24 54  1  0
 24 55  1  0
 25 56  1  0
 25 57  1  0
 25 58  1  0
 26 59  1  0
 26 60  1  0
 26 61  1  0
 28 62  1  0
 29 63  1  0
 32 64  1  0
 32 65  1  0
 32 66  1  0
 33 67  1  0
 34 68  1  0
M  END
$$$$
