
     RDKit          3D

 39 42  0  0  0  0  0  0  0  0999 V2000
    6.0222    0.0895   -1.0477 C   0  0  0  0  0  0  0  0  0  0  0  0
    5.8860   -0.6754    0.1236 C   0  0  0  0  0  0  0  0  0  0  0  0
    4.6222   -1.0335    0.6045 C   0  0  0  0  0  0  0  0  0  0  0  0
    3.5066   -0.6161   -0.1016 C   0  0  0  0  0  0  0  0  0  0  0  0
    3.6508    0.1521   -1.2777 C   0  0  0  0  0  0  0  0  0  0  0  0
    4.8981    0.5110   -1.7607 C   0  0  0  0  0  0  0  0  0  0  0  0
    2.2909    0.4806   -1.8602 C   0  0  0  0  0  0  0  0  0  0  0  0
    1.3573   -0.1930   -0.8755 C   0  0  0  0  0  0  0  0  0  0  0  0
   -0.0276   -0.2288   -0.8986 C   0  0  0  0  0  0  0  0  0  0  0  0
   -0.7000   -0.9092    0.1299 C   0  0  0  0  0  0  0  0  0  0  0  0
   -2.2146   -0.9928    0.1327 C   0  0  0  0  0  0  0  0  0  0  0  0
   -2.8734    0.3124   -0.0280 N   0  0  0  0  0  0  0  0  0  0  0  0
   -4.3050    0.1288   -0.3489 C   0  0  0  0  0  0  0  0  0  0  0  0
   -5.1325    1.3723    0.0047 C   0  0  0  0  0  0  0  0  0  0  0  0
   -5.1380    1.6446    1.4129 O   0  0  0  0  0  0  0  0  0  0  0  0
   -3.9392    1.2159    2.0736 C   0  0  0  0  0  0  0  0  0  0  0  0
   -2.7102    1.1919    1.1509 C   0  0  0  0  0  0  0  0  0  0  0  0
    0.0461   -1.5506    1.1453 C   0  0  0  0  0  0  0  0  0  0  0  0
    1.4458   -1.5095    1.1585 C   0  0  0  0  0  0  0  0  0  0  0  0
    2.0956   -0.8274    0.1451 C   0  0  0  0  0  0  0  0  0  0  0  0
    7.0157    0.3553   -1.4014 H   0  0  0  0  0  0  0  0  0  0  0  0
    6.7758   -0.9925    0.6625 H   0  0  0  0  0  0  0  0  0  0  0  0
    4.5280   -1.6238    1.5093 H   0  0  0  0  0  0  0  0  0  0  0  0
    5.0033    1.1015   -2.6646 H   0  0  0  0  0  0  0  0  0  0  0  0
    2.1261    1.5619   -1.8721 H   0  0  0  0  0  0  0  0  0  0  0  0
    2.1817    0.0445   -2.8575 H   0  0  0  0  0  0  0  0  0  0  0  0
   -0.5834    0.2660   -1.6899 H   0  0  0  0  0  0  0  0  0  0  0  0
   -2.5683   -1.4865    1.0475 H   0  0  0  0  0  0  0  0  0  0  0  0
   -2.4858   -1.6510   -0.7039 H   0  0  0  0  0  0  0  0  0  0  0  0
   -4.7163   -0.7226    0.2098 H   0  0  0  0  0  0  0  0  0  0  0  0
   -4.4054   -0.0895   -1.4177 H   0  0  0  0  0  0  0  0  0  0  0  0
   -4.7541    2.2590   -0.5175 H   0  0  0  0  0  0  0  0  0  0  0  0
   -6.1733    1.2326   -0.3049 H   0  0  0  0  0  0  0  0  0  0  0  0
   -4.1223    0.2223    2.4991 H   0  0  0  0  0  0  0  0  0  0  0  0
   -3.7665    1.8999    2.9108 H   0  0  0  0  0  0  0  0  0  0  0  0
   -2.5526    2.2075    0.7659 H   0  0  0  0  0  0  0  0  0  0  0  0
   -1.8162    0.9465    1.7345 H   0  0  0  0  0  0  0  0  0  0  0  0
   -0.4674   -2.0891    1.9392 H   0  0  0  0  0  0  0  0  0  0  0  0
    2.0002   -2.0049    1.9481 H   0  0  0  0  0  0  0  0  0  0  0  0
  1  2  2  0
  2  3  1  0
  3  4  2  0
  4  5  1  0
  5  6  2  0
  5  7  1  0
  7  8  1  0
  8  9  2  0
  9 10  1  0
 10 11  1  0
 11 12  1  0
 12 13  1  0
 13 14  1  0
 14 15  1  0
 15 16  1  0
 16 17  1  0
 10 18  2  0
 18 19  1  0
 19 20  2  0
  6  1  1  0
 20  8  1  0
 20  4  1  0
 17 12  1  0
  1 21  1  0
  2 22  1  0
  3 23  1  0
  6 24  1  0
  7 25  1  0
  7 26  1  0
  9 27  1  0
 11 28  1  0
 11 29  1  0
 13 30  1  0
 13 31  1  0
 14 32  1  0
 14 33  1  0
 16 34  1  0
 16 35  1  0
 17 36  1  0
 17 37  1  0
 18 38  1  0
 19 39  1  0
M  END
$$$$
