
     RDKit          3D

 57 60  0  0  0  0  0  0  0  0999 V2000
   -4.8380   -3.6808    0.7714 C   0  0  0  0  0  0  0  0  0  0  0  0
   -4.2596   -2.5570   -0.0876 C   0  0  0  0  0  0  0  0  0  0  0  0
   -5.1546   -2.3216   -1.3025 C   0  0  0  0  0  0  0  0  0  0  0  0
   -4.1447   -1.2704    0.7330 C   0  0  0  0  0  0  0  0  0  0  0  0
   -4.9252   -1.0502    1.6622 O   0  0  0  0  0  0  0  0  0  0  0  0
   -3.1687   -0.3503    0.3753 N   0  0  0  0  0  0  0  0  0  0  0  0
   -3.0300    0.8734    1.1773 C   0  0  0  0  0  0  0  0  0  0  0  0
   -1.5696    1.3362    1.3121 C   0  0  0  0  0  0  0  0  0  0  0  0
   -0.8765    1.4708    0.0035 N   0  0  0  0  0  0  0  0  0  0  0  0
   -0.5268    2.8186   -0.2865 C   0  0  0  0  0  0  0  0  0  0  0  0
   -1.4878    3.8129   -0.5245 C   0  0  0  0  0  0  0  0  0  0  0  0
   -1.0972    5.1252   -0.7930 C   0  0  0  0  0  0  0  0  0  0  0  0
    0.2553    5.4582   -0.8242 C   0  0  0  0  0  0  0  0  0  0  0  0
    1.2265    4.4841   -0.5835 C   0  0  0  0  0  0  0  0  0  0  0  0
    0.8449    3.1708   -0.3118 C   0  0  0  0  0  0  0  0  0  0  0  0
    1.7522    2.1204   -0.0601 N   0  0  0  0  0  0  0  0  0  0  0  0
    3.1227    2.1859    0.0577 C   0  0  0  0  0  0  0  0  0  0  0  0
    3.8134    3.1988    0.0374 O   0  0  0  0  0  0  0  0  0  0  0  0
    3.7966    0.8728    0.2617 C   0  0  0  0  0  0  0  0  0  0  0  0
    4.9482    0.8257    1.0604 C   0  0  0  0  0  0  0  0  0  0  0  0
    5.6207   -0.3835    1.2545 C   0  0  0  0  0  0  0  0  0  0  0  0
    5.1502   -1.5419    0.6408 C   0  0  0  0  0  0  0  0  0  0  0  0
    3.9916   -1.5014   -0.1441 C   0  0  0  0  0  0  0  0  0  0  0  0
    3.3256   -0.2938   -0.3527 C   0  0  0  0  0  0  0  0  0  0  0  0
    3.4588   -2.6101   -0.7532 O   0  0  0  0  0  0  0  0  0  0  0  0
    4.0198   -3.8199   -0.2247 C   0  0  0  0  0  0  0  0  0  0  0  0
    5.5300   -3.7016   -0.1017 C   0  0  0  0  0  0  0  0  0  0  0  0
    5.8772   -2.6870    0.8476 O   0  0  0  0  0  0  0  0  0  0  0  0
   -1.5466    0.8051   -1.1376 C   0  0  0  0  0  0  0  0  0  0  0  0
   -2.1817   -0.5273   -0.6995 C   0  0  0  0  0  0  0  0  0  0  0  0
   -4.8386   -4.6227    0.2224 H   0  0  0  0  0  0  0  0  0  0  0  0
   -5.8657   -3.4671    1.0827 H   0  0  0  0  0  0  0  0  0  0  0  0
   -4.2425   -3.8196    1.6785 H   0  0  0  0  0  0  0  0  0  0  0  0
   -3.2643   -2.8777   -0.4113 H   0  0  0  0  0  0  0  0  0  0  0  0
   -6.1491   -1.9778   -0.9981 H   0  0  0  0  0  0  0  0  0  0  0  0
   -4.7457   -1.5554   -1.9659 H   0  0  0  0  0  0  0  0  0  0  0  0
   -5.2733   -3.2412   -1.8855 H   0  0  0  0  0  0  0  0  0  0  0  0
   -3.4538    0.7274    2.1778 H   0  0  0  0  0  0  0  0  0  0  0  0
   -3.6282    1.6446    0.6784 H   0  0  0  0  0  0  0  0  0  0  0  0
   -1.5261    2.2590    1.9026 H   0  0  0  0  0  0  0  0  0  0  0  0
   -1.0170    0.5806    1.8838 H   0  0  0  0  0  0  0  0  0  0  0  0
   -2.5480    3.5782   -0.4988 H   0  0  0  0  0  0  0  0  0  0  0  0
   -1.8484    5.8893   -0.9756 H   0  0  0  0  0  0  0  0  0  0  0  0
    0.5611    6.4798   -1.0337 H   0  0  0  0  0  0  0  0  0  0  0  0
    2.2704    4.7768   -0.6157 H   0  0  0  0  0  0  0  0  0  0  0  0
    1.2707    1.2426    0.1169 H   0  0  0  0  0  0  0  0  0  0  0  0
    5.3268    1.7323    1.5261 H   0  0  0  0  0  0  0  0  0  0  0  0
    6.5182   -0.4161    1.8667 H   0  0  0  0  0  0  0  0  0  0  0  0
    2.4641   -0.2707   -1.0108 H   0  0  0  0  0  0  0  0  0  0  0  0
    3.7556   -4.6345   -0.9101 H   0  0  0  0  0  0  0  0  0  0  0  0
    3.5541   -4.0244    0.7482 H   0  0  0  0  0  0  0  0  0  0  0  0
    5.9575   -4.6461    0.2516 H   0  0  0  0  0  0  0  0  0  0  0  0
    5.9948   -3.4537   -1.0646 H   0  0  0  0  0  0  0  0  0  0  0  0
   -0.8069    0.6105   -1.9234 H   0  0  0  0  0  0  0  0  0  0  0  0
   -2.3334    1.4375   -1.5684 H   0  0  0  0  0  0  0  0  0  0  0  0
   -2.6489   -1.0085   -1.5615 H   0  0  0  0  0  0  0  0  0  0  0  0
   -1.4098   -1.2052   -0.3133 H   0  0  0  0  0  0  0  0  0  0  0  0
  1  2  1  0
  2  3  1  0
  2  4  1  0
  4  5  2  0
  4  6  1  0
  6  7  1  0
  7  8  1  0
  8  9  1  0
  9 10  1  0
 10 11  2  0
 11 12  1  0
 12 13  2  0
 13 14  1  0
 14 15  2  0
 15 16  1  0
 16 17  1  0
 17 18  2  0
 17 19  1  0
 19 20  2  0
 20 21  1  0
 21 22  2  0
 22 23  1  0
 23 24  2  0
 23 25  1  0
 25 26  1  0
 26 27  1  0
 27 28  1  0
  9 29  1  0
 29 30  1  0
 30  6  1  0
 15 10  1  0
 24 19  1  0
 28 22  1  0
  1 31  1  0
  1 32  1  0
  1 33  1  0
  2 34  1  0
  3 35  1  0
  3 36  1  0
  3 37  1  0
  7 38  1  0
  7 39  1  0
  8 40  1  0
  8 41  1  0
 11 42  1  0
 12 43  1  0
 13 44  1  0
 14 45  1  0
 16 46  1  0
 20 47  1  0
 21 48  1  0
 24 49  1  0
 26 50  1  0
 26 51  1  0
 27 52  1  0
 27 53  1  0
 29 54  1  0
 29 55  1  0
 30 56  1  0
 30 57  1  0
M  END
$$$$
