
     RDKit          3D

 74 79  0  0  0  0  0  0  0  0999 V2000
    9.2743   -1.6355   -4.3672 C   0  0  0  0  0  0  0  0  0  0  0  0
    7.9425   -1.2074   -4.6279 O   0  0  0  0  0  0  0  0  0  0  0  0
    7.1161   -1.1004   -3.5455 C   0  0  0  0  0  0  0  0  0  0  0  0
    5.7630   -0.9507   -3.8445 C   0  0  0  0  0  0  0  0  0  0  0  0
    4.8058   -0.8444   -2.8240 C   0  0  0  0  0  0  0  0  0  0  0  0
    5.1780   -0.8769   -1.4686 C   0  0  0  0  0  0  0  0  0  0  0  0
    4.1965   -0.8020   -0.3588 C   0  0  0  0  0  0  0  0  0  0  0  0
    2.8448   -1.0646   -0.5052 C   0  0  0  0  0  0  0  0  0  0  0  0
    2.0177   -1.0119    0.6202 C   0  0  0  0  0  0  0  0  0  0  0  0
    0.5685   -1.2365    0.3740 C   0  0  0  0  0  0  0  0  0  0  0  0
    0.2337   -2.2075   -0.2928 O   0  0  0  0  0  0  0  0  0  0  0  0
   -0.2547   -0.2747    0.9112 N   0  0  0  0  0  0  0  0  0  0  0  0
   -1.6638   -0.2138    0.9022 C   0  0  0  0  0  0  0  0  0  0  0  0
   -2.4775   -1.0987    0.1937 C   0  0  0  0  0  0  0  0  0  0  0  0
   -3.8626   -0.9392    0.2518 C   0  0  0  0  0  0  0  0  0  0  0  0
   -4.9296   -1.9695   -0.7273 S   0  0  0  0  0  6  0  0  0  0  0  0
   -5.8164   -2.6550    0.1891 O   0  0  0  0  0  0  0  0  0  0  0  0
   -4.1328   -2.6813   -1.7058 O   0  0  0  0  0  0  0  0  0  0  0  0
   -5.8449   -0.8071   -1.5844 N   0  0  0  0  0  0  0  0  0  0  0  0
   -7.0840   -1.3635   -2.2120 C   0  0  0  0  0  0  0  0  0  0  0  0
   -7.9140   -0.2089   -2.7850 C   0  0  0  0  0  0  0  0  0  0  0  0
   -7.1681    0.5382   -3.7623 O   0  0  0  0  0  0  0  0  0  0  0  0
   -5.9717    1.0771   -3.1789 C   0  0  0  0  0  0  0  0  0  0  0  0
   -5.0764   -0.0342   -2.6123 C   0  0  0  0  0  0  0  0  0  0  0  0
   -4.4404    0.0638    1.0373 C   0  0  0  0  0  0  0  0  0  0  0  0
   -3.6250    0.9470    1.7446 C   0  0  0  0  0  0  0  0  0  0  0  0
   -2.2305    0.8393    1.6679 C   0  0  0  0  0  0  0  0  0  0  0  0
   -1.3549    1.7208    2.3511 N   0  0  0  0  0  0  0  0  0  0  0  0
   -1.3075    1.4725    3.8157 C   0  0  0  0  0  0  0  0  0  0  0  0
   -1.9965    2.5917    4.6060 C   0  0  0  0  0  0  0  0  0  0  0  0
   -1.4366    3.8909    4.3642 O   0  0  0  0  0  0  0  0  0  0  0  0
   -0.8964    4.0515    3.0445 C   0  0  0  0  0  0  0  0  0  0  0  0
   -1.5557    3.1453    1.9956 C   0  0  0  0  0  0  0  0  0  0  0  0
    2.5535   -0.7577    1.9038 C   0  0  0  0  0  0  0  0  0  0  0  0
    1.8324   -0.8008    3.1289 C   0  0  0  0  0  0  0  0  0  0  0  0
    2.4463   -0.5037    4.3455 C   0  0  0  0  0  0  0  0  0  0  0  0
    3.7928   -0.1722    4.3627 C   0  0  0  0  0  0  0  0  0  0  0  0
    4.5148   -0.1623    3.1658 C   0  0  0  0  0  0  0  0  0  0  0  0
    3.9269   -0.4659    1.9442 C   0  0  0  0  0  0  0  0  0  0  0  0
    4.7095   -0.4760    0.8544 N   0  0  0  0  0  0  0  0  0  0  0  0
    6.5557   -1.0003   -1.1958 C   0  0  0  0  0  0  0  0  0  0  0  0
    7.5147   -1.1101   -2.2129 C   0  0  0  0  0  0  0  0  0  0  0  0
    9.8385   -0.8527   -3.8509 H   0  0  0  0  0  0  0  0  0  0  0  0
    9.2907   -2.5775   -3.8067 H   0  0  0  0  0  0  0  0  0  0  0  0
    9.7594   -1.8207   -5.3316 H   0  0  0  0  0  0  0  0  0  0  0  0
    5.4439   -0.9336   -4.8862 H   0  0  0  0  0  0  0  0  0  0  0  0
    3.7676   -0.7311   -3.1213 H   0  0  0  0  0  0  0  0  0  0  0  0
    2.4158   -1.3261   -1.4668 H   0  0  0  0  0  0  0  0  0  0  0  0
    0.1592    0.5108    1.4123 H   0  0  0  0  0  0  0  0  0  0  0  0
   -2.0529   -1.8881   -0.4163 H   0  0  0  0  0  0  0  0  0  0  0  0
   -6.8044   -2.0559   -3.0184 H   0  0  0  0  0  0  0  0  0  0  0  0
   -7.6805   -1.8997   -1.4678 H   0  0  0  0  0  0  0  0  0  0  0  0
   -8.8042   -0.6029   -3.2835 H   0  0  0  0  0  0  0  0  0  0  0  0
   -8.2447    0.4745   -1.9949 H   0  0  0  0  0  0  0  0  0  0  0  0
   -5.4371    1.6223   -3.9627 H   0  0  0  0  0  0  0  0  0  0  0  0
   -6.2508    1.7985   -2.4027 H   0  0  0  0  0  0  0  0  0  0  0  0
   -4.7722   -0.7021   -3.4275 H   0  0  0  0  0  0  0  0  0  0  0  0
   -4.1888    0.4169   -2.1700 H   0  0  0  0  0  0  0  0  0  0  0  0
   -5.5220    0.1670    1.0899 H   0  0  0  0  0  0  0  0  0  0  0  0
   -4.0949    1.7149    2.3497 H   0  0  0  0  0  0  0  0  0  0  0  0
   -1.7343    0.4984    4.0821 H   0  0  0  0  0  0  0  0  0  0  0  0
   -0.2456    1.4482    4.0989 H   0  0  0  0  0  0  0  0  0  0  0  0
   -1.9148    2.3973    5.6804 H   0  0  0  0  0  0  0  0  0  0  0  0
   -3.0650    2.6338    4.3698 H   0  0  0  0  0  0  0  0  0  0  0  0
    0.1823    3.8770    3.0949 H   0  0  0  0  0  0  0  0  0  0  0  0
   -1.0475    5.0948    2.7621 H   0  0  0  0  0  0  0  0  0  0  0  0
   -2.6203    3.4054    1.9436 H   0  0  0  0  0  0  0  0  0  0  0  0
   -1.1115    3.3340    1.0108 H   0  0  0  0  0  0  0  0  0  0  0  0
    0.7833   -1.0935    3.1487 H   0  0  0  0  0  0  0  0  0  0  0  0
    1.8737   -0.5438    5.2679 H   0  0  0  0  0  0  0  0  0  0  0  0
    4.2978    0.0656    5.2979 H   0  0  0  0  0  0  0  0  0  0  0  0
    5.5744    0.0801    3.1869 H   0  0  0  0  0  0  0  0  0  0  0  0
    6.9010   -1.0166   -0.1616 H   0  0  0  0  0  0  0  0  0  0  0  0
    8.5560   -1.2007   -1.9236 H   0  0  0  0  0  0  0  0  0  0  0  0
  1  2  1  0
  2  3  1  0
  3  4  2  0
  4  5  1  0
  5  6  2  0
  6  7  1  0
  7  8  2  0
  8  9  1  0
  9 10  1  0
 10 11  2  0
 10 12  1  0
 12 13  1  0
 13 14  2  0
 14 15  1  0
 15 16  1  0
 16 17  2  0
 16 18  2  0
 16 19  1  0
 19 20  1  0
 20 21  1  0
 21 22  1  0
 22 23  1  0
 23 24  1  0
 15 25  2  0
 25 26  1  0
 26 27  2  0
 27 28  1  0
 28 29  1  0
 29 30  1  0
 30 31  1  0
 31 32  1  0
 32 33  1  0
  9 34  2  0
 34 35  1  0
 35 36  2  0
 36 37  1  0
 37 38  2  0
 38 39  1  0
 39 40  2  0
  6 41  1  0
 41 42  2  0
 42  3  1  0
 40  7  1  0
 27 13  1  0
 33 28  1  0
 39 34  1  0
 24 19  1  0
  1 43  1  0
  1 44  1  0
  1 45  1  0
  4 46  1  0
  5 47  1  0
  8 48  1  0
 12 49  1  0
 14 50  1  0
 20 51  1  0
 20 52  1  0
 21 53  1  0
 21 54  1  0
 23 55  1  0
 23 56  1  0
 24 57  1  0
 24 58  1  0
 25 59  1  0
 26 60  1  0
 29 61  1  0
 29 62  1  0
 30 63  1  0
 30 64  1  0
 32 65  1  0
 32 66  1  0
 33 67  1  0
 33 68  1  0
 35 69  1  0
 36 70  1  0
 37 71  1  0
 38 72  1  0
 41 73  1  0
 42 74  1  0
M  END
$$$$
