
     RDKit          3D

 54 57  0  0  0  0  0  0  0  0999 V2000
    5.8055    1.4541    3.7158 C   0  0  0  0  0  0  0  0  0  0  0  0
    4.9904    1.0300    2.5044 C   0  0  0  0  0  0  0  0  0  0  0  0
    3.5792    0.6019    2.8768 C   0  0  0  0  0  0  0  0  0  0  0  0
    3.1522    0.7179    4.0257 O   0  0  0  0  0  0  0  0  0  0  0  0
    2.7981    0.0803    1.8555 N   0  0  0  0  0  0  0  0  0  0  0  0
    1.4520   -0.4097    2.1782 C   0  0  0  0  0  0  0  0  0  0  0  0
    1.0089   -1.5445    1.2404 C   0  0  0  0  0  0  0  0  0  0  0  0
    1.0068   -1.0952   -0.1728 N   0  0  0  0  0  0  0  0  0  0  0  0
    0.9029   -2.1657   -1.0975 C   0  0  0  0  0  0  0  0  0  0  0  0
    1.8897   -3.1538   -1.2194 C   0  0  0  0  0  0  0  0  0  0  0  0
    1.7473   -4.1797   -2.1552 C   0  0  0  0  0  0  0  0  0  0  0  0
    0.6210   -4.2205   -2.9761 C   0  0  0  0  0  0  0  0  0  0  0  0
    0.4605   -5.4933   -4.1253 Cl  0  0  0  0  0  0  0  0  0  0  0  0
   -0.3719   -3.2465   -2.8769 C   0  0  0  0  0  0  0  0  0  0  0  0
   -0.2339   -2.2189   -1.9441 C   0  0  0  0  0  0  0  0  0  0  0  0
   -1.1755   -1.1855   -1.7566 N   0  0  0  0  0  0  0  0  0  0  0  0
   -2.3328   -0.9426   -2.4598 C   0  0  0  0  0  0  0  0  0  0  0  0
   -2.7403   -1.5662   -3.4322 O   0  0  0  0  0  0  0  0  0  0  0  0
   -3.1224    0.2287   -1.9835 C   0  0  0  0  0  0  0  0  0  0  0  0
   -3.8435    0.9750   -2.9272 C   0  0  0  0  0  0  0  0  0  0  0  0
   -4.5962    2.0802   -2.5237 C   0  0  0  0  0  0  0  0  0  0  0  0
   -4.6417    2.4321   -1.1764 C   0  0  0  0  0  0  0  0  0  0  0  0
   -3.9158    1.6954   -0.2334 C   0  0  0  0  0  0  0  0  0  0  0  0
   -3.1721    0.5842   -0.6290 C   0  0  0  0  0  0  0  0  0  0  0  0
   -3.8962    1.9995    1.1042 O   0  0  0  0  0  0  0  0  0  0  0  0
   -4.4053    3.3160    1.3504 C   0  0  0  0  0  0  0  0  0  0  0  0
   -5.6806    3.5576    0.5597 C   0  0  0  0  0  0  0  0  0  0  0  0
   -5.4166    3.5146   -0.8478 O   0  0  0  0  0  0  0  0  0  0  0  0
    2.0582   -0.1123   -0.5365 C   0  0  0  0  0  0  0  0  0  0  0  0
    3.2314   -0.0810    0.4601 C   0  0  0  0  0  0  0  0  0  0  0  0
    5.3385    2.3027    4.2277 H   0  0  0  0  0  0  0  0  0  0  0  0
    6.8136    1.7526    3.4118 H   0  0  0  0  0  0  0  0  0  0  0  0
    5.8938    0.6335    4.4364 H   0  0  0  0  0  0  0  0  0  0  0  0
    4.9267    1.8747    1.8103 H   0  0  0  0  0  0  0  0  0  0  0  0
    5.4983    0.1952    2.0088 H   0  0  0  0  0  0  0  0  0  0  0  0
    1.4151   -0.7537    3.2175 H   0  0  0  0  0  0  0  0  0  0  0  0
    0.7723    0.4462    2.0856 H   0  0  0  0  0  0  0  0  0  0  0  0
    1.6822   -2.3988    1.3891 H   0  0  0  0  0  0  0  0  0  0  0  0
   -0.0033   -1.8663    1.5136 H   0  0  0  0  0  0  0  0  0  0  0  0
    2.7753   -3.1350   -0.5911 H   0  0  0  0  0  0  0  0  0  0  0  0
    2.5165   -4.9431   -2.2405 H   0  0  0  0  0  0  0  0  0  0  0  0
   -1.2379   -3.3075   -3.5275 H   0  0  0  0  0  0  0  0  0  0  0  0
   -0.8819   -0.5368   -1.0308 H   0  0  0  0  0  0  0  0  0  0  0  0
   -3.8183    0.6953   -3.9795 H   0  0  0  0  0  0  0  0  0  0  0  0
   -5.1555    2.6552   -3.2574 H   0  0  0  0  0  0  0  0  0  0  0  0
   -2.6550    0.0027    0.1283 H   0  0  0  0  0  0  0  0  0  0  0  0
   -4.6039    3.3990    2.4235 H   0  0  0  0  0  0  0  0  0  0  0  0
   -3.6270    4.0437    1.0893 H   0  0  0  0  0  0  0  0  0  0  0  0
   -6.0872    4.5469    0.7903 H   0  0  0  0  0  0  0  0  0  0  0  0
   -6.4482    2.8087    0.7928 H   0  0  0  0  0  0  0  0  0  0  0  0
    1.5788    0.8748   -0.5392 H   0  0  0  0  0  0  0  0  0  0  0  0
    2.4399   -0.2708   -1.5537 H   0  0  0  0  0  0  0  0  0  0  0  0
    3.7913   -1.0225    0.4139 H   0  0  0  0  0  0  0  0  0  0  0  0
    3.9166    0.7252    0.1837 H   0  0  0  0  0  0  0  0  0  0  0  0
  1  2  1  0
  2  3  1  0
  3  4  2  0
  3  5  1  0
  5  6  1  0
  6  7  1  0
  7  8  1  0
  8  9  1  0
  9 10  2  0
 10 11  1  0
 11 12  2  0
 12 13  1  0
 12 14  1  0
 14 15  2  0
 15 16  1  0
 16 17  1  0
 17 18  2  0
 17 19  1  0
 19 20  2  0
 20 21  1  0
 21 22  2  0
 22 23  1  0
 23 24  2  0
 23 25  1  0
 25 26  1  0
 26 27  1  0
 27 28  1  0
  8 29  1  0
 29 30  1  0
 30  5  1  0
 15  9  1  0
 24 19  1  0
 28 22  1  0
  1 31  1  0
  1 32  1  0
  1 33  1  0
  2 34  1  0
  2 35  1  0
  6 36  1  0
  6 37  1  0
  7 38  1  0
  7 39  1  0
 10 40  1  0
 11 41  1  0
 14 42  1  0
 16 43  1  0
 20 44  1  0
 21 45  1  0
 24 46  1  0
 26 47  1  0
 26 48  1  0
 27 49  1  0
 27 50  1  0
 29 51  1  0
 29 52  1  0
 30 53  1  0
 30 54  1  0
M  END
$$$$
