
     RDKit          3D

 37 39  0  0  0  0  0  0  0  0999 V2000
    6.6628   -1.4213   -0.1431 C   0  0  0  0  0  0  0  0  0  0  0  0
    6.5909   -0.2165    0.7854 C   0  0  0  0  0  0  0  0  0  0  0  0
    5.8857    0.9880    0.1586 C   0  0  0  0  0  0  0  0  0  0  0  0
    4.4279    0.7555   -0.0716 C   0  0  0  0  0  0  0  0  0  0  0  0
    3.9028    0.3527   -1.2103 N   0  0  0  0  0  0  0  0  0  0  0  0
    2.5306    0.2253   -1.1280 N   0  0  0  0  0  0  0  0  0  0  0  0
    2.0721    0.5411    0.0630 C   0  0  0  0  0  0  0  0  0  0  0  0
    0.7387    0.4876    0.3693 N   0  0  0  0  0  0  0  0  0  0  0  0
    0.1388    0.7895    1.5691 C   0  0  0  0  0  0  0  0  0  0  0  0
    0.6921    1.1667    2.5981 O   0  0  0  0  0  0  0  0  0  0  0  0
   -1.3825    0.6099    1.5332 C   0  0  0  0  0  0  0  0  0  0  0  0
   -1.8189    0.1662    0.2500 O   0  0  0  0  0  0  0  0  0  0  0  0
   -3.1640   -0.0324    0.0892 C   0  0  0  0  0  0  0  0  0  0  0  0
   -3.5366   -0.4705   -1.1983 C   0  0  0  0  0  0  0  0  0  0  0  0
   -4.8751   -0.7177   -1.5191 C   0  0  0  0  0  0  0  0  0  0  0  0
   -5.8125   -0.5174   -0.5320 C   0  0  0  0  0  0  0  0  0  0  0  0
   -5.4547   -0.0904    0.7247 C   0  0  0  0  0  0  0  0  0  0  0  0
   -4.1411    0.1614    1.0695 C   0  0  0  0  0  0  0  0  0  0  0  0
   -6.5281    0.0450    1.5502 O   0  0  0  0  0  0  0  0  0  0  0  0
   -7.6012   -0.3459    0.6676 C   0  0  0  0  0  0  0  0  0  0  0  0
   -7.1528   -0.7041   -0.6560 O   0  0  0  0  0  0  0  0  0  0  0  0
    3.2728    1.0171    1.1726 S   0  0  0  0  0  0  0  0  0  0  0  0
    7.2422   -2.2228    0.3263 H   0  0  0  0  0  0  0  0  0  0  0  0
    5.6671   -1.8168   -0.3652 H   0  0  0  0  0  0  0  0  0  0  0  0
    7.1503   -1.1604   -1.0879 H   0  0  0  0  0  0  0  0  0  0  0  0
    7.6145    0.0782    1.0466 H   0  0  0  0  0  0  0  0  0  0  0  0
    6.0972   -0.5094    1.7196 H   0  0  0  0  0  0  0  0  0  0  0  0
    6.3642    1.2410   -0.7956 H   0  0  0  0  0  0  0  0  0  0  0  0
    6.0216    1.8605    0.8098 H   0  0  0  0  0  0  0  0  0  0  0  0
    0.1415    0.1866   -0.3930 H   0  0  0  0  0  0  0  0  0  0  0  0
   -1.6353   -0.1349    2.2966 H   0  0  0  0  0  0  0  0  0  0  0  0
   -1.8258    1.5848    1.7667 H   0  0  0  0  0  0  0  0  0  0  0  0
   -2.7723   -0.6200   -1.9581 H   0  0  0  0  0  0  0  0  0  0  0  0
   -5.1647   -1.0546   -2.5079 H   0  0  0  0  0  0  0  0  0  0  0  0
   -3.9194    0.4958    2.0747 H   0  0  0  0  0  0  0  0  0  0  0  0
   -8.3082    0.4877    0.5849 H   0  0  0  0  0  0  0  0  0  0  0  0
   -8.1205   -1.2055    1.1067 H   0  0  0  0  0  0  0  0  0  0  0  0
  1  2  1  0
  2  3  1  0
  3  4  1  0
  4  5  2  0
  5  6  1  0
  6  7  2  0
  7  8  1  0
  8  9  1  0
  9 10  2  0
  9 11  1  0
 11 12  1  0
 12 13  1  0
 13 14  2  0
 14 15  1  0
 15 16  2  0
 16 17  1  0
 17 18  2  0
 17 19  1  0
 19 20  1  0
 20 21  1  0
  7 22  1  0
 22  4  1  0
 18 13  1  0
 21 16  1  0
  1 23  1  0
  1 24  1  0
  1 25  1  0
  2 26  1  0
  2 27  1  0
  3 28  1  0
  3 29  1  0
  8 30  1  0
 11 31  1  0
 11 32  1  0
 14 33  1  0
 15 34  1  0
 18 35  1  0
 20 36  1  0
 20 37  1  0
M  END
$$$$
