
     RDKit          3D

 29 30  0  0  0  0  0  0  0  0999 V2000
    4.2187    0.7125   -0.6848 C   0  0  0  0  0  0  0  0  0  0  0  0
    2.8271    0.1467   -0.4650 C   0  0  0  0  0  0  0  0  0  0  0  0
    2.8287   -0.6585    0.7552 N   0  0  0  0  0  0  0  0  0  0  0  0
    1.6632   -1.8464    0.9699 S   0  0  0  0  0  6  0  0  0  0  0  0
    1.7101   -2.7400   -0.1657 O   0  0  0  0  0  0  0  0  0  0  0  0
    1.8166   -2.3277    2.3253 O   0  0  0  0  0  0  0  0  0  0  0  0
    0.1498   -0.9221    0.8907 C   0  0  0  0  0  0  0  0  0  0  0  0
   -0.3236   -0.2801    2.0515 C   0  0  0  0  0  0  0  0  0  0  0  0
   -1.5046    0.4622    2.0060 C   0  0  0  0  0  0  0  0  0  0  0  0
   -2.1897    0.5184    0.8039 C   0  0  0  0  0  0  0  0  0  0  0  0
   -1.7353   -0.1489   -0.3358 C   0  0  0  0  0  0  0  0  0  0  0  0
   -0.5559   -0.8645   -0.3167 C   0  0  0  0  0  0  0  0  0  0  0  0
   -2.5376    0.0956   -1.4758 N   0  0  0  0  0  0  0  0  0  0  0  0
   -3.7841    0.6214   -0.8891 C   0  0  0  0  0  0  0  0  0  0  0  0
   -3.4341    1.2660    0.4653 C   0  0  0  0  0  0  0  0  0  0  0  0
    4.9560   -0.0902   -0.7919 H   0  0  0  0  0  0  0  0  0  0  0  0
    4.5269    1.3389    0.1591 H   0  0  0  0  0  0  0  0  0  0  0  0
    4.2432    1.3243   -1.5918 H   0  0  0  0  0  0  0  0  0  0  0  0
    2.5444   -0.4570   -1.3326 H   0  0  0  0  0  0  0  0  0  0  0  0
    2.1137    0.9699   -0.3587 H   0  0  0  0  0  0  0  0  0  0  0  0
    3.1424   -0.2319    1.6248 H   0  0  0  0  0  0  0  0  0  0  0  0
    0.2302   -0.3521    2.9855 H   0  0  0  0  0  0  0  0  0  0  0  0
   -1.8705    0.9799    2.8869 H   0  0  0  0  0  0  0  0  0  0  0  0
   -0.1888   -1.3556   -1.2119 H   0  0  0  0  0  0  0  0  0  0  0  0
   -2.6541   -0.7465   -2.0354 H   0  0  0  0  0  0  0  0  0  0  0  0
   -4.2591    1.3405   -1.5642 H   0  0  0  0  0  0  0  0  0  0  0  0
   -4.4864   -0.2096   -0.7400 H   0  0  0  0  0  0  0  0  0  0  0  0
   -4.2336    1.1226    1.1970 H   0  0  0  0  0  0  0  0  0  0  0  0
   -3.2137    2.3322    0.3495 H   0  0  0  0  0  0  0  0  0  0  0  0
  1  2  1  0
  2  3  1  0
  3  4  1  0
  4  5  2  0
  4  6  2  0
  4  7  1  0
  7  8  2  0
  8  9  1  0
  9 10  2  0
 10 11  1  0
 11 12  2  0
 11 13  1  0
 13 14  1  0
 14 15  1  0
 12  7  1  0
 15 10  1  0
  1 16  1  0
  1 17  1  0
  1 18  1  0
  2 19  1  0
  2 20  1  0
  3 21  1  0
  8 22  1  0
  9 23  1  0
 12 24  1  0
 13 25  1  0
 14 26  1  0
 14 27  1  0
 15 28  1  0
 15 29  1  0
M  END
$$$$
