
     RDKit          3D

 70 75  0  0  0  0  0  0  0  0999 V2000
    1.3343    1.2167    1.6348 O   0  0  0  0  0  0  0  0  0  0  0  0
    1.6903   -0.1769    1.5752 C   0  0  0  0  0  0  0  0  0  0  0  0
    3.2179   -0.3216    1.4895 C   0  0  0  0  0  0  0  0  0  0  0  0
    3.7351    0.4782    0.3899 N   0  0  0  0  0  0  0  0  0  0  0  0
    5.0157    0.3428   -0.0894 C   0  0  0  0  0  0  0  0  0  0  0  0
    5.6998   -0.7375    0.1816 N   0  0  0  0  0  0  0  0  0  0  0  0
    7.0079   -0.8940   -0.3223 C   0  0  0  0  0  0  0  0  0  0  0  0
    7.7024   -2.0649   -0.0126 C   0  0  0  0  0  0  0  0  0  0  0  0
    8.9981   -2.2753   -0.4921 C   0  0  0  0  0  0  0  0  0  0  0  0
    9.6142   -1.3107   -1.2903 C   0  0  0  0  0  0  0  0  0  0  0  0
    8.9406   -0.1313   -1.6113 C   0  0  0  0  0  0  0  0  0  0  0  0
    7.6453    0.0648   -1.1239 C   0  0  0  0  0  0  0  0  0  0  0  0
    6.8966    1.2211   -1.3988 N   0  0  0  0  0  0  0  0  0  0  0  0
    7.2327    2.3314   -2.1371 C   0  0  0  0  0  0  0  0  0  0  0  0
    6.1628    3.2012   -2.1176 C   0  0  0  0  0  0  0  0  0  0  0  0
    5.1435    2.5987   -1.3425 C   0  0  0  0  0  0  0  0  0  0  0  0
    5.6210    1.3756   -0.9062 C   0  0  0  0  0  0  0  0  0  0  0  0
    0.9762   -0.8289    0.3705 C   0  0  0  0  0  0  0  0  0  0  0  0
   -0.4761   -0.5456    0.3771 N   0  0  0  0  0  0  0  0  0  0  0  0
   -1.2125   -1.2874    1.4107 C   0  0  0  0  0  0  0  0  0  0  0  0
   -2.7277   -0.9345    1.4358 C   0  0  0  0  0  0  0  0  0  0  0  0
   -3.2858   -0.4337    0.1551 N   0  0  0  0  0  0  0  0  0  0  0  0
   -4.7653   -0.6016    0.0841 C   0  0  0  0  0  0  0  0  0  0  0  0
   -5.5070   -0.0284    1.3001 C   0  0  0  0  0  0  0  0  0  0  0  0
   -6.4502   -0.8173    1.9815 C   0  0  0  0  0  0  0  0  0  0  0  0
   -7.1416   -0.3093    3.0833 C   0  0  0  0  0  0  0  0  0  0  0  0
   -6.9042    0.9931    3.5170 C   0  0  0  0  0  0  0  0  0  0  0  0
   -5.9777    1.7913    2.8495 C   0  0  0  0  0  0  0  0  0  0  0  0
   -5.2863    1.2858    1.7473 C   0  0  0  0  0  0  0  0  0  0  0  0
   -5.3836   -0.0401   -1.2043 C   0  0  0  0  0  0  0  0  0  0  0  0
   -6.4075   -0.7489   -1.8561 C   0  0  0  0  0  0  0  0  0  0  0  0
   -6.9913   -0.2495   -3.0223 C   0  0  0  0  0  0  0  0  0  0  0  0
   -6.5670    0.9683   -3.5493 C   0  0  0  0  0  0  0  0  0  0  0  0
   -5.5622    1.6901   -2.9095 C   0  0  0  0  0  0  0  0  0  0  0  0
   -4.9776    1.1925   -1.7436 C   0  0  0  0  0  0  0  0  0  0  0  0
   -2.5907   -1.1124   -0.9535 C   0  0  0  0  0  0  0  0  0  0  0  0
   -1.0629   -0.8355   -0.9501 C   0  0  0  0  0  0  0  0  0  0  0  0
    0.4028    1.2372    1.3257 H   0  0  0  0  0  0  0  0  0  0  0  0
    1.3543   -0.6401    2.5091 H   0  0  0  0  0  0  0  0  0  0  0  0
    3.4800   -1.3795    1.3766 H   0  0  0  0  0  0  0  0  0  0  0  0
    3.6676    0.0477    2.4185 H   0  0  0  0  0  0  0  0  0  0  0  0
    3.3482    1.4179    0.3875 H   0  0  0  0  0  0  0  0  0  0  0  0
    7.2246   -2.8178    0.6077 H   0  0  0  0  0  0  0  0  0  0  0  0
    9.5242   -3.1930   -0.2418 H   0  0  0  0  0  0  0  0  0  0  0  0
   10.6212   -1.4809   -1.6627 H   0  0  0  0  0  0  0  0  0  0  0  0
    9.4398    0.6038   -2.2335 H   0  0  0  0  0  0  0  0  0  0  0  0
    8.1952    2.4259   -2.6181 H   0  0  0  0  0  0  0  0  0  0  0  0
    6.1222    4.1652   -2.6097 H   0  0  0  0  0  0  0  0  0  0  0  0
    4.1676    3.0158   -1.1300 H   0  0  0  0  0  0  0  0  0  0  0  0
    1.3946   -0.3912   -0.5451 H   0  0  0  0  0  0  0  0  0  0  0  0
    1.1740   -1.9077    0.3395 H   0  0  0  0  0  0  0  0  0  0  0  0
   -0.8106   -1.0770    2.4065 H   0  0  0  0  0  0  0  0  0  0  0  0
   -1.1019   -2.3663    1.2404 H   0  0  0  0  0  0  0  0  0  0  0  0
   -2.8710   -0.1589    2.1968 H   0  0  0  0  0  0  0  0  0  0  0  0
   -3.2625   -1.8317    1.7745 H   0  0  0  0  0  0  0  0  0  0  0  0
   -4.9473   -1.6872    0.0758 H   0  0  0  0  0  0  0  0  0  0  0  0
   -6.6560   -1.8338    1.6551 H   0  0  0  0  0  0  0  0  0  0  0  0
   -7.8689   -0.9294    3.6011 H   0  0  0  0  0  0  0  0  0  0  0  0
   -7.4436    1.3882    4.3736 H   0  0  0  0  0  0  0  0  0  0  0  0
   -5.7926    2.8082    3.1851 H   0  0  0  0  0  0  0  0  0  0  0  0
   -4.5617    1.9183    1.2389 H   0  0  0  0  0  0  0  0  0  0  0  0
   -6.7616   -1.6953   -1.4551 H   0  0  0  0  0  0  0  0  0  0  0  0
   -7.7821   -0.8080   -3.5150 H   0  0  0  0  0  0  0  0  0  0  0  0
   -7.0235    1.3579   -4.4550 H   0  0  0  0  0  0  0  0  0  0  0  0
   -5.2328    2.6426   -3.3154 H   0  0  0  0  0  0  0  0  0  0  0  0
   -4.1923    1.7664   -1.2554 H   0  0  0  0  0  0  0  0  0  0  0  0
   -2.7554   -2.1965   -0.8831 H   0  0  0  0  0  0  0  0  0  0  0  0
   -2.9714   -0.7990   -1.9311 H   0  0  0  0  0  0  0  0  0  0  0  0
   -0.8645    0.0329   -1.5909 H   0  0  0  0  0  0  0  0  0  0  0  0
   -0.5735   -1.7012   -1.4153 H   0  0  0  0  0  0  0  0  0  0  0  0
  1  2  1  0
  2  3  1  0
  3  4  1  0
  4  5  1  0
  5  6  2  0
  6  7  1  0
  7  8  2  0
  8  9  1  0
  9 10  2  0
 10 11  1  0
 11 12  2  0
 12 13  1  0
 13 14  1  0
 14 15  2  0
 15 16  1  0
 16 17  2  0
  2 18  1  0
 18 19  1  0
 19 20  1  0
 20 21  1  0
 21 22  1  0
 22 23  1  0
 23 24  1  0
 24 25  2  0
 25 26  1  0
 26 27  2  0
 27 28  1  0
 28 29  2  0
 23 30  1  0
 30 31  2  0
 31 32  1  0
 32 33  2  0
 33 34  1  0
 34 35  2  0
 22 36  1  0
 36 37  1  0
 17  5  1  0
 37 19  1  0
 12  7  1  0
 17 13  1  0
 29 24  1  0
 35 30  1  0
  1 38  1  0
  2 39  1  0
  3 40  1  0
  3 41  1  0
  4 42  1  0
  8 43  1  0
  9 44  1  0
 10 45  1  0
 11 46  1  0
 14 47  1  0
 15 48  1  0
 16 49  1  0
 18 50  1  0
 18 51  1  0
 20 52  1  0
 20 53  1  0
 21 54  1  0
 21 55  1  0
 23 56  1  0
 25 57  1  0
 26 58  1  0
 27 59  1  0
 28 60  1  0
 29 61  1  0
 31 62  1  0
 32 63  1  0
 33 64  1  0
 34 65  1  0
 35 66  1  0
 36 67  1  0
 36 68  1  0
 37 69  1  0
 37 70  1  0
M  END
$$$$
