
     RDKit          3D

 47 50  0  0  0  0  0  0  0  0999 V2000
   -6.9842   -0.4849    2.1019 C   0  0  0  0  0  0  0  0  0  0  0  0
   -5.5703   -0.7384    2.6040 C   0  0  0  0  0  0  0  0  0  0  0  0
   -4.5783   -0.9782    1.4659 C   0  0  0  0  0  0  0  0  0  0  0  0
   -4.5137    0.2008    0.6580 O   0  0  0  0  0  0  0  0  0  0  0  0
   -3.2897    0.4278    0.0792 C   0  0  0  0  0  0  0  0  0  0  0  0
   -2.8388    1.7472    0.1906 C   0  0  0  0  0  0  0  0  0  0  0  0
   -1.6165    2.1253   -0.3607 C   0  0  0  0  0  0  0  0  0  0  0  0
   -0.8432    1.1829   -1.0378 C   0  0  0  0  0  0  0  0  0  0  0  0
    0.4477    1.5764   -1.6075 C   0  0  0  0  0  0  0  0  0  0  0  0
    1.6402    1.3289   -1.0475 C   0  0  0  0  0  0  0  0  0  0  0  0
    1.9406    0.5060    0.4730 S   0  0  0  0  0  0  0  0  0  0  0  0
    3.6266    0.7211    0.2455 C   0  0  0  0  0  0  0  0  0  0  0  0
    4.6993    0.4043    0.9109 N   0  0  0  0  0  0  0  0  0  0  0  0
    5.6944    0.9069    0.0815 C   0  0  0  0  0  0  0  0  0  0  0  0
    7.2110    0.7740    0.4363 C   0  0  0  0  0  0  0  0  0  0  0  0
    7.7156    0.1686    1.5712 C   0  0  0  0  0  0  0  0  0  0  0  0
    9.1260    0.2683    1.4943 C   0  0  0  0  0  0  0  0  0  0  0  0
    9.3961    0.9275    0.3190 C   0  0  0  0  0  0  0  0  0  0  0  0
    8.2446    1.2378   -0.3291 O   0  0  0  0  0  0  0  0  0  0  0  0
    5.2554    1.5071   -1.0441 N   0  0  0  0  0  0  0  0  0  0  0  0
    3.9286    1.3674   -0.8984 N   0  0  0  0  0  0  0  0  0  0  0  0
    2.8992    1.7682   -1.7226 C   0  0  0  0  0  0  0  0  0  0  0  0
    3.0502    2.3517   -2.7803 O   0  0  0  0  0  0  0  0  0  0  0  0
   -1.3111   -0.1327   -1.1824 C   0  0  0  0  0  0  0  0  0  0  0  0
   -2.5422   -0.5213   -0.6397 C   0  0  0  0  0  0  0  0  0  0  0  0
   -3.0875   -1.7689   -0.7742 O   0  0  0  0  0  0  0  0  0  0  0  0
   -2.4885   -2.7232   -1.6482 C   0  0  0  0  0  0  0  0  0  0  0  0
   -2.8657   -2.4618   -3.0969 C   0  0  0  0  0  0  0  0  0  0  0  0
   -7.3419   -1.3259    1.5010 H   0  0  0  0  0  0  0  0  0  0  0  0
   -7.6676   -0.3566    2.9470 H   0  0  0  0  0  0  0  0  0  0  0  0
   -7.0326    0.4207    1.4891 H   0  0  0  0  0  0  0  0  0  0  0  0
   -5.5758   -1.6095    3.2687 H   0  0  0  0  0  0  0  0  0  0  0  0
   -5.2499    0.1284    3.1929 H   0  0  0  0  0  0  0  0  0  0  0  0
   -3.6014   -1.2206    1.9036 H   0  0  0  0  0  0  0  0  0  0  0  0
   -4.9242   -1.8202    0.8569 H   0  0  0  0  0  0  0  0  0  0  0  0
   -3.4444    2.4785    0.7195 H   0  0  0  0  0  0  0  0  0  0  0  0
   -1.2798    3.1534   -0.2526 H   0  0  0  0  0  0  0  0  0  0  0  0
    0.3846    2.1125   -2.5542 H   0  0  0  0  0  0  0  0  0  0  0  0
    7.1273   -0.2869    2.3559 H   0  0  0  0  0  0  0  0  0  0  0  0
    9.8537   -0.0933    2.2062 H   0  0  0  0  0  0  0  0  0  0  0  0
   10.3069    1.2395   -0.1740 H   0  0  0  0  0  0  0  0  0  0  0  0
   -0.6947   -0.8348   -1.7340 H   0  0  0  0  0  0  0  0  0  0  0  0
   -1.4065   -2.8006   -1.5004 H   0  0  0  0  0  0  0  0  0  0  0  0
   -2.8974   -3.6992   -1.3603 H   0  0  0  0  0  0  0  0  0  0  0  0
   -2.4553   -1.5129   -3.4545 H   0  0  0  0  0  0  0  0  0  0  0  0
   -2.4934   -3.2624   -3.7433 H   0  0  0  0  0  0  0  0  0  0  0  0
   -3.9534   -2.3990   -3.2051 H   0  0  0  0  0  0  0  0  0  0  0  0
  1  2  1  0
  2  3  1  0
  3  4  1  0
  4  5  1  0
  5  6  2  0
  6  7  1  0
  7  8  2  0
  8  9  1  0
  9 10  2  3
 10 11  1  0
 11 12  1  0
 12 13  2  0
 13 14  1  0
 14 15  1  0
 15 16  2  0
 16 17  1  0
 17 18  2  0
 18 19  1  0
 14 20  2  0
 20 21  1  0
 21 22  1  0
 22 23  2  0
  8 24  1  0
 24 25  2  0
 25 26  1  0
 26 27  1  0
 27 28  1  0
 25  5  1  0
 22 10  1  0
 21 12  1  0
 19 15  1  0
  1 29  1  0
  1 30  1  0
  1 31  1  0
  2 32  1  0
  2 33  1  0
  3 34  1  0
  3 35  1  0
  6 36  1  0
  7 37  1  0
  9 38  1  0
 16 39  1  0
 17 40  1  0
 18 41  1  0
 24 42  1  0
 27 43  1  0
 27 44  1  0
 28 45  1  0
 28 46  1  0
 28 47  1  0
M  END
$$$$
