
     RDKit          3D

 43 45  0  0  0  0  0  0  0  0999 V2000
    6.1651   -2.4602    0.9246 C   0  0  0  0  0  0  0  0  0  0  0  0
    5.4791   -1.1609    0.6223 C   0  0  0  0  0  0  0  0  0  0  0  0
    6.2248    0.0021    0.4050 C   0  0  0  0  0  0  0  0  0  0  0  0
    5.5885    1.2069    0.0855 C   0  0  0  0  0  0  0  0  0  0  0  0
    6.3896    2.4617   -0.1047 C   0  0  0  0  0  0  0  0  0  0  0  0
    4.1883    1.2449   -0.0025 C   0  0  0  0  0  0  0  0  0  0  0  0
    3.4277    0.0910    0.1921 C   0  0  0  0  0  0  0  0  0  0  0  0
    2.0193    0.0515    0.1102 N   0  0  0  0  0  0  0  0  0  0  0  0
    1.1698    1.0794   -0.2570 C   0  0  0  0  0  0  0  0  0  0  0  0
    1.4834    2.1983   -0.6426 O   0  0  0  0  0  0  0  0  0  0  0  0
   -0.2786    0.7363   -0.1983 C   0  0  0  0  0  0  0  0  0  0  0  0
   -0.8072   -0.0459    0.8330 C   0  0  0  0  0  0  0  0  0  0  0  0
   -2.1758   -0.3394    0.8540 C   0  0  0  0  0  0  0  0  0  0  0  0
   -3.0324    0.1436   -0.1464 C   0  0  0  0  0  0  0  0  0  0  0  0
   -4.3962   -0.2041   -0.0426 N   0  0  0  0  0  0  0  0  0  0  0  0
   -5.4269    0.1104   -0.9212 C   0  0  0  0  0  0  0  0  0  0  0  0
   -5.2725    0.7368   -1.9652 O   0  0  0  0  0  0  0  0  0  0  0  0
   -6.7347   -0.3832   -0.5018 C   0  0  0  0  0  0  0  0  0  0  0  0
   -7.1962   -1.0524    0.6219 C   0  0  0  0  0  0  0  0  0  0  0  0
   -8.5873   -1.2593    0.4412 C   0  0  0  0  0  0  0  0  0  0  0  0
   -8.8995   -0.7054   -0.7751 C   0  0  0  0  0  0  0  0  0  0  0  0
   -7.7933   -0.1762   -1.3511 O   0  0  0  0  0  0  0  0  0  0  0  0
   -2.4974    0.9383   -1.1623 C   0  0  0  0  0  0  0  0  0  0  0  0
   -1.1298    1.2395   -1.1852 C   0  0  0  0  0  0  0  0  0  0  0  0
    4.0833   -1.1088    0.5006 C   0  0  0  0  0  0  0  0  0  0  0  0
    7.1413   -2.2917    1.3911 H   0  0  0  0  0  0  0  0  0  0  0  0
    6.3105   -3.0299    0.0017 H   0  0  0  0  0  0  0  0  0  0  0  0
    5.5709   -3.0587    1.6230 H   0  0  0  0  0  0  0  0  0  0  0  0
    7.3098   -0.0281    0.4845 H   0  0  0  0  0  0  0  0  0  0  0  0
    5.8974    3.1369   -0.8125 H   0  0  0  0  0  0  0  0  0  0  0  0
    7.3811    2.2345   -0.5105 H   0  0  0  0  0  0  0  0  0  0  0  0
    6.5086    2.9776    0.8529 H   0  0  0  0  0  0  0  0  0  0  0  0
    3.7135    2.1955   -0.2278 H   0  0  0  0  0  0  0  0  0  0  0  0
    1.5999   -0.8546    0.2688 H   0  0  0  0  0  0  0  0  0  0  0  0
   -0.1766   -0.4059    1.6415 H   0  0  0  0  0  0  0  0  0  0  0  0
   -2.5610   -0.9452    1.6706 H   0  0  0  0  0  0  0  0  0  0  0  0
   -4.6430   -0.7622    0.7604 H   0  0  0  0  0  0  0  0  0  0  0  0
   -6.6164   -1.3583    1.4804 H   0  0  0  0  0  0  0  0  0  0  0  0
   -9.2777   -1.7482    1.1145 H   0  0  0  0  0  0  0  0  0  0  0  0
   -9.8135   -0.6093   -1.3451 H   0  0  0  0  0  0  0  0  0  0  0  0
   -3.1136    1.3542   -1.9537 H   0  0  0  0  0  0  0  0  0  0  0  0
   -0.7336    1.8693   -1.9802 H   0  0  0  0  0  0  0  0  0  0  0  0
    3.5111   -2.0209    0.6510 H   0  0  0  0  0  0  0  0  0  0  0  0
  1  2  1  0
  2  3  2  0
  3  4  1  0
  4  5  1  0
  4  6  2  0
  6  7  1  0
  7  8  1  0
  8  9  1  0
  9 10  2  0
  9 11  1  0
 11 12  2  0
 12 13  1  0
 13 14  2  0
 14 15  1  0
 15 16  1  0
 16 17  2  0
 16 18  1  0
 18 19  2  0
 19 20  1  0
 20 21  2  0
 21 22  1  0
 14 23  1  0
 23 24  2  0
  7 25  2  0
 25  2  1  0
 24 11  1  0
 22 18  1  0
  1 26  1  0
  1 27  1  0
  1 28  1  0
  3 29  1  0
  5 30  1  0
  5 31  1  0
  5 32  1  0
  6 33  1  0
  8 34  1  0
 12 35  1  0
 13 36  1  0
 15 37  1  0
 19 38  1  0
 20 39  1  0
 21 40  1  0
 23 41  1  0
 24 42  1  0
 25 43  1  0
M  END
$$$$
