
     RDKit          3D

 32 32  0  0  0  0  0  0  0  0999 V2000
   -4.2847    1.9473    0.7709 C   0  0  0  0  0  0  0  0  0  0  0  0
   -4.0770    1.2145   -0.1582 C   0  0  0  0  0  0  0  0  0  0  0  0
   -3.8319    0.3149   -1.2988 C   0  0  0  0  0  0  0  0  0  0  0  0
   -2.5895   -0.4611   -1.1285 N   0  0  0  0  0  0  0  0  0  0  0  0
   -2.5758   -1.5670   -2.0914 C   0  0  0  0  0  0  0  0  0  0  0  0
   -1.4010    0.4006   -1.2776 C   0  0  0  0  0  0  0  0  0  0  0  0
   -0.1004   -0.3029   -0.8754 C   0  0  0  0  0  0  0  0  0  0  0  0
    1.0686    0.6805   -0.8568 C   0  0  0  0  0  0  0  0  0  0  0  0
    2.2874    0.0056   -0.5465 O   0  0  0  0  0  0  0  0  0  0  0  0
    2.7053   -0.0643    0.7553 C   0  0  0  0  0  0  0  0  0  0  0  0
    1.9141    0.2516    1.8645 C   0  0  0  0  0  0  0  0  0  0  0  0
    2.4310    0.1354    3.1598 C   0  0  0  0  0  0  0  0  0  0  0  0
    3.7391   -0.3015    3.3529 C   0  0  0  0  0  0  0  0  0  0  0  0
    4.3657   -0.4408    4.9487 Cl  0  0  0  0  0  0  0  0  0  0  0  0
    4.5392   -0.6287    2.2643 C   0  0  0  0  0  0  0  0  0  0  0  0
    4.0211   -0.5128    0.9719 C   0  0  0  0  0  0  0  0  0  0  0  0
    5.0565   -0.9326   -0.3502 Cl  0  0  0  0  0  0  0  0  0  0  0  0
   -4.4691    2.5912    1.5994 H   0  0  0  0  0  0  0  0  0  0  0  0
   -4.6897   -0.3679   -1.3555 H   0  0  0  0  0  0  0  0  0  0  0  0
   -3.8166    0.8826   -2.2377 H   0  0  0  0  0  0  0  0  0  0  0  0
   -3.4703   -2.1903   -1.9768 H   0  0  0  0  0  0  0  0  0  0  0  0
   -1.7271   -2.2359   -1.9195 H   0  0  0  0  0  0  0  0  0  0  0  0
   -2.5369   -1.2112   -3.1273 H   0  0  0  0  0  0  0  0  0  0  0  0
   -1.5022    1.2796   -0.6295 H   0  0  0  0  0  0  0  0  0  0  0  0
   -1.3197    0.7759   -2.3063 H   0  0  0  0  0  0  0  0  0  0  0  0
   -0.2126   -0.7716    0.1091 H   0  0  0  0  0  0  0  0  0  0  0  0
    0.1418   -1.1153   -1.5704 H   0  0  0  0  0  0  0  0  0  0  0  0
    0.8920    1.5421   -0.2024 H   0  0  0  0  0  0  0  0  0  0  0  0
    1.1971    1.0941   -1.8643 H   0  0  0  0  0  0  0  0  0  0  0  0
    0.8842    0.5781    1.7623 H   0  0  0  0  0  0  0  0  0  0  0  0
    1.8030    0.3829    4.0125 H   0  0  0  0  0  0  0  0  0  0  0  0
    5.5582   -0.9728    2.4169 H   0  0  0  0  0  0  0  0  0  0  0  0
  1  2  3  0
  2  3  1  0
  3  4  1  0
  4  5  1  0
  4  6  1  0
  6  7  1  0
  7  8  1  0
  8  9  1  0
  9 10  1  0
 10 11  2  0
 11 12  1  0
 12 13  2  0
 13 14  1  0
 13 15  1  0
 15 16  2  0
 16 17  1  0
 16 10  1  0
  1 18  1  0
  3 19  1  0
  3 20  1  0
  5 21  1  0
  5 22  1  0
  5 23  1  0
  6 24  1  0
  6 25  1  0
  7 26  1  0
  7 27  1  0
  8 28  1  0
  8 29  1  0
 11 30  1  0
 12 31  1  0
 15 32  1  0
M  END
$$$$
