
     RDKit          3D

 29 29  0  0  0  0  0  0  0  0999 V2000
   -1.7078   -3.4000    0.1073 C   0  0  0  0  0  0  0  0  0  0  0  0
   -2.4275   -2.5489   -0.3411 C   0  0  0  0  0  0  0  0  0  0  0  0
   -3.3170   -1.5230   -0.9012 C   0  0  0  0  0  0  0  0  0  0  0  0
   -2.6215   -0.2702   -1.1599 N   0  0  0  0  0  0  0  0  0  0  0  0
   -2.5922    0.6712   -0.0451 C   0  0  0  0  0  0  0  0  0  0  0  0
   -1.7457    0.2892    1.1745 C   0  0  0  0  0  0  0  0  0  0  0  0
   -0.2603    0.0986    0.8788 C   0  0  0  0  0  0  0  0  0  0  0  0
    0.2722    1.3189    0.3464 O   0  0  0  0  0  0  0  0  0  0  0  0
    1.5816    1.1495   -0.0205 C   0  0  0  0  0  0  0  0  0  0  0  0
    2.5694    1.4340    0.9244 C   0  0  0  0  0  0  0  0  0  0  0  0
    3.9152    1.3100    0.5774 C   0  0  0  0  0  0  0  0  0  0  0  0
    4.2640    0.9177   -0.7155 C   0  0  0  0  0  0  0  0  0  0  0  0
    5.9252    0.7657   -1.1383 Cl  0  0  0  0  0  0  0  0  0  0  0  0
    3.2821    0.6538   -1.6696 C   0  0  0  0  0  0  0  0  0  0  0  0
    1.9363    0.7782   -1.3230 C   0  0  0  0  0  0  0  0  0  0  0  0
    0.7419    0.4639   -2.5281 Cl  0  0  0  0  0  0  0  0  0  0  0  0
   -1.0717   -4.1594    0.5000 H   0  0  0  0  0  0  0  0  0  0  0  0
   -3.7053   -1.8906   -1.8581 H   0  0  0  0  0  0  0  0  0  0  0  0
   -4.1916   -1.3702   -0.2587 H   0  0  0  0  0  0  0  0  0  0  0  0
   -1.6876   -0.4422   -1.5300 H   0  0  0  0  0  0  0  0  0  0  0  0
   -3.6196    0.8686    0.2860 H   0  0  0  0  0  0  0  0  0  0  0  0
   -2.2303    1.6293   -0.4374 H   0  0  0  0  0  0  0  0  0  0  0  0
   -2.1461   -0.6106    1.6531 H   0  0  0  0  0  0  0  0  0  0  0  0
   -1.8481    1.1010    1.9064 H   0  0  0  0  0  0  0  0  0  0  0  0
   -0.1106   -0.7308    0.1789 H   0  0  0  0  0  0  0  0  0  0  0  0
    0.2553   -0.1457    1.8162 H   0  0  0  0  0  0  0  0  0  0  0  0
    2.2914    1.7556    1.9246 H   0  0  0  0  0  0  0  0  0  0  0  0
    4.6846    1.5268    1.3143 H   0  0  0  0  0  0  0  0  0  0  0  0
    3.5636    0.3598   -2.6769 H   0  0  0  0  0  0  0  0  0  0  0  0
  1  2  3  0
  2  3  1  0
  3  4  1  0
  4  5  1  0
  5  6  1  0
  6  7  1  0
  7  8  1  0
  8  9  1  0
  9 10  2  0
 10 11  1  0
 11 12  2  0
 12 13  1  0
 12 14  1  0
 14 15  2  0
 15 16  1  0
 15  9  1  0
  1 17  1  0
  3 18  1  0
  3 19  1  0
  4 20  1  0
  5 21  1  0
  5 22  1  0
  6 23  1  0
  6 24  1  0
  7 25  1  0
  7 26  1  0
 10 27  1  0
 11 28  1  0
 14 29  1  0
M  END
$$$$
