
     RDKit          3D

 36 37  0  0  0  0  0  0  0  0999 V2000
    0.8695   -0.2596    0.2044 O   0  0  0  0  0  0  0  0  0  0  0  0
    0.6767   -0.0550   -0.9936 C   0  0  0  0  0  0  0  0  0  0  0  0
   -0.6996    0.1506   -1.6206 C   0  0  0  0  0  0  0  0  0  0  0  0
   -1.7131    0.0910   -0.6203 O   0  0  0  0  0  0  0  0  0  0  0  0
   -2.9670    0.2510   -1.1025 C   0  0  0  0  0  0  0  0  0  0  0  0
   -3.2566    0.4316   -2.2745 O   0  0  0  0  0  0  0  0  0  0  0  0
   -3.9664    0.1774   -0.0022 C   0  0  0  0  0  0  0  0  0  0  0  0
   -3.5983   -0.0329    1.3350 C   0  0  0  0  0  0  0  0  0  0  0  0
   -4.5769   -0.0939    2.3321 C   0  0  0  0  0  0  0  0  0  0  0  0
   -5.9214    0.0548    1.9944 C   0  0  0  0  0  0  0  0  0  0  0  0
   -7.2419   -0.0282    3.3440 Br  0  0  0  0  0  0  0  0  0  0  0  0
   -6.2994    0.2642    0.6692 C   0  0  0  0  0  0  0  0  0  0  0  0
   -5.3224    0.3254   -0.3284 C   0  0  0  0  0  0  0  0  0  0  0  0
    1.7246    0.0263   -1.8930 N   0  0  0  0  0  0  0  0  0  0  0  0
    3.0774   -0.2905   -1.4673 C   0  0  0  0  0  0  0  0  0  0  0  0
    3.6511    0.7254   -0.4666 C   0  0  0  0  0  0  0  0  0  0  0  0
    4.4445    0.0812    0.5592 N   0  0  0  0  0  0  0  0  0  0  0  0
    3.9817   -0.3068    1.7944 C   0  0  0  0  0  0  0  0  0  0  0  0
    2.6848   -0.1276    2.1731 O   0  0  0  0  0  0  0  0  0  0  0  0
    4.9060   -0.8677    2.5797 C   0  0  0  0  0  0  0  0  0  0  0  0
    6.4433   -0.9746    1.7806 S   0  0  0  0  0  0  0  0  0  0  0  0
    5.7780   -0.2237    0.3215 C   0  0  0  0  0  0  0  0  0  0  0  0
    6.4137   -0.0380   -0.7037 O   0  0  0  0  0  0  0  0  0  0  0  0
   -0.7109    1.1346   -2.1035 H   0  0  0  0  0  0  0  0  0  0  0  0
   -0.8572   -0.6433   -2.3597 H   0  0  0  0  0  0  0  0  0  0  0  0
   -2.5542   -0.1513    1.6178 H   0  0  0  0  0  0  0  0  0  0  0  0
   -4.2790   -0.2573    3.3651 H   0  0  0  0  0  0  0  0  0  0  0  0
   -7.3468    0.3807    0.4019 H   0  0  0  0  0  0  0  0  0  0  0  0
   -5.6242    0.4893   -1.3616 H   0  0  0  0  0  0  0  0  0  0  0  0
    1.5211    0.0163   -2.8862 H   0  0  0  0  0  0  0  0  0  0  0  0
    3.0513   -1.2996   -1.0387 H   0  0  0  0  0  0  0  0  0  0  0  0
    3.7037   -0.3290   -2.3651 H   0  0  0  0  0  0  0  0  0  0  0  0
    2.8815    1.3434    0.0084 H   0  0  0  0  0  0  0  0  0  0  0  0
    4.2943    1.4258   -1.0148 H   0  0  0  0  0  0  0  0  0  0  0  0
    2.1005   -0.1602    1.3846 H   0  0  0  0  0  0  0  0  0  0  0  0
    4.7316   -1.2299    3.5827 H   0  0  0  0  0  0  0  0  0  0  0  0
  1  2  2  0
  2  3  1  0
  3  4  1  0
  4  5  1  0
  5  6  2  0
  5  7  1  0
  7  8  2  0
  8  9  1  0
  9 10  2  0
 10 11  1  0
 10 12  1  0
 12 13  2  0
  2 14  1  0
 14 15  1  0
 15 16  1  0
 16 17  1  0
 17 18  1  0
 18 19  1  0
 18 20  2  0
 20 21  1  0
 21 22  1  0
 22 23  2  0
 13  7  1  0
 22 17  1  0
  3 24  1  0
  3 25  1  0
  8 26  1  0
  9 27  1  0
 12 28  1  0
 13 29  1  0
 14 30  1  0
 15 31  1  0
 15 32  1  0
 16 33  1  0
 16 34  1  0
 19 35  1  0
 20 36  1  0
M  END
$$$$
