
     RDKit          3D

 48 51  0  0  0  0  0  0  0  0999 V2000
    1.9048   -3.0645    1.7713 C   0  0  0  0  0  0  0  0  0  0  0  0
    1.8165   -1.7918    0.9925 C   0  0  0  0  0  0  0  0  0  0  0  0
    0.8459   -1.3911    0.1546 C   0  0  0  0  0  0  0  0  0  0  0  0
   -0.3659   -1.8953   -0.2304 N   0  0  0  0  0  0  0  0  0  0  0  0
   -1.1510   -2.8377    0.3960 C   0  0  0  0  0  0  0  0  0  0  0  0
   -0.9124   -3.3537    1.4845 O   0  0  0  0  0  0  0  0  0  0  0  0
   -2.4016   -3.1929   -0.3936 C   0  0  0  0  0  0  0  0  0  0  0  0
   -3.8548   -2.3203    0.2651 S   0  0  0  0  0  0  0  0  0  0  0  0
   -3.6202   -0.6504   -0.3656 C   0  0  0  0  0  0  0  0  0  0  0  0
   -2.6151   -0.4862   -1.2528 N   0  0  0  0  0  0  0  0  0  0  0  0
   -2.4654    0.7535   -1.7387 C   0  0  0  0  0  0  0  0  0  0  0  0
   -3.2128    1.8173   -1.4301 N   0  0  0  0  0  0  0  0  0  0  0  0
   -4.1986    1.6350   -0.5472 C   0  0  0  0  0  0  0  0  0  0  0  0
   -4.9847    2.7295   -0.2073 C   0  0  0  0  0  0  0  0  0  0  0  0
   -6.0374    2.6320    0.7055 C   0  0  0  0  0  0  0  0  0  0  0  0
   -6.3192    1.4113    1.2995 C   0  0  0  0  0  0  0  0  0  0  0  0
   -5.5452    0.2990    0.9747 C   0  0  0  0  0  0  0  0  0  0  0  0
   -4.4717    0.3949    0.0450 C   0  0  0  0  0  0  0  0  0  0  0  0
    1.3415   -0.1154   -0.4575 C   0  0  0  0  0  0  0  0  0  0  0  0
    0.7214    0.4701   -1.3351 O   0  0  0  0  0  0  0  0  0  0  0  0
    2.5870    0.1476    0.1178 N   0  0  0  0  0  0  0  0  0  0  0  0
    3.6085    0.9482   -0.4557 C   0  0  0  0  0  0  0  0  0  0  0  0
    4.9648    0.6859   -0.2078 C   0  0  0  0  0  0  0  0  0  0  0  0
    5.9694    1.4787   -0.7721 C   0  0  0  0  0  0  0  0  0  0  0  0
    5.6327    2.5478   -1.5963 C   0  0  0  0  0  0  0  0  0  0  0  0
    4.2936    2.8204   -1.8590 C   0  0  0  0  0  0  0  0  0  0  0  0
    3.2904    2.0248   -1.2950 C   0  0  0  0  0  0  0  0  0  0  0  0
    2.8839   -0.8738    1.0670 N   0  0  0  0  0  0  0  0  0  0  0  0
    3.2191   -0.3466    2.4042 C   0  0  0  0  0  0  0  0  0  0  0  0
    2.9522   -3.3471    1.9280 H   0  0  0  0  0  0  0  0  0  0  0  0
    1.4360   -2.9523    2.7534 H   0  0  0  0  0  0  0  0  0  0  0  0
    1.4471   -3.9005    1.2353 H   0  0  0  0  0  0  0  0  0  0  0  0
   -0.8422   -1.3345   -0.9407 H   0  0  0  0  0  0  0  0  0  0  0  0
   -2.5656   -4.2701   -0.2789 H   0  0  0  0  0  0  0  0  0  0  0  0
   -2.2710   -3.0137   -1.4655 H   0  0  0  0  0  0  0  0  0  0  0  0
   -1.6589    0.9135   -2.4481 H   0  0  0  0  0  0  0  0  0  0  0  0
   -4.7708    3.6920   -0.6682 H   0  0  0  0  0  0  0  0  0  0  0  0
   -6.6302    3.5105    0.9470 H   0  0  0  0  0  0  0  0  0  0  0  0
   -7.1351    1.3216    2.0123 H   0  0  0  0  0  0  0  0  0  0  0  0
   -5.7828   -0.6485    1.4540 H   0  0  0  0  0  0  0  0  0  0  0  0
    5.2630   -0.1619    0.4029 H   0  0  0  0  0  0  0  0  0  0  0  0
    7.0138    1.2524   -0.5734 H   0  0  0  0  0  0  0  0  0  0  0  0
    6.4115    3.1643   -2.0374 H   0  0  0  0  0  0  0  0  0  0  0  0
    4.0231    3.6537   -2.5029 H   0  0  0  0  0  0  0  0  0  0  0  0
    2.2564    2.2804   -1.5120 H   0  0  0  0  0  0  0  0  0  0  0  0
    3.5502   -1.1584    3.0604 H   0  0  0  0  0  0  0  0  0  0  0  0
    2.3484    0.1379    2.8612 H   0  0  0  0  0  0  0  0  0  0  0  0
    4.0312    0.3848    2.3633 H   0  0  0  0  0  0  0  0  0  0  0  0
  1  2  1  0
  2  3  2  0
  3  4  1  0
  4  5  1  0
  5  6  2  0
  5  7  1  0
  7  8  1  0
  8  9  1  0
  9 10  2  0
 10 11  1  0
 11 12  2  0
 12 13  1  0
 13 14  2  0
 14 15  1  0
 15 16  2  0
 16 17  1  0
 17 18  2  0
  3 19  1  0
 19 20  2  0
 19 21  1  0
 21 22  1  0
 22 23  2  0
 23 24  1  0
 24 25  2  0
 25 26  1  0
 26 27  2  0
 21 28  1  0
 28 29  1  0
 28  2  1  0
 18  9  1  0
 27 22  1  0
 18 13  1  0
  1 30  1  0
  1 31  1  0
  1 32  1  0
  4 33  1  0
  7 34  1  0
  7 35  1  0
 11 36  1  0
 14 37  1  0
 15 38  1  0
 16 39  1  0
 17 40  1  0
 23 41  1  0
 24 42  1  0
 25 43  1  0
 26 44  1  0
 27 45  1  0
 29 46  1  0
 29 47  1  0
 29 48  1  0
M  END
$$$$
