
     RDKit          3D

 43 46  0  0  0  0  0  0  0  0999 V2000
    5.8767    2.0630   -1.6812 C   0  0  0  0  0  0  0  0  0  0  0  0
    4.6026    1.4024   -1.2410 C   0  0  0  0  0  0  0  0  0  0  0  0
    4.4175    1.0380    0.0960 C   0  0  0  0  0  0  0  0  0  0  0  0
    3.2192    0.4514    0.5161 C   0  0  0  0  0  0  0  0  0  0  0  0
    2.1866    0.2338   -0.3963 C   0  0  0  0  0  0  0  0  0  0  0  0
    0.8366   -0.4268    0.0600 C   0  0  0  0  0  0  0  0  0  0  0  0
   -0.2321   -0.7683   -0.7603 C   0  0  0  0  0  0  0  0  0  0  0  0
   -1.2363   -1.3504    0.0181 N   0  0  0  0  0  4  0  0  0  0  0  0
   -2.5222   -1.8575   -0.4516 C   0  0  0  0  0  0  0  0  0  0  0  0
   -3.3605   -0.7060   -0.9425 C   0  0  0  0  0  0  0  0  0  0  0  0
   -3.7994   -0.6590   -2.2751 C   0  0  0  0  0  0  0  0  0  0  0  0
   -4.5753    0.4101   -2.7307 C   0  0  0  0  0  0  0  0  0  0  0  0
   -4.9231    1.4438   -1.8620 C   0  0  0  0  0  0  0  0  0  0  0  0
   -4.4969    1.4031   -0.5381 C   0  0  0  0  0  0  0  0  0  0  0  0
   -4.9174    2.6739    0.5408 Cl  0  0  0  0  0  0  0  0  0  0  0  0
   -3.7244    0.3371   -0.0752 C   0  0  0  0  0  0  0  0  0  0  0  0
   -0.8006   -1.3665    1.2720 C   0  0  0  0  0  0  0  0  0  0  0  0
    0.4071   -0.8138    1.3176 N   0  0  0  0  0  0  0  0  0  0  0  0
    0.9337   -0.7655    2.6740 C   0  0  0  0  0  0  0  0  0  0  0  0
   -0.2975   -1.1192    3.5539 C   0  0  0  0  0  0  0  0  0  0  0  0
   -1.2927   -1.8062    2.5976 C   0  0  0  0  0  0  0  0  0  0  0  0
    2.3627    0.6062   -1.7339 C   0  0  0  0  0  0  0  0  0  0  0  0
    3.5616    1.1930   -2.1499 C   0  0  0  0  0  0  0  0  0  0  0  0
    6.0974    1.8272   -2.7276 H   0  0  0  0  0  0  0  0  0  0  0  0
    6.7248    1.7125   -1.0837 H   0  0  0  0  0  0  0  0  0  0  0  0
    5.7915    3.1486   -1.5730 H   0  0  0  0  0  0  0  0  0  0  0  0
    5.2129    1.2073    0.8206 H   0  0  0  0  0  0  0  0  0  0  0  0
    3.1377    0.1714    1.5579 H   0  0  0  0  0  0  0  0  0  0  0  0
   -0.4098   -0.6749   -1.8184 H   0  0  0  0  0  0  0  0  0  0  0  0
   -2.3283   -2.5867   -1.2462 H   0  0  0  0  0  0  0  0  0  0  0  0
   -3.0388   -2.3783    0.3615 H   0  0  0  0  0  0  0  0  0  0  0  0
   -3.5483   -1.4538   -2.9764 H   0  0  0  0  0  0  0  0  0  0  0  0
   -4.9143    0.4379   -3.7649 H   0  0  0  0  0  0  0  0  0  0  0  0
   -5.5281    2.2728   -2.2223 H   0  0  0  0  0  0  0  0  0  0  0  0
   -3.4071    0.3283    0.9641 H   0  0  0  0  0  0  0  0  0  0  0  0
    1.3122    0.2308    2.9131 H   0  0  0  0  0  0  0  0  0  0  0  0
    1.7204   -1.5188    2.7743 H   0  0  0  0  0  0  0  0  0  0  0  0
   -0.7443   -0.1909    3.9294 H   0  0  0  0  0  0  0  0  0  0  0  0
   -0.0380   -1.7391    4.4163 H   0  0  0  0  0  0  0  0  0  0  0  0
   -1.2107   -2.8950    2.6159 H   0  0  0  0  0  0  0  0  0  0  0  0
   -2.3218   -1.4695    2.7267 H   0  0  0  0  0  0  0  0  0  0  0  0
    1.5866    0.4656   -2.4803 H   0  0  0  0  0  0  0  0  0  0  0  0
    3.6803    1.4881   -3.1915 H   0  0  0  0  0  0  0  0  0  0  0  0
  1  2  1  0
  2  3  2  0
  3  4  1  0
  4  5  2  0
  5  6  1  0
  6  7  2  0
  7  8  1  0
  8  9  1  0
  9 10  1  0
 10 11  2  0
 11 12  1  0
 12 13  2  0
 13 14  1  0
 14 15  1  0
 14 16  2  0
  8 17  2  0
 17 18  1  0
 18 19  1  0
 19 20  1  0
 20 21  1  0
  5 22  1  0
 22 23  2  0
 23  2  1  0
 18  6  1  0
 16 10  1  0
 21 17  1  0
  1 24  1  0
  1 25  1  0
  1 26  1  0
  3 27  1  0
  4 28  1  0
  7 29  1  0
  9 30  1  0
  9 31  1  0
 11 32  1  0
 12 33  1  0
 13 34  1  0
 16 35  1  0
 19 36  1  0
 19 37  1  0
 20 38  1  0
 20 39  1  0
 21 40  1  0
 21 41  1  0
 22 42  1  0
 23 43  1  0
M  CHG  1   8   1
M  END
$$$$
