
     RDKit          3D

 43 45  0  0  0  0  0  0  0  0999 V2000
   -1.1677    4.1135   -3.2381 C   0  0  0  0  0  0  0  0  0  0  0  0
   -2.1288    3.1324   -2.6350 C   0  0  0  0  0  0  0  0  0  0  0  0
   -2.6250    2.1951   -3.2446 O   0  0  0  0  0  0  0  0  0  0  0  0
   -2.3458    3.4839   -1.3081 O   0  0  0  0  0  0  0  0  0  0  0  0
   -3.1921    2.5909   -0.6395 C   0  0  0  0  0  0  0  0  0  0  0  0
   -4.5732    2.7672   -0.7614 C   0  0  0  0  0  0  0  0  0  0  0  0
   -5.4343    1.9113   -0.0789 C   0  0  0  0  0  0  0  0  0  0  0  0
   -4.9141    0.9013    0.7304 C   0  0  0  0  0  0  0  0  0  0  0  0
   -3.5300    0.7443    0.8623 C   0  0  0  0  0  0  0  0  0  0  0  0
   -2.6456    1.5871    0.1750 C   0  0  0  0  0  0  0  0  0  0  0  0
   -1.1901    1.4640    0.3511 C   0  0  0  0  0  0  0  0  0  0  0  0
   -0.5417    0.2891    0.2956 C   0  0  0  0  0  0  0  0  0  0  0  0
    0.9017    0.0999    0.4786 C   0  0  0  0  0  0  0  0  0  0  0  0
    1.8431    1.0749    0.1824 C   0  0  0  0  0  0  0  0  0  0  0  0
    3.1900    0.7823    0.3743 C   0  0  0  0  0  0  0  0  0  0  0  0
    3.5706   -0.4789    0.8446 C   0  0  0  0  0  0  0  0  0  0  0  0
    4.9242   -0.8051    1.0602 C   0  0  0  0  0  0  0  0  0  0  0  0
    5.2872   -2.0649    1.5367 C   0  0  0  0  0  0  0  0  0  0  0  0
    4.3031   -3.0106    1.7924 C   0  0  0  0  0  0  0  0  0  0  0  0
    2.9660   -2.6803    1.5538 C   0  0  0  0  0  0  0  0  0  0  0  0
    1.9962   -3.6515    1.8431 O   0  0  0  0  0  0  0  0  0  0  0  0
    1.5533   -4.2911    0.6936 C   0  0  0  0  0  0  0  0  0  0  0  0
    0.3633   -5.1354    1.0407 C   0  0  0  0  0  0  0  0  0  0  0  0
    2.0566   -4.2390   -0.4215 O   0  0  0  0  0  0  0  0  0  0  0  0
    2.5559   -1.4224    1.0994 C   0  0  0  0  0  0  0  0  0  0  0  0
    1.2462   -1.1309    0.9205 N   0  0  0  0  0  0  0  0  0  0  0  0
   -0.2214    4.0884   -2.6917 H   0  0  0  0  0  0  0  0  0  0  0  0
   -0.9751    3.8386   -4.2790 H   0  0  0  0  0  0  0  0  0  0  0  0
   -1.5998    5.1170   -3.2161 H   0  0  0  0  0  0  0  0  0  0  0  0
   -4.9747    3.5562   -1.3898 H   0  0  0  0  0  0  0  0  0  0  0  0
   -6.5103    2.0306   -0.1760 H   0  0  0  0  0  0  0  0  0  0  0  0
   -5.5864    0.2360    1.2669 H   0  0  0  0  0  0  0  0  0  0  0  0
   -3.1510   -0.0369    1.5178 H   0  0  0  0  0  0  0  0  0  0  0  0
   -0.6661    2.3981    0.5307 H   0  0  0  0  0  0  0  0  0  0  0  0
   -1.0856   -0.6366    0.1214 H   0  0  0  0  0  0  0  0  0  0  0  0
    1.5532    2.0463   -0.2005 H   0  0  0  0  0  0  0  0  0  0  0  0
    3.9361    1.5403    0.1503 H   0  0  0  0  0  0  0  0  0  0  0  0
    5.7045   -0.0738    0.8590 H   0  0  0  0  0  0  0  0  0  0  0  0
    6.3340   -2.3060    1.7029 H   0  0  0  0  0  0  0  0  0  0  0  0
    4.5680   -3.9968    2.1608 H   0  0  0  0  0  0  0  0  0  0  0  0
   -0.0560   -5.5631    0.1255 H   0  0  0  0  0  0  0  0  0  0  0  0
   -0.4051   -4.5177    1.5128 H   0  0  0  0  0  0  0  0  0  0  0  0
    0.6671   -5.9477    1.7052 H   0  0  0  0  0  0  0  0  0  0  0  0
  1  2  1  0
  2  3  2  0
  2  4  1  0
  4  5  1  0
  5  6  2  0
  6  7  1  0
  7  8  2  0
  8  9  1  0
  9 10  2  0
 10 11  1  0
 11 12  2  0
 12 13  1  0
 13 14  2  0
 14 15  1  0
 15 16  2  0
 16 17  1  0
 17 18  2  0
 18 19  1  0
 19 20  2  0
 20 21  1  0
 21 22  1  0
 22 23  1  0
 22 24  2  0
 20 25  1  0
 25 26  2  0
 10  5  1  0
 26 13  1  0
 25 16  1  0
  1 27  1  0
  1 28  1  0
  1 29  1  0
  6 30  1  0
  7 31  1  0
  8 32  1  0
  9 33  1  0
 11 34  1  0
 12 35  1  0
 14 36  1  0
 15 37  1  0
 17 38  1  0
 18 39  1  0
 19 40  1  0
 23 41  1  0
 23 42  1  0
 23 43  1  0
M  END
$$$$
