
     RDKit          3D

 46 49  0  0  0  0  0  0  0  0999 V2000
    2.8180   -1.1432    0.4583 O   0  0  0  0  0  0  0  0  0  0  0  0
    1.8642   -0.4079    0.6952 C   0  0  0  0  0  0  0  0  0  0  0  0
    0.5295   -0.9808    1.1268 C   0  0  0  0  0  0  0  0  0  0  0  0
   -0.1471   -1.6761    0.0469 N   0  0  0  0  0  0  0  0  0  0  0  0
   -0.7745   -1.1056   -1.0458 C   0  0  0  0  0  0  0  0  0  0  0  0
   -0.7684    0.3491   -1.4000 C   0  0  0  0  0  0  0  0  0  0  0  0
   -1.0455    1.1481   -0.2444 O   0  0  0  0  0  0  0  0  0  0  0  0
   -2.3574    1.3943    0.0617 C   0  0  0  0  0  0  0  0  0  0  0  0
   -2.5591    2.4078    1.0034 C   0  0  0  0  0  0  0  0  0  0  0  0
   -3.8480    2.7494    1.4169 C   0  0  0  0  0  0  0  0  0  0  0  0
   -4.9463    2.0714    0.8955 C   0  0  0  0  0  0  0  0  0  0  0  0
   -4.7527    1.0527   -0.0351 C   0  0  0  0  0  0  0  0  0  0  0  0
   -3.4617    0.7120   -0.4505 C   0  0  0  0  0  0  0  0  0  0  0  0
   -1.3724   -2.0322   -1.7723 N   0  0  0  0  0  0  0  0  0  0  0  0
   -1.1081   -3.2272   -1.1590 C   0  0  0  0  0  0  0  0  0  0  0  0
   -1.5016   -4.5217   -1.5292 C   0  0  0  0  0  0  0  0  0  0  0  0
   -1.0964   -5.6025   -0.7385 C   0  0  0  0  0  0  0  0  0  0  0  0
   -0.3130   -5.3973    0.3973 C   0  0  0  0  0  0  0  0  0  0  0  0
    0.0864   -4.1117    0.7825 C   0  0  0  0  0  0  0  0  0  0  0  0
   -0.3334   -3.0415   -0.0193 C   0  0  0  0  0  0  0  0  0  0  0  0
    1.8735    0.9749    0.6101 N   0  0  0  0  0  0  0  0  0  0  0  0
    2.9580    1.8176    0.2558 C   0  0  0  0  0  0  0  0  0  0  0  0
    4.2439    1.3422   -0.0225 C   0  0  0  0  0  0  0  0  0  0  0  0
    5.2762    2.2268   -0.3676 C   0  0  0  0  0  0  0  0  0  0  0  0
    6.8352    1.5551   -0.6948 Cl  0  0  0  0  0  0  0  0  0  0  0  0
    5.0300    3.6015   -0.4367 C   0  0  0  0  0  0  0  0  0  0  0  0
    6.2547    4.7455   -0.8543 Cl  0  0  0  0  0  0  0  0  0  0  0  0
    3.7541    4.0911   -0.1595 C   0  0  0  0  0  0  0  0  0  0  0  0
    2.7303    3.2057    0.1843 C   0  0  0  0  0  0  0  0  0  0  0  0
    1.1698    3.8713    0.5251 Cl  0  0  0  0  0  0  0  0  0  0  0  0
    0.7152   -1.6799    1.9483 H   0  0  0  0  0  0  0  0  0  0  0  0
   -0.1442   -0.2212    1.5299 H   0  0  0  0  0  0  0  0  0  0  0  0
   -1.4500    0.5783   -2.2276 H   0  0  0  0  0  0  0  0  0  0  0  0
    0.2340    0.6203   -1.7495 H   0  0  0  0  0  0  0  0  0  0  0  0
   -1.7106    2.9456    1.4168 H   0  0  0  0  0  0  0  0  0  0  0  0
   -3.9935    3.5436    2.1443 H   0  0  0  0  0  0  0  0  0  0  0  0
   -5.9518    2.3329    1.2151 H   0  0  0  0  0  0  0  0  0  0  0  0
   -5.6080    0.5152   -0.4378 H   0  0  0  0  0  0  0  0  0  0  0  0
   -3.3608   -0.1018   -1.1633 H   0  0  0  0  0  0  0  0  0  0  0  0
   -2.1053   -4.6719   -2.4171 H   0  0  0  0  0  0  0  0  0  0  0  0
   -1.3917   -6.6109   -1.0176 H   0  0  0  0  0  0  0  0  0  0  0  0
   -0.0020   -6.2528    0.9938 H   0  0  0  0  0  0  0  0  0  0  0  0
    0.7051   -3.9688    1.6618 H   0  0  0  0  0  0  0  0  0  0  0  0
    0.9891    1.4606    0.7620 H   0  0  0  0  0  0  0  0  0  0  0  0
    4.4785    0.2828    0.0212 H   0  0  0  0  0  0  0  0  0  0  0  0
    3.5578    5.1595   -0.2102 H   0  0  0  0  0  0  0  0  0  0  0  0
  1  2  2  0
  2  3  1  0
  3  4  1  0
  4  5  1  0
  5  6  1  0
  6  7  1  0
  7  8  1  0
  8  9  2  0
  9 10  1  0
 10 11  2  0
 11 12  1  0
 12 13  2  0
  5 14  2  0
 14 15  1  0
 15 16  2  0
 16 17  1  0
 17 18  2  0
 18 19  1  0
 19 20  2  0
  2 21  1  0
 21 22  1  0
 22 23  2  0
 23 24  1  0
 24 25  1  0
 24 26  2  0
 26 27  1  0
 26 28  1  0
 28 29  2  0
 29 30  1  0
 20  4  1  0
 29 22  1  0
 13  8  1  0
 20 15  1  0
  3 31  1  0
  3 32  1  0
  6 33  1  0
  6 34  1  0
  9 35  1  0
 10 36  1  0
 11 37  1  0
 12 38  1  0
 13 39  1  0
 16 40  1  0
 17 41  1  0
 18 42  1  0
 19 43  1  0
 21 44  1  0
 23 45  1  0
 28 46  1  0
M  END
$$$$
