
     RDKit          3D

 36 36  0  0  0  0  0  0  0  0999 V2000
    3.1002   -5.6410    2.2339 C   0  0  0  0  0  0  0  0  0  0  0  0
    1.6402   -5.2319    2.3107 C   0  0  0  0  0  0  0  0  0  0  0  0
    1.4682   -3.8469    2.0153 O   0  0  0  0  0  0  0  0  0  0  0  0
    1.4772   -3.5613    0.6181 C   0  0  0  0  0  0  0  0  0  0  0  0
    1.2455   -2.0690    0.4149 C   0  0  0  0  0  0  0  0  0  0  0  0
   -0.1109   -1.6281    0.9596 C   0  0  0  0  0  0  0  0  0  0  0  0
   -0.3506   -0.2157    0.7151 N   0  0  0  0  0  0  0  0  0  0  0  0
   -0.8272    0.2393   -0.4942 C   0  0  0  0  0  0  0  0  0  0  0  0
   -1.0942   -0.5233   -1.4209 O   0  0  0  0  0  0  0  0  0  0  0  0
   -1.0010    1.7253   -0.6304 C   0  0  0  0  0  0  0  0  0  0  0  0
   -0.6675    2.5663    0.4642 C   0  0  0  0  0  0  0  0  0  0  0  0
   -0.3722    3.1745    1.4074 N   0  0  0  0  0  0  0  0  0  0  0  0
   -1.4801    2.1582   -1.8129 C   0  0  0  0  0  0  0  0  0  0  0  0
   -1.7190    3.5204   -2.1559 C   0  0  0  0  0  0  0  0  0  0  0  0
   -2.2748    4.0154   -3.3364 C   0  0  0  0  0  0  0  0  0  0  0  0
   -2.3227    5.4290   -3.2510 C   0  0  0  0  0  0  0  0  0  0  0  0
   -1.7903    5.7261   -2.0240 C   0  0  0  0  0  0  0  0  0  0  0  0
   -1.5662    6.9730   -1.3636 N   0  0  0  0  0  4  0  0  0  0  0  0
   -1.0388    6.9527   -0.2457 O   0  0  0  0  0  0  0  0  0  0  0  0
   -1.9231    7.9871   -1.9795 O   0  0  0  0  0  1  0  0  0  0  0  0
   -1.4246    4.6040   -1.3550 O   0  0  0  0  0  0  0  0  0  0  0  0
    3.4792   -5.5750    1.2098 H   0  0  0  0  0  0  0  0  0  0  0  0
    3.2302   -6.6706    2.5795 H   0  0  0  0  0  0  0  0  0  0  0  0
    3.7190   -4.9798    2.8492 H   0  0  0  0  0  0  0  0  0  0  0  0
    1.0170   -5.8490    1.6538 H   0  0  0  0  0  0  0  0  0  0  0  0
    1.2847   -5.3837    3.3352 H   0  0  0  0  0  0  0  0  0  0  0  0
    0.6919   -4.1378    0.1159 H   0  0  0  0  0  0  0  0  0  0  0  0
    2.4457   -3.8344    0.1874 H   0  0  0  0  0  0  0  0  0  0  0  0
    2.0330   -1.5012    0.9261 H   0  0  0  0  0  0  0  0  0  0  0  0
    1.3205   -1.8348   -0.6533 H   0  0  0  0  0  0  0  0  0  0  0  0
   -0.9170   -2.2078    0.4959 H   0  0  0  0  0  0  0  0  0  0  0  0
   -0.1657   -1.7754    2.0431 H   0  0  0  0  0  0  0  0  0  0  0  0
   -0.0888    0.4222    1.4588 H   0  0  0  0  0  0  0  0  0  0  0  0
   -1.7150    1.4303   -2.5885 H   0  0  0  0  0  0  0  0  0  0  0  0
   -2.6100    3.4101   -4.1696 H   0  0  0  0  0  0  0  0  0  0  0  0
   -2.6926    6.1328   -3.9842 H   0  0  0  0  0  0  0  0  0  0  0  0
  1  2  1  0
  2  3  1  0
  3  4  1  0
  4  5  1  0
  5  6  1  0
  6  7  1  0
  7  8  1  0
  8  9  2  0
  8 10  1  0
 10 11  1  0
 11 12  3  0
 10 13  2  3
 13 14  1  0
 14 15  2  0
 15 16  1  0
 16 17  2  0
 17 18  1  0
 18 19  2  0
 18 20  1  0
 17 21  1  0
 21 14  1  0
  1 22  1  0
  1 23  1  0
  1 24  1  0
  2 25  1  0
  2 26  1  0
  4 27  1  0
  4 28  1  0
  5 29  1  0
  5 30  1  0
  6 31  1  0
  6 32  1  0
  7 33  1  0
 13 34  1  0
 15 35  1  0
 16 36  1  0
M  CHG  2  18   1  20  -1
M  END
$$$$
