
     RDKit          3D

 43 45  0  0  0  0  0  0  0  0999 V2000
    8.0813   -0.8491    0.3921 C   0  0  0  0  0  0  0  0  0  0  0  0
    6.7217   -0.4960    0.1331 O   0  0  0  0  0  0  0  0  0  0  0  0
    5.9309   -0.5084    1.2353 C   0  0  0  0  0  0  0  0  0  0  0  0
    6.2888   -0.7910    2.3678 O   0  0  0  0  0  0  0  0  0  0  0  0
    4.5354   -0.1265    0.8852 C   0  0  0  0  0  0  0  0  0  0  0  0
    3.5869   -0.0690    1.9123 C   0  0  0  0  0  0  0  0  0  0  0  0
    2.2649    0.2847    1.6287 C   0  0  0  0  0  0  0  0  0  0  0  0
    1.8710    0.5816    0.3217 C   0  0  0  0  0  0  0  0  0  0  0  0
    0.5510    0.9077    0.1865 O   0  0  0  0  0  0  0  0  0  0  0  0
    0.0683    1.1320   -1.1316 C   0  0  0  0  0  0  0  0  0  0  0  0
   -1.4328    1.4546   -1.1058 C   0  0  0  0  0  0  0  0  0  0  0  0
   -1.7770    2.5799   -1.4795 O   0  0  0  0  0  0  0  0  0  0  0  0
   -2.3133    0.4232   -0.7056 N   0  0  0  0  0  0  0  0  0  0  0  0
   -1.8267   -0.9628   -0.6414 C   0  0  0  0  0  0  0  0  0  0  0  0
   -2.7471   -1.9343    0.0730 C   0  0  0  0  0  0  0  0  0  0  0  0
   -4.1135   -1.8844   -0.5716 C   0  0  0  0  0  0  0  0  0  0  0  0
   -4.6240   -0.4714   -0.5365 C   0  0  0  0  0  0  0  0  0  0  0  0
   -6.0167   -0.2753   -0.4728 C   0  0  0  0  0  0  0  0  0  0  0  0
   -6.5511    1.0064   -0.4218 C   0  0  0  0  0  0  0  0  0  0  0  0
   -5.6974    2.0995   -0.4303 C   0  0  0  0  0  0  0  0  0  0  0  0
   -4.3123    1.9118   -0.5116 C   0  0  0  0  0  0  0  0  0  0  0  0
   -3.7428    0.6315   -0.5963 C   0  0  0  0  0  0  0  0  0  0  0  0
    2.8147    0.5288   -0.7047 C   0  0  0  0  0  0  0  0  0  0  0  0
    4.1417    0.1757   -0.4251 C   0  0  0  0  0  0  0  0  0  0  0  0
    8.6284   -0.8058   -0.5537 H   0  0  0  0  0  0  0  0  0  0  0  0
    8.5365   -0.1377    1.0884 H   0  0  0  0  0  0  0  0  0  0  0  0
    8.1447   -1.8697    0.7825 H   0  0  0  0  0  0  0  0  0  0  0  0
    3.8709   -0.2960    2.9383 H   0  0  0  0  0  0  0  0  0  0  0  0
    1.5370    0.3303    2.4360 H   0  0  0  0  0  0  0  0  0  0  0  0
    0.5776    2.0016   -1.5663 H   0  0  0  0  0  0  0  0  0  0  0  0
    0.2357    0.2663   -1.7829 H   0  0  0  0  0  0  0  0  0  0  0  0
   -0.8627   -0.9966   -0.1296 H   0  0  0  0  0  0  0  0  0  0  0  0
   -1.6530   -1.2901   -1.6745 H   0  0  0  0  0  0  0  0  0  0  0  0
   -2.8167   -1.6680    1.1357 H   0  0  0  0  0  0  0  0  0  0  0  0
   -2.3392   -2.9497    0.0177 H   0  0  0  0  0  0  0  0  0  0  0  0
   -4.0700   -2.2263   -1.6125 H   0  0  0  0  0  0  0  0  0  0  0  0
   -4.7885   -2.5538   -0.0256 H   0  0  0  0  0  0  0  0  0  0  0  0
   -6.6908   -1.1291   -0.4534 H   0  0  0  0  0  0  0  0  0  0  0  0
   -7.6261    1.1515   -0.3647 H   0  0  0  0  0  0  0  0  0  0  0  0
   -6.0998    3.1077   -0.3726 H   0  0  0  0  0  0  0  0  0  0  0  0
   -3.7033    2.8094   -0.4834 H   0  0  0  0  0  0  0  0  0  0  0  0
    2.5594    0.7628   -1.7333 H   0  0  0  0  0  0  0  0  0  0  0  0
    4.8580    0.1443   -1.2429 H   0  0  0  0  0  0  0  0  0  0  0  0
  1  2  1  0
  2  3  1  0
  3  4  2  0
  3  5  1  0
  5  6  2  0
  6  7  1  0
  7  8  2  0
  8  9  1  0
  9 10  1  0
 10 11  1  0
 11 12  2  0
 11 13  1  0
 13 14  1  0
 14 15  1  0
 15 16  1  0
 16 17  1  0
 17 18  2  0
 18 19  1  0
 19 20  2  0
 20 21  1  0
 21 22  2  0
  8 23  1  0
 23 24  2  0
 24  5  1  0
 22 13  1  0
 22 17  1  0
  1 25  1  0
  1 26  1  0
  1 27  1  0
  6 28  1  0
  7 29  1  0
 10 30  1  0
 10 31  1  0
 14 32  1  0
 14 33  1  0
 15 34  1  0
 15 35  1  0
 16 36  1  0
 16 37  1  0
 18 38  1  0
 19 39  1  0
 20 40  1  0
 21 41  1  0
 23 42  1  0
 24 43  1  0
M  END
$$$$
