
     RDKit          3D

 56 61  0  0  0  0  0  0  0  0999 V2000
    6.7323   -1.4556   -3.8085 C   0  0  0  0  0  0  0  0  0  0  0  0
    5.6181   -1.1160   -2.8611 C   0  0  0  0  0  0  0  0  0  0  0  0
    5.7067   -1.4631   -1.5100 C   0  0  0  0  0  0  0  0  0  0  0  0
    4.6874   -1.1176   -0.6167 C   0  0  0  0  0  0  0  0  0  0  0  0
    3.5715   -0.4105   -1.0657 C   0  0  0  0  0  0  0  0  0  0  0  0
    2.4202   -0.0152   -0.0740 C   0  0  0  0  0  0  0  0  0  0  0  0
    1.2232    0.6056   -0.4075 C   0  0  0  0  0  0  0  0  0  0  0  0
    0.4506    0.7535    0.7454 N   0  0  0  0  0  4  0  0  0  0  0  0
   -0.8829    1.3720    0.8315 C   0  0  0  0  0  0  0  0  0  0  0  0
   -1.9635    0.3759    1.2851 C   0  0  0  0  0  0  0  0  0  0  0  0
   -1.7707   -0.3653    2.2502 O   0  0  0  0  0  0  0  0  0  0  0  0
   -3.1507    0.4683    0.5512 N   0  0  0  0  0  0  0  0  0  0  0  0
   -3.1427    0.1282   -0.8486 C   0  0  0  0  0  0  0  0  0  0  0  0
   -2.0950   -0.6740   -1.3559 C   0  0  0  0  0  0  0  0  0  0  0  0
   -2.0337   -1.0387   -2.7044 C   0  0  0  0  0  0  0  0  0  0  0  0
   -3.0234   -0.6150   -3.5784 C   0  0  0  0  0  0  0  0  0  0  0  0
   -4.0764    0.1586   -3.0972 C   0  0  0  0  0  0  0  0  0  0  0  0
   -4.1488    0.5208   -1.7406 C   0  0  0  0  0  0  0  0  0  0  0  0
   -5.5264    1.5123   -1.2507 S   0  0  0  0  0  0  0  0  0  0  0  0
   -5.5423    1.1894    0.4920 C   0  0  0  0  0  0  0  0  0  0  0  0
   -6.7424    1.4854    1.1659 C   0  0  0  0  0  0  0  0  0  0  0  0
   -6.8269    1.3863    2.5508 C   0  0  0  0  0  0  0  0  0  0  0  0
   -5.7085    0.9997    3.2725 C   0  0  0  0  0  0  0  0  0  0  0  0
   -4.5126    0.7013    2.6070 C   0  0  0  0  0  0  0  0  0  0  0  0
   -4.4028    0.7678    1.2022 C   0  0  0  0  0  0  0  0  0  0  0  0
    1.1520    0.2569    1.7634 C   0  0  0  0  0  0  0  0  0  0  0  0
    2.3224   -0.1738    1.2964 N   0  0  0  0  0  0  0  0  0  0  0  0
    3.1818   -0.6715    2.3625 C   0  0  0  0  0  0  0  0  0  0  0  0
    2.4852   -0.1634    3.6537 C   0  0  0  0  0  0  0  0  0  0  0  0
    1.0272    0.1068    3.2338 C   0  0  0  0  0  0  0  0  0  0  0  0
    3.4793   -0.0575   -2.4179 C   0  0  0  0  0  0  0  0  0  0  0  0
    4.5014   -0.4024   -3.3069 C   0  0  0  0  0  0  0  0  0  0  0  0
    7.4564   -0.6350   -3.8427 H   0  0  0  0  0  0  0  0  0  0  0  0
    7.2475   -2.3692   -3.4926 H   0  0  0  0  0  0  0  0  0  0  0  0
    6.3467   -1.6327   -4.8186 H   0  0  0  0  0  0  0  0  0  0  0  0
    6.5732   -2.0109   -1.1445 H   0  0  0  0  0  0  0  0  0  0  0  0
    4.7957   -1.4334    0.4124 H   0  0  0  0  0  0  0  0  0  0  0  0
    0.8093    0.9564   -1.3393 H   0  0  0  0  0  0  0  0  0  0  0  0
   -1.1277    1.8306   -0.1311 H   0  0  0  0  0  0  0  0  0  0  0  0
   -0.8353    2.1762    1.5747 H   0  0  0  0  0  0  0  0  0  0  0  0
   -1.3309   -1.0909   -0.7025 H   0  0  0  0  0  0  0  0  0  0  0  0
   -1.2314   -1.6787   -3.0638 H   0  0  0  0  0  0  0  0  0  0  0  0
   -2.9954   -0.9041   -4.6276 H   0  0  0  0  0  0  0  0  0  0  0  0
   -4.8583    0.4683   -3.7910 H   0  0  0  0  0  0  0  0  0  0  0  0
   -7.6190    1.8158    0.6107 H   0  0  0  0  0  0  0  0  0  0  0  0
   -7.7587    1.6189    3.0613 H   0  0  0  0  0  0  0  0  0  0  0  0
   -5.7609    0.9232    4.3569 H   0  0  0  0  0  0  0  0  0  0  0  0
   -3.6849    0.3872    3.2371 H   0  0  0  0  0  0  0  0  0  0  0  0
    4.1919   -0.2641    2.2778 H   0  0  0  0  0  0  0  0  0  0  0  0
    3.1946   -1.7647    2.3223 H   0  0  0  0  0  0  0  0  0  0  0  0
    2.5665   -0.8679    4.4856 H   0  0  0  0  0  0  0  0  0  0  0  0
    2.9505    0.7800    3.9642 H   0  0  0  0  0  0  0  0  0  0  0  0
    0.3908   -0.7609    3.4161 H   0  0  0  0  0  0  0  0  0  0  0  0
    0.6130    1.0229    3.6550 H   0  0  0  0  0  0  0  0  0  0  0  0
    2.6328    0.4942   -2.8165 H   0  0  0  0  0  0  0  0  0  0  0  0
    4.4240   -0.1104   -4.3534 H   0  0  0  0  0  0  0  0  0  0  0  0
  1  2  1  0
  2  3  2  0
  3  4  1  0
  4  5  2  0
  5  6  1  0
  6  7  2  0
  7  8  1  0
  8  9  1  0
  9 10  1  0
 10 11  2  0
 10 12  1  0
 12 13  1  0
 13 14  2  0
 14 15  1  0
 15 16  2  0
 16 17  1  0
 17 18  2  0
 18 19  1  0
 19 20  1  0
 20 21  2  0
 21 22  1  0
 22 23  2  0
 23 24  1  0
 24 25  2  0
  8 26  2  0
 26 27  1  0
 27 28  1  0
 28 29  1  0
 29 30  1  0
  5 31  1  0
 31 32  2  0
 32  2  1  0
 27  6  1  0
 25 12  1  0
 30 26  1  0
 18 13  1  0
 25 20  1  0
  1 33  1  0
  1 34  1  0
  1 35  1  0
  3 36  1  0
  4 37  1  0
  7 38  1  0
  9 39  1  0
  9 40  1  0
 14 41  1  0
 15 42  1  0
 16 43  1  0
 17 44  1  0
 21 45  1  0
 22 46  1  0
 23 47  1  0
 24 48  1  0
 28 49  1  0
 28 50  1  0
 29 51  1  0
 29 52  1  0
 30 53  1  0
 30 54  1  0
 31 55  1  0
 32 56  1  0
M  CHG  1   8   1
M  END
$$$$
