
     RDKit          3D

 59 62  0  0  0  0  0  0  0  0999 V2000
    7.5688   -0.2625    4.1848 C   0  0  0  0  0  0  0  0  0  0  0  0
    7.4434    0.3287    2.8971 O   0  0  0  0  0  0  0  0  0  0  0  0
    6.1801    0.6602    2.4920 C   0  0  0  0  0  0  0  0  0  0  0  0
    6.1046    1.2080    1.2080 C   0  0  0  0  0  0  0  0  0  0  0  0
    4.8758    1.5928    0.6626 C   0  0  0  0  0  0  0  0  0  0  0  0
    3.7052    1.4271    1.4070 C   0  0  0  0  0  0  0  0  0  0  0  0
    2.3676    1.8302    0.8875 C   0  0  0  0  0  0  0  0  0  0  0  0
    1.5109    2.2152    1.6860 O   0  0  0  0  0  0  0  0  0  0  0  0
    2.0962    1.8350   -0.6009 C   0  0  0  0  0  0  0  0  0  0  0  0
    2.3526    0.2350   -1.4112 S   0  0  0  0  0  0  0  0  0  0  0  0
    1.3093   -0.7842   -0.4862 C   0  0  0  0  0  0  0  0  0  0  0  0
    1.5047   -1.1270    0.7625 N   0  0  0  0  0  0  0  0  0  0  0  0
    0.5062   -1.9955    1.1166 N   0  0  0  0  0  0  0  0  0  0  0  0
   -0.2736   -2.1835    0.0673 C   0  0  0  0  0  0  0  0  0  0  0  0
   -1.4520   -3.1060    0.0408 C   0  0  0  0  0  0  0  0  0  0  0  0
   -2.6396   -2.5960    0.7307 N   0  0  0  0  0  0  0  0  0  0  0  0
   -3.4698   -1.6961    0.0451 C   0  0  0  0  0  0  0  0  0  0  0  0
   -3.9392   -1.9949   -1.2427 C   0  0  0  0  0  0  0  0  0  0  0  0
   -4.7844   -1.1230   -1.9346 C   0  0  0  0  0  0  0  0  0  0  0  0
   -5.1971    0.0714   -1.3472 C   0  0  0  0  0  0  0  0  0  0  0  0
   -6.1234    0.9989   -2.0741 C   0  0  0  0  0  0  0  0  0  0  0  0
   -4.7847    0.3561   -0.0419 C   0  0  0  0  0  0  0  0  0  0  0  0
   -3.9317   -0.5149    0.6632 C   0  0  0  0  0  0  0  0  0  0  0  0
   -3.5201   -0.1347    2.0613 C   0  0  0  0  0  0  0  0  0  0  0  0
    0.1843   -1.3991   -0.9702 N   0  0  0  0  0  0  0  0  0  0  0  0
   -0.3643   -1.2855   -2.3076 C   0  0  0  0  0  0  0  0  0  0  0  0
   -1.0030    0.0326   -2.5546 C   0  0  0  0  0  0  0  0  0  0  0  0
   -1.5415    1.0210   -1.7547 C   0  0  0  0  0  0  0  0  0  0  0  0
   -2.0064    2.0356   -2.6245 C   0  0  0  0  0  0  0  0  0  0  0  0
   -1.7268    1.6048   -3.8990 C   0  0  0  0  0  0  0  0  0  0  0  0
   -1.1169    0.3929   -3.8675 O   0  0  0  0  0  0  0  0  0  0  0  0
    3.7792    0.8887    2.6968 C   0  0  0  0  0  0  0  0  0  0  0  0
    5.0112    0.5022    3.2360 C   0  0  0  0  0  0  0  0  0  0  0  0
    8.6285   -0.4776    4.3518 H   0  0  0  0  0  0  0  0  0  0  0  0
    7.2418    0.4277    4.9695 H   0  0  0  0  0  0  0  0  0  0  0  0
    7.0239   -1.2109    4.2391 H   0  0  0  0  0  0  0  0  0  0  0  0
    7.0154    1.3370    0.6277 H   0  0  0  0  0  0  0  0  0  0  0  0
    4.8646    2.0237   -0.3331 H   0  0  0  0  0  0  0  0  0  0  0  0
    2.7168    2.5989   -1.0790 H   0  0  0  0  0  0  0  0  0  0  0  0
    1.0553    2.1363   -0.7564 H   0  0  0  0  0  0  0  0  0  0  0  0
   -1.6751   -3.4622   -0.9682 H   0  0  0  0  0  0  0  0  0  0  0  0
   -1.1495   -4.0122    0.5825 H   0  0  0  0  0  0  0  0  0  0  0  0
   -2.3571   -2.2391    1.6414 H   0  0  0  0  0  0  0  0  0  0  0  0
   -3.6792   -2.9352   -1.7199 H   0  0  0  0  0  0  0  0  0  0  0  0
   -5.1249   -1.3921   -2.9315 H   0  0  0  0  0  0  0  0  0  0  0  0
   -5.9604    2.0361   -1.7634 H   0  0  0  0  0  0  0  0  0  0  0  0
   -7.1633    0.7267   -1.8695 H   0  0  0  0  0  0  0  0  0  0  0  0
   -5.9508    0.9540   -3.1547 H   0  0  0  0  0  0  0  0  0  0  0  0
   -5.1309    1.2711    0.4359 H   0  0  0  0  0  0  0  0  0  0  0  0
   -3.8194   -0.9124    2.7708 H   0  0  0  0  0  0  0  0  0  0  0  0
   -2.4359    0.0128    2.1095 H   0  0  0  0  0  0  0  0  0  0  0  0
   -3.9944    0.7990    2.3828 H   0  0  0  0  0  0  0  0  0  0  0  0
   -1.0925   -2.0825   -2.4696 H   0  0  0  0  0  0  0  0  0  0  0  0
    0.4561   -1.4614   -3.0129 H   0  0  0  0  0  0  0  0  0  0  0  0
   -1.5996    1.0119   -0.6737 H   0  0  0  0  0  0  0  0  0  0  0  0
   -2.4931    2.9621   -2.3542 H   0  0  0  0  0  0  0  0  0  0  0  0
   -1.8903    2.0214   -4.8833 H   0  0  0  0  0  0  0  0  0  0  0  0
    2.8711    0.7523    3.2823 H   0  0  0  0  0  0  0  0  0  0  0  0
    5.0171    0.0811    4.2359 H   0  0  0  0  0  0  0  0  0  0  0  0
  1  2  1  0
  2  3  1  0
  3  4  2  0
  4  5  1  0
  5  6  2  0
  6  7  1  0
  7  8  2  0
  7  9  1  0
  9 10  1  0
 10 11  1  0
 11 12  2  0
 12 13  1  0
 13 14  2  0
 14 15  1  0
 15 16  1  0
 16 17  1  0
 17 18  2  0
 18 19  1  0
 19 20  2  0
 20 21  1  0
 20 22  1  0
 22 23  2  0
 23 24  1  0
 14 25  1  0
 25 26  1  0
 26 27  1  0
 27 28  2  0
 28 29  1  0
 29 30  2  0
 30 31  1  0
  6 32  1  0
 32 33  2  0
 33  3  1  0
 25 11  1  0
 31 27  1  0
 23 17  1  0
  1 34  1  0
  1 35  1  0
  1 36  1  0
  4 37  1  0
  5 38  1  0
  9 39  1  0
  9 40  1  0
 15 41  1  0
 15 42  1  0
 16 43  1  0
 18 44  1  0
 19 45  1  0
 21 46  1  0
 21 47  1  0
 21 48  1  0
 22 49  1  0
 24 50  1  0
 24 51  1  0
 24 52  1  0
 26 53  1  0
 26 54  1  0
 28 55  1  0
 29 56  1  0
 30 57  1  0
 32 58  1  0
 33 59  1  0
M  END
$$$$
