
     RDKit          3D

 36 37  0  0  0  0  0  0  0  0999 V2000
   -1.4783    3.5340    1.0155 O   0  0  0  0  0  0  0  0  0  0  0  0
   -1.0230    2.8091    0.1369 C   0  0  0  0  0  0  0  0  0  0  0  0
   -1.6558    2.7540   -1.2041 C   0  0  0  0  0  0  0  0  0  0  0  0
   -2.1500    1.6282   -1.7484 C   0  0  0  0  0  0  0  0  0  0  0  0
   -2.2063    0.3214   -1.0659 C   0  0  0  0  0  0  0  0  0  0  0  0
   -3.0383    0.1882    0.0564 C   0  0  0  0  0  0  0  0  0  0  0  0
   -3.0735   -1.0099    0.7740 C   0  0  0  0  0  0  0  0  0  0  0  0
   -2.2815   -2.0876    0.3795 C   0  0  0  0  0  0  0  0  0  0  0  0
   -1.4652   -1.9772   -0.7466 C   0  0  0  0  0  0  0  0  0  0  0  0
   -1.4365   -0.7820   -1.4730 C   0  0  0  0  0  0  0  0  0  0  0  0
   -0.4056   -0.6997   -2.8563 Cl  0  0  0  0  0  0  0  0  0  0  0  0
    0.0752    1.9846    0.2609 N   0  0  0  0  0  0  0  0  0  0  0  0
    0.6082    1.6525    1.5687 C   0  0  0  0  0  0  0  0  0  0  0  0
    2.0534    1.1572    1.5015 C   0  0  0  0  0  0  0  0  0  0  0  0
    2.2194   -0.1252    0.7171 C   0  0  0  0  0  0  0  0  0  0  0  0
    1.8365   -1.3573    1.2651 C   0  0  0  0  0  0  0  0  0  0  0  0
    1.9959   -2.5381    0.5377 C   0  0  0  0  0  0  0  0  0  0  0  0
    2.5316   -2.4980   -0.7471 C   0  0  0  0  0  0  0  0  0  0  0  0
    2.9144   -1.2787   -1.3028 C   0  0  0  0  0  0  0  0  0  0  0  0
    2.7611   -0.0975   -0.5749 C   0  0  0  0  0  0  0  0  0  0  0  0
   -1.7287    3.7080   -1.7125 H   0  0  0  0  0  0  0  0  0  0  0  0
   -2.5839    1.6555   -2.7430 H   0  0  0  0  0  0  0  0  0  0  0  0
   -3.6477    1.0286    0.3899 H   0  0  0  0  0  0  0  0  0  0  0  0
   -3.7194   -1.0860    1.6460 H   0  0  0  0  0  0  0  0  0  0  0  0
   -2.2913   -3.0161    0.9484 H   0  0  0  0  0  0  0  0  0  0  0  0
   -0.8464   -2.8199   -1.0470 H   0  0  0  0  0  0  0  0  0  0  0  0
    0.2254    1.3099   -0.4762 H   0  0  0  0  0  0  0  0  0  0  0  0
   -0.0487    0.8884    2.0006 H   0  0  0  0  0  0  0  0  0  0  0  0
    0.5490    2.5370    2.2153 H   0  0  0  0  0  0  0  0  0  0  0  0
    2.6902    1.9383    1.0668 H   0  0  0  0  0  0  0  0  0  0  0  0
    2.4276    0.9938    2.5189 H   0  0  0  0  0  0  0  0  0  0  0  0
    1.4219   -1.4097    2.2688 H   0  0  0  0  0  0  0  0  0  0  0  0
    1.7096   -3.4931    0.9742 H   0  0  0  0  0  0  0  0  0  0  0  0
    2.6549   -3.4149   -1.3126 H   0  0  0  0  0  0  0  0  0  0  0  0
    3.3317   -1.2442   -2.3054 H   0  0  0  0  0  0  0  0  0  0  0  0
    3.0740    0.8465   -1.0233 H   0  0  0  0  0  0  0  0  0  0  0  0
  1  2  2  0
  2  3  1  0
  3  4  2  3
  4  5  1  0
  5  6  2  0
  6  7  1  0
  7  8  2  0
  8  9  1  0
  9 10  2  0
 10 11  1  0
  2 12  1  0
 12 13  1  0
 13 14  1  0
 14 15  1  0
 15 16  2  0
 16 17  1  0
 17 18  2  0
 18 19  1  0
 19 20  2  0
 10  5  1  0
 20 15  1  0
  3 21  1  0
  4 22  1  0
  6 23  1  0
  7 24  1  0
  8 25  1  0
  9 26  1  0
 12 27  1  0
 13 28  1  0
 13 29  1  0
 14 30  1  0
 14 31  1  0
 16 32  1  0
 17 33  1  0
 18 34  1  0
 19 35  1  0
 20 36  1  0
M  END
$$$$
