
     RDKit          3D

 39 41  0  0  0  0  0  0  0  0999 V2000
    4.2590    2.4374    1.9964 C   0  0  0  0  0  0  0  0  0  0  0  0
    4.5327    1.7656    0.6630 C   0  0  0  0  0  0  0  0  0  0  0  0
    4.0265    0.4069    0.6205 N   0  0  0  0  0  0  0  0  0  0  0  0
    4.7453   -0.7346    0.8136 C   0  0  0  0  0  0  0  0  0  0  0  0
    3.8545   -1.7705    0.6712 C   0  0  0  0  0  0  0  0  0  0  0  0
    2.6060   -1.1594    0.3878 C   0  0  0  0  0  0  0  0  0  0  0  0
    1.3153   -1.8365    0.1467 C   0  0  0  0  0  0  0  0  0  0  0  0
    1.2291   -3.0577    0.1729 O   0  0  0  0  0  0  0  0  0  0  0  0
    0.3131   -0.9169   -0.0894 N   0  0  0  0  0  0  0  0  0  0  0  0
   -1.0249   -1.1381   -0.3582 C   0  0  0  0  0  0  0  0  0  0  0  0
   -1.6397   -2.7406   -0.4484 S   0  0  0  0  0  0  0  0  0  0  0  0
   -3.1689   -2.1734   -0.7788 C   0  0  0  0  0  0  0  0  0  0  0  0
   -3.2540   -0.8123   -0.8283 C   0  0  0  0  0  0  0  0  0  0  0  0
   -2.0073   -0.1674   -0.5811 C   0  0  0  0  0  0  0  0  0  0  0  0
   -1.8150    1.2824   -0.5660 C   0  0  0  0  0  0  0  0  0  0  0  0
   -2.7254    2.0803   -0.7614 O   0  0  0  0  0  0  0  0  0  0  0  0
   -0.5242    1.6547   -0.3125 O   0  0  0  0  0  0  0  0  0  0  0  0
   -0.3129    3.0665   -0.2921 C   0  0  0  0  0  0  0  0  0  0  0  0
   -4.6444   -0.3769   -1.1227 C   0  0  0  0  0  0  0  0  0  0  0  0
   -5.3193   -1.7072   -1.5840 C   0  0  0  0  0  0  0  0  0  0  0  0
   -4.4495   -2.8739   -1.0241 C   0  0  0  0  0  0  0  0  0  0  0  0
    2.7232    0.1869    0.3572 N   0  0  0  0  0  0  0  0  0  0  0  0
    3.1841    2.4908    2.1999 H   0  0  0  0  0  0  0  0  0  0  0  0
    4.7278    1.8853    2.8180 H   0  0  0  0  0  0  0  0  0  0  0  0
    4.6574    3.4565    1.9973 H   0  0  0  0  0  0  0  0  0  0  0  0
    5.6098    1.7282    0.4663 H   0  0  0  0  0  0  0  0  0  0  0  0
    4.0608    2.3189   -0.1565 H   0  0  0  0  0  0  0  0  0  0  0  0
    5.8042   -0.7190    1.0315 H   0  0  0  0  0  0  0  0  0  0  0  0
    4.0569   -2.8297    0.7553 H   0  0  0  0  0  0  0  0  0  0  0  0
    0.6267    0.0538   -0.0537 H   0  0  0  0  0  0  0  0  0  0  0  0
    0.7488    3.2458   -0.1016 H   0  0  0  0  0  0  0  0  0  0  0  0
   -0.5696    3.5082   -1.2600 H   0  0  0  0  0  0  0  0  0  0  0  0
   -0.8928    3.5284    0.5129 H   0  0  0  0  0  0  0  0  0  0  0  0
   -5.1266    0.0034   -0.2161 H   0  0  0  0  0  0  0  0  0  0  0  0
   -4.6956    0.3812   -1.9091 H   0  0  0  0  0  0  0  0  0  0  0  0
   -6.3636   -1.7759   -1.2639 H   0  0  0  0  0  0  0  0  0  0  0  0
   -5.3085   -1.7491   -2.6812 H   0  0  0  0  0  0  0  0  0  0  0  0
   -4.3670   -3.6890   -1.7481 H   0  0  0  0  0  0  0  0  0  0  0  0
   -4.8721   -3.2531   -0.0883 H   0  0  0  0  0  0  0  0  0  0  0  0
  1  2  1  0
  2  3  1  0
  3  4  1  0
  4  5  2  0
  5  6  1  0
  6  7  1  0
  7  8  2  0
  7  9  1  0
  9 10  1  0
 10 11  1  0
 11 12  1  0
 12 13  2  0
 13 14  1  0
 14 15  1  0
 15 16  2  0
 15 17  1  0
 17 18  1  0
 13 19  1  0
 19 20  1  0
 20 21  1  0
  6 22  2  0
 22  3  1  0
 14 10  2  0
 21 12  1  0
  1 23  1  0
  1 24  1  0
  1 25  1  0
  2 26  1  0
  2 27  1  0
  4 28  1  0
  5 29  1  0
  9 30  1  0
 18 31  1  0
 18 32  1  0
 18 33  1  0
 19 34  1  0
 19 35  1  0
 20 36  1  0
 20 37  1  0
 21 38  1  0
 21 39  1  0
M  END
$$$$
