
     RDKit          3D

 53 56  0  0  0  0  0  0  0  0999 V2000
   -8.9109   -0.5539    2.2519 C   0  0  0  0  0  0  0  0  0  0  0  0
   -8.3518    0.7291    1.9956 O   0  0  0  0  0  0  0  0  0  0  0  0
   -7.1953    0.7660    1.2666 C   0  0  0  0  0  0  0  0  0  0  0  0
   -6.6833    2.0470    1.0507 C   0  0  0  0  0  0  0  0  0  0  0  0
   -5.5103    2.2308    0.3190 C   0  0  0  0  0  0  0  0  0  0  0  0
   -4.8350    1.1282   -0.2048 C   0  0  0  0  0  0  0  0  0  0  0  0
   -5.3318   -0.1625    0.0103 C   0  0  0  0  0  0  0  0  0  0  0  0
   -4.6591   -1.3810   -0.5360 C   0  0  0  0  0  0  0  0  0  0  0  0
   -5.2785   -2.4461   -0.5646 O   0  0  0  0  0  0  0  0  0  0  0  0
   -3.2477   -1.2814   -1.0973 C   0  0  0  0  0  0  0  0  0  0  0  0
   -2.3758   -0.6599   -0.1646 O   0  0  0  0  0  0  0  0  0  0  0  0
   -1.0855   -0.4512   -0.5603 C   0  0  0  0  0  0  0  0  0  0  0  0
   -0.5069   -0.8930   -1.7480 C   0  0  0  0  0  0  0  0  0  0  0  0
    0.8393   -0.6084   -2.0304 C   0  0  0  0  0  0  0  0  0  0  0  0
    1.6348    0.1223   -1.1359 C   0  0  0  0  0  0  0  0  0  0  0  0
    3.0591    0.4424   -1.3667 C   0  0  0  0  0  0  0  0  0  0  0  0
    3.6677   -0.0639   -2.6501 C   0  0  0  0  0  0  0  0  0  0  0  0
    3.7366    1.1425   -0.4269 C   0  0  0  0  0  0  0  0  0  0  0  0
    5.2005    1.5314   -0.5043 C   0  0  0  0  0  0  0  0  0  0  0  0
    6.1170    0.5594    0.2108 C   0  0  0  0  0  0  0  0  0  0  0  0
    6.4240    0.7394    1.5676 C   0  0  0  0  0  0  0  0  0  0  0  0
    7.2534   -0.1625    2.2366 C   0  0  0  0  0  0  0  0  0  0  0  0
    7.7864   -1.2557    1.5583 C   0  0  0  0  0  0  0  0  0  0  0  0
    7.4906   -1.4473    0.2107 C   0  0  0  0  0  0  0  0  0  0  0  0
    6.6603   -0.5462   -0.4595 C   0  0  0  0  0  0  0  0  0  0  0  0
    3.0527    1.6586    0.7960 C   0  0  0  0  0  0  0  0  0  0  0  0
    3.6172    2.3948    1.5992 O   0  0  0  0  0  0  0  0  0  0  0  0
    1.7343    1.2911    0.9950 O   0  0  0  0  0  0  0  0  0  0  0  0
    1.0297    0.5467    0.0407 C   0  0  0  0  0  0  0  0  0  0  0  0
   -0.3067    0.2706    0.3397 C   0  0  0  0  0  0  0  0  0  0  0  0
   -6.5185   -0.3365    0.7434 C   0  0  0  0  0  0  0  0  0  0  0  0
   -9.1961   -1.0533    1.3201 H   0  0  0  0  0  0  0  0  0  0  0  0
   -9.8199   -0.4096    2.8438 H   0  0  0  0  0  0  0  0  0  0  0  0
   -8.2254   -1.1728    2.8401 H   0  0  0  0  0  0  0  0  0  0  0  0
   -7.2059    2.9101    1.4574 H   0  0  0  0  0  0  0  0  0  0  0  0
   -5.1247    3.2348    0.1585 H   0  0  0  0  0  0  0  0  0  0  0  0
   -3.9282    1.3060   -0.7752 H   0  0  0  0  0  0  0  0  0  0  0  0
   -3.2979   -0.7248   -2.0409 H   0  0  0  0  0  0  0  0  0  0  0  0
   -2.9049   -2.3053   -1.2912 H   0  0  0  0  0  0  0  0  0  0  0  0
   -1.0650   -1.4714   -2.4779 H   0  0  0  0  0  0  0  0  0  0  0  0
    1.2430   -0.9830   -2.9678 H   0  0  0  0  0  0  0  0  0  0  0  0
    4.7107    0.2219   -2.7904 H   0  0  0  0  0  0  0  0  0  0  0  0
    3.1266    0.3348   -3.5156 H   0  0  0  0  0  0  0  0  0  0  0  0
    3.6360   -1.1586   -2.6849 H   0  0  0  0  0  0  0  0  0  0  0  0
    5.5339    1.6379   -1.5427 H   0  0  0  0  0  0  0  0  0  0  0  0
    5.3562    2.5402   -0.0986 H   0  0  0  0  0  0  0  0  0  0  0  0
    6.0167    1.5868    2.1171 H   0  0  0  0  0  0  0  0  0  0  0  0
    7.4805   -0.0100    3.2886 H   0  0  0  0  0  0  0  0  0  0  0  0
    8.4314   -1.9574    2.0801 H   0  0  0  0  0  0  0  0  0  0  0  0
    7.9069   -2.2999   -0.3194 H   0  0  0  0  0  0  0  0  0  0  0  0
    6.4477   -0.7161   -1.5111 H   0  0  0  0  0  0  0  0  0  0  0  0
   -0.7359    0.6213    1.2747 H   0  0  0  0  0  0  0  0  0  0  0  0
   -6.8922   -1.3454    0.8928 H   0  0  0  0  0  0  0  0  0  0  0  0
  1  2  1  0
  2  3  1  0
  3  4  2  0
  4  5  1  0
  5  6  2  0
  6  7  1  0
  7  8  1  0
  8  9  2  0
  8 10  1  0
 10 11  1  0
 11 12  1  0
 12 13  2  0
 13 14  1  0
 14 15  2  0
 15 16  1  0
 16 17  1  0
 16 18  2  0
 18 19  1  0
 19 20  1  0
 20 21  2  0
 21 22  1  0
 22 23  2  0
 23 24  1  0
 24 25  2  0
 18 26  1  0
 26 27  2  0
 26 28  1  0
 28 29  1  0
 29 30  2  0
  7 31  2  0
 31  3  1  0
 30 12  1  0
 29 15  1  0
 25 20  1  0
  1 32  1  0
  1 33  1  0
  1 34  1  0
  4 35  1  0
  5 36  1  0
  6 37  1  0
 10 38  1  0
 10 39  1  0
 13 40  1  0
 14 41  1  0
 17 42  1  0
 17 43  1  0
 17 44  1  0
 19 45  1  0
 19 46  1  0
 21 47  1  0
 22 48  1  0
 23 49  1  0
 24 50  1  0
 25 51  1  0
 30 52  1  0
 31 53  1  0
M  END
$$$$
