
     RDKit          3D

 53 56  0  0  0  0  0  0  0  0999 V2000
   -7.7321   -2.2937    0.1540 C   0  0  0  0  0  0  0  0  0  0  0  0
   -8.1611   -0.9946    0.5455 O   0  0  0  0  0  0  0  0  0  0  0  0
   -7.2948    0.0386    0.3180 C   0  0  0  0  0  0  0  0  0  0  0  0
   -7.7745    1.2946    0.6936 C   0  0  0  0  0  0  0  0  0  0  0  0
   -6.9940    2.4366    0.5166 C   0  0  0  0  0  0  0  0  0  0  0  0
   -5.7185    2.3318   -0.0396 C   0  0  0  0  0  0  0  0  0  0  0  0
   -5.2227    1.0785   -0.4197 C   0  0  0  0  0  0  0  0  0  0  0  0
   -3.8614    0.9014   -1.0162 C   0  0  0  0  0  0  0  0  0  0  0  0
   -3.4838   -0.2331   -1.3052 O   0  0  0  0  0  0  0  0  0  0  0  0
   -2.9911    2.1429   -1.2252 C   0  0  0  0  0  0  0  0  0  0  0  0
   -1.7510    1.9149   -1.8798 O   0  0  0  0  0  0  0  0  0  0  0  0
   -0.6763    1.5604   -1.1158 C   0  0  0  0  0  0  0  0  0  0  0  0
   -0.7209    1.0430    0.1763 C   0  0  0  0  0  0  0  0  0  0  0  0
    0.4656    0.7071    0.8488 C   0  0  0  0  0  0  0  0  0  0  0  0
    1.7201    0.8779    0.2459 C   0  0  0  0  0  0  0  0  0  0  0  0
    3.0030    0.5319    0.8931 C   0  0  0  0  0  0  0  0  0  0  0  0
    2.9258   -0.0368    2.2874 C   0  0  0  0  0  0  0  0  0  0  0  0
    4.1562    0.7215    0.2102 C   0  0  0  0  0  0  0  0  0  0  0  0
    5.5464    0.4012    0.7246 C   0  0  0  0  0  0  0  0  0  0  0  0
    6.0488   -0.9600    0.2876 C   0  0  0  0  0  0  0  0  0  0  0  0
    5.7909   -2.1047    1.0556 C   0  0  0  0  0  0  0  0  0  0  0  0
    6.2427   -3.3585    0.6380 C   0  0  0  0  0  0  0  0  0  0  0  0
    6.9556   -3.4837   -0.5521 C   0  0  0  0  0  0  0  0  0  0  0  0
    7.2181   -2.3556   -1.3252 C   0  0  0  0  0  0  0  0  0  0  0  0
    6.7677   -1.1017   -0.9085 C   0  0  0  0  0  0  0  0  0  0  0  0
    4.1576    1.3402   -1.1487 C   0  0  0  0  0  0  0  0  0  0  0  0
    5.1972    1.6309   -1.7328 O   0  0  0  0  0  0  0  0  0  0  0  0
    2.9327    1.5988   -1.7359 O   0  0  0  0  0  0  0  0  0  0  0  0
    1.7316    1.3853   -1.0476 C   0  0  0  0  0  0  0  0  0  0  0  0
    0.5613    1.7203   -1.7329 C   0  0  0  0  0  0  0  0  0  0  0  0
   -6.0190   -0.0660   -0.2374 C   0  0  0  0  0  0  0  0  0  0  0  0
   -7.5538   -2.3421   -0.9253 H   0  0  0  0  0  0  0  0  0  0  0  0
   -6.8449   -2.6020    0.7169 H   0  0  0  0  0  0  0  0  0  0  0  0
   -8.5370   -2.9964    0.3903 H   0  0  0  0  0  0  0  0  0  0  0  0
   -8.7686    1.3821    1.1270 H   0  0  0  0  0  0  0  0  0  0  0  0
   -7.3846    3.4075    0.8128 H   0  0  0  0  0  0  0  0  0  0  0  0
   -5.1427    3.2440   -0.1624 H   0  0  0  0  0  0  0  0  0  0  0  0
   -3.5485    2.8162   -1.8866 H   0  0  0  0  0  0  0  0  0  0  0  0
   -2.8399    2.6670   -0.2740 H   0  0  0  0  0  0  0  0  0  0  0  0
   -1.6607    0.8568    0.6852 H   0  0  0  0  0  0  0  0  0  0  0  0
    0.3716    0.2957    1.8504 H   0  0  0  0  0  0  0  0  0  0  0  0
    3.8974   -0.2461    2.7364 H   0  0  0  0  0  0  0  0  0  0  0  0
    2.4268    0.6673    2.9627 H   0  0  0  0  0  0  0  0  0  0  0  0
    2.3715   -0.9819    2.2870 H   0  0  0  0  0  0  0  0  0  0  0  0
    6.2637    1.1704    0.4080 H   0  0  0  0  0  0  0  0  0  0  0  0
    5.5957    0.4648    1.8174 H   0  0  0  0  0  0  0  0  0  0  0  0
    5.2390   -2.0331    1.9884 H   0  0  0  0  0  0  0  0  0  0  0  0
    6.0370   -4.2386    1.2416 H   0  0  0  0  0  0  0  0  0  0  0  0
    7.3054   -4.4595   -0.8780 H   0  0  0  0  0  0  0  0  0  0  0  0
    7.7717   -2.4493   -2.2559 H   0  0  0  0  0  0  0  0  0  0  0  0
    6.9813   -0.2328   -1.5292 H   0  0  0  0  0  0  0  0  0  0  0  0
    0.6185    2.1082   -2.7463 H   0  0  0  0  0  0  0  0  0  0  0  0
   -5.6191   -1.0304   -0.5386 H   0  0  0  0  0  0  0  0  0  0  0  0
  1  2  1  0
  2  3  1  0
  3  4  2  0
  4  5  1  0
  5  6  2  0
  6  7  1  0
  7  8  1  0
  8  9  2  0
  8 10  1  0
 10 11  1  0
 11 12  1  0
 12 13  2  0
 13 14  1  0
 14 15  2  0
 15 16  1  0
 16 17  1  0
 16 18  2  0
 18 19  1  0
 19 20  1  0
 20 21  2  0
 21 22  1  0
 22 23  2  0
 23 24  1  0
 24 25  2  0
 18 26  1  0
 26 27  2  0
 26 28  1  0
 28 29  1  0
 29 30  2  0
  7 31  2  0
 31  3  1  0
 30 12  1  0
 29 15  1  0
 25 20  1  0
  1 32  1  0
  1 33  1  0
  1 34  1  0
  4 35  1  0
  5 36  1  0
  6 37  1  0
 10 38  1  0
 10 39  1  0
 13 40  1  0
 14 41  1  0
 17 42  1  0
 17 43  1  0
 17 44  1  0
 19 45  1  0
 19 46  1  0
 21 47  1  0
 22 48  1  0
 23 49  1  0
 24 50  1  0
 25 51  1  0
 30 52  1  0
 31 53  1  0
M  END
$$$$
