
     RDKit          3D

 51 54  0  0  0  0  0  0  0  0999 V2000
    5.5128    1.1893   -4.2078 C   0  0  0  0  0  0  0  0  0  0  0  0
    5.6006    1.0753   -2.6932 C   0  0  0  0  0  0  0  0  0  0  0  0
    4.2536    1.2532   -2.0420 C   0  0  0  0  0  0  0  0  0  0  0  0
    3.7848    2.5254   -1.7134 C   0  0  0  0  0  0  0  0  0  0  0  0
    2.5227    2.6921   -1.1285 C   0  0  0  0  0  0  0  0  0  0  0  0
    1.6882    1.5965   -0.8561 C   0  0  0  0  0  0  0  0  0  0  0  0
    0.3779    1.7719   -0.2550 N   0  0  0  0  0  0  0  0  0  0  0  0
   -0.3726    2.8987   -0.6131 C   0  0  0  0  0  0  0  0  0  0  0  0
   -0.0312    3.7718   -1.4110 O   0  0  0  0  0  0  0  0  0  0  0  0
   -1.7181    3.0359   -0.0320 C   0  0  0  0  0  0  0  0  0  0  0  0
   -2.5231    4.1278   -0.4064 C   0  0  0  0  0  0  0  0  0  0  0  0
   -3.8121    4.2601    0.0996 C   0  0  0  0  0  0  0  0  0  0  0  0
   -4.3005    3.2977    0.9724 C   0  0  0  0  0  0  0  0  0  0  0  0
   -3.4960    2.2153    1.3460 C   0  0  0  0  0  0  0  0  0  0  0  0
   -2.1866    2.0765    0.8564 C   0  0  0  0  0  0  0  0  0  0  0  0
   -1.3359    1.0084    1.2285 N   0  0  0  0  0  0  0  0  0  0  0  0
   -1.7665    0.0045    2.2045 C   0  0  0  0  0  0  0  0  0  0  0  0
   -2.4465   -1.1731    1.4999 C   0  0  0  0  0  0  0  0  0  0  0  0
   -3.3274   -1.0280    0.6570 O   0  0  0  0  0  0  0  0  0  0  0  0
   -2.0077   -2.4135    1.9107 N   0  0  0  0  0  0  0  0  0  0  0  0
   -2.4670   -3.5995    1.2243 C   0  0  0  0  0  0  0  0  0  0  0  0
   -2.0412   -4.7925    1.9944 C   0  0  0  0  0  0  0  0  0  0  0  0
   -2.7230   -5.8595    2.5391 C   0  0  0  0  0  0  0  0  0  0  0  0
   -1.7511   -6.6803    3.1584 C   0  0  0  0  0  0  0  0  0  0  0  0
   -0.5378   -6.0635    2.9513 C   0  0  0  0  0  0  0  0  0  0  0  0
   -0.7040   -4.9142    2.2493 O   0  0  0  0  0  0  0  0  0  0  0  0
   -0.0735    0.8128    0.6646 C   0  0  0  0  0  0  0  0  0  0  0  0
    0.5924   -0.1623    1.0315 O   0  0  0  0  0  0  0  0  0  0  0  0
    2.1725    0.3242   -1.1977 C   0  0  0  0  0  0  0  0  0  0  0  0
    3.4341    0.1532   -1.7831 C   0  0  0  0  0  0  0  0  0  0  0  0
    5.1231    2.1679   -4.5094 H   0  0  0  0  0  0  0  0  0  0  0  0
    4.8512    0.4220   -4.6271 H   0  0  0  0  0  0  0  0  0  0  0  0
    6.5042    1.0658   -4.6536 H   0  0  0  0  0  0  0  0  0  0  0  0
    6.2999    1.8261   -2.3038 H   0  0  0  0  0  0  0  0  0  0  0  0
    6.0205    0.0990   -2.4196 H   0  0  0  0  0  0  0  0  0  0  0  0
    4.3960    3.4033   -1.9089 H   0  0  0  0  0  0  0  0  0  0  0  0
    2.2229    3.7032   -0.8688 H   0  0  0  0  0  0  0  0  0  0  0  0
   -2.1484    4.8736   -1.1053 H   0  0  0  0  0  0  0  0  0  0  0  0
   -4.4351    5.1000   -0.1981 H   0  0  0  0  0  0  0  0  0  0  0  0
   -5.3140    3.3774    1.3583 H   0  0  0  0  0  0  0  0  0  0  0  0
   -3.9471    1.4801    2.0049 H   0  0  0  0  0  0  0  0  0  0  0  0
   -2.4439    0.4244    2.9539 H   0  0  0  0  0  0  0  0  0  0  0  0
   -0.8999   -0.3521    2.7759 H   0  0  0  0  0  0  0  0  0  0  0  0
   -1.0717   -2.4722    2.2953 H   0  0  0  0  0  0  0  0  0  0  0  0
   -3.5583   -3.5617    1.1231 H   0  0  0  0  0  0  0  0  0  0  0  0
   -2.0255   -3.6083    0.2210 H   0  0  0  0  0  0  0  0  0  0  0  0
   -3.7903   -6.0246    2.4932 H   0  0  0  0  0  0  0  0  0  0  0  0
   -1.9108   -7.6079    3.6874 H   0  0  0  0  0  0  0  0  0  0  0  0
    0.4793   -6.3051    3.2251 H   0  0  0  0  0  0  0  0  0  0  0  0
    1.5663   -0.5658   -1.0492 H   0  0  0  0  0  0  0  0  0  0  0  0
    3.7638   -0.8492   -2.0409 H   0  0  0  0  0  0  0  0  0  0  0  0
  1  2  1  0
  2  3  1  0
  3  4  2  0
  4  5  1  0
  5  6  2  0
  6  7  1  0
  7  8  1  0
  8  9  2  0
  8 10  1  0
 10 11  2  0
 11 12  1  0
 12 13  2  0
 13 14  1  0
 14 15  2  0
 15 16  1  0
 16 17  1  0
 17 18  1  0
 18 19  2  0
 18 20  1  0
 20 21  1  0
 21 22  1  0
 22 23  2  0
 23 24  1  0
 24 25  2  0
 25 26  1  0
 16 27  1  0
 27 28  2  0
  6 29  1  0
 29 30  2  0
 30  3  1  0
 27  7  1  0
 15 10  1  0
 26 22  1  0
  1 31  1  0
  1 32  1  0
  1 33  1  0
  2 34  1  0
  2 35  1  0
  4 36  1  0
  5 37  1  0
 11 38  1  0
 12 39  1  0
 13 40  1  0
 14 41  1  0
 17 42  1  0
 17 43  1  0
 20 44  1  0
 21 45  1  0
 21 46  1  0
 23 47  1  0
 24 48  1  0
 25 49  1  0
 29 50  1  0
 30 51  1  0
M  END
$$$$
