
     RDKit          3D

 53 55  0  0  0  0  0  0  0  0999 V2000
   -6.1326    1.0725    0.4948 C   0  0  0  0  0  0  0  0  0  0  0  0
   -6.5043   -0.1108   -0.2135 O   0  0  0  0  0  0  0  0  0  0  0  0
   -6.2786   -1.2312    0.5422 C   0  0  0  0  0  0  0  0  0  0  0  0
   -7.0595   -1.4766    1.6754 C   0  0  0  0  0  0  0  0  0  0  0  0
   -6.8608   -2.6372    2.4211 C   0  0  0  0  0  0  0  0  0  0  0  0
   -5.8940   -3.5588    2.0263 C   0  0  0  0  0  0  0  0  0  0  0  0
   -5.1292   -3.3233    0.8818 C   0  0  0  0  0  0  0  0  0  0  0  0
   -5.3141   -2.1563    0.1194 C   0  0  0  0  0  0  0  0  0  0  0  0
   -4.4751   -1.9231   -1.1112 C   0  0  0  0  0  0  0  0  0  0  0  0
   -3.0845   -1.7393   -0.7727 N   0  0  0  0  0  0  0  0  0  0  0  0
   -2.5191   -0.5000   -0.5979 C   0  0  0  0  0  0  0  0  0  0  0  0
   -3.0388    0.5850   -0.8180 O   0  0  0  0  0  0  0  0  0  0  0  0
   -1.0705   -0.5614   -0.0607 C   0  0  0  0  0  0  0  0  0  0  0  0
   -0.5449   -1.6430    0.1648 O   0  0  0  0  0  0  0  0  0  0  0  0
   -0.5003    0.6783    0.1200 N   0  0  0  0  0  0  0  0  0  0  0  0
    0.9087    0.8455    0.4346 C   0  0  0  0  0  0  0  0  0  0  0  0
    1.8051    0.9596   -0.8301 C   0  0  0  0  0  0  0  0  0  0  0  0
    1.6304   -0.1903   -1.6787 O   0  0  0  0  0  0  0  0  0  0  0  0
    2.5769   -1.1592   -1.2188 C   0  0  0  0  0  0  0  0  0  0  0  0
    3.7868   -0.3481   -0.7997 C   0  0  0  0  0  0  0  0  0  0  0  0
    3.2551    1.0056   -0.5744 N   0  0  0  0  0  0  0  0  0  0  0  0
    3.8023    1.9007    0.7260 S   0  0  0  0  0  6  0  0  0  0  0  0
    3.6659    1.0780    1.9084 O   0  0  0  0  0  0  0  0  0  0  0  0
    3.1940    3.2107    0.6509 O   0  0  0  0  0  0  0  0  0  0  0  0
    5.5294    2.0883    0.3632 C   0  0  0  0  0  0  0  0  0  0  0  0
    6.4877    1.4513    1.1572 C   0  0  0  0  0  0  0  0  0  0  0  0
    7.8422    1.6127    0.8586 C   0  0  0  0  0  0  0  0  0  0  0  0
    8.2245    2.4097   -0.2223 C   0  0  0  0  0  0  0  0  0  0  0  0
   10.0596    2.6238   -0.6229 Br  0  0  0  0  0  0  0  0  0  0  0  0
    7.2666    3.0520   -1.0087 C   0  0  0  0  0  0  0  0  0  0  0  0
    5.9113    2.8944   -0.7146 C   0  0  0  0  0  0  0  0  0  0  0  0
   -5.1762    0.9560    1.0176 H   0  0  0  0  0  0  0  0  0  0  0  0
   -6.0234    1.8793   -0.2360 H   0  0  0  0  0  0  0  0  0  0  0  0
   -6.9188    1.3594    1.2004 H   0  0  0  0  0  0  0  0  0  0  0  0
   -7.8328   -0.7739    1.9713 H   0  0  0  0  0  0  0  0  0  0  0  0
   -7.4660   -2.8265    3.3037 H   0  0  0  0  0  0  0  0  0  0  0  0
   -5.7402   -4.4661    2.6051 H   0  0  0  0  0  0  0  0  0  0  0  0
   -4.3865   -4.0600    0.5837 H   0  0  0  0  0  0  0  0  0  0  0  0
   -4.8238   -1.0649   -1.6941 H   0  0  0  0  0  0  0  0  0  0  0  0
   -4.5402   -2.8016   -1.7632 H   0  0  0  0  0  0  0  0  0  0  0  0
   -2.5330   -2.5305   -0.4562 H   0  0  0  0  0  0  0  0  0  0  0  0
   -1.0556    1.4735   -0.1872 H   0  0  0  0  0  0  0  0  0  0  0  0
    1.2213   -0.0041    1.0515 H   0  0  0  0  0  0  0  0  0  0  0  0
    0.9774    1.7509    1.0442 H   0  0  0  0  0  0  0  0  0  0  0  0
    1.5063    1.8355   -1.4159 H   0  0  0  0  0  0  0  0  0  0  0  0
    2.8025   -1.8715   -2.0171 H   0  0  0  0  0  0  0  0  0  0  0  0
    2.1491   -1.7084   -0.3737 H   0  0  0  0  0  0  0  0  0  0  0  0
    4.5174   -0.2991   -1.6140 H   0  0  0  0  0  0  0  0  0  0  0  0
    4.2719   -0.7894    0.0747 H   0  0  0  0  0  0  0  0  0  0  0  0
    6.1933    0.8365    2.0050 H   0  0  0  0  0  0  0  0  0  0  0  0
    8.5903    1.1193    1.4745 H   0  0  0  0  0  0  0  0  0  0  0  0
    7.5653    3.6777   -1.8463 H   0  0  0  0  0  0  0  0  0  0  0  0
    5.1615    3.3982   -1.3215 H   0  0  0  0  0  0  0  0  0  0  0  0
  1  2  1  0
  2  3  1  0
  3  4  2  0
  4  5  1  0
  5  6  2  0
  6  7  1  0
  7  8  2  0
  8  9  1  0
  9 10  1  0
 10 11  1  0
 11 12  2  0
 11 13  1  0
 13 14  2  0
 13 15  1  0
 15 16  1  0
 16 17  1  0
 17 18  1  0
 18 19  1  0
 19 20  1  0
 20 21  1  0
 21 22  1  0
 22 23  2  0
 22 24  2  0
 22 25  1  0
 25 26  2  0
 26 27  1  0
 27 28  2  0
 28 29  1  0
 28 30  1  0
 30 31  2  0
  8  3  1  0
 21 17  1  0
 31 25  1  0
  1 32  1  0
  1 33  1  0
  1 34  1  0
  4 35  1  0
  5 36  1  0
  6 37  1  0
  7 38  1  0
  9 39  1  0
  9 40  1  0
 10 41  1  0
 15 42  1  0
 16 43  1  0
 16 44  1  0
 17 45  1  0
 19 46  1  0
 19 47  1  0
 20 48  1  0
 20 49  1  0
 26 50  1  0
 27 51  1  0
 30 52  1  0
 31 53  1  0
M  END
$$$$
