
     RDKit          3D

 54 58  0  0  0  0  0  0  0  0999 V2000
    6.0972    0.8247    0.3081 F   0  0  0  0  0  0  0  0  0  0  0  0
    6.0241    0.9257   -1.0480 C   0  0  0  0  0  0  0  0  0  0  0  0
    5.5224    2.1717   -1.3144 F   0  0  0  0  0  0  0  0  0  0  0  0
    7.3226    0.9594   -1.4806 F   0  0  0  0  0  0  0  0  0  0  0  0
    5.2024   -0.1846   -1.6751 C   0  0  0  0  0  0  0  0  0  0  0  0
    5.8409   -1.0773   -2.5647 C   0  0  0  0  0  0  0  0  0  0  0  0
    5.1339   -2.1003   -3.1947 C   0  0  0  0  0  0  0  0  0  0  0  0
    3.7723   -2.2444   -2.9561 C   0  0  0  0  0  0  0  0  0  0  0  0
    3.1218   -1.3746   -2.0776 C   0  0  0  0  0  0  0  0  0  0  0  0
    3.8210   -0.3506   -1.4085 C   0  0  0  0  0  0  0  0  0  0  0  0
    3.0547    0.5667   -0.4690 C   0  0  0  0  0  0  0  0  0  0  0  0
    2.2759   -0.1930    0.6288 C   0  0  0  0  0  0  0  0  0  0  0  0
    1.6989    0.6874    1.6604 N   0  0  0  0  0  0  0  0  0  0  0  0
    1.0578   -0.0995    2.7405 C   0  0  0  0  0  0  0  0  0  0  0  0
   -0.4328   -0.4463    2.5152 C   0  0  0  0  0  0  0  0  0  0  0  0
   -1.2592    0.7420    2.1943 N   0  0  0  0  0  0  0  0  0  0  0  0
   -2.3764    0.5351    1.3802 C   0  0  0  0  0  0  0  0  0  0  0  0
   -2.4796    1.2074    0.2584 N   0  0  0  0  0  0  0  0  0  0  0  0
   -3.5495    0.9742   -0.6247 C   0  0  0  0  0  0  0  0  0  0  0  0
   -3.5842    1.6921   -1.8217 C   0  0  0  0  0  0  0  0  0  0  0  0
   -4.6015    1.4670   -2.7564 C   0  0  0  0  0  0  0  0  0  0  0  0
   -5.6016    0.5256   -2.4936 C   0  0  0  0  0  0  0  0  0  0  0  0
   -5.5917   -0.1933   -1.2969 C   0  0  0  0  0  0  0  0  0  0  0  0
   -4.5636    0.0351   -0.3771 C   0  0  0  0  0  0  0  0  0  0  0  0
   -4.4704   -0.6493    0.8467 N   0  0  0  0  0  0  0  0  0  0  0  0
   -5.3141   -1.5924    1.3896 C   0  0  0  0  0  0  0  0  0  0  0  0
   -4.8432   -1.9211    2.6428 C   0  0  0  0  0  0  0  0  0  0  0  0
   -3.6658   -1.1655    2.8573 C   0  0  0  0  0  0  0  0  0  0  0  0
   -3.4309   -0.4116    1.7199 C   0  0  0  0  0  0  0  0  0  0  0  0
   -0.4626    1.9702    1.9899 C   0  0  0  0  0  0  0  0  0  0  0  0
    0.7478    1.6716    1.0827 C   0  0  0  0  0  0  0  0  0  0  0  0
    6.9054   -0.9707   -2.7780 H   0  0  0  0  0  0  0  0  0  0  0  0
    5.6413   -2.7740   -3.8813 H   0  0  0  0  0  0  0  0  0  0  0  0
    3.2094   -3.0269   -3.4606 H   0  0  0  0  0  0  0  0  0  0  0  0
    2.0502   -1.4990   -1.9300 H   0  0  0  0  0  0  0  0  0  0  0  0
    3.7311    1.2724    0.0261 H   0  0  0  0  0  0  0  0  0  0  0  0
    2.3782    1.1725   -1.0850 H   0  0  0  0  0  0  0  0  0  0  0  0
    2.9749   -0.8862    1.1166 H   0  0  0  0  0  0  0  0  0  0  0  0
    1.4865   -0.8075    0.1784 H   0  0  0  0  0  0  0  0  0  0  0  0
    1.1377    0.4894    3.6644 H   0  0  0  0  0  0  0  0  0  0  0  0
    1.6207   -1.0184    2.9435 H   0  0  0  0  0  0  0  0  0  0  0  0
   -0.8197   -0.9247    3.4250 H   0  0  0  0  0  0  0  0  0  0  0  0
   -0.5033   -1.1789    1.6959 H   0  0  0  0  0  0  0  0  0  0  0  0
   -2.8041    2.4214   -2.0326 H   0  0  0  0  0  0  0  0  0  0  0  0
   -4.6087    2.0251   -3.6906 H   0  0  0  0  0  0  0  0  0  0  0  0
   -6.3838    0.3466   -3.2290 H   0  0  0  0  0  0  0  0  0  0  0  0
   -6.3791   -0.9177   -1.1133 H   0  0  0  0  0  0  0  0  0  0  0  0
   -6.1934   -1.9388    0.8677 H   0  0  0  0  0  0  0  0  0  0  0  0
   -5.3076   -2.6166    3.3321 H   0  0  0  0  0  0  0  0  0  0  0  0
   -3.0630   -1.1625    3.7553 H   0  0  0  0  0  0  0  0  0  0  0  0
   -1.0696    2.7771    1.5630 H   0  0  0  0  0  0  0  0  0  0  0  0
   -0.1242    2.3429    2.9653 H   0  0  0  0  0  0  0  0  0  0  0  0
    0.3607    1.3180    0.1174 H   0  0  0  0  0  0  0  0  0  0  0  0
    1.2935    2.6042    0.8939 H   0  0  0  0  0  0  0  0  0  0  0  0
  1  2  1  0
  2  3  1  0
  2  4  1  0
  2  5  1  0
  5  6  2  0
  6  7  1  0
  7  8  2  0
  8  9  1  0
  9 10  2  0
 10 11  1  0
 11 12  1  0
 12 13  1  0
 13 14  1  0
 14 15  1  0
 15 16  1  0
 16 17  1  0
 17 18  2  0
 18 19  1  0
 19 20  2  0
 20 21  1  0
 21 22  2  0
 22 23  1  0
 23 24  2  0
 24 25  1  0
 25 26  1  0
 26 27  2  0
 27 28  1  0
 28 29  2  0
 16 30  1  0
 30 31  1  0
 10  5  1  0
 31 13  1  0
 29 17  1  0
 24 19  1  0
 29 25  1  0
  6 32  1  0
  7 33  1  0
  8 34  1  0
  9 35  1  0
 11 36  1  0
 11 37  1  0
 12 38  1  0
 12 39  1  0
 14 40  1  0
 14 41  1  0
 15 42  1  0
 15 43  1  0
 20 44  1  0
 21 45  1  0
 22 46  1  0
 23 47  1  0
 26 48  1  0
 27 49  1  0
 28 50  1  0
 30 51  1  0
 30 52  1  0
 31 53  1  0
 31 54  1  0
M  END
$$$$
