
     RDKit          3D

 97 99  0  0  0  0  0  0  0  0999 V2000
   -1.3688    1.8729   -1.7764 C   0  0  0  0  0  0  0  0  0  0  0  0
   -1.5427    1.1047   -0.6815 C   0  0  0  0  0  0  0  0  0  0  0  0
   -2.8860    0.3931   -0.3914 C   0  0  1  0  0  0  0  0  0  0  0  0
   -3.8492    0.7409   -1.4162 O   0  0  0  0  0  0  0  0  0  0  0  0
   -5.1555    0.8282   -1.0471 C   0  0  0  0  0  0  0  0  0  0  0  0
   -5.5633    0.7262    0.1027 O   0  0  0  0  0  0  0  0  0  0  0  0
   -6.0448    1.0073   -2.2692 C   0  0  0  0  0  0  0  0  0  0  0  0
   -5.5670    2.1621   -3.1464 C   0  0  0  0  0  0  0  0  0  0  0  0
   -7.4967    1.2342   -1.8483 C   0  0  0  0  0  0  0  0  0  0  0  0
   -2.7913   -1.1557   -0.2419 C   0  0  0  0  0  0  0  0  0  0  0  0
   -4.0077   -1.7195    0.3031 O   0  0  0  0  0  0  0  0  0  0  0  0
   -4.1826   -1.5252    1.6392 C   0  0  0  0  0  0  0  0  0  0  0  0
   -5.4885   -2.1072    2.0843 C   0  0  0  0  0  0  0  0  0  0  0  0
   -3.3766   -0.9719    2.3752 O   0  0  0  0  0  0  0  0  0  0  0  0
   -2.5897   -1.8724   -1.5821 C   0  0  0  0  0  0  0  0  0  0  0  0
   -3.4302   -1.7732   -2.4851 O   0  0  0  0  0  0  0  0  0  0  0  0
   -1.3132   -2.7394   -1.7752 C   0  0  0  0  0  0  0  0  0  0  0  0
   -1.1236   -3.6991   -0.5869 C   0  0  0  0  0  0  0  0  0  0  0  0
   -1.4981   -3.6086   -3.0381 C   0  0  0  0  0  0  0  0  0  0  0  0
   -0.1501   -1.7990   -2.0470 C   0  0  0  0  0  0  0  0  0  0  0  0
    1.0723   -1.8152   -1.4846 C   0  0  0  0  0  0  0  0  0  0  0  0
    2.1736   -0.8524   -1.8763 C   0  0  2  0  0  0  0  0  0  0  0  0
    3.1249   -1.5660   -2.8489 C   0  0  0  0  0  0  0  0  0  0  0  0
    2.9581   -0.1902   -0.6945 C   0  0  2  0  0  0  0  0  0  0  0  0
    3.9172   -1.1540   -0.1808 O   0  0  0  0  0  0  0  0  0  0  0  0
    5.2292   -0.8329   -0.2494 C   0  0  0  0  0  0  0  0  0  0  0  0
    5.6955    0.1861   -0.7331 O   0  0  0  0  0  0  0  0  0  0  0  0
    6.0536   -1.9152    0.3490 C   0  0  0  0  0  0  0  0  0  0  0  0
    5.4887   -2.9717    1.0782 C   0  0  0  0  0  0  0  0  0  0  0  0
    6.3092   -3.9616    1.6240 C   0  0  0  0  0  0  0  0  0  0  0  0
    7.6914   -3.8997    1.4471 C   0  0  0  0  0  0  0  0  0  0  0  0
    8.2593   -2.8490    0.7279 C   0  0  0  0  0  0  0  0  0  0  0  0
    7.4435   -1.8567    0.1816 C   0  0  0  0  0  0  0  0  0  0  0  0
    2.1131    0.3511    0.5262 C   0  0  1  0  0  0  0  0  0  0  0  0
    1.6461   -0.7908    1.2455 O   0  0  0  0  0  0  0  0  0  0  0  0
    2.9861    1.2044    1.4644 C   0  0  0  0  0  0  0  0  0  0  0  0
    2.9541    2.5955    0.8352 C   0  0  2  0  0  0  0  0  0  0  0  0
    3.5549    3.6518    1.7533 C   0  0  0  0  0  0  0  0  0  0  0  0
    1.4653    2.7727    0.4809 C   0  0  2  0  0  0  0  0  0  0  0  0
    0.7598    3.3052    1.6072 O   0  0  0  0  0  0  0  0  0  0  0  0
    0.4158    4.6221    1.5422 C   0  0  0  0  0  0  0  0  0  0  0  0
   -0.3223    5.0278    2.7810 C   0  0  0  0  0  0  0  0  0  0  0  0
    0.6439    5.3767    0.6068 O   0  0  0  0  0  0  0  0  0  0  0  0
    0.9783    1.3466    0.0776 C   0  0  2  0  0  0  0  0  0  0  0  0
   -0.4791    0.9044    0.4168 C   0  0  1  0  0  0  0  0  0  0  0  0
   -1.0593    1.5233    1.5810 O   0  0  0  0  0  0  0  0  0  0  0  0
   -0.7616    1.0169    2.8031 C   0  0  0  0  0  0  0  0  0  0  0  0
   -1.6017    1.6588    3.8654 C   0  0  0  0  0  0  0  0  0  0  0  0
    0.0741    0.1504    3.0256 O   0  0  0  0  0  0  0  0  0  0  0  0
   -0.4650    2.4353   -1.9773 H   0  0  0  0  0  0  0  0  0  0  0  0
   -2.1522    1.9990   -2.5191 H   0  0  0  0  0  0  0  0  0  0  0  0
   -3.2469    0.8222    0.5504 H   0  0  0  0  0  0  0  0  0  0  0  0
   -5.9982    0.0707   -2.8398 H   0  0  0  0  0  0  0  0  0  0  0  0
   -5.4909    3.0938   -2.5730 H   0  0  0  0  0  0  0  0  0  0  0  0
   -4.5779    1.9531   -3.5699 H   0  0  0  0  0  0  0  0  0  0  0  0
   -6.2547    2.3309   -3.9825 H   0  0  0  0  0  0  0  0  0  0  0  0
   -7.6012    2.1676   -1.2805 H   0  0  0  0  0  0  0  0  0  0  0  0
   -7.8557    0.4151   -1.2123 H   0  0  0  0  0  0  0  0  0  0  0  0
   -8.1527    1.2905   -2.7252 H   0  0  0  0  0  0  0  0  0  0  0  0
   -1.9802   -1.4336    0.4298 H   0  0  0  0  0  0  0  0  0  0  0  0
   -6.3092   -1.6696    1.5090 H   0  0  0  0  0  0  0  0  0  0  0  0
   -5.4700   -3.1927    1.9620 H   0  0  0  0  0  0  0  0  0  0  0  0
   -5.6462   -1.8732    3.1421 H   0  0  0  0  0  0  0  0  0  0  0  0
   -0.3644   -4.4589   -0.8051 H   0  0  0  0  0  0  0  0  0  0  0  0
   -2.0596   -4.2212   -0.3538 H   0  0  0  0  0  0  0  0  0  0  0  0
   -0.8053   -3.1835    0.3258 H   0  0  0  0  0  0  0  0  0  0  0  0
   -0.6200   -4.2384   -3.2224 H   0  0  0  0  0  0  0  0  0  0  0  0
   -1.6573   -2.9984   -3.9362 H   0  0  0  0  0  0  0  0  0  0  0  0
   -2.3677   -4.2699   -2.9390 H   0  0  0  0  0  0  0  0  0  0  0  0
   -0.3447   -1.0590   -2.8272 H   0  0  0  0  0  0  0  0  0  0  0  0
    1.3359   -2.5531   -0.7290 H   0  0  0  0  0  0  0  0  0  0  0  0
    1.7156   -0.0358   -2.4499 H   0  0  0  0  0  0  0  0  0  0  0  0
    3.6119   -2.4334   -2.3882 H   0  0  0  0  0  0  0  0  0  0  0  0
    2.5849   -1.9243   -3.7337 H   0  0  0  0  0  0  0  0  0  0  0  0
    3.9039   -0.8800   -3.1995 H   0  0  0  0  0  0  0  0  0  0  0  0
    3.4873    0.6579   -1.1456 H   0  0  0  0  0  0  0  0  0  0  0  0
    4.4138   -3.0307    1.2334 H   0  0  0  0  0  0  0  0  0  0  0  0
    5.8702   -4.7794    2.1893 H   0  0  0  0  0  0  0  0  0  0  0  0
    8.3269   -4.6708    1.8751 H   0  0  0  0  0  0  0  0  0  0  0  0
    9.3373   -2.8023    0.5934 H   0  0  0  0  0  0  0  0  0  0  0  0
    7.8955   -1.0404   -0.3774 H   0  0  0  0  0  0  0  0  0  0  0  0
    1.2555   -0.5018    2.0995 H   0  0  0  0  0  0  0  0  0  0  0  0
    2.5600    1.2264    2.4755 H   0  0  0  0  0  0  0  0  0  0  0  0
    4.0048    0.8218    1.5748 H   0  0  0  0  0  0  0  0  0  0  0  0
    3.5366    2.5852   -0.0943 H   0  0  0  0  0  0  0  0  0  0  0  0
    3.0634    3.6747    2.7308 H   0  0  0  0  0  0  0  0  0  0  0  0
    3.4764    4.6465    1.3043 H   0  0  0  0  0  0  0  0  0  0  0  0
    4.6162    3.4459    1.9239 H   0  0  0  0  0  0  0  0  0  0  0  0
    1.3673    3.4332   -0.3882 H   0  0  0  0  0  0  0  0  0  0  0  0
   -1.3944    4.8820    2.6345 H   0  0  0  0  0  0  0  0  0  0  0  0
   -0.1126    6.0808    2.9952 H   0  0  0  0  0  0  0  0  0  0  0  0
    0.0224    4.4400    3.6390 H   0  0  0  0  0  0  0  0  0  0  0  0
    1.0601    1.3471   -1.0110 H   0  0  0  0  0  0  0  0  0  0  0  0
   -0.4521   -0.1718    0.5817 H   0  0  0  0  0  0  0  0  0  0  0  0
   -2.1243    2.5363    3.4735 H   0  0  0  0  0  0  0  0  0  0  0  0
   -2.3427    0.9411    4.2266 H   0  0  0  0  0  0  0  0  0  0  0  0
   -0.9575    1.9889    4.6863 H   0  0  0  0  0  0  0  0  0  0  0  0
  1  2  2  0
  2  3  1  0
  3  4  1  0
  4  5  1  0
  5  6  2  0
  5  7  1  0
  7  8  1  0
  7  9  1  0
  3 10  1  0
 10 11  1  0
 11 12  1  0
 12 13  1  0
 12 14  2  0
 10 15  1  0
 15 16  2  0
 15 17  1  0
 17 18  1  0
 17 19  1  0
 17 20  1  0
 20 21  2  0
 21 22  1  0
 22 23  1  0
 22 24  1  0
 24 25  1  0
 25 26  1  0
 26 27  2  0
 26 28  1  0
 28 29  2  0
 29 30  1  0
 30 31  2  0
 31 32  1  0
 32 33  2  0
 24 34  1  0
 34 35  1  1
 34 36  1  0
 36 37  1  0
 37 38  1  0
 37 39  1  0
 39 40  1  0
 40 41  1  0
 41 42  1  0
 41 43  2  0
 39 44  1  0
 44 45  1  0
 45 46  1  0
 46 47  1  0
 47 48  1  0
 47 49  2  0
 45  2  1  0
 33 28  1  0
 44 34  1  0
  1 50  1  0
  1 51  1  0
  3 52  1  1
  7 53  1  0
  8 54  1  0
  8 55  1  0
  8 56  1  0
  9 57  1  0
  9 58  1  0
  9 59  1  0
 10 60  1  0
 13 61  1  0
 13 62  1  0
 13 63  1  0
 18 64  1  0
 18 65  1  0
 18 66  1  0
 19 67  1  0
 19 68  1  0
 19 69  1  0
 20 70  1  0
 21 71  1  0
 22 72  1  6
 23 73  1  0
 23 74  1  0
 23 75  1  0
 24 76  1  6
 29 77  1  0
 30 78  1  0
 31 79  1  0
 32 80  1  0
 33 81  1  0
 35 82  1  0
 36 83  1  0
 36 84  1  0
 37 85  1  6
 38 86  1  0
 38 87  1  0
 38 88  1  0
 39 89  1  6
 42 90  1  0
 42 91  1  0
 42 92  1  0
 44 93  1  6
 45 94  1  1
 48 95  1  0
 48 96  1  0
 48 97  1  0
M  END
$$$$
