
     RDKit          3D

 48 51  0  0  0  0  0  0  0  0999 V2000
   -0.4672    1.2608    2.8034 C   0  0  0  0  0  0  0  0  0  0  0  0
   -0.5901   -0.1660    2.2962 C   0  0  0  0  0  0  0  0  0  0  0  0
   -0.6489   -0.2410    0.8534 N   0  0  0  0  0  0  0  0  0  0  0  0
   -1.7799   -0.2435    0.0777 C   0  0  0  0  0  0  0  0  0  0  0  0
   -3.3843   -0.0653    0.6952 S   0  0  0  0  0  0  0  0  0  0  0  0
   -4.3414   -0.1610   -0.8492 C   0  0  0  0  0  0  0  0  0  0  0  0
   -5.8219   -0.0302   -0.5804 C   0  0  0  0  0  0  0  0  0  0  0  0
   -6.4335    1.2345   -0.5643 C   0  0  0  0  0  0  0  0  0  0  0  0
   -7.7987    1.3550   -0.3005 C   0  0  0  0  0  0  0  0  0  0  0  0
   -8.5516    0.2147   -0.0482 C   0  0  0  0  0  0  0  0  0  0  0  0
   -9.8615    0.3321    0.2062 F   0  0  0  0  0  0  0  0  0  0  0  0
   -7.9657   -1.0452   -0.0529 C   0  0  0  0  0  0  0  0  0  0  0  0
   -6.6008   -1.1691   -0.3163 C   0  0  0  0  0  0  0  0  0  0  0  0
   -1.4556   -0.3889   -1.1829 N   0  0  0  0  0  0  0  0  0  0  0  0
   -0.0910   -0.4766   -1.2497 N   0  0  0  0  0  0  0  0  0  0  0  0
    0.4004   -0.3761   -0.0299 C   0  0  0  0  0  0  0  0  0  0  0  0
    1.9376   -0.3726    0.2347 C   0  0  0  0  0  0  0  0  0  0  0  0
    2.6506   -0.1644    1.4181 C   0  0  0  0  0  0  0  0  0  0  0  0
    3.9664   -0.2188    1.2301 N   0  0  0  0  0  0  0  0  0  0  0  0
    4.1206   -0.3098   -0.1231 N   0  0  0  0  0  0  0  0  0  0  0  0
    5.4095   -0.0375   -0.6760 C   0  0  0  0  0  0  0  0  0  0  0  0
    5.5822    0.3638   -2.0065 C   0  0  0  0  0  0  0  0  0  0  0  0
    6.8625    0.6404   -2.4982 C   0  0  0  0  0  0  0  0  0  0  0  0
    7.9751    0.5352   -1.6666 C   0  0  0  0  0  0  0  0  0  0  0  0
    7.8119    0.1644   -0.3352 C   0  0  0  0  0  0  0  0  0  0  0  0
    6.5361   -0.1126    0.1616 C   0  0  0  0  0  0  0  0  0  0  0  0
    2.9119   -0.6136   -0.7217 C   0  0  0  0  0  0  0  0  0  0  0  0
    2.7945   -1.1512   -2.0858 C   0  0  0  0  0  0  0  0  0  0  0  0
    2.5450   -0.1802   -2.9973 F   0  0  0  0  0  0  0  0  0  0  0  0
    3.9209   -1.7929   -2.4929 F   0  0  0  0  0  0  0  0  0  0  0  0
    1.8101   -2.0781   -2.1953 F   0  0  0  0  0  0  0  0  0  0  0  0
   -0.3976    1.2698    3.8954 H   0  0  0  0  0  0  0  0  0  0  0  0
   -1.3369    1.8600    2.5140 H   0  0  0  0  0  0  0  0  0  0  0  0
    0.4220    1.7555    2.4002 H   0  0  0  0  0  0  0  0  0  0  0  0
   -1.4868   -0.6382    2.7107 H   0  0  0  0  0  0  0  0  0  0  0  0
    0.2453   -0.7823    2.6380 H   0  0  0  0  0  0  0  0  0  0  0  0
   -4.1428   -1.1159   -1.3497 H   0  0  0  0  0  0  0  0  0  0  0  0
   -4.0217    0.6340   -1.5331 H   0  0  0  0  0  0  0  0  0  0  0  0
   -5.8477    2.1313   -0.7558 H   0  0  0  0  0  0  0  0  0  0  0  0
   -8.2779    2.3285   -0.2883 H   0  0  0  0  0  0  0  0  0  0  0  0
   -8.5736   -1.9210    0.1501 H   0  0  0  0  0  0  0  0  0  0  0  0
   -6.1462   -2.1578   -0.3133 H   0  0  0  0  0  0  0  0  0  0  0  0
    2.2995    0.0236    2.4224 H   0  0  0  0  0  0  0  0  0  0  0  0
    4.7504    0.5126   -2.6865 H   0  0  0  0  0  0  0  0  0  0  0  0
    6.9889    0.9496   -3.5334 H   0  0  0  0  0  0  0  0  0  0  0  0
    8.9672    0.7525   -2.0540 H   0  0  0  0  0  0  0  0  0  0  0  0
    8.6762    0.0914    0.3201 H   0  0  0  0  0  0  0  0  0  0  0  0
    6.4387   -0.4001    1.2074 H   0  0  0  0  0  0  0  0  0  0  0  0
  1  2  1  0
  2  3  1  0
  3  4  1  0
  4  5  1  0
  5  6  1  0
  6  7  1  0
  7  8  2  0
  8  9  1  0
  9 10  2  0
 10 11  1  0
 10 12  1  0
 12 13  2  0
  4 14  2  0
 14 15  1  0
 15 16  2  0
 16 17  1  0
 17 18  1  0
 18 19  2  0
 19 20  1  0
 20 21  1  0
 21 22  2  0
 22 23  1  0
 23 24  2  0
 24 25  1  0
 25 26  2  0
 20 27  1  0
 27 28  1  0
 28 29  1  0
 28 30  1  0
 28 31  1  0
 16  3  1  0
 27 17  2  0
 13  7  1  0
 26 21  1  0
  1 32  1  0
  1 33  1  0
  1 34  1  0
  2 35  1  0
  2 36  1  0
  6 37  1  0
  6 38  1  0
  8 39  1  0
  9 40  1  0
 12 41  1  0
 13 42  1  0
 18 43  1  0
 22 44  1  0
 23 45  1  0
 24 46  1  0
 25 47  1  0
 26 48  1  0
M  END
$$$$
