
     RDKit          3D

 33 33  0  0  0  0  0  0  0  0999 V2000
   -3.5478    2.7670   -1.5477 C   0  0  0  0  0  0  0  0  0  0  0  0
   -3.4437    1.4552   -0.8103 C   0  0  0  0  0  0  0  0  0  0  0  0
   -4.4133    0.7109   -0.7187 O   0  0  0  0  0  0  0  0  0  0  0  0
   -2.1892    1.2532   -0.2732 N   0  0  0  0  0  0  0  0  0  0  0  0
   -1.7335    0.1595    0.4983 C   0  0  0  0  0  0  0  0  0  0  0  0
   -2.5385   -0.9265    0.8469 C   0  0  0  0  0  0  0  0  0  0  0  0
   -2.0193   -1.9689    1.6168 C   0  0  0  0  0  0  0  0  0  0  0  0
   -0.6946   -1.9323    2.0423 C   0  0  0  0  0  0  0  0  0  0  0  0
    0.1226   -0.8533    1.7011 C   0  0  0  0  0  0  0  0  0  0  0  0
   -0.3882    0.1953    0.9298 C   0  0  0  0  0  0  0  0  0  0  0  0
    0.3348    1.2880    0.5040 O   0  0  0  0  0  0  0  0  0  0  0  0
    1.6430    1.4739    1.0333 C   0  0  0  0  0  0  0  0  0  0  0  0
    2.7297    0.6149    0.3798 C   0  0  0  0  0  0  0  0  0  0  0  0
    3.7981    0.3742    0.9333 O   0  0  0  0  0  0  0  0  0  0  0  0
    2.4263    0.1674   -0.8894 N   0  0  0  0  0  0  0  0  0  0  0  0
    3.2741   -0.8324   -1.5398 C   0  0  0  0  0  0  0  0  0  0  0  0
    3.0185   -2.2778   -1.1014 C   0  0  0  0  0  0  0  0  0  0  0  0
    1.7501   -2.6442   -1.4044 F   0  0  0  0  0  0  0  0  0  0  0  0
    3.8489   -3.1279   -1.7468 F   0  0  0  0  0  0  0  0  0  0  0  0
    3.1894   -2.4581    0.2242 F   0  0  0  0  0  0  0  0  0  0  0  0
   -2.5952    3.0368   -2.0127 H   0  0  0  0  0  0  0  0  0  0  0  0
   -3.8483    3.5511   -0.8479 H   0  0  0  0  0  0  0  0  0  0  0  0
   -4.2966    2.6779   -2.3401 H   0  0  0  0  0  0  0  0  0  0  0  0
   -1.4900    1.9748   -0.4124 H   0  0  0  0  0  0  0  0  0  0  0  0
   -3.5764   -0.9922    0.5362 H   0  0  0  0  0  0  0  0  0  0  0  0
   -2.6543   -2.8110    1.8822 H   0  0  0  0  0  0  0  0  0  0  0  0
   -0.2944   -2.7495    2.6383 H   0  0  0  0  0  0  0  0  0  0  0  0
    1.1501   -0.8794    2.0500 H   0  0  0  0  0  0  0  0  0  0  0  0
    1.6565    1.3378    2.1209 H   0  0  0  0  0  0  0  0  0  0  0  0
    1.9169    2.5176    0.8416 H   0  0  0  0  0  0  0  0  0  0  0  0
    1.4491    0.2176   -1.1650 H   0  0  0  0  0  0  0  0  0  0  0  0
    3.0925   -0.7422   -2.6155 H   0  0  0  0  0  0  0  0  0  0  0  0
    4.3228   -0.5772   -1.3534 H   0  0  0  0  0  0  0  0  0  0  0  0
  1  2  1  0
  2  3  2  0
  2  4  1  0
  4  5  1  0
  5  6  2  0
  6  7  1  0
  7  8  2  0
  8  9  1  0
  9 10  2  0
 10 11  1  0
 11 12  1  0
 12 13  1  0
 13 14  2  0
 13 15  1  0
 15 16  1  0
 16 17  1  0
 17 18  1  0
 17 19  1  0
 17 20  1  0
 10  5  1  0
  1 21  1  0
  1 22  1  0
  1 23  1  0
  4 24  1  0
  6 25  1  0
  7 26  1  0
  8 27  1  0
  9 28  1  0
 12 29  1  0
 12 30  1  0
 15 31  1  0
 16 32  1  0
 16 33  1  0
M  END
$$$$
