
     RDKit          3D

 39 40  0  0  0  0  0  0  0  0999 V2000
   -1.5508   -0.6372   -2.2717 C   0  0  0  0  0  0  0  0  0  0  0  0
   -2.4283   -0.1918   -1.1186 C   0  0  0  0  0  0  0  0  0  0  0  0
   -1.9245    0.2029    0.0669 C   0  0  0  0  0  0  0  0  0  0  0  0
   -0.4645    0.2892    0.3308 C   0  0  0  0  0  0  0  0  0  0  0  0
    0.3686    0.8951   -0.4584 N   0  0  0  0  0  0  0  0  0  0  0  0
    1.6944    0.8371   -0.1077 N   0  0  0  0  0  0  0  0  0  0  0  0
    2.3382   -0.3247    0.3027 C   0  0  0  0  0  0  0  0  0  0  0  0
    1.7669   -1.3839    0.5560 O   0  0  0  0  0  0  0  0  0  0  0  0
    3.8305   -0.2523    0.4266 C   0  0  0  0  0  0  0  0  0  0  0  0
    4.4768   -1.3602    1.0023 C   0  0  0  0  0  0  0  0  0  0  0  0
    5.8622   -1.3665    1.1573 C   0  0  0  0  0  0  0  0  0  0  0  0
    6.7142   -2.8650    1.9354 Br  0  0  0  0  0  0  0  0  0  0  0  0
    6.6256   -0.2773    0.7441 C   0  0  0  0  0  0  0  0  0  0  0  0
    5.9996    0.8280    0.1661 C   0  0  0  0  0  0  0  0  0  0  0  0
    4.6099    0.8388    0.0063 C   0  0  0  0  0  0  0  0  0  0  0  0
    4.0263    1.9321   -0.5795 O   0  0  0  0  0  0  0  0  0  0  0  0
   -2.8424    0.5001    1.1886 C   0  0  0  0  0  0  0  0  0  0  0  0
   -2.3817    0.7467    2.3037 O   0  0  0  0  0  0  0  0  0  0  0  0
   -4.1927    0.4807    0.9092 N   0  0  0  0  0  0  0  0  0  0  0  0
   -5.1179    0.7870    1.9845 C   0  0  0  0  0  0  0  0  0  0  0  0
   -4.7320    0.0654   -0.2993 C   0  0  0  0  0  0  0  0  0  0  0  0
   -5.9496   -0.0401   -0.4603 O   0  0  0  0  0  0  0  0  0  0  0  0
   -3.8151   -0.2372   -1.3093 N   0  0  0  0  0  0  0  0  0  0  0  0
   -4.3705   -0.6422   -2.5998 C   0  0  0  0  0  0  0  0  0  0  0  0
   -1.9112   -1.5814   -2.6944 H   0  0  0  0  0  0  0  0  0  0  0  0
   -1.5375    0.1232   -3.0595 H   0  0  0  0  0  0  0  0  0  0  0  0
   -0.5180   -0.8426   -1.9833 H   0  0  0  0  0  0  0  0  0  0  0  0
   -0.1517   -0.1480    1.2971 H   0  0  0  0  0  0  0  0  0  0  0  0
    2.2798    1.5526   -0.5397 H   0  0  0  0  0  0  0  0  0  0  0  0
    3.8928   -2.2185    1.3318 H   0  0  0  0  0  0  0  0  0  0  0  0
    7.7063   -0.2815    0.8658 H   0  0  0  0  0  0  0  0  0  0  0  0
    6.6121    1.6668   -0.1542 H   0  0  0  0  0  0  0  0  0  0  0  0
    4.7163    2.5842   -0.7994 H   0  0  0  0  0  0  0  0  0  0  0  0
   -5.4428   -0.1553    2.4365 H   0  0  0  0  0  0  0  0  0  0  0  0
   -5.9958    1.3133    1.5968 H   0  0  0  0  0  0  0  0  0  0  0  0
   -4.6503    1.4079    2.7541 H   0  0  0  0  0  0  0  0  0  0  0  0
   -3.8931   -0.0755   -3.4048 H   0  0  0  0  0  0  0  0  0  0  0  0
   -4.2038   -1.7149   -2.7377 H   0  0  0  0  0  0  0  0  0  0  0  0
   -5.4460   -0.4551   -2.6647 H   0  0  0  0  0  0  0  0  0  0  0  0
  1  2  1  0
  2  3  2  0
  3  4  1  0
  4  5  2  3
  5  6  1  0
  6  7  1  0
  7  8  2  0
  7  9  1  0
  9 10  2  0
 10 11  1  0
 11 12  1  0
 11 13  2  0
 13 14  1  0
 14 15  2  0
 15 16  1  0
  3 17  1  0
 17 18  2  0
 17 19  1  0
 19 20  1  0
 19 21  1  0
 21 22  2  0
 21 23  1  0
 23 24  1  0
 23  2  1  0
 15  9  1  0
  1 25  1  0
  1 26  1  0
  1 27  1  0
  4 28  1  0
  6 29  1  0
 10 30  1  0
 13 31  1  0
 14 32  1  0
 16 33  1  0
 20 34  1  0
 20 35  1  0
 20 36  1  0
 24 37  1  0
 24 38  1  0
 24 39  1  0
M  END
$$$$
