
     RDKit          3D

 50 53  0  0  0  0  0  0  0  0999 V2000
   -1.8123    2.2419    5.0715 C   0  0  0  0  0  0  0  0  0  0  0  0
   -1.2502    2.0602    3.6698 C   0  0  0  0  0  0  0  0  0  0  0  0
   -1.4533    0.6483    3.1390 C   0  0  0  0  0  0  0  0  0  0  0  0
   -2.0554   -0.1921    3.8109 O   0  0  0  0  0  0  0  0  0  0  0  0
   -0.9571    0.3577    1.8688 N   0  0  0  0  0  0  0  0  0  0  0  0
   -1.2137   -0.9860    1.3341 C   0  0  0  0  0  0  0  0  0  0  0  0
   -2.2314   -0.9989    0.2155 C   0  0  0  0  0  0  0  0  0  0  0  0
   -1.9059   -1.5313   -1.0390 C   0  0  0  0  0  0  0  0  0  0  0  0
   -2.8468   -1.5452   -2.0715 C   0  0  0  0  0  0  0  0  0  0  0  0
   -4.1373   -1.0472   -1.8626 C   0  0  0  0  0  0  0  0  0  0  0  0
   -5.1407   -1.0353   -2.9773 C   0  0  0  0  0  0  0  0  0  0  0  0
   -4.4665   -0.5183   -0.6104 C   0  0  0  0  0  0  0  0  0  0  0  0
   -3.5261   -0.5038    0.4220 C   0  0  0  0  0  0  0  0  0  0  0  0
   -0.3474    1.3573    0.9786 C   0  0  0  0  0  0  0  0  0  0  0  0
    0.9882    0.9134    0.4569 C   0  0  0  0  0  0  0  0  0  0  0  0
    1.1885    0.5213   -0.8147 C   0  0  0  0  0  0  0  0  0  0  0  0
    2.5097    0.0987   -1.2774 C   0  0  0  0  0  0  0  0  0  0  0  0
    2.7140   -0.3315   -2.5929 C   0  0  0  0  0  0  0  0  0  0  0  0
    3.9905   -0.7172   -2.9470 C   0  0  0  0  0  0  0  0  0  0  0  0
    5.0366   -0.6867   -2.0529 C   0  0  0  0  0  0  0  0  0  0  0  0
    4.8715   -0.2690   -0.7498 C   0  0  0  0  0  0  0  0  0  0  0  0
    3.5885    0.1265   -0.3671 C   0  0  0  0  0  0  0  0  0  0  0  0
    3.3597    0.5694    0.9401 N   0  0  0  0  0  0  0  0  0  0  0  0
    2.1413    0.9897    1.4033 C   0  0  0  0  0  0  0  0  0  0  0  0
    2.0156    1.4202    2.5451 O   0  0  0  0  0  0  0  0  0  0  0  0
    6.2048   -1.1056   -2.6090 O   0  0  0  0  0  0  0  0  0  0  0  0
    5.7769   -1.4031   -3.9547 C   0  0  0  0  0  0  0  0  0  0  0  0
    4.3715   -1.1599   -4.1750 O   0  0  0  0  0  0  0  0  0  0  0  0
   -2.8891    2.0440    5.0926 H   0  0  0  0  0  0  0  0  0  0  0  0
   -1.3306    1.5596    5.7798 H   0  0  0  0  0  0  0  0  0  0  0  0
   -1.6472    3.2669    5.4176 H   0  0  0  0  0  0  0  0  0  0  0  0
   -1.7550    2.7637    2.9993 H   0  0  0  0  0  0  0  0  0  0  0  0
   -0.1801    2.2843    3.6946 H   0  0  0  0  0  0  0  0  0  0  0  0
   -0.2581   -1.4022    0.9960 H   0  0  0  0  0  0  0  0  0  0  0  0
   -1.5652   -1.6666    2.1178 H   0  0  0  0  0  0  0  0  0  0  0  0
   -0.9163   -1.9440   -1.2218 H   0  0  0  0  0  0  0  0  0  0  0  0
   -2.5684   -1.9570   -3.0391 H   0  0  0  0  0  0  0  0  0  0  0  0
   -5.1056   -0.0753   -3.5014 H   0  0  0  0  0  0  0  0  0  0  0  0
   -4.9395   -1.8370   -3.6963 H   0  0  0  0  0  0  0  0  0  0  0  0
   -6.1530   -1.1932   -2.5908 H   0  0  0  0  0  0  0  0  0  0  0  0
   -5.4631   -0.1235   -0.4241 H   0  0  0  0  0  0  0  0  0  0  0  0
   -3.8099   -0.1079    1.3957 H   0  0  0  0  0  0  0  0  0  0  0  0
   -1.0522    1.5315    0.1568 H   0  0  0  0  0  0  0  0  0  0  0  0
   -0.2326    2.3273    1.4670 H   0  0  0  0  0  0  0  0  0  0  0  0
    0.3696    0.4948   -1.5269 H   0  0  0  0  0  0  0  0  0  0  0  0
    1.9101   -0.3657   -3.3194 H   0  0  0  0  0  0  0  0  0  0  0  0
    5.7107   -0.2525   -0.0651 H   0  0  0  0  0  0  0  0  0  0  0  0
    4.1215    0.6205    1.6036 H   0  0  0  0  0  0  0  0  0  0  0  0
    6.3532   -0.7832   -4.6508 H   0  0  0  0  0  0  0  0  0  0  0  0
    5.9876   -2.4579   -4.1648 H   0  0  0  0  0  0  0  0  0  0  0  0
  1  2  1  0
  2  3  1  0
  3  4  2  0
  3  5  1  0
  5  6  1  0
  6  7  1  0
  7  8  2  0
  8  9  1  0
  9 10  2  0
 10 11  1  0
 10 12  1  0
 12 13  2  0
  5 14  1  0
 14 15  1  0
 15 16  2  0
 16 17  1  0
 17 18  2  0
 18 19  1  0
 19 20  2  0
 20 21  1  0
 21 22  2  0
 22 23  1  0
 23 24  1  0
 24 25  2  0
 20 26  1  0
 26 27  1  0
 27 28  1  0
 13  7  1  0
 24 15  1  0
 22 17  1  0
 28 19  1  0
  1 29  1  0
  1 30  1  0
  1 31  1  0
  2 32  1  0
  2 33  1  0
  6 34  1  0
  6 35  1  0
  8 36  1  0
  9 37  1  0
 11 38  1  0
 11 39  1  0
 11 40  1  0
 12 41  1  0
 13 42  1  0
 14 43  1  0
 14 44  1  0
 16 45  1  0
 18 46  1  0
 21 47  1  0
 23 48  1  0
 27 49  1  0
 27 50  1  0
M  END
$$$$
