
     RDKit          3D

 47 51  0  0  0  0  0  0  0  0999 V2000
   -1.3362   -2.6031   -2.7020 C   0  0  0  0  0  0  0  0  0  0  0  0
   -1.7504   -1.4068   -1.9032 C   0  0  0  0  0  0  0  0  0  0  0  0
   -2.6917   -0.6246   -2.3711 N   0  0  0  0  0  0  0  0  0  0  0  0
   -3.0395    0.4623   -1.6180 C   0  0  0  0  0  0  0  0  0  0  0  0
   -4.2448    1.5708   -2.1117 S   0  0  0  0  0  0  0  0  0  0  0  0
   -4.0314    2.5239   -0.7091 C   0  0  0  0  0  0  0  0  0  0  0  0
   -3.0688    2.0195    0.1472 C   0  0  0  0  0  0  0  0  0  0  0  0
   -2.5128    0.8450   -0.4026 C   0  0  0  0  0  0  0  0  0  0  0  0
   -1.4169   -0.0986    0.1009 C   0  0  0  0  0  0  0  0  0  0  0  0
   -0.6960   -0.0465    1.1910 N   0  0  0  0  0  0  0  0  0  0  0  0
    0.1356   -1.1364    1.1615 N   0  0  0  0  0  0  0  0  0  0  0  0
   -0.1106   -1.8200    0.0626 C   0  0  0  0  0  0  0  0  0  0  0  0
    0.7100   -3.2861   -0.3505 S   0  0  0  0  0  0  0  0  0  0  0  0
    1.3781   -3.7953    1.2658 C   0  0  0  0  0  0  0  0  0  0  0  0
    2.5565   -2.9657    1.7563 C   0  0  0  0  0  0  0  0  0  0  0  0
    2.8398   -2.9132    2.9544 O   0  0  0  0  0  0  0  0  0  0  0  0
    3.3336   -2.3720    0.7891 N   0  0  0  0  0  0  0  0  0  0  0  0
    4.3570   -1.4260    1.1641 C   0  0  0  0  0  0  0  0  0  0  0  0
    5.1197   -1.0589   -0.0529 C   0  0  0  0  0  0  0  0  0  0  0  0
    6.4339   -1.2271   -0.4388 C   0  0  0  0  0  0  0  0  0  0  0  0
    6.5473   -0.6588   -1.7314 C   0  0  0  0  0  0  0  0  0  0  0  0
    5.2987   -0.1806   -2.0521 C   0  0  0  0  0  0  0  0  0  0  0  0
    4.4220   -0.4246   -1.0448 O   0  0  0  0  0  0  0  0  0  0  0  0
   -1.0900   -1.1904   -0.6749 N   0  0  0  0  0  0  0  0  0  0  0  0
   -2.7072    2.6920    1.4350 C   0  0  0  0  0  0  0  0  0  0  0  0
   -3.7748    3.7149    1.8570 C   0  0  0  0  0  0  0  0  0  0  0  0
   -4.2255    4.5881    0.6763 C   0  0  0  0  0  0  0  0  0  0  0  0
   -4.8496    3.7521   -0.4537 C   0  0  0  0  0  0  0  0  0  0  0  0
   -0.2774   -2.5447   -2.9617 H   0  0  0  0  0  0  0  0  0  0  0  0
   -1.9008   -2.6323   -3.6388 H   0  0  0  0  0  0  0  0  0  0  0  0
   -1.5600   -3.5233   -2.1562 H   0  0  0  0  0  0  0  0  0  0  0  0
    1.7183   -4.8324    1.1807 H   0  0  0  0  0  0  0  0  0  0  0  0
    0.5812   -3.7595    2.0168 H   0  0  0  0  0  0  0  0  0  0  0  0
    2.8986   -2.2194   -0.1121 H   0  0  0  0  0  0  0  0  0  0  0  0
    5.0033   -1.8747    1.9253 H   0  0  0  0  0  0  0  0  0  0  0  0
    3.8723   -0.5454    1.5988 H   0  0  0  0  0  0  0  0  0  0  0  0
    7.2104   -1.7055    0.1438 H   0  0  0  0  0  0  0  0  0  0  0  0
    7.4310   -0.6045   -2.3511 H   0  0  0  0  0  0  0  0  0  0  0  0
    4.8872    0.3280   -2.9149 H   0  0  0  0  0  0  0  0  0  0  0  0
   -1.7447    3.2035    1.3047 H   0  0  0  0  0  0  0  0  0  0  0  0
   -2.5811    1.9517    2.2338 H   0  0  0  0  0  0  0  0  0  0  0  0
   -4.6460    3.1884    2.2665 H   0  0  0  0  0  0  0  0  0  0  0  0
   -3.3772    4.3469    2.6595 H   0  0  0  0  0  0  0  0  0  0  0  0
   -4.9494    5.3358    1.0192 H   0  0  0  0  0  0  0  0  0  0  0  0
   -3.3571    5.1377    0.2893 H   0  0  0  0  0  0  0  0  0  0  0  0
   -5.8646    3.4499   -0.1645 H   0  0  0  0  0  0  0  0  0  0  0  0
   -4.9300    4.3662   -1.3586 H   0  0  0  0  0  0  0  0  0  0  0  0
  1  2  1  0
  2  3  2  0
  3  4  1  0
  4  5  1  0
  5  6  1  0
  6  7  2  0
  7  8  1  0
  8  9  1  0
  9 10  2  0
 10 11  1  0
 11 12  2  0
 12 13  1  0
 13 14  1  0
 14 15  1  0
 15 16  2  0
 15 17  1  0
 17 18  1  0
 18 19  1  0
 19 20  2  0
 20 21  1  0
 21 22  2  0
 22 23  1  0
 12 24  1  0
  7 25  1  0
 25 26  1  0
 26 27  1  0
 27 28  1  0
 24  2  1  0
  8  4  2  0
 24  9  1  0
 28  6  1  0
 23 19  1  0
  1 29  1  0
  1 30  1  0
  1 31  1  0
 14 32  1  0
 14 33  1  0
 17 34  1  0
 18 35  1  0
 18 36  1  0
 20 37  1  0
 21 38  1  0
 22 39  1  0
 25 40  1  0
 25 41  1  0
 26 42  1  0
 26 43  1  0
 27 44  1  0
 27 45  1  0
 28 46  1  0
 28 47  1  0
M  END
$$$$
