
     RDKit          3D

 53 55  0  0  0  0  0  0  0  0999 V2000
    9.7660   -1.3749    0.9303 C   0  0  0  0  0  0  0  0  0  0  0  0
    8.7525   -2.1144    1.6000 O   0  0  0  0  0  0  0  0  0  0  0  0
    7.5407   -1.5002    1.7574 C   0  0  0  0  0  0  0  0  0  0  0  0
    6.5766   -2.2698    2.4121 C   0  0  0  0  0  0  0  0  0  0  0  0
    5.2936   -1.7658    2.6398 C   0  0  0  0  0  0  0  0  0  0  0  0
    4.9578   -0.4737    2.2204 C   0  0  0  0  0  0  0  0  0  0  0  0
    3.5722    0.0686    2.4365 C   0  0  0  0  0  0  0  0  0  0  0  0
    2.7548   -0.1282    1.2701 N   0  0  0  0  0  0  0  0  0  0  0  0
    1.5101    0.4406    1.1583 C   0  0  0  0  0  0  0  0  0  0  0  0
    1.0065    1.2329    1.9426 O   0  0  0  0  0  0  0  0  0  0  0  0
    0.7320   -0.0111   -0.0991 C   0  0  0  0  0  0  0  0  0  0  0  0
    1.2309   -0.8154   -0.8726 O   0  0  0  0  0  0  0  0  0  0  0  0
   -0.5017    0.5826   -0.2271 N   0  0  0  0  0  0  0  0  0  0  0  0
   -1.2737    0.4836   -1.4554 C   0  0  0  0  0  0  0  0  0  0  0  0
   -2.7425    0.8915   -1.2523 C   0  0  0  0  0  0  0  0  0  0  0  0
   -2.7825    2.2533   -0.7684 O   0  0  0  0  0  0  0  0  0  0  0  0
   -3.9699    2.8280   -1.3217 C   0  0  0  0  0  0  0  0  0  0  0  0
   -4.0514    2.2294   -2.7077 C   0  0  0  0  0  0  0  0  0  0  0  0
   -3.4804    0.8930   -2.5212 N   0  0  0  0  0  0  0  0  0  0  0  0
   -4.3761   -0.4677   -2.9172 S   0  0  0  0  0  6  0  0  0  0  0  0
   -4.9297   -0.2601   -4.2384 O   0  0  0  0  0  0  0  0  0  0  0  0
   -3.5689   -1.6301   -2.6154 O   0  0  0  0  0  0  0  0  0  0  0  0
   -5.7353   -0.4458   -1.7638 C   0  0  0  0  0  0  0  0  0  0  0  0
   -5.6375   -1.1522   -0.5605 C   0  0  0  0  0  0  0  0  0  0  0  0
   -6.7120   -1.1484    0.3290 C   0  0  0  0  0  0  0  0  0  0  0  0
   -7.8833   -0.4605    0.0076 C   0  0  0  0  0  0  0  0  0  0  0  0
   -7.9905    0.2148   -1.2091 C   0  0  0  0  0  0  0  0  0  0  0  0
   -6.9200    0.2164   -2.1033 C   0  0  0  0  0  0  0  0  0  0  0  0
    5.9241    0.2918    1.5543 C   0  0  0  0  0  0  0  0  0  0  0  0
    7.2086   -0.2160    1.3274 C   0  0  0  0  0  0  0  0  0  0  0  0
    9.4696   -1.1361   -0.0966 H   0  0  0  0  0  0  0  0  0  0  0  0
   10.6607   -2.0034    0.8809 H   0  0  0  0  0  0  0  0  0  0  0  0
   10.0256   -0.4688    1.4881 H   0  0  0  0  0  0  0  0  0  0  0  0
    6.8272   -3.2740    2.7460 H   0  0  0  0  0  0  0  0  0  0  0  0
    4.5615   -2.3913    3.1455 H   0  0  0  0  0  0  0  0  0  0  0  0
    3.6081    1.1375    2.6771 H   0  0  0  0  0  0  0  0  0  0  0  0
    3.0846   -0.4288    3.2830 H   0  0  0  0  0  0  0  0  0  0  0  0
    2.9987   -0.8414    0.5869 H   0  0  0  0  0  0  0  0  0  0  0  0
   -0.6812    1.3687    0.3960 H   0  0  0  0  0  0  0  0  0  0  0  0
   -0.7891    1.1528   -2.1770 H   0  0  0  0  0  0  0  0  0  0  0  0
   -1.1943   -0.5367   -1.8453 H   0  0  0  0  0  0  0  0  0  0  0  0
   -3.2137    0.2704   -0.4857 H   0  0  0  0  0  0  0  0  0  0  0  0
   -3.8936    3.9179   -1.3324 H   0  0  0  0  0  0  0  0  0  0  0  0
   -4.8221    2.5337   -0.6990 H   0  0  0  0  0  0  0  0  0  0  0  0
   -5.0673    2.2463   -3.1053 H   0  0  0  0  0  0  0  0  0  0  0  0
   -3.4050    2.7755   -3.4035 H   0  0  0  0  0  0  0  0  0  0  0  0
   -4.7393   -1.7136   -0.3120 H   0  0  0  0  0  0  0  0  0  0  0  0
   -6.6428   -1.6924    1.2684 H   0  0  0  0  0  0  0  0  0  0  0  0
   -8.7222   -0.4669    0.6998 H   0  0  0  0  0  0  0  0  0  0  0  0
   -8.9150    0.7274   -1.4648 H   0  0  0  0  0  0  0  0  0  0  0  0
   -7.0228    0.7208   -3.0618 H   0  0  0  0  0  0  0  0  0  0  0  0
    5.6796    1.2930    1.2029 H   0  0  0  0  0  0  0  0  0  0  0  0
    7.9218    0.4170    0.8105 H   0  0  0  0  0  0  0  0  0  0  0  0
  1  2  1  0
  2  3  1  0
  3  4  2  0
  4  5  1  0
  5  6  2  0
  6  7  1  0
  7  8  1  0
  8  9  1  0
  9 10  2  0
  9 11  1  0
 11 12  2  0
 11 13  1  0
 13 14  1  0
 14 15  1  0
 15 16  1  0
 16 17  1  0
 17 18  1  0
 18 19  1  0
 19 20  1  0
 20 21  2  0
 20 22  2  0
 20 23  1  0
 23 24  2  0
 24 25  1  0
 25 26  2  0
 26 27  1  0
 27 28  2  0
  6 29  1  0
 29 30  2  0
 30  3  1  0
 19 15  1  0
 28 23  1  0
  1 31  1  0
  1 32  1  0
  1 33  1  0
  4 34  1  0
  5 35  1  0
  7 36  1  0
  7 37  1  0
  8 38  1  0
 13 39  1  0
 14 40  1  0
 14 41  1  0
 15 42  1  0
 17 43  1  0
 17 44  1  0
 18 45  1  0
 18 46  1  0
 24 47  1  0
 25 48  1  0
 26 49  1  0
 27 50  1  0
 28 51  1  0
 29 52  1  0
 30 53  1  0
M  END
$$$$
