
     RDKit          3D

 44 46  0  0  0  0  0  0  0  0999 V2000
   -6.8588    0.8769    0.6987 C   0  0  0  0  0  0  0  0  0  0  0  0
   -5.4144    0.6545    0.3581 C   0  0  0  0  0  0  0  0  0  0  0  0
   -4.7805    1.4455   -0.6078 C   0  0  0  0  0  0  0  0  0  0  0  0
   -3.4384    1.2287   -0.9522 C   0  0  0  0  0  0  0  0  0  0  0  0
   -2.7938    2.1104   -1.9833 C   0  0  0  0  0  0  0  0  0  0  0  0
   -2.7528    0.1630   -0.3494 C   0  0  0  0  0  0  0  0  0  0  0  0
   -1.4445   -0.0782   -0.6877 O   0  0  0  0  0  0  0  0  0  0  0  0
   -1.3773   -0.9943   -1.7875 C   0  0  0  0  0  0  0  0  0  0  0  0
    0.0732   -1.3873   -2.0817 C   0  0  0  0  0  0  0  0  0  0  0  0
    0.3308   -2.1418   -3.0152 O   0  0  0  0  0  0  0  0  0  0  0  0
    0.9638   -0.8127   -1.2046 N   0  0  0  0  0  0  0  0  0  0  0  0
    2.3240   -0.9528   -1.1712 C   0  0  0  0  0  0  0  0  0  0  0  0
    3.0435   -0.3313   -0.2664 N   0  0  0  0  0  0  0  0  0  0  0  0
    4.3906   -0.6372   -0.4444 C   0  0  0  0  0  0  0  0  0  0  0  0
    5.4358   -0.0883    0.4176 C   0  0  0  0  0  0  0  0  0  0  0  0
    5.1092    0.7742    1.4608 C   0  0  0  0  0  0  0  0  0  0  0  0
    6.1311    1.2785    2.2617 C   0  0  0  0  0  0  0  0  0  0  0  0
    7.4445    0.9085    2.0011 C   0  0  0  0  0  0  0  0  0  0  0  0
    7.6839    0.0461    0.9444 C   0  0  0  0  0  0  0  0  0  0  0  0
    6.7151   -0.4587    0.1492 N   0  0  0  0  0  0  0  0  0  0  0  0
    4.6488   -1.4958   -1.4966 C   0  0  0  0  0  0  0  0  0  0  0  0
    3.1838   -1.9254   -2.2711 S   0  0  0  0  0  0  0  0  0  0  0  0
   -3.3550   -0.6189    0.6491 C   0  0  0  0  0  0  0  0  0  0  0  0
   -2.6136   -1.7286    1.3387 C   0  0  0  0  0  0  0  0  0  0  0  0
   -4.6971   -0.3779    0.9748 C   0  0  0  0  0  0  0  0  0  0  0  0
   -7.0315    0.7250    1.7697 H   0  0  0  0  0  0  0  0  0  0  0  0
   -7.1674    1.9009    0.4621 H   0  0  0  0  0  0  0  0  0  0  0  0
   -7.4875    0.1820    0.1332 H   0  0  0  0  0  0  0  0  0  0  0  0
   -5.3361    2.2467   -1.0924 H   0  0  0  0  0  0  0  0  0  0  0  0
   -2.9229    1.6799   -2.9808 H   0  0  0  0  0  0  0  0  0  0  0  0
   -3.2403    3.1106   -1.9746 H   0  0  0  0  0  0  0  0  0  0  0  0
   -1.7252    2.2399   -1.7842 H   0  0  0  0  0  0  0  0  0  0  0  0
   -1.7787   -0.5275   -2.6939 H   0  0  0  0  0  0  0  0  0  0  0  0
   -1.9250   -1.9174   -1.5638 H   0  0  0  0  0  0  0  0  0  0  0  0
    0.5871   -0.2010   -0.4890 H   0  0  0  0  0  0  0  0  0  0  0  0
    4.0769    1.0522    1.6499 H   0  0  0  0  0  0  0  0  0  0  0  0
    5.9011    1.9543    3.0803 H   0  0  0  0  0  0  0  0  0  0  0  0
    8.2627    1.2836    2.6057 H   0  0  0  0  0  0  0  0  0  0  0  0
    8.6939   -0.2713    0.7005 H   0  0  0  0  0  0  0  0  0  0  0  0
    5.6016   -1.8788   -1.8343 H   0  0  0  0  0  0  0  0  0  0  0  0
   -3.0743   -1.9714    2.3022 H   0  0  0  0  0  0  0  0  0  0  0  0
   -2.6189   -2.6289    0.7172 H   0  0  0  0  0  0  0  0  0  0  0  0
   -1.5781   -1.4392    1.5454 H   0  0  0  0  0  0  0  0  0  0  0  0
   -5.1893   -0.9969    1.7233 H   0  0  0  0  0  0  0  0  0  0  0  0
  1  2  1  0
  2  3  2  0
  3  4  1  0
  4  5  1  0
  4  6  2  0
  6  7  1  0
  7  8  1  0
  8  9  1  0
  9 10  2  0
  9 11  1  0
 11 12  1  0
 12 13  2  0
 13 14  1  0
 14 15  1  0
 15 16  2  0
 16 17  1  0
 17 18  2  0
 18 19  1  0
 19 20  2  0
 14 21  2  0
 21 22  1  0
  6 23  1  0
 23 24  1  0
 23 25  2  0
 25  2  1  0
 22 12  1  0
 20 15  1  0
  1 26  1  0
  1 27  1  0
  1 28  1  0
  3 29  1  0
  5 30  1  0
  5 31  1  0
  5 32  1  0
  8 33  1  0
  8 34  1  0
 11 35  1  0
 16 36  1  0
 17 37  1  0
 18 38  1  0
 19 39  1  0
 21 40  1  0
 24 41  1  0
 24 42  1  0
 24 43  1  0
 25 44  1  0
M  END
$$$$
