
     RDKit          3D

 46 48  0  0  0  0  0  0  0  0999 V2000
   -7.6974   -2.8279    1.0546 C   0  0  0  0  0  0  0  0  0  0  0  0
   -7.2871   -1.7224    0.2596 O   0  0  0  0  0  0  0  0  0  0  0  0
   -6.0407   -1.2129    0.5065 C   0  0  0  0  0  0  0  0  0  0  0  0
   -5.1664   -1.6403    1.5029 C   0  0  0  0  0  0  0  0  0  0  0  0
   -3.9189   -1.0276    1.6473 C   0  0  0  0  0  0  0  0  0  0  0  0
   -3.5276    0.0097    0.7903 C   0  0  0  0  0  0  0  0  0  0  0  0
   -2.2227    0.6605    0.9797 C   0  0  0  0  0  0  0  0  0  0  0  0
   -1.0148    0.1019    0.8171 C   0  0  0  0  0  0  0  0  0  0  0  0
    0.4551    1.0104    1.0512 S   0  0  0  0  0  0  0  0  0  0  0  0
    1.4339   -0.3558    0.6392 C   0  0  0  0  0  0  0  0  0  0  0  0
    2.7691   -0.4025    0.5734 C   0  0  0  0  0  0  0  0  0  0  0  0
    3.6799    0.7219    0.9170 C   0  0  0  0  0  0  0  0  0  0  0  0
    3.4601    1.4767    1.8561 O   0  0  0  0  0  0  0  0  0  0  0  0
    4.9382    0.8478    0.1300 C   0  0  0  0  0  0  0  0  0  0  0  0
    5.0591    0.3540   -1.1748 C   0  0  0  0  0  0  0  0  0  0  0  0
    6.2627    0.5016   -1.8716 C   0  0  0  0  0  0  0  0  0  0  0  0
    7.3505    1.1581   -1.2833 C   0  0  0  0  0  0  0  0  0  0  0  0
    8.6502    1.2884   -2.0220 C   0  0  0  0  0  0  0  0  0  0  0  0
    7.2256    1.6508    0.0206 C   0  0  0  0  0  0  0  0  0  0  0  0
    6.0245    1.5058    0.7191 C   0  0  0  0  0  0  0  0  0  0  0  0
    0.6630   -1.4392    0.3330 N   0  0  0  0  0  0  0  0  0  0  0  0
   -0.7009   -1.2971    0.4075 C   0  0  0  0  0  0  0  0  0  0  0  0
   -1.4848   -2.2001    0.1700 O   0  0  0  0  0  0  0  0  0  0  0  0
   -4.4128    0.4528   -0.2103 C   0  0  0  0  0  0  0  0  0  0  0  0
   -3.9699    1.4889   -0.9956 O   0  0  0  0  0  0  0  0  0  0  0  0
   -4.8133    1.9073   -2.0606 C   0  0  0  0  0  0  0  0  0  0  0  0
   -5.6614   -0.1660   -0.3420 C   0  0  0  0  0  0  0  0  0  0  0  0
   -7.7758   -2.5466    2.1099 H   0  0  0  0  0  0  0  0  0  0  0  0
   -7.0260   -3.6827    0.9209 H   0  0  0  0  0  0  0  0  0  0  0  0
   -8.6930   -3.1311    0.7166 H   0  0  0  0  0  0  0  0  0  0  0  0
   -5.4185   -2.4463    2.1834 H   0  0  0  0  0  0  0  0  0  0  0  0
   -3.2486   -1.3761    2.4298 H   0  0  0  0  0  0  0  0  0  0  0  0
   -2.2990    1.7142    1.2415 H   0  0  0  0  0  0  0  0  0  0  0  0
    3.2656   -1.3146    0.2604 H   0  0  0  0  0  0  0  0  0  0  0  0
    4.2274   -0.1302   -1.6784 H   0  0  0  0  0  0  0  0  0  0  0  0
    6.3437    0.1095   -2.8837 H   0  0  0  0  0  0  0  0  0  0  0  0
    9.2858    0.4219   -1.8156 H   0  0  0  0  0  0  0  0  0  0  0  0
    9.1813    2.1974   -1.7208 H   0  0  0  0  0  0  0  0  0  0  0  0
    8.4809    1.3544   -3.1019 H   0  0  0  0  0  0  0  0  0  0  0  0
    8.0605    2.1570    0.5009 H   0  0  0  0  0  0  0  0  0  0  0  0
    5.9409    1.9069    1.7278 H   0  0  0  0  0  0  0  0  0  0  0  0
    1.0367   -2.3392    0.0698 H   0  0  0  0  0  0  0  0  0  0  0  0
   -4.9918    1.0916   -2.7690 H   0  0  0  0  0  0  0  0  0  0  0  0
   -5.7547    2.3169   -1.6800 H   0  0  0  0  0  0  0  0  0  0  0  0
   -4.2975    2.7078   -2.5997 H   0  0  0  0  0  0  0  0  0  0  0  0
   -6.3717    0.1443   -1.1010 H   0  0  0  0  0  0  0  0  0  0  0  0
  1  2  1  0
  2  3  1  0
  3  4  2  0
  4  5  1  0
  5  6  2  0
  6  7  1  0
  7  8  2  3
  8  9  1  0
  9 10  1  0
 10 11  2  3
 11 12  1  0
 12 13  2  0
 12 14  1  0
 14 15  2  0
 15 16  1  0
 16 17  2  0
 17 18  1  0
 17 19  1  0
 19 20  2  0
 10 21  1  0
 21 22  1  0
 22 23  2  0
  6 24  1  0
 24 25  1  0
 25 26  1  0
 24 27  2  0
 27  3  1  0
 22  8  1  0
 20 14  1  0
  1 28  1  0
  1 29  1  0
  1 30  1  0
  4 31  1  0
  5 32  1  0
  7 33  1  0
 11 34  1  0
 15 35  1  0
 16 36  1  0
 18 37  1  0
 18 38  1  0
 18 39  1  0
 19 40  1  0
 20 41  1  0
 21 42  1  0
 26 43  1  0
 26 44  1  0
 26 45  1  0
 27 46  1  0
M  END
$$$$
