
     RDKit          3D

 48 51  0  0  0  0  0  0  0  0999 V2000
    0.5705    1.0530    3.0225 C   0  0  0  0  0  0  0  0  0  0  0  0
    1.4249    0.4711    1.9438 C   0  0  0  0  0  0  0  0  0  0  0  0
    1.1257   -0.5123    1.0784 C   0  0  0  0  0  0  0  0  0  0  0  0
    0.0704   -1.3643    0.9015 N   0  0  0  0  0  0  0  0  0  0  0  0
   -0.9730   -1.6537    1.7522 C   0  0  0  0  0  0  0  0  0  0  0  0
   -1.0826   -1.2315    2.9019 O   0  0  0  0  0  0  0  0  0  0  0  0
   -1.9553   -2.6945    1.2294 C   0  0  0  0  0  0  0  0  0  0  0  0
   -2.2837   -2.5879   -0.5595 S   0  0  0  0  0  0  0  0  0  0  0  0
   -3.3458   -1.1425   -0.5805 C   0  0  0  0  0  0  0  0  0  0  0  0
   -2.8750   -0.0989    0.1297 N   0  0  0  0  0  0  0  0  0  0  0  0
   -3.6325    0.9986    0.1345 C   0  0  0  0  0  0  0  0  0  0  0  0
   -4.8042    1.1458   -0.4954 N   0  0  0  0  0  0  0  0  0  0  0  0
   -5.2512    0.1011   -1.2047 C   0  0  0  0  0  0  0  0  0  0  0  0
   -6.4685    0.2257   -1.8690 C   0  0  0  0  0  0  0  0  0  0  0  0
   -7.0114   -0.8171   -2.6263 C   0  0  0  0  0  0  0  0  0  0  0  0
   -6.3236   -2.0171   -2.7385 C   0  0  0  0  0  0  0  0  0  0  0  0
   -5.1010   -2.1666   -2.0872 C   0  0  0  0  0  0  0  0  0  0  0  0
   -4.5520   -1.1097   -1.3050 C   0  0  0  0  0  0  0  0  0  0  0  0
    2.2823   -0.5777    0.1283 C   0  0  0  0  0  0  0  0  0  0  0  0
    2.2937   -1.3407   -0.8275 O   0  0  0  0  0  0  0  0  0  0  0  0
    3.1990    0.3895    0.5455 N   0  0  0  0  0  0  0  0  0  0  0  0
    4.2151    0.9820   -0.2482 C   0  0  0  0  0  0  0  0  0  0  0  0
    4.7728    0.2943   -1.3343 C   0  0  0  0  0  0  0  0  0  0  0  0
    5.7866    0.8703   -2.1089 C   0  0  0  0  0  0  0  0  0  0  0  0
    6.2568    2.1454   -1.8115 C   0  0  0  0  0  0  0  0  0  0  0  0
    5.7045    2.8519   -0.7481 C   0  0  0  0  0  0  0  0  0  0  0  0
    4.6904    2.2745    0.0248 C   0  0  0  0  0  0  0  0  0  0  0  0
    2.7078    1.0178    1.7274 N   0  0  0  0  0  0  0  0  0  0  0  0
    3.6539    0.9424    2.8585 C   0  0  0  0  0  0  0  0  0  0  0  0
   -0.4793    1.1035    2.7213 H   0  0  0  0  0  0  0  0  0  0  0  0
    0.8687    2.0863    3.2365 H   0  0  0  0  0  0  0  0  0  0  0  0
    0.6680    0.4783    3.9476 H   0  0  0  0  0  0  0  0  0  0  0  0
    0.1086   -1.8944    0.0321 H   0  0  0  0  0  0  0  0  0  0  0  0
   -2.9014   -2.6081    1.7778 H   0  0  0  0  0  0  0  0  0  0  0  0
   -1.5311   -3.6826    1.4405 H   0  0  0  0  0  0  0  0  0  0  0  0
   -3.2655    1.8498    0.7003 H   0  0  0  0  0  0  0  0  0  0  0  0
   -7.0133    1.1635   -1.7880 H   0  0  0  0  0  0  0  0  0  0  0  0
   -7.9685   -0.6833   -3.1254 H   0  0  0  0  0  0  0  0  0  0  0  0
   -6.7364   -2.8346   -3.3251 H   0  0  0  0  0  0  0  0  0  0  0  0
   -4.5740   -3.1142   -2.1879 H   0  0  0  0  0  0  0  0  0  0  0  0
    4.4468   -0.7102   -1.5906 H   0  0  0  0  0  0  0  0  0  0  0  0
    6.2145    0.3112   -2.9379 H   0  0  0  0  0  0  0  0  0  0  0  0
    7.0492    2.5899   -2.4094 H   0  0  0  0  0  0  0  0  0  0  0  0
    6.0564    3.8545   -0.5194 H   0  0  0  0  0  0  0  0  0  0  0  0
    4.2581    2.8659    0.8274 H   0  0  0  0  0  0  0  0  0  0  0  0
    3.8031   -0.0979    3.1711 H   0  0  0  0  0  0  0  0  0  0  0  0
    4.6314    1.3644    2.6066 H   0  0  0  0  0  0  0  0  0  0  0  0
    3.2700    1.5092    3.7131 H   0  0  0  0  0  0  0  0  0  0  0  0
  1  2  1  0
  2  3  2  0
  3  4  1  0
  4  5  1  0
  5  6  2  0
  5  7  1  0
  7  8  1  0
  8  9  1  0
  9 10  2  0
 10 11  1  0
 11 12  2  0
 12 13  1  0
 13 14  2  0
 14 15  1  0
 15 16  2  0
 16 17  1  0
 17 18  2  0
  3 19  1  0
 19 20  2  0
 19 21  1  0
 21 22  1  0
 22 23  2  0
 23 24  1  0
 24 25  2  0
 25 26  1  0
 26 27  2  0
 21 28  1  0
 28 29  1  0
 28  2  1  0
 18  9  1  0
 27 22  1  0
 18 13  1  0
  1 30  1  0
  1 31  1  0
  1 32  1  0
  4 33  1  0
  7 34  1  0
  7 35  1  0
 11 36  1  0
 14 37  1  0
 15 38  1  0
 16 39  1  0
 17 40  1  0
 23 41  1  0
 24 42  1  0
 25 43  1  0
 26 44  1  0
 27 45  1  0
 29 46  1  0
 29 47  1  0
 29 48  1  0
M  END
$$$$
