
     RDKit          3D

 43 46  0  0  0  0  0  0  0  0999 V2000
    5.9254    1.8795    1.6230 C   0  0  0  0  0  0  0  0  0  0  0  0
    4.6095    1.3419    1.1401 C   0  0  0  0  0  0  0  0  0  0  0  0
    4.2334    1.4841   -0.1988 C   0  0  0  0  0  0  0  0  0  0  0  0
    3.0217    0.9581   -0.6590 C   0  0  0  0  0  0  0  0  0  0  0  0
    2.1776    0.2717    0.2141 C   0  0  0  0  0  0  0  0  0  0  0  0
    0.8123   -0.3218   -0.2873 C   0  0  0  0  0  0  0  0  0  0  0  0
   -0.1409   -0.9673    0.4915 C   0  0  0  0  0  0  0  0  0  0  0  0
   -1.2335   -1.3063   -0.3122 N   0  0  0  0  0  4  0  0  0  0  0  0
   -2.4558   -1.9814    0.1134 C   0  0  0  0  0  0  0  0  0  0  0  0
   -3.2318   -1.0691    1.0304 C   0  0  0  0  0  0  0  0  0  0  0  0
   -3.4972   -1.4432    2.3553 C   0  0  0  0  0  0  0  0  0  0  0  0
   -4.2129   -0.5920    3.2038 C   0  0  0  0  0  0  0  0  0  0  0  0
   -4.6748    0.6439    2.7428 C   0  0  0  0  0  0  0  0  0  0  0  0
   -5.5427    1.6444    3.8482 Cl  0  0  0  0  0  0  0  0  0  0  0  0
   -4.4218    1.0257    1.4232 C   0  0  0  0  0  0  0  0  0  0  0  0
   -4.9507    2.5346    0.7716 Cl  0  0  0  0  0  0  0  0  0  0  0  0
   -3.7080    0.1711    0.5732 C   0  0  0  0  0  0  0  0  0  0  0  0
   -0.9477   -0.9113   -1.5476 C   0  0  0  0  0  0  0  0  0  0  0  0
    0.2536   -0.3432   -1.5533 N   0  0  0  0  0  0  0  0  0  0  0  0
    0.6370    0.1088   -2.8833 C   0  0  0  0  0  0  0  0  0  0  0  0
   -0.4199   -0.5534   -3.8103 C   0  0  0  0  0  0  0  0  0  0  0  0
   -1.5903   -0.9336   -2.8817 C   0  0  0  0  0  0  0  0  0  0  0  0
    2.5541    0.1179    1.5534 C   0  0  0  0  0  0  0  0  0  0  0  0
    3.7662    0.6447    2.0096 C   0  0  0  0  0  0  0  0  0  0  0  0
    6.7062    1.1228    1.4995 H   0  0  0  0  0  0  0  0  0  0  0  0
    6.2096    2.7768    1.0633 H   0  0  0  0  0  0  0  0  0  0  0  0
    5.8682    2.1607    2.6797 H   0  0  0  0  0  0  0  0  0  0  0  0
    4.8849    2.0130   -0.8931 H   0  0  0  0  0  0  0  0  0  0  0  0
    2.7724    1.1149   -1.7000 H   0  0  0  0  0  0  0  0  0  0  0  0
   -0.1933   -1.2142    1.5385 H   0  0  0  0  0  0  0  0  0  0  0  0
   -2.1722   -2.9141    0.6136 H   0  0  0  0  0  0  0  0  0  0  0  0
   -3.0646   -2.2406   -0.7591 H   0  0  0  0  0  0  0  0  0  0  0  0
   -3.1560   -2.4007    2.7479 H   0  0  0  0  0  0  0  0  0  0  0  0
   -4.4112   -0.8992    4.2297 H   0  0  0  0  0  0  0  0  0  0  0  0
   -3.5230    0.4844   -0.4519 H   0  0  0  0  0  0  0  0  0  0  0  0
    1.6447   -0.2275   -3.1368 H   0  0  0  0  0  0  0  0  0  0  0  0
    0.5662    1.1997   -2.9196 H   0  0  0  0  0  0  0  0  0  0  0  0
   -0.7247    0.0952   -4.6360 H   0  0  0  0  0  0  0  0  0  0  0  0
    0.0073   -1.4669   -4.2410 H   0  0  0  0  0  0  0  0  0  0  0  0
   -2.3760   -0.1755   -2.8635 H   0  0  0  0  0  0  0  0  0  0  0  0
   -1.9867   -1.9319   -3.0699 H   0  0  0  0  0  0  0  0  0  0  0  0
    1.9346   -0.4104    2.2718 H   0  0  0  0  0  0  0  0  0  0  0  0
    4.0505    0.5097    3.0523 H   0  0  0  0  0  0  0  0  0  0  0  0
  1  2  1  0
  2  3  2  0
  3  4  1  0
  4  5  2  0
  5  6  1  0
  6  7  2  0
  7  8  1  0
  8  9  1  0
  9 10  1  0
 10 11  2  0
 11 12  1  0
 12 13  2  0
 13 14  1  0
 13 15  1  0
 15 16  1  0
 15 17  2  0
  8 18  2  0
 18 19  1  0
 19 20  1  0
 20 21  1  0
 21 22  1  0
  5 23  1  0
 23 24  2  0
 24  2  1  0
 19  6  1  0
 17 10  1  0
 22 18  1  0
  1 25  1  0
  1 26  1  0
  1 27  1  0
  3 28  1  0
  4 29  1  0
  7 30  1  0
  9 31  1  0
  9 32  1  0
 11 33  1  0
 12 34  1  0
 17 35  1  0
 20 36  1  0
 20 37  1  0
 21 38  1  0
 21 39  1  0
 22 40  1  0
 22 41  1  0
 23 42  1  0
 24 43  1  0
M  CHG  1   8   1
M  END
$$$$
