
     RDKit          3D

 29 29  0  0  0  0  0  0  0  0999 V2000
   -4.2212   -4.3412    0.1577 C   0  0  0  0  0  0  0  0  0  0  0  0
   -3.8169   -3.2419   -0.1095 C   0  0  0  0  0  0  0  0  0  0  0  0
   -3.3229   -1.8970   -0.4350 C   0  0  0  0  0  0  0  0  0  0  0  0
   -2.1936   -1.5714    0.4331 N   0  0  0  0  0  0  0  0  0  0  0  0
   -1.7140   -0.1994    0.2449 C   0  0  0  0  0  0  0  0  0  0  0  0
   -0.8656   -0.0497   -1.0218 C   0  0  0  0  0  0  0  0  0  0  0  0
   -0.3681    1.3843   -1.2094 C   0  0  0  0  0  0  0  0  0  0  0  0
    0.3510    1.8596   -0.0743 O   0  0  0  0  0  0  0  0  0  0  0  0
    1.6883    1.5976    0.0492 C   0  0  0  0  0  0  0  0  0  0  0  0
    2.4434    0.8412   -0.8521 C   0  0  0  0  0  0  0  0  0  0  0  0
    3.8092    0.6302   -0.6300 C   0  0  0  0  0  0  0  0  0  0  0  0
    4.4265    1.1732    0.4940 C   0  0  0  0  0  0  0  0  0  0  0  0
    6.1055    0.9086    0.7572 Cl  0  0  0  0  0  0  0  0  0  0  0  0
    3.6933    1.9258    1.4038 C   0  0  0  0  0  0  0  0  0  0  0  0
    2.3301    2.1346    1.1806 C   0  0  0  0  0  0  0  0  0  0  0  0
    1.4595    3.0755    2.3442 Cl  0  0  0  0  0  0  0  0  0  0  0  0
   -4.5720   -5.3184    0.3965 H   0  0  0  0  0  0  0  0  0  0  0  0
   -3.0236   -1.8756   -1.4878 H   0  0  0  0  0  0  0  0  0  0  0  0
   -4.1349   -1.1733   -0.2991 H   0  0  0  0  0  0  0  0  0  0  0  0
   -2.5033   -1.6787    1.3996 H   0  0  0  0  0  0  0  0  0  0  0  0
   -2.5499    0.5105    0.2455 H   0  0  0  0  0  0  0  0  0  0  0  0
   -1.0945    0.0494    1.1147 H   0  0  0  0  0  0  0  0  0  0  0  0
   -0.0137   -0.7362   -0.9567 H   0  0  0  0  0  0  0  0  0  0  0  0
   -1.4405   -0.3298   -1.9111 H   0  0  0  0  0  0  0  0  0  0  0  0
    0.2027    1.5027   -2.1373 H   0  0  0  0  0  0  0  0  0  0  0  0
   -1.2383    2.0430   -1.3178 H   0  0  0  0  0  0  0  0  0  0  0  0
    2.0050    0.3917   -1.7368 H   0  0  0  0  0  0  0  0  0  0  0  0
    4.3832    0.0378   -1.3389 H   0  0  0  0  0  0  0  0  0  0  0  0
    4.1757    2.3469    2.2813 H   0  0  0  0  0  0  0  0  0  0  0  0
  1  2  3  0
  2  3  1  0
  3  4  1  0
  4  5  1  0
  5  6  1  0
  6  7  1  0
  7  8  1  0
  8  9  1  0
  9 10  2  0
 10 11  1  0
 11 12  2  0
 12 13  1  0
 12 14  1  0
 14 15  2  0
 15 16  1  0
 15  9  1  0
  1 17  1  0
  3 18  1  0
  3 19  1  0
  4 20  1  0
  5 21  1  0
  5 22  1  0
  6 23  1  0
  6 24  1  0
  7 25  1  0
  7 26  1  0
 10 27  1  0
 11 28  1  0
 14 29  1  0
M  END
$$$$
