
     RDKit          3D

 19 19  0  0  0  0  0  0  0  0999 V2000
   -3.4677    0.1741   -1.0849 C   0  0  0  0  0  0  0  0  0  0  0  0
   -2.4992   -0.9793   -1.3101 C   0  0  0  0  0  0  0  0  0  0  0  0
   -1.1636   -0.8159   -0.5836 C   0  0  0  0  0  0  0  0  0  0  0  0
   -0.1677    0.5415   -1.2756 S   0  0  0  0  0  0  0  0  0  0  0  0
    1.2452    0.4644   -0.2472 C   0  0  0  0  0  0  0  0  0  0  0  0
    1.3971   -0.4383    0.6963 N   0  0  0  0  0  0  0  0  0  0  0  0
    2.5949   -0.2850    1.3681 N   0  0  0  0  0  0  0  0  0  0  0  0
    3.3017    0.7227    0.9080 C   0  0  0  0  0  0  0  0  0  0  0  0
    4.5108    1.0854    1.3788 N   0  0  0  0  0  0  0  0  0  0  0  0
    2.5551    1.5583   -0.3939 S   0  0  0  0  0  0  0  0  0  0  0  0
   -4.4319   -0.0504   -1.5525 H   0  0  0  0  0  0  0  0  0  0  0  0
   -3.0981    1.1065   -1.5214 H   0  0  0  0  0  0  0  0  0  0  0  0
   -3.6412    0.3373   -0.0165 H   0  0  0  0  0  0  0  0  0  0  0  0
   -2.3376   -1.1223   -2.3854 H   0  0  0  0  0  0  0  0  0  0  0  0
   -2.9754   -1.8973   -0.9439 H   0  0  0  0  0  0  0  0  0  0  0  0
   -0.5948   -1.7472   -0.6793 H   0  0  0  0  0  0  0  0  0  0  0  0
   -1.3400   -0.6341    0.4822 H   0  0  0  0  0  0  0  0  0  0  0  0
    5.1225    1.5973    0.7541 H   0  0  0  0  0  0  0  0  0  0  0  0
    4.9900    0.3824    1.9320 H   0  0  0  0  0  0  0  0  0  0  0  0
  1  2  1  0
  2  3  1  0
  3  4  1  0
  4  5  1  0
  5  6  2  0
  6  7  1  0
  7  8  2  0
  8  9  1  0
  8 10  1  0
 10  5  1  0
  1 11  1  0
  1 12  1  0
  1 13  1  0
  2 14  1  0
  2 15  1  0
  3 16  1  0
  3 17  1  0
  9 18  1  0
  9 19  1  0
M  END
$$$$
