
     RDKit          3D

 53 58  0  0  0  0  0  0  0  0999 V2000
   -1.1325    2.0907   -0.4344 O   0  0  0  0  0  0  0  0  0  0  0  0
   -1.5637    0.9500   -0.6137 C   0  0  0  0  0  0  0  0  0  0  0  0
   -0.7734   -0.0136   -1.5234 C   0  0  0  0  0  0  0  0  0  0  0  0
    0.6632    0.0602   -1.2057 N   0  0  0  0  0  4  0  0  0  0  0  0
    1.3848   -0.8128   -0.3936 C   0  0  0  0  0  0  0  0  0  0  0  0
    2.6899   -0.3474   -0.2786 C   0  0  0  0  0  0  0  0  0  0  0  0
    3.8403   -0.9989    0.5744 C   0  0  0  0  0  0  0  0  0  0  0  0
    3.5940   -2.1761    1.2944 C   0  0  0  0  0  0  0  0  0  0  0  0
    4.6069   -2.7557    2.0659 C   0  0  0  0  0  0  0  0  0  0  0  0
    5.8658   -2.1640    2.1187 C   0  0  0  0  0  0  0  0  0  0  0  0
    7.1076   -2.8711    3.0718 Cl  0  0  0  0  0  0  0  0  0  0  0  0
    6.1194   -0.9966    1.4040 C   0  0  0  0  0  0  0  0  0  0  0  0
    5.1062   -0.4110    0.6352 C   0  0  0  0  0  0  0  0  0  0  0  0
    2.6919    0.7894   -1.0668 N   0  0  0  0  0  0  0  0  0  0  0  0
    1.4827    1.0444   -1.5606 C   0  0  0  0  0  0  0  0  0  0  0  0
    1.4275    2.2920   -2.3583 C   0  0  0  0  0  0  0  0  0  0  0  0
    2.9227    2.5990   -2.5701 C   0  0  0  0  0  0  0  0  0  0  0  0
    3.6553    1.8122   -1.4485 C   0  0  0  0  0  0  0  0  0  0  0  0
   -2.6680    0.3609    0.0225 N   0  0  0  0  0  0  0  0  0  0  0  0
   -2.8992    0.5281    1.4391 C   0  0  0  0  0  0  0  0  0  0  0  0
   -2.3305    1.6056    2.1489 C   0  0  0  0  0  0  0  0  0  0  0  0
   -2.5270    1.7755    3.5249 C   0  0  0  0  0  0  0  0  0  0  0  0
   -3.2895    0.8624    4.2355 C   0  0  0  0  0  0  0  0  0  0  0  0
   -3.8461   -0.2231    3.5687 C   0  0  0  0  0  0  0  0  0  0  0  0
   -3.6534   -0.3976    2.1862 C   0  0  0  0  0  0  0  0  0  0  0  0
   -4.2969   -1.8996    1.4927 S   0  0  0  0  0  0  0  0  0  0  0  0
   -4.4076   -1.4216   -0.2033 C   0  0  0  0  0  0  0  0  0  0  0  0
   -5.2981   -2.1415   -1.0162 C   0  0  0  0  0  0  0  0  0  0  0  0
   -5.4388   -1.8364   -2.3675 C   0  0  0  0  0  0  0  0  0  0  0  0
   -4.6982   -0.7993   -2.9149 C   0  0  0  0  0  0  0  0  0  0  0  0
   -3.8060   -0.0844   -2.1123 C   0  0  0  0  0  0  0  0  0  0  0  0
   -3.6201   -0.3992   -0.7488 C   0  0  0  0  0  0  0  0  0  0  0  0
   -0.9105    0.2763   -2.5692 H   0  0  0  0  0  0  0  0  0  0  0  0
   -1.0890   -1.0530   -1.3935 H   0  0  0  0  0  0  0  0  0  0  0  0
    0.8654   -1.6597    0.0218 H   0  0  0  0  0  0  0  0  0  0  0  0
    2.6251   -2.6670    1.2844 H   0  0  0  0  0  0  0  0  0  0  0  0
    4.4063   -3.6628    2.6303 H   0  0  0  0  0  0  0  0  0  0  0  0
    7.1034   -0.5335    1.4480 H   0  0  0  0  0  0  0  0  0  0  0  0
    5.3449    0.5039    0.1105 H   0  0  0  0  0  0  0  0  0  0  0  0
    0.8849    2.1011   -3.2850 H   0  0  0  0  0  0  0  0  0  0  0  0
    0.9363    3.0463   -1.7403 H   0  0  0  0  0  0  0  0  0  0  0  0
    3.2335    2.2035   -3.5446 H   0  0  0  0  0  0  0  0  0  0  0  0
    3.1464    3.6691   -2.5540 H   0  0  0  0  0  0  0  0  0  0  0  0
    3.8539    2.4500   -0.5823 H   0  0  0  0  0  0  0  0  0  0  0  0
    4.5767    1.3631   -1.8237 H   0  0  0  0  0  0  0  0  0  0  0  0
   -1.7465    2.3786    1.6597 H   0  0  0  0  0  0  0  0  0  0  0  0
   -2.0856    2.6283    4.0373 H   0  0  0  0  0  0  0  0  0  0  0  0
   -3.4476    0.9899    5.3038 H   0  0  0  0  0  0  0  0  0  0  0  0
   -4.4241   -0.9461    4.1412 H   0  0  0  0  0  0  0  0  0  0  0  0
   -5.8972   -2.9482   -0.5971 H   0  0  0  0  0  0  0  0  0  0  0  0
   -6.1413   -2.3961   -2.9818 H   0  0  0  0  0  0  0  0  0  0  0  0
   -4.8360   -0.5306   -3.9609 H   0  0  0  0  0  0  0  0  0  0  0  0
   -3.3080    0.7662   -2.5710 H   0  0  0  0  0  0  0  0  0  0  0  0
  1  2  2  0
  2  3  1  0
  3  4  1  0
  4  5  1  0
  5  6  2  0
  6  7  1  0
  7  8  2  0
  8  9  1  0
  9 10  2  0
 10 11  1  0
 10 12  1  0
 12 13  2  0
  6 14  1  0
 14 15  1  0
 15 16  1  0
 16 17  1  0
 17 18  1  0
  2 19  1  0
 19 20  1  0
 20 21  2  0
 21 22  1  0
 22 23  2  0
 23 24  1  0
 24 25  2  0
 25 26  1  0
 26 27  1  0
 27 28  2  0
 28 29  1  0
 29 30  2  0
 30 31  1  0
 31 32  2  0
 15  4  2  0
 32 19  1  0
 13  7  1  0
 18 14  1  0
 25 20  1  0
 32 27  1  0
  3 33  1  0
  3 34  1  0
  5 35  1  0
  8 36  1  0
  9 37  1  0
 12 38  1  0
 13 39  1  0
 16 40  1  0
 16 41  1  0
 17 42  1  0
 17 43  1  0
 18 44  1  0
 18 45  1  0
 21 46  1  0
 22 47  1  0
 23 48  1  0
 24 49  1  0
 28 50  1  0
 29 51  1  0
 30 52  1  0
 31 53  1  0
M  CHG  1   4   1
M  END
$$$$
