
     RDKit          3D

 37 39  0  0  0  0  0  0  0  0999 V2000
   -0.2221   -0.2109    4.8359 C   0  0  0  0  0  0  0  0  0  0  0  0
    1.2672   -0.7071    3.9304 S   0  0  0  0  0  0  0  0  0  0  0  0
    0.7182   -0.4784    2.2439 C   0  0  0  0  0  0  0  0  0  0  0  0
    1.6189   -0.6988    1.2232 C   0  0  0  0  0  0  0  0  0  0  0  0
    1.1740   -0.5197   -0.0714 C   0  0  0  0  0  0  0  0  0  0  0  0
    2.0165   -0.7394   -1.1579 N   0  0  0  0  0  0  0  0  0  0  0  0
    1.3904   -0.6444   -2.4896 C   0  0  0  0  0  0  0  0  0  0  0  0
    2.4371   -0.9670   -3.5673 C   0  0  0  0  0  0  0  0  0  0  0  0
    3.5697   -0.0822   -3.5676 O   0  0  0  0  0  0  0  0  0  0  0  0
    3.7568    0.5987   -2.3199 C   0  0  0  0  0  0  0  0  0  0  0  0
    3.4103   -0.2605   -1.0915 C   0  0  0  0  0  0  0  0  0  0  0  0
   -0.1033   -0.1776   -0.3043 N   0  0  0  0  0  0  0  0  0  0  0  0
   -0.9094    0.0417    0.7469 C   0  0  0  0  0  0  0  0  0  0  0  0
   -2.3072    0.3982    0.4801 C   0  0  0  0  0  0  0  0  0  0  0  0
   -3.3343   -0.2992    1.1539 C   0  0  0  0  0  0  0  0  0  0  0  0
   -4.6843   -0.0163    0.9296 C   0  0  0  0  0  0  0  0  0  0  0  0
   -5.0421    0.9778    0.0268 C   0  0  0  0  0  0  0  0  0  0  0  0
   -4.0501    1.6914   -0.6431 C   0  0  0  0  0  0  0  0  0  0  0  0
   -2.6943    1.4094   -0.4188 C   0  0  0  0  0  0  0  0  0  0  0  0
   -1.5515    2.4063   -1.2583 Cl  0  0  0  0  0  0  0  0  0  0  0  0
   -0.5513   -0.1088    2.0303 N   0  0  0  0  0  0  0  0  0  0  0  0
   -1.0618   -0.8679    4.5926 H   0  0  0  0  0  0  0  0  0  0  0  0
   -0.0266   -0.2892    5.9089 H   0  0  0  0  0  0  0  0  0  0  0  0
   -0.4861    0.8261    4.6107 H   0  0  0  0  0  0  0  0  0  0  0  0
    2.6284   -1.0250    1.4343 H   0  0  0  0  0  0  0  0  0  0  0  0
    0.5637   -1.3596   -2.5758 H   0  0  0  0  0  0  0  0  0  0  0  0
    1.0009    0.3684   -2.6543 H   0  0  0  0  0  0  0  0  0  0  0  0
    2.8201   -1.9850   -3.4301 H   0  0  0  0  0  0  0  0  0  0  0  0
    1.9831   -0.9190   -4.5622 H   0  0  0  0  0  0  0  0  0  0  0  0
    4.8045    0.9127   -2.2723 H   0  0  0  0  0  0  0  0  0  0  0  0
    3.1462    1.5093   -2.3365 H   0  0  0  0  0  0  0  0  0  0  0  0
    3.6092    0.3358   -0.1938 H   0  0  0  0  0  0  0  0  0  0  0  0
    4.0639   -1.1401   -1.0669 H   0  0  0  0  0  0  0  0  0  0  0  0
   -3.0747   -1.0849    1.8633 H   0  0  0  0  0  0  0  0  0  0  0  0
   -5.4516   -0.5747    1.4605 H   0  0  0  0  0  0  0  0  0  0  0  0
   -6.0906    1.2029   -0.1516 H   0  0  0  0  0  0  0  0  0  0  0  0
   -4.3376    2.4771   -1.3381 H   0  0  0  0  0  0  0  0  0  0  0  0
  1  2  1  0
  2  3  1  0
  3  4  2  0
  4  5  1  0
  5  6  1  0
  6  7  1  0
  7  8  1  0
  8  9  1  0
  9 10  1  0
 10 11  1  0
  5 12  2  0
 12 13  1  0
 13 14  1  0
 14 15  2  0
 15 16  1  0
 16 17  2  0
 17 18  1  0
 18 19  2  0
 19 20  1  0
 13 21  2  0
 21  3  1  0
 11  6  1  0
 19 14  1  0
  1 22  1  0
  1 23  1  0
  1 24  1  0
  4 25  1  0
  7 26  1  0
  7 27  1  0
  8 28  1  0
  8 29  1  0
 10 30  1  0
 10 31  1  0
 11 32  1  0
 11 33  1  0
 15 34  1  0
 16 35  1  0
 17 36  1  0
 18 37  1  0
M  END
$$$$
