
     RDKit          3D

 28 30  0  0  0  0  0  0  0  0999 V2000
    0.1961   -1.8363   -2.6626 N   0  0  0  0  0  0  0  0  0  0  0  0
    0.2330   -1.1227   -1.7472 C   0  0  0  0  0  0  0  0  0  0  0  0
    0.3067   -0.2582   -0.6156 C   0  0  0  0  0  0  0  0  0  0  0  0
    1.4119   -0.1390    0.1467 C   0  0  0  0  0  0  0  0  0  0  0  0
    2.6957   -0.8162   -0.0472 C   0  0  0  0  0  0  0  0  0  0  0  0
    2.8180   -2.1946   -0.1901 C   0  0  0  0  0  0  0  0  0  0  0  0
    4.0913   -2.7409   -0.3348 C   0  0  0  0  0  0  0  0  0  0  0  0
    5.1987   -1.9025   -0.3177 C   0  0  0  0  0  0  0  0  0  0  0  0
    4.9859   -0.5457   -0.1481 C   0  0  0  0  0  0  0  0  0  0  0  0
    3.7630    0.0119   -0.0034 N   0  0  0  0  0  0  0  0  0  0  0  0
   -0.8560    0.4952   -0.2718 C   0  0  0  0  0  0  0  0  0  0  0  0
   -2.0115   -0.0100    0.1126 N   0  0  0  0  0  0  0  0  0  0  0  0
   -2.9353    0.9941    0.3497 C   0  0  0  0  0  0  0  0  0  0  0  0
   -4.2653    0.8085    0.7778 C   0  0  0  0  0  0  0  0  0  0  0  0
   -5.0925    1.9183    0.9792 C   0  0  0  0  0  0  0  0  0  0  0  0
   -4.6106    3.2047    0.7592 C   0  0  0  0  0  0  0  0  0  0  0  0
   -3.2952    3.4144    0.3334 C   0  0  0  0  0  0  0  0  0  0  0  0
   -2.4741    2.2919    0.1346 C   0  0  0  0  0  0  0  0  0  0  0  0
   -0.8359    2.2247   -0.3815 S   0  0  0  0  0  0  0  0  0  0  0  0
    1.4307    0.5530    0.9871 H   0  0  0  0  0  0  0  0  0  0  0  0
    1.9519   -2.8483   -0.1853 H   0  0  0  0  0  0  0  0  0  0  0  0
    4.2155   -3.8133   -0.4582 H   0  0  0  0  0  0  0  0  0  0  0  0
    6.2024   -2.2970   -0.4297 H   0  0  0  0  0  0  0  0  0  0  0  0
    5.8183    0.1519   -0.1218 H   0  0  0  0  0  0  0  0  0  0  0  0
   -4.6379   -0.1971    0.9469 H   0  0  0  0  0  0  0  0  0  0  0  0
   -6.1185    1.7710    1.3088 H   0  0  0  0  0  0  0  0  0  0  0  0
   -5.2648    4.0597    0.9186 H   0  0  0  0  0  0  0  0  0  0  0  0
   -2.9213    4.4191    0.1604 H   0  0  0  0  0  0  0  0  0  0  0  0
  1  2  3  0
  2  3  1  0
  3  4  2  3
  4  5  1  0
  5  6  2  0
  6  7  1  0
  7  8  2  0
  8  9  1  0
  9 10  2  0
  3 11  1  0
 11 12  2  0
 12 13  1  0
 13 14  2  0
 14 15  1  0
 15 16  2  0
 16 17  1  0
 17 18  2  0
 18 19  1  0
 10  5  1  0
 19 11  1  0
 18 13  1  0
  4 20  1  0
  6 21  1  0
  7 22  1  0
  8 23  1  0
  9 24  1  0
 14 25  1  0
 15 26  1  0
 16 27  1  0
 17 28  1  0
M  END
$$$$
