
     RDKit          3D

 31 32  0  0  0  0  0  0  0  0999 V2000
    4.8312    1.5551    0.3211 O   0  0  0  0  0  0  0  0  0  0  0  0
    4.7981    0.3426    0.1126 C   0  0  0  0  0  0  0  0  0  0  0  0
    3.6498   -0.4406    0.0741 N   0  0  0  0  0  0  0  0  0  0  0  0
    2.3147   -0.0309    0.2566 C   0  0  0  0  0  0  0  0  0  0  0  0
    1.3277   -1.0179    0.1744 C   0  0  0  0  0  0  0  0  0  0  0  0
   -0.0249   -0.6950    0.3428 C   0  0  0  0  0  0  0  0  0  0  0  0
   -0.4252    0.6165    0.6058 C   0  0  0  0  0  0  0  0  0  0  0  0
   -1.7700    0.9949    0.7468 N   0  0  0  0  0  0  0  0  0  0  0  0
   -2.9640    0.4294    0.2665 C   0  0  0  0  0  0  0  0  0  0  0  0
   -4.1498    0.6367    0.9866 C   0  0  0  0  0  0  0  0  0  0  0  0
   -5.3560    0.0642    0.5728 C   0  0  0  0  0  0  0  0  0  0  0  0
   -5.3931   -0.7309   -0.5690 C   0  0  0  0  0  0  0  0  0  0  0  0
   -4.2252   -0.9521   -1.2937 C   0  0  0  0  0  0  0  0  0  0  0  0
   -3.0205   -0.3790   -0.8743 C   0  0  0  0  0  0  0  0  0  0  0  0
    0.5696    1.5989    0.6806 C   0  0  0  0  0  0  0  0  0  0  0  0
    1.9246    1.2817    0.5106 C   0  0  0  0  0  0  0  0  0  0  0  0
    6.0935   -0.4328   -0.1313 C   0  0  0  0  0  0  0  0  0  0  0  0
    6.0395   -1.1879   -1.7401 Cl  0  0  0  0  0  0  0  0  0  0  0  0
    6.2861   -1.6756    1.1255 Cl  0  0  0  0  0  0  0  0  0  0  0  0
    3.7904   -1.4297   -0.1066 H   0  0  0  0  0  0  0  0  0  0  0  0
    1.5882   -2.0557   -0.0168 H   0  0  0  0  0  0  0  0  0  0  0  0
   -0.7598   -1.4944    0.2990 H   0  0  0  0  0  0  0  0  0  0  0  0
   -1.9067    1.8390    1.2912 H   0  0  0  0  0  0  0  0  0  0  0  0
   -4.1411    1.2410    1.8902 H   0  0  0  0  0  0  0  0  0  0  0  0
   -6.2632    0.2367    1.1457 H   0  0  0  0  0  0  0  0  0  0  0  0
   -6.3294   -1.1765   -0.8940 H   0  0  0  0  0  0  0  0  0  0  0  0
   -4.2484   -1.5664   -2.1898 H   0  0  0  0  0  0  0  0  0  0  0  0
   -2.1302   -0.5447   -1.4744 H   0  0  0  0  0  0  0  0  0  0  0  0
    0.3001    2.6368    0.8620 H   0  0  0  0  0  0  0  0  0  0  0  0
    2.6430    2.0919    0.5797 H   0  0  0  0  0  0  0  0  0  0  0  0
    6.9507    0.2448   -0.0899 H   0  0  0  0  0  0  0  0  0  0  0  0
  1  2  2  0
  2  3  1  0
  3  4  1  0
  4  5  2  0
  5  6  1  0
  6  7  2  0
  7  8  1  0
  8  9  1  0
  9 10  2  0
 10 11  1  0
 11 12  2  0
 12 13  1  0
 13 14  2  0
  7 15  1  0
 15 16  2  0
  2 17  1  0
 17 18  1  0
 17 19  1  0
 16  4  1  0
 14  9  1  0
  3 20  1  0
  5 21  1  0
  6 22  1  0
  8 23  1  0
 10 24  1  0
 11 25  1  0
 12 26  1  0
 13 27  1  0
 14 28  1  0
 15 29  1  0
 16 30  1  0
 17 31  1  0
M  END
$$$$
