
     RDKit          3D

 34 34  0  0  0  0  0  0  0  0999 V2000
    4.5940   -0.6732   -1.4724 C   0  0  0  0  0  0  0  0  0  0  0  0
    4.0502    0.7431   -1.3828 C   0  0  0  0  0  0  0  0  0  0  0  0
    4.1788    1.3591    0.0141 C   0  0  0  0  0  0  0  0  0  0  0  0
    3.4002    0.6260    1.1044 C   0  0  0  0  0  0  0  0  0  0  0  0
    2.0200    0.5564    0.7272 O   0  0  0  0  0  0  0  0  0  0  0  0
    1.2399   -0.1614    1.5714 C   0  0  0  0  0  0  0  0  0  0  0  0
    1.6102   -0.7105    2.5972 O   0  0  0  0  0  0  0  0  0  0  0  0
   -0.1614   -0.2090    1.0721 C   0  0  0  0  0  0  0  0  0  0  0  0
   -0.5666    0.4405   -0.0984 C   0  0  0  0  0  0  0  0  0  0  0  0
   -1.8970    0.3586   -0.5311 C   0  0  0  0  0  0  0  0  0  0  0  0
   -2.8386   -0.3723    0.1953 C   0  0  0  0  0  0  0  0  0  0  0  0
   -4.1919   -0.5088   -0.1783 N   0  0  0  0  0  0  0  0  0  0  0  0
   -4.8192    0.0414   -1.2809 C   0  0  0  0  0  0  0  0  0  0  0  0
   -6.2716   -0.3554   -1.3847 C   0  0  0  0  0  0  0  0  0  0  0  0
   -4.3112    0.7646   -2.1313 O   0  0  0  0  0  0  0  0  0  0  0  0
   -2.4307   -1.0184    1.3687 C   0  0  0  0  0  0  0  0  0  0  0  0
   -1.1035   -0.9383    1.8053 C   0  0  0  0  0  0  0  0  0  0  0  0
    4.5633   -1.0253   -2.5086 H   0  0  0  0  0  0  0  0  0  0  0  0
    5.6318   -0.7185   -1.1294 H   0  0  0  0  0  0  0  0  0  0  0  0
    3.9988   -1.3662   -0.8698 H   0  0  0  0  0  0  0  0  0  0  0  0
    4.5982    1.3776   -2.0891 H   0  0  0  0  0  0  0  0  0  0  0  0
    3.0025    0.7507   -1.7049 H   0  0  0  0  0  0  0  0  0  0  0  0
    3.8078    2.3900   -0.0445 H   0  0  0  0  0  0  0  0  0  0  0  0
    5.2359    1.4145    0.2986 H   0  0  0  0  0  0  0  0  0  0  0  0
    3.4860    1.1822    2.0455 H   0  0  0  0  0  0  0  0  0  0  0  0
    3.8033   -0.3825    1.2543 H   0  0  0  0  0  0  0  0  0  0  0  0
    0.1379    1.0192   -0.6918 H   0  0  0  0  0  0  0  0  0  0  0  0
   -2.1624    0.8838   -1.4445 H   0  0  0  0  0  0  0  0  0  0  0  0
   -4.7611   -1.0824    0.4312 H   0  0  0  0  0  0  0  0  0  0  0  0
   -6.3687   -1.1718   -2.1056 H   0  0  0  0  0  0  0  0  0  0  0  0
   -6.8543    0.5061   -1.7242 H   0  0  0  0  0  0  0  0  0  0  0  0
   -6.6762   -0.6744   -0.4198 H   0  0  0  0  0  0  0  0  0  0  0  0
   -3.1357   -1.5942    1.9632 H   0  0  0  0  0  0  0  0  0  0  0  0
   -0.8085   -1.4512    2.7196 H   0  0  0  0  0  0  0  0  0  0  0  0
  1  2  1  0
  2  3  1  0
  3  4  1  0
  4  5  1  0
  5  6  1  0
  6  7  2  0
  6  8  1  0
  8  9  2  0
  9 10  1  0
 10 11  2  0
 11 12  1  0
 12 13  1  0
 13 14  1  0
 13 15  2  0
 11 16  1  0
 16 17  2  0
 17  8  1  0
  1 18  1  0
  1 19  1  0
  1 20  1  0
  2 21  1  0
  2 22  1  0
  3 23  1  0
  3 24  1  0
  4 25  1  0
  4 26  1  0
  9 27  1  0
 10 28  1  0
 12 29  1  0
 14 30  1  0
 14 31  1  0
 14 32  1  0
 16 33  1  0
 17 34  1  0
M  END
$$$$
