
     RDKit          3D

 51 53  0  0  0  0  0  0  0  0999 V2000
    9.8895   -0.3279   -1.5562 C   0  0  0  0  0  0  0  0  0  0  0  0
    8.4725   -0.2800   -1.6600 O   0  0  0  0  0  0  0  0  0  0  0  0
    7.7635   -0.2410   -0.4899 C   0  0  0  0  0  0  0  0  0  0  0  0
    8.3076   -0.2469    0.7940 C   0  0  0  0  0  0  0  0  0  0  0  0
    7.4666   -0.2053    1.9067 C   0  0  0  0  0  0  0  0  0  0  0  0
    6.0820   -0.1576    1.7384 C   0  0  0  0  0  0  0  0  0  0  0  0
    5.5230   -0.1511    0.4563 C   0  0  0  0  0  0  0  0  0  0  0  0
    4.1212   -0.1019    0.3681 N   0  0  0  0  0  0  0  0  0  0  0  0
    3.3424   -0.0942   -0.7699 C   0  0  0  0  0  0  0  0  0  0  0  0
    3.6809   -0.1303   -1.9439 O   0  0  0  0  0  0  0  0  0  0  0  0
    1.8381   -0.0353   -0.4388 C   0  0  0  0  0  0  0  0  0  0  0  0
    1.4911   -0.0199    0.7356 O   0  0  0  0  0  0  0  0  0  0  0  0
    1.0539   -0.0218   -1.5788 N   0  0  0  0  0  0  0  0  0  0  0  0
   -0.3116   -0.1172   -1.6526 N   0  0  0  0  0  0  0  0  0  0  0  0
   -1.0329    0.2254   -0.6344 C   0  0  0  0  0  0  0  0  0  0  0  0
   -2.4761    0.0738   -0.7281 C   0  0  0  0  0  0  0  0  0  0  0  0
   -3.2172   -0.4248   -1.8254 C   0  0  0  0  0  0  0  0  0  0  0  0
   -4.5569   -0.4193   -1.4935 C   0  0  0  0  0  0  0  0  0  0  0  0
   -5.6807   -0.9521   -2.3168 C   0  0  0  0  0  0  0  0  0  0  0  0
   -4.6755    0.0775   -0.1993 N   0  0  0  0  0  0  0  0  0  0  0  0
   -5.8888    0.1995    0.5402 C   0  0  0  0  0  0  0  0  0  0  0  0
   -5.9433   -0.2312    1.8713 C   0  0  0  0  0  0  0  0  0  0  0  0
   -7.1349   -0.1221    2.5930 C   0  0  0  0  0  0  0  0  0  0  0  0
   -8.2755    0.4188    1.9930 C   0  0  0  0  0  0  0  0  0  0  0  0
   -9.7124    0.5217    2.9462 Cl  0  0  0  0  0  0  0  0  0  0  0  0
   -8.2221    0.8520    0.6637 C   0  0  0  0  0  0  0  0  0  0  0  0
   -9.5886    1.5411   -0.1395 Cl  0  0  0  0  0  0  0  0  0  0  0  0
   -7.0307    0.7414   -0.0623 C   0  0  0  0  0  0  0  0  0  0  0  0
   -3.3985    0.4154    0.2559 C   0  0  0  0  0  0  0  0  0  0  0  0
   -3.1375    1.1005    1.5601 C   0  0  0  0  0  0  0  0  0  0  0  0
    6.3722   -0.1932   -0.6514 C   0  0  0  0  0  0  0  0  0  0  0  0
   10.2174   -1.2399   -1.0464 H   0  0  0  0  0  0  0  0  0  0  0  0
   10.2981   -0.3497   -2.5710 H   0  0  0  0  0  0  0  0  0  0  0  0
   10.2799    0.5664   -1.0594 H   0  0  0  0  0  0  0  0  0  0  0  0
    9.3785   -0.2838    0.9626 H   0  0  0  0  0  0  0  0  0  0  0  0
    7.8915   -0.2108    2.9075 H   0  0  0  0  0  0  0  0  0  0  0  0
    5.4502   -0.1268    2.6227 H   0  0  0  0  0  0  0  0  0  0  0  0
    3.5936   -0.0747    1.2382 H   0  0  0  0  0  0  0  0  0  0  0  0
    1.5446   -0.1715   -2.4623 H   0  0  0  0  0  0  0  0  0  0  0  0
   -0.6321    0.6455    0.2991 H   0  0  0  0  0  0  0  0  0  0  0  0
   -2.8041   -0.7801   -2.7625 H   0  0  0  0  0  0  0  0  0  0  0  0
   -6.2141   -0.1394   -2.8180 H   0  0  0  0  0  0  0  0  0  0  0  0
   -6.3851   -1.5342   -1.7153 H   0  0  0  0  0  0  0  0  0  0  0  0
   -5.2987   -1.6202   -3.0965 H   0  0  0  0  0  0  0  0  0  0  0  0
   -5.0836   -0.6936    2.3508 H   0  0  0  0  0  0  0  0  0  0  0  0
   -7.1695   -0.4708    3.6230 H   0  0  0  0  0  0  0  0  0  0  0  0
   -6.9956    1.1204   -1.0803 H   0  0  0  0  0  0  0  0  0  0  0  0
   -2.9528    0.3647    2.3487 H   0  0  0  0  0  0  0  0  0  0  0  0
   -2.2560    1.7461    1.4919 H   0  0  0  0  0  0  0  0  0  0  0  0
   -3.9663    1.7488    1.8585 H   0  0  0  0  0  0  0  0  0  0  0  0
    5.9827   -0.1903   -1.6648 H   0  0  0  0  0  0  0  0  0  0  0  0
  1  2  1  0
  2  3  1  0
  3  4  2  0
  4  5  1  0
  5  6  2  0
  6  7  1  0
  7  8  1  0
  8  9  1  0
  9 10  2  0
  9 11  1  0
 11 12  2  0
 11 13  1  0
 13 14  1  0
 14 15  2  3
 15 16  1  0
 16 17  1  0
 17 18  2  0
 18 19  1  0
 18 20  1  0
 20 21  1  0
 21 22  2  0
 22 23  1  0
 23 24  2  0
 24 25  1  0
 24 26  1  0
 26 27  1  0
 26 28  2  0
 20 29  1  0
 29 30  1  0
  7 31  2  0
 31  3  1  0
 29 16  2  0
 28 21  1  0
  1 32  1  0
  1 33  1  0
  1 34  1  0
  4 35  1  0
  5 36  1  0
  6 37  1  0
  8 38  1  0
 13 39  1  0
 15 40  1  0
 17 41  1  0
 19 42  1  0
 19 43  1  0
 19 44  1  0
 22 45  1  0
 23 46  1  0
 28 47  1  0
 30 48  1  0
 30 49  1  0
 30 50  1  0
 31 51  1  0
M  END
$$$$
