
     RDKit          3D

 51 54  0  0  0  0  0  0  0  0999 V2000
    6.5239   -0.2664   -1.7779 C   0  0  0  0  0  0  0  0  0  0  0  0
    6.0801    1.1499   -1.4433 C   0  0  0  0  0  0  0  0  0  0  0  0
    4.6462    1.1857   -0.9915 C   0  0  0  0  0  0  0  0  0  0  0  0
    3.6019    1.2568   -1.9137 C   0  0  0  0  0  0  0  0  0  0  0  0
    2.2684    1.2608   -1.4858 C   0  0  0  0  0  0  0  0  0  0  0  0
    1.9341    1.1870   -0.1244 C   0  0  0  0  0  0  0  0  0  0  0  0
    0.5505    1.1810    0.3158 N   0  0  0  0  0  0  0  0  0  0  0  0
   -0.3862    1.9129   -0.4203 C   0  0  0  0  0  0  0  0  0  0  0  0
   -0.1378    2.6725   -1.3522 O   0  0  0  0  0  0  0  0  0  0  0  0
   -1.7968    1.8038   -0.0181 C   0  0  0  0  0  0  0  0  0  0  0  0
   -2.7863    2.4100   -0.8123 C   0  0  0  0  0  0  0  0  0  0  0  0
   -4.1245    2.3372   -0.4452 C   0  0  0  0  0  0  0  0  0  0  0  0
   -4.4740    1.6637    0.7158 C   0  0  0  0  0  0  0  0  0  0  0  0
   -3.4865    1.0677    1.5086 C   0  0  0  0  0  0  0  0  0  0  0  0
   -2.1304    1.1286    1.1476 C   0  0  0  0  0  0  0  0  0  0  0  0
   -1.1042    0.5137    1.9072 N   0  0  0  0  0  0  0  0  0  0  0  0
   -1.4366   -0.2121    3.1450 C   0  0  0  0  0  0  0  0  0  0  0  0
   -2.0405   -1.5887    2.8615 C   0  0  0  0  0  0  0  0  0  0  0  0
   -3.0627   -1.9753    3.4241 O   0  0  0  0  0  0  0  0  0  0  0  0
   -1.3242   -2.3673    1.9848 N   0  0  0  0  0  0  0  0  0  0  0  0
   -1.9351   -3.4833    1.3059 C   0  0  0  0  0  0  0  0  0  0  0  0
   -2.5895   -2.9580    0.0810 C   0  0  0  0  0  0  0  0  0  0  0  0
   -3.9044   -2.7697   -0.2830 C   0  0  0  0  0  0  0  0  0  0  0  0
   -3.8822   -2.1967   -1.5764 C   0  0  0  0  0  0  0  0  0  0  0  0
   -2.5569   -2.0643   -1.9149 C   0  0  0  0  0  0  0  0  0  0  0  0
   -1.7657   -2.5274   -0.9180 O   0  0  0  0  0  0  0  0  0  0  0  0
    0.2070    0.4262    1.4444 C   0  0  0  0  0  0  0  0  0  0  0  0
    0.9757   -0.3628    2.0067 O   0  0  0  0  0  0  0  0  0  0  0  0
    2.9958    1.1127    0.7902 C   0  0  0  0  0  0  0  0  0  0  0  0
    4.3288    1.1114    0.3655 C   0  0  0  0  0  0  0  0  0  0  0  0
    6.3716   -0.9393   -0.9330 H   0  0  0  0  0  0  0  0  0  0  0  0
    7.5816   -0.2744   -2.0367 H   0  0  0  0  0  0  0  0  0  0  0  0
    5.9635   -0.6635   -2.6215 H   0  0  0  0  0  0  0  0  0  0  0  0
    6.7238    1.5586   -0.6634 H   0  0  0  0  0  0  0  0  0  0  0  0
    6.2140    1.8033   -2.3168 H   0  0  0  0  0  0  0  0  0  0  0  0
    3.8109    1.3044   -2.9795 H   0  0  0  0  0  0  0  0  0  0  0  0
    1.4965    1.2904   -2.2528 H   0  0  0  0  0  0  0  0  0  0  0  0
   -2.5116    2.9431   -1.7211 H   0  0  0  0  0  0  0  0  0  0  0  0
   -4.8869    2.8042   -1.0633 H   0  0  0  0  0  0  0  0  0  0  0  0
   -5.5167    1.5926    1.0108 H   0  0  0  0  0  0  0  0  0  0  0  0
   -3.8270    0.5453    2.3965 H   0  0  0  0  0  0  0  0  0  0  0  0
   -0.5445   -0.3561    3.7665 H   0  0  0  0  0  0  0  0  0  0  0  0
   -2.1287    0.3835    3.7428 H   0  0  0  0  0  0  0  0  0  0  0  0
   -0.5118   -1.9559    1.5362 H   0  0  0  0  0  0  0  0  0  0  0  0
   -1.1440   -4.1954    1.0435 H   0  0  0  0  0  0  0  0  0  0  0  0
   -2.6597   -3.9791    1.9614 H   0  0  0  0  0  0  0  0  0  0  0  0
   -4.7800   -3.0011    0.3015 H   0  0  0  0  0  0  0  0  0  0  0  0
   -4.7329   -1.9107   -2.1826 H   0  0  0  0  0  0  0  0  0  0  0  0
   -2.0390   -1.6828   -2.7842 H   0  0  0  0  0  0  0  0  0  0  0  0
    2.8171    1.0769    1.8612 H   0  0  0  0  0  0  0  0  0  0  0  0
    5.1159    1.0465    1.1093 H   0  0  0  0  0  0  0  0  0  0  0  0
  1  2  1  0
  2  3  1  0
  3  4  2  0
  4  5  1  0
  5  6  2  0
  6  7  1  0
  7  8  1  0
  8  9  2  0
  8 10  1  0
 10 11  2  0
 11 12  1  0
 12 13  2  0
 13 14  1  0
 14 15  2  0
 15 16  1  0
 16 17  1  0
 17 18  1  0
 18 19  2  0
 18 20  1  0
 20 21  1  0
 21 22  1  0
 22 23  2  0
 23 24  1  0
 24 25  2  0
 25 26  1  0
 16 27  1  0
 27 28  2  0
  6 29  1  0
 29 30  2  0
 30  3  1  0
 27  7  1  0
 15 10  1  0
 26 22  1  0
  1 31  1  0
  1 32  1  0
  1 33  1  0
  2 34  1  0
  2 35  1  0
  4 36  1  0
  5 37  1  0
 11 38  1  0
 12 39  1  0
 13 40  1  0
 14 41  1  0
 17 42  1  0
 17 43  1  0
 20 44  1  0
 21 45  1  0
 21 46  1  0
 23 47  1  0
 24 48  1  0
 25 49  1  0
 29 50  1  0
 30 51  1  0
M  END
$$$$
