
     RDKit          3D

 44 45  0  0  0  0  0  0  0  0999 V2000
   -7.1481    0.0211    0.7402 C   0  0  0  0  0  0  0  0  0  0  0  0
   -6.6365   -1.3963    0.9574 C   0  0  0  0  0  0  0  0  0  0  0  0
   -5.3309   -1.6733    0.2172 C   0  0  0  0  0  0  0  0  0  0  0  0
   -4.3348   -0.7400    0.6576 O   0  0  0  0  0  0  0  0  0  0  0  0
   -3.0579   -1.0816    0.3493 C   0  0  0  0  0  0  0  0  0  0  0  0
   -2.7034   -2.0966   -0.2269 O   0  0  0  0  0  0  0  0  0  0  0  0
   -2.1223   -0.0327    0.8323 C   0  0  0  0  0  0  0  0  0  0  0  0
   -2.5470    1.2838    1.0518 C   0  0  0  0  0  0  0  0  0  0  0  0
   -1.6307    2.2486    1.4655 C   0  0  0  0  0  0  0  0  0  0  0  0
   -0.2930    1.9007    1.6592 C   0  0  0  0  0  0  0  0  0  0  0  0
    0.1445    0.5853    1.4506 C   0  0  0  0  0  0  0  0  0  0  0  0
    1.5129    0.3274    1.6606 N   0  0  0  0  0  0  0  0  0  0  0  0
    2.1662   -0.8929    1.6171 C   0  0  0  0  0  0  0  0  0  0  0  0
    1.6510   -1.9970    1.4794 O   0  0  0  0  0  0  0  0  0  0  0  0
    3.6774   -0.7544    1.8277 C   0  0  0  0  0  0  0  0  0  0  0  0
    4.2361    0.4040    1.2152 O   0  0  0  0  0  0  0  0  0  0  0  0
    4.4996    0.3448   -0.1278 C   0  0  0  0  0  0  0  0  0  0  0  0
    5.1590    1.4700   -0.6347 C   0  0  0  0  0  0  0  0  0  0  0  0
    5.4863    1.5601   -1.9918 C   0  0  0  0  0  0  0  0  0  0  0  0
    5.1436    0.5107   -2.8501 C   0  0  0  0  0  0  0  0  0  0  0  0
    5.4787    0.5935   -4.2780 N   0  0  0  0  0  4  0  0  0  0  0  0
    6.0562    1.6155   -4.6776 O   0  0  0  0  0  0  0  0  0  0  0  0
    5.1657   -0.3652   -4.9996 O   0  0  0  0  0  1  0  0  0  0  0  0
    4.4795   -0.6177   -2.3550 C   0  0  0  0  0  0  0  0  0  0  0  0
    4.1597   -0.6989   -0.9937 C   0  0  0  0  0  0  0  0  0  0  0  0
   -0.7764   -0.3786    1.0333 C   0  0  0  0  0  0  0  0  0  0  0  0
   -6.4531    0.7617    1.1461 H   0  0  0  0  0  0  0  0  0  0  0  0
   -8.1106    0.1539    1.2434 H   0  0  0  0  0  0  0  0  0  0  0  0
   -7.2907    0.2306   -0.3237 H   0  0  0  0  0  0  0  0  0  0  0  0
   -6.4821   -1.5461    2.0326 H   0  0  0  0  0  0  0  0  0  0  0  0
   -7.3975   -2.1121    0.6285 H   0  0  0  0  0  0  0  0  0  0  0  0
   -5.0174   -2.7018    0.4262 H   0  0  0  0  0  0  0  0  0  0  0  0
   -5.4749   -1.5514   -0.8626 H   0  0  0  0  0  0  0  0  0  0  0  0
   -3.5831    1.5700    0.8900 H   0  0  0  0  0  0  0  0  0  0  0  0
   -1.9580    3.2722    1.6328 H   0  0  0  0  0  0  0  0  0  0  0  0
    0.4012    2.6736    1.9813 H   0  0  0  0  0  0  0  0  0  0  0  0
    2.1050    1.1331    1.8404 H   0  0  0  0  0  0  0  0  0  0  0  0
    4.1952   -1.6677    1.5132 H   0  0  0  0  0  0  0  0  0  0  0  0
    3.8411   -0.6582    2.9071 H   0  0  0  0  0  0  0  0  0  0  0  0
    5.4244    2.2887    0.0351 H   0  0  0  0  0  0  0  0  0  0  0  0
    6.0017    2.4477   -2.3556 H   0  0  0  0  0  0  0  0  0  0  0  0
    4.2009   -1.4400   -3.0111 H   0  0  0  0  0  0  0  0  0  0  0  0
    3.6354   -1.5893   -0.6557 H   0  0  0  0  0  0  0  0  0  0  0  0
   -0.4729   -1.4050    0.8404 H   0  0  0  0  0  0  0  0  0  0  0  0
  1  2  1  0
  2  3  1  0
  3  4  1  0
  4  5  1  0
  5  6  2  0
  5  7  1  0
  7  8  2  0
  8  9  1  0
  9 10  2  0
 10 11  1  0
 11 12  1  0
 12 13  1  0
 13 14  2  0
 13 15  1  0
 15 16  1  0
 16 17  1  0
 17 18  2  0
 18 19  1  0
 19 20  2  0
 20 21  1  0
 21 22  2  0
 21 23  1  0
 20 24  1  0
 24 25  2  0
 11 26  2  0
 26  7  1  0
 25 17  1  0
  1 27  1  0
  1 28  1  0
  1 29  1  0
  2 30  1  0
  2 31  1  0
  3 32  1  0
  3 33  1  0
  8 34  1  0
  9 35  1  0
 10 36  1  0
 12 37  1  0
 15 38  1  0
 15 39  1  0
 18 40  1  0
 19 41  1  0
 24 42  1  0
 25 43  1  0
 26 44  1  0
M  CHG  2  21   1  23  -1
M  END
$$$$
