
     RDKit          3D

 47 50  0  0  0  0  0  0  0  0999 V2000
   -4.7825    3.7189    3.7015 N   0  0  0  0  0  0  0  0  0  0  0  0
   -5.0610    2.8712    2.6930 C   0  0  0  0  0  0  0  0  0  0  0  0
   -6.2916    2.5140    2.3290 N   0  0  0  0  0  0  0  0  0  0  0  0
   -6.1262    1.6455    1.2563 O   0  0  0  0  0  0  0  0  0  0  0  0
   -4.7768    1.4620    0.9570 N   0  0  0  0  0  0  0  0  0  0  0  0
   -4.1400    2.2206    1.8492 C   0  0  0  0  0  0  0  0  0  0  0  0
   -2.7237    2.2758    1.8919 N   0  0  0  0  0  0  0  0  0  0  0  0
   -2.0766    2.9670    2.8712 N   0  0  0  0  0  0  0  0  0  0  0  0
   -0.7760    2.7692    2.7566 N   0  0  0  0  0  0  0  0  0  0  0  0
   -0.5536    1.9531    1.6817 C   0  0  0  0  0  0  0  0  0  0  0  0
    0.8003    1.5233    1.3190 C   0  0  0  0  0  0  0  0  0  0  0  0
    1.7826    2.1907    1.6311 O   0  0  0  0  0  0  0  0  0  0  0  0
    0.8469    0.3062    0.6387 N   0  0  0  0  0  0  0  0  0  0  0  0
    1.9811   -0.3852    0.2892 N   0  0  0  0  0  0  0  0  0  0  0  0
    3.0449    0.2839   -0.0257 C   0  0  0  0  0  0  0  0  0  0  0  0
    4.3124   -0.3950   -0.3691 C   0  0  0  0  0  0  0  0  0  0  0  0
    5.4311    0.3871   -0.6779 C   0  0  0  0  0  0  0  0  0  0  0  0
    6.6412   -0.2288   -1.0078 C   0  0  0  0  0  0  0  0  0  0  0  0
    6.7191   -1.6190   -1.0253 C   0  0  0  0  0  0  0  0  0  0  0  0
    7.8798   -2.2604   -1.3414 O   0  0  0  0  0  0  0  0  0  0  0  0
    5.6110   -2.4023   -0.7185 C   0  0  0  0  0  0  0  0  0  0  0  0
    4.4011   -1.7904   -0.3878 C   0  0  0  0  0  0  0  0  0  0  0  0
   -1.7698    1.6902    1.0615 C   0  0  0  0  0  0  0  0  0  0  0  0
   -2.0626    0.9673   -0.1998 C   0  0  0  0  0  0  0  0  0  0  0  0
   -2.0037   -0.4130    0.1438 O   0  0  0  0  0  0  0  0  0  0  0  0
   -2.1978   -1.3178   -0.8635 C   0  0  0  0  0  0  0  0  0  0  0  0
   -2.0866   -2.6564   -0.4687 C   0  0  0  0  0  0  0  0  0  0  0  0
   -2.2555   -3.6860   -1.3955 C   0  0  0  0  0  0  0  0  0  0  0  0
   -2.5364   -3.3714   -2.7177 C   0  0  0  0  0  0  0  0  0  0  0  0
   -2.7021   -4.3545   -3.6113 F   0  0  0  0  0  0  0  0  0  0  0  0
   -2.6508   -2.0480   -3.1263 C   0  0  0  0  0  0  0  0  0  0  0  0
   -2.4815   -1.0158   -2.1980 C   0  0  0  0  0  0  0  0  0  0  0  0
   -5.5138    3.9456    4.3676 H   0  0  0  0  0  0  0  0  0  0  0  0
   -3.8375    3.7953    4.0768 H   0  0  0  0  0  0  0  0  0  0  0  0
    0.0241   -0.2922    0.6925 H   0  0  0  0  0  0  0  0  0  0  0  0
    3.0640    1.3847   -0.0882 H   0  0  0  0  0  0  0  0  0  0  0  0
    5.3722    1.4724   -0.6589 H   0  0  0  0  0  0  0  0  0  0  0  0
    7.5044    0.3862   -1.2428 H   0  0  0  0  0  0  0  0  0  0  0  0
    8.5639   -1.5971   -1.5280 H   0  0  0  0  0  0  0  0  0  0  0  0
    5.6892   -3.4858   -0.7349 H   0  0  0  0  0  0  0  0  0  0  0  0
    3.5373   -2.4045   -0.1464 H   0  0  0  0  0  0  0  0  0  0  0  0
   -1.2840    1.2054   -0.9362 H   0  0  0  0  0  0  0  0  0  0  0  0
   -3.0242    1.2379   -0.6404 H   0  0  0  0  0  0  0  0  0  0  0  0
   -1.8675   -2.9010    0.5681 H   0  0  0  0  0  0  0  0  0  0  0  0
   -2.1697   -4.7248   -1.0938 H   0  0  0  0  0  0  0  0  0  0  0  0
   -2.8738   -1.8280   -4.1659 H   0  0  0  0  0  0  0  0  0  0  0  0
   -2.5811    0.0042   -2.5536 H   0  0  0  0  0  0  0  0  0  0  0  0
  1  2  1  0
  2  3  2  0
  3  4  1  0
  4  5  1  0
  5  6  2  0
  6  7  1  0
  7  8  1  0
  8  9  2  0
  9 10  1  0
 10 11  1  0
 11 12  2  0
 11 13  1  0
 13 14  1  0
 14 15  2  3
 15 16  1  0
 16 17  2  0
 17 18  1  0
 18 19  2  0
 19 20  1  0
 19 21  1  0
 21 22  2  0
 10 23  2  0
 23 24  1  0
 24 25  1  0
 25 26  1  0
 26 27  2  0
 27 28  1  0
 28 29  2  0
 29 30  1  0
 29 31  1  0
 31 32  2  0
  6  2  1  0
 23  7  1  0
 32 26  1  0
 22 16  1  0
  1 33  1  0
  1 34  1  0
 13 35  1  0
 15 36  1  0
 17 37  1  0
 18 38  1  0
 20 39  1  0
 21 40  1  0
 22 41  1  0
 24 42  1  0
 24 43  1  0
 27 44  1  0
 28 45  1  0
 31 46  1  0
 32 47  1  0
M  END
$$$$
