
     RDKit          3D

 34 37  0  0  0  0  0  0  0  0999 V2000
   -2.5324   -2.6544   -0.7010 C   0  0  0  0  0  0  0  0  0  0  0  0
   -2.5648   -1.3118   -1.1732 O   0  0  0  0  0  0  0  0  0  0  0  0
   -3.3253   -0.4307   -0.4441 C   0  0  0  0  0  0  0  0  0  0  0  0
   -4.3828   -0.8106    0.3892 C   0  0  0  0  0  0  0  0  0  0  0  0
   -5.1208    0.1562    1.0782 C   0  0  0  0  0  0  0  0  0  0  0  0
   -4.8087    1.5047    0.9286 C   0  0  0  0  0  0  0  0  0  0  0  0
   -5.8134    2.8083    1.8586 Br  0  0  0  0  0  0  0  0  0  0  0  0
   -3.7656    1.9013    0.0947 C   0  0  0  0  0  0  0  0  0  0  0  0
   -3.0169    0.9368   -0.5932 C   0  0  0  0  0  0  0  0  0  0  0  0
   -1.9285    1.3960   -1.4666 C   0  0  0  0  0  0  0  0  0  0  0  0
   -0.6210    1.2056   -1.2370 C   0  0  0  0  0  0  0  0  0  0  0  0
    0.6035    1.7397   -2.3895 S   0  0  0  0  0  0  0  0  0  0  0  0
    1.8252    1.0748   -1.3902 C   0  0  0  0  0  0  0  0  0  0  0  0
    3.1217    0.9859   -1.4493 N   0  0  0  0  0  0  0  0  0  0  0  0
    3.4080    0.3277   -0.2629 C   0  0  0  0  0  0  0  0  0  0  0  0
    4.8710   -0.0319    0.1577 C   0  0  0  0  0  0  0  0  0  0  0  0
    5.2418   -0.6824    1.3195 C   0  0  0  0  0  0  0  0  0  0  0  0
    6.6527   -0.7984    1.2903 C   0  0  0  0  0  0  0  0  0  0  0  0
    7.0576   -0.2129    0.1146 C   0  0  0  0  0  0  0  0  0  0  0  0
    5.9879    0.2540   -0.5782 O   0  0  0  0  0  0  0  0  0  0  0  0
    2.3362    0.0232    0.4996 N   0  0  0  0  0  0  0  0  0  0  0  0
    1.3438    0.5177   -0.2629 N   0  0  0  0  0  0  0  0  0  0  0  0
   -0.0165    0.5348   -0.0366 C   0  0  0  0  0  0  0  0  0  0  0  0
   -0.5279    0.0906    0.9740 O   0  0  0  0  0  0  0  0  0  0  0  0
   -2.3022   -2.7003    0.3690 H   0  0  0  0  0  0  0  0  0  0  0  0
   -1.7328   -3.1759   -1.2360 H   0  0  0  0  0  0  0  0  0  0  0  0
   -3.4725   -3.1676   -0.9263 H   0  0  0  0  0  0  0  0  0  0  0  0
   -4.6632   -1.8513    0.5156 H   0  0  0  0  0  0  0  0  0  0  0  0
   -5.9374   -0.1550    1.7250 H   0  0  0  0  0  0  0  0  0  0  0  0
   -3.5317    2.9574   -0.0154 H   0  0  0  0  0  0  0  0  0  0  0  0
   -2.2652    1.9025   -2.3687 H   0  0  0  0  0  0  0  0  0  0  0  0
    4.5661   -1.0276    2.0904 H   0  0  0  0  0  0  0  0  0  0  0  0
    7.2942   -1.2515    2.0330 H   0  0  0  0  0  0  0  0  0  0  0  0
    8.0200   -0.0548   -0.3522 H   0  0  0  0  0  0  0  0  0  0  0  0
  1  2  1  0
  2  3  1  0
  3  4  2  0
  4  5  1  0
  5  6  2  0
  6  7  1  0
  6  8  1  0
  8  9  2  0
  9 10  1  0
 10 11  2  3
 11 12  1  0
 12 13  1  0
 13 14  2  0
 14 15  1  0
 15 16  1  0
 16 17  2  0
 17 18  1  0
 18 19  2  0
 19 20  1  0
 15 21  2  0
 21 22  1  0
 22 23  1  0
 23 24  2  0
  9  3  1  0
 23 11  1  0
 22 13  1  0
 20 16  1  0
  1 25  1  0
  1 26  1  0
  1 27  1  0
  4 28  1  0
  5 29  1  0
  8 30  1  0
 10 31  1  0
 17 32  1  0
 18 33  1  0
 19 34  1  0
M  END
$$$$
