
     RDKit          3D

 55 60  0  0  0  0  0  0  0  0999 V2000
    3.8225   -0.9458    2.8041 O   0  0  0  0  0  0  0  0  0  0  0  0
    3.8384   -0.2997    1.7580 C   0  0  0  0  0  0  0  0  0  0  0  0
    5.0560    0.3952    1.3711 C   0  0  0  0  0  0  0  0  0  0  0  0
    5.9280    1.1445    2.2146 C   0  0  0  0  0  0  0  0  0  0  0  0
    6.9703    1.5701    1.4262 C   0  0  0  0  0  0  0  0  0  0  0  0
    6.8222    1.1079    0.1588 O   0  0  0  0  0  0  0  0  0  0  0  0
    5.6782    0.3769    0.1382 C   0  0  0  0  0  0  0  0  0  0  0  0
    2.7095   -0.2078    0.9333 N   0  0  0  0  0  0  0  0  0  0  0  0
    2.6020    0.6288   -0.2580 C   0  0  0  0  0  0  0  0  0  0  0  0
    1.2078    1.2350   -0.4129 C   0  0  0  0  0  0  0  0  0  0  0  0
    0.0814    0.1680   -0.3616 C   0  0  0  0  0  0  0  0  0  0  0  0
    0.2574   -0.5844    0.9810 C   0  0  0  0  0  0  0  0  0  0  0  0
    1.6510   -1.1916    1.1244 C   0  0  0  0  0  0  0  0  0  0  0  0
    0.2814   -0.8238   -1.3977 O   0  0  0  0  0  0  0  0  0  0  0  0
   -0.0383   -0.4387   -2.6689 C   0  0  0  0  0  0  0  0  0  0  0  0
    0.4931   -1.2159   -3.6974 C   0  0  0  0  0  0  0  0  0  0  0  0
    0.2343   -0.8835   -5.0293 C   0  0  0  0  0  0  0  0  0  0  0  0
   -0.5605    0.2236   -5.3283 C   0  0  0  0  0  0  0  0  0  0  0  0
   -0.8730    0.6288   -6.9698 Cl  0  0  0  0  0  0  0  0  0  0  0  0
   -1.1080    0.9964   -4.3075 C   0  0  0  0  0  0  0  0  0  0  0  0
   -0.8505    0.6520   -2.9767 C   0  0  0  0  0  0  0  0  0  0  0  0
   -1.4527    1.4265   -1.8747 C   0  0  0  0  0  0  0  0  0  0  0  0
   -2.0416    2.4730   -2.1226 O   0  0  0  0  0  0  0  0  0  0  0  0
   -1.3334    0.8019   -0.4889 C   0  0  0  0  0  0  0  0  0  0  0  0
   -2.5098   -0.1526   -0.3149 C   0  0  0  0  0  0  0  0  0  0  0  0
   -2.9301    0.2329    1.0604 C   0  0  0  0  0  0  0  0  0  0  0  0
   -3.9083   -0.5637    1.8374 C   0  0  0  0  0  0  0  0  0  0  0  0
   -4.5699   -1.6621    1.2751 C   0  0  0  0  0  0  0  0  0  0  0  0
   -5.4844   -2.3944    2.0397 C   0  0  0  0  0  0  0  0  0  0  0  0
   -5.7390   -2.0291    3.3611 C   0  0  0  0  0  0  0  0  0  0  0  0
   -6.8643   -2.9338    4.2951 Cl  0  0  0  0  0  0  0  0  0  0  0  0
   -5.0884   -0.9354    3.9270 C   0  0  0  0  0  0  0  0  0  0  0  0
   -4.1742   -0.2023    3.1654 C   0  0  0  0  0  0  0  0  0  0  0  0
   -2.3768    1.3106    1.5143 N   0  0  0  0  0  0  0  0  0  0  0  0
   -1.5251    1.8134    0.5048 O   0  0  0  0  0  0  0  0  0  0  0  0
    5.7984    1.3430    3.2699 H   0  0  0  0  0  0  0  0  0  0  0  0
    7.8559    2.1630    1.6088 H   0  0  0  0  0  0  0  0  0  0  0  0
    5.4503   -0.0934   -0.8081 H   0  0  0  0  0  0  0  0  0  0  0  0
    2.8542    0.0062   -1.1239 H   0  0  0  0  0  0  0  0  0  0  0  0
    3.3178    1.4537   -0.2153 H   0  0  0  0  0  0  0  0  0  0  0  0
    1.0549    1.9696    0.3883 H   0  0  0  0  0  0  0  0  0  0  0  0
    1.1930    1.7900   -1.3573 H   0  0  0  0  0  0  0  0  0  0  0  0
   -0.4636   -1.4052    1.0641 H   0  0  0  0  0  0  0  0  0  0  0  0
    0.0855    0.0969    1.8230 H   0  0  0  0  0  0  0  0  0  0  0  0
    1.7298   -1.6710    2.1057 H   0  0  0  0  0  0  0  0  0  0  0  0
    1.8082   -1.9803    0.3786 H   0  0  0  0  0  0  0  0  0  0  0  0
    1.1185   -2.0756   -3.4668 H   0  0  0  0  0  0  0  0  0  0  0  0
    0.6570   -1.4886   -5.8282 H   0  0  0  0  0  0  0  0  0  0  0  0
   -1.7357    1.8536   -4.5428 H   0  0  0  0  0  0  0  0  0  0  0  0
   -2.2343   -1.2067   -0.3925 H   0  0  0  0  0  0  0  0  0  0  0  0
   -3.3380    0.0540   -1.0020 H   0  0  0  0  0  0  0  0  0  0  0  0
   -4.4001   -1.9652    0.2461 H   0  0  0  0  0  0  0  0  0  0  0  0
   -5.9975   -3.2459    1.5988 H   0  0  0  0  0  0  0  0  0  0  0  0
   -5.2867   -0.6455    4.9559 H   0  0  0  0  0  0  0  0  0  0  0  0
   -3.6731    0.6527    3.6169 H   0  0  0  0  0  0  0  0  0  0  0  0
  1  2  2  0
  2  3  1  0
  3  4  1  0
  4  5  2  0
  5  6  1  0
  6  7  1  0
  2  8  1  0
  8  9  1  0
  9 10  1  0
 10 11  1  0
 11 12  1  0
 12 13  1  0
 11 14  1  0
 14 15  1  0
 15 16  2  0
 16 17  1  0
 17 18  2  0
 18 19  1  0
 18 20  1  0
 20 21  2  0
 21 22  1  0
 22 23  2  0
 22 24  1  0
 24 25  1  0
 25 26  1  0
 26 27  1  0
 27 28  2  0
 28 29  1  0
 29 30  2  0
 30 31  1  0
 30 32  1  0
 32 33  2  0
 26 34  2  0
 34 35  1  0
  7  3  2  0
 13  8  1  0
 21 15  1  0
 35 24  1  0
 24 11  1  0
 33 27  1  0
  4 36  1  0
  5 37  1  0
  7 38  1  0
  9 39  1  0
  9 40  1  0
 10 41  1  0
 10 42  1  0
 12 43  1  0
 12 44  1  0
 13 45  1  0
 13 46  1  0
 16 47  1  0
 17 48  1  0
 20 49  1  0
 25 50  1  0
 25 51  1  0
 28 52  1  0
 29 53  1  0
 32 54  1  0
 33 55  1  0
M  END
$$$$
