
     RDKit          3D

 36 37  0  0  0  0  0  0  0  0999 V2000
   -0.8634    0.1362   -0.1171 O   0  0  0  0  0  0  0  0  0  0  0  0
   -0.8921   -0.3357    1.0187 C   0  0  0  0  0  0  0  0  0  0  0  0
    0.3364   -0.8381    1.7715 C   0  0  0  0  0  0  0  0  0  0  0  0
    1.4957   -0.7316    0.9502 O   0  0  0  0  0  0  0  0  0  0  0  0
    2.6341   -1.1451    1.5505 C   0  0  0  0  0  0  0  0  0  0  0  0
    2.7178   -1.5680    2.6906 O   0  0  0  0  0  0  0  0  0  0  0  0
    3.7911   -1.0206    0.6266 C   0  0  0  0  0  0  0  0  0  0  0  0
    3.6492   -0.5816   -0.6983 C   0  0  0  0  0  0  0  0  0  0  0  0
    4.7666   -0.4951   -1.5323 C   0  0  0  0  0  0  0  0  0  0  0  0
    6.0267   -0.8491   -1.0495 C   0  0  0  0  0  0  0  0  0  0  0  0
    6.1678   -1.2846    0.2665 C   0  0  0  0  0  0  0  0  0  0  0  0
    7.7245   -1.7174    0.8591 Cl  0  0  0  0  0  0  0  0  0  0  0  0
    5.0596   -1.3713    1.1069 C   0  0  0  0  0  0  0  0  0  0  0  0
   -2.0728   -0.4352    1.7327 N   0  0  0  0  0  0  0  0  0  0  0  0
   -3.3439   -0.1350    1.0947 C   0  0  0  0  0  0  0  0  0  0  0  0
   -3.5077    1.3512    0.7357 C   0  0  0  0  0  0  0  0  0  0  0  0
   -4.1329    1.5258   -0.5599 N   0  0  0  0  0  0  0  0  0  0  0  0
   -3.4641    1.7391   -1.7402 C   0  0  0  0  0  0  0  0  0  0  0  0
   -2.1040    1.7992   -1.7985 O   0  0  0  0  0  0  0  0  0  0  0  0
   -4.2564    1.8825   -2.8061 C   0  0  0  0  0  0  0  0  0  0  0  0
   -5.9320    1.7184   -2.3833 S   0  0  0  0  0  0  0  0  0  0  0  0
   -5.5138    1.4420   -0.6855 C   0  0  0  0  0  0  0  0  0  0  0  0
   -6.3287    1.2028    0.1908 O   0  0  0  0  0  0  0  0  0  0  0  0
    0.1674   -1.8889    2.0386 H   0  0  0  0  0  0  0  0  0  0  0  0
    0.4569   -0.2272    2.6726 H   0  0  0  0  0  0  0  0  0  0  0  0
    2.6741   -0.3058   -1.0947 H   0  0  0  0  0  0  0  0  0  0  0  0
    4.6529   -0.1588   -2.5605 H   0  0  0  0  0  0  0  0  0  0  0  0
    6.8934   -0.7804   -1.7023 H   0  0  0  0  0  0  0  0  0  0  0  0
    5.1812   -1.7102    2.1334 H   0  0  0  0  0  0  0  0  0  0  0  0
   -2.0847   -0.9707    2.5948 H   0  0  0  0  0  0  0  0  0  0  0  0
   -4.1374   -0.4461    1.7836 H   0  0  0  0  0  0  0  0  0  0  0  0
   -3.4107   -0.7676    0.1998 H   0  0  0  0  0  0  0  0  0  0  0  0
   -4.1504    1.8213    1.4910 H   0  0  0  0  0  0  0  0  0  0  0  0
   -2.5628    1.9052    0.7627 H   0  0  0  0  0  0  0  0  0  0  0  0
   -1.7249    1.1785   -1.1379 H   0  0  0  0  0  0  0  0  0  0  0  0
   -3.9127    2.0618   -3.8141 H   0  0  0  0  0  0  0  0  0  0  0  0
  1  2  2  0
  2  3  1  0
  3  4  1  0
  4  5  1  0
  5  6  2  0
  5  7  1  0
  7  8  2  0
  8  9  1  0
  9 10  2  0
 10 11  1  0
 11 12  1  0
 11 13  2  0
  2 14  1  0
 14 15  1  0
 15 16  1  0
 16 17  1  0
 17 18  1  0
 18 19  1  0
 18 20  2  0
 20 21  1  0
 21 22  1  0
 22 23  2  0
 13  7  1  0
 22 17  1  0
  3 24  1  0
  3 25  1  0
  8 26  1  0
  9 27  1  0
 10 28  1  0
 13 29  1  0
 14 30  1  0
 15 31  1  0
 15 32  1  0
 16 33  1  0
 16 34  1  0
 19 35  1  0
 20 36  1  0
M  END
$$$$
