
     RDKit          3D

 36 36  0  0  0  0  0  0  0  0999 V2000
    2.7134   -4.8033    2.5962 C   0  0  0  0  0  0  0  0  0  0  0  0
    2.1550   -4.0081    1.4295 C   0  0  0  0  0  0  0  0  0  0  0  0
    0.8385   -4.4449    1.0957 O   0  0  0  0  0  0  0  0  0  0  0  0
   -0.1983   -3.8819    1.8944 C   0  0  0  0  0  0  0  0  0  0  0  0
   -0.5530   -2.4579    1.4731 C   0  0  0  0  0  0  0  0  0  0  0  0
   -0.8348   -2.3560   -0.0239 C   0  0  0  0  0  0  0  0  0  0  0  0
   -1.2912   -1.0259   -0.3945 N   0  0  0  0  0  0  0  0  0  0  0  0
   -0.4067    0.0167   -0.5709 C   0  0  0  0  0  0  0  0  0  0  0  0
    0.8044   -0.1183   -0.4147 O   0  0  0  0  0  0  0  0  0  0  0  0
   -1.0026    1.3406   -0.9579 C   0  0  0  0  0  0  0  0  0  0  0  0
   -2.4118    1.4693   -1.0442 C   0  0  0  0  0  0  0  0  0  0  0  0
   -3.5692    1.5381   -1.0968 N   0  0  0  0  0  0  0  0  0  0  0  0
   -0.1313    2.3333   -1.2217 C   0  0  0  0  0  0  0  0  0  0  0  0
   -0.4492    3.6683   -1.6110 C   0  0  0  0  0  0  0  0  0  0  0  0
   -1.5852    4.4625   -1.4442 C   0  0  0  0  0  0  0  0  0  0  0  0
   -1.3384    5.7331   -2.0278 C   0  0  0  0  0  0  0  0  0  0  0  0
   -0.0597    5.6577   -2.5094 C   0  0  0  0  0  0  0  0  0  0  0  0
    0.7595    6.6082   -3.1918 N   0  0  0  0  0  4  0  0  0  0  0  0
    1.9012    6.2610   -3.5186 O   0  0  0  0  0  0  0  0  0  0  0  0
    0.2500    7.7175   -3.4020 O   0  0  0  0  0  1  0  0  0  0  0  0
    0.4914    4.4444   -2.2655 O   0  0  0  0  0  0  0  0  0  0  0  0
    2.1462   -4.6180    3.5131 H   0  0  0  0  0  0  0  0  0  0  0  0
    2.6530   -5.8777    2.3939 H   0  0  0  0  0  0  0  0  0  0  0  0
    3.7583   -4.5367    2.7795 H   0  0  0  0  0  0  0  0  0  0  0  0
    2.7809   -4.1880    0.5491 H   0  0  0  0  0  0  0  0  0  0  0  0
    2.1826   -2.9333    1.6333 H   0  0  0  0  0  0  0  0  0  0  0  0
    0.0603   -3.9185    2.9578 H   0  0  0  0  0  0  0  0  0  0  0  0
   -1.0787   -4.5204    1.7605 H   0  0  0  0  0  0  0  0  0  0  0  0
    0.2639   -1.7761    1.7345 H   0  0  0  0  0  0  0  0  0  0  0  0
   -1.4278   -2.1232    2.0439 H   0  0  0  0  0  0  0  0  0  0  0  0
    0.0620   -2.5904   -0.6079 H   0  0  0  0  0  0  0  0  0  0  0  0
   -1.6252   -3.0559   -0.3150 H   0  0  0  0  0  0  0  0  0  0  0  0
   -2.2905   -0.9044   -0.5089 H   0  0  0  0  0  0  0  0  0  0  0  0
    0.9380    2.1254   -1.1746 H   0  0  0  0  0  0  0  0  0  0  0  0
   -2.5025    4.1778   -0.9453 H   0  0  0  0  0  0  0  0  0  0  0  0
   -2.0025    6.5852   -2.0792 H   0  0  0  0  0  0  0  0  0  0  0  0
  1  2  1  0
  2  3  1  0
  3  4  1  0
  4  5  1  0
  5  6  1  0
  6  7  1  0
  7  8  1  0
  8  9  2  0
  8 10  1  0
 10 11  1  0
 11 12  3  0
 10 13  2  3
 13 14  1  0
 14 15  2  0
 15 16  1  0
 16 17  2  0
 17 18  1  0
 18 19  2  0
 18 20  1  0
 17 21  1  0
 21 14  1  0
  1 22  1  0
  1 23  1  0
  1 24  1  0
  2 25  1  0
  2 26  1  0
  4 27  1  0
  4 28  1  0
  5 29  1  0
  5 30  1  0
  6 31  1  0
  6 32  1  0
  7 33  1  0
 13 34  1  0
 15 35  1  0
 16 36  1  0
M  CHG  2  18   1  20  -1
M  END
$$$$
