
     RDKit          3D

 38 39  0  0  0  0  0  0  0  0999 V2000
    0.7158    1.0487    0.2978 O   0  0  0  0  0  0  0  0  0  0  0  0
    0.6586    0.1746   -0.5609 C   0  0  0  0  0  0  0  0  0  0  0  0
   -0.6430   -0.4801   -1.0200 C   0  0  0  0  0  0  0  0  0  0  0  0
   -1.7571    0.0501   -0.3062 O   0  0  0  0  0  0  0  0  0  0  0  0
   -2.9445   -0.4911   -0.6518 C   0  0  0  0  0  0  0  0  0  0  0  0
   -3.1167   -1.3643   -1.4921 O   0  0  0  0  0  0  0  0  0  0  0  0
   -4.0633    0.1029    0.1223 C   0  0  0  0  0  0  0  0  0  0  0  0
   -3.8419    1.1061    1.0790 C   0  0  0  0  0  0  0  0  0  0  0  0
   -4.9156    1.6456    1.7924 C   0  0  0  0  0  0  0  0  0  0  0  0
   -6.2059    1.1866    1.5527 C   0  0  0  0  0  0  0  0  0  0  0  0
   -7.2207    1.7430    2.2729 O   0  0  0  0  0  0  0  0  0  0  0  0
   -6.4468    0.1939    0.6093 C   0  0  0  0  0  0  0  0  0  0  0  0
   -5.3755   -0.3453   -0.1034 C   0  0  0  0  0  0  0  0  0  0  0  0
   -5.6959   -1.3189   -1.0147 O   0  0  0  0  0  0  0  0  0  0  0  0
    1.7787   -0.3157   -1.2039 N   0  0  0  0  0  0  0  0  0  0  0  0
    3.1123    0.1786   -0.9043 C   0  0  0  0  0  0  0  0  0  0  0  0
    3.6459   -0.3066    0.4492 C   0  0  0  0  0  0  0  0  0  0  0  0
    5.0742   -0.0786    0.5862 N   0  0  0  0  0  0  0  0  0  0  0  0
    6.0277   -0.9606    0.1409 C   0  0  0  0  0  0  0  0  0  0  0  0
    5.6287   -2.1276   -0.4390 O   0  0  0  0  0  0  0  0  0  0  0  0
    7.2896   -0.5559    0.3239 C   0  0  0  0  0  0  0  0  0  0  0  0
    7.3448    1.0102    1.0737 S   0  0  0  0  0  0  0  0  0  0  0  0
    5.5716    1.1022    1.1144 C   0  0  0  0  0  0  0  0  0  0  0  0
    4.9570    2.0674    1.5330 O   0  0  0  0  0  0  0  0  0  0  0  0
   -0.5643   -1.5579   -0.8358 H   0  0  0  0  0  0  0  0  0  0  0  0
   -0.7625   -0.2828   -2.0917 H   0  0  0  0  0  0  0  0  0  0  0  0
   -2.8403    1.4803    1.2824 H   0  0  0  0  0  0  0  0  0  0  0  0
   -4.7440    2.4226    2.5332 H   0  0  0  0  0  0  0  0  0  0  0  0
   -8.0580    1.3310    2.0013 H   0  0  0  0  0  0  0  0  0  0  0  0
   -7.4504   -0.1708    0.4150 H   0  0  0  0  0  0  0  0  0  0  0  0
   -4.8723   -1.6216   -1.4562 H   0  0  0  0  0  0  0  0  0  0  0  0
    1.6876   -1.0847   -1.8559 H   0  0  0  0  0  0  0  0  0  0  0  0
    3.0953    1.2743   -0.9309 H   0  0  0  0  0  0  0  0  0  0  0  0
    3.7587   -0.1615   -1.7207 H   0  0  0  0  0  0  0  0  0  0  0  0
    3.4384   -1.3743    0.5903 H   0  0  0  0  0  0  0  0  0  0  0  0
    3.1270    0.2202    1.2589 H   0  0  0  0  0  0  0  0  0  0  0  0
    6.4233   -2.6456   -0.6553 H   0  0  0  0  0  0  0  0  0  0  0  0
    8.1831   -1.0948    0.0458 H   0  0  0  0  0  0  0  0  0  0  0  0
  1  2  2  0
  2  3  1  0
  3  4  1  0
  4  5  1  0
  5  6  2  0
  5  7  1  0
  7  8  2  0
  8  9  1  0
  9 10  2  0
 10 11  1  0
 10 12  1  0
 12 13  2  0
 13 14  1  0
  2 15  1  0
 15 16  1  0
 16 17  1  0
 17 18  1  0
 18 19  1  0
 19 20  1  0
 19 21  2  0
 21 22  1  0
 22 23  1  0
 23 24  2  0
 13  7  1  0
 23 18  1  0
  3 25  1  0
  3 26  1  0
  8 27  1  0
  9 28  1  0
 11 29  1  0
 12 30  1  0
 14 31  1  0
 15 32  1  0
 16 33  1  0
 16 34  1  0
 17 35  1  0
 17 36  1  0
 20 37  1  0
 21 38  1  0
M  END
$$$$
