
     RDKit          3D

 25 26  0  0  0  0  0  0  0  0999 V2000
   -4.7818    0.4917    0.1865 O   0  0  0  0  0  0  0  0  0  0  0  0
   -3.5793    0.4306   -0.0037 C   0  0  0  0  0  0  0  0  0  0  0  0
   -2.8624    0.7084   -1.2907 C   0  0  0  0  0  0  0  0  0  0  0  0
   -1.4571    0.1944   -0.9966 C   0  0  0  0  0  0  0  0  0  0  0  0
   -1.3199    0.3259    0.4646 N   0  0  0  0  0  0  0  0  0  0  0  0
   -0.3746   -0.6542    1.0251 C   0  0  0  0  0  0  0  0  0  0  0  0
    1.0563   -0.4054    0.5947 C   0  0  0  0  0  0  0  0  0  0  0  0
    1.7556   -1.3661   -0.1512 C   0  0  0  0  0  0  0  0  0  0  0  0
    3.0758   -1.1330   -0.5446 C   0  0  0  0  0  0  0  0  0  0  0  0
    3.7037    0.0604   -0.1940 C   0  0  0  0  0  0  0  0  0  0  0  0
    5.3291    0.3457   -0.6808 Cl  0  0  0  0  0  0  0  0  0  0  0  0
    3.0239    1.0237    0.5473 C   0  0  0  0  0  0  0  0  0  0  0  0
    1.7045    0.7910    0.9413 C   0  0  0  0  0  0  0  0  0  0  0  0
   -2.6200    0.1389    0.9442 N   0  0  0  0  0  0  0  0  0  0  0  0
   -2.8699    1.7872   -1.4739 H   0  0  0  0  0  0  0  0  0  0  0  0
   -3.3276    0.1705   -2.1201 H   0  0  0  0  0  0  0  0  0  0  0  0
   -0.6989    0.7721   -1.5348 H   0  0  0  0  0  0  0  0  0  0  0  0
   -1.3896   -0.8535   -1.3185 H   0  0  0  0  0  0  0  0  0  0  0  0
   -0.3962   -0.5929    2.1216 H   0  0  0  0  0  0  0  0  0  0  0  0
   -0.6789   -1.6793    0.7739 H   0  0  0  0  0  0  0  0  0  0  0  0
    1.2781   -2.3024   -0.4322 H   0  0  0  0  0  0  0  0  0  0  0  0
    3.6074   -1.8843   -1.1226 H   0  0  0  0  0  0  0  0  0  0  0  0
    3.5115    1.9556    0.8201 H   0  0  0  0  0  0  0  0  0  0  0  0
    1.1765    1.5503    1.5157 H   0  0  0  0  0  0  0  0  0  0  0  0
   -2.8660    0.1247    1.9287 H   0  0  0  0  0  0  0  0  0  0  0  0
  1  2  2  0
  2  3  1  0
  3  4  1  0
  4  5  1  0
  5  6  1  0
  6  7  1  0
  7  8  2  0
  8  9  1  0
  9 10  2  0
 10 11  1  0
 10 12  1  0
 12 13  2  0
  5 14  1  0
 14  2  1  0
 13  7  1  0
  3 15  1  0
  3 16  1  0
  4 17  1  0
  4 18  1  0
  6 19  1  0
  6 20  1  0
  8 21  1  0
  9 22  1  0
 12 23  1  0
 13 24  1  0
 14 25  1  0
M  END
$$$$
