
     RDKit          3D

 51 55  0  0  0  0  0  0  0  0999 V2000
    5.4910    2.2355    1.3052 F   0  0  0  0  0  0  0  0  0  0  0  0
    5.8162    1.0142    0.8561 C   0  0  0  0  0  0  0  0  0  0  0  0
    7.0443    0.8363    0.2257 C   0  0  0  0  0  0  0  0  0  0  0  0
    7.3974   -0.4241   -0.2521 C   0  0  0  0  0  0  0  0  0  0  0  0
    6.5173   -1.4957   -0.0983 C   0  0  0  0  0  0  0  0  0  0  0  0
    5.2862   -1.3101    0.5366 C   0  0  0  0  0  0  0  0  0  0  0  0
    4.9251   -0.0490    1.0281 C   0  0  0  0  0  0  0  0  0  0  0  0
    3.5955    0.1702    1.7048 C   0  0  0  0  0  0  0  0  0  0  0  0
    2.5169    0.7475    0.7679 C   0  0  0  0  0  0  0  0  0  0  0  0
    2.1020   -0.1687   -0.3126 N   0  0  0  0  0  0  0  0  0  0  0  0
    1.2612   -1.2910    0.1616 C   0  0  0  0  0  0  0  0  0  0  0  0
   -0.1807   -0.9153    0.5715 C   0  0  0  0  0  0  0  0  0  0  0  0
   -0.8666   -0.1768   -0.5074 N   0  0  0  0  0  0  0  0  0  0  0  0
   -2.2447   -0.0054   -0.3859 C   0  0  0  0  0  0  0  0  0  0  0  0
   -2.7278    1.2020   -0.2333 N   0  0  0  0  0  0  0  0  0  0  0  0
   -4.1137    1.4037   -0.0758 C   0  0  0  0  0  0  0  0  0  0  0  0
   -4.5779    2.7090    0.0977 C   0  0  0  0  0  0  0  0  0  0  0  0
   -5.9412    2.9649    0.2681 C   0  0  0  0  0  0  0  0  0  0  0  0
   -6.8571    1.9121    0.2669 C   0  0  0  0  0  0  0  0  0  0  0  0
   -6.4163    0.5995    0.0948 C   0  0  0  0  0  0  0  0  0  0  0  0
   -5.0495    0.3591   -0.0740 C   0  0  0  0  0  0  0  0  0  0  0  0
   -4.5218   -0.9280   -0.2652 N   0  0  0  0  0  0  0  0  0  0  0  0
   -5.1678   -2.1397   -0.3367 C   0  0  0  0  0  0  0  0  0  0  0  0
   -4.2285   -3.1134   -0.6010 C   0  0  0  0  0  0  0  0  0  0  0  0
   -2.9705   -2.4719   -0.6787 C   0  0  0  0  0  0  0  0  0  0  0  0
   -3.1700   -1.1252   -0.4330 C   0  0  0  0  0  0  0  0  0  0  0  0
   -0.0783    0.9832   -0.9741 C   0  0  0  0  0  0  0  0  0  0  0  0
    1.3512    0.5535   -1.3676 C   0  0  0  0  0  0  0  0  0  0  0  0
    7.7145    1.6816    0.1092 H   0  0  0  0  0  0  0  0  0  0  0  0
    8.3529   -0.5708   -0.7486 H   0  0  0  0  0  0  0  0  0  0  0  0
    6.7863   -2.4780   -0.4793 H   0  0  0  0  0  0  0  0  0  0  0  0
    4.6044   -2.1516    0.6347 H   0  0  0  0  0  0  0  0  0  0  0  0
    3.7433    0.8692    2.5389 H   0  0  0  0  0  0  0  0  0  0  0  0
    3.2574   -0.7599    2.1758 H   0  0  0  0  0  0  0  0  0  0  0  0
    1.6577    1.0588    1.3732 H   0  0  0  0  0  0  0  0  0  0  0  0
    2.9245    1.6649    0.3229 H   0  0  0  0  0  0  0  0  0  0  0  0
    1.7477   -1.8215    0.9867 H   0  0  0  0  0  0  0  0  0  0  0  0
    1.2037   -2.0240   -0.6547 H   0  0  0  0  0  0  0  0  0  0  0  0
   -0.7146   -1.8389    0.8159 H   0  0  0  0  0  0  0  0  0  0  0  0
   -0.1728   -0.3051    1.4827 H   0  0  0  0  0  0  0  0  0  0  0  0
   -3.8671    3.5310    0.1004 H   0  0  0  0  0  0  0  0  0  0  0  0
   -6.2861    3.9871    0.4017 H   0  0  0  0  0  0  0  0  0  0  0  0
   -7.9169    2.1166    0.3990 H   0  0  0  0  0  0  0  0  0  0  0  0
   -7.1470   -0.2022    0.0943 H   0  0  0  0  0  0  0  0  0  0  0  0
   -6.2378   -2.2231   -0.2144 H   0  0  0  0  0  0  0  0  0  0  0  0
   -4.4313   -4.1682   -0.7348 H   0  0  0  0  0  0  0  0  0  0  0  0
   -2.0189   -2.9395   -0.8944 H   0  0  0  0  0  0  0  0  0  0  0  0
   -0.5572    1.4229   -1.8575 H   0  0  0  0  0  0  0  0  0  0  0  0
   -0.0425    1.7541   -0.1947 H   0  0  0  0  0  0  0  0  0  0  0  0
    1.9202    1.4284   -1.7052 H   0  0  0  0  0  0  0  0  0  0  0  0
    1.2875   -0.1084   -2.2418 H   0  0  0  0  0  0  0  0  0  0  0  0
  1  2  1  0
  2  3  2  0
  3  4  1  0
  4  5  2  0
  5  6  1  0
  6  7  2  0
  7  8  1  0
  8  9  1  0
  9 10  1  0
 10 11  1  0
 11 12  1  0
 12 13  1  0
 13 14  1  0
 14 15  2  0
 15 16  1  0
 16 17  2  0
 17 18  1  0
 18 19  2  0
 19 20  1  0
 20 21  2  0
 21 22  1  0
 22 23  1  0
 23 24  2  0
 24 25  1  0
 25 26  2  0
 13 27  1  0
 27 28  1  0
  7  2  1  0
 28 10  1  0
 26 14  1  0
 21 16  1  0
 26 22  1  0
  3 29  1  0
  4 30  1  0
  5 31  1  0
  6 32  1  0
  8 33  1  0
  8 34  1  0
  9 35  1  0
  9 36  1  0
 11 37  1  0
 11 38  1  0
 12 39  1  0
 12 40  1  0
 17 41  1  0
 18 42  1  0
 19 43  1  0
 20 44  1  0
 23 45  1  0
 24 46  1  0
 25 47  1  0
 27 48  1  0
 27 49  1  0
 28 50  1  0
 28 51  1  0
M  END
$$$$
