
     RDKit          3D

 58 63  0  0  0  0  0  0  0  0999 V2000
    8.3746    0.2224    0.4784 C   0  0  0  0  0  0  0  0  0  0  0  0
    6.9725   -0.2799    0.4034 C   0  0  0  0  0  0  0  0  0  0  0  0
    6.2056   -0.8441    1.4019 C   0  0  0  0  0  0  0  0  0  0  0  0
    4.9003   -1.1923    0.9472 C   0  0  0  0  0  0  0  0  0  0  0  0
    4.7046   -0.8731   -0.3834 C   0  0  0  0  0  0  0  0  0  0  0  0
    3.5238   -1.0705   -1.2119 C   0  0  0  0  0  0  0  0  0  0  0  0
    3.5850   -1.5668   -2.3346 O   0  0  0  0  0  0  0  0  0  0  0  0
    2.2795   -0.7026   -0.6550 N   0  0  0  0  0  0  0  0  0  0  0  0
    2.1699    0.5128    0.1485 C   0  0  0  0  0  0  0  0  0  0  0  0
    0.8995    0.5265    0.9919 C   0  0  0  0  0  0  0  0  0  0  0  0
   -0.3778    0.3279    0.1297 C   0  0  0  0  0  0  0  0  0  0  0  0
   -0.1815   -1.0022   -0.6419 C   0  0  0  0  0  0  0  0  0  0  0  0
    1.1074   -1.0117   -1.4636 C   0  0  0  0  0  0  0  0  0  0  0  0
   -0.4649    1.3609   -0.8822 O   0  0  0  0  0  0  0  0  0  0  0  0
   -0.8628    2.5951   -0.4513 C   0  0  0  0  0  0  0  0  0  0  0  0
   -0.6045    3.6590   -1.3149 C   0  0  0  0  0  0  0  0  0  0  0  0
   -0.9605    4.9592   -0.9474 C   0  0  0  0  0  0  0  0  0  0  0  0
   -1.5780    5.1909    0.2820 C   0  0  0  0  0  0  0  0  0  0  0  0
   -2.0122    6.7944    0.7286 Cl  0  0  0  0  0  0  0  0  0  0  0  0
   -1.8525    4.1329    1.1453 C   0  0  0  0  0  0  0  0  0  0  0  0
   -1.5019    2.8332    0.7651 C   0  0  0  0  0  0  0  0  0  0  0  0
   -1.8240    1.6860    1.6360 C   0  0  0  0  0  0  0  0  0  0  0  0
   -2.2265    1.8861    2.7769 O   0  0  0  0  0  0  0  0  0  0  0  0
   -1.6715    0.3117    0.9929 C   0  0  0  0  0  0  0  0  0  0  0  0
   -2.9655    0.0153    0.2446 C   0  0  0  0  0  0  0  0  0  0  0  0
   -3.2090   -1.3742    0.7164 C   0  0  0  0  0  0  0  0  0  0  0  0
   -4.2675   -2.2259    0.1259 C   0  0  0  0  0  0  0  0  0  0  0  0
   -4.4236   -3.5366    0.5926 C   0  0  0  0  0  0  0  0  0  0  0  0
   -5.4180   -4.3590    0.0597 C   0  0  0  0  0  0  0  0  0  0  0  0
   -6.2598   -3.8771   -0.9410 C   0  0  0  0  0  0  0  0  0  0  0  0
   -6.1102   -2.5727   -1.4089 C   0  0  0  0  0  0  0  0  0  0  0  0
   -5.1173   -1.7456   -0.8774 C   0  0  0  0  0  0  0  0  0  0  0  0
   -2.4360   -1.7651    1.6770 N   0  0  0  0  0  0  0  0  0  0  0  0
   -1.5849   -0.6881    2.0111 O   0  0  0  0  0  0  0  0  0  0  0  0
    6.1167   -0.1962   -1.0769 S   0  0  0  0  0  0  0  0  0  0  0  0
    9.0112   -0.2682   -0.2645 H   0  0  0  0  0  0  0  0  0  0  0  0
    8.4059    1.3031    0.3069 H   0  0  0  0  0  0  0  0  0  0  0  0
    8.8077    0.0287    1.4650 H   0  0  0  0  0  0  0  0  0  0  0  0
    6.5623   -1.0006    2.4137 H   0  0  0  0  0  0  0  0  0  0  0  0
    4.1376   -1.6540    1.5651 H   0  0  0  0  0  0  0  0  0  0  0  0
    3.0304    0.6387    0.8071 H   0  0  0  0  0  0  0  0  0  0  0  0
    2.1878    1.3638   -0.5430 H   0  0  0  0  0  0  0  0  0  0  0  0
    0.8737    1.4777    1.5341 H   0  0  0  0  0  0  0  0  0  0  0  0
    0.9658   -0.2681    1.7457 H   0  0  0  0  0  0  0  0  0  0  0  0
   -1.0112   -1.1762   -1.3356 H   0  0  0  0  0  0  0  0  0  0  0  0
   -0.1540   -1.8440    0.0606 H   0  0  0  0  0  0  0  0  0  0  0  0
    1.2306   -2.0019   -1.9190 H   0  0  0  0  0  0  0  0  0  0  0  0
    1.0585   -0.2844   -2.2836 H   0  0  0  0  0  0  0  0  0  0  0  0
   -0.1162    3.4816   -2.2706 H   0  0  0  0  0  0  0  0  0  0  0  0
   -0.7510    5.7858   -1.6230 H   0  0  0  0  0  0  0  0  0  0  0  0
   -2.3429    4.3137    2.0999 H   0  0  0  0  0  0  0  0  0  0  0  0
   -3.8039    0.6445    0.5635 H   0  0  0  0  0  0  0  0  0  0  0  0
   -2.8664    0.0769   -0.8414 H   0  0  0  0  0  0  0  0  0  0  0  0
   -3.7771   -3.9246    1.3775 H   0  0  0  0  0  0  0  0  0  0  0  0
   -5.5359   -5.3747    0.4288 H   0  0  0  0  0  0  0  0  0  0  0  0
   -7.0360   -4.5174   -1.3531 H   0  0  0  0  0  0  0  0  0  0  0  0
   -6.7712   -2.1984   -2.1875 H   0  0  0  0  0  0  0  0  0  0  0  0
   -5.0347   -0.7324   -1.2582 H   0  0  0  0  0  0  0  0  0  0  0  0
  1  2  1  0
  2  3  2  0
  3  4  1  0
  4  5  2  0
  5  6  1  0
  6  7  2  0
  6  8  1  0
  8  9  1  0
  9 10  1  0
 10 11  1  0
 11 12  1  0
 12 13  1  0
 11 14  1  0
 14 15  1  0
 15 16  2  0
 16 17  1  0
 17 18  2  0
 18 19  1  0
 18 20  1  0
 20 21  2  0
 21 22  1  0
 22 23  2  0
 22 24  1  0
 24 25  1  0
 25 26  1  0
 26 27  1  0
 27 28  2  0
 28 29  1  0
 29 30  2  0
 30 31  1  0
 31 32  2  0
 26 33  2  0
 33 34  1  0
  5 35  1  0
 35  2  1  0
 13  8  1  0
 21 15  1  0
 34 24  1  0
 24 11  1  0
 32 27  1  0
  1 36  1  0
  1 37  1  0
  1 38  1  0
  3 39  1  0
  4 40  1  0
  9 41  1  0
  9 42  1  0
 10 43  1  0
 10 44  1  0
 12 45  1  0
 12 46  1  0
 13 47  1  0
 13 48  1  0
 16 49  1  0
 17 50  1  0
 20 51  1  0
 25 52  1  0
 25 53  1  0
 28 54  1  0
 29 55  1  0
 30 56  1  0
 31 57  1  0
 32 58  1  0
M  END
$$$$
