
     RDKit          3D

 67 72  0  0  0  0  0  0  0  0999 V2000
    3.4173    0.3933   -1.4781 O   0  0  0  0  0  0  0  0  0  0  0  0
    2.7679    0.7829   -0.5034 C   0  0  0  0  0  0  0  0  0  0  0  0
    3.4824    1.3763    0.7219 C   0  0  0  0  0  0  0  0  0  0  0  0
    3.7969    0.2895    1.7703 C   0  0  0  0  0  0  0  0  0  0  0  0
    4.8922   -0.6684    1.3664 C   0  0  0  0  0  0  0  0  0  0  0  0
    4.5931   -2.0120    1.1066 C   0  0  0  0  0  0  0  0  0  0  0  0
    5.5996   -2.9048    0.7374 C   0  0  0  0  0  0  0  0  0  0  0  0
    6.9162   -2.4647    0.6282 C   0  0  0  0  0  0  0  0  0  0  0  0
    7.2274   -1.1322    0.8910 C   0  0  0  0  0  0  0  0  0  0  0  0
    6.2213   -0.2374    1.2601 C   0  0  0  0  0  0  0  0  0  0  0  0
    2.6844    2.4475    1.3188 N   0  0  0  0  0  0  0  0  0  0  0  0
    1.3548    2.0993    1.5528 C   0  0  0  0  0  0  0  0  0  0  0  0
    0.8395    2.6480    2.6611 N   0  0  0  0  0  0  0  0  0  0  0  0
   -0.4467    2.3983    2.8827 C   0  0  0  0  0  0  0  0  0  0  0  0
   -1.2573    1.7134    2.0731 N   0  0  0  0  0  0  0  0  0  0  0  0
   -0.7373    1.2079    0.9340 C   0  0  0  0  0  0  0  0  0  0  0  0
   -1.6634    0.6829    0.0167 N   0  0  0  0  0  0  0  0  0  0  0  0
   -2.0004    1.6773   -1.0457 C   0  0  0  0  0  0  0  0  0  0  0  0
   -3.1108    2.6707   -0.6316 C   0  0  0  0  0  0  0  0  0  0  0  0
   -4.3204    1.9687   -0.1544 N   0  0  0  0  0  0  0  0  0  0  0  0
   -5.3202    1.5654   -1.0393 C   0  0  0  0  0  0  0  0  0  0  0  0
   -6.5551    1.1054   -0.5501 C   0  0  0  0  0  0  0  0  0  0  0  0
   -7.5921    0.7014   -1.3988 C   0  0  0  0  0  0  0  0  0  0  0  0
   -7.4263    0.7628   -2.7753 C   0  0  0  0  0  0  0  0  0  0  0  0
   -6.2298    1.2386   -3.2942 C   0  0  0  0  0  0  0  0  0  0  0  0
   -5.1980    1.6412   -2.4354 C   0  0  0  0  0  0  0  0  0  0  0  0
   -4.0046    1.0669    0.9817 C   0  0  0  0  0  0  0  0  0  0  0  0
   -2.8803    0.0659    0.6150 C   0  0  0  0  0  0  0  0  0  0  0  0
    0.6401    1.2876    0.6572 C   0  0  0  0  0  0  0  0  0  0  0  0
    1.3721    0.6380   -0.4115 N   0  0  0  0  0  0  0  0  0  0  0  0
    0.7834   -0.3080   -1.3505 C   0  0  0  0  0  0  0  0  0  0  0  0
    1.0083   -1.7541   -0.9456 C   0  0  0  0  0  0  0  0  0  0  0  0
    1.9786   -2.5291   -1.6012 C   0  0  0  0  0  0  0  0  0  0  0  0
    2.1979   -3.8591   -1.2352 C   0  0  0  0  0  0  0  0  0  0  0  0
    1.4525   -4.4220   -0.2035 C   0  0  0  0  0  0  0  0  0  0  0  0
    1.7602   -6.2149    0.3077 Br  0  0  0  0  0  0  0  0  0  0  0  0
    0.4882   -3.6686    0.4616 C   0  0  0  0  0  0  0  0  0  0  0  0
    0.2674   -2.3400    0.0900 C   0  0  0  0  0  0  0  0  0  0  0  0
    4.4082    1.8392    0.3602 H   0  0  0  0  0  0  0  0  0  0  0  0
    2.8909   -0.2814    2.0138 H   0  0  0  0  0  0  0  0  0  0  0  0
    4.1040    0.7612    2.7142 H   0  0  0  0  0  0  0  0  0  0  0  0
    3.5717   -2.3758    1.1880 H   0  0  0  0  0  0  0  0  0  0  0  0
    5.3536   -3.9433    0.5340 H   0  0  0  0  0  0  0  0  0  0  0  0
    7.6993   -3.1601    0.3387 H   0  0  0  0  0  0  0  0  0  0  0  0
    8.2550   -0.7897    0.8070 H   0  0  0  0  0  0  0  0  0  0  0  0
    6.4863    0.7969    1.4659 H   0  0  0  0  0  0  0  0  0  0  0  0
    3.0613    2.8879    2.1525 H   0  0  0  0  0  0  0  0  0  0  0  0
   -0.8815    2.8012    3.7902 H   0  0  0  0  0  0  0  0  0  0  0  0
   -1.1125    2.2367   -1.3662 H   0  0  0  0  0  0  0  0  0  0  0  0
   -2.3323    1.1085   -1.9220 H   0  0  0  0  0  0  0  0  0  0  0  0
   -3.3394    3.3629   -1.4499 H   0  0  0  0  0  0  0  0  0  0  0  0
   -2.7411    3.3031    0.1855 H   0  0  0  0  0  0  0  0  0  0  0  0
   -6.7470    1.0902    0.5193 H   0  0  0  0  0  0  0  0  0  0  0  0
   -8.5300    0.3546   -0.9764 H   0  0  0  0  0  0  0  0  0  0  0  0
   -8.2284    0.4560   -3.4396 H   0  0  0  0  0  0  0  0  0  0  0  0
   -6.0924    1.3048   -4.3701 H   0  0  0  0  0  0  0  0  0  0  0  0
   -4.2910    2.0057   -2.9038 H   0  0  0  0  0  0  0  0  0  0  0  0
   -3.7061    1.6920    1.8293 H   0  0  0  0  0  0  0  0  0  0  0  0
   -4.8717    0.5009    1.3351 H   0  0  0  0  0  0  0  0  0  0  0  0
   -3.2760   -0.6374   -0.1288 H   0  0  0  0  0  0  0  0  0  0  0  0
   -2.6151   -0.5405    1.4904 H   0  0  0  0  0  0  0  0  0  0  0  0
    1.2487   -0.1436   -2.3322 H   0  0  0  0  0  0  0  0  0  0  0  0
   -0.2700   -0.1471   -1.5503 H   0  0  0  0  0  0  0  0  0  0  0  0
    2.5843   -2.0925   -2.3950 H   0  0  0  0  0  0  0  0  0  0  0  0
    2.9578   -4.4367   -1.7542 H   0  0  0  0  0  0  0  0  0  0  0  0
   -0.0955   -4.1027    1.2684 H   0  0  0  0  0  0  0  0  0  0  0  0
   -0.4900   -1.7651    0.6154 H   0  0  0  0  0  0  0  0  0  0  0  0
  1  2  2  0
  2  3  1  0
  3  4  1  0
  4  5  1  0
  5  6  2  0
  6  7  1  0
  7  8  2  0
  8  9  1  0
  9 10  2  0
  3 11  1  0
 11 12  1  0
 12 13  2  0
 13 14  1  0
 14 15  2  0
 15 16  1  0
 16 17  1  0
 17 18  1  0
 18 19  1  0
 19 20  1  0
 20 21  1  0
 21 22  2  0
 22 23  1  0
 23 24  2  0
 24 25  1  0
 25 26  2  0
 20 27  1  0
 27 28  1  0
 16 29  2  0
 29 30  1  0
 30 31  1  0
 31 32  1  0
 32 33  2  0
 33 34  1  0
 34 35  2  0
 35 36  1  0
 35 37  1  0
 37 38  2  0
 30  2  1  0
 38 32  1  0
 10  5  1  0
 29 12  1  0
 28 17  1  0
 26 21  1  0
  3 39  1  0
  4 40  1  0
  4 41  1  0
  6 42  1  0
  7 43  1  0
  8 44  1  0
  9 45  1  0
 10 46  1  0
 11 47  1  0
 14 48  1  0
 18 49  1  0
 18 50  1  0
 19 51  1  0
 19 52  1  0
 22 53  1  0
 23 54  1  0
 24 55  1  0
 25 56  1  0
 26 57  1  0
 27 58  1  0
 27 59  1  0
 28 60  1  0
 28 61  1  0
 31 62  1  0
 31 63  1  0
 33 64  1  0
 34 65  1  0
 37 66  1  0
 38 67  1  0
M  END
$$$$
