
     RDKit          3D

 36 37  0  0  0  0  0  0  0  0999 V2000
   -1.5676    0.7790    1.8974 O   0  0  0  0  0  0  0  0  0  0  0  0
   -0.9597    1.1691    0.9053 C   0  0  0  0  0  0  0  0  0  0  0  0
   -0.0510    2.4002    0.9363 C   0  0  0  0  0  0  0  0  0  0  0  0
    1.3097    2.0845    1.2401 O   0  0  0  0  0  0  0  0  0  0  0  0
    2.0124    1.5395    0.2203 C   0  0  0  0  0  0  0  0  0  0  0  0
    1.5776    1.3027   -0.8968 O   0  0  0  0  0  0  0  0  0  0  0  0
    3.4123    1.2547    0.6326 C   0  0  0  0  0  0  0  0  0  0  0  0
    3.8702    1.4701    1.9393 C   0  0  0  0  0  0  0  0  0  0  0  0
    5.1965    1.1824    2.2632 C   0  0  0  0  0  0  0  0  0  0  0  0
    5.7579    1.4513    3.8678 Cl  0  0  0  0  0  0  0  0  0  0  0  0
    6.0727    0.6827    1.3033 C   0  0  0  0  0  0  0  0  0  0  0  0
    5.6126    0.4675    0.0071 C   0  0  0  0  0  0  0  0  0  0  0  0
    6.6854   -0.1503   -1.1855 Cl  0  0  0  0  0  0  0  0  0  0  0  0
    4.2907    0.7490   -0.3347 C   0  0  0  0  0  0  0  0  0  0  0  0
   -1.0296    0.5513   -0.3266 N   0  0  0  0  0  0  0  0  0  0  0  0
   -1.6904   -0.7311   -0.5067 C   0  0  0  0  0  0  0  0  0  0  0  0
   -3.1855   -0.7333   -0.1596 C   0  0  0  0  0  0  0  0  0  0  0  0
   -3.8741   -1.8756   -0.7407 N   0  0  0  0  0  0  0  0  0  0  0  0
   -4.6242   -1.8131   -1.8892 C   0  0  0  0  0  0  0  0  0  0  0  0
   -4.7638   -0.6165   -2.5264 O   0  0  0  0  0  0  0  0  0  0  0  0
   -5.1506   -2.9816   -2.2736 C   0  0  0  0  0  0  0  0  0  0  0  0
   -4.7113   -4.2600   -1.1824 S   0  0  0  0  0  0  0  0  0  0  0  0
   -3.7594   -3.1401   -0.1860 C   0  0  0  0  0  0  0  0  0  0  0  0
   -3.1170   -3.4842    0.7918 O   0  0  0  0  0  0  0  0  0  0  0  0
   -0.1220    2.9539   -0.0092 H   0  0  0  0  0  0  0  0  0  0  0  0
   -0.4226    3.0738    1.7166 H   0  0  0  0  0  0  0  0  0  0  0  0
    3.2052    1.8561    2.7077 H   0  0  0  0  0  0  0  0  0  0  0  0
    7.1037    0.4611    1.5623 H   0  0  0  0  0  0  0  0  0  0  0  0
    3.9464    0.5748   -1.3517 H   0  0  0  0  0  0  0  0  0  0  0  0
   -0.2441    0.7441   -0.9489 H   0  0  0  0  0  0  0  0  0  0  0  0
   -1.1575   -1.4733    0.0978 H   0  0  0  0  0  0  0  0  0  0  0  0
   -1.5489   -0.9994   -1.5605 H   0  0  0  0  0  0  0  0  0  0  0  0
   -3.3120   -0.7879    0.9279 H   0  0  0  0  0  0  0  0  0  0  0  0
   -3.6641    0.1965   -0.4884 H   0  0  0  0  0  0  0  0  0  0  0  0
   -5.3265   -0.7477   -3.3084 H   0  0  0  0  0  0  0  0  0  0  0  0
   -5.7712   -3.1502   -3.1416 H   0  0  0  0  0  0  0  0  0  0  0  0
  1  2  2  0
  2  3  1  0
  3  4  1  0
  4  5  1  0
  5  6  2  0
  5  7  1  0
  7  8  2  0
  8  9  1  0
  9 10  1  0
  9 11  2  0
 11 12  1  0
 12 13  1  0
 12 14  2  0
  2 15  1  0
 15 16  1  0
 16 17  1  0
 17 18  1  0
 18 19  1  0
 19 20  1  0
 19 21  2  0
 21 22  1  0
 22 23  1  0
 23 24  2  0
 14  7  1  0
 23 18  1  0
  3 25  1  0
  3 26  1  0
  8 27  1  0
 11 28  1  0
 14 29  1  0
 15 30  1  0
 16 31  1  0
 16 32  1  0
 17 33  1  0
 17 34  1  0
 20 35  1  0
 21 36  1  0
M  END
$$$$
