
     RDKit          3D

 47 49  0  0  0  0  0  0  0  0999 V2000
   -3.3296   -1.3026   -2.3397 C   0  0  0  0  0  0  0  0  0  0  0  0
   -3.0058   -0.2134   -1.3307 C   0  0  0  0  0  0  0  0  0  0  0  0
   -3.3852   -0.6087    0.0328 N   0  0  0  0  0  4  0  0  0  0  0  0
   -2.5480   -1.2072    0.8697 C   0  0  0  0  0  0  0  0  0  0  0  0
   -1.1960   -1.5488    0.6355 C   0  0  0  0  0  0  0  0  0  0  0  0
   -0.1854   -0.6655    0.6796 C   0  0  0  0  0  0  0  0  0  0  0  0
   -0.2616    0.7492    0.9967 C   0  0  0  0  0  0  0  0  0  0  0  0
    0.7590    1.6198    0.9217 C   0  0  0  0  0  0  0  0  0  0  0  0
    2.1202    1.2982    0.4901 C   0  0  0  0  0  0  0  0  0  0  0  0
    3.0347    0.7396    1.3787 C   0  0  0  0  0  0  0  0  0  0  0  0
    4.3275    0.4071    0.9477 C   0  0  0  0  0  0  0  0  0  0  0  0
    4.7619    0.6284   -0.3717 C   0  0  0  0  0  0  0  0  0  0  0  0
    6.0440    0.2721   -0.8059 N   0  0  0  0  0  0  0  0  0  0  0  0
    7.0573   -0.0931    0.1848 C   0  0  0  0  0  0  0  0  0  0  0  0
    6.5647    0.8760   -2.0335 C   0  0  0  0  0  0  0  0  0  0  0  0
    3.8096    1.1881   -1.2433 C   0  0  0  0  0  0  0  0  0  0  0  0
    2.5131    1.5240   -0.8255 C   0  0  0  0  0  0  0  0  0  0  0  0
   -3.3222   -1.5950    2.3485 S   0  0  0  0  0  0  0  0  0  0  0  0
   -4.8063   -0.8947    1.8340 C   0  0  0  0  0  0  0  0  0  0  0  0
   -6.0174   -0.7940    2.5359 C   0  0  0  0  0  0  0  0  0  0  0  0
   -7.1009   -0.1880    1.8959 C   0  0  0  0  0  0  0  0  0  0  0  0
   -6.9831    0.2992    0.5983 C   0  0  0  0  0  0  0  0  0  0  0  0
   -5.7721    0.1965   -0.0975 C   0  0  0  0  0  0  0  0  0  0  0  0
   -4.6662   -0.4069    0.5365 C   0  0  0  0  0  0  0  0  0  0  0  0
   -2.7916   -2.2262   -2.1040 H   0  0  0  0  0  0  0  0  0  0  0  0
   -4.3995   -1.5324   -2.3428 H   0  0  0  0  0  0  0  0  0  0  0  0
   -3.0438   -0.9861   -3.3473 H   0  0  0  0  0  0  0  0  0  0  0  0
   -3.5223    0.7154   -1.5963 H   0  0  0  0  0  0  0  0  0  0  0  0
   -1.9400    0.0269   -1.3806 H   0  0  0  0  0  0  0  0  0  0  0  0
   -0.9666   -2.5942    0.4350 H   0  0  0  0  0  0  0  0  0  0  0  0
    0.8143   -1.0569    0.4765 H   0  0  0  0  0  0  0  0  0  0  0  0
   -1.2112    1.1472    1.3477 H   0  0  0  0  0  0  0  0  0  0  0  0
    0.6068    2.6629    1.1940 H   0  0  0  0  0  0  0  0  0  0  0  0
    2.7591    0.5513    2.4137 H   0  0  0  0  0  0  0  0  0  0  0  0
    4.9901   -0.0321    1.6875 H   0  0  0  0  0  0  0  0  0  0  0  0
    7.9997   -0.3753   -0.2982 H   0  0  0  0  0  0  0  0  0  0  0  0
    6.7466   -0.9679    0.7661 H   0  0  0  0  0  0  0  0  0  0  0  0
    7.2674    0.7438    0.8599 H   0  0  0  0  0  0  0  0  0  0  0  0
    5.9769    0.5701   -2.9054 H   0  0  0  0  0  0  0  0  0  0  0  0
    7.5910    0.5484   -2.2346 H   0  0  0  0  0  0  0  0  0  0  0  0
    6.5758    1.9691   -1.9608 H   0  0  0  0  0  0  0  0  0  0  0  0
    4.0522    1.3751   -2.2851 H   0  0  0  0  0  0  0  0  0  0  0  0
    1.8245    1.9585   -1.5451 H   0  0  0  0  0  0  0  0  0  0  0  0
   -6.1182   -1.1773    3.5491 H   0  0  0  0  0  0  0  0  0  0  0  0
   -8.0522   -0.0993    2.4213 H   0  0  0  0  0  0  0  0  0  0  0  0
   -7.8458    0.7645    0.1212 H   0  0  0  0  0  0  0  0  0  0  0  0
   -5.7256    0.5864   -1.1102 H   0  0  0  0  0  0  0  0  0  0  0  0
  1  2  1  0
  2  3  1  0
  3  4  2  0
  4  5  1  0
  5  6  2  3
  6  7  1  0
  7  8  2  3
  8  9  1  0
  9 10  2  0
 10 11  1  0
 11 12  2  0
 12 13  1  0
 13 14  1  0
 13 15  1  0
 12 16  1  0
 16 17  2  0
  4 18  1  0
 18 19  1  0
 19 20  2  0
 20 21  1  0
 21 22  2  0
 22 23  1  0
 23 24  2  0
 24  3  1  0
 17  9  1  0
 24 19  1  0
  1 25  1  0
  1 26  1  0
  1 27  1  0
  2 28  1  0
  2 29  1  0
  5 30  1  0
  6 31  1  0
  7 32  1  0
  8 33  1  0
 10 34  1  0
 11 35  1  0
 14 36  1  0
 14 37  1  0
 14 38  1  0
 15 39  1  0
 15 40  1  0
 15 41  1  0
 16 42  1  0
 17 43  1  0
 20 44  1  0
 21 45  1  0
 22 46  1  0
 23 47  1  0
M  CHG  1   3   1
M  END
$$$$
