
     RDKit          3D

 48 51  0  0  0  0  0  0  0  0999 V2000
   -1.3337    3.0358   -0.6230 C   0  0  0  0  0  0  0  0  0  0  0  0
   -1.0845    2.1993   -1.8659 C   0  0  0  0  0  0  0  0  0  0  0  0
   -1.1581    0.7812   -1.6033 N   0  0  0  0  0  0  0  0  0  0  0  0
   -2.2573   -0.0255   -1.7566 C   0  0  0  0  0  0  0  0  0  0  0  0
   -3.8233    0.5326   -2.2330 S   0  0  0  0  0  0  0  0  0  0  0  0
   -4.8879   -0.6817   -1.3848 C   0  0  0  0  0  0  0  0  0  0  0  0
   -5.0774   -0.3521    0.0778 C   0  0  0  0  0  0  0  0  0  0  0  0
   -4.2264   -0.9020    1.0512 C   0  0  0  0  0  0  0  0  0  0  0  0
   -4.3862   -0.5732    2.3963 C   0  0  0  0  0  0  0  0  0  0  0  0
   -5.3967    0.3018    2.7726 C   0  0  0  0  0  0  0  0  0  0  0  0
   -5.5488    0.6179    4.0656 F   0  0  0  0  0  0  0  0  0  0  0  0
   -6.2497    0.8587    1.8279 C   0  0  0  0  0  0  0  0  0  0  0  0
   -6.0911    0.5327    0.4806 C   0  0  0  0  0  0  0  0  0  0  0  0
   -1.9422   -1.2651   -1.4782 N   0  0  0  0  0  0  0  0  0  0  0  0
   -0.6292   -1.2827   -1.0980 N   0  0  0  0  0  0  0  0  0  0  0  0
   -0.1562   -0.0516   -1.1524 C   0  0  0  0  0  0  0  0  0  0  0  0
    1.3202    0.2721   -0.7672 C   0  0  0  0  0  0  0  0  0  0  0  0
    2.0178    1.4833   -0.7860 C   0  0  0  0  0  0  0  0  0  0  0  0
    3.2820    1.3447   -0.3954 N   0  0  0  0  0  0  0  0  0  0  0  0
    3.4545   -0.0017   -0.2534 N   0  0  0  0  0  0  0  0  0  0  0  0
    4.7872   -0.5093   -0.1788 C   0  0  0  0  0  0  0  0  0  0  0  0
    5.1027   -1.8306   -0.5224 C   0  0  0  0  0  0  0  0  0  0  0  0
    6.4270   -2.2786   -0.4491 C   0  0  0  0  0  0  0  0  0  0  0  0
    7.4448   -1.4133   -0.0500 C   0  0  0  0  0  0  0  0  0  0  0  0
    7.1455   -0.0908    0.2635 C   0  0  0  0  0  0  0  0  0  0  0  0
    5.8258    0.3634    0.1912 C   0  0  0  0  0  0  0  0  0  0  0  0
    2.2303   -0.6457   -0.2644 C   0  0  0  0  0  0  0  0  0  0  0  0
    2.0269   -2.0108    0.2487 C   0  0  0  0  0  0  0  0  0  0  0  0
    2.9730   -2.3781    1.1521 F   0  0  0  0  0  0  0  0  0  0  0  0
    2.0501   -2.9364   -0.7415 F   0  0  0  0  0  0  0  0  0  0  0  0
    0.8509   -2.1468    0.9103 F   0  0  0  0  0  0  0  0  0  0  0  0
   -1.2886    4.1009   -0.8653 H   0  0  0  0  0  0  0  0  0  0  0  0
   -0.5891    2.8327    0.1536 H   0  0  0  0  0  0  0  0  0  0  0  0
   -2.3190    2.8247   -0.1970 H   0  0  0  0  0  0  0  0  0  0  0  0
   -0.1064    2.4155   -2.3059 H   0  0  0  0  0  0  0  0  0  0  0  0
   -1.8138    2.4524   -2.6422 H   0  0  0  0  0  0  0  0  0  0  0  0
   -5.8658   -0.6714   -1.8838 H   0  0  0  0  0  0  0  0  0  0  0  0
   -4.5035   -1.7008   -1.5136 H   0  0  0  0  0  0  0  0  0  0  0  0
   -3.4275   -1.5846    0.7654 H   0  0  0  0  0  0  0  0  0  0  0  0
   -3.7291   -0.9938    3.1496 H   0  0  0  0  0  0  0  0  0  0  0  0
   -7.0313    1.5403    2.1489 H   0  0  0  0  0  0  0  0  0  0  0  0
   -6.7601    0.9743   -0.2544 H   0  0  0  0  0  0  0  0  0  0  0  0
    1.6870    2.4761   -1.0492 H   0  0  0  0  0  0  0  0  0  0  0  0
    4.3609   -2.5352   -0.8898 H   0  0  0  0  0  0  0  0  0  0  0  0
    6.6649   -3.3048   -0.7140 H   0  0  0  0  0  0  0  0  0  0  0  0
    8.4721   -1.7667    0.0043 H   0  0  0  0  0  0  0  0  0  0  0  0
    7.9383    0.5906    0.5644 H   0  0  0  0  0  0  0  0  0  0  0  0
    5.6210    1.4022    0.4430 H   0  0  0  0  0  0  0  0  0  0  0  0
  1  2  1  0
  2  3  1  0
  3  4  1  0
  4  5  1  0
  5  6  1  0
  6  7  1  0
  7  8  2  0
  8  9  1  0
  9 10  2  0
 10 11  1  0
 10 12  1  0
 12 13  2  0
  4 14  2  0
 14 15  1  0
 15 16  2  0
 16 17  1  0
 17 18  1  0
 18 19  2  0
 19 20  1  0
 20 21  1  0
 21 22  2  0
 22 23  1  0
 23 24  2  0
 24 25  1  0
 25 26  2  0
 20 27  1  0
 27 28  1  0
 28 29  1  0
 28 30  1  0
 28 31  1  0
 16  3  1  0
 27 17  2  0
 13  7  1  0
 26 21  1  0
  1 32  1  0
  1 33  1  0
  1 34  1  0
  2 35  1  0
  2 36  1  0
  6 37  1  0
  6 38  1  0
  8 39  1  0
  9 40  1  0
 12 41  1  0
 13 42  1  0
 18 43  1  0
 22 44  1  0
 23 45  1  0
 24 46  1  0
 25 47  1  0
 26 48  1  0
M  END
$$$$
