
     RDKit          3D

 36 37  0  0  0  0  0  0  0  0999 V2000
    0.3581    2.9203    2.1603 O   0  0  0  0  0  0  0  0  0  0  0  0
    0.4357    1.6998    2.2674 C   0  0  0  0  0  0  0  0  0  0  0  0
   -0.7238    0.8452    2.7755 C   0  0  0  0  0  0  0  0  0  0  0  0
   -1.7037    0.6541    1.7523 O   0  0  0  0  0  0  0  0  0  0  0  0
   -1.5091   -0.3952    0.9210 C   0  0  0  0  0  0  0  0  0  0  0  0
   -0.6165   -1.2278    1.0024 O   0  0  0  0  0  0  0  0  0  0  0  0
   -2.5553   -0.4173   -0.1384 C   0  0  0  0  0  0  0  0  0  0  0  0
   -2.6070   -1.5226   -1.0006 C   0  0  0  0  0  0  0  0  0  0  0  0
   -3.5671   -1.5816   -2.0152 C   0  0  0  0  0  0  0  0  0  0  0  0
   -4.4751   -0.5357   -2.1703 C   0  0  0  0  0  0  0  0  0  0  0  0
   -5.7708   -0.6157   -3.5436 Br  0  0  0  0  0  0  0  0  0  0  0  0
   -4.4345    0.5678   -1.3194 C   0  0  0  0  0  0  0  0  0  0  0  0
   -3.4747    0.6288   -0.3043 C   0  0  0  0  0  0  0  0  0  0  0  0
    1.5551    0.9822    1.9203 N   0  0  0  0  0  0  0  0  0  0  0  0
    2.7023    1.6026    1.2781 C   0  0  0  0  0  0  0  0  0  0  0  0
    3.7417    0.5695    0.8173 C   0  0  0  0  0  0  0  0  0  0  0  0
    3.2885   -0.2033   -0.3316 N   0  0  0  0  0  0  0  0  0  0  0  0
    2.3938   -1.2424   -0.2521 C   0  0  0  0  0  0  0  0  0  0  0  0
    1.9442   -1.6337    0.9745 O   0  0  0  0  0  0  0  0  0  0  0  0
    2.0044   -1.7400   -1.4304 C   0  0  0  0  0  0  0  0  0  0  0  0
    2.7741   -0.9107   -2.7470 S   0  0  0  0  0  0  0  0  0  0  0  0
    3.6155    0.1778   -1.6244 C   0  0  0  0  0  0  0  0  0  0  0  0
    4.3304    1.0984   -1.9839 O   0  0  0  0  0  0  0  0  0  0  0  0
   -1.1999    1.3812    3.6037 H   0  0  0  0  0  0  0  0  0  0  0  0
   -0.3681   -0.1085    3.1828 H   0  0  0  0  0  0  0  0  0  0  0  0
   -1.9038   -2.3445   -0.8880 H   0  0  0  0  0  0  0  0  0  0  0  0
   -3.5973   -2.4432   -2.6780 H   0  0  0  0  0  0  0  0  0  0  0  0
   -5.1408    1.3859   -1.4380 H   0  0  0  0  0  0  0  0  0  0  0  0
   -3.4536    1.5035    0.3425 H   0  0  0  0  0  0  0  0  0  0  0  0
    1.4716   -0.0284    1.8311 H   0  0  0  0  0  0  0  0  0  0  0  0
    2.3426    2.2014    0.4334 H   0  0  0  0  0  0  0  0  0  0  0  0
    3.1492    2.2857    2.0088 H   0  0  0  0  0  0  0  0  0  0  0  0
    4.6588    1.0998    0.5359 H   0  0  0  0  0  0  0  0  0  0  0  0
    4.0007   -0.1204    1.6293 H   0  0  0  0  0  0  0  0  0  0  0  0
    1.0347   -1.9889    0.8534 H   0  0  0  0  0  0  0  0  0  0  0  0
    1.2995   -2.5443   -1.5792 H   0  0  0  0  0  0  0  0  0  0  0  0
  1  2  2  0
  2  3  1  0
  3  4  1  0
  4  5  1  0
  5  6  2  0
  5  7  1  0
  7  8  2  0
  8  9  1  0
  9 10  2  0
 10 11  1  0
 10 12  1  0
 12 13  2  0
  2 14  1  0
 14 15  1  0
 15 16  1  0
 16 17  1  0
 17 18  1  0
 18 19  1  0
 18 20  2  0
 20 21  1  0
 21 22  1  0
 22 23  2  0
 13  7  1  0
 22 17  1  0
  3 24  1  0
  3 25  1  0
  8 26  1  0
  9 27  1  0
 12 28  1  0
 13 29  1  0
 14 30  1  0
 15 31  1  0
 15 32  1  0
 16 33  1  0
 16 34  1  0
 19 35  1  0
 20 36  1  0
M  END
$$$$
