
     RDKit          3D

 40 42  0  0  0  0  0  0  0  0999 V2000
   -4.0573   -2.2150    1.1084 C   0  0  0  0  0  0  0  0  0  0  0  0
   -4.8197   -1.0938    0.4543 C   0  0  0  0  0  0  0  0  0  0  0  0
   -6.2240   -1.1762    0.4236 C   0  0  0  0  0  0  0  0  0  0  0  0
   -6.9866   -0.1707   -0.1654 C   0  0  0  0  0  0  0  0  0  0  0  0
   -6.3547    0.9284   -0.7324 C   0  0  0  0  0  0  0  0  0  0  0  0
   -4.9608    1.0251   -0.7101 C   0  0  0  0  0  0  0  0  0  0  0  0
   -4.1772    0.0272   -0.1187 C   0  0  0  0  0  0  0  0  0  0  0  0
   -2.7633    0.0935   -0.0880 N   0  0  0  0  0  0  0  0  0  0  0  0
   -1.9536    1.1337   -0.5081 C   0  0  0  0  0  0  0  0  0  0  0  0
   -2.3062    2.2318   -0.9188 O   0  0  0  0  0  0  0  0  0  0  0  0
   -0.4927    0.8629   -0.3954 C   0  0  0  0  0  0  0  0  0  0  0  0
    0.3564    1.9027   -0.0068 C   0  0  0  0  0  0  0  0  0  0  0  0
    1.7345    1.6847    0.1107 C   0  0  0  0  0  0  0  0  0  0  0  0
    2.2796    0.4308   -0.1721 C   0  0  0  0  0  0  0  0  0  0  0  0
    3.6501    0.1290   -0.0818 N   0  0  0  0  0  0  0  0  0  0  0  0
    4.6908    0.9552    0.3062 C   0  0  0  0  0  0  0  0  0  0  0  0
    4.5800    2.1252    0.6560 O   0  0  0  0  0  0  0  0  0  0  0  0
    5.9780    0.2826    0.2645 C   0  0  0  0  0  0  0  0  0  0  0  0
    7.2503    0.7326    0.5635 C   0  0  0  0  0  0  0  0  0  0  0  0
    8.1303   -0.3536    0.3435 C   0  0  0  0  0  0  0  0  0  0  0  0
    7.3468   -1.4022   -0.0758 C   0  0  0  0  0  0  0  0  0  0  0  0
    6.0410   -1.0320   -0.1281 O   0  0  0  0  0  0  0  0  0  0  0  0
    1.4257   -0.6027   -0.5821 C   0  0  0  0  0  0  0  0  0  0  0  0
    0.0472   -0.3915   -0.6972 C   0  0  0  0  0  0  0  0  0  0  0  0
   -4.7281   -2.9905    1.4937 H   0  0  0  0  0  0  0  0  0  0  0  0
   -3.4757   -1.8359    1.9549 H   0  0  0  0  0  0  0  0  0  0  0  0
   -3.3880   -2.6921    0.3851 H   0  0  0  0  0  0  0  0  0  0  0  0
   -6.7358   -2.0301    0.8626 H   0  0  0  0  0  0  0  0  0  0  0  0
   -8.0705   -0.2451   -0.1823 H   0  0  0  0  0  0  0  0  0  0  0  0
   -6.9411    1.7175   -1.1962 H   0  0  0  0  0  0  0  0  0  0  0  0
   -4.5151    1.9000   -1.1730 H   0  0  0  0  0  0  0  0  0  0  0  0
   -2.2963   -0.6813    0.3596 H   0  0  0  0  0  0  0  0  0  0  0  0
   -0.0504    2.8894    0.2081 H   0  0  0  0  0  0  0  0  0  0  0  0
    2.3521    2.5229    0.4192 H   0  0  0  0  0  0  0  0  0  0  0  0
    3.9361   -0.8126   -0.3291 H   0  0  0  0  0  0  0  0  0  0  0  0
    7.4982    1.7309    0.8992 H   0  0  0  0  0  0  0  0  0  0  0  0
    9.2035   -0.3700    0.4741 H   0  0  0  0  0  0  0  0  0  0  0  0
    7.5564   -2.4240   -0.3616 H   0  0  0  0  0  0  0  0  0  0  0  0
    1.8236   -1.5848   -0.8275 H   0  0  0  0  0  0  0  0  0  0  0  0
   -0.5834   -1.2022   -1.0523 H   0  0  0  0  0  0  0  0  0  0  0  0
  1  2  1  0
  2  3  2  0
  3  4  1  0
  4  5  2  0
  5  6  1  0
  6  7  2  0
  7  8  1  0
  8  9  1  0
  9 10  2  0
  9 11  1  0
 11 12  2  0
 12 13  1  0
 13 14  2  0
 14 15  1  0
 15 16  1  0
 16 17  2  0
 16 18  1  0
 18 19  2  0
 19 20  1  0
 20 21  2  0
 21 22  1  0
 14 23  1  0
 23 24  2  0
  7  2  1  0
 24 11  1  0
 22 18  1  0
  1 25  1  0
  1 26  1  0
  1 27  1  0
  3 28  1  0
  4 29  1  0
  5 30  1  0
  6 31  1  0
  8 32  1  0
 12 33  1  0
 13 34  1  0
 15 35  1  0
 19 36  1  0
 20 37  1  0
 21 38  1  0
 23 39  1  0
 24 40  1  0
M  END
$$$$
