
     RDKit          3D

 58 59  0  0  0  0  0  0  0  0999 V2000
    9.1276   -1.0369   -3.5741 C   0  0  0  0  0  0  0  0  0  0  0  0
    9.5403   -1.8078   -2.3290 C   0  0  0  0  0  0  0  0  0  0  0  0
    9.1068   -1.1330   -1.0286 C   0  0  0  0  0  0  0  0  0  0  0  0
    7.5916   -1.0869   -0.8375 C   0  0  0  0  0  0  0  0  0  0  0  0
    7.3343   -0.5063    0.4426 O   0  0  0  0  0  0  0  0  0  0  0  0
    6.0272   -0.3913    0.8263 C   0  0  0  0  0  0  0  0  0  0  0  0
    5.8390    0.1865    2.0839 C   0  0  0  0  0  0  0  0  0  0  0  0
    4.5538    0.3597    2.6043 C   0  0  0  0  0  0  0  0  0  0  0  0
    3.4359   -0.0396    1.8643 C   0  0  0  0  0  0  0  0  0  0  0  0
    2.0855    0.1509    2.4662 C   0  0  0  0  0  0  0  0  0  0  0  0
    1.9571    0.2804    3.6792 O   0  0  0  0  0  0  0  0  0  0  0  0
    1.0184    0.1971    1.5981 N   0  0  0  0  0  0  0  0  0  0  0  0
   -0.3290    0.4336    2.0919 C   0  0  0  0  0  0  0  0  0  0  0  0
   -1.3274    0.3143    0.9531 C   0  0  0  0  0  0  0  0  0  0  0  0
   -1.0221    0.2877   -0.2347 O   0  0  0  0  0  0  0  0  0  0  0  0
   -2.5970    0.2699    1.4348 O   0  0  0  0  0  0  0  0  0  0  0  0
   -3.6038    0.1220    0.4256 C   0  0  0  0  0  0  0  0  0  0  0  0
   -4.9632   -0.0409    1.0986 C   0  0  0  0  0  0  0  0  0  0  0  0
   -5.0698   -0.4213    2.2702 O   0  0  0  0  0  0  0  0  0  0  0  0
   -6.1938    0.3156    0.3171 C   0  0  0  0  0  0  0  0  0  0  0  0
   -7.2398    0.9045    0.9411 C   0  0  0  0  0  0  0  0  0  0  0  0
   -7.2211    1.1818    2.3054 N   0  0  0  0  0  0  0  0  0  0  0  0
   -8.3594    1.2649    0.1960 N   0  0  0  0  0  0  0  0  0  0  0  0
   -9.4468    1.9995    0.8435 C   0  0  0  0  0  0  0  0  0  0  0  0
   -8.5058    0.9912   -1.1622 C   0  0  0  0  0  0  0  0  0  0  0  0
   -9.5090    1.3161   -1.8006 O   0  0  0  0  0  0  0  0  0  0  0  0
   -7.4482    0.3348   -1.7681 N   0  0  0  0  0  0  0  0  0  0  0  0
   -7.5671    0.0550   -3.1885 C   0  0  0  0  0  0  0  0  0  0  0  0
   -6.2605    0.0513   -1.1347 C   0  0  0  0  0  0  0  0  0  0  0  0
   -5.2798   -0.4132   -1.7148 O   0  0  0  0  0  0  0  0  0  0  0  0
    3.6227   -0.6304    0.6081 C   0  0  0  0  0  0  0  0  0  0  0  0
    4.9143   -0.8002    0.0904 C   0  0  0  0  0  0  0  0  0  0  0  0
    8.0400   -1.0222   -3.6949 H   0  0  0  0  0  0  0  0  0  0  0  0
    9.4861   -0.0027   -3.5316 H   0  0  0  0  0  0  0  0  0  0  0  0
    9.5537   -1.5072   -4.4668 H   0  0  0  0  0  0  0  0  0  0  0  0
    9.1338   -2.8248   -2.3775 H   0  0  0  0  0  0  0  0  0  0  0  0
   10.6330   -1.9026   -2.3237 H   0  0  0  0  0  0  0  0  0  0  0  0
    9.5532   -1.6709   -0.1825 H   0  0  0  0  0  0  0  0  0  0  0  0
    9.5137   -0.1153   -0.9760 H   0  0  0  0  0  0  0  0  0  0  0  0
    7.1899   -2.1067   -0.8767 H   0  0  0  0  0  0  0  0  0  0  0  0
    7.1328   -0.4699   -1.6185 H   0  0  0  0  0  0  0  0  0  0  0  0
    6.7014    0.5000    2.6679 H   0  0  0  0  0  0  0  0  0  0  0  0
    4.4297    0.8053    3.5893 H   0  0  0  0  0  0  0  0  0  0  0  0
    1.1638    0.2937    0.5993 H   0  0  0  0  0  0  0  0  0  0  0  0
   -0.5492   -0.3115    2.8624 H   0  0  0  0  0  0  0  0  0  0  0  0
   -0.3735    1.4419    2.5141 H   0  0  0  0  0  0  0  0  0  0  0  0
   -3.3972   -0.7806   -0.1590 H   0  0  0  0  0  0  0  0  0  0  0  0
   -3.6109    1.0210   -0.1996 H   0  0  0  0  0  0  0  0  0  0  0  0
   -8.1151    0.9969    2.7505 H   0  0  0  0  0  0  0  0  0  0  0  0
   -6.4865    0.6559    2.8009 H   0  0  0  0  0  0  0  0  0  0  0  0
   -9.0414    2.8680    1.3736 H   0  0  0  0  0  0  0  0  0  0  0  0
   -9.9566    1.3326    1.5464 H   0  0  0  0  0  0  0  0  0  0  0  0
  -10.1884    2.3657    0.1280 H   0  0  0  0  0  0  0  0  0  0  0  0
   -7.4571    0.9969   -3.7368 H   0  0  0  0  0  0  0  0  0  0  0  0
   -8.5565   -0.3625   -3.4053 H   0  0  0  0  0  0  0  0  0  0  0  0
   -6.8057   -0.6509   -3.5322 H   0  0  0  0  0  0  0  0  0  0  0  0
    2.7812   -0.9935    0.0249 H   0  0  0  0  0  0  0  0  0  0  0  0
    5.0149   -1.2655   -0.8846 H   0  0  0  0  0  0  0  0  0  0  0  0
  1  2  1  0
  2  3  1  0
  3  4  1  0
  4  5  1  0
  5  6  1  0
  6  7  2  0
  7  8  1  0
  8  9  2  0
  9 10  1  0
 10 11  2  0
 10 12  1  0
 12 13  1  0
 13 14  1  0
 14 15  2  0
 14 16  1  0
 16 17  1  0
 17 18  1  0
 18 19  2  0
 18 20  1  0
 20 21  2  0
 21 22  1  0
 21 23  1  0
 23 24  1  0
 23 25  1  0
 25 26  2  0
 25 27  1  0
 27 28  1  0
 27 29  1  0
 29 30  2  0
  9 31  1  0
 31 32  2  0
 32  6  1  0
 29 20  1  0
  1 33  1  0
  1 34  1  0
  1 35  1  0
  2 36  1  0
  2 37  1  0
  3 38  1  0
  3 39  1  0
  4 40  1  0
  4 41  1  0
  7 42  1  0
  8 43  1  0
 12 44  1  0
 13 45  1  0
 13 46  1  0
 17 47  1  0
 17 48  1  0
 22 49  1  0
 22 50  1  0
 24 51  1  0
 24 52  1  0
 24 53  1  0
 28 54  1  0
 28 55  1  0
 28 56  1  0
 31 57  1  0
 32 58  1  0
M  END
$$$$
