
     RDKit          3D

 38 39  0  0  0  0  0  0  0  0999 V2000
   -4.1790    1.8403    2.1358 C   0  0  0  0  0  0  0  0  0  0  0  0
   -3.5753    1.1935    1.0212 O   0  0  0  0  0  0  0  0  0  0  0  0
   -4.3211    0.2923    0.3125 C   0  0  0  0  0  0  0  0  0  0  0  0
   -5.6628    0.0020    0.6003 C   0  0  0  0  0  0  0  0  0  0  0  0
   -6.3861   -0.9016   -0.1835 C   0  0  0  0  0  0  0  0  0  0  0  0
   -5.7817   -1.5240   -1.2689 C   0  0  0  0  0  0  0  0  0  0  0  0
   -4.4489   -1.2480   -1.5662 C   0  0  0  0  0  0  0  0  0  0  0  0
   -3.7052   -0.3502   -0.7779 C   0  0  0  0  0  0  0  0  0  0  0  0
   -2.2774   -0.1436   -1.1782 C   0  0  0  0  0  0  0  0  0  0  0  0
   -1.9546   -0.3793   -2.3447 O   0  0  0  0  0  0  0  0  0  0  0  0
   -1.2659    0.3045   -0.1315 C   0  0  0  0  0  0  0  0  0  0  0  0
    0.0591    0.0148   -0.5912 O   0  0  0  0  0  0  0  0  0  0  0  0
    1.0296    0.3763    0.2787 C   0  0  0  0  0  0  0  0  0  0  0  0
    0.8686    0.8868    1.3748 O   0  0  0  0  0  0  0  0  0  0  0  0
    2.3328    0.0384   -0.3274 C   0  0  0  0  0  0  0  0  0  0  0  0
    3.4667    0.2635    0.3535 C   0  0  0  0  0  0  0  0  0  0  0  0
    4.8111   -0.0241   -0.1653 C   0  0  0  0  0  0  0  0  0  0  0  0
    5.8743    0.8013    0.2246 C   0  0  0  0  0  0  0  0  0  0  0  0
    7.1737    0.5505   -0.2237 C   0  0  0  0  0  0  0  0  0  0  0  0
    7.4259   -0.5358   -1.0581 C   0  0  0  0  0  0  0  0  0  0  0  0
    6.3809   -1.3740   -1.4400 C   0  0  0  0  0  0  0  0  0  0  0  0
    5.0809   -1.1230   -0.9920 C   0  0  0  0  0  0  0  0  0  0  0  0
   -5.0262    2.4583    1.8211 H   0  0  0  0  0  0  0  0  0  0  0  0
   -3.4310    2.5034    2.5811 H   0  0  0  0  0  0  0  0  0  0  0  0
   -4.4769    1.1145    2.8995 H   0  0  0  0  0  0  0  0  0  0  0  0
   -6.1855    0.4701    1.4288 H   0  0  0  0  0  0  0  0  0  0  0  0
   -7.4268   -1.1126    0.0519 H   0  0  0  0  0  0  0  0  0  0  0  0
   -6.3438   -2.2215   -1.8850 H   0  0  0  0  0  0  0  0  0  0  0  0
   -3.9851   -1.7416   -2.4194 H   0  0  0  0  0  0  0  0  0  0  0  0
   -1.3587    1.3871    0.0011 H   0  0  0  0  0  0  0  0  0  0  0  0
   -1.4422   -0.2434    0.8003 H   0  0  0  0  0  0  0  0  0  0  0  0
    2.3154   -0.3746   -1.3284 H   0  0  0  0  0  0  0  0  0  0  0  0
    3.4266    0.7063    1.3477 H   0  0  0  0  0  0  0  0  0  0  0  0
    5.6993    1.6550    0.8761 H   0  0  0  0  0  0  0  0  0  0  0  0
    7.9877    1.2034    0.0804 H   0  0  0  0  0  0  0  0  0  0  0  0
    8.4366   -0.7321   -1.4063 H   0  0  0  0  0  0  0  0  0  0  0  0
    6.5768   -2.2281   -2.0833 H   0  0  0  0  0  0  0  0  0  0  0  0
    4.2884   -1.8049   -1.2899 H   0  0  0  0  0  0  0  0  0  0  0  0
  1  2  1  0
  2  3  1  0
  3  4  2  0
  4  5  1  0
  5  6  2  0
  6  7  1  0
  7  8  2  0
  8  9  1  0
  9 10  2  0
  9 11  1  0
 11 12  1  0
 12 13  1  0
 13 14  2  0
 13 15  1  0
 15 16  2  3
 16 17  1  0
 17 18  2  0
 18 19  1  0
 19 20  2  0
 20 21  1  0
 21 22  2  0
  8  3  1  0
 22 17  1  0
  1 23  1  0
  1 24  1  0
  1 25  1  0
  4 26  1  0
  5 27  1  0
  6 28  1  0
  7 29  1  0
 11 30  1  0
 11 31  1  0
 15 32  1  0
 16 33  1  0
 18 34  1  0
 19 35  1  0
 20 36  1  0
 21 37  1  0
 22 38  1  0
M  END
$$$$
