
     RDKit          3D

 47 48  0  0  0  0  0  0  0  0999 V2000
    3.7324    1.6525    4.6695 C   0  0  0  0  0  0  0  0  0  0  0  0
    3.2051    2.8455    3.8950 C   0  0  0  0  0  0  0  0  0  0  0  0
    3.0272    2.4983    2.5129 O   0  0  0  0  0  0  0  0  0  0  0  0
    1.8368    1.9333    2.1841 C   0  0  0  0  0  0  0  0  0  0  0  0
    0.9286    1.7047    2.9708 O   0  0  0  0  0  0  0  0  0  0  0  0
    1.7873    1.6260    0.7261 C   0  0  0  0  0  0  0  0  0  0  0  0
    2.9318    1.8968   -0.0695 C   0  0  0  0  0  0  0  0  0  0  0  0
    3.8594    2.1224   -0.7310 N   0  0  0  0  0  0  0  0  0  0  0  0
    0.6497    1.0664    0.2648 C   0  0  0  0  0  0  0  0  0  0  0  0
    0.2610    0.6417   -1.0879 C   0  0  0  0  0  0  0  0  0  0  0  0
   -0.7029   -0.3021   -1.2806 C   0  0  0  0  0  0  0  0  0  0  0  0
   -1.2499   -1.0332   -0.2051 N   0  0  0  0  0  0  0  0  0  0  0  0
   -0.4254   -1.9978    0.5653 C   0  0  0  0  0  0  0  0  0  0  0  0
   -1.2645   -3.2109    0.9947 C   0  0  0  0  0  0  0  0  0  0  0  0
   -2.3941   -2.8689    1.8130 O   0  0  0  0  0  0  0  0  0  0  0  0
   -2.9192   -1.5612    1.5341 C   0  0  0  0  0  0  0  0  0  0  0  0
   -2.6944   -1.1124    0.0818 C   0  0  0  0  0  0  0  0  0  0  0  0
   -1.1634   -0.6772   -2.7257 C   0  0  0  0  0  0  0  0  0  0  0  0
   -2.5879   -0.1878   -3.0395 C   0  0  0  0  0  0  0  0  0  0  0  0
   -1.0856   -2.1955   -2.9543 C   0  0  0  0  0  0  0  0  0  0  0  0
   -0.2839   -0.1340   -3.7367 O   0  0  0  0  0  0  0  0  0  0  0  0
    0.0413    1.2314   -3.5248 C   0  0  0  0  0  0  0  0  0  0  0  0
    0.8835    1.3525   -2.2679 C   0  0  0  0  0  0  0  0  0  0  0  0
    4.6602    1.2826    4.2209 H   0  0  0  0  0  0  0  0  0  0  0  0
    3.0173    0.8241    4.6501 H   0  0  0  0  0  0  0  0  0  0  0  0
    3.9269    1.9216    5.7115 H   0  0  0  0  0  0  0  0  0  0  0  0
    3.9369    3.6593    3.9284 H   0  0  0  0  0  0  0  0  0  0  0  0
    2.2760    3.2294    4.3316 H   0  0  0  0  0  0  0  0  0  0  0  0
   -0.1392    0.8768    0.9975 H   0  0  0  0  0  0  0  0  0  0  0  0
    0.4256   -2.3397   -0.0348 H   0  0  0  0  0  0  0  0  0  0  0  0
   -0.0370   -1.4949    1.4579 H   0  0  0  0  0  0  0  0  0  0  0  0
   -1.6410   -3.7466    0.1156 H   0  0  0  0  0  0  0  0  0  0  0  0
   -0.6477   -3.9130    1.5645 H   0  0  0  0  0  0  0  0  0  0  0  0
   -2.4491   -0.8574    2.2309 H   0  0  0  0  0  0  0  0  0  0  0  0
   -3.9897   -1.5833    1.7613 H   0  0  0  0  0  0  0  0  0  0  0  0
   -3.1616   -1.8382   -0.5915 H   0  0  0  0  0  0  0  0  0  0  0  0
   -3.1605   -0.1331   -0.0712 H   0  0  0  0  0  0  0  0  0  0  0  0
   -3.3569   -0.8025   -2.5649 H   0  0  0  0  0  0  0  0  0  0  0  0
   -2.7405    0.8455   -2.7088 H   0  0  0  0  0  0  0  0  0  0  0  0
   -2.7734   -0.2032   -4.1201 H   0  0  0  0  0  0  0  0  0  0  0  0
   -1.3103   -2.4424   -3.9990 H   0  0  0  0  0  0  0  0  0  0  0  0
   -1.7812   -2.7540   -2.3213 H   0  0  0  0  0  0  0  0  0  0  0  0
   -0.0716   -2.5666   -2.7625 H   0  0  0  0  0  0  0  0  0  0  0  0
   -0.8625    1.8482   -3.4741 H   0  0  0  0  0  0  0  0  0  0  0  0
    0.6170    1.5778   -4.3896 H   0  0  0  0  0  0  0  0  0  0  0  0
    1.0259    2.4191   -2.0609 H   0  0  0  0  0  0  0  0  0  0  0  0
    1.8637    0.9001   -2.4608 H   0  0  0  0  0  0  0  0  0  0  0  0
  1  2  1  0
  2  3  1  0
  3  4  1  0
  4  5  2  0
  4  6  1  0
  6  7  1  0
  7  8  3  0
  6  9  2  3
  9 10  1  0
 10 11  2  0
 11 12  1  0
 12 13  1  0
 13 14  1  0
 14 15  1  0
 15 16  1  0
 16 17  1  0
 11 18  1  0
 18 19  1  0
 18 20  1  0
 18 21  1  0
 21 22  1  0
 22 23  1  0
 23 10  1  0
 17 12  1  0
  1 24  1  0
  1 25  1  0
  1 26  1  0
  2 27  1  0
  2 28  1  0
  9 29  1  0
 13 30  1  0
 13 31  1  0
 14 32  1  0
 14 33  1  0
 16 34  1  0
 16 35  1  0
 17 36  1  0
 17 37  1  0
 19 38  1  0
 19 39  1  0
 19 40  1  0
 20 41  1  0
 20 42  1  0
 20 43  1  0
 22 44  1  0
 22 45  1  0
 23 46  1  0
 23 47  1  0
M  END
$$$$
