
     RDKit          3D

 55 60  0  0  0  0  0  0  0  0999 V2000
    3.1998   -2.8431    0.9955 O   0  0  0  0  0  0  0  0  0  0  0  0
    3.3220   -1.6154    1.0394 C   0  0  0  0  0  0  0  0  0  0  0  0
    4.0744   -0.9983    2.1222 C   0  0  0  0  0  0  0  0  0  0  0  0
    4.1790   -1.4307    3.4787 C   0  0  0  0  0  0  0  0  0  0  0  0
    5.0324   -0.5517    4.1063 C   0  0  0  0  0  0  0  0  0  0  0  0
    5.4940    0.3736    3.2214 O   0  0  0  0  0  0  0  0  0  0  0  0
    4.9319    0.0846    2.0210 C   0  0  0  0  0  0  0  0  0  0  0  0
    2.7830   -0.7764    0.0513 N   0  0  0  0  0  0  0  0  0  0  0  0
    2.3279   -1.3656   -1.2003 C   0  0  0  0  0  0  0  0  0  0  0  0
    0.8030   -1.3541   -1.2896 C   0  0  0  0  0  0  0  0  0  0  0  0
    0.2342    0.0776   -1.0985 C   0  0  0  0  0  0  0  0  0  0  0  0
    0.7949    0.6591    0.2273 C   0  0  0  0  0  0  0  0  0  0  0  0
    2.3236    0.5904    0.2916 C   0  0  0  0  0  0  0  0  0  0  0  0
    0.7962    0.9378   -2.1268 O   0  0  0  0  0  0  0  0  0  0  0  0
    0.2011    0.9329   -3.3532 C   0  0  0  0  0  0  0  0  0  0  0  0
    0.9158    1.5524   -4.3807 C   0  0  0  0  0  0  0  0  0  0  0  0
    0.3946    1.5810   -5.6744 C   0  0  0  0  0  0  0  0  0  0  0  0
   -0.8400    0.9937   -5.9309 C   0  0  0  0  0  0  0  0  0  0  0  0
   -1.3377    1.0248   -7.1735 F   0  0  0  0  0  0  0  0  0  0  0  0
   -1.5712    0.3888   -4.9161 C   0  0  0  0  0  0  0  0  0  0  0  0
   -1.0449    0.3709   -3.6222 C   0  0  0  0  0  0  0  0  0  0  0  0
   -1.8032   -0.2315   -2.5151 C   0  0  0  0  0  0  0  0  0  0  0  0
   -2.7536   -0.9680   -2.7642 O   0  0  0  0  0  0  0  0  0  0  0  0
   -1.3231    0.1194   -1.1137 C   0  0  0  0  0  0  0  0  0  0  0  0
   -2.0318   -0.6992   -0.0417 C   0  0  0  0  0  0  0  0  0  0  0  0
   -2.6013    0.3968    0.7887 C   0  0  0  0  0  0  0  0  0  0  0  0
   -3.3092    0.1310    2.0655 C   0  0  0  0  0  0  0  0  0  0  0  0
   -3.5535   -1.1741    2.5127 C   0  0  0  0  0  0  0  0  0  0  0  0
   -4.2309   -1.3853    3.7195 C   0  0  0  0  0  0  0  0  0  0  0  0
   -4.6614   -0.2960    4.4772 C   0  0  0  0  0  0  0  0  0  0  0  0
   -5.4883   -0.5594    5.9618 Cl  0  0  0  0  0  0  0  0  0  0  0  0
   -4.4234    1.0046    4.0398 C   0  0  0  0  0  0  0  0  0  0  0  0
   -3.7484    1.2187    2.8343 C   0  0  0  0  0  0  0  0  0  0  0  0
   -2.4292    1.5898    0.3199 N   0  0  0  0  0  0  0  0  0  0  0  0
   -1.7649    1.4804   -0.9172 O   0  0  0  0  0  0  0  0  0  0  0  0
    3.6879   -2.2824    3.9373 H   0  0  0  0  0  0  0  0  0  0  0  0
    5.4057   -0.4630    5.1182 H   0  0  0  0  0  0  0  0  0  0  0  0
    5.2348    0.7238    1.1998 H   0  0  0  0  0  0  0  0  0  0  0  0
    2.7004   -2.3896   -1.3101 H   0  0  0  0  0  0  0  0  0  0  0  0
    2.7677   -0.7810   -2.0158 H   0  0  0  0  0  0  0  0  0  0  0  0
    0.4022   -2.0327   -0.5285 H   0  0  0  0  0  0  0  0  0  0  0  0
    0.5194   -1.7605   -2.2666 H   0  0  0  0  0  0  0  0  0  0  0  0
    0.3859    0.1151    1.0878 H   0  0  0  0  0  0  0  0  0  0  0  0
    0.5080    1.7121    0.3343 H   0  0  0  0  0  0  0  0  0  0  0  0
    2.7835    1.2368   -0.4644 H   0  0  0  0  0  0  0  0  0  0  0  0
    2.6293    0.9562    1.2743 H   0  0  0  0  0  0  0  0  0  0  0  0
    1.8806    2.0103   -4.1751 H   0  0  0  0  0  0  0  0  0  0  0  0
    0.9389    2.0625   -6.4809 H   0  0  0  0  0  0  0  0  0  0  0  0
   -2.5427   -0.0451   -5.1369 H   0  0  0  0  0  0  0  0  0  0  0  0
   -2.8464   -1.3283   -0.4146 H   0  0  0  0  0  0  0  0  0  0  0  0
   -1.3592   -1.3202    0.5553 H   0  0  0  0  0  0  0  0  0  0  0  0
   -3.2375   -2.0431    1.9413 H   0  0  0  0  0  0  0  0  0  0  0  0
   -4.4205   -2.4006    4.0620 H   0  0  0  0  0  0  0  0  0  0  0  0
   -4.7584    1.8558    4.6265 H   0  0  0  0  0  0  0  0  0  0  0  0
   -3.5710    2.2406    2.5004 H   0  0  0  0  0  0  0  0  0  0  0  0
  1  2  2  0
  2  3  1  0
  3  4  1  0
  4  5  2  0
  5  6  1  0
  6  7  1  0
  2  8  1  0
  8  9  1  0
  9 10  1  0
 10 11  1  0
 11 12  1  0
 12 13  1  0
 11 14  1  0
 14 15  1  0
 15 16  2  0
 16 17  1  0
 17 18  2  0
 18 19  1  0
 18 20  1  0
 20 21  2  0
 21 22  1  0
 22 23  2  0
 22 24  1  0
 24 25  1  0
 25 26  1  0
 26 27  1  0
 27 28  2  0
 28 29  1  0
 29 30  2  0
 30 31  1  0
 30 32  1  0
 32 33  2  0
 26 34  2  0
 34 35  1  0
  7  3  2  0
 13  8  1  0
 21 15  1  0
 35 24  1  0
 24 11  1  0
 33 27  1  0
  4 36  1  0
  5 37  1  0
  7 38  1  0
  9 39  1  0
  9 40  1  0
 10 41  1  0
 10 42  1  0
 12 43  1  0
 12 44  1  0
 13 45  1  0
 13 46  1  0
 16 47  1  0
 17 48  1  0
 20 49  1  0
 25 50  1  0
 25 51  1  0
 28 52  1  0
 29 53  1  0
 32 54  1  0
 33 55  1  0
M  END
$$$$
