
     RDKit          3D

 49 51  0  0  0  0  0  0  0  0999 V2000
   -0.6187    5.8349    1.3612 C   0  0  0  0  0  0  0  0  0  0  0  0
    0.5415    5.4524    0.6367 O   0  0  0  0  0  0  0  0  0  0  0  0
    0.9304    4.1372    0.7014 C   0  0  0  0  0  0  0  0  0  0  0  0
    0.2193    3.1365    1.3756 C   0  0  0  0  0  0  0  0  0  0  0  0
    0.6870    1.8215    1.3824 C   0  0  0  0  0  0  0  0  0  0  0  0
    1.8640    1.5081    0.7025 C   0  0  0  0  0  0  0  0  0  0  0  0
    2.4633   -0.1614    0.7030 S   0  0  0  0  0  6  0  0  0  0  0  0
    1.7510   -0.9180    1.7100 O   0  0  0  0  0  0  0  0  0  0  0  0
    3.9100   -0.1034    0.6994 O   0  0  0  0  0  0  0  0  0  0  0  0
    2.0136   -0.7085   -0.8322 N   0  0  0  0  0  0  0  0  0  0  0  0
    0.6543   -1.0701   -1.0366 C   0  0  0  0  0  0  0  0  0  0  0  0
   -0.2115   -0.1452   -1.6056 C   0  0  0  0  0  0  0  0  0  0  0  0
   -1.5379   -0.5000   -1.8278 C   0  0  0  0  0  0  0  0  0  0  0  0
   -2.0035   -1.7721   -1.4569 C   0  0  0  0  0  0  0  0  0  0  0  0
   -1.1524   -2.6834   -0.7975 C   0  0  0  0  0  0  0  0  0  0  0  0
    0.1940   -2.3301   -0.6457 C   0  0  0  0  0  0  0  0  0  0  0  0
   -1.6681   -3.9474   -0.3639 N   0  0  0  0  0  0  0  0  0  0  0  0
   -1.1756   -4.7443    0.6755 C   0  0  0  0  0  0  0  0  0  0  0  0
   -0.2503   -4.1487    1.7089 C   0  0  0  0  0  0  0  0  0  0  0  0
   -1.5422   -5.9162    0.8224 O   0  0  0  0  0  0  0  0  0  0  0  0
   -2.9209   -4.4340   -0.9501 C   0  0  0  0  0  0  0  0  0  0  0  0
   -3.4636   -3.6211   -2.1133 C   0  0  0  0  0  0  0  0  0  0  0  0
   -3.4289   -2.1475   -1.7580 C   0  0  0  0  0  0  0  0  0  0  0  0
    2.5952    2.4959    0.0358 C   0  0  0  0  0  0  0  0  0  0  0  0
    2.1310    3.8141    0.0307 C   0  0  0  0  0  0  0  0  0  0  0  0
    2.7646    4.8532   -0.6051 O   0  0  0  0  0  0  0  0  0  0  0  0
    4.0551    4.6065   -1.1462 C   0  0  0  0  0  0  0  0  0  0  0  0
   -1.5101    5.3333    0.9707 H   0  0  0  0  0  0  0  0  0  0  0  0
   -0.7579    6.9118    1.2256 H   0  0  0  0  0  0  0  0  0  0  0  0
   -0.4959    5.6483    2.4332 H   0  0  0  0  0  0  0  0  0  0  0  0
   -0.7037    3.3486    1.9054 H   0  0  0  0  0  0  0  0  0  0  0  0
    0.1261    1.0529    1.9104 H   0  0  0  0  0  0  0  0  0  0  0  0
    2.7305   -1.3139   -1.2316 H   0  0  0  0  0  0  0  0  0  0  0  0
    0.1424    0.8374   -1.9060 H   0  0  0  0  0  0  0  0  0  0  0  0
   -2.2059    0.2137   -2.3058 H   0  0  0  0  0  0  0  0  0  0  0  0
    0.9160   -3.0320   -0.2467 H   0  0  0  0  0  0  0  0  0  0  0  0
   -0.4614   -4.6228    2.6738 H   0  0  0  0  0  0  0  0  0  0  0  0
   -0.4218   -3.0795    1.8477 H   0  0  0  0  0  0  0  0  0  0  0  0
    0.7898   -4.3581    1.4507 H   0  0  0  0  0  0  0  0  0  0  0  0
   -3.6643   -4.4601   -0.1419 H   0  0  0  0  0  0  0  0  0  0  0  0
   -2.7748   -5.4710   -1.2773 H   0  0  0  0  0  0  0  0  0  0  0  0
   -2.8558   -3.8074   -3.0085 H   0  0  0  0  0  0  0  0  0  0  0  0
   -4.4865   -3.9365   -2.3469 H   0  0  0  0  0  0  0  0  0  0  0  0
   -4.0567   -1.9322   -0.8856 H   0  0  0  0  0  0  0  0  0  0  0  0
   -3.8134   -1.5660   -2.6037 H   0  0  0  0  0  0  0  0  0  0  0  0
    3.5108    2.2134   -0.4738 H   0  0  0  0  0  0  0  0  0  0  0  0
    4.7497    4.2567   -0.3753 H   0  0  0  0  0  0  0  0  0  0  0  0
    4.4407    5.5535   -1.5361 H   0  0  0  0  0  0  0  0  0  0  0  0
    4.0015    3.9009   -1.9815 H   0  0  0  0  0  0  0  0  0  0  0  0
  1  2  1  0
  2  3  1  0
  3  4  2  0
  4  5  1  0
  5  6  2  0
  6  7  1  0
  7  8  2  0
  7  9  2  0
  7 10  1  0
 10 11  1  0
 11 12  2  0
 12 13  1  0
 13 14  2  0
 14 15  1  0
 15 16  2  0
 15 17  1  0
 17 18  1  0
 18 19  1  0
 18 20  2  0
 17 21  1  0
 21 22  1  0
 22 23  1  0
  6 24  1  0
 24 25  2  0
 25 26  1  0
 26 27  1  0
 25  3  1  0
 16 11  1  0
 23 14  1  0
  1 28  1  0
  1 29  1  0
  1 30  1  0
  4 31  1  0
  5 32  1  0
 10 33  1  0
 12 34  1  0
 13 35  1  0
 16 36  1  0
 19 37  1  0
 19 38  1  0
 19 39  1  0
 21 40  1  0
 21 41  1  0
 22 42  1  0
 22 43  1  0
 23 44  1  0
 23 45  1  0
 24 46  1  0
 27 47  1  0
 27 48  1  0
 27 49  1  0
M  END
$$$$
