
     RDKit          3D

 33 35  0  0  0  0  0  0  0  0999 V2000
    3.2449    1.3864    1.4917 O   0  0  0  0  0  0  0  0  0  0  0  0
    3.7248    0.3020    0.8080 C   0  0  0  0  0  0  0  0  0  0  0  0
    5.1082    0.1358    0.8038 C   0  0  0  0  0  0  0  0  0  0  0  0
    5.6747   -0.9575    0.1501 C   0  0  0  0  0  0  0  0  0  0  0  0
    4.8559   -1.8817   -0.4973 C   0  0  0  0  0  0  0  0  0  0  0  0
    3.4689   -1.7103   -0.4966 C   0  0  0  0  0  0  0  0  0  0  0  0
    2.8879   -0.6118    0.1508 C   0  0  0  0  0  0  0  0  0  0  0  0
    1.4288   -0.4709    0.1020 C   0  0  0  0  0  0  0  0  0  0  0  0
    0.8378    0.5094   -0.6007 C   0  0  0  0  0  0  0  0  0  0  0  0
   -0.6172    0.6943   -0.6908 C   0  0  0  0  0  0  0  0  0  0  0  0
   -1.1401    1.6958   -1.4994 C   0  0  0  0  0  0  0  0  0  0  0  0
   -2.5220    1.8550   -1.5608 C   0  0  0  0  0  0  0  0  0  0  0  0
   -3.3516    1.0127   -0.8134 C   0  0  0  0  0  0  0  0  0  0  0  0
   -4.7549    1.1274   -0.8369 C   0  0  0  0  0  0  0  0  0  0  0  0
   -5.5484    0.2670   -0.0760 C   0  0  0  0  0  0  0  0  0  0  0  0
   -4.9481   -0.7103    0.7106 C   0  0  0  0  0  0  0  0  0  0  0  0
   -3.5603   -0.8124    0.7244 C   0  0  0  0  0  0  0  0  0  0  0  0
   -2.9923   -1.7870    1.5101 O   0  0  0  0  0  0  0  0  0  0  0  0
   -2.7355    0.0267   -0.0201 C   0  0  0  0  0  0  0  0  0  0  0  0
   -1.3958   -0.1333    0.0455 N   0  0  0  0  0  0  0  0  0  0  0  0
    2.2775    1.3028    1.5460 H   0  0  0  0  0  0  0  0  0  0  0  0
    5.7417    0.8547    1.3158 H   0  0  0  0  0  0  0  0  0  0  0  0
    6.7535   -1.0896    0.1493 H   0  0  0  0  0  0  0  0  0  0  0  0
    5.2966   -2.7357   -1.0054 H   0  0  0  0  0  0  0  0  0  0  0  0
    2.8453   -2.4369   -1.0131 H   0  0  0  0  0  0  0  0  0  0  0  0
    0.8562   -1.2196    0.6430 H   0  0  0  0  0  0  0  0  0  0  0  0
    1.4464    1.2216   -1.1529 H   0  0  0  0  0  0  0  0  0  0  0  0
   -0.4942    2.3475   -2.0788 H   0  0  0  0  0  0  0  0  0  0  0  0
   -2.9429    2.6342   -2.1912 H   0  0  0  0  0  0  0  0  0  0  0  0
   -5.2360    1.8880   -1.4482 H   0  0  0  0  0  0  0  0  0  0  0  0
   -6.6313    0.3592   -0.0971 H   0  0  0  0  0  0  0  0  0  0  0  0
   -5.5493   -1.3885    1.3089 H   0  0  0  0  0  0  0  0  0  0  0  0
   -2.0291   -1.6751    1.3642 H   0  0  0  0  0  0  0  0  0  0  0  0
  1  2  1  0
  2  3  2  0
  3  4  1  0
  4  5  2  0
  5  6  1  0
  6  7  2  0
  7  8  1  0
  8  9  2  0
  9 10  1  0
 10 11  2  0
 11 12  1  0
 12 13  2  0
 13 14  1  0
 14 15  2  0
 15 16  1  0
 16 17  2  0
 17 18  1  0
 17 19  1  0
 19 20  2  0
  7  2  1  0
 20 10  1  0
 19 13  1  0
  1 21  1  0
  3 22  1  0
  4 23  1  0
  5 24  1  0
  6 25  1  0
  8 26  1  0
  9 27  1  0
 11 28  1  0
 12 29  1  0
 14 30  1  0
 15 31  1  0
 16 32  1  0
 18 33  1  0
M  END
$$$$
