
     RDKit          3D

 37 39  0  0  0  0  0  0  0  0999 V2000
    3.9197    1.4302    0.9484 N   0  0  0  0  0  0  0  0  0  0  0  0
    3.9739    0.0801    0.4040 C   0  0  0  0  0  0  0  0  0  0  0  0
    2.9244   -0.1309   -0.6876 C   0  0  0  0  0  0  0  0  0  0  0  0
    1.4877   -0.0442   -0.1610 C   0  0  0  0  0  0  0  0  0  0  0  0
    0.4730   -0.2872   -1.2886 C   0  0  0  0  0  0  0  0  0  0  0  0
   -0.9302   -0.2587   -0.7946 N   0  0  0  0  0  0  0  0  0  0  0  0
   -1.3220   -1.4406   -0.1041 C   0  0  0  0  0  0  0  0  0  0  0  0
   -1.1696   -2.7015   -0.7162 C   0  0  0  0  0  0  0  0  0  0  0  0
   -1.5557   -3.8815   -0.0747 C   0  0  0  0  0  0  0  0  0  0  0  0
   -2.1169   -3.8271    1.1937 C   0  0  0  0  0  0  0  0  0  0  0  0
   -2.3031   -2.5918    1.8105 C   0  0  0  0  0  0  0  0  0  0  0  0
   -1.9224   -1.4012    1.1682 C   0  0  0  0  0  0  0  0  0  0  0  0
   -2.1952    0.1170    2.0582 S   0  0  0  0  0  0  0  0  0  0  0  0
   -2.0139    1.3308    0.7682 C   0  0  0  0  0  0  0  0  0  0  0  0
   -2.4767    2.6280    1.0489 C   0  0  0  0  0  0  0  0  0  0  0  0
   -2.3610    3.6458    0.1043 C   0  0  0  0  0  0  0  0  0  0  0  0
   -1.7874    3.3662   -1.1283 C   0  0  0  0  0  0  0  0  0  0  0  0
   -1.6595    4.6089   -2.3123 Cl  0  0  0  0  0  0  0  0  0  0  0  0
   -1.3202    2.0835   -1.4170 C   0  0  0  0  0  0  0  0  0  0  0  0
   -1.4033    1.0441   -0.4688 C   0  0  0  0  0  0  0  0  0  0  0  0
    4.6464    1.5415    1.6545 H   0  0  0  0  0  0  0  0  0  0  0  0
    4.1255    2.1090    0.2169 H   0  0  0  0  0  0  0  0  0  0  0  0
    3.8235   -0.6431    1.2127 H   0  0  0  0  0  0  0  0  0  0  0  0
    4.9714   -0.0971   -0.0130 H   0  0  0  0  0  0  0  0  0  0  0  0
    3.0706    0.6027   -1.4906 H   0  0  0  0  0  0  0  0  0  0  0  0
    3.0840   -1.1208   -1.1330 H   0  0  0  0  0  0  0  0  0  0  0  0
    1.3131    0.9406    0.2873 H   0  0  0  0  0  0  0  0  0  0  0  0
    1.3505   -0.7844    0.6365 H   0  0  0  0  0  0  0  0  0  0  0  0
    0.6282    0.4552   -2.0799 H   0  0  0  0  0  0  0  0  0  0  0  0
    0.7016   -1.2401   -1.7793 H   0  0  0  0  0  0  0  0  0  0  0  0
   -0.7785   -2.7779   -1.7270 H   0  0  0  0  0  0  0  0  0  0  0  0
   -1.4277   -4.8382   -0.5744 H   0  0  0  0  0  0  0  0  0  0  0  0
   -2.4212   -4.7399    1.6988 H   0  0  0  0  0  0  0  0  0  0  0  0
   -2.7530   -2.5609    2.8006 H   0  0  0  0  0  0  0  0  0  0  0  0
   -2.9327    2.8518    2.0112 H   0  0  0  0  0  0  0  0  0  0  0  0
   -2.7252    4.6429    0.3346 H   0  0  0  0  0  0  0  0  0  0  0  0
   -0.9182    1.8889   -2.4068 H   0  0  0  0  0  0  0  0  0  0  0  0
  1  2  1  0
  2  3  1  0
  3  4  1  0
  4  5  1  0
  5  6  1  0
  6  7  1  0
  7  8  2  0
  8  9  1  0
  9 10  2  0
 10 11  1  0
 11 12  2  0
 12 13  1  0
 13 14  1  0
 14 15  2  0
 15 16  1  0
 16 17  2  0
 17 18  1  0
 17 19  1  0
 19 20  2  0
 20  6  1  0
 12  7  1  0
 20 14  1  0
  1 21  1  0
  1 22  1  0
  2 23  1  0
  2 24  1  0
  3 25  1  0
  3 26  1  0
  4 27  1  0
  4 28  1  0
  5 29  1  0
  5 30  1  0
  8 31  1  0
  9 32  1  0
 10 33  1  0
 11 34  1  0
 15 35  1  0
 16 36  1  0
 19 37  1  0
M  END
$$$$
