
     RDKit          3D

 46 49  0  0  0  0  0  0  0  0999 V2000
   -4.2811   -3.3367   -1.0630 C   0  0  0  0  0  0  0  0  0  0  0  0
   -3.7260   -2.0362   -1.2178 O   0  0  0  0  0  0  0  0  0  0  0  0
   -2.7225   -1.6862   -0.3573 C   0  0  0  0  0  0  0  0  0  0  0  0
   -2.1505   -2.5069    0.6147 C   0  0  0  0  0  0  0  0  0  0  0  0
   -1.1213   -2.0218    1.4261 C   0  0  0  0  0  0  0  0  0  0  0  0
   -0.6568   -0.7165    1.2684 C   0  0  0  0  0  0  0  0  0  0  0  0
   -1.2224    0.1133    0.2967 C   0  0  0  0  0  0  0  0  0  0  0  0
   -0.7101    1.4624    0.0976 C   0  0  0  0  0  0  0  0  0  0  0  0
    0.4178    1.9106   -0.5855 C   0  0  0  0  0  0  0  0  0  0  0  0
    1.4380    1.1771   -1.3411 C   0  0  0  0  0  0  0  0  0  0  0  0
    2.5205    1.6931   -1.6171 O   0  0  0  0  0  0  0  0  0  0  0  0
    1.0829   -0.1157   -1.7433 N   0  0  0  0  0  0  0  0  0  0  0  0
    1.8577   -0.8069   -2.6478 N   0  0  0  0  0  0  0  0  0  0  0  0
    3.0669   -1.1561   -2.3028 C   0  0  0  0  0  0  0  0  0  0  0  0
    3.9618   -1.7155   -3.3859 C   0  0  0  0  0  0  0  0  0  0  0  0
    3.6447   -1.0836   -0.9714 C   0  0  0  0  0  0  0  0  0  0  0  0
    4.8287   -0.4844   -0.5798 C   0  0  0  0  0  0  0  0  0  0  0  0
    5.0757   -0.6377    0.8182 C   0  0  0  0  0  0  0  0  0  0  0  0
    4.0827   -1.3688    1.4157 C   0  0  0  0  0  0  0  0  0  0  0  0
    3.9728   -1.7870    3.0771 Cl  0  0  0  0  0  0  0  0  0  0  0  0
    2.8814   -1.8809    0.3426 S   0  0  0  0  0  0  0  0  0  0  0  0
    0.5082    3.2717   -0.4445 N   0  0  0  0  0  0  0  0  0  0  0  0
   -0.5107    3.6923    0.2804 N   0  0  0  0  0  0  0  0  0  0  0  0
   -1.2628    2.6218    0.6573 N   0  0  0  0  0  0  0  0  0  0  0  0
   -2.4058    2.7808    1.4826 C   0  0  0  0  0  0  0  0  0  0  0  0
   -3.1631    1.7395    1.8290 N   0  0  0  0  0  0  0  0  0  0  0  0
   -4.1728    2.2972    2.6106 O   0  0  0  0  0  0  0  0  0  0  0  0
   -4.0164    3.6740    2.7299 N   0  0  0  0  0  0  0  0  0  0  0  0
   -2.9165    3.9693    2.0384 C   0  0  0  0  0  0  0  0  0  0  0  0
   -2.4071    5.2088    1.9157 N   0  0  0  0  0  0  0  0  0  0  0  0
   -2.2545   -0.3780   -0.5127 C   0  0  0  0  0  0  0  0  0  0  0  0
   -5.0829   -3.4475   -1.7994 H   0  0  0  0  0  0  0  0  0  0  0  0
   -4.7221   -3.4628   -0.0686 H   0  0  0  0  0  0  0  0  0  0  0  0
   -3.5334   -4.1104   -1.2659 H   0  0  0  0  0  0  0  0  0  0  0  0
   -2.4807   -3.5292    0.7680 H   0  0  0  0  0  0  0  0  0  0  0  0
   -0.6782   -2.6657    2.1826 H   0  0  0  0  0  0  0  0  0  0  0  0
    0.1479   -0.3601    1.9083 H   0  0  0  0  0  0  0  0  0  0  0  0
    0.0897   -0.2870   -1.8618 H   0  0  0  0  0  0  0  0  0  0  0  0
    4.4506   -2.6296   -3.0362 H   0  0  0  0  0  0  0  0  0  0  0  0
    4.7254   -0.9762   -3.6446 H   0  0  0  0  0  0  0  0  0  0  0  0
    3.3793   -1.9476   -4.2823 H   0  0  0  0  0  0  0  0  0  0  0  0
    5.4696    0.0693   -1.2566 H   0  0  0  0  0  0  0  0  0  0  0  0
    5.9289   -0.2282    1.3441 H   0  0  0  0  0  0  0  0  0  0  0  0
   -1.6638    5.4192    1.2511 H   0  0  0  0  0  0  0  0  0  0  0  0
   -2.9584    6.0088    2.2074 H   0  0  0  0  0  0  0  0  0  0  0  0
   -2.7113    0.2537   -1.2720 H   0  0  0  0  0  0  0  0  0  0  0  0
  1  2  1  0
  2  3  1  0
  3  4  2  0
  4  5  1  0
  5  6  2  0
  6  7  1  0
  7  8  1  0
  8  9  2  0
  9 10  1  0
 10 11  2  0
 10 12  1  0
 12 13  1  0
 13 14  2  3
 14 15  1  0
 14 16  1  0
 16 17  2  0
 17 18  1  0
 18 19  2  0
 19 20  1  0
 19 21  1  0
  9 22  1  0
 22 23  2  0
 23 24  1  0
 24 25  1  0
 25 26  2  0
 26 27  1  0
 27 28  1  0
 28 29  2  0
 29 30  1  0
  7 31  2  0
 31  3  1  0
 24  8  1  0
 29 25  1  0
 21 16  1  0
  1 32  1  0
  1 33  1  0
  1 34  1  0
  4 35  1  0
  5 36  1  0
  6 37  1  0
 12 38  1  0
 15 39  1  0
 15 40  1  0
 15 41  1  0
 17 42  1  0
 18 43  1  0
 30 44  1  0
 30 45  1  0
 31 46  1  0
M  END
$$$$
