
     RDKit          3D

 50 54  0  0  0  0  0  0  0  0999 V2000
   -4.9278    0.6609   -1.0136 C   0  0  0  0  0  0  0  0  0  0  0  0
   -4.5394   -0.5896   -0.2888 C   0  0  0  0  0  0  0  0  0  0  0  0
   -5.4122   -1.3637    0.3753 C   0  0  0  0  0  0  0  0  0  0  0  0
   -4.9794   -2.5502    1.0610 C   0  0  0  0  0  0  0  0  0  0  0  0
   -3.6871   -2.8931    1.0481 C   0  0  0  0  0  0  0  0  0  0  0  0
   -2.7347   -2.1331    0.3802 N   0  0  0  0  0  0  0  0  0  0  0  0
   -1.4107   -2.5343    0.4059 C   0  0  0  0  0  0  0  0  0  0  0  0
   -0.9976   -3.5310    1.0035 O   0  0  0  0  0  0  0  0  0  0  0  0
   -0.4479   -1.6747   -0.3380 C   0  0  0  0  0  0  0  0  0  0  0  0
    0.9671   -2.0130   -0.3372 C   0  0  0  0  0  0  0  0  0  0  0  0
    1.8816   -1.2649   -0.9754 C   0  0  0  0  0  0  0  0  0  0  0  0
    3.5536   -1.6519   -0.8217 S   0  0  0  0  0  6  0  0  0  0  0  0
    4.3272   -0.9550   -1.8352 O   0  0  0  0  0  0  0  0  0  0  0  0
    3.7281   -3.0822   -0.6391 O   0  0  0  0  0  0  0  0  0  0  0  0
    3.9629   -0.8741    0.7350 C   0  0  0  0  0  0  0  0  0  0  0  0
    4.2131    0.5040    0.7666 C   0  0  0  0  0  0  0  0  0  0  0  0
    4.5380    1.1111    1.9799 C   0  0  0  0  0  0  0  0  0  0  0  0
    4.6179    0.3408    3.1365 C   0  0  0  0  0  0  0  0  0  0  0  0
    4.9294    0.9296    4.2979 F   0  0  0  0  0  0  0  0  0  0  0  0
    4.3838   -1.0309    3.1055 C   0  0  0  0  0  0  0  0  0  0  0  0
    4.0584   -1.6488    1.8972 C   0  0  0  0  0  0  0  0  0  0  0  0
    1.3865   -0.0615   -1.7160 C   0  0  0  0  0  0  0  0  0  0  0  0
    2.1883    0.6960   -2.4077 N   0  0  0  0  0  0  0  0  0  0  0  0
    0.0199    0.2475   -1.6603 N   0  0  0  0  0  0  0  0  0  0  0  0
   -0.4497    1.5092   -2.2685 C   0  0  0  0  0  0  0  0  0  0  0  0
   -0.4065    2.6917   -1.3548 C   0  0  0  0  0  0  0  0  0  0  0  0
    0.6287    3.4228   -0.8075 C   0  0  0  0  0  0  0  0  0  0  0  0
    0.0315    4.4321   -0.0163 C   0  0  0  0  0  0  0  0  0  0  0  0
   -1.3273    4.2545   -0.1299 C   0  0  0  0  0  0  0  0  0  0  0  0
   -1.6042    3.2042   -0.9440 O   0  0  0  0  0  0  0  0  0  0  0  0
   -0.9067   -0.5716   -0.9704 C   0  0  0  0  0  0  0  0  0  0  0  0
   -2.2399   -0.2452   -0.9502 N   0  0  0  0  0  0  0  0  0  0  0  0
   -3.0869   -0.9831   -0.3073 C   0  0  0  0  0  0  0  0  0  0  0  0
   -6.0038    0.8534   -0.9437 H   0  0  0  0  0  0  0  0  0  0  0  0
   -4.6742    0.5853   -2.0759 H   0  0  0  0  0  0  0  0  0  0  0  0
   -4.4099    1.5279   -0.5903 H   0  0  0  0  0  0  0  0  0  0  0  0
   -6.4686   -1.1150    0.4167 H   0  0  0  0  0  0  0  0  0  0  0  0
   -5.7161   -3.1516    1.5831 H   0  0  0  0  0  0  0  0  0  0  0  0
   -3.3391   -3.7861    1.5609 H   0  0  0  0  0  0  0  0  0  0  0  0
    1.2601   -2.8937    0.2321 H   0  0  0  0  0  0  0  0  0  0  0  0
    4.1621    1.1080   -0.1372 H   0  0  0  0  0  0  0  0  0  0  0  0
    4.7349    2.1777    2.0327 H   0  0  0  0  0  0  0  0  0  0  0  0
    4.4625   -1.6091    4.0214 H   0  0  0  0  0  0  0  0  0  0  0  0
    3.8875   -2.7227    1.8731 H   0  0  0  0  0  0  0  0  0  0  0  0
    3.1582    0.3376   -2.4374 H   0  0  0  0  0  0  0  0  0  0  0  0
    0.1350    1.7443   -3.1671 H   0  0  0  0  0  0  0  0  0  0  0  0
   -1.4706    1.3875   -2.6538 H   0  0  0  0  0  0  0  0  0  0  0  0
    1.6826    3.2418   -0.9707 H   0  0  0  0  0  0  0  0  0  0  0  0
    0.5284    5.1959    0.5651 H   0  0  0  0  0  0  0  0  0  0  0  0
   -2.1869    4.7662    0.2802 H   0  0  0  0  0  0  0  0  0  0  0  0
  1  2  1  0
  2  3  2  0
  3  4  1  0
  4  5  2  0
  5  6  1  0
  6  7  1  0
  7  8  2  0
  7  9  1  0
  9 10  1  0
 10 11  2  0
 11 12  1  0
 12 13  2  0
 12 14  2  0
 12 15  1  0
 15 16  2  0
 16 17  1  0
 17 18  2  0
 18 19  1  0
 18 20  1  0
 20 21  2  0
 11 22  1  0
 22 23  2  3
 22 24  1  0
 24 25  1  0
 25 26  1  0
 26 27  2  0
 27 28  1  0
 28 29  2  0
 29 30  1  0
 24 31  1  0
 31 32  1  0
 32 33  2  0
 33  2  1  0
 33  6  1  0
 31  9  2  0
 21 15  1  0
 30 26  1  0
  1 34  1  0
  1 35  1  0
  1 36  1  0
  3 37  1  0
  4 38  1  0
  5 39  1  0
 10 40  1  0
 16 41  1  0
 17 42  1  0
 20 43  1  0
 21 44  1  0
 23 45  1  0
 25 46  1  0
 25 47  1  0
 27 48  1  0
 28 49  1  0
 29 50  1  0
M  END
$$$$
