
     RDKit          3D

 44 46  0  0  0  0  0  0  0  0999 V2000
   -4.9026   -1.8564   -2.9439 C   0  0  0  0  0  0  0  0  0  0  0  0
   -4.3408   -1.2346   -1.6988 C   0  0  0  0  0  0  0  0  0  0  0  0
   -3.4108   -1.9326   -0.9162 C   0  0  0  0  0  0  0  0  0  0  0  0
   -2.8653   -1.3456    0.2262 C   0  0  0  0  0  0  0  0  0  0  0  0
   -3.2327   -0.0429    0.5723 C   0  0  0  0  0  0  0  0  0  0  0  0
   -2.5399    0.7147    2.0245 S   0  0  0  0  0  6  0  0  0  0  0  0
   -3.4920    1.6975    2.4997 O   0  0  0  0  0  0  0  0  0  0  0  0
   -2.0512   -0.3345    2.8929 O   0  0  0  0  0  0  0  0  0  0  0  0
   -1.2328    1.5925    1.4091 N   0  0  0  0  0  0  0  0  0  0  0  0
   -0.2538    0.9213    0.6239 C   0  0  0  0  0  0  0  0  0  0  0  0
   -0.1661    1.2134   -0.7394 C   0  0  0  0  0  0  0  0  0  0  0  0
    0.7528    0.5373   -1.5528 C   0  0  0  0  0  0  0  0  0  0  0  0
    0.8356    0.8397   -3.0207 C   0  0  0  0  0  0  0  0  0  0  0  0
    1.5794   -0.4314   -0.9704 C   0  0  0  0  0  0  0  0  0  0  0  0
    2.4641   -1.0895   -1.7865 O   0  0  0  0  0  0  0  0  0  0  0  0
    1.5037   -0.7254    0.4000 C   0  0  0  0  0  0  0  0  0  0  0  0
    2.5418   -1.9779    1.1347 S   0  0  0  0  0  0  0  0  0  0  0  0
    3.8863   -1.0344    1.7264 C   0  0  0  0  0  0  0  0  0  0  0  0
    4.9567   -1.6252    2.2666 N   0  0  0  0  0  0  0  0  0  0  0  0
    5.7197   -0.5679    2.5805 N   0  0  0  0  0  0  0  0  0  0  0  0
    5.1216    0.6035    2.2143 C   0  0  0  0  0  0  0  0  0  0  0  0
    5.7373    1.9277    2.4344 C   0  0  0  0  0  0  0  0  0  0  0  0
    3.9577    0.3313    1.6663 N   0  0  0  0  0  0  0  0  0  0  0  0
    0.5734   -0.0459    1.1926 C   0  0  0  0  0  0  0  0  0  0  0  0
   -4.1618    0.6642   -0.1954 C   0  0  0  0  0  0  0  0  0  0  0  0
   -4.7059    0.0690   -1.3346 C   0  0  0  0  0  0  0  0  0  0  0  0
   -4.2963   -1.5726   -3.8097 H   0  0  0  0  0  0  0  0  0  0  0  0
   -4.9166   -2.9486   -2.8655 H   0  0  0  0  0  0  0  0  0  0  0  0
   -5.9348   -1.5298   -3.1097 H   0  0  0  0  0  0  0  0  0  0  0  0
   -3.1083   -2.9414   -1.1904 H   0  0  0  0  0  0  0  0  0  0  0  0
   -2.1527   -1.9033    0.8301 H   0  0  0  0  0  0  0  0  0  0  0  0
   -1.5076    2.5313    1.1261 H   0  0  0  0  0  0  0  0  0  0  0  0
   -0.8238    1.9588   -1.1792 H   0  0  0  0  0  0  0  0  0  0  0  0
    0.1502    1.6458   -3.3035 H   0  0  0  0  0  0  0  0  0  0  0  0
    1.8486    1.1590   -3.2871 H   0  0  0  0  0  0  0  0  0  0  0  0
    0.5680   -0.0464   -3.6056 H   0  0  0  0  0  0  0  0  0  0  0  0
    2.9813   -1.6914   -1.2201 H   0  0  0  0  0  0  0  0  0  0  0  0
    6.6164   -0.7161    3.0297 H   0  0  0  0  0  0  0  0  0  0  0  0
    5.1775    2.7054    1.9055 H   0  0  0  0  0  0  0  0  0  0  0  0
    5.7432    2.1751    3.5004 H   0  0  0  0  0  0  0  0  0  0  0  0
    6.7686    1.9441    2.0678 H   0  0  0  0  0  0  0  0  0  0  0  0
    0.5030   -0.2620    2.2562 H   0  0  0  0  0  0  0  0  0  0  0  0
   -4.4676    1.6695    0.0845 H   0  0  0  0  0  0  0  0  0  0  0  0
   -5.4234    0.6246   -1.9354 H   0  0  0  0  0  0  0  0  0  0  0  0
  1  2  1  0
  2  3  2  0
  3  4  1  0
  4  5  2  0
  5  6  1  0
  6  7  2  0
  6  8  2  0
  6  9  1  0
  9 10  1  0
 10 11  2  0
 11 12  1  0
 12 13  1  0
 12 14  2  0
 14 15  1  0
 14 16  1  0
 16 17  1  0
 17 18  1  0
 18 19  2  0
 19 20  1  0
 20 21  1  0
 21 22  1  0
 21 23  2  0
 16 24  2  0
  5 25  1  0
 25 26  2  0
 26  2  1  0
 24 10  1  0
 23 18  1  0
  1 27  1  0
  1 28  1  0
  1 29  1  0
  3 30  1  0
  4 31  1  0
  9 32  1  0
 11 33  1  0
 13 34  1  0
 13 35  1  0
 13 36  1  0
 15 37  1  0
 20 38  1  0
 22 39  1  0
 22 40  1  0
 22 41  1  0
 24 42  1  0
 25 43  1  0
 26 44  1  0
M  END
$$$$
