
     RDKit          3D

 58 62  0  0  0  0  0  0  0  0999 V2000
    8.0098   -3.0185    2.1096 C   0  0  0  0  0  0  0  0  0  0  0  0
    7.6574   -1.7059    1.6927 O   0  0  0  0  0  0  0  0  0  0  0  0
    6.3819   -1.5179    1.2362 C   0  0  0  0  0  0  0  0  0  0  0  0
    5.4101   -2.5089    1.0775 C   0  0  0  0  0  0  0  0  0  0  0  0
    4.1304   -2.1706    0.6163 C   0  0  0  0  0  0  0  0  0  0  0  0
    3.8056   -0.8493    0.2993 C   0  0  0  0  0  0  0  0  0  0  0  0
    2.5006   -0.5690   -0.1446 N   0  0  0  0  0  0  0  0  0  0  0  0
    2.1325    0.6513   -0.4587 C   0  0  0  0  0  0  0  0  0  0  0  0
    0.8093    0.8383   -0.8637 N   0  0  0  0  0  0  0  0  0  0  0  0
    0.0863    2.0916   -0.6047 C   0  0  0  0  0  0  0  0  0  0  0  0
   -1.4298    1.8804   -0.4096 C   0  0  0  0  0  0  0  0  0  0  0  0
   -2.0309    1.2129   -1.5628 N   0  0  0  0  0  0  0  0  0  0  0  0
   -3.4858    1.0389   -1.4919 C   0  0  0  0  0  0  0  0  0  0  0  0
   -4.0274    0.3276   -0.2292 C   0  0  0  0  0  0  0  0  0  0  0  0
   -5.5084   -0.0133   -0.3012 C   0  0  0  0  0  0  0  0  0  0  0  0
   -6.4264    0.9977   -0.6425 C   0  0  0  0  0  0  0  0  0  0  0  0
   -7.7924    0.7339   -0.7225 C   0  0  0  0  0  0  0  0  0  0  0  0
   -8.2747   -0.5367   -0.4398 C   0  0  0  0  0  0  0  0  0  0  0  0
   -7.3907   -1.5437   -0.0681 C   0  0  0  0  0  0  0  0  0  0  0  0
   -6.0028   -1.3040    0.0107 C   0  0  0  0  0  0  0  0  0  0  0  0
   -5.0884   -2.4454    0.4206 C   0  0  0  0  0  0  0  0  0  0  0  0
   -5.7491   -3.5985    0.7376 F   0  0  0  0  0  0  0  0  0  0  0  0
   -4.3361   -2.1494    1.5174 F   0  0  0  0  0  0  0  0  0  0  0  0
   -4.2061   -2.7895   -0.5650 F   0  0  0  0  0  0  0  0  0  0  0  0
   -1.2905    0.0008   -1.9542 C   0  0  0  0  0  0  0  0  0  0  0  0
   -0.0455   -0.3366   -1.0992 C   0  0  0  0  0  0  0  0  0  0  0  0
    3.1371    1.7122   -0.3661 C   0  0  0  0  0  0  0  0  0  0  0  0
    3.1196    3.0543   -0.7093 C   0  0  0  0  0  0  0  0  0  0  0  0
    4.3838    3.6075   -0.3969 C   0  0  0  0  0  0  0  0  0  0  0  0
    5.1573    2.5886    0.1095 C   0  0  0  0  0  0  0  0  0  0  0  0
    4.4113    1.4343    0.0949 N   0  0  0  0  0  0  0  0  0  0  0  0
    4.7920    0.1288    0.4496 C   0  0  0  0  0  0  0  0  0  0  0  0
    6.0722   -0.1929    0.9120 C   0  0  0  0  0  0  0  0  0  0  0  0
    8.0004   -3.7162    1.2630 H   0  0  0  0  0  0  0  0  0  0  0  0
    9.0329   -2.9822    2.4986 H   0  0  0  0  0  0  0  0  0  0  0  0
    7.3582   -3.3653    2.9196 H   0  0  0  0  0  0  0  0  0  0  0  0
    5.6087   -3.5512    1.3069 H   0  0  0  0  0  0  0  0  0  0  0  0
    3.3755   -2.9426    0.5080 H   0  0  0  0  0  0  0  0  0  0  0  0
    0.4689    2.5745    0.3019 H   0  0  0  0  0  0  0  0  0  0  0  0
    0.2379    2.7703   -1.4528 H   0  0  0  0  0  0  0  0  0  0  0  0
   -1.5884    1.3023    0.5067 H   0  0  0  0  0  0  0  0  0  0  0  0
   -1.9013    2.8587   -0.2644 H   0  0  0  0  0  0  0  0  0  0  0  0
   -3.8315    0.5139   -2.3939 H   0  0  0  0  0  0  0  0  0  0  0  0
   -3.9307    2.0385   -1.5594 H   0  0  0  0  0  0  0  0  0  0  0  0
   -3.8811    0.9623    0.6548 H   0  0  0  0  0  0  0  0  0  0  0  0
   -3.4323   -0.5731   -0.0620 H   0  0  0  0  0  0  0  0  0  0  0  0
   -6.0873    2.0111   -0.8513 H   0  0  0  0  0  0  0  0  0  0  0  0
   -8.4798    1.5249   -1.0034 H   0  0  0  0  0  0  0  0  0  0  0  0
   -9.3392   -0.7414   -0.5013 H   0  0  0  0  0  0  0  0  0  0  0  0
   -7.7912   -2.5298    0.1642 H   0  0  0  0  0  0  0  0  0  0  0  0
   -1.9387   -0.8821   -1.9722 H   0  0  0  0  0  0  0  0  0  0  0  0
   -0.9596    0.1558   -2.9903 H   0  0  0  0  0  0  0  0  0  0  0  0
   -0.3657   -0.7514   -0.1357 H   0  0  0  0  0  0  0  0  0  0  0  0
    0.5166   -1.1162   -1.6263 H   0  0  0  0  0  0  0  0  0  0  0  0
    2.2946    3.5947   -1.1500 H   0  0  0  0  0  0  0  0  0  0  0  0
    4.6985    4.6330   -0.5372 H   0  0  0  0  0  0  0  0  0  0  0  0
    6.1795    2.6016    0.4519 H   0  0  0  0  0  0  0  0  0  0  0  0
    6.8429    0.5608    1.0288 H   0  0  0  0  0  0  0  0  0  0  0  0
  1  2  1  0
  2  3  1  0
  3  4  2  0
  4  5  1  0
  5  6  2  0
  6  7  1  0
  7  8  2  0
  8  9  1  0
  9 10  1  0
 10 11  1  0
 11 12  1  0
 12 13  1  0
 13 14  1  0
 14 15  1  0
 15 16  2  0
 16 17  1  0
 17 18  2  0
 18 19  1  0
 19 20  2  0
 20 21  1  0
 21 22  1  0
 21 23  1  0
 21 24  1  0
 12 25  1  0
 25 26  1  0
  8 27  1  0
 27 28  2  0
 28 29  1  0
 29 30  2  0
 30 31  1  0
 31 32  1  0
 32 33  2  0
 33  3  1  0
 32  6  1  0
 26  9  1  0
 31 27  1  0
 20 15  1  0
  1 34  1  0
  1 35  1  0
  1 36  1  0
  4 37  1  0
  5 38  1  0
 10 39  1  0
 10 40  1  0
 11 41  1  0
 11 42  1  0
 13 43  1  0
 13 44  1  0
 14 45  1  0
 14 46  1  0
 16 47  1  0
 17 48  1  0
 18 49  1  0
 19 50  1  0
 25 51  1  0
 25 52  1  0
 26 53  1  0
 26 54  1  0
 28 55  1  0
 29 56  1  0
 30 57  1  0
 33 58  1  0
M  END
$$$$
