
     RDKit          3D

 38 40  0  0  0  0  0  0  0  0999 V2000
   -7.8277   -0.8237   -0.7843 C   0  0  0  0  0  0  0  0  0  0  0  0
   -6.4992   -1.5296   -0.9895 C   0  0  0  0  0  0  0  0  0  0  0  0
   -5.4146   -0.6075   -1.0521 O   0  0  0  0  0  0  0  0  0  0  0  0
   -5.0183   -0.1114    0.2277 C   0  0  0  0  0  0  0  0  0  0  0  0
   -3.8012    0.7299    0.0312 C   0  0  0  0  0  0  0  0  0  0  0  0
   -3.7590    2.0428    0.1516 N   0  0  0  0  0  0  0  0  0  0  0  0
   -2.4932    2.5415   -0.0817 N   0  0  0  0  0  0  0  0  0  0  0  0
   -1.6276    1.5905   -0.3537 C   0  0  0  0  0  0  0  0  0  0  0  0
   -0.3112    1.8712   -0.6224 N   0  0  0  0  0  0  0  0  0  0  0  0
    0.6951    0.9618   -0.8848 C   0  0  0  0  0  0  0  0  0  0  0  0
    0.5865   -0.2588   -0.9010 O   0  0  0  0  0  0  0  0  0  0  0  0
    2.0347    1.6704   -1.1511 C   0  0  0  0  0  0  0  0  0  0  0  0
    3.1465    0.8350   -1.4206 O   0  0  0  0  0  0  0  0  0  0  0  0
    3.8514    0.3382   -0.3584 C   0  0  0  0  0  0  0  0  0  0  0  0
    3.4160    0.3149    0.9798 C   0  0  0  0  0  0  0  0  0  0  0  0
    4.2282   -0.2249    1.9859 C   0  0  0  0  0  0  0  0  0  0  0  0
    5.4546   -0.7338    1.6208 C   0  0  0  0  0  0  0  0  0  0  0  0
    5.8780   -0.7245    0.3143 C   0  0  0  0  0  0  0  0  0  0  0  0
    5.0994   -0.2002   -0.6950 C   0  0  0  0  0  0  0  0  0  0  0  0
    7.1114   -1.2777    0.1646 O   0  0  0  0  0  0  0  0  0  0  0  0
    7.4107   -1.6442    1.5275 C   0  0  0  0  0  0  0  0  0  0  0  0
    6.3664   -1.2930    2.4595 O   0  0  0  0  0  0  0  0  0  0  0  0
   -2.2800    0.0196   -0.3409 S   0  0  0  0  0  0  0  0  0  0  0  0
   -8.6570   -1.5321   -0.8691 H   0  0  0  0  0  0  0  0  0  0  0  0
   -7.9621   -0.0299   -1.5263 H   0  0  0  0  0  0  0  0  0  0  0  0
   -7.8809   -0.3550    0.2028 H   0  0  0  0  0  0  0  0  0  0  0  0
   -6.3225   -2.2814   -0.2121 H   0  0  0  0  0  0  0  0  0  0  0  0
   -6.5237   -2.0549   -1.9501 H   0  0  0  0  0  0  0  0  0  0  0  0
   -5.8191    0.4998    0.6562 H   0  0  0  0  0  0  0  0  0  0  0  0
   -4.8026   -0.9425    0.9089 H   0  0  0  0  0  0  0  0  0  0  0  0
   -0.1110    2.8623   -0.6132 H   0  0  0  0  0  0  0  0  0  0  0  0
    2.2540    2.3780   -0.3412 H   0  0  0  0  0  0  0  0  0  0  0  0
    1.8864    2.2760   -2.0539 H   0  0  0  0  0  0  0  0  0  0  0  0
    2.4396    0.6875    1.2698 H   0  0  0  0  0  0  0  0  0  0  0  0
    3.8993   -0.2524    3.0186 H   0  0  0  0  0  0  0  0  0  0  0  0
    5.4467   -0.2048   -1.7221 H   0  0  0  0  0  0  0  0  0  0  0  0
    8.3349   -1.1391    1.8312 H   0  0  0  0  0  0  0  0  0  0  0  0
    7.5710   -2.7278    1.5730 H   0  0  0  0  0  0  0  0  0  0  0  0
  1  2  1  0
  2  3  1  0
  3  4  1  0
  4  5  1  0
  5  6  2  0
  6  7  1  0
  7  8  2  0
  8  9  1  0
  9 10  1  0
 10 11  2  0
 10 12  1  0
 12 13  1  0
 13 14  1  0
 14 15  2  0
 15 16  1  0
 16 17  2  0
 17 18  1  0
 18 19  2  0
 18 20  1  0
 20 21  1  0
 21 22  1  0
  8 23  1  0
 23  5  1  0
 19 14  1  0
 22 17  1  0
  1 24  1  0
  1 25  1  0
  1 26  1  0
  2 27  1  0
  2 28  1  0
  4 29  1  0
  4 30  1  0
  9 31  1  0
 12 32  1  0
 12 33  1  0
 15 34  1  0
 16 35  1  0
 19 36  1  0
 21 37  1  0
 21 38  1  0
M  END
$$$$
