
     RDKit          3D

 46 49  0  0  0  0  0  0  0  0999 V2000
    4.2174    0.2377    1.0005 O   0  0  0  0  0  0  0  0  0  0  0  0
    3.3850    1.0519    0.6034 C   0  0  0  0  0  0  0  0  0  0  0  0
    3.6875    1.9380   -0.5987 C   0  0  0  0  0  0  0  0  0  0  0  0
    2.9763    1.2448   -2.1251 S   0  0  0  0  0  0  0  0  0  0  0  0
    1.3070    1.6076   -1.8836 C   0  0  0  0  0  0  0  0  0  0  0  0
    0.8512    2.5138   -1.0493 N   0  0  0  0  0  0  0  0  0  0  0  0
   -0.5141    2.4322   -1.0545 N   0  0  0  0  0  0  0  0  0  0  0  0
   -0.8738    1.4735   -1.8919 C   0  0  0  0  0  0  0  0  0  0  0  0
   -2.2757    1.0258   -2.1477 C   0  0  0  0  0  0  0  0  0  0  0  0
   -2.9422    0.5248   -0.8979 C   0  0  0  0  0  0  0  0  0  0  0  0
   -2.7141   -0.6572   -0.2142 C   0  0  0  0  0  0  0  0  0  0  0  0
   -3.5487   -0.7925    0.9335 C   0  0  0  0  0  0  0  0  0  0  0  0
   -4.3849    0.2916    1.0902 C   0  0  0  0  0  0  0  0  0  0  0  0
   -4.1540    1.4661   -0.1315 S   0  0  0  0  0  0  0  0  0  0  0  0
    0.2634    0.9475   -2.4732 N   0  0  0  0  0  0  0  0  0  0  0  0
    0.3303   -0.0666   -3.5090 C   0  0  0  0  0  0  0  0  0  0  0  0
    0.1281   -1.4284   -2.9585 C   0  0  0  0  0  0  0  0  0  0  0  0
   -0.7550   -2.4488   -3.2561 C   0  0  0  0  0  0  0  0  0  0  0  0
   -0.4374   -3.5179   -2.3824 C   0  0  0  0  0  0  0  0  0  0  0  0
    0.6200   -3.0874   -1.6147 C   0  0  0  0  0  0  0  0  0  0  0  0
    0.9701   -1.8218   -1.9598 O   0  0  0  0  0  0  0  0  0  0  0  0
    2.1362    1.2794    1.1598 N   0  0  0  0  0  0  0  0  0  0  0  0
    1.5536    0.6392    2.2719 C   0  0  0  0  0  0  0  0  0  0  0  0
    2.2392   -0.2531    3.1046 C   0  0  0  0  0  0  0  0  0  0  0  0
    1.5963   -0.8391    4.2001 C   0  0  0  0  0  0  0  0  0  0  0  0
    0.2649   -0.5331    4.4759 C   0  0  0  0  0  0  0  0  0  0  0  0
   -0.4207    0.3605    3.6521 C   0  0  0  0  0  0  0  0  0  0  0  0
   -2.0617    0.7540    4.0054 Cl  0  0  0  0  0  0  0  0  0  0  0  0
    0.2143    0.9439    2.5536 C   0  0  0  0  0  0  0  0  0  0  0  0
    3.3445    2.9622   -0.4206 H   0  0  0  0  0  0  0  0  0  0  0  0
    4.7755    1.9866   -0.7174 H   0  0  0  0  0  0  0  0  0  0  0  0
   -2.8379    1.8632   -2.5814 H   0  0  0  0  0  0  0  0  0  0  0  0
   -2.3145    0.2266   -2.8918 H   0  0  0  0  0  0  0  0  0  0  0  0
   -1.9774   -1.3906   -0.5146 H   0  0  0  0  0  0  0  0  0  0  0  0
   -3.5277   -1.6310    1.6174 H   0  0  0  0  0  0  0  0  0  0  0  0
   -5.1081    0.4600    1.8757 H   0  0  0  0  0  0  0  0  0  0  0  0
    1.2943    0.0006   -4.0228 H   0  0  0  0  0  0  0  0  0  0  0  0
   -0.4359    0.1762   -4.2543 H   0  0  0  0  0  0  0  0  0  0  0  0
   -1.5349   -2.4341   -4.0106 H   0  0  0  0  0  0  0  0  0  0  0  0
   -0.9155   -4.4866   -2.3215 H   0  0  0  0  0  0  0  0  0  0  0  0
    1.2046   -3.5387   -0.8257 H   0  0  0  0  0  0  0  0  0  0  0  0
    1.5224    1.9146    0.6476 H   0  0  0  0  0  0  0  0  0  0  0  0
    3.2817   -0.5092    2.9321 H   0  0  0  0  0  0  0  0  0  0  0  0
    2.1446   -1.5269    4.8399 H   0  0  0  0  0  0  0  0  0  0  0  0
   -0.2288   -0.9882    5.3280 H   0  0  0  0  0  0  0  0  0  0  0  0
   -0.3452    1.6289    1.9188 H   0  0  0  0  0  0  0  0  0  0  0  0
  1  2  2  0
  2  3  1  0
  3  4  1  0
  4  5  1  0
  5  6  2  0
  6  7  1  0
  7  8  2  0
  8  9  1  0
  9 10  1  0
 10 11  2  0
 11 12  1  0
 12 13  2  0
 13 14  1  0
  8 15  1  0
 15 16  1  0
 16 17  1  0
 17 18  2  0
 18 19  1  0
 19 20  2  0
 20 21  1  0
  2 22  1  0
 22 23  1  0
 23 24  2  0
 24 25  1  0
 25 26  2  0
 26 27  1  0
 27 28  1  0
 27 29  2  0
 15  5  1  0
 21 17  1  0
 29 23  1  0
 14 10  1  0
  3 30  1  0
  3 31  1  0
  9 32  1  0
  9 33  1  0
 11 34  1  0
 12 35  1  0
 13 36  1  0
 16 37  1  0
 16 38  1  0
 18 39  1  0
 19 40  1  0
 20 41  1  0
 22 42  1  0
 24 43  1  0
 25 44  1  0
 26 45  1  0
 29 46  1  0
M  END
$$$$
