
     RDKit          3D

 47 49  0  0  0  0  0  0  0  0999 V2000
    6.3488    2.5964    0.7566 C   0  0  0  0  0  0  0  0  0  0  0  0
    6.9056    1.1963    0.5517 C   0  0  0  0  0  0  0  0  0  0  0  0
    5.8091    0.1741    0.3930 C   0  0  0  0  0  0  0  0  0  0  0  0
    5.3206   -0.1515   -0.8788 C   0  0  0  0  0  0  0  0  0  0  0  0
    4.2985   -1.0926   -1.0229 C   0  0  0  0  0  0  0  0  0  0  0  0
    3.7389   -1.7070    0.0994 C   0  0  0  0  0  0  0  0  0  0  0  0
    2.7035   -2.6382   -0.0465 N   0  0  0  0  0  0  0  0  0  0  0  0
    1.4860   -2.2177   -0.0487 C   0  0  0  0  0  0  0  0  0  0  0  0
    1.0512   -0.9374    0.0780 N   0  0  0  0  0  0  0  0  0  0  0  0
   -0.2944   -0.7104    0.0309 C   0  0  0  0  0  0  0  0  0  0  0  0
   -0.7945    0.3994    0.1134 O   0  0  0  0  0  0  0  0  0  0  0  0
   -1.0191   -2.0046   -0.1427 C   0  0  0  0  0  0  0  0  0  0  0  0
   -2.3400   -2.2082   -0.2432 C   0  0  0  0  0  0  0  0  0  0  0  0
   -3.3746   -1.1720   -0.1874 C   0  0  0  0  0  0  0  0  0  0  0  0
   -3.6452   -0.4966    1.0078 C   0  0  0  0  0  0  0  0  0  0  0  0
   -4.6297    0.4904    1.0393 C   0  0  0  0  0  0  0  0  0  0  0  0
   -4.9032    1.1394    2.2141 O   0  0  0  0  0  0  0  0  0  0  0  0
   -3.9105    2.1397    2.4610 C   0  0  0  0  0  0  0  0  0  0  0  0
   -5.3743    0.7691   -0.1052 C   0  0  0  0  0  0  0  0  0  0  0  0
   -6.3541    1.7289   -0.0648 O   0  0  0  0  0  0  0  0  0  0  0  0
   -5.1270    0.0896   -1.3051 C   0  0  0  0  0  0  0  0  0  0  0  0
   -5.9287    0.4624   -2.3563 O   0  0  0  0  0  0  0  0  0  0  0  0
   -5.6711   -0.1595   -3.6108 C   0  0  0  0  0  0  0  0  0  0  0  0
   -4.1227   -0.8820   -1.3410 C   0  0  0  0  0  0  0  0  0  0  0  0
    0.1322   -3.3010   -0.2297 S   0  0  0  0  0  0  0  0  0  0  0  0
    4.2325   -1.3943    1.3671 C   0  0  0  0  0  0  0  0  0  0  0  0
    5.2548   -0.4543    1.5160 C   0  0  0  0  0  0  0  0  0  0  0  0
    5.7286    2.9051   -0.0915 H   0  0  0  0  0  0  0  0  0  0  0  0
    5.7336    2.6511    1.6609 H   0  0  0  0  0  0  0  0  0  0  0  0
    7.1659    3.3169    0.8593 H   0  0  0  0  0  0  0  0  0  0  0  0
    7.5541    1.1816   -0.3329 H   0  0  0  0  0  0  0  0  0  0  0  0
    7.5449    0.9222    1.4002 H   0  0  0  0  0  0  0  0  0  0  0  0
    5.7388    0.3193   -1.7664 H   0  0  0  0  0  0  0  0  0  0  0  0
    3.9395   -1.3511   -2.0156 H   0  0  0  0  0  0  0  0  0  0  0  0
    1.6854   -0.1620    0.1868 H   0  0  0  0  0  0  0  0  0  0  0  0
   -2.7264   -3.2146   -0.3928 H   0  0  0  0  0  0  0  0  0  0  0  0
   -3.0915   -0.7265    1.9139 H   0  0  0  0  0  0  0  0  0  0  0  0
   -4.2717    2.7678    3.2821 H   0  0  0  0  0  0  0  0  0  0  0  0
   -3.7462    2.7838    1.5845 H   0  0  0  0  0  0  0  0  0  0  0  0
   -2.9649    1.6786    2.7785 H   0  0  0  0  0  0  0  0  0  0  0  0
   -6.7490    1.7269   -0.9575 H   0  0  0  0  0  0  0  0  0  0  0  0
   -4.6539    0.0555   -3.9579 H   0  0  0  0  0  0  0  0  0  0  0  0
   -6.3686    0.2623   -4.3420 H   0  0  0  0  0  0  0  0  0  0  0  0
   -5.8543   -1.2393   -3.5600 H   0  0  0  0  0  0  0  0  0  0  0  0
   -3.9011   -1.4258   -2.2536 H   0  0  0  0  0  0  0  0  0  0  0  0
    3.8217   -1.8888    2.2434 H   0  0  0  0  0  0  0  0  0  0  0  0
    5.6222   -0.2215    2.5133 H   0  0  0  0  0  0  0  0  0  0  0  0
  1  2  1  0
  2  3  1  0
  3  4  2  0
  4  5  1  0
  5  6  2  0
  6  7  1  0
  7  8  2  3
  8  9  1  0
  9 10  1  0
 10 11  2  0
 10 12  1  0
 12 13  2  3
 13 14  1  0
 14 15  2  0
 15 16  1  0
 16 17  1  0
 17 18  1  0
 16 19  2  0
 19 20  1  0
 19 21  1  0
 21 22  1  0
 22 23  1  0
 21 24  2  0
 12 25  1  0
  6 26  1  0
 26 27  2  0
 27  3  1  0
 25  8  1  0
 24 14  1  0
  1 28  1  0
  1 29  1  0
  1 30  1  0
  2 31  1  0
  2 32  1  0
  4 33  1  0
  5 34  1  0
  9 35  1  0
 13 36  1  0
 15 37  1  0
 18 38  1  0
 18 39  1  0
 18 40  1  0
 20 41  1  0
 23 42  1  0
 23 43  1  0
 23 44  1  0
 24 45  1  0
 26 46  1  0
 27 47  1  0
M  END
$$$$
