
     RDKit          3D

 82 86  0  0  0  0  0  0  0  0999 V2000
    0.2889    5.4507   -1.3373 C   0  0  0  0  0  0  0  0  0  0  0  0
    0.4344    4.3277   -0.3417 C   0  0  0  0  0  0  0  0  0  0  0  0
    1.5775    3.6081   -0.3375 C   0  0  0  0  0  0  0  0  0  0  0  0
    2.0247    2.5298    0.6177 C   0  0  0  0  0  0  0  0  0  0  0  0
    2.0875    1.1312   -0.0192 C   0  0  0  0  0  0  0  0  0  0  0  0
    0.6943    0.5375   -0.2084 C   0  0  0  0  0  0  0  0  0  0  0  0
    0.8131   -0.8864   -0.7324 C   0  0  0  0  0  0  0  0  0  0  0  0
    1.7284   -1.7240    0.1545 C   0  0  0  0  0  0  0  0  0  0  0  0
    3.0917   -1.0325    0.3457 C   0  0  0  0  0  0  0  0  0  0  0  0
    3.8598   -1.8227    1.4200 C   0  0  0  0  0  0  0  0  0  0  0  0
    5.3306   -1.4346    1.4950 C   0  0  0  0  0  0  0  0  0  0  0  0
    5.9568   -1.5677    0.1085 C   0  0  0  0  0  0  0  0  0  0  0  0
    7.4471   -1.2435    0.1478 C   0  0  0  0  0  0  0  0  0  0  0  0
    5.1723   -0.7333   -0.9198 C   0  0  0  0  0  0  0  0  0  0  0  0
    5.4007    0.7777   -0.8402 C   0  0  0  0  0  0  0  0  0  0  0  0
    3.7759   -1.0657   -0.9129 O   0  0  0  0  0  0  0  0  0  0  0  0
    2.8903    0.2978    0.8323 O   0  0  0  0  0  0  0  0  0  0  0  0
   -0.4811   -1.4814   -0.9874 O   0  0  0  0  0  0  0  0  0  0  0  0
   -1.3217   -1.8146    0.0319 C   0  0  0  0  0  0  0  0  0  0  0  0
   -1.0792   -1.6869    1.2243 O   0  0  0  0  0  0  0  0  0  0  0  0
   -2.6042   -2.4237   -0.5421 C   0  0  0  0  0  0  0  0  0  0  0  0
   -2.8420   -3.7848    0.0788 C   0  0  0  0  0  0  0  0  0  0  0  0
   -4.0649   -4.3313    0.1955 C   0  0  0  0  0  0  0  0  0  0  0  0
   -4.2666   -5.7255    0.7165 C   0  0  0  0  0  0  0  0  0  0  0  0
   -5.2786   -3.5555   -0.2515 C   0  0  0  0  0  0  0  0  0  0  0  0
   -6.4376   -4.0201    0.4397 O   0  0  0  0  0  0  0  0  0  0  0  0
   -5.1225   -2.0492    0.0056 C   0  0  0  0  0  0  0  0  0  0  0  0
   -5.2048   -1.8220    1.4362 O   0  0  0  0  0  0  0  0  0  0  0  0
   -4.2820   -0.7757    1.7593 C   0  0  0  0  0  0  0  0  0  0  0  0
   -3.7036   -0.2903    0.4645 C   0  0  0  0  0  0  0  0  0  0  0  0
   -3.2745    0.9777    0.3319 C   0  0  0  0  0  0  0  0  0  0  0  0
   -2.7157    1.5902   -0.8477 C   0  0  0  0  0  0  0  0  0  0  0  0
   -2.2280    2.8393   -0.9426 C   0  0  0  0  0  0  0  0  0  0  0  0
   -2.1510    3.9104    0.1229 C   0  0  0  0  0  0  0  0  0  0  0  0
   -2.8427    5.1908   -0.3615 C   0  0  0  0  0  0  0  0  0  0  0  0
   -0.7067    4.1466    0.6490 C   0  0  0  0  0  0  0  0  0  0  0  0
   -3.8078   -1.4344   -0.5149 C   0  0  0  0  0  0  0  0  0  0  0  0
   -4.0328   -0.9429   -1.8434 O   0  0  0  0  0  0  0  0  0  0  0  0
   -0.0624    6.3599   -0.8394 H   0  0  0  0  0  0  0  0  0  0  0  0
   -0.4111    5.1762   -2.1314 H   0  0  0  0  0  0  0  0  0  0  0  0
    1.2410    5.7013   -1.8185 H   0  0  0  0  0  0  0  0  0  0  0  0
    2.3305    3.8402   -1.0936 H   0  0  0  0  0  0  0  0  0  0  0  0
    3.0307    2.8024    0.9647 H   0  0  0  0  0  0  0  0  0  0  0  0
    1.4270    2.4996    1.5346 H   0  0  0  0  0  0  0  0  0  0  0  0
    2.5828    1.2102   -0.9942 H   0  0  0  0  0  0  0  0  0  0  0  0
    0.1497    0.5418    0.7430 H   0  0  0  0  0  0  0  0  0  0  0  0
    0.1123    1.1378   -0.9122 H   0  0  0  0  0  0  0  0  0  0  0  0
    1.2757   -0.8333   -1.7265 H   0  0  0  0  0  0  0  0  0  0  0  0
    1.2643   -1.8736    1.1359 H   0  0  0  0  0  0  0  0  0  0  0  0
    1.8467   -2.7188   -0.2938 H   0  0  0  0  0  0  0  0  0  0  0  0
    3.8104   -2.8964    1.1947 H   0  0  0  0  0  0  0  0  0  0  0  0
    3.4054   -1.6729    2.4081 H   0  0  0  0  0  0  0  0  0  0  0  0
    5.4312   -0.4125    1.8794 H   0  0  0  0  0  0  0  0  0  0  0  0
    5.8423   -2.0945    2.2053 H   0  0  0  0  0  0  0  0  0  0  0  0
    5.8599   -2.6216   -0.1920 H   0  0  0  0  0  0  0  0  0  0  0  0
    7.8862   -1.3096   -0.8522 H   0  0  0  0  0  0  0  0  0  0  0  0
    7.9763   -1.9540    0.7897 H   0  0  0  0  0  0  0  0  0  0  0  0
    7.6368   -0.2421    0.5438 H   0  0  0  0  0  0  0  0  0  0  0  0
    5.5246   -1.0374   -1.9157 H   0  0  0  0  0  0  0  0  0  0  0  0
    5.1456    1.1842    0.1418 H   0  0  0  0  0  0  0  0  0  0  0  0
    4.7780    1.2967   -1.5787 H   0  0  0  0  0  0  0  0  0  0  0  0
    6.4422    1.0336   -1.0465 H   0  0  0  0  0  0  0  0  0  0  0  0
   -2.3767   -2.6552   -1.5954 H   0  0  0  0  0  0  0  0  0  0  0  0
   -1.9637   -4.3517    0.3960 H   0  0  0  0  0  0  0  0  0  0  0  0
   -3.3162   -6.2431    0.8773 H   0  0  0  0  0  0  0  0  0  0  0  0
   -4.8479   -6.3160    0.0029 H   0  0  0  0  0  0  0  0  0  0  0  0
   -4.8009   -5.7040    1.6722 H   0  0  0  0  0  0  0  0  0  0  0  0
   -5.4344   -3.7446   -1.3201 H   0  0  0  0  0  0  0  0  0  0  0  0
   -6.4310   -3.5484    1.2989 H   0  0  0  0  0  0  0  0  0  0  0  0
   -5.9949   -1.5367   -0.4249 H   0  0  0  0  0  0  0  0  0  0  0  0
   -3.5081   -1.1976    2.4082 H   0  0  0  0  0  0  0  0  0  0  0  0
   -4.8206    0.0060    2.3040 H   0  0  0  0  0  0  0  0  0  0  0  0
   -3.3315    1.6076    1.2161 H   0  0  0  0  0  0  0  0  0  0  0  0
   -2.6643    0.9765   -1.7442 H   0  0  0  0  0  0  0  0  0  0  0  0
   -1.8222    3.1264   -1.9130 H   0  0  0  0  0  0  0  0  0  0  0  0
   -2.7296    3.6015    1.0015 H   0  0  0  0  0  0  0  0  0  0  0  0
   -2.4380    5.5703   -1.3046 H   0  0  0  0  0  0  0  0  0  0  0  0
   -2.7606    5.9853    0.3887 H   0  0  0  0  0  0  0  0  0  0  0  0
   -3.9103    5.0053   -0.5278 H   0  0  0  0  0  0  0  0  0  0  0  0
   -0.7137    5.0232    1.3109 H   0  0  0  0  0  0  0  0  0  0  0  0
   -0.4875    3.2986    1.3072 H   0  0  0  0  0  0  0  0  0  0  0  0
   -4.3003   -1.6872   -2.4086 H   0  0  0  0  0  0  0  0  0  0  0  0
  1  2  1  0
  2  3  2  3
  3  4  1  0
  4  5  1  0
  5  6  1  0
  6  7  1  0
  7  8  1  0
  8  9  1  0
  9 10  1  0
 10 11  1  0
 11 12  1  0
 12 13  1  0
 12 14  1  0
 14 15  1  0
 14 16  1  0
  9 17  1  0
  7 18  1  0
 18 19  1  0
 19 20  2  0
 19 21  1  0
 21 22  1  0
 22 23  2  0
 23 24  1  0
 23 25  1  0
 25 26  1  0
 25 27  1  0
 27 28  1  0
 28 29  1  0
 29 30  1  0
 30 31  2  3
 31 32  1  0
 32 33  2  3
 33 34  1  0
 34 35  1  0
 34 36  1  0
 30 37  1  0
 37 38  1  0
 36  2  1  0
 17  5  1  0
 37 21  1  0
 16  9  1  0
 37 27  1  0
  1 39  1  0
  1 40  1  0
  1 41  1  0
  3 42  1  0
  4 43  1  0
  4 44  1  0
  5 45  1  0
  6 46  1  0
  6 47  1  0
  7 48  1  0
  8 49  1  0
  8 50  1  0
 10 51  1  0
 10 52  1  0
 11 53  1  0
 11 54  1  0
 12 55  1  0
 13 56  1  0
 13 57  1  0
 13 58  1  0
 14 59  1  0
 15 60  1  0
 15 61  1  0
 15 62  1  0
 21 63  1  0
 22 64  1  0
 24 65  1  0
 24 66  1  0
 24 67  1  0
 25 68  1  0
 26 69  1  0
 27 70  1  0
 29 71  1  0
 29 72  1  0
 31 73  1  0
 32 74  1  0
 33 75  1  0
 34 76  1  0
 35 77  1  0
 35 78  1  0
 35 79  1  0
 36 80  1  0
 36 81  1  0
 38 82  1  0
M  END
$$$$
