
     RDKit          3D

 30 32  0  0  0  0  0  0  0  0999 V2000
   -4.4675    1.2545   -1.0108 O   0  0  0  0  0  0  0  0  0  0  0  0
   -4.0615    0.4813   -0.1595 C   0  0  0  0  0  0  0  0  0  0  0  0
   -5.0094   -0.2696    0.6708 C   0  0  0  0  0  0  0  0  0  0  0  0
   -4.3077   -1.0358    1.4980 C   0  0  0  0  0  0  0  0  0  0  0  0
   -2.8847   -0.7973    1.2335 C   0  0  0  0  0  0  0  0  0  0  0  0
   -2.0326   -1.3675    1.8938 O   0  0  0  0  0  0  0  0  0  0  0  0
   -2.7944    0.1186    0.2177 N   0  0  0  0  0  0  0  0  0  0  0  0
   -1.5804    0.6222   -0.3467 C   0  0  0  0  0  0  0  0  0  0  0  0
   -1.5851    1.6638   -1.2868 C   0  0  0  0  0  0  0  0  0  0  0  0
   -0.3985    2.1592   -1.8354 C   0  0  0  0  0  0  0  0  0  0  0  0
    0.8269    1.6206   -1.4570 C   0  0  0  0  0  0  0  0  0  0  0  0
    0.8876    0.5770   -0.5270 C   0  0  0  0  0  0  0  0  0  0  0  0
    2.1814   -0.0040   -0.1234 C   0  0  0  0  0  0  0  0  0  0  0  0
    2.5209   -0.1470    1.2328 C   0  0  0  0  0  0  0  0  0  0  0  0
    3.7475   -0.6965    1.6164 C   0  0  0  0  0  0  0  0  0  0  0  0
    4.6576   -1.1141    0.6491 C   0  0  0  0  0  0  0  0  0  0  0  0
    4.3419   -0.9834   -0.7005 C   0  0  0  0  0  0  0  0  0  0  0  0
    3.1150   -0.4333   -1.0823 C   0  0  0  0  0  0  0  0  0  0  0  0
   -0.3250    0.0954    0.0124 C   0  0  0  0  0  0  0  0  0  0  0  0
   -6.0775   -0.1786    0.5806 H   0  0  0  0  0  0  0  0  0  0  0  0
   -4.6643   -1.7188    2.2486 H   0  0  0  0  0  0  0  0  0  0  0  0
   -2.5046    2.1368   -1.6184 H   0  0  0  0  0  0  0  0  0  0  0  0
   -0.4351    2.9725   -2.5564 H   0  0  0  0  0  0  0  0  0  0  0  0
    1.7394    2.0300   -1.8857 H   0  0  0  0  0  0  0  0  0  0  0  0
    1.8288    0.1790    2.0071 H   0  0  0  0  0  0  0  0  0  0  0  0
    3.9892   -0.7968    2.6713 H   0  0  0  0  0  0  0  0  0  0  0  0
    5.6106   -1.5428    0.9471 H   0  0  0  0  0  0  0  0  0  0  0  0
    5.0476   -1.3128   -1.4586 H   0  0  0  0  0  0  0  0  0  0  0  0
    2.8850   -0.3537   -2.1429 H   0  0  0  0  0  0  0  0  0  0  0  0
   -0.2510   -0.7329    0.7123 H   0  0  0  0  0  0  0  0  0  0  0  0
  1  2  2  0
  2  3  1  0
  3  4  2  0
  4  5  1  0
  5  6  2  0
  5  7  1  0
  7  8  1  0
  8  9  2  0
  9 10  1  0
 10 11  2  0
 11 12  1  0
 12 13  1  0
 13 14  2  0
 14 15  1  0
 15 16  2  0
 16 17  1  0
 17 18  2  0
 12 19  2  0
  7  2  1  0
 19  8  1  0
 18 13  1  0
  3 20  1  0
  4 21  1  0
  9 22  1  0
 10 23  1  0
 11 24  1  0
 14 25  1  0
 15 26  1  0
 16 27  1  0
 17 28  1  0
 18 29  1  0
 19 30  1  0
M  END
$$$$
