
     RDKit          3D

 39 40  0  0  0  0  0  0  0  0999 V2000
    5.7470   -1.0131    0.7290 C   0  0  0  0  0  0  0  0  0  0  0  0
    5.7723   -0.2439   -0.5863 C   0  0  0  0  0  0  0  0  0  0  0  0
    4.7953    0.9436   -0.5944 C   0  0  0  0  0  0  0  0  0  0  0  0
    5.0667    1.8350   -1.8088 C   0  0  0  0  0  0  0  0  0  0  0  0
    3.3283    0.4935   -0.6254 C   0  0  0  0  0  0  0  0  0  0  0  0
    3.0108   -0.6461   -0.9464 O   0  0  0  0  0  0  0  0  0  0  0  0
    2.4695    1.5155   -0.2823 N   0  0  0  0  0  0  0  0  0  0  0  0
    1.0995    1.4612   -0.2276 C   0  0  0  0  0  0  0  0  0  0  0  0
    0.3772    2.5004    0.1294 N   0  0  0  0  0  0  0  0  0  0  0  0
   -0.9758    2.2273    0.1128 N   0  0  0  0  0  0  0  0  0  0  0  0
   -1.2213    0.9882   -0.2597 C   0  0  0  0  0  0  0  0  0  0  0  0
   -2.5831    0.3883   -0.3742 C   0  0  0  0  0  0  0  0  0  0  0  0
   -3.0851   -0.0962    0.9868 C   0  0  0  0  0  0  0  0  0  0  0  0
   -4.4593   -0.7098    0.8828 C   0  0  0  0  0  0  0  0  0  0  0  0
   -5.6040    0.0913    0.9918 C   0  0  0  0  0  0  0  0  0  0  0  0
   -6.8750   -0.4730    0.8742 C   0  0  0  0  0  0  0  0  0  0  0  0
   -7.0130   -1.8405    0.6423 C   0  0  0  0  0  0  0  0  0  0  0  0
   -5.8804   -2.6450    0.5273 C   0  0  0  0  0  0  0  0  0  0  0  0
   -4.6083   -2.0829    0.6453 C   0  0  0  0  0  0  0  0  0  0  0  0
    0.1893    0.0747   -0.6111 S   0  0  0  0  0  0  0  0  0  0  0  0
    5.9992   -0.3583    1.5694 H   0  0  0  0  0  0  0  0  0  0  0  0
    4.7649   -1.4547    0.9212 H   0  0  0  0  0  0  0  0  0  0  0  0
    6.4799   -1.8258    0.7032 H   0  0  0  0  0  0  0  0  0  0  0  0
    5.5522   -0.9323   -1.4112 H   0  0  0  0  0  0  0  0  0  0  0  0
    6.7945    0.1222   -0.7434 H   0  0  0  0  0  0  0  0  0  0  0  0
    4.9548    1.5348    0.3169 H   0  0  0  0  0  0  0  0  0  0  0  0
    6.1027    2.1897   -1.8098 H   0  0  0  0  0  0  0  0  0  0  0  0
    4.4153    2.7154   -1.8135 H   0  0  0  0  0  0  0  0  0  0  0  0
    4.8903    1.2911   -2.7434 H   0  0  0  0  0  0  0  0  0  0  0  0
    2.8416    2.4186   -0.0227 H   0  0  0  0  0  0  0  0  0  0  0  0
   -2.5816   -0.4371   -1.0972 H   0  0  0  0  0  0  0  0  0  0  0  0
   -3.2667    1.1460   -0.7780 H   0  0  0  0  0  0  0  0  0  0  0  0
   -3.1108    0.7337    1.7051 H   0  0  0  0  0  0  0  0  0  0  0  0
   -2.3904   -0.8316    1.4138 H   0  0  0  0  0  0  0  0  0  0  0  0
   -5.5127    1.1605    1.1713 H   0  0  0  0  0  0  0  0  0  0  0  0
   -7.7578    0.1545    0.9640 H   0  0  0  0  0  0  0  0  0  0  0  0
   -8.0032   -2.2793    0.5516 H   0  0  0  0  0  0  0  0  0  0  0  0
   -5.9880   -3.7111    0.3456 H   0  0  0  0  0  0  0  0  0  0  0  0
   -3.7347   -2.7248    0.5517 H   0  0  0  0  0  0  0  0  0  0  0  0
  1  2  1  0
  2  3  1  0
  3  4  1  0
  3  5  1  0
  5  6  2  0
  5  7  1  0
  7  8  1  0
  8  9  2  0
  9 10  1  0
 10 11  2  0
 11 12  1  0
 12 13  1  0
 13 14  1  0
 14 15  2  0
 15 16  1  0
 16 17  2  0
 17 18  1  0
 18 19  2  0
 11 20  1  0
 20  8  1  0
 19 14  1  0
  1 21  1  0
  1 22  1  0
  1 23  1  0
  2 24  1  0
  2 25  1  0
  3 26  1  0
  4 27  1  0
  4 28  1  0
  4 29  1  0
  7 30  1  0
 12 31  1  0
 12 32  1  0
 13 33  1  0
 13 34  1  0
 15 35  1  0
 16 36  1  0
 17 37  1  0
 18 38  1  0
 19 39  1  0
M  END
$$$$
