
     RDKit          3D

 36 38  0  0  0  0  0  0  0  0999 V2000
   -2.7017    0.8183   -2.2764 C   0  0  0  0  0  0  0  0  0  0  0  0
   -2.2741    0.2271   -0.9692 C   0  0  0  0  0  0  0  0  0  0  0  0
   -0.9524    0.2188   -0.6866 N   0  0  0  0  0  0  0  0  0  0  0  0
   -0.6058   -0.3396    0.5032 C   0  0  0  0  0  0  0  0  0  0  0  0
    1.1437   -0.3606    0.8841 S   0  0  0  0  0  6  0  0  0  0  0  0
    1.3527    0.5098    2.0325 O   0  0  0  0  0  0  0  0  0  0  0  0
    1.5726   -1.7520    0.8985 O   0  0  0  0  0  0  0  0  0  0  0  0
    1.8717    0.4273   -0.5463 C   0  0  0  0  0  0  0  0  0  0  0  0
    3.3714    0.4915   -0.3823 C   0  0  0  0  0  0  0  0  0  0  0  0
    4.1835   -0.5579   -0.8388 C   0  0  0  0  0  0  0  0  0  0  0  0
    5.5706   -0.4990   -0.6846 C   0  0  0  0  0  0  0  0  0  0  0  0
    6.1534    0.6071   -0.0710 C   0  0  0  0  0  0  0  0  0  0  0  0
    7.8622    0.6799    0.1165 Cl  0  0  0  0  0  0  0  0  0  0  0  0
    5.3605    1.6535    0.3936 C   0  0  0  0  0  0  0  0  0  0  0  0
    3.9734    1.5959    0.2399 C   0  0  0  0  0  0  0  0  0  0  0  0
   -1.4129   -0.8880    1.4342 N   0  0  0  0  0  0  0  0  0  0  0  0
   -2.7019   -0.8365    1.0962 C   0  0  0  0  0  0  0  0  0  0  0  0
   -3.1870   -0.2917   -0.0809 C   0  0  0  0  0  0  0  0  0  0  0  0
   -4.6685   -0.4308   -0.1698 C   0  0  0  0  0  0  0  0  0  0  0  0
   -5.0304   -0.7081    1.2982 C   0  0  0  0  0  0  0  0  0  0  0  0
   -3.8174   -1.4101    1.9236 C   0  0  0  0  0  0  0  0  0  0  0  0
   -3.3520    1.6822   -2.1077 H   0  0  0  0  0  0  0  0  0  0  0  0
   -1.8338    1.1544   -2.8530 H   0  0  0  0  0  0  0  0  0  0  0  0
   -3.2375    0.0740   -2.8736 H   0  0  0  0  0  0  0  0  0  0  0  0
    1.4554    1.4352   -0.6412 H   0  0  0  0  0  0  0  0  0  0  0  0
    1.6105   -0.1529   -1.4370 H   0  0  0  0  0  0  0  0  0  0  0  0
    3.7422   -1.4367   -1.3065 H   0  0  0  0  0  0  0  0  0  0  0  0
    6.1873   -1.3211   -1.0380 H   0  0  0  0  0  0  0  0  0  0  0  0
    5.8133    2.5122    0.8821 H   0  0  0  0  0  0  0  0  0  0  0  0
    3.3664    2.4149    0.6226 H   0  0  0  0  0  0  0  0  0  0  0  0
   -4.9316   -1.2805   -0.8082 H   0  0  0  0  0  0  0  0  0  0  0  0
   -5.1587    0.4768   -0.5325 H   0  0  0  0  0  0  0  0  0  0  0  0
   -5.9502   -1.2926    1.3988 H   0  0  0  0  0  0  0  0  0  0  0  0
   -5.1973    0.2481    1.8137 H   0  0  0  0  0  0  0  0  0  0  0  0
   -3.7105   -1.1748    2.9857 H   0  0  0  0  0  0  0  0  0  0  0  0
   -3.8672   -2.4941    1.7801 H   0  0  0  0  0  0  0  0  0  0  0  0
  1  2  1  0
  2  3  2  0
  3  4  1  0
  4  5  1  0
  5  6  2  0
  5  7  2  0
  5  8  1  0
  8  9  1  0
  9 10  2  0
 10 11  1  0
 11 12  2  0
 12 13  1  0
 12 14  1  0
 14 15  2  0
  4 16  2  0
 16 17  1  0
 17 18  2  0
 18 19  1  0
 19 20  1  0
 20 21  1  0
 18  2  1  0
 15  9  1  0
 21 17  1  0
  1 22  1  0
  1 23  1  0
  1 24  1  0
  8 25  1  0
  8 26  1  0
 10 27  1  0
 11 28  1  0
 14 29  1  0
 15 30  1  0
 19 31  1  0
 19 32  1  0
 20 33  1  0
 20 34  1  0
 21 35  1  0
 21 36  1  0
M  END
$$$$
