
     RDKit          3D

 40 42  0  0  0  0  0  0  0  0999 V2000
   -6.0353    1.0267    1.2378 C   0  0  0  0  0  0  0  0  0  0  0  0
   -5.6723   -0.2708    0.4924 C   0  0  0  0  0  0  0  0  0  0  0  0
   -6.1621   -0.1869   -0.9649 C   0  0  0  0  0  0  0  0  0  0  0  0
   -6.4153   -1.4377    1.1781 C   0  0  0  0  0  0  0  0  0  0  0  0
   -4.1710   -0.5149    0.5405 C   0  0  0  0  0  0  0  0  0  0  0  0
   -3.6000   -1.5705    1.0891 N   0  0  0  0  0  0  0  0  0  0  0  0
   -2.2219   -1.5428    0.9945 N   0  0  0  0  0  0  0  0  0  0  0  0
   -1.7991   -0.4697    0.3789 C   0  0  0  0  0  0  0  0  0  0  0  0
   -0.5316   -0.0533    0.0765 N   0  0  0  0  0  0  0  0  0  0  0  0
    0.5853   -0.7938    0.4202 C   0  0  0  0  0  0  0  0  0  0  0  0
    0.5827   -1.8670    1.0116 O   0  0  0  0  0  0  0  0  0  0  0  0
    1.8772   -0.1019   -0.0354 C   0  0  0  0  0  0  0  0  0  0  0  0
    3.0286   -0.8537    0.3125 O   0  0  0  0  0  0  0  0  0  0  0  0
    4.2455   -0.3386   -0.0414 C   0  0  0  0  0  0  0  0  0  0  0  0
    5.3436   -1.1382    0.3359 C   0  0  0  0  0  0  0  0  0  0  0  0
    6.6556   -0.7504    0.0467 C   0  0  0  0  0  0  0  0  0  0  0  0
    6.8329    0.4403   -0.6195 C   0  0  0  0  0  0  0  0  0  0  0  0
    5.7656    1.2240   -0.9899 C   0  0  0  0  0  0  0  0  0  0  0  0
    4.4599    0.8655   -0.7172 C   0  0  0  0  0  0  0  0  0  0  0  0
    6.1547    2.3568   -1.6364 O   0  0  0  0  0  0  0  0  0  0  0  0
    7.5892    2.1938   -1.6292 C   0  0  0  0  0  0  0  0  0  0  0  0
    8.0255    0.9795   -0.9853 O   0  0  0  0  0  0  0  0  0  0  0  0
   -3.0288    0.5945   -0.1366 S   0  0  0  0  0  0  0  0  0  0  0  0
   -5.6026    1.9104    0.7555 H   0  0  0  0  0  0  0  0  0  0  0  0
   -7.1211    1.1740    1.2679 H   0  0  0  0  0  0  0  0  0  0  0  0
   -5.6723    1.0053    2.2722 H   0  0  0  0  0  0  0  0  0  0  0  0
   -5.7320    0.6719   -1.4924 H   0  0  0  0  0  0  0  0  0  0  0  0
   -5.8911   -1.0881   -1.5275 H   0  0  0  0  0  0  0  0  0  0  0  0
   -7.2523   -0.0807   -1.0093 H   0  0  0  0  0  0  0  0  0  0  0  0
   -6.2061   -2.3925    0.6809 H   0  0  0  0  0  0  0  0  0  0  0  0
   -7.5006   -1.2851    1.1566 H   0  0  0  0  0  0  0  0  0  0  0  0
   -6.1169   -1.5399    2.2284 H   0  0  0  0  0  0  0  0  0  0  0  0
   -0.4495    0.8248   -0.4120 H   0  0  0  0  0  0  0  0  0  0  0  0
    1.8187    0.0111   -1.1251 H   0  0  0  0  0  0  0  0  0  0  0  0
    1.9096    0.8802    0.4524 H   0  0  0  0  0  0  0  0  0  0  0  0
    5.1646   -2.0743    0.8620 H   0  0  0  0  0  0  0  0  0  0  0  0
    7.5001   -1.3647    0.3365 H   0  0  0  0  0  0  0  0  0  0  0  0
    3.6604    1.5214   -1.0325 H   0  0  0  0  0  0  0  0  0  0  0  0
    8.0359    3.0479   -1.1072 H   0  0  0  0  0  0  0  0  0  0  0  0
    7.9462    2.1893   -2.6656 H   0  0  0  0  0  0  0  0  0  0  0  0
  1  2  1  0
  2  3  1  0
  2  4  1  0
  2  5  1  0
  5  6  2  0
  6  7  1  0
  7  8  2  0
  8  9  1  0
  9 10  1  0
 10 11  2  0
 10 12  1  0
 12 13  1  0
 13 14  1  0
 14 15  2  0
 15 16  1  0
 16 17  2  0
 17 18  1  0
 18 19  2  0
 18 20  1  0
 20 21  1  0
 21 22  1  0
  8 23  1  0
 23  5  1  0
 19 14  1  0
 22 17  1  0
  1 24  1  0
  1 25  1  0
  1 26  1  0
  3 27  1  0
  3 28  1  0
  3 29  1  0
  4 30  1  0
  4 31  1  0
  4 32  1  0
  9 33  1  0
 12 34  1  0
 12 35  1  0
 15 36  1  0
 16 37  1  0
 19 38  1  0
 21 39  1  0
 21 40  1  0
M  END
$$$$
