
     RDKit          3D

 59 64  0  0  0  0  0  0  0  0999 V2000
    4.4219   -2.0411   -0.2733 O   0  0  0  0  0  0  0  0  0  0  0  0
    3.6887   -1.0579   -0.2030 C   0  0  0  0  0  0  0  0  0  0  0  0
    4.2662    0.3061   -0.0798 C   0  0  0  0  0  0  0  0  0  0  0  0
    5.4871    0.4559    0.4551 C   0  0  0  0  0  0  0  0  0  0  0  0
    6.1057    1.7333    0.5987 C   0  0  0  0  0  0  0  0  0  0  0  0
    5.7532    2.9823    0.1108 C   0  0  0  0  0  0  0  0  0  0  0  0
    6.6579    4.0153    0.4973 C   0  0  0  0  0  0  0  0  0  0  0  0
    7.6841    3.5341    1.2730 C   0  0  0  0  0  0  0  0  0  0  0  0
    7.5595    1.8508    1.5244 S   0  0  0  0  0  0  0  0  0  0  0  0
    2.3045   -1.1410   -0.2495 N   0  0  0  0  0  0  0  0  0  0  0  0
    1.3898   -0.0508    0.0902 C   0  0  0  0  0  0  0  0  0  0  0  0
    0.0856   -0.5892    0.6656 C   0  0  0  0  0  0  0  0  0  0  0  0
   -0.6818   -1.5218   -0.3159 C   0  0  0  0  0  0  0  0  0  0  0  0
    0.3483   -2.2773   -1.2152 C   0  0  0  0  0  0  0  0  0  0  0  0
    1.7035   -2.4396   -0.5343 C   0  0  0  0  0  0  0  0  0  0  0  0
   -1.3486   -2.4776    0.5547 O   0  0  0  0  0  0  0  0  0  0  0  0
   -2.2892   -3.2789   -0.0313 C   0  0  0  0  0  0  0  0  0  0  0  0
   -2.6684   -4.4101    0.6919 C   0  0  0  0  0  0  0  0  0  0  0  0
   -3.6047   -5.2960    0.1560 C   0  0  0  0  0  0  0  0  0  0  0  0
   -4.1569   -5.0418   -1.0964 C   0  0  0  0  0  0  0  0  0  0  0  0
   -5.0548   -5.8954   -1.6038 F   0  0  0  0  0  0  0  0  0  0  0  0
   -3.7996   -3.9131   -1.8223 C   0  0  0  0  0  0  0  0  0  0  0  0
   -2.8686   -3.0263   -1.2764 C   0  0  0  0  0  0  0  0  0  0  0  0
   -2.5009   -1.7914   -1.9940 C   0  0  0  0  0  0  0  0  0  0  0  0
   -2.8525   -1.6355   -3.1578 O   0  0  0  0  0  0  0  0  0  0  0  0
   -1.7420   -0.7595   -1.1662 C   0  0  0  0  0  0  0  0  0  0  0  0
   -2.7795    0.0462   -0.3889 C   0  0  0  0  0  0  0  0  0  0  0  0
   -2.2574    1.4187   -0.6350 C   0  0  0  0  0  0  0  0  0  0  0  0
   -2.7745    2.5991    0.0956 C   0  0  0  0  0  0  0  0  0  0  0  0
   -3.8366    2.4926    1.0006 C   0  0  0  0  0  0  0  0  0  0  0  0
   -4.2916    3.6258    1.6802 C   0  0  0  0  0  0  0  0  0  0  0  0
   -3.6918    4.8646    1.4580 C   0  0  0  0  0  0  0  0  0  0  0  0
   -2.6376    4.9766    0.5537 C   0  0  0  0  0  0  0  0  0  0  0  0
   -2.1796    3.8473   -0.1272 C   0  0  0  0  0  0  0  0  0  0  0  0
   -1.3167    1.4896   -1.5210 N   0  0  0  0  0  0  0  0  0  0  0  0
   -1.1075    0.1878   -2.0293 O   0  0  0  0  0  0  0  0  0  0  0  0
    3.6845    1.1348   -0.4558 H   0  0  0  0  0  0  0  0  0  0  0  0
    6.0268   -0.4220    0.8088 H   0  0  0  0  0  0  0  0  0  0  0  0
    4.8836    3.1608   -0.5087 H   0  0  0  0  0  0  0  0  0  0  0  0
    6.5590    5.0566    0.2170 H   0  0  0  0  0  0  0  0  0  0  0  0
    8.5071    4.0884    1.7027 H   0  0  0  0  0  0  0  0  0  0  0  0
    1.2229    0.5350   -0.8186 H   0  0  0  0  0  0  0  0  0  0  0  0
    1.8582    0.6058    0.8307 H   0  0  0  0  0  0  0  0  0  0  0  0
   -0.5346    0.2414    1.0127 H   0  0  0  0  0  0  0  0  0  0  0  0
    0.3230   -1.1492    1.5826 H   0  0  0  0  0  0  0  0  0  0  0  0
    0.5087   -1.7297   -2.1524 H   0  0  0  0  0  0  0  0  0  0  0  0
   -0.0138   -3.2746   -1.4873 H   0  0  0  0  0  0  0  0  0  0  0  0
    2.3715   -3.0225   -1.1786 H   0  0  0  0  0  0  0  0  0  0  0  0
    1.6065   -2.9826    0.4133 H   0  0  0  0  0  0  0  0  0  0  0  0
   -2.2272   -4.6107    1.6658 H   0  0  0  0  0  0  0  0  0  0  0  0
   -3.9036   -6.1850    0.7038 H   0  0  0  0  0  0  0  0  0  0  0  0
   -4.2525   -3.7310   -2.7931 H   0  0  0  0  0  0  0  0  0  0  0  0
   -3.7872   -0.0230   -0.8128 H   0  0  0  0  0  0  0  0  0  0  0  0
   -2.8181   -0.2034    0.6738 H   0  0  0  0  0  0  0  0  0  0  0  0
   -4.3319    1.5455    1.1909 H   0  0  0  0  0  0  0  0  0  0  0  0
   -5.1179    3.5441    2.3827 H   0  0  0  0  0  0  0  0  0  0  0  0
   -4.0491    5.7452    1.9867 H   0  0  0  0  0  0  0  0  0  0  0  0
   -2.1726    5.9432    0.3751 H   0  0  0  0  0  0  0  0  0  0  0  0
   -1.3587    3.9510   -0.8342 H   0  0  0  0  0  0  0  0  0  0  0  0
  1  2  2  0
  2  3  1  0
  3  4  2  3
  4  5  1  0
  5  6  2  0
  6  7  1  0
  7  8  2  0
  8  9  1  0
  2 10  1  0
 10 11  1  0
 11 12  1  0
 12 13  1  0
 13 14  1  0
 14 15  1  0
 13 16  1  0
 16 17  1  0
 17 18  2  0
 18 19  1  0
 19 20  2  0
 20 21  1  0
 20 22  1  0
 22 23  2  0
 23 24  1  0
 24 25  2  0
 24 26  1  0
 26 27  1  0
 27 28  1  0
 28 29  1  0
 29 30  2  0
 30 31  1  0
 31 32  2  0
 32 33  1  0
 33 34  2  0
 28 35  2  0
 35 36  1  0
  9  5  1  0
 15 10  1  0
 23 17  1  0
 36 26  1  0
 26 13  1  0
 34 29  1  0
  3 37  1  0
  4 38  1  0
  6 39  1  0
  7 40  1  0
  8 41  1  0
 11 42  1  0
 11 43  1  0
 12 44  1  0
 12 45  1  0
 14 46  1  0
 14 47  1  0
 15 48  1  0
 15 49  1  0
 18 50  1  0
 19 51  1  0
 22 52  1  0
 27 53  1  0
 27 54  1  0
 30 55  1  0
 31 56  1  0
 32 57  1  0
 33 58  1  0
 34 59  1  0
M  END
$$$$
