
     RDKit          3D

 74 80  0  0  0  0  0  0  0  0999 V2000
    2.3717   -0.0185    2.8287 O   0  0  0  0  0  0  0  0  0  0  0  0
    2.5759   -0.8374    1.6651 C   0  0  0  0  0  0  0  0  0  0  0  0
    2.9504    0.0458    0.4591 C   0  0  0  0  0  0  0  0  0  0  0  0
    4.1389    0.8206    0.7965 N   0  0  0  0  0  0  0  0  0  0  0  0
    5.3035    0.7898    0.0670 C   0  0  0  0  0  0  0  0  0  0  0  0
    5.3071    0.2920   -1.1402 N   0  0  0  0  0  0  0  0  0  0  0  0
    6.4994    0.2608   -1.8923 C   0  0  0  0  0  0  0  0  0  0  0  0
    6.4557   -0.2748   -3.1810 C   0  0  0  0  0  0  0  0  0  0  0  0
    7.6082   -0.3295   -3.9701 C   0  0  0  0  0  0  0  0  0  0  0  0
    8.8211    0.1523   -3.4740 C   0  0  0  0  0  0  0  0  0  0  0  0
    8.8885    0.6934   -2.1898 C   0  0  0  0  0  0  0  0  0  0  0  0
    7.7271    0.7429   -1.4129 C   0  0  0  0  0  0  0  0  0  0  0  0
    7.7044    1.2744   -0.1135 N   0  0  0  0  0  0  0  0  0  0  0  0
    8.7244    1.8178    0.6305 C   0  0  0  0  0  0  0  0  0  0  0  0
    8.2082    2.2064    1.8480 C   0  0  0  0  0  0  0  0  0  0  0  0
    6.8295    1.8861    1.8424 C   0  0  0  0  0  0  0  0  0  0  0  0
    6.5406    1.3072    0.6202 C   0  0  0  0  0  0  0  0  0  0  0  0
    1.3616   -1.7502    1.3844 C   0  0  0  0  0  0  0  0  0  0  0  0
    0.1503   -1.0502    0.9049 N   0  0  0  0  0  0  0  0  0  0  0  0
   -0.6915   -0.5655    2.0192 C   0  0  0  0  0  0  0  0  0  0  0  0
   -1.9886    0.1099    1.5094 C   0  0  0  0  0  0  0  0  0  0  0  0
   -2.8439   -0.8285    0.7319 N   0  0  0  0  0  0  0  0  0  0  0  0
   -4.0580   -0.1267    0.1930 C   0  0  0  0  0  0  0  0  0  0  0  0
   -5.0123    0.5075    1.2144 C   0  0  0  0  0  0  0  0  0  0  0  0
   -5.0472    0.0535    2.5496 C   0  0  0  0  0  0  0  0  0  0  0  0
   -5.8886    0.6372    3.4955 C   0  0  0  0  0  0  0  0  0  0  0  0
   -6.7381    1.6691    3.1204 C   0  0  0  0  0  0  0  0  0  0  0  0
   -6.7736    2.0848    1.7911 C   0  0  0  0  0  0  0  0  0  0  0  0
   -5.9459    1.4966    0.8108 C   0  0  0  0  0  0  0  0  0  0  0  0
   -6.2084    1.9423   -0.6250 C   0  0  0  0  0  0  0  0  0  0  0  0
   -5.6063    1.2086   -1.8402 C   0  0  0  0  0  0  0  0  0  0  0  0
   -5.6808   -0.2972   -1.7439 C   0  0  0  0  0  0  0  0  0  0  0  0
   -6.5268   -1.0291   -2.5887 C   0  0  0  0  0  0  0  0  0  0  0  0
   -6.6655   -2.4070   -2.4238 C   0  0  0  0  0  0  0  0  0  0  0  0
   -5.9798   -3.0616   -1.4035 C   0  0  0  0  0  0  0  0  0  0  0  0
   -5.1285   -2.3445   -0.5609 C   0  0  0  0  0  0  0  0  0  0  0  0
   -4.9351   -0.9663   -0.7457 C   0  0  0  0  0  0  0  0  0  0  0  0
   -1.9962   -1.3283   -0.3884 C   0  0  0  0  0  0  0  0  0  0  0  0
   -0.6787   -1.9760    0.0978 C   0  0  0  0  0  0  0  0  0  0  0  0
    1.7996    0.7182    2.5448 H   0  0  0  0  0  0  0  0  0  0  0  0
    3.4297   -1.4818    1.9011 H   0  0  0  0  0  0  0  0  0  0  0  0
    3.0940   -0.5774   -0.4296 H   0  0  0  0  0  0  0  0  0  0  0  0
    2.1485    0.7610    0.2422 H   0  0  0  0  0  0  0  0  0  0  0  0
    4.2325    1.0109    1.7886 H   0  0  0  0  0  0  0  0  0  0  0  0
    5.5131   -0.6499   -3.5695 H   0  0  0  0  0  0  0  0  0  0  0  0
    7.5573   -0.7478   -4.9723 H   0  0  0  0  0  0  0  0  0  0  0  0
    9.7139    0.1085   -4.0935 H   0  0  0  0  0  0  0  0  0  0  0  0
    9.8423    1.0618   -1.8252 H   0  0  0  0  0  0  0  0  0  0  0  0
    9.7319    1.8922    0.2477 H   0  0  0  0  0  0  0  0  0  0  0  0
    8.7654    2.6745    2.6493 H   0  0  0  0  0  0  0  0  0  0  0  0
    6.1279    2.0644    2.6460 H   0  0  0  0  0  0  0  0  0  0  0  0
    1.6921   -2.4587    0.6132 H   0  0  0  0  0  0  0  0  0  0  0  0
    1.1329   -2.3462    2.2765 H   0  0  0  0  0  0  0  0  0  0  0  0
   -0.1544    0.1758    2.6158 H   0  0  0  0  0  0  0  0  0  0  0  0
   -0.9595   -1.3893    2.6955 H   0  0  0  0  0  0  0  0  0  0  0  0
   -2.5098    0.4873    2.3929 H   0  0  0  0  0  0  0  0  0  0  0  0
   -1.7197    0.9863    0.9040 H   0  0  0  0  0  0  0  0  0  0  0  0
   -3.6334    0.7068   -0.3788 H   0  0  0  0  0  0  0  0  0  0  0  0
   -4.4085   -0.7717    2.8618 H   0  0  0  0  0  0  0  0  0  0  0  0
   -5.8808    0.2796    4.5223 H   0  0  0  0  0  0  0  0  0  0  0  0
   -7.3975    2.1275    3.8518 H   0  0  0  0  0  0  0  0  0  0  0  0
   -7.4862    2.8584    1.5085 H   0  0  0  0  0  0  0  0  0  0  0  0
   -7.2990    1.8989   -0.7605 H   0  0  0  0  0  0  0  0  0  0  0  0
   -5.9282    3.0010   -0.7010 H   0  0  0  0  0  0  0  0  0  0  0  0
   -6.1340    1.5484   -2.7405 H   0  0  0  0  0  0  0  0  0  0  0  0
   -4.5675    1.5162   -2.0035 H   0  0  0  0  0  0  0  0  0  0  0  0
   -7.1007   -0.5282   -3.3646 H   0  0  0  0  0  0  0  0  0  0  0  0
   -7.3341   -2.9686   -3.0718 H   0  0  0  0  0  0  0  0  0  0  0  0
   -6.1146   -4.1289   -1.2558 H   0  0  0  0  0  0  0  0  0  0  0  0
   -4.6225   -2.8607    0.2507 H   0  0  0  0  0  0  0  0  0  0  0  0
   -2.5222   -2.0930   -0.9682 H   0  0  0  0  0  0  0  0  0  0  0  0
   -1.7535   -0.5118   -1.0835 H   0  0  0  0  0  0  0  0  0  0  0  0
   -0.1138   -2.2882   -0.7893 H   0  0  0  0  0  0  0  0  0  0  0  0
   -0.9140   -2.8832    0.6725 H   0  0  0  0  0  0  0  0  0  0  0  0
  1  2  1  0
  2  3  1  0
  3  4  1  0
  4  5  1  0
  5  6  2  0
  6  7  1  0
  7  8  2  0
  8  9  1  0
  9 10  2  0
 10 11  1  0
 11 12  2  0
 12 13  1  0
 13 14  1  0
 14 15  2  0
 15 16  1  0
 16 17  2  0
  2 18  1  0
 18 19  1  0
 19 20  1  0
 20 21  1  0
 21 22  1  0
 22 23  1  0
 23 24  1  0
 24 25  2  0
 25 26  1  0
 26 27  2  0
 27 28  1  0
 28 29  2  0
 29 30  1  0
 30 31  1  0
 31 32  1  0
 32 33  2  0
 33 34  1  0
 34 35  2  0
 35 36  1  0
 36 37  2  0
 22 38  1  0
 38 39  1  0
 17  5  1  0
 39 19  1  0
 12  7  1  0
 17 13  1  0
 37 23  1  0
 29 24  1  0
 37 32  1  0
  1 40  1  0
  2 41  1  0
  3 42  1  0
  3 43  1  0
  4 44  1  0
  8 45  1  0
  9 46  1  0
 10 47  1  0
 11 48  1  0
 14 49  1  0
 15 50  1  0
 16 51  1  0
 18 52  1  0
 18 53  1  0
 20 54  1  0
 20 55  1  0
 21 56  1  0
 21 57  1  0
 23 58  1  0
 25 59  1  0
 26 60  1  0
 27 61  1  0
 28 62  1  0
 30 63  1  0
 30 64  1  0
 31 65  1  0
 31 66  1  0
 33 67  1  0
 34 68  1  0
 35 69  1  0
 36 70  1  0
 38 71  1  0
 38 72  1  0
 39 73  1  0
 39 74  1  0
M  END
$$$$
