
     RDKit          3D

 71 72  0  0  0  0  0  0  0  0999 V2000
   -6.2803   -2.9884    1.8156 C   0  0  0  0  0  0  0  0  0  0  0  0
   -5.3110   -2.1238    1.2388 O   0  0  0  0  0  0  0  0  0  0  0  0
   -4.0041   -2.2797    1.6236 C   0  0  0  0  0  0  0  0  0  0  0  0
   -3.5709   -3.2253    2.5564 C   0  0  0  0  0  0  0  0  0  0  0  0
   -2.2293   -3.2853    2.9280 C   0  0  0  0  0  0  0  0  0  0  0  0
   -1.3121   -2.3929    2.3796 C   0  0  0  0  0  0  0  0  0  0  0  0
   -1.7097   -1.4239    1.4358 C   0  0  0  0  0  0  0  0  0  0  0  0
   -0.6189   -0.4970    0.8851 C   0  0  0  0  0  0  0  0  0  0  0  0
   -1.0720    0.8661    0.2832 C   0  0  0  0  0  0  0  0  0  0  0  0
   -0.8901    1.1788   -0.8913 O   0  0  0  0  0  0  0  0  0  0  0  0
   -1.6494    1.7224    1.2170 N   0  0  0  0  0  0  0  0  0  0  0  0
   -2.1762    3.0590    0.8957 C   0  0  0  0  0  0  0  0  0  0  0  0
   -3.3709    2.9642   -0.0650 C   0  0  0  0  0  0  0  0  0  0  0  0
   -2.6543    3.7016    2.2120 C   0  0  0  0  0  0  0  0  0  0  0  0
   -1.0849    3.9631    0.2974 C   0  0  0  0  0  0  0  0  0  0  0  0
    0.3450   -1.2264    0.0130 N   0  0  0  0  0  0  0  0  0  0  0  0
    1.7181   -1.2549    0.2446 C   0  0  0  0  0  0  0  0  0  0  0  0
    2.4850   -1.9762   -0.3966 O   0  0  0  0  0  0  0  0  0  0  0  0
    2.2709   -0.3882    1.3688 C   0  0  0  0  0  0  0  0  0  0  0  0
    3.7982   -0.3293    1.3279 C   0  0  0  0  0  0  0  0  0  0  0  0
    4.2877    0.5160    0.1638 C   0  0  0  0  0  0  0  0  0  0  0  0
    3.5910    1.3954   -0.3351 O   0  0  0  0  0  0  0  0  0  0  0  0
    5.5868    0.2270   -0.1848 N   0  0  0  0  0  0  0  0  0  0  0  0
    6.2822    0.8292   -1.2094 C   0  0  0  0  0  0  0  0  0  0  0  0
    5.8517    1.8098   -2.1306 C   0  0  0  0  0  0  0  0  0  0  0  0
    6.9482    2.0456   -2.9221 C   0  0  0  0  0  0  0  0  0  0  0  0
    7.2169    2.9327   -4.0659 C   0  0  0  0  0  0  0  0  0  0  0  0
    7.9756    1.2593   -2.5045 O   0  0  0  0  0  0  0  0  0  0  0  0
    7.5563    0.4872   -1.4362 N   0  0  0  0  0  0  0  0  0  0  0  0
   -0.1971   -1.8805   -1.2001 C   0  0  0  0  0  0  0  0  0  0  0  0
    0.4543   -1.3914   -2.4996 C   0  0  0  0  0  0  0  0  0  0  0  0
   -0.1442   -3.4078   -1.1089 C   0  0  0  0  0  0  0  0  0  0  0  0
   -3.0619   -1.4013    1.0434 C   0  0  0  0  0  0  0  0  0  0  0  0
   -3.4391   -0.4388    0.1426 O   0  0  0  0  0  0  0  0  0  0  0  0
   -4.0751   -0.9572   -1.0267 C   0  0  0  0  0  0  0  0  0  0  0  0
   -6.0827   -4.0338    1.5560 H   0  0  0  0  0  0  0  0  0  0  0  0
   -6.3359   -2.8521    2.9008 H   0  0  0  0  0  0  0  0  0  0  0  0
   -7.2557   -2.7210    1.3977 H   0  0  0  0  0  0  0  0  0  0  0  0
   -4.2537   -3.9305    3.0188 H   0  0  0  0  0  0  0  0  0  0  0  0
   -1.8979   -4.0292    3.6494 H   0  0  0  0  0  0  0  0  0  0  0  0
   -0.2687   -2.4650    2.6837 H   0  0  0  0  0  0  0  0  0  0  0  0
   -0.0800   -0.1838    1.7866 H   0  0  0  0  0  0  0  0  0  0  0  0
   -2.0995    1.2508    1.9933 H   0  0  0  0  0  0  0  0  0  0  0  0
   -4.1641    2.3358    0.3549 H   0  0  0  0  0  0  0  0  0  0  0  0
   -3.7973    3.9539   -0.2638 H   0  0  0  0  0  0  0  0  0  0  0  0
   -3.0876    2.5297   -1.0288 H   0  0  0  0  0  0  0  0  0  0  0  0
   -3.0550    4.7078    2.0458 H   0  0  0  0  0  0  0  0  0  0  0  0
   -3.4421    3.1011    2.6823 H   0  0  0  0  0  0  0  0  0  0  0  0
   -1.8318    3.7814    2.9328 H   0  0  0  0  0  0  0  0  0  0  0  0
   -0.7592    3.6226   -0.6900 H   0  0  0  0  0  0  0  0  0  0  0  0
   -0.1987    3.9905    0.9425 H   0  0  0  0  0  0  0  0  0  0  0  0
   -1.4460    4.9910    0.1777 H   0  0  0  0  0  0  0  0  0  0  0  0
    1.8550    0.6221    1.3006 H   0  0  0  0  0  0  0  0  0  0  0  0
    1.9664   -0.8388    2.3200 H   0  0  0  0  0  0  0  0  0  0  0  0
    4.2310   -1.3348    1.2736 H   0  0  0  0  0  0  0  0  0  0  0  0
    4.1670    0.1428    2.2464 H   0  0  0  0  0  0  0  0  0  0  0  0
    6.1068   -0.4923    0.2984 H   0  0  0  0  0  0  0  0  0  0  0  0
    4.8829    2.2810   -2.2115 H   0  0  0  0  0  0  0  0  0  0  0  0
    7.8105    3.7944   -3.7473 H   0  0  0  0  0  0  0  0  0  0  0  0
    6.2841    3.3018   -4.5019 H   0  0  0  0  0  0  0  0  0  0  0  0
    7.7686    2.4028   -4.8487 H   0  0  0  0  0  0  0  0  0  0  0  0
   -1.2523   -1.6002   -1.2770 H   0  0  0  0  0  0  0  0  0  0  0  0
    0.4562   -0.2992   -2.5573 H   0  0  0  0  0  0  0  0  0  0  0  0
   -0.0976   -1.7724   -3.3653 H   0  0  0  0  0  0  0  0  0  0  0  0
    1.4880   -1.7321   -2.6027 H   0  0  0  0  0  0  0  0  0  0  0  0
   -0.6423   -3.8613   -1.9722 H   0  0  0  0  0  0  0  0  0  0  0  0
   -0.6509   -3.7669   -0.2086 H   0  0  0  0  0  0  0  0  0  0  0  0
    0.8820   -3.7853   -1.0820 H   0  0  0  0  0  0  0  0  0  0  0  0
   -3.8041   -1.9985   -1.2381 H   0  0  0  0  0  0  0  0  0  0  0  0
   -3.7513   -0.3483   -1.8765 H   0  0  0  0  0  0  0  0  0  0  0  0
   -5.1609   -0.8529   -0.9374 H   0  0  0  0  0  0  0  0  0  0  0  0
  1  2  1  0
  2  3  1  0
  3  4  2  0
  4  5  1  0
  5  6  2  0
  6  7  1  0
  7  8  1  0
  8  9  1  0
  9 10  2  0
  9 11  1  0
 11 12  1  0
 12 13  1  0
 12 14  1  0
 12 15  1  0
  8 16  1  0
 16 17  1  0
 17 18  2  0
 17 19  1  0
 19 20  1  0
 20 21  1  0
 21 22  2  0
 21 23  1  0
 23 24  1  0
 24 25  1  0
 25 26  2  0
 26 27  1  0
 26 28  1  0
 28 29  1  0
 16 30  1  0
 30 31  1  0
 30 32  1  0
  7 33  2  0
 33 34  1  0
 34 35  1  0
 33  3  1  0
 29 24  2  0
  1 36  1  0
  1 37  1  0
  1 38  1  0
  4 39  1  0
  5 40  1  0
  6 41  1  0
  8 42  1  0
 11 43  1  0
 13 44  1  0
 13 45  1  0
 13 46  1  0
 14 47  1  0
 14 48  1  0
 14 49  1  0
 15 50  1  0
 15 51  1  0
 15 52  1  0
 19 53  1  0
 19 54  1  0
 20 55  1  0
 20 56  1  0
 23 57  1  0
 25 58  1  0
 27 59  1  0
 27 60  1  0
 27 61  1  0
 30 62  1  0
 31 63  1  0
 31 64  1  0
 31 65  1  0
 32 66  1  0
 32 67  1  0
 32 68  1  0
 35 69  1  0
 35 70  1  0
 35 71  1  0
M  END
$$$$
