
     RDKit          3D

 47 50  0  0  0  0  0  0  0  0999 V2000
    0.9985    0.1287    2.9693 C   0  0  0  0  0  0  0  0  0  0  0  0
    0.5182   -0.7667    1.8622 C   0  0  0  0  0  0  0  0  0  0  0  0
    1.2294   -1.8200    1.5565 N   0  0  0  0  0  0  0  0  0  0  0  0
    0.8298   -2.6895    0.5264 N   0  0  0  0  0  0  0  0  0  0  0  0
    1.7293   -3.8080    0.2354 C   0  0  0  0  0  0  0  0  0  0  0  0
    2.8771   -3.3964   -0.6889 C   0  0  0  0  0  0  0  0  0  0  0  0
    3.5714   -4.2164   -1.2865 O   0  0  0  0  0  0  0  0  0  0  0  0
    3.1453   -2.0473   -0.6995 N   0  0  0  0  0  0  0  0  0  0  0  0
    4.2905   -1.5050   -1.3841 C   0  0  0  0  0  0  0  0  0  0  0  0
    4.2148   -0.0137   -1.2887 C   0  0  0  0  0  0  0  0  0  0  0  0
    3.4356    0.8507   -2.0327 C   0  0  0  0  0  0  0  0  0  0  0  0
    3.6127    2.2101   -1.6489 C   0  0  0  0  0  0  0  0  0  0  0  0
    4.5262    2.3378   -0.6263 C   0  0  0  0  0  0  0  0  0  0  0  0
    5.1514    0.8273   -0.1257 S   0  0  0  0  0  0  0  0  0  0  0  0
   -0.2926   -2.4977   -0.3057 C   0  0  0  0  0  0  0  0  0  0  0  0
   -0.5754   -3.2327   -1.2484 O   0  0  0  0  0  0  0  0  0  0  0  0
   -1.0775   -1.3280    0.0729 C   0  0  0  0  0  0  0  0  0  0  0  0
   -2.2253   -0.9310   -0.4827 N   0  0  0  0  0  0  0  0  0  0  0  0
   -2.5301    0.2431    0.1336 N   0  0  0  0  0  0  0  0  0  0  0  0
   -3.5860    1.0423   -0.4020 C   0  0  0  0  0  0  0  0  0  0  0  0
   -4.5180    0.4417   -1.2676 C   0  0  0  0  0  0  0  0  0  0  0  0
   -5.5589    1.1900   -1.8204 C   0  0  0  0  0  0  0  0  0  0  0  0
   -5.6704    2.5473   -1.5313 C   0  0  0  0  0  0  0  0  0  0  0  0
   -4.7368    3.1589   -0.6966 C   0  0  0  0  0  0  0  0  0  0  0  0
   -3.6945    2.4132   -0.1356 C   0  0  0  0  0  0  0  0  0  0  0  0
   -1.6905    0.4609    1.2334 C   0  0  0  0  0  0  0  0  0  0  0  0
   -1.9312    1.4755    2.2894 C   0  0  0  0  0  0  0  0  0  0  0  0
   -0.6911   -0.4930    1.1267 C   0  0  0  0  0  0  0  0  0  0  0  0
    0.9217    1.1782    2.6715 H   0  0  0  0  0  0  0  0  0  0  0  0
    0.3960   -0.0455    3.8641 H   0  0  0  0  0  0  0  0  0  0  0  0
    2.0460   -0.0871    3.2068 H   0  0  0  0  0  0  0  0  0  0  0  0
    1.1753   -4.6186   -0.2415 H   0  0  0  0  0  0  0  0  0  0  0  0
    2.1521   -4.1689    1.1758 H   0  0  0  0  0  0  0  0  0  0  0  0
    2.7235   -1.5094    0.0547 H   0  0  0  0  0  0  0  0  0  0  0  0
    5.1997   -1.9132   -0.9319 H   0  0  0  0  0  0  0  0  0  0  0  0
    4.2592   -1.8333   -2.4280 H   0  0  0  0  0  0  0  0  0  0  0  0
    2.7657    0.5162   -2.8179 H   0  0  0  0  0  0  0  0  0  0  0  0
    3.1034    3.0522   -2.1040 H   0  0  0  0  0  0  0  0  0  0  0  0
    4.8595    3.2492   -0.1449 H   0  0  0  0  0  0  0  0  0  0  0  0
   -4.4523   -0.6203   -1.5147 H   0  0  0  0  0  0  0  0  0  0  0  0
   -6.2764    0.7114   -2.4820 H   0  0  0  0  0  0  0  0  0  0  0  0
   -6.4753    3.1310   -1.9679 H   0  0  0  0  0  0  0  0  0  0  0  0
   -4.8121    4.2262   -0.4956 H   0  0  0  0  0  0  0  0  0  0  0  0
   -2.9627    2.9498    0.4560 H   0  0  0  0  0  0  0  0  0  0  0  0
   -2.9944    1.7049    2.4089 H   0  0  0  0  0  0  0  0  0  0  0  0
   -1.6009    1.1001    3.2599 H   0  0  0  0  0  0  0  0  0  0  0  0
   -1.3795    2.3952    2.0808 H   0  0  0  0  0  0  0  0  0  0  0  0
  1  2  1  0
  2  3  2  0
  3  4  1  0
  4  5  1  0
  5  6  1  0
  6  7  2  0
  6  8  1  0
  8  9  1  0
  9 10  1  0
 10 11  2  0
 11 12  1  0
 12 13  2  0
 13 14  1  0
  4 15  1  0
 15 16  2  0
 15 17  1  0
 17 18  2  0
 18 19  1  0
 19 20  1  0
 20 21  2  0
 21 22  1  0
 22 23  2  0
 23 24  1  0
 24 25  2  0
 19 26  1  0
 26 27  1  0
 26 28  2  0
 28  2  1  0
 14 10  1  0
 28 17  1  0
 25 20  1  0
  1 29  1  0
  1 30  1  0
  1 31  1  0
  5 32  1  0
  5 33  1  0
  8 34  1  0
  9 35  1  0
  9 36  1  0
 11 37  1  0
 12 38  1  0
 13 39  1  0
 21 40  1  0
 22 41  1  0
 23 42  1  0
 24 43  1  0
 25 44  1  0
 27 45  1  0
 27 46  1  0
 27 47  1  0
M  END
$$$$
