
     RDKit          3D

 42 44  0  0  0  0  0  0  0  0999 V2000
   -0.1151   -2.3720    1.3739 C   0  0  0  0  0  0  0  0  0  0  0  0
   -0.7652   -1.2063    0.7009 C   0  0  0  0  0  0  0  0  0  0  0  0
   -0.2605   -0.3952   -0.2432 C   0  0  0  0  0  0  0  0  0  0  0  0
    0.9525   -0.2517   -0.8655 N   0  0  0  0  0  0  0  0  0  0  0  0
    2.1861   -0.7248   -0.4635 C   0  0  0  0  0  0  0  0  0  0  0  0
    2.3982   -1.3284    0.5836 O   0  0  0  0  0  0  0  0  0  0  0  0
    3.2991   -0.4071   -1.4399 C   0  0  0  0  0  0  0  0  0  0  0  0
    4.4590    0.2174   -0.8199 N   0  0  0  0  0  0  0  0  0  0  0  0
    4.4972    1.0476    0.2682 C   0  0  0  0  0  0  0  0  0  0  0  0
    5.8095    1.4353    0.4167 C   0  0  0  0  0  0  0  0  0  0  0  0
    6.4869    0.8179   -0.6563 C   0  0  0  0  0  0  0  0  0  0  0  0
    7.8979    0.8952   -0.9932 N   0  0  0  0  0  4  0  0  0  0  0  0
    8.6042    1.5700   -0.2271 O   0  0  0  0  0  0  0  0  0  0  0  0
    8.3025    0.3042   -2.0048 O   0  0  0  0  0  1  0  0  0  0  0  0
    5.6578    0.0992   -1.4341 N   0  0  0  0  0  0  0  0  0  0  0  0
   -1.3904    0.4988   -0.6549 C   0  0  0  0  0  0  0  0  0  0  0  0
   -1.2603    1.3169   -1.5554 O   0  0  0  0  0  0  0  0  0  0  0  0
   -2.4921    0.1389    0.1208 N   0  0  0  0  0  0  0  0  0  0  0  0
   -3.8508    0.3600   -0.2239 C   0  0  0  0  0  0  0  0  0  0  0  0
   -4.8633   -0.5108    0.2080 C   0  0  0  0  0  0  0  0  0  0  0  0
   -6.2017   -0.2885   -0.1320 C   0  0  0  0  0  0  0  0  0  0  0  0
   -6.5492    0.8095   -0.9127 C   0  0  0  0  0  0  0  0  0  0  0  0
   -5.5589    1.6807   -1.3565 C   0  0  0  0  0  0  0  0  0  0  0  0
   -4.2206    1.4555   -1.0165 C   0  0  0  0  0  0  0  0  0  0  0  0
   -2.1066   -0.9033    1.0140 N   0  0  0  0  0  0  0  0  0  0  0  0
   -2.4163   -0.6075    2.4268 C   0  0  0  0  0  0  0  0  0  0  0  0
   -0.8678   -3.1030    1.6899 H   0  0  0  0  0  0  0  0  0  0  0  0
    0.5555   -2.9081    0.6967 H   0  0  0  0  0  0  0  0  0  0  0  0
    0.4348   -2.0504    2.2631 H   0  0  0  0  0  0  0  0  0  0  0  0
    0.9191    0.4241   -1.6283 H   0  0  0  0  0  0  0  0  0  0  0  0
    3.6266   -1.3472   -1.8972 H   0  0  0  0  0  0  0  0  0  0  0  0
    2.9681    0.2737   -2.2306 H   0  0  0  0  0  0  0  0  0  0  0  0
    3.6155    1.2743    0.8533 H   0  0  0  0  0  0  0  0  0  0  0  0
    6.2231    2.0748    1.1844 H   0  0  0  0  0  0  0  0  0  0  0  0
   -4.6234   -1.3968    0.7892 H   0  0  0  0  0  0  0  0  0  0  0  0
   -6.9691   -0.9798    0.2065 H   0  0  0  0  0  0  0  0  0  0  0  0
   -7.5884    0.9830   -1.1801 H   0  0  0  0  0  0  0  0  0  0  0  0
   -5.8234    2.5393   -1.9688 H   0  0  0  0  0  0  0  0  0  0  0  0
   -3.4799    2.1676   -1.3713 H   0  0  0  0  0  0  0  0  0  0  0  0
   -1.8074    0.2282    2.7912 H   0  0  0  0  0  0  0  0  0  0  0  0
   -2.2139   -1.4839    3.0515 H   0  0  0  0  0  0  0  0  0  0  0  0
   -3.4688   -0.3472    2.5694 H   0  0  0  0  0  0  0  0  0  0  0  0
  1  2  1  0
  2  3  2  0
  3  4  1  0
  4  5  1  0
  5  6  2  0
  5  7  1  0
  7  8  1  0
  8  9  1  0
  9 10  2  0
 10 11  1  0
 11 12  1  0
 12 13  2  0
 12 14  1  0
 11 15  2  0
  3 16  1  0
 16 17  2  0
 16 18  1  0
 18 19  1  0
 19 20  2  0
 20 21  1  0
 21 22  2  0
 22 23  1  0
 23 24  2  0
 18 25  1  0
 25 26  1  0
 25  2  1  0
 15  8  1  0
 24 19  1  0
  1 27  1  0
  1 28  1  0
  1 29  1  0
  4 30  1  0
  7 31  1  0
  7 32  1  0
  9 33  1  0
 10 34  1  0
 20 35  1  0
 21 36  1  0
 22 37  1  0
 23 38  1  0
 24 39  1  0
 26 40  1  0
 26 41  1  0
 26 42  1  0
M  CHG  2  12   1  14  -1
M  END
$$$$
