
     RDKit          3D

 48 49  0  0  0  0  0  0  0  0999 V2000
   -7.3761   -0.5417    0.3827 C   0  0  0  0  0  0  0  0  0  0  0  0
   -6.4628   -1.1926   -0.6444 C   0  0  0  0  0  0  0  0  0  0  0  0
   -5.0710   -0.7489   -0.5550 N   0  0  0  0  0  0  0  0  0  0  0  0
   -4.6733    0.4280   -1.3364 C   0  0  0  0  0  0  0  0  0  0  0  0
   -4.8334    1.7381   -0.5814 C   0  0  0  0  0  0  0  0  0  0  0  0
   -4.2735   -1.3488    0.4246 C   0  0  0  0  0  0  0  0  0  0  0  0
   -4.6803   -2.2001    1.2115 O   0  0  0  0  0  0  0  0  0  0  0  0
   -2.8549   -0.9572    0.5329 C   0  0  0  0  0  0  0  0  0  0  0  0
   -1.9420   -1.3449   -0.4489 C   0  0  0  0  0  0  0  0  0  0  0  0
   -0.5966   -0.9921   -0.3151 C   0  0  0  0  0  0  0  0  0  0  0  0
   -0.1548   -0.2653    0.8006 C   0  0  0  0  0  0  0  0  0  0  0  0
    1.2144    0.0496    0.8547 N   0  0  0  0  0  0  0  0  0  0  0  0
    1.8919    0.7689    1.8225 C   0  0  0  0  0  0  0  0  0  0  0  0
    1.4091    1.2857    2.8260 O   0  0  0  0  0  0  0  0  0  0  0  0
    3.3936    0.8849    1.5382 C   0  0  0  0  0  0  0  0  0  0  0  0
    3.7235    0.2673    0.2968 O   0  0  0  0  0  0  0  0  0  0  0  0
    5.0327    0.2713   -0.1020 C   0  0  0  0  0  0  0  0  0  0  0  0
    6.0810    0.8571    0.6151 C   0  0  0  0  0  0  0  0  0  0  0  0
    7.3899    0.8082    0.1207 C   0  0  0  0  0  0  0  0  0  0  0  0
    7.6520    0.1697   -1.0983 C   0  0  0  0  0  0  0  0  0  0  0  0
    9.0256    0.1206   -1.6145 N   0  0  0  0  0  4  0  0  0  0  0  0
    9.2091   -0.4315   -2.7076 O   0  0  0  0  0  0  0  0  0  0  0  0
    9.9170    0.6343   -0.9246 O   0  0  0  0  0  1  0  0  0  0  0  0
    6.6163   -0.4205   -1.8281 C   0  0  0  0  0  0  0  0  0  0  0  0
    5.3145   -0.3653   -1.3256 C   0  0  0  0  0  0  0  0  0  0  0  0
    4.0540   -1.1060   -2.2522 Cl  0  0  0  0  0  0  0  0  0  0  0  0
   -1.0764    0.0933    1.7885 C   0  0  0  0  0  0  0  0  0  0  0  0
   -2.4240   -0.2604    1.6620 C   0  0  0  0  0  0  0  0  0  0  0  0
   -8.3772   -0.9808    0.3261 H   0  0  0  0  0  0  0  0  0  0  0  0
   -7.0001   -0.6810    1.4010 H   0  0  0  0  0  0  0  0  0  0  0  0
   -7.4761    0.5318    0.2051 H   0  0  0  0  0  0  0  0  0  0  0  0
   -6.4871   -2.2788   -0.4940 H   0  0  0  0  0  0  0  0  0  0  0  0
   -6.8332   -1.0082   -1.6587 H   0  0  0  0  0  0  0  0  0  0  0  0
   -5.2609    0.4515   -2.2609 H   0  0  0  0  0  0  0  0  0  0  0  0
   -3.6291    0.3253   -1.6417 H   0  0  0  0  0  0  0  0  0  0  0  0
   -4.2965    1.7257    0.3710 H   0  0  0  0  0  0  0  0  0  0  0  0
   -5.8838    1.9516   -0.3696 H   0  0  0  0  0  0  0  0  0  0  0  0
   -4.4430    2.5665   -1.1811 H   0  0  0  0  0  0  0  0  0  0  0  0
   -2.2729   -1.9231   -1.3076 H   0  0  0  0  0  0  0  0  0  0  0  0
    0.1014   -1.2990   -1.0906 H   0  0  0  0  0  0  0  0  0  0  0  0
    1.7937   -0.2804    0.0865 H   0  0  0  0  0  0  0  0  0  0  0  0
    3.6341    1.9534    1.5027 H   0  0  0  0  0  0  0  0  0  0  0  0
    3.9174    0.3858    2.3614 H   0  0  0  0  0  0  0  0  0  0  0  0
    5.9187    1.3618    1.5636 H   0  0  0  0  0  0  0  0  0  0  0  0
    8.1896    1.2715    0.6976 H   0  0  0  0  0  0  0  0  0  0  0  0
    6.8080   -0.9191   -2.7759 H   0  0  0  0  0  0  0  0  0  0  0  0
   -0.7773    0.6382    2.6784 H   0  0  0  0  0  0  0  0  0  0  0  0
   -3.1312    0.0054    2.4441 H   0  0  0  0  0  0  0  0  0  0  0  0
  1  2  1  0
  2  3  1  0
  3  4  1  0
  4  5  1  0
  3  6  1  0
  6  7  2  0
  6  8  1  0
  8  9  2  0
  9 10  1  0
 10 11  2  0
 11 12  1  0
 12 13  1  0
 13 14  2  0
 13 15  1  0
 15 16  1  0
 16 17  1  0
 17 18  2  0
 18 19  1  0
 19 20  2  0
 20 21  1  0
 21 22  2  0
 21 23  1  0
 20 24  1  0
 24 25  2  0
 25 26  1  0
 11 27  1  0
 27 28  2  0
 28  8  1  0
 25 17  1  0
  1 29  1  0
  1 30  1  0
  1 31  1  0
  2 32  1  0
  2 33  1  0
  4 34  1  0
  4 35  1  0
  5 36  1  0
  5 37  1  0
  5 38  1  0
  9 39  1  0
 10 40  1  0
 12 41  1  0
 15 42  1  0
 15 43  1  0
 18 44  1  0
 19 45  1  0
 24 46  1  0
 27 47  1  0
 28 48  1  0
M  CHG  2  21   1  23  -1
M  END
$$$$
