
     RDKit          3D

 44 46  0  0  0  0  0  0  0  0999 V2000
   -4.6161   -1.8393    2.5563 C   0  0  0  0  0  0  0  0  0  0  0  0
   -3.3733   -0.9978    2.4447 C   0  0  0  0  0  0  0  0  0  0  0  0
   -2.3308   -1.1882    3.3678 C   0  0  0  0  0  0  0  0  0  0  0  0
   -1.1487   -0.4291    3.3206 C   0  0  0  0  0  0  0  0  0  0  0  0
   -0.0905   -0.6901    4.3556 C   0  0  0  0  0  0  0  0  0  0  0  0
   -1.0134    0.5238    2.2980 C   0  0  0  0  0  0  0  0  0  0  0  0
    0.4839    1.4802    2.1058 S   0  0  0  0  0  6  0  0  0  0  0  0
    0.2406    2.7521    2.7533 O   0  0  0  0  0  0  0  0  0  0  0  0
    1.6262    0.6636    2.4552 O   0  0  0  0  0  0  0  0  0  0  0  0
    0.5715    1.8142    0.4654 N   0  0  0  0  0  0  0  0  0  0  0  0
    0.9475    0.8811   -0.5434 C   0  0  0  0  0  0  0  0  0  0  0  0
    0.9916   -0.5001   -0.3530 C   0  0  0  0  0  0  0  0  0  0  0  0
    1.3068   -1.3487   -1.4169 C   0  0  0  0  0  0  0  0  0  0  0  0
    1.5712   -0.8217   -2.6772 C   0  0  0  0  0  0  0  0  0  0  0  0
    1.8809   -1.7263   -3.6551 O   0  0  0  0  0  0  0  0  0  0  0  0
    1.5086    0.5581   -2.9010 C   0  0  0  0  0  0  0  0  0  0  0  0
    1.7319    1.3091   -4.5070 S   0  0  0  0  0  0  0  0  0  0  0  0
    3.4073    0.9690   -4.8302 C   0  0  0  0  0  0  0  0  0  0  0  0
    4.3797    1.9268   -4.8679 N   0  0  0  0  0  0  0  0  0  0  0  0
    5.4619    1.2377   -5.1431 C   0  0  0  0  0  0  0  0  0  0  0  0
    5.1433   -0.0772   -5.2718 N   0  0  0  0  0  0  0  0  0  0  0  0
    3.8262   -0.2780   -5.0834 N   0  0  0  0  0  0  0  0  0  0  0  0
    1.1840    1.3981   -1.8242 C   0  0  0  0  0  0  0  0  0  0  0  0
   -2.0592    0.7380    1.3853 C   0  0  0  0  0  0  0  0  0  0  0  0
   -3.2423   -0.0127    1.4505 C   0  0  0  0  0  0  0  0  0  0  0  0
   -4.3312    0.2384    0.4433 C   0  0  0  0  0  0  0  0  0  0  0  0
   -5.4735   -1.2138    2.8237 H   0  0  0  0  0  0  0  0  0  0  0  0
   -4.5123   -2.6103    3.3272 H   0  0  0  0  0  0  0  0  0  0  0  0
   -4.8177   -2.3515    1.6101 H   0  0  0  0  0  0  0  0  0  0  0  0
   -2.4450   -1.9436    4.1452 H   0  0  0  0  0  0  0  0  0  0  0  0
   -0.5001   -1.2412    5.2095 H   0  0  0  0  0  0  0  0  0  0  0  0
    0.7184   -1.2909    3.9299 H   0  0  0  0  0  0  0  0  0  0  0  0
    0.3068    0.2473    4.7567 H   0  0  0  0  0  0  0  0  0  0  0  0
    0.6087    2.8121    0.2664 H   0  0  0  0  0  0  0  0  0  0  0  0
    0.7944   -0.9568    0.6115 H   0  0  0  0  0  0  0  0  0  0  0  0
    1.3490   -2.4236   -1.2601 H   0  0  0  0  0  0  0  0  0  0  0  0
    2.3753   -1.2521   -4.3584 H   0  0  0  0  0  0  0  0  0  0  0  0
    6.4654    1.6225   -5.2575 H   0  0  0  0  0  0  0  0  0  0  0  0
    5.7467   -0.8656   -5.4807 H   0  0  0  0  0  0  0  0  0  0  0  0
    1.1155    2.4708   -1.9913 H   0  0  0  0  0  0  0  0  0  0  0  0
   -1.9585    1.4970    0.6125 H   0  0  0  0  0  0  0  0  0  0  0  0
   -4.4545   -0.6346   -0.2051 H   0  0  0  0  0  0  0  0  0  0  0  0
   -5.2777    0.4557    0.9481 H   0  0  0  0  0  0  0  0  0  0  0  0
   -4.0987    1.0977   -0.1946 H   0  0  0  0  0  0  0  0  0  0  0  0
  1  2  1  0
  2  3  2  0
  3  4  1  0
  4  5  1  0
  4  6  2  0
  6  7  1  0
  7  8  2  0
  7  9  2  0
  7 10  1  0
 10 11  1  0
 11 12  2  0
 12 13  1  0
 13 14  2  0
 14 15  1  0
 14 16  1  0
 16 17  1  0
 17 18  1  0
 18 19  1  0
 19 20  2  0
 20 21  1  0
 21 22  1  0
 16 23  2  0
  6 24  1  0
 24 25  2  0
 25 26  1  0
 25  2  1  0
 23 11  1  0
 22 18  2  0
  1 27  1  0
  1 28  1  0
  1 29  1  0
  3 30  1  0
  5 31  1  0
  5 32  1  0
  5 33  1  0
 10 34  1  0
 12 35  1  0
 13 36  1  0
 15 37  1  0
 20 38  1  0
 21 39  1  0
 23 40  1  0
 24 41  1  0
 26 42  1  0
 26 43  1  0
 26 44  1  0
M  END
$$$$
