
     RDKit          3D

 71 72  0  0  0  0  0  0  0  0999 V2000
   -6.9615    1.0197   -0.1732 C   0  0  0  0  0  0  0  0  0  0  0  0
   -5.7742    0.4801    0.3925 O   0  0  0  0  0  0  0  0  0  0  0  0
   -4.5681    0.9398   -0.0713 C   0  0  0  0  0  0  0  0  0  0  0  0
   -4.4527    1.8765   -1.1045 C   0  0  0  0  0  0  0  0  0  0  0  0
   -3.2049    2.3596   -1.4851 C   0  0  0  0  0  0  0  0  0  0  0  0
   -2.0622    1.9181   -0.8278 C   0  0  0  0  0  0  0  0  0  0  0  0
   -2.1316    0.9651    0.2125 C   0  0  0  0  0  0  0  0  0  0  0  0
   -0.7963    0.5751    0.8602 C   0  0  0  0  0  0  0  0  0  0  0  0
   -0.7654    0.0662    2.3342 C   0  0  0  0  0  0  0  0  0  0  0  0
   -0.0627   -0.8764    2.6984 O   0  0  0  0  0  0  0  0  0  0  0  0
   -1.4938    0.8369    3.2323 N   0  0  0  0  0  0  0  0  0  0  0  0
   -1.6212    0.5496    4.6688 C   0  0  0  0  0  0  0  0  0  0  0  0
   -2.4811    1.6635    5.2953 C   0  0  0  0  0  0  0  0  0  0  0  0
   -2.3220   -0.7975    4.9026 C   0  0  0  0  0  0  0  0  0  0  0  0
   -0.2503    0.5609    5.3656 C   0  0  0  0  0  0  0  0  0  0  0  0
    0.1270   -0.1586   -0.0677 N   0  0  0  0  0  0  0  0  0  0  0  0
    1.3327    0.4855   -0.3716 C   0  0  0  0  0  0  0  0  0  0  0  0
    1.6111    1.6071    0.0599 O   0  0  0  0  0  0  0  0  0  0  0  0
    2.3141   -0.2316   -1.2834 C   0  0  0  0  0  0  0  0  0  0  0  0
    3.5545    0.6169   -1.5513 C   0  0  0  0  0  0  0  0  0  0  0  0
    4.5141   -0.0722   -2.4999 C   0  0  0  0  0  0  0  0  0  0  0  0
    4.2649   -1.1571   -3.0153 O   0  0  0  0  0  0  0  0  0  0  0  0
    5.6547    0.6718   -2.7000 N   0  0  0  0  0  0  0  0  0  0  0  0
    6.7081    0.3122   -3.5103 C   0  0  0  0  0  0  0  0  0  0  0  0
    6.8823   -0.8468   -4.2974 C   0  0  0  0  0  0  0  0  0  0  0  0
    8.1081   -0.6801   -4.8918 C   0  0  0  0  0  0  0  0  0  0  0  0
    8.9183   -1.4813   -5.8243 C   0  0  0  0  0  0  0  0  0  0  0  0
    8.6392    0.5040   -4.4900 O   0  0  0  0  0  0  0  0  0  0  0  0
    7.7621    1.1286   -3.6226 N   0  0  0  0  0  0  0  0  0  0  0  0
   -0.2501   -1.4709   -0.6600 C   0  0  0  0  0  0  0  0  0  0  0  0
   -0.8065   -2.5047    0.3130 C   0  0  0  0  0  0  0  0  0  0  0  0
   -1.1549   -1.3178   -1.8855 C   0  0  0  0  0  0  0  0  0  0  0  0
   -3.3991    0.4546    0.5639 C   0  0  0  0  0  0  0  0  0  0  0  0
   -3.4198   -0.4511    1.5929 O   0  0  0  0  0  0  0  0  0  0  0  0
   -4.3196   -1.5485    1.4544 C   0  0  0  0  0  0  0  0  0  0  0  0
   -7.0208    2.1013   -0.0134 H   0  0  0  0  0  0  0  0  0  0  0  0
   -7.8128    0.5618    0.3399 H   0  0  0  0  0  0  0  0  0  0  0  0
   -7.0409    0.7684   -1.2358 H   0  0  0  0  0  0  0  0  0  0  0  0
   -5.3196    2.2631   -1.6299 H   0  0  0  0  0  0  0  0  0  0  0  0
   -3.1228    3.0916   -2.2849 H   0  0  0  0  0  0  0  0  0  0  0  0
   -1.0956    2.3226   -1.1302 H   0  0  0  0  0  0  0  0  0  0  0  0
   -0.3435    1.5645    1.0279 H   0  0  0  0  0  0  0  0  0  0  0  0
   -2.2537    1.3637    2.8176 H   0  0  0  0  0  0  0  0  0  0  0  0
   -2.6129    1.5112    6.3724 H   0  0  0  0  0  0  0  0  0  0  0  0
   -3.4769    1.6989    4.8378 H   0  0  0  0  0  0  0  0  0  0  0  0
   -2.0208    2.6474    5.1471 H   0  0  0  0  0  0  0  0  0  0  0  0
   -1.7470   -1.6344    4.4936 H   0  0  0  0  0  0  0  0  0  0  0  0
   -2.4641   -0.9885    5.9723 H   0  0  0  0  0  0  0  0  0  0  0  0
   -3.3087   -0.8159    4.4266 H   0  0  0  0  0  0  0  0  0  0  0  0
   -0.3594    0.4689    6.4524 H   0  0  0  0  0  0  0  0  0  0  0  0
    0.2875    1.4934    5.1594 H   0  0  0  0  0  0  0  0  0  0  0  0
    0.3882   -0.2648    5.0373 H   0  0  0  0  0  0  0  0  0  0  0  0
    1.8168   -0.4552   -2.2337 H   0  0  0  0  0  0  0  0  0  0  0  0
    2.6226   -1.1678   -0.8048 H   0  0  0  0  0  0  0  0  0  0  0  0
    4.0800    0.8215   -0.6106 H   0  0  0  0  0  0  0  0  0  0  0  0
    3.2668    1.5776   -1.9955 H   0  0  0  0  0  0  0  0  0  0  0  0
    5.7784    1.5610   -2.2345 H   0  0  0  0  0  0  0  0  0  0  0  0
    6.2149   -1.6868   -4.4172 H   0  0  0  0  0  0  0  0  0  0  0  0
    8.4055   -2.4101   -6.0924 H   0  0  0  0  0  0  0  0  0  0  0  0
    9.1107   -0.9212   -6.7446 H   0  0  0  0  0  0  0  0  0  0  0  0
    9.8796   -1.7421   -5.3711 H   0  0  0  0  0  0  0  0  0  0  0  0
    0.6616   -1.9357   -1.0423 H   0  0  0  0  0  0  0  0  0  0  0  0
   -1.7162   -2.1660    0.8034 H   0  0  0  0  0  0  0  0  0  0  0  0
   -1.0441   -3.4376   -0.2104 H   0  0  0  0  0  0  0  0  0  0  0  0
   -0.0685   -2.7495    1.0826 H   0  0  0  0  0  0  0  0  0  0  0  0
   -2.1830   -1.0705   -1.6117 H   0  0  0  0  0  0  0  0  0  0  0  0
   -0.7814   -0.5403   -2.5599 H   0  0  0  0  0  0  0  0  0  0  0  0
   -1.1941   -2.2572   -2.4485 H   0  0  0  0  0  0  0  0  0  0  0  0
   -4.4573   -1.8516    0.4106 H   0  0  0  0  0  0  0  0  0  0  0  0
   -5.2751   -1.3201    1.9346 H   0  0  0  0  0  0  0  0  0  0  0  0
   -3.8865   -2.3991    1.9903 H   0  0  0  0  0  0  0  0  0  0  0  0
  1  2  1  0
  2  3  1  0
  3  4  2  0
  4  5  1  0
  5  6  2  0
  6  7  1  0
  7  8  1  0
  8  9  1  0
  9 10  2  0
  9 11  1  0
 11 12  1  0
 12 13  1  0
 12 14  1  0
 12 15  1  0
  8 16  1  0
 16 17  1  0
 17 18  2  0
 17 19  1  0
 19 20  1  0
 20 21  1  0
 21 22  2  0
 21 23  1  0
 23 24  1  0
 24 25  1  0
 25 26  2  0
 26 27  1  0
 26 28  1  0
 28 29  1  0
 16 30  1  0
 30 31  1  0
 30 32  1  0
  7 33  2  0
 33 34  1  0
 34 35  1  0
 33  3  1  0
 29 24  2  0
  1 36  1  0
  1 37  1  0
  1 38  1  0
  4 39  1  0
  5 40  1  0
  6 41  1  0
  8 42  1  0
 11 43  1  0
 13 44  1  0
 13 45  1  0
 13 46  1  0
 14 47  1  0
 14 48  1  0
 14 49  1  0
 15 50  1  0
 15 51  1  0
 15 52  1  0
 19 53  1  0
 19 54  1  0
 20 55  1  0
 20 56  1  0
 23 57  1  0
 25 58  1  0
 27 59  1  0
 27 60  1  0
 27 61  1  0
 30 62  1  0
 31 63  1  0
 31 64  1  0
 31 65  1  0
 32 66  1  0
 32 67  1  0
 32 68  1  0
 35 69  1  0
 35 70  1  0
 35 71  1  0
M  END
$$$$
