
     RDKit          3D

 41 43  0  0  0  0  0  0  0  0999 V2000
   -3.6008    2.0107   -1.5631 C   0  0  0  0  0  0  0  0  0  0  0  0
   -2.5037    1.2925   -0.9632 N   0  0  0  0  0  0  0  0  0  0  0  0
   -1.1994    1.2398   -1.3828 C   0  0  0  0  0  0  0  0  0  0  0  0
   -0.5663    2.0733   -2.7543 S   0  0  0  0  0  0  0  0  0  0  0  0
    0.4069    0.7392   -3.5183 C   0  0  0  0  0  0  0  0  0  0  0  0
    1.8358    0.7022   -3.0097 C   0  0  0  0  0  0  0  0  0  0  0  0
    2.7710    1.1151   -3.7016 O   0  0  0  0  0  0  0  0  0  0  0  0
    1.9629    0.1269   -1.7534 N   0  0  0  0  0  0  0  0  0  0  0  0
    3.1999   -0.0510   -1.2013 N   0  0  0  0  0  0  0  0  0  0  0  0
    3.2061   -0.5097    0.0105 C   0  0  0  0  0  0  0  0  0  0  0  0
    4.4428   -0.7618    0.7214 C   0  0  0  0  0  0  0  0  0  0  0  0
    4.5994   -1.0511    2.0651 C   0  0  0  0  0  0  0  0  0  0  0  0
    5.9758   -1.2188    2.4264 C   0  0  0  0  0  0  0  0  0  0  0  0
    6.8037   -1.0850    1.3355 C   0  0  0  0  0  0  0  0  0  0  0  0
    8.2419   -1.1888    1.3283 N   0  0  0  0  0  4  0  0  0  0  0  0
    8.8496   -0.9352    0.2771 O   0  0  0  0  0  0  0  0  0  0  0  0
    8.7757   -1.5126    2.4024 O   0  0  0  0  0  1  0  0  0  0  0  0
    5.9555   -0.7420   -0.0943 S   0  0  0  0  0  0  0  0  0  0  0  0
   -0.5248    0.3871   -0.6468 N   0  0  0  0  0  0  0  0  0  0  0  0
   -1.3895   -0.1235    0.2893 N   0  0  0  0  0  0  0  0  0  0  0  0
   -2.5861    0.4154    0.1055 C   0  0  0  0  0  0  0  0  0  0  0  0
   -3.7885    0.0494    0.8555 C   0  0  0  0  0  0  0  0  0  0  0  0
   -4.6845    1.0035    1.3625 C   0  0  0  0  0  0  0  0  0  0  0  0
   -5.8340    0.5971    2.0605 C   0  0  0  0  0  0  0  0  0  0  0  0
   -6.0849   -0.7632    2.2637 C   0  0  0  0  0  0  0  0  0  0  0  0
   -7.4996   -1.2541    3.1214 Cl  0  0  0  0  0  0  0  0  0  0  0  0
   -5.1911   -1.7222    1.7848 C   0  0  0  0  0  0  0  0  0  0  0  0
   -4.0467   -1.3155    1.0908 C   0  0  0  0  0  0  0  0  0  0  0  0
   -3.7949    2.9042   -0.9635 H   0  0  0  0  0  0  0  0  0  0  0  0
   -3.3586    2.3067   -2.5929 H   0  0  0  0  0  0  0  0  0  0  0  0
   -4.4816    1.3733   -1.5876 H   0  0  0  0  0  0  0  0  0  0  0  0
   -0.0708   -0.2405   -3.3870 H   0  0  0  0  0  0  0  0  0  0  0  0
    0.4364    0.9209   -4.6001 H   0  0  0  0  0  0  0  0  0  0  0  0
    1.1257   -0.0807   -1.2028 H   0  0  0  0  0  0  0  0  0  0  0  0
    2.2585   -0.7206    0.5565 H   0  0  0  0  0  0  0  0  0  0  0  0
    3.7736   -1.1120    2.7664 H   0  0  0  0  0  0  0  0  0  0  0  0
    6.3251   -1.4332    3.4310 H   0  0  0  0  0  0  0  0  0  0  0  0
   -4.4968    2.0665    1.2428 H   0  0  0  0  0  0  0  0  0  0  0  0
   -6.5257    1.3453    2.4529 H   0  0  0  0  0  0  0  0  0  0  0  0
   -5.3695   -2.7812    1.9411 H   0  0  0  0  0  0  0  0  0  0  0  0
   -3.3485   -2.0664    0.7299 H   0  0  0  0  0  0  0  0  0  0  0  0
  1  2  1  0
  2  3  1  0
  3  4  1  0
  4  5  1  0
  5  6  1  0
  6  7  2  0
  6  8  1  0
  8  9  1  0
  9 10  2  3
 10 11  1  0
 11 12  2  0
 12 13  1  0
 13 14  2  0
 14 15  1  0
 15 16  2  0
 15 17  1  0
 14 18  1  0
  3 19  2  0
 19 20  1  0
 20 21  2  0
 21 22  1  0
 22 23  2  0
 23 24  1  0
 24 25  2  0
 25 26  1  0
 25 27  1  0
 27 28  2  0
 21  2  1  0
 28 22  1  0
 18 11  1  0
  1 29  1  0
  1 30  1  0
  1 31  1  0
  5 32  1  0
  5 33  1  0
  8 34  1  0
 10 35  1  0
 12 36  1  0
 13 37  1  0
 23 38  1  0
 24 39  1  0
 27 40  1  0
 28 41  1  0
M  CHG  2  15   1  17  -1
M  END
$$$$
