
     RDKit          3D

 51 54  0  0  0  0  0  0  0  0999 V2000
    6.3213    0.6074   -2.1632 C   0  0  0  0  0  0  0  0  0  0  0  0
    5.3524    1.2577   -3.1405 C   0  0  0  0  0  0  0  0  0  0  0  0
    3.9625    1.3642   -2.5686 C   0  0  0  0  0  0  0  0  0  0  0  0
    3.5999    2.4572   -1.7788 C   0  0  0  0  0  0  0  0  0  0  0  0
    2.3106    2.5494   -1.2382 C   0  0  0  0  0  0  0  0  0  0  0  0
    1.3433    1.5547   -1.4639 C   0  0  0  0  0  0  0  0  0  0  0  0
    0.0099    1.6656   -0.8983 N   0  0  0  0  0  0  0  0  0  0  0  0
   -0.5591    2.9425   -0.8007 C   0  0  0  0  0  0  0  0  0  0  0  0
   -0.0949    3.9786   -1.2802 O   0  0  0  0  0  0  0  0  0  0  0  0
   -1.8557    3.0596   -0.1153 C   0  0  0  0  0  0  0  0  0  0  0  0
   -2.3934    4.3363    0.1311 C   0  0  0  0  0  0  0  0  0  0  0  0
   -3.6216    4.4702    0.7712 C   0  0  0  0  0  0  0  0  0  0  0  0
   -4.3098    3.3309    1.1677 C   0  0  0  0  0  0  0  0  0  0  0  0
   -3.7740    2.0626    0.9154 C   0  0  0  0  0  0  0  0  0  0  0  0
   -2.5400    1.9104    0.2608 C   0  0  0  0  0  0  0  0  0  0  0  0
   -1.9691    0.6464   -0.0239 N   0  0  0  0  0  0  0  0  0  0  0  0
   -2.6701   -0.5942    0.3119 C   0  0  0  0  0  0  0  0  0  0  0  0
   -2.3315   -1.0558    1.7334 C   0  0  0  0  0  0  0  0  0  0  0  0
   -2.4158   -0.3173    2.7135 O   0  0  0  0  0  0  0  0  0  0  0  0
   -1.9590   -2.3819    1.8254 N   0  0  0  0  0  0  0  0  0  0  0  0
   -1.4806   -2.9084    3.0833 C   0  0  0  0  0  0  0  0  0  0  0  0
   -1.3850   -4.3844    2.9736 C   0  0  0  0  0  0  0  0  0  0  0  0
   -2.0101   -5.4270    3.6302 C   0  0  0  0  0  0  0  0  0  0  0  0
   -1.4913   -6.6201    3.0692 C   0  0  0  0  0  0  0  0  0  0  0  0
   -0.5865   -6.2322    2.1072 C   0  0  0  0  0  0  0  0  0  0  0  0
   -0.5163   -4.8763    2.0384 O   0  0  0  0  0  0  0  0  0  0  0  0
   -0.6705    0.4995   -0.5176 C   0  0  0  0  0  0  0  0  0  0  0  0
   -0.1842   -0.6370   -0.5656 O   0  0  0  0  0  0  0  0  0  0  0  0
    1.7268    0.4590   -2.2543 C   0  0  0  0  0  0  0  0  0  0  0  0
    3.0160    0.3625   -2.7971 C   0  0  0  0  0  0  0  0  0  0  0  0
    7.3184    0.5367   -2.6103 H   0  0  0  0  0  0  0  0  0  0  0  0
    6.4044    1.1906   -1.2388 H   0  0  0  0  0  0  0  0  0  0  0  0
    5.9971   -0.4042   -1.8935 H   0  0  0  0  0  0  0  0  0  0  0  0
    5.3268    0.6814   -4.0743 H   0  0  0  0  0  0  0  0  0  0  0  0
    5.7138    2.2572   -3.4121 H   0  0  0  0  0  0  0  0  0  0  0  0
    4.3165    3.2499   -1.5724 H   0  0  0  0  0  0  0  0  0  0  0  0
    2.0931    3.4129   -0.6140 H   0  0  0  0  0  0  0  0  0  0  0  0
   -1.8521    5.2302   -0.1756 H   0  0  0  0  0  0  0  0  0  0  0  0
   -4.0333    5.4575    0.9656 H   0  0  0  0  0  0  0  0  0  0  0  0
   -5.2628    3.4230    1.6845 H   0  0  0  0  0  0  0  0  0  0  0  0
   -4.3439    1.2123    1.2779 H   0  0  0  0  0  0  0  0  0  0  0  0
   -3.7542   -0.4875    0.2114 H   0  0  0  0  0  0  0  0  0  0  0  0
   -2.3941   -1.3739   -0.4089 H   0  0  0  0  0  0  0  0  0  0  0  0
   -1.5453   -2.8054    0.9993 H   0  0  0  0  0  0  0  0  0  0  0  0
   -0.4994   -2.4689    3.2900 H   0  0  0  0  0  0  0  0  0  0  0  0
   -2.1670   -2.6143    3.8839 H   0  0  0  0  0  0  0  0  0  0  0  0
   -2.7491   -5.3313    4.4149 H   0  0  0  0  0  0  0  0  0  0  0  0
   -1.7432   -7.6394    3.3326 H   0  0  0  0  0  0  0  0  0  0  0  0
    0.0557   -6.7687    1.4208 H   0  0  0  0  0  0  0  0  0  0  0  0
    1.0256   -0.3351   -2.4986 H   0  0  0  0  0  0  0  0  0  0  0  0
    3.2688   -0.5030   -3.4063 H   0  0  0  0  0  0  0  0  0  0  0  0
  1  2  1  0
  2  3  1  0
  3  4  2  0
  4  5  1  0
  5  6  2  0
  6  7  1  0
  7  8  1  0
  8  9  2  0
  8 10  1  0
 10 11  2  0
 11 12  1  0
 12 13  2  0
 13 14  1  0
 14 15  2  0
 15 16  1  0
 16 17  1  0
 17 18  1  0
 18 19  2  0
 18 20  1  0
 20 21  1  0
 21 22  1  0
 22 23  2  0
 23 24  1  0
 24 25  2  0
 25 26  1  0
 16 27  1  0
 27 28  2  0
  6 29  1  0
 29 30  2  0
 30  3  1  0
 27  7  1  0
 15 10  1  0
 26 22  1  0
  1 31  1  0
  1 32  1  0
  1 33  1  0
  2 34  1  0
  2 35  1  0
  4 36  1  0
  5 37  1  0
 11 38  1  0
 12 39  1  0
 13 40  1  0
 14 41  1  0
 17 42  1  0
 17 43  1  0
 20 44  1  0
 21 45  1  0
 21 46  1  0
 23 47  1  0
 24 48  1  0
 25 49  1  0
 29 50  1  0
 30 51  1  0
M  END
$$$$
