
     RDKit          3D

 61 65  0  0  0  0  0  0  0  0999 V2000
   -8.7983    2.3115    2.2476 C   0  0  0  0  0  0  0  0  0  0  0  0
   -8.2907    1.6060    1.1262 O   0  0  0  0  0  0  0  0  0  0  0  0
   -6.9273    1.5339    0.9818 C   0  0  0  0  0  0  0  0  0  0  0  0
   -6.0091    2.1096    1.8632 C   0  0  0  0  0  0  0  0  0  0  0  0
   -4.6366    1.9910    1.6279 C   0  0  0  0  0  0  0  0  0  0  0  0
   -4.1542    1.2983    0.5106 C   0  0  0  0  0  0  0  0  0  0  0  0
   -2.7131    1.2075    0.2911 C   0  0  0  0  0  0  0  0  0  0  0  0
   -1.7276    1.7016    1.0179 N   0  0  0  0  0  0  0  0  0  0  0  0
   -0.5809    1.3129    0.3543 C   0  0  0  0  0  0  0  0  0  0  0  0
    0.7574    1.6873    0.8777 C   0  0  0  0  0  0  0  0  0  0  0  0
    1.4063    0.5565    1.5205 N   0  0  0  0  0  0  0  0  0  0  0  0
    2.5111   -0.1372    1.0910 C   0  0  0  0  0  0  0  0  0  0  0  0
    3.3313    0.1983   -0.3973 S   0  0  0  0  0  0  0  0  0  0  0  0
    4.7993   -0.8573   -0.2137 C   0  0  0  0  0  0  0  0  0  0  0  0
    5.7257   -0.7125   -1.3967 C   0  0  0  0  0  0  0  0  0  0  0  0
    6.6256    0.3583   -1.4708 C   0  0  0  0  0  0  0  0  0  0  0  0
    7.4753    0.4986   -2.5716 C   0  0  0  0  0  0  0  0  0  0  0  0
    7.4458   -0.4331   -3.6147 C   0  0  0  0  0  0  0  0  0  0  0  0
    8.3379   -0.2699   -4.8101 C   0  0  0  0  0  0  0  0  0  0  0  0
    6.5384   -1.4951   -3.5500 C   0  0  0  0  0  0  0  0  0  0  0  0
    5.6865   -1.6356   -2.4515 C   0  0  0  0  0  0  0  0  0  0  0  0
    2.8646   -1.0761    1.9379 N   0  0  0  0  0  0  0  0  0  0  0  0
    1.9655   -0.9904    2.9707 C   0  0  0  0  0  0  0  0  0  0  0  0
    1.8831   -1.7493    4.1380 C   0  0  0  0  0  0  0  0  0  0  0  0
    0.8560   -1.4105    5.0028 C   0  0  0  0  0  0  0  0  0  0  0  0
   -0.0431   -0.4211    4.7872 N   0  0  0  0  0  0  0  0  0  0  0  0
    0.0315    0.3099    3.6488 C   0  0  0  0  0  0  0  0  0  0  0  0
    1.0435    0.0250    2.7424 C   0  0  0  0  0  0  0  0  0  0  0  0
   -0.9283    0.5971   -0.7735 C   0  0  0  0  0  0  0  0  0  0  0  0
   -0.1856   -0.0650   -1.8611 C   0  0  0  0  0  0  0  0  0  0  0  0
   -2.2924    0.5236   -0.8199 O   0  0  0  0  0  0  0  0  0  0  0  0
   -5.0792    0.7140   -0.3685 C   0  0  0  0  0  0  0  0  0  0  0  0
   -6.4579    0.8235   -0.1410 C   0  0  0  0  0  0  0  0  0  0  0  0
   -7.4220    0.2827   -0.9549 O   0  0  0  0  0  0  0  0  0  0  0  0
   -6.9927   -0.5306   -2.0386 C   0  0  0  0  0  0  0  0  0  0  0  0
   -9.8915    2.2836    2.1944 H   0  0  0  0  0  0  0  0  0  0  0  0
   -8.4974    1.8297    3.1834 H   0  0  0  0  0  0  0  0  0  0  0  0
   -8.4919    3.3620    2.2268 H   0  0  0  0  0  0  0  0  0  0  0  0
   -6.3252    2.6585    2.7438 H   0  0  0  0  0  0  0  0  0  0  0  0
   -3.9393    2.4500    2.3279 H   0  0  0  0  0  0  0  0  0  0  0  0
    1.3885    2.0821    0.0784 H   0  0  0  0  0  0  0  0  0  0  0  0
    0.6724    2.4776    1.6325 H   0  0  0  0  0  0  0  0  0  0  0  0
    5.3380   -0.5895    0.7019 H   0  0  0  0  0  0  0  0  0  0  0  0
    4.4898   -1.9027   -0.1103 H   0  0  0  0  0  0  0  0  0  0  0  0
    6.6712    1.0924   -0.6689 H   0  0  0  0  0  0  0  0  0  0  0  0
    8.1650    1.3395   -2.6064 H   0  0  0  0  0  0  0  0  0  0  0  0
    8.6730   -1.2483   -5.1809 H   0  0  0  0  0  0  0  0  0  0  0  0
    9.2364    0.3080   -4.5569 H   0  0  0  0  0  0  0  0  0  0  0  0
    7.7972    0.2508   -5.6105 H   0  0  0  0  0  0  0  0  0  0  0  0
    6.4883   -2.2232   -4.3577 H   0  0  0  0  0  0  0  0  0  0  0  0
    4.9895   -2.4729   -2.4252 H   0  0  0  0  0  0  0  0  0  0  0  0
    2.5789   -2.5493    4.3514 H   0  0  0  0  0  0  0  0  0  0  0  0
    0.7226   -1.9516    5.9368 H   0  0  0  0  0  0  0  0  0  0  0  0
   -0.7138    1.0837    3.5070 H   0  0  0  0  0  0  0  0  0  0  0  0
    0.5401    0.6231   -2.3051 H   0  0  0  0  0  0  0  0  0  0  0  0
    0.3498   -0.9380   -1.4798 H   0  0  0  0  0  0  0  0  0  0  0  0
   -0.8589   -0.4015   -2.6554 H   0  0  0  0  0  0  0  0  0  0  0  0
   -4.7022    0.1780   -1.2336 H   0  0  0  0  0  0  0  0  0  0  0  0
   -7.8842   -0.9245   -2.5346 H   0  0  0  0  0  0  0  0  0  0  0  0
   -6.4367    0.0581   -2.7757 H   0  0  0  0  0  0  0  0  0  0  0  0
   -6.4051   -1.3850   -1.6870 H   0  0  0  0  0  0  0  0  0  0  0  0
  1  2  1  0
  2  3  1  0
  3  4  2  0
  4  5  1  0
  5  6  2  0
  6  7  1  0
  7  8  2  0
  8  9  1  0
  9 10  1  0
 10 11  1  0
 11 12  1  0
 12 13  1  0
 13 14  1  0
 14 15  1  0
 15 16  2  0
 16 17  1  0
 17 18  2  0
 18 19  1  0
 18 20  1  0
 20 21  2  0
 12 22  2  0
 22 23  1  0
 23 24  2  0
 24 25  1  0
 25 26  2  0
 26 27  1  0
 27 28  2  0
  9 29  2  0
 29 30  1  0
 29 31  1  0
  6 32  1  0
 32 33  2  0
 33 34  1  0
 34 35  1  0
 33  3  1  0
 31  7  1  0
 28 11  1  0
 21 15  1  0
 28 23  1  0
  1 36  1  0
  1 37  1  0
  1 38  1  0
  4 39  1  0
  5 40  1  0
 10 41  1  0
 10 42  1  0
 14 43  1  0
 14 44  1  0
 16 45  1  0
 17 46  1  0
 19 47  1  0
 19 48  1  0
 19 49  1  0
 20 50  1  0
 21 51  1  0
 24 52  1  0
 25 53  1  0
 27 54  1  0
 30 55  1  0
 30 56  1  0
 30 57  1  0
 32 58  1  0
 35 59  1  0
 35 60  1  0
 35 61  1  0
M  END
$$$$
