
     RDKit          3D

 50 53  0  0  0  0  0  0  0  0999 V2000
   -4.7768   -1.9482    5.4500 C   0  0  0  0  0  0  0  0  0  0  0  0
   -4.0528   -1.6469    4.1713 C   0  0  0  0  0  0  0  0  0  0  0  0
   -3.4936   -2.6802    3.4156 C   0  0  0  0  0  0  0  0  0  0  0  0
   -2.7902   -2.3986    2.2406 C   0  0  0  0  0  0  0  0  0  0  0  0
   -2.6349   -1.0744    1.7954 C   0  0  0  0  0  0  0  0  0  0  0  0
   -1.9075   -0.8346    0.5877 N   0  0  0  0  0  0  0  0  0  0  0  0
   -1.1220   -1.8295    0.0935 N   0  0  0  0  0  0  0  0  0  0  0  0
   -0.4223   -1.2678   -0.8929 C   0  0  0  0  0  0  0  0  0  0  0  0
    0.6145   -1.9092   -1.6915 C   0  0  0  0  0  0  0  0  0  0  0  0
    1.0049   -3.0588   -1.5089 O   0  0  0  0  0  0  0  0  0  0  0  0
    1.1226   -1.0644   -2.7004 N   0  0  0  0  0  0  0  0  0  0  0  0
    2.2010   -1.5674   -3.5549 C   0  0  0  0  0  0  0  0  0  0  0  0
    3.5805   -1.2050   -3.0005 C   0  0  0  0  0  0  0  0  0  0  0  0
    4.6012   -1.8100   -3.3194 O   0  0  0  0  0  0  0  0  0  0  0  0
    3.6042   -0.0670   -2.2296 N   0  0  0  0  0  0  0  0  0  0  0  0
    4.8015    0.4048   -1.5864 C   0  0  0  0  0  0  0  0  0  0  0  0
    4.4803    1.6924   -0.8986 C   0  0  0  0  0  0  0  0  0  0  0  0
    4.6234    2.9801   -1.3811 C   0  0  0  0  0  0  0  0  0  0  0  0
    4.2007    3.9624   -0.4390 C   0  0  0  0  0  0  0  0  0  0  0  0
    3.7460    3.3933    0.7304 C   0  0  0  0  0  0  0  0  0  0  0  0
    3.8252    1.6856    0.6881 S   0  0  0  0  0  0  0  0  0  0  0  0
    0.7427    0.2724   -2.8995 N   0  0  0  0  0  0  0  0  0  0  0  0
   -0.1819    0.8262   -2.1640 C   0  0  0  0  0  0  0  0  0  0  0  0
   -0.5375    2.2610   -2.4288 C   0  0  0  0  0  0  0  0  0  0  0  0
   -0.8155    0.0538   -1.1244 C   0  0  0  0  0  0  0  0  0  0  0  0
   -1.8463    0.3000   -0.2326 C   0  0  0  0  0  0  0  0  0  0  0  0
   -2.7735    1.4578   -0.1463 C   0  0  0  0  0  0  0  0  0  0  0  0
   -3.1602   -0.0400    2.5763 C   0  0  0  0  0  0  0  0  0  0  0  0
   -3.8646   -0.3264    3.7529 C   0  0  0  0  0  0  0  0  0  0  0  0
   -5.5148   -1.1710    5.6744 H   0  0  0  0  0  0  0  0  0  0  0  0
   -4.0646   -2.0080    6.2786 H   0  0  0  0  0  0  0  0  0  0  0  0
   -5.3173   -2.8979    5.3765 H   0  0  0  0  0  0  0  0  0  0  0  0
   -3.5956   -3.7150    3.7349 H   0  0  0  0  0  0  0  0  0  0  0  0
   -2.3688   -3.2309    1.6790 H   0  0  0  0  0  0  0  0  0  0  0  0
    2.1356   -2.6569   -3.6356 H   0  0  0  0  0  0  0  0  0  0  0  0
    2.0955   -1.1286   -4.5522 H   0  0  0  0  0  0  0  0  0  0  0  0
    2.7128    0.3783   -2.0355 H   0  0  0  0  0  0  0  0  0  0  0  0
    5.1513   -0.3624   -0.8871 H   0  0  0  0  0  0  0  0  0  0  0  0
    5.5783    0.5437   -2.3464 H   0  0  0  0  0  0  0  0  0  0  0  0
    5.0162    3.2051   -2.3664 H   0  0  0  0  0  0  0  0  0  0  0  0
    4.2316    5.0324   -0.6093 H   0  0  0  0  0  0  0  0  0  0  0  0
    3.3712    3.8986    1.6112 H   0  0  0  0  0  0  0  0  0  0  0  0
   -0.5336    2.8302   -1.4952 H   0  0  0  0  0  0  0  0  0  0  0  0
    0.1872    2.7113   -3.1147 H   0  0  0  0  0  0  0  0  0  0  0  0
   -1.5271    2.3130   -2.8904 H   0  0  0  0  0  0  0  0  0  0  0  0
   -3.7687    1.1600    0.1978 H   0  0  0  0  0  0  0  0  0  0  0  0
   -2.3711    2.2283    0.5171 H   0  0  0  0  0  0  0  0  0  0  0  0
   -2.9313    1.9080   -1.1303 H   0  0  0  0  0  0  0  0  0  0  0  0
   -3.0020    1.0050    2.3395 H   0  0  0  0  0  0  0  0  0  0  0  0
   -4.2537    0.4955    4.3513 H   0  0  0  0  0  0  0  0  0  0  0  0
  1  2  1  0
  2  3  2  0
  3  4  1  0
  4  5  2  0
  5  6  1  0
  6  7  1  0
  7  8  2  0
  8  9  1  0
  9 10  2  0
  9 11  1  0
 11 12  1  0
 12 13  1  0
 13 14  2  0
 13 15  1  0
 15 16  1  0
 16 17  1  0
 17 18  2  0
 18 19  1  0
 19 20  2  0
 20 21  1  0
 11 22  1  0
 22 23  2  0
 23 24  1  0
 23 25  1  0
 25 26  2  0
 26 27  1  0
  5 28  1  0
 28 29  2  0
 29  2  1  0
 26  6  1  0
 25  8  1  0
 21 17  1  0
  1 30  1  0
  1 31  1  0
  1 32  1  0
  3 33  1  0
  4 34  1  0
 12 35  1  0
 12 36  1  0
 15 37  1  0
 16 38  1  0
 16 39  1  0
 18 40  1  0
 19 41  1  0
 20 42  1  0
 24 43  1  0
 24 44  1  0
 24 45  1  0
 27 46  1  0
 27 47  1  0
 27 48  1  0
 28 49  1  0
 29 50  1  0
M  END
$$$$
