
     RDKit          3D

 60 63  0  0  0  0  0  0  0  0999 V2000
   -3.8173    0.3627    4.9555 C   0  0  0  0  0  0  0  0  0  0  0  0
   -3.8469   -0.7226    4.0358 O   0  0  0  0  0  0  0  0  0  0  0  0
   -3.1902   -0.5519    2.8492 C   0  0  0  0  0  0  0  0  0  0  0  0
   -3.2430   -1.6540    1.9908 C   0  0  0  0  0  0  0  0  0  0  0  0
   -2.6085   -1.6252    0.7472 C   0  0  0  0  0  0  0  0  0  0  0  0
   -1.9272   -0.4720    0.3505 C   0  0  0  0  0  0  0  0  0  0  0  0
   -1.2537   -0.4352   -0.8931 N   0  0  0  0  0  0  0  0  0  0  0  0
   -1.3286    0.5481   -1.8705 C   0  0  0  0  0  0  0  0  0  0  0  0
   -2.3147    1.6725   -1.8982 C   0  0  0  0  0  0  0  0  0  0  0  0
   -3.7055    1.1999   -2.2217 C   0  0  0  0  0  0  0  0  0  0  0  0
   -4.1194    0.3896   -3.2684 C   0  0  0  0  0  0  0  0  0  0  0  0
   -5.5133    0.2007   -3.1537 C   0  0  0  0  0  0  0  0  0  0  0  0
   -5.9291    0.9112   -2.0503 C   0  0  0  0  0  0  0  0  0  0  0  0
   -4.8357    1.5367   -1.5054 N   0  0  0  0  0  0  0  0  0  0  0  0
   -4.9092    2.4197   -0.3616 C   0  0  0  0  0  0  0  0  0  0  0  0
   -0.4967    0.2538   -2.8537 N   0  0  0  0  0  0  0  0  0  0  0  0
    0.1050   -0.9400   -2.5655 N   0  0  0  0  0  0  0  0  0  0  0  0
   -0.3517   -1.3481   -1.4047 C   0  0  0  0  0  0  0  0  0  0  0  0
    0.3103   -2.7187   -0.5679 S   0  0  0  0  0  0  0  0  0  0  0  0
    1.2264   -1.9175    0.7840 C   0  0  0  0  0  0  0  0  0  0  0  0
    1.9167   -0.6366    0.3504 C   0  0  0  0  0  0  0  0  0  0  0  0
    1.6379    0.4500    0.8537 O   0  0  0  0  0  0  0  0  0  0  0  0
    2.8754   -0.7998   -0.6246 N   0  0  0  0  0  0  0  0  0  0  0  0
    3.5169    0.3402   -1.2535 C   0  0  0  0  0  0  0  0  0  0  0  0
    4.5949    0.9933   -0.3827 C   0  0  0  0  0  0  0  0  0  0  0  0
    5.7853    0.0913   -0.1495 C   0  0  0  0  0  0  0  0  0  0  0  0
    6.7942   -0.0213   -1.1165 C   0  0  0  0  0  0  0  0  0  0  0  0
    7.8821   -0.8715   -0.9074 C   0  0  0  0  0  0  0  0  0  0  0  0
    7.9688   -1.6178    0.2676 C   0  0  0  0  0  0  0  0  0  0  0  0
    6.9686   -1.5159    1.2334 C   0  0  0  0  0  0  0  0  0  0  0  0
    5.8821   -0.6656    1.0259 C   0  0  0  0  0  0  0  0  0  0  0  0
   -1.8665    0.6351    1.2039 C   0  0  0  0  0  0  0  0  0  0  0  0
   -2.4952    0.5912    2.4533 C   0  0  0  0  0  0  0  0  0  0  0  0
   -4.3752    0.0602    5.8469 H   0  0  0  0  0  0  0  0  0  0  0  0
   -4.3072    1.2463    4.5382 H   0  0  0  0  0  0  0  0  0  0  0  0
   -2.7926    0.5891    5.2664 H   0  0  0  0  0  0  0  0  0  0  0  0
   -3.7851   -2.5465    2.2961 H   0  0  0  0  0  0  0  0  0  0  0  0
   -2.6863   -2.4948    0.0983 H   0  0  0  0  0  0  0  0  0  0  0  0
   -2.2780    2.2389   -0.9653 H   0  0  0  0  0  0  0  0  0  0  0  0
   -2.0123    2.3794   -2.6821 H   0  0  0  0  0  0  0  0  0  0  0  0
   -3.4691   -0.0278   -4.0305 H   0  0  0  0  0  0  0  0  0  0  0  0
   -6.1462   -0.3884   -3.8051 H   0  0  0  0  0  0  0  0  0  0  0  0
   -6.9159    1.0281   -1.6210 H   0  0  0  0  0  0  0  0  0  0  0  0
   -4.5844    1.8665    0.5205 H   0  0  0  0  0  0  0  0  0  0  0  0
   -4.2693    3.2902   -0.5364 H   0  0  0  0  0  0  0  0  0  0  0  0
   -5.9395    2.7587   -0.2309 H   0  0  0  0  0  0  0  0  0  0  0  0
    1.9799   -2.6119    1.1660 H   0  0  0  0  0  0  0  0  0  0  0  0
    0.5397   -1.6933    1.6055 H   0  0  0  0  0  0  0  0  0  0  0  0
    2.8539   -1.6639   -1.1562 H   0  0  0  0  0  0  0  0  0  0  0  0
    3.9420   -0.0133   -2.1996 H   0  0  0  0  0  0  0  0  0  0  0  0
    2.7408    1.0781   -1.4914 H   0  0  0  0  0  0  0  0  0  0  0  0
    4.9427    1.9122   -0.8715 H   0  0  0  0  0  0  0  0  0  0  0  0
    4.1782    1.3083    0.5815 H   0  0  0  0  0  0  0  0  0  0  0  0
    6.7393    0.5533   -2.0388 H   0  0  0  0  0  0  0  0  0  0  0  0
    8.6621   -0.9520   -1.6618 H   0  0  0  0  0  0  0  0  0  0  0  0
    8.8151   -2.2801    0.4290 H   0  0  0  0  0  0  0  0  0  0  0  0
    7.0343   -2.0994    2.1480 H   0  0  0  0  0  0  0  0  0  0  0  0
    5.1085   -0.5959    1.7844 H   0  0  0  0  0  0  0  0  0  0  0  0
   -1.2812    1.5166    0.9475 H   0  0  0  0  0  0  0  0  0  0  0  0
   -2.4066    1.4588    3.0997 H   0  0  0  0  0  0  0  0  0  0  0  0
  1  2  1  0
  2  3  1  0
  3  4  2  0
  4  5  1  0
  5  6  2  0
  6  7  1  0
  7  8  1  0
  8  9  1  0
  9 10  1  0
 10 11  2  0
 11 12  1  0
 12 13  2  0
 13 14  1  0
 14 15  1  0
  8 16  2  0
 16 17  1  0
 17 18  2  0
 18 19  1  0
 19 20  1  0
 20 21  1  0
 21 22  2  0
 21 23  1  0
 23 24  1  0
 24 25  1  0
 25 26  1  0
 26 27  2  0
 27 28  1  0
 28 29  2  0
 29 30  1  0
 30 31  2  0
  6 32  1  0
 32 33  2  0
 33  3  1  0
 18  7  1  0
 31 26  1  0
 14 10  1  0
  1 34  1  0
  1 35  1  0
  1 36  1  0
  4 37  1  0
  5 38  1  0
  9 39  1  0
  9 40  1  0
 11 41  1  0
 12 42  1  0
 13 43  1  0
 15 44  1  0
 15 45  1  0
 15 46  1  0
 20 47  1  0
 20 48  1  0
 23 49  1  0
 24 50  1  0
 24 51  1  0
 25 52  1  0
 25 53  1  0
 27 54  1  0
 28 55  1  0
 29 56  1  0
 30 57  1  0
 31 58  1  0
 32 59  1  0
 33 60  1  0
M  END
$$$$
