
     RDKit          3D

 42 44  0  0  0  0  0  0  0  0999 V2000
    0.3773   -0.1304    3.1601 C   0  0  0  0  0  0  0  0  0  0  0  0
   -0.2948   -0.0126    1.8249 C   0  0  0  0  0  0  0  0  0  0  0  0
    0.2610    0.4002    0.6715 C   0  0  0  0  0  0  0  0  0  0  0  0
    1.5606    0.7730    0.4674 N   0  0  0  0  0  0  0  0  0  0  0  0
    1.9849    1.6794   -0.4959 C   0  0  0  0  0  0  0  0  0  0  0  0
    1.2544    2.3805   -1.1930 O   0  0  0  0  0  0  0  0  0  0  0  0
    3.4868    1.8171   -0.5785 C   0  0  0  0  0  0  0  0  0  0  0  0
    4.0543    0.6911   -1.2989 N   0  0  0  0  0  0  0  0  0  0  0  0
    4.3419    0.6400   -2.6366 C   0  0  0  0  0  0  0  0  0  0  0  0
    4.8133   -0.6313   -2.8758 C   0  0  0  0  0  0  0  0  0  0  0  0
    4.7979   -1.2652   -1.6090 C   0  0  0  0  0  0  0  0  0  0  0  0
    5.1725   -2.6299   -1.2719 N   0  0  0  0  0  4  0  0  0  0  0  0
    5.2556   -2.9474   -0.0707 O   0  0  0  0  0  0  0  0  0  0  0  0
    5.3879   -3.3934   -2.2289 O   0  0  0  0  0  1  0  0  0  0  0  0
    4.3550   -0.4472   -0.6312 N   0  0  0  0  0  0  0  0  0  0  0  0
   -0.8198    0.2925   -0.3691 C   0  0  0  0  0  0  0  0  0  0  0  0
   -0.6532    0.4099   -1.5757 O   0  0  0  0  0  0  0  0  0  0  0  0
   -1.9890   -0.0324    0.3351 N   0  0  0  0  0  0  0  0  0  0  0  0
   -3.3222    0.1970   -0.0875 C   0  0  0  0  0  0  0  0  0  0  0  0
   -3.6463    0.2312   -1.4522 C   0  0  0  0  0  0  0  0  0  0  0  0
   -4.9626    0.4525   -1.8732 C   0  0  0  0  0  0  0  0  0  0  0  0
   -5.9730    0.6486   -0.9398 C   0  0  0  0  0  0  0  0  0  0  0  0
   -5.6687    0.6349    0.4212 C   0  0  0  0  0  0  0  0  0  0  0  0
   -4.3523    0.4120    0.8392 C   0  0  0  0  0  0  0  0  0  0  0  0
   -1.6636   -0.2968    1.7020 N   0  0  0  0  0  0  0  0  0  0  0  0
   -2.1390   -1.6110    2.1860 C   0  0  0  0  0  0  0  0  0  0  0  0
    0.6033   -1.1805    3.3805 H   0  0  0  0  0  0  0  0  0  0  0  0
   -0.2689    0.2658    3.9592 H   0  0  0  0  0  0  0  0  0  0  0  0
    1.3158    0.4337    3.2003 H   0  0  0  0  0  0  0  0  0  0  0  0
    2.2383    0.4691    1.1558 H   0  0  0  0  0  0  0  0  0  0  0  0
    3.9339    1.8599    0.4248 H   0  0  0  0  0  0  0  0  0  0  0  0
    3.7509    2.7396   -1.1053 H   0  0  0  0  0  0  0  0  0  0  0  0
    4.1581    1.4868   -3.2877 H   0  0  0  0  0  0  0  0  0  0  0  0
    5.1124   -1.0511   -3.8211 H   0  0  0  0  0  0  0  0  0  0  0  0
   -2.8889    0.0697   -2.2170 H   0  0  0  0  0  0  0  0  0  0  0  0
   -5.1940    0.4607   -2.9409 H   0  0  0  0  0  0  0  0  0  0  0  0
   -6.9937    0.8224   -1.2729 H   0  0  0  0  0  0  0  0  0  0  0  0
   -6.4506    0.8144    1.1542 H   0  0  0  0  0  0  0  0  0  0  0  0
   -4.1426    0.4320    1.9051 H   0  0  0  0  0  0  0  0  0  0  0  0
   -3.1998   -1.7752    1.9699 H   0  0  0  0  0  0  0  0  0  0  0  0
   -1.5696   -2.4319    1.7285 H   0  0  0  0  0  0  0  0  0  0  0  0
   -2.0234   -1.6778    3.2795 H   0  0  0  0  0  0  0  0  0  0  0  0
  1  2  1  0
  2  3  2  0
  3  4  1  0
  4  5  1  0
  5  6  2  0
  5  7  1  0
  7  8  1  0
  8  9  1  0
  9 10  2  0
 10 11  1  0
 11 12  1  0
 12 13  2  0
 12 14  1  0
 11 15  2  0
  3 16  1  0
 16 17  2  0
 16 18  1  0
 18 19  1  0
 19 20  2  0
 20 21  1  0
 21 22  2  0
 22 23  1  0
 23 24  2  0
 18 25  1  0
 25 26  1  0
 25  2  1  0
 15  8  1  0
 24 19  1  0
  1 27  1  0
  1 28  1  0
  1 29  1  0
  4 30  1  0
  7 31  1  0
  7 32  1  0
  9 33  1  0
 10 34  1  0
 20 35  1  0
 21 36  1  0
 22 37  1  0
 23 38  1  0
 24 39  1  0
 26 40  1  0
 26 41  1  0
 26 42  1  0
M  CHG  2  12   1  14  -1
M  END
$$$$
