
     RDKit          3D

 42 44  0  0  0  0  0  0  0  0999 V2000
   -4.3196   -3.0381   -0.7625 C   0  0  0  0  0  0  0  0  0  0  0  0
   -3.9915   -1.7809   -0.1863 O   0  0  0  0  0  0  0  0  0  0  0  0
   -4.9183   -0.7733   -0.2847 C   0  0  0  0  0  0  0  0  0  0  0  0
   -6.1519   -0.8991   -0.9356 C   0  0  0  0  0  0  0  0  0  0  0  0
   -7.0506    0.1706   -0.9690 C   0  0  0  0  0  0  0  0  0  0  0  0
   -6.7288    1.3742   -0.3503 C   0  0  0  0  0  0  0  0  0  0  0  0
   -5.5032    1.5136    0.2991 C   0  0  0  0  0  0  0  0  0  0  0  0
   -4.5840    0.4528    0.3292 C   0  0  0  0  0  0  0  0  0  0  0  0
   -3.3181    0.6826    1.0463 C   0  0  0  0  0  0  0  0  0  0  0  0
   -2.1204    0.4858    0.4757 C   0  0  0  0  0  0  0  0  0  0  0  0
   -0.8531    0.7155    1.1720 C   0  0  0  0  0  0  0  0  0  0  0  0
    0.3308    0.5472    0.6841 N   0  0  0  0  0  0  0  0  0  0  0  0
    1.1397    0.8984    1.7323 C   0  0  0  0  0  0  0  0  0  0  0  0
    2.4781    0.9048    1.7659 C   0  0  0  0  0  0  0  0  0  0  0  0
    3.3198    0.5271    0.6495 C   0  0  0  0  0  0  0  0  0  0  0  0
    4.6607    0.5395    0.7116 C   0  0  0  0  0  0  0  0  0  0  0  0
    5.5399    0.1677   -0.4068 C   0  0  0  0  0  0  0  0  0  0  0  0
    6.7554    0.8465   -0.5664 C   0  0  0  0  0  0  0  0  0  0  0  0
    7.6326    0.5044   -1.5988 C   0  0  0  0  0  0  0  0  0  0  0  0
    7.3087   -0.5283   -2.4759 C   0  0  0  0  0  0  0  0  0  0  0  0
    6.1108   -1.2218   -2.3184 C   0  0  0  0  0  0  0  0  0  0  0  0
    5.2332   -0.8792   -1.2862 C   0  0  0  0  0  0  0  0  0  0  0  0
    0.3213    1.2983    2.9059 C   0  0  0  0  0  0  0  0  0  0  0  0
    0.6762    1.6711    4.0058 O   0  0  0  0  0  0  0  0  0  0  0  0
   -0.9516    1.1497    2.4508 O   0  0  0  0  0  0  0  0  0  0  0  0
   -4.4480   -2.9536   -1.8466 H   0  0  0  0  0  0  0  0  0  0  0  0
   -5.2073   -3.4705   -0.2893 H   0  0  0  0  0  0  0  0  0  0  0  0
   -3.4817   -3.7178   -0.5798 H   0  0  0  0  0  0  0  0  0  0  0  0
   -6.4492   -1.8203   -1.4256 H   0  0  0  0  0  0  0  0  0  0  0  0
   -8.0060    0.0600   -1.4763 H   0  0  0  0  0  0  0  0  0  0  0  0
   -7.4302    2.2043   -0.3730 H   0  0  0  0  0  0  0  0  0  0  0  0
   -5.2650    2.4620    0.7764 H   0  0  0  0  0  0  0  0  0  0  0  0
   -3.4177    1.0446    2.0661 H   0  0  0  0  0  0  0  0  0  0  0  0
   -2.0275    0.1352   -0.5472 H   0  0  0  0  0  0  0  0  0  0  0  0
    2.9785    1.2112    2.6831 H   0  0  0  0  0  0  0  0  0  0  0  0
    2.8108    0.2377   -0.2686 H   0  0  0  0  0  0  0  0  0  0  0  0
    5.1685    0.8548    1.6202 H   0  0  0  0  0  0  0  0  0  0  0  0
    7.0267    1.6559    0.1076 H   0  0  0  0  0  0  0  0  0  0  0  0
    8.5685    1.0444   -1.7163 H   0  0  0  0  0  0  0  0  0  0  0  0
    7.9910   -0.7955   -3.2784 H   0  0  0  0  0  0  0  0  0  0  0  0
    5.8593   -2.0339   -2.9956 H   0  0  0  0  0  0  0  0  0  0  0  0
    4.3132   -1.4474   -1.1722 H   0  0  0  0  0  0  0  0  0  0  0  0
  1  2  1  0
  2  3  1  0
  3  4  2  0
  4  5  1  0
  5  6  2  0
  6  7  1  0
  7  8  2  0
  8  9  1  0
  9 10  2  3
 10 11  1  0
 11 12  2  0
 12 13  1  0
 13 14  2  3
 14 15  1  0
 15 16  2  3
 16 17  1  0
 17 18  2  0
 18 19  1  0
 19 20  2  0
 20 21  1  0
 21 22  2  0
 13 23  1  0
 23 24  2  0
 23 25  1  0
  8  3  1  0
 25 11  1  0
 22 17  1  0
  1 26  1  0
  1 27  1  0
  1 28  1  0
  4 29  1  0
  5 30  1  0
  6 31  1  0
  7 32  1  0
  9 33  1  0
 10 34  1  0
 14 35  1  0
 15 36  1  0
 16 37  1  0
 18 38  1  0
 19 39  1  0
 20 40  1  0
 21 41  1  0
 22 42  1  0
M  END
$$$$
