
     RDKit          3D

 41 43  0  0  0  0  0  0  0  0999 V2000
    7.3290    1.6900    0.2761 C   0  0  0  0  0  0  0  0  0  0  0  0
    6.1014    1.2213    0.5478 C   0  0  0  0  0  0  0  0  0  0  0  0
    5.8899    0.3310    1.6825 C   0  0  0  0  0  0  0  0  0  0  0  0
    4.6602   -0.1400    1.9585 C   0  0  0  0  0  0  0  0  0  0  0  0
    3.4925    0.2275    1.1268 C   0  0  0  0  0  0  0  0  0  0  0  0
    2.2524   -0.2462    1.4074 C   0  0  0  0  0  0  0  0  0  0  0  0
    1.9512   -1.0860    2.4487 N   0  0  0  0  0  0  0  0  0  0  0  0
    0.6498   -1.4826    2.6054 C   0  0  0  0  0  0  0  0  0  0  0  0
    0.2466   -2.2280    3.4830 O   0  0  0  0  0  0  0  0  0  0  0  0
   -0.1729   -0.8596    1.5398 C   0  0  0  0  0  0  0  0  0  0  0  0
   -1.4899   -1.0928    1.4548 C   0  0  0  0  0  0  0  0  0  0  0  0
   -2.3959   -0.5419    0.4423 C   0  0  0  0  0  0  0  0  0  0  0  0
   -2.7076    0.8190    0.4204 C   0  0  0  0  0  0  0  0  0  0  0  0
   -3.5828    1.3272   -0.5430 C   0  0  0  0  0  0  0  0  0  0  0  0
   -4.1601    0.4781   -1.4926 C   0  0  0  0  0  0  0  0  0  0  0  0
   -5.0289    0.8883   -2.4737 O   0  0  0  0  0  0  0  0  0  0  0  0
   -5.3480    2.2706   -2.5354 C   0  0  0  0  0  0  0  0  0  0  0  0
   -3.8548   -0.8983   -1.4709 C   0  0  0  0  0  0  0  0  0  0  0  0
   -4.4648   -1.6652   -2.4338 O   0  0  0  0  0  0  0  0  0  0  0  0
   -4.1609   -3.0520   -2.4641 C   0  0  0  0  0  0  0  0  0  0  0  0
   -2.9772   -1.3983   -0.5005 C   0  0  0  0  0  0  0  0  0  0  0  0
    0.8001    0.1194    0.4999 S   0  0  0  0  0  0  0  0  0  0  0  0
    3.7385    1.1306   -0.0195 C   0  0  0  0  0  0  0  0  0  0  0  0
    4.9703    1.5981   -0.2904 C   0  0  0  0  0  0  0  0  0  0  0  0
    7.5151    2.3538   -0.5626 H   0  0  0  0  0  0  0  0  0  0  0  0
    8.1901    1.4263    0.8822 H   0  0  0  0  0  0  0  0  0  0  0  0
    6.7368    0.0525    2.3018 H   0  0  0  0  0  0  0  0  0  0  0  0
    4.5455   -0.7987    2.8099 H   0  0  0  0  0  0  0  0  0  0  0  0
    2.6321   -1.4328    3.1048 H   0  0  0  0  0  0  0  0  0  0  0  0
   -1.9644   -1.7595    2.1735 H   0  0  0  0  0  0  0  0  0  0  0  0
   -2.2741    1.4969    1.1524 H   0  0  0  0  0  0  0  0  0  0  0  0
   -3.7936    2.3909   -0.5229 H   0  0  0  0  0  0  0  0  0  0  0  0
   -5.8572    2.5995   -1.6235 H   0  0  0  0  0  0  0  0  0  0  0  0
   -6.0382    2.4174   -3.3718 H   0  0  0  0  0  0  0  0  0  0  0  0
   -4.4559    2.8743   -2.7315 H   0  0  0  0  0  0  0  0  0  0  0  0
   -4.4850   -3.5474   -1.5430 H   0  0  0  0  0  0  0  0  0  0  0  0
   -4.7175   -3.4983   -3.2939 H   0  0  0  0  0  0  0  0  0  0  0  0
   -3.0951   -3.2197   -2.6513 H   0  0  0  0  0  0  0  0  0  0  0  0
   -2.7269   -2.4535   -0.4618 H   0  0  0  0  0  0  0  0  0  0  0  0
    2.9186    1.4293   -0.6640 H   0  0  0  0  0  0  0  0  0  0  0  0
    5.1313    2.2590   -1.1362 H   0  0  0  0  0  0  0  0  0  0  0  0
  1  2  2  0
  2  3  1  0
  3  4  2  0
  4  5  1  0
  5  6  2  3
  6  7  1  0
  7  8  1  0
  8  9  2  0
  8 10  1  0
 10 11  2  3
 11 12  1  0
 12 13  2  0
 13 14  1  0
 14 15  2  0
 15 16  1  0
 16 17  1  0
 15 18  1  0
 18 19  1  0
 19 20  1  0
 18 21  2  0
 10 22  1  0
  5 23  1  0
 23 24  2  0
 24  2  1  0
 22  6  1  0
 21 12  1  0
  1 25  1  0
  1 26  1  0
  3 27  1  0
  4 28  1  0
  7 29  1  0
 11 30  1  0
 13 31  1  0
 14 32  1  0
 17 33  1  0
 17 34  1  0
 17 35  1  0
 20 36  1  0
 20 37  1  0
 20 38  1  0
 21 39  1  0
 23 40  1  0
 24 41  1  0
M  END
$$$$
