
     RDKit          3D

 35 37  0  0  0  0  0  0  0  0999 V2000
   -1.6262    4.9780    1.0665 C   0  0  0  0  0  0  0  0  0  0  0  0
   -2.1775    3.9460    1.8749 O   0  0  0  0  0  0  0  0  0  0  0  0
   -1.5281    2.7428    1.8681 C   0  0  0  0  0  0  0  0  0  0  0  0
   -0.3864    2.4296    1.1314 C   0  0  0  0  0  0  0  0  0  0  0  0
    0.1780    1.1511    1.2172 C   0  0  0  0  0  0  0  0  0  0  0  0
   -0.3992    0.1692    2.0307 C   0  0  0  0  0  0  0  0  0  0  0  0
    0.1862   -1.1725    2.1544 C   0  0  0  0  0  0  0  0  0  0  0  0
    0.4494   -2.0405    1.1534 C   0  0  0  0  0  0  0  0  0  0  0  0
    1.0620   -3.2903    1.4980 C   0  0  0  0  0  0  0  0  0  0  0  0
    1.5680   -4.2894    1.8055 N   0  0  0  0  0  0  0  0  0  0  0  0
    0.1535   -1.8297   -0.2350 C   0  0  0  0  0  0  0  0  0  0  0  0
   -1.0892   -1.4935   -0.7331 C   0  0  0  0  0  0  0  0  0  0  0  0
   -0.9824   -1.3778   -2.0931 N   0  0  0  0  0  0  0  0  0  0  0  0
    0.3078   -1.6385   -2.4944 C   0  0  0  0  0  0  0  0  0  0  0  0
    0.8663   -1.6363   -3.7784 C   0  0  0  0  0  0  0  0  0  0  0  0
    2.2245   -1.9424   -3.8962 C   0  0  0  0  0  0  0  0  0  0  0  0
    2.9923   -2.2374   -2.7731 C   0  0  0  0  0  0  0  0  0  0  0  0
    2.4197   -2.2342   -1.4957 C   0  0  0  0  0  0  0  0  0  0  0  0
    1.0486   -1.9323   -1.3468 C   0  0  0  0  0  0  0  0  0  0  0  0
   -1.5346    0.4911    2.7790 C   0  0  0  0  0  0  0  0  0  0  0  0
   -2.0958    1.7682    2.6917 C   0  0  0  0  0  0  0  0  0  0  0  0
   -0.6132    5.2365    1.3922 H   0  0  0  0  0  0  0  0  0  0  0  0
   -1.6431    4.7010    0.0072 H   0  0  0  0  0  0  0  0  0  0  0  0
   -2.2518    5.8676    1.1876 H   0  0  0  0  0  0  0  0  0  0  0  0
    0.0934    3.1534    0.4813 H   0  0  0  0  0  0  0  0  0  0  0  0
    1.0726    0.9322    0.6375 H   0  0  0  0  0  0  0  0  0  0  0  0
    0.4219   -1.4515    3.1815 H   0  0  0  0  0  0  0  0  0  0  0  0
   -2.0378   -1.3213   -0.2409 H   0  0  0  0  0  0  0  0  0  0  0  0
   -1.7389   -1.1361   -2.7183 H   0  0  0  0  0  0  0  0  0  0  0  0
    0.2711   -1.4078   -4.6567 H   0  0  0  0  0  0  0  0  0  0  0  0
    2.6876   -1.9519   -4.8804 H   0  0  0  0  0  0  0  0  0  0  0  0
    4.0473   -2.4754   -2.8865 H   0  0  0  0  0  0  0  0  0  0  0  0
    3.0363   -2.4679   -0.6322 H   0  0  0  0  0  0  0  0  0  0  0  0
   -1.9988   -0.2462    3.4298 H   0  0  0  0  0  0  0  0  0  0  0  0
   -2.9835    2.0064    3.2729 H   0  0  0  0  0  0  0  0  0  0  0  0
  1  2  1  0
  2  3  1  0
  3  4  2  0
  4  5  1  0
  5  6  2  0
  6  7  1  0
  7  8  2  3
  8  9  1  0
  9 10  3  0
  8 11  1  0
 11 12  2  0
 12 13  1  0
 13 14  1  0
 14 15  2  0
 15 16  1  0
 16 17  2  0
 17 18  1  0
 18 19  2  0
  6 20  1  0
 20 21  2  0
 21  3  1  0
 19 11  1  0
 19 14  1  0
  1 22  1  0
  1 23  1  0
  1 24  1  0
  4 25  1  0
  5 26  1  0
  7 27  1  0
 12 28  1  0
 13 29  1  0
 15 30  1  0
 16 31  1  0
 17 32  1  0
 18 33  1  0
 20 34  1  0
 21 35  1  0
M  END
$$$$
