
     RDKit          3D

 36 37  0  0  0  0  0  0  0  0999 V2000
    7.6933    0.0691    0.4186 C   0  0  0  0  0  0  0  0  0  0  0  0
    6.3235   -0.5516    0.2994 C   0  0  0  0  0  0  0  0  0  0  0  0
    6.1941   -1.7622    0.1611 O   0  0  0  0  0  0  0  0  0  0  0  0
    5.3154    0.3954    0.3403 N   0  0  0  0  0  0  0  0  0  0  0  0
    3.9260    0.1740    0.2466 C   0  0  0  0  0  0  0  0  0  0  0  0
    3.0934    1.2996    0.3165 C   0  0  0  0  0  0  0  0  0  0  0  0
    1.7017    1.1703    0.2344 C   0  0  0  0  0  0  0  0  0  0  0  0
    1.1251   -0.0958    0.0868 C   0  0  0  0  0  0  0  0  0  0  0  0
   -0.3506   -0.2842   -0.0110 C   0  0  0  0  0  0  0  0  0  0  0  0
   -0.7874   -1.2237   -0.6678 O   0  0  0  0  0  0  0  0  0  0  0  0
   -1.1058    0.6383    0.7079 N   0  0  0  0  0  0  0  0  0  0  0  0
   -2.4666    0.5857    0.8756 N   0  0  0  0  0  0  0  0  0  0  0  0
   -3.1851    0.1624   -0.1164 C   0  0  0  0  0  0  0  0  0  0  0  0
   -4.6528    0.0265   -0.0064 C   0  0  0  0  0  0  0  0  0  0  0  0
   -5.3204    0.3570    1.1792 C   0  0  0  0  0  0  0  0  0  0  0  0
   -6.7076    0.2205    1.2540 C   0  0  0  0  0  0  0  0  0  0  0  0
   -7.4119   -0.2443    0.1480 C   0  0  0  0  0  0  0  0  0  0  0  0
   -8.7428   -0.3742    0.2214 F   0  0  0  0  0  0  0  0  0  0  0  0
   -6.7564   -0.5772   -1.0336 C   0  0  0  0  0  0  0  0  0  0  0  0
   -5.3690   -0.4424   -1.1143 C   0  0  0  0  0  0  0  0  0  0  0  0
    1.9527   -1.2190   -0.0014 C   0  0  0  0  0  0  0  0  0  0  0  0
    3.3441   -1.0844    0.0843 C   0  0  0  0  0  0  0  0  0  0  0  0
    8.4048   -0.6847    0.7682 H   0  0  0  0  0  0  0  0  0  0  0  0
    7.6880    0.8906    1.1409 H   0  0  0  0  0  0  0  0  0  0  0  0
    8.0095    0.4402   -0.5597 H   0  0  0  0  0  0  0  0  0  0  0  0
    5.6057    1.3593    0.4451 H   0  0  0  0  0  0  0  0  0  0  0  0
    3.5151    2.2958    0.4271 H   0  0  0  0  0  0  0  0  0  0  0  0
    1.0897    2.0681    0.2589 H   0  0  0  0  0  0  0  0  0  0  0  0
   -0.6388    1.1391    1.4574 H   0  0  0  0  0  0  0  0  0  0  0  0
   -2.7548   -0.0902   -1.1006 H   0  0  0  0  0  0  0  0  0  0  0  0
   -4.7668    0.7173    2.0430 H   0  0  0  0  0  0  0  0  0  0  0  0
   -7.2409    0.4713    2.1654 H   0  0  0  0  0  0  0  0  0  0  0  0
   -7.3293   -0.9408   -1.8809 H   0  0  0  0  0  0  0  0  0  0  0  0
   -4.8579   -0.7083   -2.0364 H   0  0  0  0  0  0  0  0  0  0  0  0
    1.5205   -2.2095   -0.1349 H   0  0  0  0  0  0  0  0  0  0  0  0
    3.9425   -1.9880    0.0151 H   0  0  0  0  0  0  0  0  0  0  0  0
  1  2  1  0
  2  3  2  0
  2  4  1  0
  4  5  1  0
  5  6  2  0
  6  7  1  0
  7  8  2  0
  8  9  1  0
  9 10  2  0
  9 11  1  0
 11 12  1  0
 12 13  2  3
 13 14  1  0
 14 15  2  0
 15 16  1  0
 16 17  2  0
 17 18  1  0
 17 19  1  0
 19 20  2  0
  8 21  1  0
 21 22  2  0
 22  5  1  0
 20 14  1  0
  1 23  1  0
  1 24  1  0
  1 25  1  0
  4 26  1  0
  6 27  1  0
  7 28  1  0
 11 29  1  0
 13 30  1  0
 15 31  1  0
 16 32  1  0
 19 33  1  0
 20 34  1  0
 21 35  1  0
 22 36  1  0
M  END
$$$$
