
     RDKit          3D

 40 42  0  0  0  0  0  0  0  0999 V2000
   -6.0609   -1.2621    1.5391 C   0  0  0  0  0  0  0  0  0  0  0  0
   -5.4300   -0.1572    0.6641 C   0  0  0  0  0  0  0  0  0  0  0  0
   -5.8230    1.2057    1.2629 C   0  0  0  0  0  0  0  0  0  0  0  0
   -6.0109   -0.2879   -0.7559 C   0  0  0  0  0  0  0  0  0  0  0  0
   -3.9167   -0.3160    0.6445 C   0  0  0  0  0  0  0  0  0  0  0  0
   -3.2489   -1.2444    1.3039 N   0  0  0  0  0  0  0  0  0  0  0  0
   -1.8870   -1.1564    1.1059 N   0  0  0  0  0  0  0  0  0  0  0  0
   -1.5642   -0.1648    0.3076 C   0  0  0  0  0  0  0  0  0  0  0  0
   -0.2652    0.1082   -0.0282 N   0  0  0  0  0  0  0  0  0  0  0  0
    0.1992    1.1118   -0.8453 C   0  0  0  0  0  0  0  0  0  0  0  0
   -0.4704    1.9582   -1.4305 O   0  0  0  0  0  0  0  0  0  0  0  0
    1.7247    1.1009   -0.9891 C   0  0  0  0  0  0  0  0  0  0  0  0
    2.3067    0.0491   -0.2215 O   0  0  0  0  0  0  0  0  0  0  0  0
    3.6700   -0.0682   -0.2669 C   0  0  0  0  0  0  0  0  0  0  0  0
    4.1885   -1.1207    0.5158 C   0  0  0  0  0  0  0  0  0  0  0  0
    5.5634   -1.3702    0.5729 C   0  0  0  0  0  0  0  0  0  0  0  0
    6.3888   -0.5510   -0.1623 C   0  0  0  0  0  0  0  0  0  0  0  0
    5.8886    0.4759   -0.9273 C   0  0  0  0  0  0  0  0  0  0  0  0
    4.5358    0.7455   -1.0025 C   0  0  0  0  0  0  0  0  0  0  0  0
    6.8684    1.1638   -1.5744 O   0  0  0  0  0  0  0  0  0  0  0  0
    8.0417    0.4529   -1.1255 C   0  0  0  0  0  0  0  0  0  0  0  0
    7.7431   -0.6387   -0.2306 O   0  0  0  0  0  0  0  0  0  0  0  0
   -2.8901    0.7337   -0.2637 S   0  0  0  0  0  0  0  0  0  0  0  0
   -5.6965   -1.2119    2.5722 H   0  0  0  0  0  0  0  0  0  0  0  0
   -5.8240   -2.2610    1.1535 H   0  0  0  0  0  0  0  0  0  0  0  0
   -7.1527   -1.1699    1.5694 H   0  0  0  0  0  0  0  0  0  0  0  0
   -6.9120    1.3027    1.3423 H   0  0  0  0  0  0  0  0  0  0  0  0
   -5.4677    2.0406    0.6484 H   0  0  0  0  0  0  0  0  0  0  0  0
   -5.4022    1.3342    2.2674 H   0  0  0  0  0  0  0  0  0  0  0  0
   -5.7199   -1.2387   -1.2183 H   0  0  0  0  0  0  0  0  0  0  0  0
   -5.6672    0.5172   -1.4149 H   0  0  0  0  0  0  0  0  0  0  0  0
   -7.1062   -0.2459   -0.7396 H   0  0  0  0  0  0  0  0  0  0  0  0
    0.4186   -0.5147    0.3874 H   0  0  0  0  0  0  0  0  0  0  0  0
    2.0876    2.0727   -0.6345 H   0  0  0  0  0  0  0  0  0  0  0  0
    1.9450    0.9588   -2.0534 H   0  0  0  0  0  0  0  0  0  0  0  0
    3.5104   -1.7517    1.0866 H   0  0  0  0  0  0  0  0  0  0  0  0
    5.9650   -2.1784    1.1737 H   0  0  0  0  0  0  0  0  0  0  0  0
    4.2001    1.5669   -1.6222 H   0  0  0  0  0  0  0  0  0  0  0  0
    8.5668    0.0547   -2.0015 H   0  0  0  0  0  0  0  0  0  0  0  0
    8.7031    1.1586   -0.6093 H   0  0  0  0  0  0  0  0  0  0  0  0
  1  2  1  0
  2  3  1  0
  2  4  1  0
  2  5  1  0
  5  6  2  0
  6  7  1  0
  7  8  2  0
  8  9  1  0
  9 10  1  0
 10 11  2  0
 10 12  1  0
 12 13  1  0
 13 14  1  0
 14 15  2  0
 15 16  1  0
 16 17  2  0
 17 18  1  0
 18 19  2  0
 18 20  1  0
 20 21  1  0
 21 22  1  0
  8 23  1  0
 23  5  1  0
 19 14  1  0
 22 17  1  0
  1 24  1  0
  1 25  1  0
  1 26  1  0
  3 27  1  0
  3 28  1  0
  3 29  1  0
  4 30  1  0
  4 31  1  0
  4 32  1  0
  9 33  1  0
 12 34  1  0
 12 35  1  0
 15 36  1  0
 16 37  1  0
 19 38  1  0
 21 39  1  0
 21 40  1  0
M  END
$$$$
