
     RDKit          3D

 32 34  0  0  0  0  0  0  0  0999 V2000
   -0.6052    0.3769    1.6682 O   0  0  0  0  0  0  0  0  0  0  0  0
   -0.4166    0.1194    0.4899 C   0  0  0  0  0  0  0  0  0  0  0  0
   -1.5034   -0.2236   -0.4892 C   0  0  0  0  0  0  0  0  0  0  0  0
   -2.9482   -0.2602   -0.2582 C   0  0  0  0  0  0  0  0  0  0  0  0
   -3.7783   -1.0910   -1.0290 C   0  0  0  0  0  0  0  0  0  0  0  0
   -5.1592   -1.1297   -0.8129 C   0  0  0  0  0  0  0  0  0  0  0  0
   -5.7320   -0.3404    0.1800 C   0  0  0  0  0  0  0  0  0  0  0  0
   -4.9246    0.4840    0.9582 C   0  0  0  0  0  0  0  0  0  0  0  0
   -3.5437    0.5220    0.7413 C   0  0  0  0  0  0  0  0  0  0  0  0
   -0.8452   -0.4175   -1.6422 C   0  0  0  0  0  0  0  0  0  0  0  0
    0.5232   -0.2981   -1.5549 N   0  0  0  0  0  0  0  0  0  0  0  0
    0.7880    0.0747   -0.2279 N   0  0  0  0  0  0  0  0  0  0  0  0
    2.1160    0.2290    0.2276 C   0  0  0  0  0  0  0  0  0  0  0  0
    2.3930    0.6240    1.5449 C   0  0  0  0  0  0  0  0  0  0  0  0
    3.7087    0.7802    1.9982 C   0  0  0  0  0  0  0  0  0  0  0  0
    4.7779    0.5433    1.1395 C   0  0  0  0  0  0  0  0  0  0  0  0
    4.5169    0.1468   -0.1753 C   0  0  0  0  0  0  0  0  0  0  0  0
    5.6350   -0.1049   -1.0919 N   0  0  0  0  0  4  0  0  0  0  0  0
    6.7806   -0.1011   -0.6198 O   0  0  0  0  0  0  0  0  0  0  0  0
    5.3673   -0.2997   -2.2864 O   0  0  0  0  0  1  0  0  0  0  0  0
    3.1988   -0.0119   -0.6325 C   0  0  0  0  0  0  0  0  0  0  0  0
   -3.3611   -1.7332   -1.8013 H   0  0  0  0  0  0  0  0  0  0  0  0
   -5.7853   -1.7817   -1.4168 H   0  0  0  0  0  0  0  0  0  0  0  0
   -6.8047   -0.3716    0.3517 H   0  0  0  0  0  0  0  0  0  0  0  0
   -5.3654    1.0982    1.7394 H   0  0  0  0  0  0  0  0  0  0  0  0
   -2.9428    1.1779    1.3686 H   0  0  0  0  0  0  0  0  0  0  0  0
   -1.2748   -0.6182   -2.6150 H   0  0  0  0  0  0  0  0  0  0  0  0
    0.8846    0.3699   -2.2391 H   0  0  0  0  0  0  0  0  0  0  0  0
    1.5920    0.8237    2.2531 H   0  0  0  0  0  0  0  0  0  0  0  0
    3.8909    1.0874    3.0262 H   0  0  0  0  0  0  0  0  0  0  0  0
    5.7946    0.6690    1.5059 H   0  0  0  0  0  0  0  0  0  0  0  0
    3.0232   -0.3436   -1.6526 H   0  0  0  0  0  0  0  0  0  0  0  0
  1  2  2  0
  2  3  1  0
  3  4  1  0
  4  5  2  0
  5  6  1  0
  6  7  2  0
  7  8  1  0
  8  9  2  0
  3 10  2  0
 10 11  1  0
 11 12  1  0
 12 13  1  0
 13 14  2  0
 14 15  1  0
 15 16  2  0
 16 17  1  0
 17 18  1  0
 18 19  2  0
 18 20  1  0
 17 21  2  0
 12  2  1  0
 21 13  1  0
  9  4  1  0
  5 22  1  0
  6 23  1  0
  7 24  1  0
  8 25  1  0
  9 26  1  0
 10 27  1  0
 11 28  1  0
 14 29  1  0
 15 30  1  0
 16 31  1  0
 21 32  1  0
M  CHG  2  18   1  20  -1
M  END
$$$$
