
     RDKit          3D

 38 38  0  0  0  0  0  0  0  0999 V2000
    5.0915   -0.0413   -3.5631 C   0  0  0  0  0  0  0  0  0  0  0  0
    4.8959   -1.2519   -2.6696 C   0  0  0  0  0  0  0  0  0  0  0  0
    4.1365   -0.8918   -1.5057 O   0  0  0  0  0  0  0  0  0  0  0  0
    2.7824   -0.9195   -1.6506 C   0  0  0  0  0  0  0  0  0  0  0  0
    2.1845   -1.2735   -2.6580 O   0  0  0  0  0  0  0  0  0  0  0  0
    2.1106   -0.5200   -0.3700 C   0  0  0  0  0  0  0  0  0  0  0  0
    1.0933    0.5701   -0.5784 C   0  0  0  0  0  0  0  0  0  0  0  0
    1.3064    1.5289   -1.3180 O   0  0  0  0  0  0  0  0  0  0  0  0
   -0.2009    0.5059    0.1570 C   0  0  0  0  0  0  0  0  0  0  0  0
   -1.3117    1.1437   -0.4161 C   0  0  0  0  0  0  0  0  0  0  0  0
   -2.5493    1.1164    0.2263 C   0  0  0  0  0  0  0  0  0  0  0  0
   -3.6924    1.7027   -0.2509 O   0  0  0  0  0  0  0  0  0  0  0  0
   -3.5690    2.5420   -1.3920 C   0  0  0  0  0  0  0  0  0  0  0  0
   -2.6615    0.4299    1.4474 C   0  0  0  0  0  0  0  0  0  0  0  0
   -3.8671    0.4285    2.1147 O   0  0  0  0  0  0  0  0  0  0  0  0
   -4.6514   -0.6869    1.6957 C   0  0  0  0  0  0  0  0  0  0  0  0
   -1.5472   -0.1815    2.0501 C   0  0  0  0  0  0  0  0  0  0  0  0
   -1.7723   -0.7958    3.2548 O   0  0  0  0  0  0  0  0  0  0  0  0
   -0.6405   -1.2190    4.0020 C   0  0  0  0  0  0  0  0  0  0  0  0
   -0.3151   -0.1438    1.3935 C   0  0  0  0  0  0  0  0  0  0  0  0
    4.1317    0.3360   -3.9297 H   0  0  0  0  0  0  0  0  0  0  0  0
    5.5629    0.7752   -3.0064 H   0  0  0  0  0  0  0  0  0  0  0  0
    5.7197   -0.2913   -4.4228 H   0  0  0  0  0  0  0  0  0  0  0  0
    5.8688   -1.6106   -2.3178 H   0  0  0  0  0  0  0  0  0  0  0  0
    4.4250   -2.0799   -3.2118 H   0  0  0  0  0  0  0  0  0  0  0  0
    1.6576   -1.4299    0.0346 H   0  0  0  0  0  0  0  0  0  0  0  0
    2.8468   -0.1534    0.3537 H   0  0  0  0  0  0  0  0  0  0  0  0
   -1.1819    1.6493   -1.3691 H   0  0  0  0  0  0  0  0  0  0  0  0
   -4.5484    2.9907   -1.5839 H   0  0  0  0  0  0  0  0  0  0  0  0
   -2.8591    3.3564   -1.2123 H   0  0  0  0  0  0  0  0  0  0  0  0
   -3.2906    1.9611   -2.2772 H   0  0  0  0  0  0  0  0  0  0  0  0
   -5.5899   -0.6656    2.2577 H   0  0  0  0  0  0  0  0  0  0  0  0
   -4.8960   -0.6264    0.6296 H   0  0  0  0  0  0  0  0  0  0  0  0
   -4.1476   -1.6345    1.9159 H   0  0  0  0  0  0  0  0  0  0  0  0
   -0.9957   -1.5809    4.9716 H   0  0  0  0  0  0  0  0  0  0  0  0
    0.0478   -0.3878    4.1878 H   0  0  0  0  0  0  0  0  0  0  0  0
   -0.1315   -2.0498    3.5031 H   0  0  0  0  0  0  0  0  0  0  0  0
    0.5579   -0.6017    1.8426 H   0  0  0  0  0  0  0  0  0  0  0  0
  1  2  1  0
  2  3  1  0
  3  4  1  0
  4  5  2  0
  4  6  1  0
  6  7  1  0
  7  8  2  0
  7  9  1  0
  9 10  2  0
 10 11  1  0
 11 12  1  0
 12 13  1  0
 11 14  2  0
 14 15  1  0
 15 16  1  0
 14 17  1  0
 17 18  1  0
 18 19  1  0
 17 20  2  0
 20  9  1  0
  1 21  1  0
  1 22  1  0
  1 23  1  0
  2 24  1  0
  2 25  1  0
  6 26  1  0
  6 27  1  0
 10 28  1  0
 13 29  1  0
 13 30  1  0
 13 31  1  0
 16 32  1  0
 16 33  1  0
 16 34  1  0
 19 35  1  0
 19 36  1  0
 19 37  1  0
 20 38  1  0
M  END
$$$$
