
     RDKit          3D

 57 59  0  0  0  0  0  0  0  0999 V2000
   -5.8217   -1.7317   -2.8555 C   0  0  0  0  0  0  0  0  0  0  0  0
   -4.6764   -0.9779   -2.1876 C   0  0  0  0  0  0  0  0  0  0  0  0
   -4.0738   -1.7024   -1.0681 N   0  0  0  0  0  0  0  0  0  0  0  0
   -4.9721   -2.0463    0.0377 C   0  0  0  0  0  0  0  0  0  0  0  0
   -5.5939   -0.8884    0.8073 C   0  0  0  0  0  0  0  0  0  0  0  0
   -2.7727   -1.1640   -0.6400 C   0  0  0  0  0  0  0  0  0  0  0  0
   -2.6214    0.3614   -0.5012 C   0  0  0  0  0  0  0  0  0  0  0  0
   -1.3128    0.6333    0.0129 O   0  0  0  0  0  0  0  0  0  0  0  0
   -0.9823    1.9364    0.2835 C   0  0  0  0  0  0  0  0  0  0  0  0
   -1.7247    3.0338    0.0055 C   0  0  0  0  0  0  0  0  0  0  0  0
   -1.1844    4.3760    0.4136 C   0  0  2  0  0  0  0  0  0  0  0  0
   -1.7110    5.4753   -0.3141 O   0  0  0  0  0  0  0  0  0  0  0  0
   -0.8679    6.5341   -0.0550 C   0  0  0  0  0  0  0  0  0  0  0  0
   -1.1318    7.6907   -0.3411 O   0  0  0  0  0  0  0  0  0  0  0  0
    0.6823    6.0713    0.6872 S   0  0  0  0  0  0  0  0  0  0  0  0
    0.3322    4.3942    0.1970 C   0  0  1  0  0  0  0  0  0  0  0  0
    0.9817    3.2725    0.9307 C   0  0  0  0  0  0  0  0  0  0  0  0
    0.3259    2.0884    0.9448 C   0  0  0  0  0  0  0  0  0  0  0  0
    0.9400    0.9420    1.6744 C   0  0  0  0  0  0  0  0  0  0  0  0
    0.4363    0.4874    2.6945 O   0  0  0  0  0  0  0  0  0  0  0  0
    2.2017    0.4212    1.0831 C   0  0  0  0  0  0  0  0  0  0  0  0
    2.8490   -0.5906    1.6800 C   0  0  0  0  0  0  0  0  0  0  0  0
    4.0950   -1.1720    1.1669 C   0  0  0  0  0  0  0  0  0  0  0  0
    5.1296   -0.3840    0.6520 C   0  0  0  0  0  0  0  0  0  0  0  0
    6.3164   -0.9764    0.2080 C   0  0  0  0  0  0  0  0  0  0  0  0
    6.4943   -2.3593    0.2784 C   0  0  0  0  0  0  0  0  0  0  0  0
    7.7025   -2.8051   -0.1835 O   0  0  0  0  0  0  0  0  0  0  0  0
    7.9342   -4.2071   -0.1263 C   0  0  0  0  0  0  0  0  0  0  0  0
    5.4709   -3.1490    0.7999 C   0  0  0  0  0  0  0  0  0  0  0  0
    4.2820   -2.5568    1.2473 C   0  0  0  0  0  0  0  0  0  0  0  0
   -6.1334   -1.2065   -3.7646 H   0  0  0  0  0  0  0  0  0  0  0  0
   -6.6976   -1.8022   -2.2036 H   0  0  0  0  0  0  0  0  0  0  0  0
   -5.5154   -2.7437   -3.1416 H   0  0  0  0  0  0  0  0  0  0  0  0
   -5.0286    0.0148   -1.8834 H   0  0  0  0  0  0  0  0  0  0  0  0
   -3.9114   -0.8201   -2.9583 H   0  0  0  0  0  0  0  0  0  0  0  0
   -4.4353   -2.6880    0.7484 H   0  0  0  0  0  0  0  0  0  0  0  0
   -5.7791   -2.6857   -0.3396 H   0  0  0  0  0  0  0  0  0  0  0  0
   -6.1213   -0.1926    0.1489 H   0  0  0  0  0  0  0  0  0  0  0  0
   -6.3251   -1.2752    1.5256 H   0  0  0  0  0  0  0  0  0  0  0  0
   -4.8435   -0.3366    1.3789 H   0  0  0  0  0  0  0  0  0  0  0  0
   -2.0247   -1.4979   -1.3726 H   0  0  0  0  0  0  0  0  0  0  0  0
   -2.4495   -1.6456    0.2928 H   0  0  0  0  0  0  0  0  0  0  0  0
   -3.3720    0.7607    0.1858 H   0  0  0  0  0  0  0  0  0  0  0  0
   -2.7274    0.8388   -1.4816 H   0  0  0  0  0  0  0  0  0  0  0  0
   -2.7045    2.9938   -0.4530 H   0  0  0  0  0  0  0  0  0  0  0  0
   -1.4738    4.5117    1.4692 H   0  0  0  0  0  0  0  0  0  0  0  0
    0.5893    4.3203   -0.8686 H   0  0  0  0  0  0  0  0  0  0  0  0
    1.9446    3.4110    1.4117 H   0  0  0  0  0  0  0  0  0  0  0  0
    2.5540    0.8728    0.1636 H   0  0  0  0  0  0  0  0  0  0  0  0
    2.4466   -1.0451    2.5844 H   0  0  0  0  0  0  0  0  0  0  0  0
    5.0378    0.6977    0.6039 H   0  0  0  0  0  0  0  0  0  0  0  0
    7.1140   -0.3522   -0.1874 H   0  0  0  0  0  0  0  0  0  0  0  0
    7.9073   -4.5708    0.9062 H   0  0  0  0  0  0  0  0  0  0  0  0
    7.2225   -4.7505   -0.7566 H   0  0  0  0  0  0  0  0  0  0  0  0
    8.9380   -4.3959   -0.5191 H   0  0  0  0  0  0  0  0  0  0  0  0
    5.5628   -4.2270    0.8788 H   0  0  0  0  0  0  0  0  0  0  0  0
    3.4990   -3.1933    1.6547 H   0  0  0  0  0  0  0  0  0  0  0  0
  1  2  1  0
  2  3  1  0
  3  4  1  0
  4  5  1  0
  3  6  1  0
  6  7  1  0
  7  8  1  0
  8  9  1  0
  9 10  2  0
 10 11  1  0
 11 12  1  0
 12 13  1  0
 13 14  2  0
 13 15  1  0
 15 16  1  0
 16 17  1  0
 17 18  2  0
 18 19  1  0
 19 20  2  0
 19 21  1  0
 21 22  2  0
 22 23  1  0
 23 24  2  0
 24 25  1  0
 25 26  2  0
 26 27  1  0
 27 28  1  0
 26 29  1  0
 29 30  2  0
 18  9  1  0
 30 23  1  0
 16 11  1  0
  1 31  1  0
  1 32  1  0
  1 33  1  0
  2 34  1  0
  2 35  1  0
  4 36  1  0
  4 37  1  0
  5 38  1  0
  5 39  1  0
  5 40  1  0
  6 41  1  0
  6 42  1  0
  7 43  1  0
  7 44  1  0
 10 45  1  0
 11 46  1  1
 16 47  1  6
 17 48  1  0
 21 49  1  0
 22 50  1  0
 24 51  1  0
 25 52  1  0
 28 53  1  0
 28 54  1  0
 28 55  1  0
 29 56  1  0
 30 57  1  0
M  END
$$$$
