
     RDKit          3D

 63 67  0  0  0  0  0  0  0  0999 V2000
    8.6228   -0.3256   -3.0716 C   0  0  0  0  0  0  0  0  0  0  0  0
    7.3015    0.3655   -3.3532 C   0  0  0  0  0  0  0  0  0  0  0  0
    6.4255    0.1233   -2.2445 O   0  0  0  0  0  0  0  0  0  0  0  0
    5.2112    0.7354   -2.3443 C   0  0  0  0  0  0  0  0  0  0  0  0
    4.8688    1.4364   -3.2861 O   0  0  0  0  0  0  0  0  0  0  0  0
    4.3502    0.4643   -1.1991 C   0  0  0  0  0  0  0  0  0  0  0  0
    3.0290    0.9588   -0.9809 C   0  0  0  0  0  0  0  0  0  0  0  0
    2.5671    0.4496    0.2181 C   0  0  0  0  0  0  0  0  0  0  0  0
    1.3097    0.6279    0.9265 C   0  0  0  0  0  0  0  0  0  0  0  0
    0.2433    1.3511    0.3916 N   0  0  0  0  0  0  0  0  0  0  0  0
   -0.3309    0.8703   -0.8867 C   0  0  0  0  0  0  0  0  0  0  0  0
   -1.7901    1.3397   -1.0931 C   0  0  0  0  0  0  0  0  0  0  0  0
   -2.6960    0.9017   -0.0121 N   0  0  0  0  0  0  0  0  0  0  0  0
   -3.9995    1.5818   -0.0995 C   0  0  0  0  0  0  0  0  0  0  0  0
   -5.1198    0.8479    0.6637 C   0  0  0  0  0  0  0  0  0  0  0  0
   -5.6198   -0.3998   -0.0417 C   0  0  0  0  0  0  0  0  0  0  0  0
   -4.9121   -1.6013    0.1473 C   0  0  0  0  0  0  0  0  0  0  0  0
   -5.3249   -2.7832   -0.4662 C   0  0  0  0  0  0  0  0  0  0  0  0
   -6.4469   -2.7846   -1.2862 C   0  0  0  0  0  0  0  0  0  0  0  0
   -7.1546   -1.6006   -1.4962 C   0  0  0  0  0  0  0  0  0  0  0  0
   -6.7536   -0.3950   -0.8872 C   0  0  0  0  0  0  0  0  0  0  0  0
   -7.5644    0.8558   -1.1421 C   0  0  0  0  0  0  0  0  0  0  0  0
   -8.2510    1.2695   -0.0406 F   0  0  0  0  0  0  0  0  0  0  0  0
   -6.8028    1.9185   -1.5260 F   0  0  0  0  0  0  0  0  0  0  0  0
   -8.5006    0.7103   -2.1242 F   0  0  0  0  0  0  0  0  0  0  0  0
   -2.0504    1.0425    1.3161 C   0  0  0  0  0  0  0  0  0  0  0  0
   -0.7661    1.8969    1.3196 C   0  0  0  0  0  0  0  0  0  0  0  0
    1.1839    0.0940    2.1160 N   0  0  0  0  0  0  0  0  0  0  0  0
    2.2308   -0.6584    2.6829 C   0  0  0  0  0  0  0  0  0  0  0  0
    2.0419   -1.2035    3.9543 C   0  0  0  0  0  0  0  0  0  0  0  0
    3.0495   -1.9532    4.5656 C   0  0  0  0  0  0  0  0  0  0  0  0
    4.2595   -2.1709    3.9051 C   0  0  0  0  0  0  0  0  0  0  0  0
    4.4693   -1.6387    2.6324 C   0  0  0  0  0  0  0  0  0  0  0  0
    3.4524   -0.8882    2.0344 C   0  0  0  0  0  0  0  0  0  0  0  0
    3.5853   -0.2987    0.7667 N   0  0  0  0  0  0  0  0  0  0  0  0
    4.6540   -0.3189   -0.0963 C   0  0  0  0  0  0  0  0  0  0  0  0
    9.3244   -0.1820   -3.8977 H   0  0  0  0  0  0  0  0  0  0  0  0
    8.4706   -1.3994   -2.9190 H   0  0  0  0  0  0  0  0  0  0  0  0
    9.0733    0.0646   -2.1525 H   0  0  0  0  0  0  0  0  0  0  0  0
    7.4630    1.4432   -3.4722 H   0  0  0  0  0  0  0  0  0  0  0  0
    6.8590   -0.0455   -4.2672 H   0  0  0  0  0  0  0  0  0  0  0  0
    2.4890    1.6278   -1.6401 H   0  0  0  0  0  0  0  0  0  0  0  0
   -0.3070   -0.2291   -0.9121 H   0  0  0  0  0  0  0  0  0  0  0  0
    0.2721    1.2375   -1.7255 H   0  0  0  0  0  0  0  0  0  0  0  0
   -2.1524    0.9343   -2.0452 H   0  0  0  0  0  0  0  0  0  0  0  0
   -1.7969    2.4360   -1.1826 H   0  0  0  0  0  0  0  0  0  0  0  0
   -3.9053    2.6079    0.2817 H   0  0  0  0  0  0  0  0  0  0  0  0
   -4.3045    1.6673   -1.1503 H   0  0  0  0  0  0  0  0  0  0  0  0
   -5.9517    1.5411    0.8209 H   0  0  0  0  0  0  0  0  0  0  0  0
   -4.7989    0.5773    1.6770 H   0  0  0  0  0  0  0  0  0  0  0  0
   -4.0246   -1.6175    0.7802 H   0  0  0  0  0  0  0  0  0  0  0  0
   -4.7677   -3.7031   -0.3023 H   0  0  0  0  0  0  0  0  0  0  0  0
   -6.7741   -3.7055   -1.7622 H   0  0  0  0  0  0  0  0  0  0  0  0
   -8.0313   -1.6229   -2.1436 H   0  0  0  0  0  0  0  0  0  0  0  0
   -2.7413    1.4545    2.0608 H   0  0  0  0  0  0  0  0  0  0  0  0
   -1.8001    0.0300    1.6592 H   0  0  0  0  0  0  0  0  0  0  0  0
   -0.9993    2.9243    1.0129 H   0  0  0  0  0  0  0  0  0  0  0  0
   -0.3785    1.9791    2.3430 H   0  0  0  0  0  0  0  0  0  0  0  0
    1.1017   -1.0367    4.4723 H   0  0  0  0  0  0  0  0  0  0  0  0
    2.8864   -2.3657    5.5582 H   0  0  0  0  0  0  0  0  0  0  0  0
    5.0424   -2.7527    4.3855 H   0  0  0  0  0  0  0  0  0  0  0  0
    5.4203   -1.8173    2.1426 H   0  0  0  0  0  0  0  0  0  0  0  0
    5.5591   -0.8682    0.1322 H   0  0  0  0  0  0  0  0  0  0  0  0
  1  2  1  0
  2  3  1  0
  3  4  1  0
  4  5  2  0
  4  6  1  0
  6  7  1  0
  7  8  2  0
  8  9  1  0
  9 10  1  0
 10 11  1  0
 11 12  1  0
 12 13  1  0
 13 14  1  0
 14 15  1  0
 15 16  1  0
 16 17  2  0
 17 18  1  0
 18 19  2  0
 19 20  1  0
 20 21  2  0
 21 22  1  0
 22 23  1  0
 22 24  1  0
 22 25  1  0
 13 26  1  0
 26 27  1  0
  9 28  2  0
 28 29  1  0
 29 30  2  0
 30 31  1  0
 31 32  2  0
 32 33  1  0
 33 34  2  0
 34 35  1  0
 35 36  1  0
 36  6  2  0
 35  8  1  0
 27 10  1  0
 34 29  1  0
 21 16  1  0
  1 37  1  0
  1 38  1  0
  1 39  1  0
  2 40  1  0
  2 41  1  0
  7 42  1  0
 11 43  1  0
 11 44  1  0
 12 45  1  0
 12 46  1  0
 14 47  1  0
 14 48  1  0
 15 49  1  0
 15 50  1  0
 17 51  1  0
 18 52  1  0
 19 53  1  0
 20 54  1  0
 26 55  1  0
 26 56  1  0
 27 57  1  0
 27 58  1  0
 30 59  1  0
 31 60  1  0
 32 61  1  0
 33 62  1  0
 36 63  1  0
M  END
$$$$
