
     RDKit          3D

 57 60  0  0  0  0  0  0  0  0999 V2000
   -7.9209    2.4717    2.2167 C   0  0  0  0  0  0  0  0  0  0  0  0
   -7.3773    1.1214    2.6571 C   0  0  0  0  0  0  0  0  0  0  0  0
   -6.2236    0.6734    1.7976 C   0  0  0  0  0  0  0  0  0  0  0  0
   -4.9118    1.0276    2.1245 C   0  0  0  0  0  0  0  0  0  0  0  0
   -3.8416    0.6237    1.3162 C   0  0  0  0  0  0  0  0  0  0  0  0
   -4.0465   -0.1450    0.1562 C   0  0  0  0  0  0  0  0  0  0  0  0
   -2.9308   -0.5864   -0.7088 C   0  0  0  0  0  0  0  0  0  0  0  0
   -1.6557   -0.8369   -0.2315 C   0  0  0  0  0  0  0  0  0  0  0  0
   -0.6750   -1.2511   -1.1360 C   0  0  0  0  0  0  0  0  0  0  0  0
    0.6838   -1.4975   -0.6004 C   0  0  0  0  0  0  0  0  0  0  0  0
    1.1527   -2.6235   -0.6844 O   0  0  0  0  0  0  0  0  0  0  0  0
    1.2741   -0.3703   -0.0606 N   0  0  0  0  0  0  0  0  0  0  0  0
    2.5369   -0.2820    0.5595 C   0  0  0  0  0  0  0  0  0  0  0  0
    3.3687   -1.3808    0.7927 C   0  0  0  0  0  0  0  0  0  0  0  0
    4.6096   -1.2141    1.4178 C   0  0  0  0  0  0  0  0  0  0  0  0
    5.0247    0.0618    1.8032 C   0  0  0  0  0  0  0  0  0  0  0  0
    6.5837    0.2693    2.6229 S   0  0  0  0  0  6  0  0  0  0  0  0
    6.8994   -0.9826    3.2804 O   0  0  0  0  0  0  0  0  0  0  0  0
    6.5729    1.5101    3.3635 O   0  0  0  0  0  0  0  0  0  0  0  0
    7.6640    0.3852    1.3673 N   0  0  0  0  0  0  0  0  0  0  0  0
    7.7032    1.4201    0.4274 C   0  0  0  0  0  0  0  0  0  0  0  0
    8.8343    1.3082   -0.5557 C   0  0  0  0  0  0  0  0  0  0  0  0
    6.8838    2.3253    0.3838 O   0  0  0  0  0  0  0  0  0  0  0  0
    4.1966    1.1649    1.5959 C   0  0  0  0  0  0  0  0  0  0  0  0
    2.9590    0.9902    0.9706 C   0  0  0  0  0  0  0  0  0  0  0  0
   -0.9668   -1.4338   -2.5024 C   0  0  0  0  0  0  0  0  0  0  0  0
   -0.0349   -1.8567   -3.4838 C   0  0  0  0  0  0  0  0  0  0  0  0
   -0.4126   -2.0002   -4.8172 C   0  0  0  0  0  0  0  0  0  0  0  0
   -1.7199   -1.7227   -5.1891 C   0  0  0  0  0  0  0  0  0  0  0  0
   -2.6395   -1.3052   -4.2241 C   0  0  0  0  0  0  0  0  0  0  0  0
   -2.2887   -1.1555   -2.8887 C   0  0  0  0  0  0  0  0  0  0  0  0
   -3.2307   -0.7435   -2.0223 N   0  0  0  0  0  0  0  0  0  0  0  0
   -5.3756   -0.4767   -0.1642 C   0  0  0  0  0  0  0  0  0  0  0  0
   -6.4481   -0.0765    0.6405 C   0  0  0  0  0  0  0  0  0  0  0  0
   -7.1513    3.2487    2.2746 H   0  0  0  0  0  0  0  0  0  0  0  0
   -8.2843    2.4357    1.1842 H   0  0  0  0  0  0  0  0  0  0  0  0
   -8.7545    2.7717    2.8596 H   0  0  0  0  0  0  0  0  0  0  0  0
   -8.1763    0.3711    2.6221 H   0  0  0  0  0  0  0  0  0  0  0  0
   -7.0578    1.1743    3.7052 H   0  0  0  0  0  0  0  0  0  0  0  0
   -4.7116    1.6269    3.0099 H   0  0  0  0  0  0  0  0  0  0  0  0
   -2.8425    0.9404    1.6053 H   0  0  0  0  0  0  0  0  0  0  0  0
   -1.4232   -0.7507    0.8247 H   0  0  0  0  0  0  0  0  0  0  0  0
    0.7679    0.5019   -0.1573 H   0  0  0  0  0  0  0  0  0  0  0  0
    3.0756   -2.3873    0.5086 H   0  0  0  0  0  0  0  0  0  0  0  0
    5.2339   -2.0854    1.6026 H   0  0  0  0  0  0  0  0  0  0  0  0
    8.3311   -0.3788    1.3449 H   0  0  0  0  0  0  0  0  0  0  0  0
    8.8233    2.1687   -1.2299 H   0  0  0  0  0  0  0  0  0  0  0  0
    8.7219    0.3937   -1.1443 H   0  0  0  0  0  0  0  0  0  0  0  0
    9.7883    1.2896   -0.0222 H   0  0  0  0  0  0  0  0  0  0  0  0
    4.5117    2.1607    1.9034 H   0  0  0  0  0  0  0  0  0  0  0  0
    2.3354    1.8659    0.8084 H   0  0  0  0  0  0  0  0  0  0  0  0
    0.9933   -2.0886   -3.2102 H   0  0  0  0  0  0  0  0  0  0  0  0
    0.3110   -2.3316   -5.5577 H   0  0  0  0  0  0  0  0  0  0  0  0
   -2.0312   -1.8315   -6.2247 H   0  0  0  0  0  0  0  0  0  0  0  0
   -3.6631   -1.0898   -4.5236 H   0  0  0  0  0  0  0  0  0  0  0  0
   -5.5860   -1.0616   -1.0591 H   0  0  0  0  0  0  0  0  0  0  0  0
   -7.4589   -0.3558    0.3516 H   0  0  0  0  0  0  0  0  0  0  0  0
  1  2  1  0
  2  3  1  0
  3  4  2  0
  4  5  1  0
  5  6  2  0
  6  7  1  0
  7  8  2  0
  8  9  1  0
  9 10  1  0
 10 11  2  0
 10 12  1  0
 12 13  1  0
 13 14  2  0
 14 15  1  0
 15 16  2  0
 16 17  1  0
 17 18  2  0
 17 19  2  0
 17 20  1  0
 20 21  1  0
 21 22  1  0
 21 23  2  0
 16 24  1  0
 24 25  2  0
  9 26  2  0
 26 27  1  0
 27 28  2  0
 28 29  1  0
 29 30  2  0
 30 31  1  0
 31 32  2  0
  6 33  1  0
 33 34  2  0
 34  3  1  0
 32  7  1  0
 25 13  1  0
 31 26  1  0
  1 35  1  0
  1 36  1  0
  1 37  1  0
  2 38  1  0
  2 39  1  0
  4 40  1  0
  5 41  1  0
  8 42  1  0
 12 43  1  0
 14 44  1  0
 15 45  1  0
 20 46  1  0
 22 47  1  0
 22 48  1  0
 22 49  1  0
 24 50  1  0
 25 51  1  0
 27 52  1  0
 28 53  1  0
 29 54  1  0
 30 55  1  0
 33 56  1  0
 34 57  1  0
M  END
$$$$
