
     RDKit          3D

 19 19  0  0  0  0  0  0  0  0999 V2000
   -2.9312    0.2054   -1.7531 C   0  0  0  0  0  0  0  0  0  0  0  0
   -2.0719    0.3149   -0.5018 C   0  0  0  0  0  0  0  0  0  0  0  0
   -1.6061   -1.0625   -0.0342 C   0  0  0  0  0  0  0  0  0  0  0  0
   -0.6109   -0.9525    1.4839 S   0  0  0  0  0  0  0  0  0  0  0  0
    0.9408   -0.4447    0.8556 C   0  0  0  0  0  0  0  0  0  0  0  0
    1.2001   -0.3422   -0.4290 N   0  0  0  0  0  0  0  0  0  0  0  0
    2.4966    0.0744   -0.6625 N   0  0  0  0  0  0  0  0  0  0  0  0
    3.1686    0.2670    0.4501 C   0  0  0  0  0  0  0  0  0  0  0  0
    4.4495    0.6806    0.5068 N   0  0  0  0  0  0  0  0  0  0  0  0
    2.2574   -0.0378    1.8738 S   0  0  0  0  0  0  0  0  0  0  0  0
   -2.3694   -0.2486   -2.5757 H   0  0  0  0  0  0  0  0  0  0  0  0
   -3.8211   -0.4040   -1.5662 H   0  0  0  0  0  0  0  0  0  0  0  0
   -3.2610    1.1984   -2.0743 H   0  0  0  0  0  0  0  0  0  0  0  0
   -2.6581    0.8044    0.2854 H   0  0  0  0  0  0  0  0  0  0  0  0
   -1.2164    0.9633   -0.7224 H   0  0  0  0  0  0  0  0  0  0  0  0
   -2.4799   -1.6810    0.1991 H   0  0  0  0  0  0  0  0  0  0  0  0
   -1.0494   -1.5854   -0.8193 H   0  0  0  0  0  0  0  0  0  0  0  0
    4.8076    1.1032   -0.3436 H   0  0  0  0  0  0  0  0  0  0  0  0
    4.7546    1.1472    1.3527 H   0  0  0  0  0  0  0  0  0  0  0  0
  1  2  1  0
  2  3  1  0
  3  4  1  0
  4  5  1  0
  5  6  2  0
  6  7  1  0
  7  8  2  0
  8  9  1  0
  8 10  1  0
 10  5  1  0
  1 11  1  0
  1 12  1  0
  1 13  1  0
  2 14  1  0
  2 15  1  0
  3 16  1  0
  3 17  1  0
  9 18  1  0
  9 19  1  0
M  END
$$$$
