
     RDKit          3D

 56 58  0  0  0  0  0  0  0  0999 V2000
    6.6532    2.6120   -4.1789 C   0  0  0  0  0  0  0  0  0  0  0  0
    5.8928    1.8582   -3.2438 O   0  0  0  0  0  0  0  0  0  0  0  0
    4.6139    1.5276   -3.6009 C   0  0  0  0  0  0  0  0  0  0  0  0
    3.9983    1.8418   -4.8116 C   0  0  0  0  0  0  0  0  0  0  0  0
    2.6796    1.4435   -5.0580 C   0  0  0  0  0  0  0  0  0  0  0  0
    1.9683    0.7274   -4.0926 C   0  0  0  0  0  0  0  0  0  0  0  0
    0.6724    0.2857   -4.2337 O   0  0  0  0  0  0  0  0  0  0  0  0
    0.0164    0.5871   -5.4597 C   0  0  0  0  0  0  0  0  0  0  0  0
    2.5859    0.4084   -2.8652 C   0  0  0  0  0  0  0  0  0  0  0  0
    1.8092   -0.3171   -1.9341 N   0  0  0  0  0  0  0  0  0  0  0  0
    2.1522   -0.7278   -0.6599 C   0  0  0  0  0  0  0  0  0  0  0  0
    3.2170   -0.5155   -0.0864 O   0  0  0  0  0  0  0  0  0  0  0  0
    1.0415   -1.5047    0.0252 C   0  0  0  0  0  0  0  0  0  0  0  0
   -0.1192   -0.3376    0.7918 S   0  0  0  0  0  0  0  0  0  0  0  0
   -1.1329   -1.4660    1.6697 C   0  0  0  0  0  0  0  0  0  0  0  0
   -1.3198   -2.6289    1.1383 N   0  0  0  0  0  0  0  0  0  0  0  0
   -2.1423   -3.5430    1.8022 C   0  0  0  0  0  0  0  0  0  0  0  0
   -2.3311   -4.8108    1.2467 C   0  0  0  0  0  0  0  0  0  0  0  0
   -3.1542   -5.7486    1.8766 C   0  0  0  0  0  0  0  0  0  0  0  0
   -3.7978   -5.4233    3.0701 C   0  0  0  0  0  0  0  0  0  0  0  0
   -3.6167   -4.1610    3.6334 C   0  0  0  0  0  0  0  0  0  0  0  0
   -2.7879   -3.2311    2.9940 C   0  0  0  0  0  0  0  0  0  0  0  0
   -2.5689   -1.8894    3.5577 C   0  0  0  0  0  0  0  0  0  0  0  0
   -3.1568   -1.5690    4.5878 O   0  0  0  0  0  0  0  0  0  0  0  0
   -1.6944   -1.0515    2.8670 N   0  0  0  0  0  0  0  0  0  0  0  0
   -1.4909    0.2812    3.4502 C   0  0  0  0  0  0  0  0  0  0  0  0
   -2.5204    1.2981    2.9449 C   0  0  0  0  0  0  0  0  0  0  0  0
   -2.2415    2.6460    3.4126 N   0  0  0  0  0  0  0  0  0  0  0  0
   -3.2156    3.6185    3.3395 C   0  0  0  0  0  0  0  0  0  0  0  0
   -2.7398    4.9944    3.7227 C   0  0  0  0  0  0  0  0  0  0  0  0
   -4.3689    3.4040    2.9833 O   0  0  0  0  0  0  0  0  0  0  0  0
    3.9035    0.8098   -2.6326 C   0  0  0  0  0  0  0  0  0  0  0  0
    6.1843    3.5807   -4.3805 H   0  0  0  0  0  0  0  0  0  0  0  0
    7.6344    2.8035   -3.7346 H   0  0  0  0  0  0  0  0  0  0  0  0
    6.8103    2.0484   -5.1043 H   0  0  0  0  0  0  0  0  0  0  0  0
    4.5168    2.3951   -5.5879 H   0  0  0  0  0  0  0  0  0  0  0  0
    2.2420    1.7094   -6.0145 H   0  0  0  0  0  0  0  0  0  0  0  0
    0.5299    0.1209   -6.3070 H   0  0  0  0  0  0  0  0  0  0  0  0
   -0.9919    0.1654   -5.4101 H   0  0  0  0  0  0  0  0  0  0  0  0
   -0.0813    1.6687   -5.5995 H   0  0  0  0  0  0  0  0  0  0  0  0
    0.8657   -0.5100   -2.2597 H   0  0  0  0  0  0  0  0  0  0  0  0
    0.5303   -2.1376   -0.7079 H   0  0  0  0  0  0  0  0  0  0  0  0
    1.4914   -2.1540    0.7840 H   0  0  0  0  0  0  0  0  0  0  0  0
   -1.8343   -5.0681    0.3146 H   0  0  0  0  0  0  0  0  0  0  0  0
   -3.2936   -6.7319    1.4335 H   0  0  0  0  0  0  0  0  0  0  0  0
   -4.4403   -6.1510    3.5602 H   0  0  0  0  0  0  0  0  0  0  0  0
   -4.1180   -3.9032    4.5637 H   0  0  0  0  0  0  0  0  0  0  0  0
   -1.5592    0.2165    4.5437 H   0  0  0  0  0  0  0  0  0  0  0  0
   -0.4736    0.6318    3.2484 H   0  0  0  0  0  0  0  0  0  0  0  0
   -3.5283    1.0096    3.2655 H   0  0  0  0  0  0  0  0  0  0  0  0
   -2.5334    1.3357    1.8500 H   0  0  0  0  0  0  0  0  0  0  0  0
   -1.2794    2.9617    3.4029 H   0  0  0  0  0  0  0  0  0  0  0  0
   -1.7742    4.9588    4.2346 H   0  0  0  0  0  0  0  0  0  0  0  0
   -3.4690    5.4495    4.3989 H   0  0  0  0  0  0  0  0  0  0  0  0
   -2.6427    5.6034    2.8202 H   0  0  0  0  0  0  0  0  0  0  0  0
    4.4092    0.5781   -1.7004 H   0  0  0  0  0  0  0  0  0  0  0  0
  1  2  1  0
  2  3  1  0
  3  4  2  0
  4  5  1  0
  5  6  2  0
  6  7  1  0
  7  8  1  0
  6  9  1  0
  9 10  1  0
 10 11  1  0
 11 12  2  0
 11 13  1  0
 13 14  1  0
 14 15  1  0
 15 16  2  0
 16 17  1  0
 17 18  2  0
 18 19  1  0
 19 20  2  0
 20 21  1  0
 21 22  2  0
 22 23  1  0
 23 24  2  0
 23 25  1  0
 25 26  1  0
 26 27  1  0
 27 28  1  0
 28 29  1  0
 29 30  1  0
 29 31  2  0
  9 32  2  0
 32  3  1  0
 25 15  1  0
 22 17  1  0
  1 33  1  0
  1 34  1  0
  1 35  1  0
  4 36  1  0
  5 37  1  0
  8 38  1  0
  8 39  1  0
  8 40  1  0
 10 41  1  0
 13 42  1  0
 13 43  1  0
 18 44  1  0
 19 45  1  0
 20 46  1  0
 21 47  1  0
 26 48  1  0
 26 49  1  0
 27 50  1  0
 27 51  1  0
 28 52  1  0
 30 53  1  0
 30 54  1  0
 30 55  1  0
 32 56  1  0
M  END
$$$$
