
     RDKit          3D

 41 42  0  0  0  0  0  0  0  0999 V2000
    2.8966    4.3691    0.0761 C   0  0  0  0  0  0  0  0  0  0  0  0
    2.9195    3.4597   -1.1380 C   0  0  0  0  0  0  0  0  0  0  0  0
    2.4905    2.1384   -0.7718 O   0  0  0  0  0  0  0  0  0  0  0  0
    1.1357    1.9105   -0.8320 C   0  0  0  0  0  0  0  0  0  0  0  0
    0.3147    2.7801   -1.0984 O   0  0  0  0  0  0  0  0  0  0  0  0
    0.8311    0.4450   -0.3985 C   0  0  0  0  0  0  0  0  0  0  0  0
   -0.6064    0.2508   -0.2054 N   0  0  0  0  0  0  0  0  0  0  0  0
   -1.4447    0.1724   -1.2902 C   0  0  0  0  0  0  0  0  0  0  0  0
   -1.0597    0.3822   -2.4324 O   0  0  0  0  0  0  0  0  0  0  0  0
   -2.8497   -0.2394   -1.0239 C   0  0  0  0  0  0  0  0  0  0  0  0
   -3.4499   -0.0640    0.2310 C   0  0  0  0  0  0  0  0  0  0  0  0
   -4.7726   -0.4638    0.4358 C   0  0  0  0  0  0  0  0  0  0  0  0
   -5.5000   -1.0300   -0.6113 C   0  0  0  0  0  0  0  0  0  0  0  0
   -4.9050   -1.1924   -1.8620 C   0  0  0  0  0  0  0  0  0  0  0  0
   -5.8092   -1.8895   -3.1496 Cl  0  0  0  0  0  0  0  0  0  0  0  0
   -3.5866   -0.7975   -2.0757 C   0  0  0  0  0  0  0  0  0  0  0  0
    1.4126    0.2799    0.9785 N   0  0  0  0  0  0  0  0  0  0  0  0
    1.3800   -0.9456    1.5587 C   0  0  0  0  0  0  0  0  0  0  0  0
    0.4256   -1.8366    1.4055 N   0  0  0  0  0  0  0  0  0  0  0  0
    0.6491   -2.9878    2.1284 N   0  0  0  0  0  0  0  0  0  0  0  0
    1.7701   -2.9302    2.8139 C   0  0  0  0  0  0  0  0  0  0  0  0
    2.2967   -4.0167    3.6773 C   0  0  0  0  0  0  0  0  0  0  0  0
    2.6291   -1.4559    2.6261 S   0  0  0  0  0  0  0  0  0  0  0  0
    1.5416   -0.4452   -1.4801 C   0  0  0  0  0  0  0  0  0  0  0  0
    2.8568   -0.6206   -1.1536 F   0  0  0  0  0  0  0  0  0  0  0  0
    1.0079   -1.6898   -1.5519 F   0  0  0  0  0  0  0  0  0  0  0  0
    1.5362    0.0766   -2.7258 F   0  0  0  0  0  0  0  0  0  0  0  0
    1.8806    4.4789    0.4673 H   0  0  0  0  0  0  0  0  0  0  0  0
    3.5041    3.9473    0.8837 H   0  0  0  0  0  0  0  0  0  0  0  0
    3.2832    5.3608   -0.1751 H   0  0  0  0  0  0  0  0  0  0  0  0
    3.9459    3.3696   -1.5091 H   0  0  0  0  0  0  0  0  0  0  0  0
    2.3148    3.8643   -1.9578 H   0  0  0  0  0  0  0  0  0  0  0  0
   -0.8466   -0.3088    0.6028 H   0  0  0  0  0  0  0  0  0  0  0  0
   -2.9117    0.4025    1.0523 H   0  0  0  0  0  0  0  0  0  0  0  0
   -5.2387   -0.3272    1.4090 H   0  0  0  0  0  0  0  0  0  0  0  0
   -6.5294   -1.3390   -0.4484 H   0  0  0  0  0  0  0  0  0  0  0  0
   -3.1295   -0.9268   -3.0547 H   0  0  0  0  0  0  0  0  0  0  0  0
    2.3259    0.7321    1.0306 H   0  0  0  0  0  0  0  0  0  0  0  0
    2.5874   -3.6370    4.6624 H   0  0  0  0  0  0  0  0  0  0  0  0
    1.5356   -4.7895    3.8264 H   0  0  0  0  0  0  0  0  0  0  0  0
    3.1682   -4.4867    3.2105 H   0  0  0  0  0  0  0  0  0  0  0  0
  1  2  1  0
  2  3  1  0
  3  4  1  0
  4  5  2  0
  4  6  1  0
  6  7  1  0
  7  8  1  0
  8  9  2  0
  8 10  1  0
 10 11  2  0
 11 12  1  0
 12 13  2  0
 13 14  1  0
 14 15  1  0
 14 16  2  0
  6 17  1  0
 17 18  1  0
 18 19  2  0
 19 20  1  0
 20 21  2  0
 21 22  1  0
 21 23  1  0
  6 24  1  0
 24 25  1  0
 24 26  1  0
 24 27  1  0
 16 10  1  0
 23 18  1  0
  1 28  1  0
  1 29  1  0
  1 30  1  0
  2 31  1  0
  2 32  1  0
  7 33  1  0
 11 34  1  0
 12 35  1  0
 13 36  1  0
 16 37  1  0
 17 38  1  0
 22 39  1  0
 22 40  1  0
 22 41  1  0
M  END
$$$$
