
     RDKit          3D

 44 46  0  0  0  0  0  0  0  0999 V2000
   -4.4767    0.4352    0.6034 C   0  0  0  0  0  0  0  0  0  0  0  0
   -3.1631   -0.1261    1.0767 C   0  0  0  0  0  0  0  0  0  0  0  0
   -2.3216    0.6723    1.8710 C   0  0  0  0  0  0  0  0  0  0  0  0
   -1.0793    0.2114    2.3463 C   0  0  0  0  0  0  0  0  0  0  0  0
   -0.2695    1.1383    3.2077 C   0  0  0  0  0  0  0  0  0  0  0  0
   -0.6839   -1.0887    1.9957 C   0  0  0  0  0  0  0  0  0  0  0  0
    0.8749   -1.8246    2.4858 S   0  0  0  0  0  6  0  0  0  0  0  0
    1.5191   -1.0143    3.4950 O   0  0  0  0  0  0  0  0  0  0  0  0
    0.6237   -3.2326    2.7216 O   0  0  0  0  0  0  0  0  0  0  0  0
    1.7843   -1.7551    1.0576 N   0  0  0  0  0  0  0  0  0  0  0  0
    1.9937   -0.4908    0.4410 C   0  0  0  0  0  0  0  0  0  0  0  0
    2.8727    0.4288    1.0123 C   0  0  0  0  0  0  0  0  0  0  0  0
    3.0470    1.6817    0.4252 C   0  0  0  0  0  0  0  0  0  0  0  0
    2.3338    2.0082   -0.7248 C   0  0  0  0  0  0  0  0  0  0  0  0
    2.5428    3.2543   -1.2507 O   0  0  0  0  0  0  0  0  0  0  0  0
    1.4429    1.0949   -1.3038 C   0  0  0  0  0  0  0  0  0  0  0  0
    0.5030    1.5193   -2.7591 S   0  0  0  0  0  0  0  0  0  0  0  0
    1.5838    0.9740   -4.0151 C   0  0  0  0  0  0  0  0  0  0  0  0
    2.2711   -0.2095   -3.9680 N   0  0  0  0  0  0  0  0  0  0  0  0
    2.9466   -0.2036   -5.0929 C   0  0  0  0  0  0  0  0  0  0  0  0
    2.6705    0.9350   -5.7815 N   0  0  0  0  0  0  0  0  0  0  0  0
    1.7957    1.7049   -5.1144 N   0  0  0  0  0  0  0  0  0  0  0  0
    1.2754   -0.1612   -0.7103 C   0  0  0  0  0  0  0  0  0  0  0  0
   -1.5317   -1.9035    1.2212 C   0  0  0  0  0  0  0  0  0  0  0  0
   -2.7667   -1.4339    0.7535 C   0  0  0  0  0  0  0  0  0  0  0  0
   -3.6376   -2.3381   -0.0744 C   0  0  0  0  0  0  0  0  0  0  0  0
   -4.5228    0.4255   -0.4904 H   0  0  0  0  0  0  0  0  0  0  0  0
   -5.3082   -0.1495    1.0101 H   0  0  0  0  0  0  0  0  0  0  0  0
   -4.6129    1.4728    0.9277 H   0  0  0  0  0  0  0  0  0  0  0  0
   -2.6461    1.6809    2.1285 H   0  0  0  0  0  0  0  0  0  0  0  0
   -0.7527    2.1172    3.3066 H   0  0  0  0  0  0  0  0  0  0  0  0
   -0.1707    0.7319    4.2187 H   0  0  0  0  0  0  0  0  0  0  0  0
    0.7141    1.3217    2.7695 H   0  0  0  0  0  0  0  0  0  0  0  0
    1.5874   -2.5477    0.4493 H   0  0  0  0  0  0  0  0  0  0  0  0
    3.4246    0.1762    1.9150 H   0  0  0  0  0  0  0  0  0  0  0  0
    3.7315    2.4016    0.8661 H   0  0  0  0  0  0  0  0  0  0  0  0
    1.9766    3.3353   -2.0407 H   0  0  0  0  0  0  0  0  0  0  0  0
    3.6248   -0.9667   -5.4485 H   0  0  0  0  0  0  0  0  0  0  0  0
    3.0238    1.2436   -6.6805 H   0  0  0  0  0  0  0  0  0  0  0  0
    0.5841   -0.8761   -1.1481 H   0  0  0  0  0  0  0  0  0  0  0  0
   -1.2256   -2.9212    0.9808 H   0  0  0  0  0  0  0  0  0  0  0  0
   -3.1715   -3.3179   -0.2250 H   0  0  0  0  0  0  0  0  0  0  0  0
   -3.8100   -1.9004   -1.0629 H   0  0  0  0  0  0  0  0  0  0  0  0
   -4.5975   -2.5034    0.4251 H   0  0  0  0  0  0  0  0  0  0  0  0
  1  2  1  0
  2  3  2  0
  3  4  1  0
  4  5  1  0
  4  6  2  0
  6  7  1  0
  7  8  2  0
  7  9  2  0
  7 10  1  0
 10 11  1  0
 11 12  2  0
 12 13  1  0
 13 14  2  0
 14 15  1  0
 14 16  1  0
 16 17  1  0
 17 18  1  0
 18 19  1  0
 19 20  2  0
 20 21  1  0
 21 22  1  0
 16 23  2  0
  6 24  1  0
 24 25  2  0
 25 26  1  0
 25  2  1  0
 23 11  1  0
 22 18  2  0
  1 27  1  0
  1 28  1  0
  1 29  1  0
  3 30  1  0
  5 31  1  0
  5 32  1  0
  5 33  1  0
 10 34  1  0
 12 35  1  0
 13 36  1  0
 15 37  1  0
 20 38  1  0
 21 39  1  0
 23 40  1  0
 24 41  1  0
 26 42  1  0
 26 43  1  0
 26 44  1  0
M  END
$$$$
