
     RDKit          3D

 58 61  0  0  0  0  0  0  0  0999 V2000
   -5.6040    4.8147   -0.0274 C   0  0  0  0  0  0  0  0  0  0  0  0
   -5.3403    3.4175   -0.0270 O   0  0  0  0  0  0  0  0  0  0  0  0
   -4.2958    2.9852    0.7438 C   0  0  0  0  0  0  0  0  0  0  0  0
   -3.4727    3.7880    1.5337 C   0  0  0  0  0  0  0  0  0  0  0  0
   -2.4341    3.2149    2.2717 C   0  0  0  0  0  0  0  0  0  0  0  0
   -2.2146    1.8380    2.2239 C   0  0  0  0  0  0  0  0  0  0  0  0
   -3.0325    1.0185    1.4376 C   0  0  0  0  0  0  0  0  0  0  0  0
   -2.7892   -0.4283    1.3724 C   0  0  0  0  0  0  0  0  0  0  0  0
   -3.9980   -1.4820    1.9708 S   0  0  0  0  0  0  0  0  0  0  0  0
   -3.0768   -2.8870    1.6217 C   0  0  0  0  0  0  0  0  0  0  0  0
   -3.4542   -4.2235    1.8550 C   0  0  0  0  0  0  0  0  0  0  0  0
   -2.5767   -5.2551    1.5021 C   0  0  0  0  0  0  0  0  0  0  0  0
   -1.3471   -4.9703    0.9247 C   0  0  0  0  0  0  0  0  0  0  0  0
   -0.4085   -5.8870    0.5363 O   0  0  0  0  0  0  0  0  0  0  0  0
   -0.7380   -7.2595    0.7082 C   0  0  0  0  0  0  0  0  0  0  0  0
   -0.9844   -3.6370    0.6990 C   0  0  0  0  0  0  0  0  0  0  0  0
   -1.8461   -2.5641    1.0504 C   0  0  0  0  0  0  0  0  0  0  0  0
   -1.6844   -1.1314    0.9142 C   0  0  0  0  0  0  0  0  0  0  0  0
   -0.5126   -0.4555    0.3633 C   0  0  0  0  0  0  0  0  0  0  0  0
   -0.6004    0.2662   -0.8302 C   0  0  0  0  0  0  0  0  0  0  0  0
    0.5302    0.9061   -1.3441 C   0  0  0  0  0  0  0  0  0  0  0  0
    1.7580    0.8286   -0.6818 C   0  0  0  0  0  0  0  0  0  0  0  0
    2.7779    1.5021   -1.2935 O   0  0  0  0  0  0  0  0  0  0  0  0
    4.0812    1.3737   -0.7234 C   0  0  0  0  0  0  0  0  0  0  0  0
    5.0989    2.1595   -1.5748 C   0  0  0  0  0  0  0  0  0  0  0  0
    5.2813    1.6796   -2.9611 N   0  0  0  0  0  0  0  0  0  0  0  0
    5.8369    0.3285   -3.0159 C   0  0  0  0  0  0  0  0  0  0  0  0
    6.1367    2.6054   -3.7059 C   0  0  0  0  0  0  0  0  0  0  0  0
    1.8473    0.1061    0.5083 C   0  0  0  0  0  0  0  0  0  0  0  0
    0.7165   -0.5346    1.0281 C   0  0  0  0  0  0  0  0  0  0  0  0
   -4.0710    1.6055    0.7005 C   0  0  0  0  0  0  0  0  0  0  0  0
   -4.7523    5.3773   -0.4237 H   0  0  0  0  0  0  0  0  0  0  0  0
   -5.8792    5.1647    0.9730 H   0  0  0  0  0  0  0  0  0  0  0  0
   -6.4573    4.9935   -0.6887 H   0  0  0  0  0  0  0  0  0  0  0  0
   -3.6096    4.8622    1.5963 H   0  0  0  0  0  0  0  0  0  0  0  0
   -1.7919    3.8433    2.8835 H   0  0  0  0  0  0  0  0  0  0  0  0
   -1.4004    1.4083    2.8028 H   0  0  0  0  0  0  0  0  0  0  0  0
   -4.4172   -4.4537    2.3029 H   0  0  0  0  0  0  0  0  0  0  0  0
   -2.8955   -6.2742    1.6949 H   0  0  0  0  0  0  0  0  0  0  0  0
   -0.8755   -7.5023    1.7670 H   0  0  0  0  0  0  0  0  0  0  0  0
    0.1024   -7.8540    0.3370 H   0  0  0  0  0  0  0  0  0  0  0  0
   -1.6222   -7.5303    0.1216 H   0  0  0  0  0  0  0  0  0  0  0  0
   -0.0222   -3.4232    0.2386 H   0  0  0  0  0  0  0  0  0  0  0  0
   -1.5427    0.3377   -1.3678 H   0  0  0  0  0  0  0  0  0  0  0  0
    0.4551    1.4678   -2.2722 H   0  0  0  0  0  0  0  0  0  0  0  0
    4.3729    0.3204   -0.6486 H   0  0  0  0  0  0  0  0  0  0  0  0
    4.0783    1.8124    0.2823 H   0  0  0  0  0  0  0  0  0  0  0  0
    6.0632    2.1693   -1.0504 H   0  0  0  0  0  0  0  0  0  0  0  0
    4.7406    3.1964   -1.6196 H   0  0  0  0  0  0  0  0  0  0  0  0
    5.1441   -0.4031   -2.5890 H   0  0  0  0  0  0  0  0  0  0  0  0
    6.7942    0.2542   -2.4877 H   0  0  0  0  0  0  0  0  0  0  0  0
    5.9955    0.0188   -4.0554 H   0  0  0  0  0  0  0  0  0  0  0  0
    7.1419    2.6760   -3.2748 H   0  0  0  0  0  0  0  0  0  0  0  0
    5.6969    3.6089   -3.7241 H   0  0  0  0  0  0  0  0  0  0  0  0
    6.2305    2.2889   -4.7508 H   0  0  0  0  0  0  0  0  0  0  0  0
    2.7775    0.0223    1.0590 H   0  0  0  0  0  0  0  0  0  0  0  0
    0.8019   -1.0925    1.9581 H   0  0  0  0  0  0  0  0  0  0  0  0
   -4.7126    0.9881    0.0753 H   0  0  0  0  0  0  0  0  0  0  0  0
  1  2  1  0
  2  3  1  0
  3  4  2  0
  4  5  1  0
  5  6  2  0
  6  7  1  0
  7  8  1  0
  8  9  1  0
  9 10  1  0
 10 11  2  0
 11 12  1  0
 12 13  2  0
 13 14  1  0
 14 15  1  0
 13 16  1  0
 16 17  2  0
 17 18  1  0
 18 19  1  0
 19 20  2  0
 20 21  1  0
 21 22  2  0
 22 23  1  0
 23 24  1  0
 24 25  1  0
 25 26  1  0
 26 27  1  0
 26 28  1  0
 22 29  1  0
 29 30  2  0
  7 31  2  0
 31  3  1  0
 18  8  2  0
 30 19  1  0
 17 10  1  0
  1 32  1  0
  1 33  1  0
  1 34  1  0
  4 35  1  0
  5 36  1  0
  6 37  1  0
 11 38  1  0
 12 39  1  0
 15 40  1  0
 15 41  1  0
 15 42  1  0
 16 43  1  0
 20 44  1  0
 21 45  1  0
 24 46  1  0
 24 47  1  0
 25 48  1  0
 25 49  1  0
 27 50  1  0
 27 51  1  0
 27 52  1  0
 28 53  1  0
 28 54  1  0
 28 55  1  0
 29 56  1  0
 30 57  1  0
 31 58  1  0
M  END
$$$$
