
     RDKit          3D

 59 62  0  0  0  0  0  0  0  0999 V2000
   -6.6521   -0.8387   -3.8170 C   0  0  0  0  0  0  0  0  0  0  0  0
   -6.9385   -0.6245   -2.3411 C   0  0  0  0  0  0  0  0  0  0  0  0
   -5.7818   -0.9141   -1.5073 N   0  0  0  0  0  0  0  0  0  0  0  0
   -5.4910   -2.1567   -0.9784 C   0  0  0  0  0  0  0  0  0  0  0  0
   -6.1489   -3.3932   -1.0976 C   0  0  0  0  0  0  0  0  0  0  0  0
   -5.6071   -4.4966   -0.4347 C   0  0  0  0  0  0  0  0  0  0  0  0
   -4.4467   -4.3760    0.3230 C   0  0  0  0  0  0  0  0  0  0  0  0
   -3.7957   -3.1435    0.4317 C   0  0  0  0  0  0  0  0  0  0  0  0
   -4.3226   -2.0138   -0.2285 C   0  0  0  0  0  0  0  0  0  0  0  0
   -3.9020   -0.6512   -0.3345 C   0  0  0  0  0  0  0  0  0  0  0  0
   -2.7969    0.0672    0.1800 C   0  0  0  0  0  0  0  0  0  0  0  0
   -2.6353    1.4235   -0.1216 C   0  0  0  0  0  0  0  0  0  0  0  0
   -1.5500    2.2058    0.3293 N   0  0  0  0  0  0  0  0  0  0  0  0
   -0.4328    1.7737    1.0339 C   0  0  0  0  0  0  0  0  0  0  0  0
   -0.2057    0.6242    1.4098 O   0  0  0  0  0  0  0  0  0  0  0  0
    0.5495    2.9208    1.3522 C   0  0  0  0  0  0  0  0  0  0  0  0
    0.1334    3.5752    2.6630 C   0  0  0  0  0  0  0  0  0  0  0  0
    1.8900    2.4432    1.5062 O   0  0  0  0  0  0  0  0  0  0  0  0
    2.4722    2.0746    0.3374 C   0  0  0  0  0  0  0  0  0  0  0  0
    1.9985    2.2548   -0.7738 O   0  0  0  0  0  0  0  0  0  0  0  0
    3.7872    1.4239    0.5819 C   0  0  0  0  0  0  0  0  0  0  0  0
    4.5484    1.0284   -0.5241 C   0  0  0  0  0  0  0  0  0  0  0  0
    5.7853    0.3949   -0.3475 C   0  0  0  0  0  0  0  0  0  0  0  0
    6.2794    0.1481    0.9346 C   0  0  0  0  0  0  0  0  0  0  0  0
    7.5087   -0.4921    1.2023 N   0  0  0  0  0  0  0  0  0  0  0  0
    8.4120   -0.9947    0.2787 C   0  0  0  0  0  0  0  0  0  0  0  0
    8.2971   -0.9567   -0.9418 O   0  0  0  0  0  0  0  0  0  0  0  0
    9.6215   -1.6484    0.9089 C   0  0  0  0  0  0  0  0  0  0  0  0
   10.7404   -0.7084    0.9392 C   0  0  0  0  0  0  0  0  0  0  0  0
   11.6435    0.0193    1.0085 N   0  0  0  0  0  0  0  0  0  0  0  0
    5.5167    0.5490    2.0402 C   0  0  0  0  0  0  0  0  0  0  0  0
    4.2782    1.1802    1.8688 C   0  0  0  0  0  0  0  0  0  0  0  0
   -3.5885    2.0632   -0.9192 C   0  0  0  0  0  0  0  0  0  0  0  0
   -4.6928    1.3778   -1.4401 C   0  0  0  0  0  0  0  0  0  0  0  0
   -4.8281    0.0150   -1.1369 C   0  0  0  0  0  0  0  0  0  0  0  0
   -5.8444   -0.1854   -4.1635 H   0  0  0  0  0  0  0  0  0  0  0  0
   -6.3544   -1.8729   -4.0164 H   0  0  0  0  0  0  0  0  0  0  0  0
   -7.5438   -0.6199   -4.4101 H   0  0  0  0  0  0  0  0  0  0  0  0
   -7.2460    0.4094   -2.1535 H   0  0  0  0  0  0  0  0  0  0  0  0
   -7.7662   -1.2615   -2.0113 H   0  0  0  0  0  0  0  0  0  0  0  0
   -7.0503   -3.5033   -1.6915 H   0  0  0  0  0  0  0  0  0  0  0  0
   -6.0984   -5.4636   -0.5143 H   0  0  0  0  0  0  0  0  0  0  0  0
   -4.0369   -5.2457    0.8303 H   0  0  0  0  0  0  0  0  0  0  0  0
   -2.8859   -3.0567    1.0204 H   0  0  0  0  0  0  0  0  0  0  0  0
   -2.0892   -0.4698    0.7998 H   0  0  0  0  0  0  0  0  0  0  0  0
   -1.5490    3.1706    0.0185 H   0  0  0  0  0  0  0  0  0  0  0  0
    0.5173    3.6806    0.5625 H   0  0  0  0  0  0  0  0  0  0  0  0
    0.8219    4.3870    2.9209 H   0  0  0  0  0  0  0  0  0  0  0  0
    0.1690    2.8535    3.4875 H   0  0  0  0  0  0  0  0  0  0  0  0
   -0.8821    3.9817    2.6044 H   0  0  0  0  0  0  0  0  0  0  0  0
    4.1827    1.2042   -1.5349 H   0  0  0  0  0  0  0  0  0  0  0  0
    6.3319    0.1085   -1.2400 H   0  0  0  0  0  0  0  0  0  0  0  0
    7.7436   -0.5802    2.1839 H   0  0  0  0  0  0  0  0  0  0  0  0
    9.3829   -1.9978    1.9206 H   0  0  0  0  0  0  0  0  0  0  0  0
    9.8726   -2.5397    0.3225 H   0  0  0  0  0  0  0  0  0  0  0  0
    5.8646    0.3699    3.0557 H   0  0  0  0  0  0  0  0  0  0  0  0
    3.7049    1.4649    2.7485 H   0  0  0  0  0  0  0  0  0  0  0  0
   -3.4825    3.1172   -1.1686 H   0  0  0  0  0  0  0  0  0  0  0  0
   -5.4082    1.8951   -2.0697 H   0  0  0  0  0  0  0  0  0  0  0  0
  1  2  1  0
  2  3  1  0
  3  4  1  0
  4  5  2  0
  5  6  1  0
  6  7  2  0
  7  8  1  0
  8  9  2  0
  9 10  1  0
 10 11  2  0
 11 12  1  0
 12 13  1  0
 13 14  1  0
 14 15  2  0
 14 16  1  0
 16 17  1  0
 16 18  1  0
 18 19  1  0
 19 20  2  0
 19 21  1  0
 21 22  2  0
 22 23  1  0
 23 24  2  0
 24 25  1  0
 25 26  1  0
 26 27  2  0
 26 28  1  0
 28 29  1  0
 29 30  3  0
 24 31  1  0
 31 32  2  0
 12 33  2  0
 33 34  1  0
 34 35  2  0
 35  3  1  0
  9  4  1  0
 35 10  1  0
 32 21  1  0
  1 36  1  0
  1 37  1  0
  1 38  1  0
  2 39  1  0
  2 40  1  0
  5 41  1  0
  6 42  1  0
  7 43  1  0
  8 44  1  0
 11 45  1  0
 13 46  1  0
 16 47  1  0
 17 48  1  0
 17 49  1  0
 17 50  1  0
 22 51  1  0
 23 52  1  0
 25 53  1  0
 28 54  1  0
 28 55  1  0
 31 56  1  0
 32 57  1  0
 33 58  1  0
 34 59  1  0
M  END
$$$$
