
     RDKit          3D

 59 62  0  0  0  0  0  0  0  0999 V2000
   -3.9471    0.1949    1.1187 C   0  0  0  0  0  0  0  0  0  0  0  0
   -3.3502   -0.2448   -0.1075 O   0  0  0  0  0  0  0  0  0  0  0  0
   -4.0699    0.2246   -1.1799 C   0  0  0  0  0  0  0  0  0  0  0  0
   -5.0433   -0.6253   -1.7403 C   0  0  0  0  0  0  0  0  0  0  0  0
   -5.2919   -2.0033   -1.1923 C   0  0  0  0  0  0  0  0  0  0  0  0
   -5.8189   -0.1566   -2.8092 C   0  0  0  0  0  0  0  0  0  0  0  0
   -5.5929    1.1140   -3.3373 C   0  0  0  0  0  0  0  0  0  0  0  0
   -6.6407    1.7230   -4.7908 Br  0  0  0  0  0  0  0  0  0  0  0  0
   -4.5947    1.9326   -2.8156 C   0  0  0  0  0  0  0  0  0  0  0  0
   -3.8089    1.4901   -1.7401 C   0  0  0  0  0  0  0  0  0  0  0  0
   -2.7316    2.4161   -1.2666 C   0  0  0  0  0  0  0  0  0  0  0  0
   -2.8399    3.6113   -1.5247 O   0  0  0  0  0  0  0  0  0  0  0  0
   -1.6821    1.8257   -0.6017 N   0  0  0  0  0  0  0  0  0  0  0  0
   -0.5462    2.4300   -0.0235 C   0  0  0  0  0  0  0  0  0  0  0  0
   -0.3091    3.8055   -0.0274 C   0  0  0  0  0  0  0  0  0  0  0  0
    0.8374    4.3201    0.5802 C   0  0  0  0  0  0  0  0  0  0  0  0
    1.7506    3.4655    1.1919 C   0  0  0  0  0  0  0  0  0  0  0  0
    1.5215    2.0882    1.2011 C   0  0  0  0  0  0  0  0  0  0  0  0
    0.3737    1.5487    0.6007 C   0  0  0  0  0  0  0  0  0  0  0  0
    0.1254    0.1537    0.5429 N   0  0  0  0  0  0  0  0  0  0  0  0
    0.2135   -0.5659    1.8410 C   0  0  0  0  0  0  0  0  0  0  0  0
    0.8403   -1.9617    1.6816 C   0  0  0  0  0  0  0  0  0  0  0  0
    2.1596   -1.8665    1.0486 N   0  0  0  0  0  0  0  0  0  0  0  0
    3.2868   -2.1114    1.8334 C   0  0  0  0  0  0  0  0  0  0  0  0
    3.2320   -2.4264    3.0219 O   0  0  0  0  0  0  0  0  0  0  0  0
    4.6274   -1.9672    1.2189 C   0  0  0  0  0  0  0  0  0  0  0  0
    5.5690   -1.1471    1.8497 C   0  0  0  0  0  0  0  0  0  0  0  0
    6.8422   -1.0051    1.2980 C   0  0  0  0  0  0  0  0  0  0  0  0
    7.1768   -1.6924    0.1299 C   0  0  0  0  0  0  0  0  0  0  0  0
    6.2445   -2.5304   -0.4855 C   0  0  0  0  0  0  0  0  0  0  0  0
    4.9693   -2.6763    0.0626 C   0  0  0  0  0  0  0  0  0  0  0  0
    2.2040   -1.0682   -0.1902 C   0  0  0  0  0  0  0  0  0  0  0  0
    0.8353   -0.4849   -0.5947 C   0  0  0  0  0  0  0  0  0  0  0  0
   -4.9722   -0.1738    1.2154 H   0  0  0  0  0  0  0  0  0  0  0  0
   -3.9312    1.2857    1.2044 H   0  0  0  0  0  0  0  0  0  0  0  0
   -3.3600   -0.2200    1.9440 H   0  0  0  0  0  0  0  0  0  0  0  0
   -5.8494   -2.6189   -1.9069 H   0  0  0  0  0  0  0  0  0  0  0  0
   -5.8707   -1.9447   -0.2660 H   0  0  0  0  0  0  0  0  0  0  0  0
   -4.3456   -2.5192   -0.9977 H   0  0  0  0  0  0  0  0  0  0  0  0
   -6.5945   -0.7892   -3.2363 H   0  0  0  0  0  0  0  0  0  0  0  0
   -4.4148    2.9161   -3.2498 H   0  0  0  0  0  0  0  0  0  0  0  0
   -1.7042    0.8169   -0.4529 H   0  0  0  0  0  0  0  0  0  0  0  0
   -1.0018    4.4999   -0.4919 H   0  0  0  0  0  0  0  0  0  0  0  0
    1.0134    5.3932    0.5733 H   0  0  0  0  0  0  0  0  0  0  0  0
    2.6443    3.8706    1.6591 H   0  0  0  0  0  0  0  0  0  0  0  0
    2.2593    1.4420    1.6687 H   0  0  0  0  0  0  0  0  0  0  0  0
    0.7911   -0.0095    2.5883 H   0  0  0  0  0  0  0  0  0  0  0  0
   -0.8014   -0.6712    2.2409 H   0  0  0  0  0  0  0  0  0  0  0  0
    0.8997   -2.4580    2.6559 H   0  0  0  0  0  0  0  0  0  0  0  0
    0.2153   -2.5926    1.0374 H   0  0  0  0  0  0  0  0  0  0  0  0
    5.3110   -0.6267    2.7692 H   0  0  0  0  0  0  0  0  0  0  0  0
    7.5764   -0.3672    1.7837 H   0  0  0  0  0  0  0  0  0  0  0  0
    8.1729   -1.5855   -0.2942 H   0  0  0  0  0  0  0  0  0  0  0  0
    6.5171   -3.0783   -1.3845 H   0  0  0  0  0  0  0  0  0  0  0  0
    4.2550   -3.3517   -0.4011 H   0  0  0  0  0  0  0  0  0  0  0  0
    2.5703   -1.7105   -0.9975 H   0  0  0  0  0  0  0  0  0  0  0  0
    2.9273   -0.2559   -0.0522 H   0  0  0  0  0  0  0  0  0  0  0  0
    0.9552    0.2020   -1.4431 H   0  0  0  0  0  0  0  0  0  0  0  0
    0.1957   -1.2998   -0.9600 H   0  0  0  0  0  0  0  0  0  0  0  0
  1  2  1  0
  2  3  1  0
  3  4  2  0
  4  5  1  0
  4  6  1  0
  6  7  2  0
  7  8  1  0
  7  9  1  0
  9 10  2  0
 10 11  1  0
 11 12  2  0
 11 13  1  0
 13 14  1  0
 14 15  2  0
 15 16  1  0
 16 17  2  0
 17 18  1  0
 18 19  2  0
 19 20  1  0
 20 21  1  0
 21 22  1  0
 22 23  1  0
 23 24  1  0
 24 25  2  0
 24 26  1  0
 26 27  2  0
 27 28  1  0
 28 29  2  0
 29 30  1  0
 30 31  2  0
 23 32  1  0
 32 33  1  0
 10  3  1  0
 19 14  1  0
 33 20  1  0
 31 26  1  0
  1 34  1  0
  1 35  1  0
  1 36  1  0
  5 37  1  0
  5 38  1  0
  5 39  1  0
  6 40  1  0
  9 41  1  0
 13 42  1  0
 15 43  1  0
 16 44  1  0
 17 45  1  0
 18 46  1  0
 21 47  1  0
 21 48  1  0
 22 49  1  0
 22 50  1  0
 27 51  1  0
 28 52  1  0
 29 53  1  0
 30 54  1  0
 31 55  1  0
 32 56  1  0
 32 57  1  0
 33 58  1  0
 33 59  1  0
M  END
$$$$
