
     RDKit          3D

 38 38  0  0  0  0  0  0  0  0999 V2000
    4.7180   -1.2135   -3.8101 C   0  0  0  0  0  0  0  0  0  0  0  0
    4.6313   -1.1138   -2.2989 C   0  0  0  0  0  0  0  0  0  0  0  0
    3.3091   -0.7190   -1.9054 O   0  0  0  0  0  0  0  0  0  0  0  0
    3.0875    0.6229   -1.8379 C   0  0  0  0  0  0  0  0  0  0  0  0
    3.8861    1.4928   -2.1609 O   0  0  0  0  0  0  0  0  0  0  0  0
    1.6860    0.9046   -1.3855 C   0  0  0  0  0  0  0  0  0  0  0  0
    1.4080    0.4740    0.0311 C   0  0  0  0  0  0  0  0  0  0  0  0
    2.3040    0.1813    0.8200 O   0  0  0  0  0  0  0  0  0  0  0  0
   -0.0114    0.4191    0.5005 C   0  0  0  0  0  0  0  0  0  0  0  0
   -1.0617    0.9858   -0.2360 C   0  0  0  0  0  0  0  0  0  0  0  0
   -2.3737    0.9068    0.2386 C   0  0  0  0  0  0  0  0  0  0  0  0
   -3.4687    1.4186   -0.4087 O   0  0  0  0  0  0  0  0  0  0  0  0
   -3.2374    2.3437   -1.4623 C   0  0  0  0  0  0  0  0  0  0  0  0
   -2.6242    0.2382    1.4495 C   0  0  0  0  0  0  0  0  0  0  0  0
   -3.9120    0.1965    1.9373 O   0  0  0  0  0  0  0  0  0  0  0  0
   -4.5555   -1.0015    1.5063 C   0  0  0  0  0  0  0  0  0  0  0  0
   -1.5789   -0.3070    2.2126 C   0  0  0  0  0  0  0  0  0  0  0  0
   -1.9341   -0.9090    3.3913 O   0  0  0  0  0  0  0  0  0  0  0  0
   -0.8852   -1.2993    4.2683 C   0  0  0  0  0  0  0  0  0  0  0  0
   -0.2748   -0.2179    1.7245 C   0  0  0  0  0  0  0  0  0  0  0  0
    4.5332   -0.2420   -4.2792 H   0  0  0  0  0  0  0  0  0  0  0  0
    5.7049   -1.5688   -4.1195 H   0  0  0  0  0  0  0  0  0  0  0  0
    3.9581   -1.9020   -4.1941 H   0  0  0  0  0  0  0  0  0  0  0  0
    4.8176   -2.0966   -1.8536 H   0  0  0  0  0  0  0  0  0  0  0  0
    5.3883   -0.4301   -1.8977 H   0  0  0  0  0  0  0  0  0  0  0  0
    1.5203    1.9854   -1.4571 H   0  0  0  0  0  0  0  0  0  0  0  0
    1.0103    0.3994   -2.0839 H   0  0  0  0  0  0  0  0  0  0  0  0
   -0.8569    1.4891   -1.1727 H   0  0  0  0  0  0  0  0  0  0  0  0
   -2.8053    1.8414   -2.3336 H   0  0  0  0  0  0  0  0  0  0  0  0
   -4.2047    2.7575   -1.7629 H   0  0  0  0  0  0  0  0  0  0  0  0
   -2.6062    3.1758   -1.1326 H   0  0  0  0  0  0  0  0  0  0  0  0
   -4.0515   -1.8907    1.9001 H   0  0  0  0  0  0  0  0  0  0  0  0
   -5.5770   -0.9919    1.8983 H   0  0  0  0  0  0  0  0  0  0  0  0
   -4.6139   -1.0524    0.4135 H   0  0  0  0  0  0  0  0  0  0  0  0
   -0.2477   -0.4483    4.5305 H   0  0  0  0  0  0  0  0  0  0  0  0
   -0.2983   -2.1166    3.8370 H   0  0  0  0  0  0  0  0  0  0  0  0
   -1.3420   -1.6696    5.1912 H   0  0  0  0  0  0  0  0  0  0  0  0
    0.5586   -0.6429    2.2772 H   0  0  0  0  0  0  0  0  0  0  0  0
  1  2  1  0
  2  3  1  0
  3  4  1  0
  4  5  2  0
  4  6  1  0
  6  7  1  0
  7  8  2  0
  7  9  1  0
  9 10  2  0
 10 11  1  0
 11 12  1  0
 12 13  1  0
 11 14  2  0
 14 15  1  0
 15 16  1  0
 14 17  1  0
 17 18  1  0
 18 19  1  0
 17 20  2  0
 20  9  1  0
  1 21  1  0
  1 22  1  0
  1 23  1  0
  2 24  1  0
  2 25  1  0
  6 26  1  0
  6 27  1  0
 10 28  1  0
 13 29  1  0
 13 30  1  0
 13 31  1  0
 16 32  1  0
 16 33  1  0
 16 34  1  0
 19 35  1  0
 19 36  1  0
 19 37  1  0
 20 38  1  0
M  END
$$$$
