
     RDKit          3D

 37 39  0  0  0  0  0  0  0  0999 V2000
    6.4317   -0.2558    0.3454 C   0  0  0  0  0  0  0  0  0  0  0  0
    5.3320    0.0040   -0.5196 O   0  0  0  0  0  0  0  0  0  0  0  0
    4.0776   -0.0839    0.0215 C   0  0  0  0  0  0  0  0  0  0  0  0
    3.7811   -0.4234    1.3484 C   0  0  0  0  0  0  0  0  0  0  0  0
    2.4548   -0.4795    1.7846 C   0  0  0  0  0  0  0  0  0  0  0  0
    1.4451   -0.1949    0.8775 C   0  0  0  0  0  0  0  0  0  0  0  0
    1.7165    0.1478   -0.4627 C   0  0  0  0  0  0  0  0  0  0  0  0
    3.0416    0.2012   -0.8813 C   0  0  0  0  0  0  0  0  0  0  0  0
    0.5606    0.3980   -1.2360 N   0  0  0  0  0  0  0  0  0  0  0  0
    0.7210    0.9500   -2.5711 C   0  0  0  0  0  0  0  0  0  0  0  0
   -0.6027    0.3114   -0.4690 C   0  0  0  0  0  0  0  0  0  0  0  0
   -1.8600    0.5432   -0.8915 C   0  0  0  0  0  0  0  0  0  0  0  0
   -3.0665    0.4435   -0.0652 C   0  0  0  0  0  0  0  0  0  0  0  0
   -3.5448    1.5834    0.5920 C   0  0  0  0  0  0  0  0  0  0  0  0
   -4.6774    1.5011    1.3908 C   0  0  0  0  0  0  0  0  0  0  0  0
   -5.3187    0.2806    1.5281 C   0  0  0  0  0  0  0  0  0  0  0  0
   -4.8195   -0.8315    0.8618 C   0  0  0  0  0  0  0  0  0  0  0  0
   -3.7210   -0.7427    0.0741 N   0  0  0  0  0  4  0  0  0  0  0  0
   -3.2366   -1.9623   -0.6046 C   0  0  0  0  0  0  0  0  0  0  0  0
   -0.3070   -0.1864    1.2259 S   0  0  0  0  0  0  0  0  0  0  0  0
    6.4046   -1.2848    0.7185 H   0  0  0  0  0  0  0  0  0  0  0  0
    6.4635    0.4641    1.1698 H   0  0  0  0  0  0  0  0  0  0  0  0
    7.3503   -0.1364   -0.2370 H   0  0  0  0  0  0  0  0  0  0  0  0
    4.5636   -0.6472    2.0671 H   0  0  0  0  0  0  0  0  0  0  0  0
    2.2277   -0.7365    2.8145 H   0  0  0  0  0  0  0  0  0  0  0  0
    3.3053    0.4599   -1.9016 H   0  0  0  0  0  0  0  0  0  0  0  0
    1.3817    0.3242   -3.1812 H   0  0  0  0  0  0  0  0  0  0  0  0
    1.1328    1.9641   -2.5236 H   0  0  0  0  0  0  0  0  0  0  0  0
   -0.2291    1.0036   -3.1109 H   0  0  0  0  0  0  0  0  0  0  0  0
   -2.0506    0.8480   -1.9151 H   0  0  0  0  0  0  0  0  0  0  0  0
   -3.0271    2.5365    0.4928 H   0  0  0  0  0  0  0  0  0  0  0  0
   -5.0503    2.3830    1.9098 H   0  0  0  0  0  0  0  0  0  0  0  0
   -6.2026    0.1936    2.1568 H   0  0  0  0  0  0  0  0  0  0  0  0
   -5.2974   -1.8029    0.9574 H   0  0  0  0  0  0  0  0  0  0  0  0
   -2.3237   -2.2920   -0.1043 H   0  0  0  0  0  0  0  0  0  0  0  0
   -3.0616   -1.7337   -1.6589 H   0  0  0  0  0  0  0  0  0  0  0  0
   -3.9948   -2.7473   -0.5396 H   0  0  0  0  0  0  0  0  0  0  0  0
  1  2  1  0
  2  3  1  0
  3  4  2  0
  4  5  1  0
  5  6  2  0
  6  7  1  0
  7  8  2  0
  7  9  1  0
  9 10  1  0
  9 11  1  0
 11 12  2  3
 12 13  1  0
 13 14  2  0
 14 15  1  0
 15 16  2  0
 16 17  1  0
 17 18  2  0
 18 19  1  0
 11 20  1  0
  8  3  1  0
 18 13  1  0
 20  6  1  0
  1 21  1  0
  1 22  1  0
  1 23  1  0
  4 24  1  0
  5 25  1  0
  8 26  1  0
 10 27  1  0
 10 28  1  0
 10 29  1  0
 12 30  1  0
 14 31  1  0
 15 32  1  0
 16 33  1  0
 17 34  1  0
 19 35  1  0
 19 36  1  0
 19 37  1  0
M  CHG  1  18   1
M  END
$$$$
