
     RDKit          3D

 39 39  0  0  0  0  0  0  0  0999 V2000
   -2.7172   -3.4772    1.9438 C   0  0  0  0  0  0  0  0  0  0  0  0
   -1.7840   -3.5954    0.7536 C   0  0  0  0  0  0  0  0  0  0  0  0
   -0.8713   -2.4863    0.7300 O   0  0  0  0  0  0  0  0  0  0  0  0
   -1.3301   -1.3449    0.1189 C   0  0  0  0  0  0  0  0  0  0  0  0
   -2.4200   -1.2592   -0.4363 O   0  0  0  0  0  0  0  0  0  0  0  0
   -0.2458   -0.2273    0.1853 C   0  0  0  0  0  0  0  0  0  0  0  0
   -0.5382    0.7609   -0.8460 N   0  0  0  0  0  0  0  0  0  0  0  0
   -1.5164    1.7066   -0.6995 C   0  0  0  0  0  0  0  0  0  0  0  0
   -2.1048    1.8857    0.3574 O   0  0  0  0  0  0  0  0  0  0  0  0
   -1.7651    2.5078   -1.9606 C   0  0  0  0  0  0  0  0  0  0  0  0
   -2.8516    3.5517   -1.7761 C   0  0  0  0  0  0  0  0  0  0  0  0
    1.0389   -0.8355   -0.3093 N   0  0  0  0  0  0  0  0  0  0  0  0
    2.2796   -0.1994   -0.1939 C   0  0  0  0  0  0  0  0  0  0  0  0
    3.4337   -0.9919   -0.3136 C   0  0  0  0  0  0  0  0  0  0  0  0
    4.7150   -0.4334   -0.2807 C   0  0  0  0  0  0  0  0  0  0  0  0
    4.8681    0.9417   -0.1553 C   0  0  0  0  0  0  0  0  0  0  0  0
    3.7399    1.7509   -0.0789 C   0  0  0  0  0  0  0  0  0  0  0  0
    2.4595    1.1847   -0.1151 C   0  0  0  0  0  0  0  0  0  0  0  0
   -0.2482    0.1892    1.6962 C   0  0  0  0  0  0  0  0  0  0  0  0
   -1.4762    0.1788    2.2646 F   0  0  0  0  0  0  0  0  0  0  0  0
    0.2875    1.4176    1.9027 F   0  0  0  0  0  0  0  0  0  0  0  0
    0.5043   -0.6805    2.4309 F   0  0  0  0  0  0  0  0  0  0  0  0
   -3.3334   -2.5753    1.8726 H   0  0  0  0  0  0  0  0  0  0  0  0
   -3.3772   -4.3469    2.0072 H   0  0  0  0  0  0  0  0  0  0  0  0
   -2.1451   -3.3986    2.8741 H   0  0  0  0  0  0  0  0  0  0  0  0
   -1.1795   -4.5033    0.8486 H   0  0  0  0  0  0  0  0  0  0  0  0
   -2.3385   -3.6751   -0.1882 H   0  0  0  0  0  0  0  0  0  0  0  0
   -0.1878    0.5293   -1.7634 H   0  0  0  0  0  0  0  0  0  0  0  0
   -0.8295    2.9990   -2.2502 H   0  0  0  0  0  0  0  0  0  0  0  0
   -2.0541    1.8165   -2.7601 H   0  0  0  0  0  0  0  0  0  0  0  0
   -2.5822    4.2647   -0.9899 H   0  0  0  0  0  0  0  0  0  0  0  0
   -3.0065    4.1091   -2.7050 H   0  0  0  0  0  0  0  0  0  0  0  0
   -3.8013    3.0850   -1.4942 H   0  0  0  0  0  0  0  0  0  0  0  0
    1.1119   -1.7878    0.0603 H   0  0  0  0  0  0  0  0  0  0  0  0
    3.3466   -2.0694   -0.4351 H   0  0  0  0  0  0  0  0  0  0  0  0
    5.5891   -1.0743   -0.3606 H   0  0  0  0  0  0  0  0  0  0  0  0
    5.8607    1.3828   -0.1291 H   0  0  0  0  0  0  0  0  0  0  0  0
    3.8501    2.8295    0.0034 H   0  0  0  0  0  0  0  0  0  0  0  0
    1.6191    1.8702   -0.0728 H   0  0  0  0  0  0  0  0  0  0  0  0
  1  2  1  0
  2  3  1  0
  3  4  1  0
  4  5  2  0
  4  6  1  0
  6  7  1  0
  7  8  1  0
  8  9  2  0
  8 10  1  0
 10 11  1  0
  6 12  1  0
 12 13  1  0
 13 14  2  0
 14 15  1  0
 15 16  2  0
 16 17  1  0
 17 18  2  0
  6 19  1  0
 19 20  1  0
 19 21  1  0
 19 22  1  0
 18 13  1  0
  1 23  1  0
  1 24  1  0
  1 25  1  0
  2 26  1  0
  2 27  1  0
  7 28  1  0
 10 29  1  0
 10 30  1  0
 11 31  1  0
 11 32  1  0
 11 33  1  0
 12 34  1  0
 14 35  1  0
 15 36  1  0
 16 37  1  0
 17 38  1  0
 18 39  1  0
M  END
$$$$
