
     RDKit          3D

 42 43  0  0  0  0  0  0  0  0999 V2000
   -5.5253    1.9184    1.0276 C   0  0  0  0  0  0  0  0  0  0  0  0
   -4.4673    0.8639    0.9577 C   0  0  0  0  0  0  0  0  0  0  0  0
   -4.0453    0.1797   -0.1259 C   0  0  0  0  0  0  0  0  0  0  0  0
   -4.6245    0.3224   -1.5091 C   0  0  0  0  0  0  0  0  0  0  0  0
   -2.9327   -0.8488   -0.0047 C   0  0  0  0  0  0  0  0  0  0  0  0
   -1.7670   -0.5373   -0.8424 N   0  0  0  0  0  0  0  0  0  0  0  0
   -0.8087   -1.6633   -0.8786 C   0  0  0  0  0  0  0  0  0  0  0  0
    0.3804   -1.5716    0.1069 C   0  0  0  0  0  0  0  0  0  0  0  0
    1.1330   -0.3203   -0.0795 N   0  0  0  0  0  0  0  0  0  0  0  0
    2.4909   -0.2525    0.1846 C   0  0  0  0  0  0  0  0  0  0  0  0
    3.3212    0.7088   -0.4117 C   0  0  0  0  0  0  0  0  0  0  0  0
    4.6955    0.7789   -0.1418 C   0  0  0  0  0  0  0  0  0  0  0  0
    5.2920   -0.1230    0.7384 C   0  0  0  0  0  0  0  0  0  0  0  0
    6.7532   -0.0303    1.0571 C   0  0  0  0  0  0  0  0  0  0  0  0
    4.4852   -1.0748    1.3603 C   0  0  0  0  0  0  0  0  0  0  0  0
    3.1127   -1.1362    1.0812 C   0  0  0  0  0  0  0  0  0  0  0  0
    0.4081    0.7849   -0.7268 C   0  0  0  0  0  0  0  0  0  0  0  0
   -1.1002    0.7090   -0.3935 C   0  0  0  0  0  0  0  0  0  0  0  0
   -5.1253    2.8012    1.5370 H   0  0  0  0  0  0  0  0  0  0  0  0
   -6.3784    1.5505    1.6058 H   0  0  0  0  0  0  0  0  0  0  0  0
   -5.8852    2.2450    0.0502 H   0  0  0  0  0  0  0  0  0  0  0  0
   -3.9876    0.6623    1.9153 H   0  0  0  0  0  0  0  0  0  0  0  0
   -3.9156    0.8287   -2.1718 H   0  0  0  0  0  0  0  0  0  0  0  0
   -5.5612    0.8839   -1.5285 H   0  0  0  0  0  0  0  0  0  0  0  0
   -4.8456   -0.6648   -1.9296 H   0  0  0  0  0  0  0  0  0  0  0  0
   -3.3623   -1.8099   -0.3187 H   0  0  0  0  0  0  0  0  0  0  0  0
   -2.6281   -0.9843    1.0418 H   0  0  0  0  0  0  0  0  0  0  0  0
   -0.3977   -1.6923   -1.8969 H   0  0  0  0  0  0  0  0  0  0  0  0
   -1.3183   -2.6260   -0.7478 H   0  0  0  0  0  0  0  0  0  0  0  0
    1.0194   -2.4441   -0.0757 H   0  0  0  0  0  0  0  0  0  0  0  0
    0.0152   -1.6264    1.1393 H   0  0  0  0  0  0  0  0  0  0  0  0
    2.9173    1.4218   -1.1246 H   0  0  0  0  0  0  0  0  0  0  0  0
    5.2912    1.5448   -0.6327 H   0  0  0  0  0  0  0  0  0  0  0  0
    6.9095    0.6420    1.9062 H   0  0  0  0  0  0  0  0  0  0  0  0
    7.3173    0.3476    0.1978 H   0  0  0  0  0  0  0  0  0  0  0  0
    7.1622   -1.0153    1.3056 H   0  0  0  0  0  0  0  0  0  0  0  0
    4.9114   -1.7770    2.0727 H   0  0  0  0  0  0  0  0  0  0  0  0
    2.5283   -1.8843    1.6092 H   0  0  0  0  0  0  0  0  0  0  0  0
    0.5591    0.7470   -1.8125 H   0  0  0  0  0  0  0  0  0  0  0  0
    0.7736    1.7530   -0.3634 H   0  0  0  0  0  0  0  0  0  0  0  0
   -1.6042    1.5657   -0.8556 H   0  0  0  0  0  0  0  0  0  0  0  0
   -1.1960    0.8232    0.6954 H   0  0  0  0  0  0  0  0  0  0  0  0
  1  2  1  0
  2  3  2  3
  3  4  1  0
  3  5  1  0
  5  6  1  0
  6  7  1  0
  7  8  1  0
  8  9  1  0
  9 10  1  0
 10 11  2  0
 11 12  1  0
 12 13  2  0
 13 14  1  0
 13 15  1  0
 15 16  2  0
  9 17  1  0
 17 18  1  0
 18  6  1  0
 16 10  1  0
  1 19  1  0
  1 20  1  0
  1 21  1  0
  2 22  1  0
  4 23  1  0
  4 24  1  0
  4 25  1  0
  5 26  1  0
  5 27  1  0
  7 28  1  0
  7 29  1  0
  8 30  1  0
  8 31  1  0
 11 32  1  0
 12 33  1  0
 14 34  1  0
 14 35  1  0
 14 36  1  0
 15 37  1  0
 16 38  1  0
 17 39  1  0
 17 40  1  0
 18 41  1  0
 18 42  1  0
M  END
$$$$
