
     RDKit          3D

 44 45  0  0  0  0  0  0  0  0999 V2000
   -7.0729   -2.1447    0.3313 C   0  0  0  0  0  0  0  0  0  0  0  0
   -6.9707   -1.1836    1.5083 C   0  0  0  0  0  0  0  0  0  0  0  0
   -5.5284   -0.9634    1.9545 C   0  0  0  0  0  0  0  0  0  0  0  0
   -4.7982   -0.3437    0.8878 O   0  0  0  0  0  0  0  0  0  0  0  0
   -3.4738   -0.1923    1.1310 C   0  0  0  0  0  0  0  0  0  0  0  0
   -2.8886   -0.5273    2.1487 O   0  0  0  0  0  0  0  0  0  0  0  0
   -2.7950    0.4352   -0.0335 C   0  0  0  0  0  0  0  0  0  0  0  0
   -3.5022    0.9689   -1.1159 C   0  0  0  0  0  0  0  0  0  0  0  0
   -2.8087    1.5506   -2.1768 C   0  0  0  0  0  0  0  0  0  0  0  0
   -1.4112    1.5989   -2.1651 C   0  0  0  0  0  0  0  0  0  0  0  0
   -0.6922    1.0656   -1.0940 C   0  0  0  0  0  0  0  0  0  0  0  0
    0.7125    1.0621   -1.0137 N   0  0  0  0  0  0  0  0  0  0  0  0
    1.6237    1.5749   -1.9187 C   0  0  0  0  0  0  0  0  0  0  0  0
    1.3645    2.1649   -2.9639 O   0  0  0  0  0  0  0  0  0  0  0  0
    3.0794    1.3562   -1.4920 C   0  0  0  0  0  0  0  0  0  0  0  0
    3.1622    0.5487   -0.3189 O   0  0  0  0  0  0  0  0  0  0  0  0
    4.4144    0.2307    0.1288 C   0  0  0  0  0  0  0  0  0  0  0  0
    5.6204    0.6641   -0.4289 C   0  0  0  0  0  0  0  0  0  0  0  0
    6.8406    0.2587    0.1264 C   0  0  0  0  0  0  0  0  0  0  0  0
    6.8492   -0.5823    1.2463 C   0  0  0  0  0  0  0  0  0  0  0  0
    8.1274   -1.0140    1.8258 N   0  0  0  0  0  4  0  0  0  0  0  0
    8.0901   -1.7204    2.8426 O   0  0  0  0  0  0  0  0  0  0  0  0
    9.1683   -0.6476    1.2610 O   0  0  0  0  0  1  0  0  0  0  0  0
    5.6462   -1.0168    1.8148 C   0  0  0  0  0  0  0  0  0  0  0  0
    4.4352   -0.6063    1.2508 C   0  0  0  0  0  0  0  0  0  0  0  0
   -1.3925    0.4875   -0.0279 C   0  0  0  0  0  0  0  0  0  0  0  0
   -6.6350   -3.1168    0.5808 H   0  0  0  0  0  0  0  0  0  0  0  0
   -8.1224   -2.3033    0.0653 H   0  0  0  0  0  0  0  0  0  0  0  0
   -6.5580   -1.7518   -0.5513 H   0  0  0  0  0  0  0  0  0  0  0  0
   -7.5536   -1.5776    2.3478 H   0  0  0  0  0  0  0  0  0  0  0  0
   -7.4148   -0.2257    1.2138 H   0  0  0  0  0  0  0  0  0  0  0  0
   -5.0657   -1.9206    2.2220 H   0  0  0  0  0  0  0  0  0  0  0  0
   -5.5170   -0.2996    2.8276 H   0  0  0  0  0  0  0  0  0  0  0  0
   -4.5885    0.9431   -1.1455 H   0  0  0  0  0  0  0  0  0  0  0  0
   -3.3538    1.9653   -3.0213 H   0  0  0  0  0  0  0  0  0  0  0  0
   -0.9139    2.0543   -3.0162 H   0  0  0  0  0  0  0  0  0  0  0  0
    1.1296    0.6182   -0.1987 H   0  0  0  0  0  0  0  0  0  0  0  0
    3.5853    0.8610   -2.3290 H   0  0  0  0  0  0  0  0  0  0  0  0
    3.5082    2.3449   -1.2967 H   0  0  0  0  0  0  0  0  0  0  0  0
    5.6526    1.3198   -1.2935 H   0  0  0  0  0  0  0  0  0  0  0  0
    7.7686    0.6075   -0.3239 H   0  0  0  0  0  0  0  0  0  0  0  0
    5.6319   -1.6674    2.6868 H   0  0  0  0  0  0  0  0  0  0  0  0
    3.4995   -0.9450    1.6910 H   0  0  0  0  0  0  0  0  0  0  0  0
   -0.8528    0.0689    0.8198 H   0  0  0  0  0  0  0  0  0  0  0  0
  1  2  1  0
  2  3  1  0
  3  4  1  0
  4  5  1  0
  5  6  2  0
  5  7  1  0
  7  8  2  0
  8  9  1  0
  9 10  2  0
 10 11  1  0
 11 12  1  0
 12 13  1  0
 13 14  2  0
 13 15  1  0
 15 16  1  0
 16 17  1  0
 17 18  2  0
 18 19  1  0
 19 20  2  0
 20 21  1  0
 21 22  2  0
 21 23  1  0
 20 24  1  0
 24 25  2  0
 11 26  2  0
 26  7  1  0
 25 17  1  0
  1 27  1  0
  1 28  1  0
  1 29  1  0
  2 30  1  0
  2 31  1  0
  3 32  1  0
  3 33  1  0
  8 34  1  0
  9 35  1  0
 10 36  1  0
 12 37  1  0
 15 38  1  0
 15 39  1  0
 18 40  1  0
 19 41  1  0
 24 42  1  0
 25 43  1  0
 26 44  1  0
M  CHG  2  21   1  23  -1
M  END
$$$$
