
     RDKit          3D

 53 58  0  0  0  0  0  0  0  0999 V2000
   -0.7490    1.6384    0.9585 O   0  0  0  0  0  0  0  0  0  0  0  0
   -1.3519    1.0416    0.0639 C   0  0  0  0  0  0  0  0  0  0  0  0
   -0.5864    0.7255   -1.2400 C   0  0  0  0  0  0  0  0  0  0  0  0
    0.7979    0.3289   -0.9237 N   0  0  0  0  0  4  0  0  0  0  0  0
    1.9268    1.1454   -0.9394 C   0  0  0  0  0  0  0  0  0  0  0  0
    3.0188    0.4135   -0.4868 C   0  0  0  0  0  0  0  0  0  0  0  0
    4.4989    0.9273   -0.3601 C   0  0  0  0  0  0  0  0  0  0  0  0
    4.7939    2.2724   -0.6206 C   0  0  0  0  0  0  0  0  0  0  0  0
    6.1064    2.7414   -0.5009 C   0  0  0  0  0  0  0  0  0  0  0  0
    7.1243    1.8691   -0.1283 C   0  0  0  0  0  0  0  0  0  0  0  0
    8.7356    2.4464    0.0209 Cl  0  0  0  0  0  0  0  0  0  0  0  0
    6.8406    0.5285    0.1224 C   0  0  0  0  0  0  0  0  0  0  0  0
    5.5280    0.0567    0.0066 C   0  0  0  0  0  0  0  0  0  0  0  0
    2.4716   -0.8205   -0.1834 N   0  0  0  0  0  0  0  0  0  0  0  0
    1.1652   -0.8455   -0.4256 C   0  0  0  0  0  0  0  0  0  0  0  0
    0.5247   -2.1292   -0.0649 C   0  0  0  0  0  0  0  0  0  0  0  0
    1.6264   -2.8138    0.7690 C   0  0  0  0  0  0  0  0  0  0  0  0
    2.9388   -2.0700    0.3993 C   0  0  0  0  0  0  0  0  0  0  0  0
   -2.6338    0.4706    0.1664 N   0  0  0  0  0  0  0  0  0  0  0  0
   -3.1740    0.0512    1.4391 C   0  0  0  0  0  0  0  0  0  0  0  0
   -2.8226    0.7032    2.6348 C   0  0  0  0  0  0  0  0  0  0  0  0
   -3.3298    0.2935    3.8720 C   0  0  0  0  0  0  0  0  0  0  0  0
   -4.1980   -0.7863    3.9461 C   0  0  0  0  0  0  0  0  0  0  0  0
   -4.5595   -1.4545    2.7807 C   0  0  0  0  0  0  0  0  0  0  0  0
   -4.0578   -1.0431    1.5364 C   0  0  0  0  0  0  0  0  0  0  0  0
   -4.5066   -2.0214    0.1197 S   0  0  0  0  0  0  0  0  0  0  0  0
   -4.3807   -0.7601   -1.1173 C   0  0  0  0  0  0  0  0  0  0  0  0
   -5.1800   -0.8784   -2.2631 C   0  0  0  0  0  0  0  0  0  0  0  0
   -5.1270    0.0853   -3.2671 C   0  0  0  0  0  0  0  0  0  0  0  0
   -4.2792    1.1766   -3.1290 C   0  0  0  0  0  0  0  0  0  0  0  0
   -3.4707    1.2929   -1.9958 C   0  0  0  0  0  0  0  0  0  0  0  0
   -3.4862    0.3129   -0.9833 C   0  0  0  0  0  0  0  0  0  0  0  0
   -0.5618    1.6183   -1.8717 H   0  0  0  0  0  0  0  0  0  0  0  0
   -1.0289   -0.1077   -1.7932 H   0  0  0  0  0  0  0  0  0  0  0  0
    1.8064    2.1605   -1.2757 H   0  0  0  0  0  0  0  0  0  0  0  0
    4.0272    2.9874   -0.9052 H   0  0  0  0  0  0  0  0  0  0  0  0
    6.3282    3.7889   -0.6948 H   0  0  0  0  0  0  0  0  0  0  0  0
    7.6390   -0.1531    0.4069 H   0  0  0  0  0  0  0  0  0  0  0  0
    5.3538   -0.9961    0.1936 H   0  0  0  0  0  0  0  0  0  0  0  0
   -0.3849   -1.9299    0.4999 H   0  0  0  0  0  0  0  0  0  0  0  0
    0.3193   -2.6500   -1.0018 H   0  0  0  0  0  0  0  0  0  0  0  0
    1.6860   -3.8909    0.5942 H   0  0  0  0  0  0  0  0  0  0  0  0
    1.4183   -2.6581    1.8344 H   0  0  0  0  0  0  0  0  0  0  0  0
    3.5060   -2.6180   -0.3577 H   0  0  0  0  0  0  0  0  0  0  0  0
    3.5478   -1.8866    1.2872 H   0  0  0  0  0  0  0  0  0  0  0  0
   -2.1860    1.5816    2.6445 H   0  0  0  0  0  0  0  0  0  0  0  0
   -3.0530    0.8310    4.7770 H   0  0  0  0  0  0  0  0  0  0  0  0
   -4.5964   -1.1059    4.9067 H   0  0  0  0  0  0  0  0  0  0  0  0
   -5.2371   -2.3041    2.8509 H   0  0  0  0  0  0  0  0  0  0  0  0
   -5.8654   -1.7176   -2.3749 H   0  0  0  0  0  0  0  0  0  0  0  0
   -5.7670   -0.0056   -4.1425 H   0  0  0  0  0  0  0  0  0  0  0  0
   -4.2735    1.9550   -3.8892 H   0  0  0  0  0  0  0  0  0  0  0  0
   -2.8827    2.2023   -1.8952 H   0  0  0  0  0  0  0  0  0  0  0  0
  1  2  2  0
  2  3  1  0
  3  4  1  0
  4  5  1  0
  5  6  2  0
  6  7  1  0
  7  8  2  0
  8  9  1  0
  9 10  2  0
 10 11  1  0
 10 12  1  0
 12 13  2  0
  6 14  1  0
 14 15  1  0
 15 16  1  0
 16 17  1  0
 17 18  1  0
  2 19  1  0
 19 20  1  0
 20 21  2  0
 21 22  1  0
 22 23  2  0
 23 24  1  0
 24 25  2  0
 25 26  1  0
 26 27  1  0
 27 28  2  0
 28 29  1  0
 29 30  2  0
 30 31  1  0
 31 32  2  0
 15  4  2  0
 32 19  1  0
 13  7  1  0
 18 14  1  0
 25 20  1  0
 32 27  1  0
  3 33  1  0
  3 34  1  0
  5 35  1  0
  8 36  1  0
  9 37  1  0
 12 38  1  0
 13 39  1  0
 16 40  1  0
 16 41  1  0
 17 42  1  0
 17 43  1  0
 18 44  1  0
 18 45  1  0
 21 46  1  0
 22 47  1  0
 23 48  1  0
 24 49  1  0
 28 50  1  0
 29 51  1  0
 30 52  1  0
 31 53  1  0
M  CHG  1   4   1
M  END
$$$$
