
     RDKit          3D

 34 37  0  0  0  0  0  0  0  0999 V2000
   -3.4278   -2.6491    1.2319 C   0  0  0  0  0  0  0  0  0  0  0  0
   -2.9202   -1.7209    0.2816 O   0  0  0  0  0  0  0  0  0  0  0  0
   -3.5918   -0.5332    0.1373 C   0  0  0  0  0  0  0  0  0  0  0  0
   -4.7750   -0.2011    0.8054 C   0  0  0  0  0  0  0  0  0  0  0  0
   -5.3888    1.0360    0.5845 C   0  0  0  0  0  0  0  0  0  0  0  0
   -4.8230    1.9439   -0.3064 C   0  0  0  0  0  0  0  0  0  0  0  0
   -5.6581    3.6137   -0.6007 Br  0  0  0  0  0  0  0  0  0  0  0  0
   -3.6464    1.6306   -0.9820 C   0  0  0  0  0  0  0  0  0  0  0  0
   -3.0252    0.3936   -0.7621 C   0  0  0  0  0  0  0  0  0  0  0  0
   -1.7791    0.1013   -1.4841 C   0  0  0  0  0  0  0  0  0  0  0  0
   -0.5496    0.2073   -0.9619 C   0  0  0  0  0  0  0  0  0  0  0  0
   -0.1318    0.7395    0.6575 S   0  0  0  0  0  0  0  0  0  0  0  0
    1.5265    0.4896    0.3011 C   0  0  0  0  0  0  0  0  0  0  0  0
    2.6460    0.6301    0.9486 N   0  0  0  0  0  0  0  0  0  0  0  0
    3.5704    0.2381   -0.0084 C   0  0  0  0  0  0  0  0  0  0  0  0
    5.1085    0.2241    0.2763 C   0  0  0  0  0  0  0  0  0  0  0  0
    6.0933   -0.1503   -0.6184 C   0  0  0  0  0  0  0  0  0  0  0  0
    7.3312   -0.0107    0.0547 C   0  0  0  0  0  0  0  0  0  0  0  0
    7.0282    0.4396    1.3174 C   0  0  0  0  0  0  0  0  0  0  0  0
    5.6865    0.5850    1.4622 O   0  0  0  0  0  0  0  0  0  0  0  0
    3.0475   -0.1276   -1.1987 N   0  0  0  0  0  0  0  0  0  0  0  0
    1.7370    0.0470   -0.9538 N   0  0  0  0  0  0  0  0  0  0  0  0
    0.6501   -0.1496   -1.7777 C   0  0  0  0  0  0  0  0  0  0  0  0
    0.7247   -0.5330   -2.9308 O   0  0  0  0  0  0  0  0  0  0  0  0
   -3.4324   -2.2210    2.2397 H   0  0  0  0  0  0  0  0  0  0  0  0
   -4.4240   -3.0010    0.9449 H   0  0  0  0  0  0  0  0  0  0  0  0
   -2.7594   -3.5154    1.2419 H   0  0  0  0  0  0  0  0  0  0  0  0
   -5.2494   -0.8823    1.5044 H   0  0  0  0  0  0  0  0  0  0  0  0
   -6.3078    1.2787    1.1126 H   0  0  0  0  0  0  0  0  0  0  0  0
   -3.2110    2.3464   -1.6751 H   0  0  0  0  0  0  0  0  0  0  0  0
   -1.9168   -0.2452   -2.5071 H   0  0  0  0  0  0  0  0  0  0  0  0
    5.9272   -0.4830   -1.6341 H   0  0  0  0  0  0  0  0  0  0  0  0
    8.3201   -0.2128   -0.3319 H   0  0  0  0  0  0  0  0  0  0  0  0
    7.6205    0.6920    2.1860 H   0  0  0  0  0  0  0  0  0  0  0  0
  1  2  1  0
  2  3  1  0
  3  4  2  0
  4  5  1  0
  5  6  2  0
  6  7  1  0
  6  8  1  0
  8  9  2  0
  9 10  1  0
 10 11  2  3
 11 12  1  0
 12 13  1  0
 13 14  2  0
 14 15  1  0
 15 16  1  0
 16 17  2  0
 17 18  1  0
 18 19  2  0
 19 20  1  0
 15 21  2  0
 21 22  1  0
 22 23  1  0
 23 24  2  0
  9  3  1  0
 23 11  1  0
 22 13  1  0
 20 16  1  0
  1 25  1  0
  1 26  1  0
  1 27  1  0
  4 28  1  0
  5 29  1  0
  8 30  1  0
 10 31  1  0
 17 32  1  0
 18 33  1  0
 19 34  1  0
M  END
$$$$
