
     RDKit          3D

 37 40  0  0  0  0  0  0  0  0999 V2000
   -3.0762    3.0564    0.3972 C   0  0  0  0  0  0  0  0  0  0  0  0
   -2.3238    1.7400    0.3360 C   0  0  0  0  0  0  0  0  0  0  0  0
   -2.3237    1.2599   -1.0137 O   0  0  0  0  0  0  0  0  0  0  0  0
   -2.9476    0.0494   -1.1866 C   0  0  0  0  0  0  0  0  0  0  0  0
   -4.2385   -0.1928   -0.7067 C   0  0  0  0  0  0  0  0  0  0  0  0
   -4.8555   -1.4223   -0.9427 C   0  0  0  0  0  0  0  0  0  0  0  0
   -4.1942   -2.4066   -1.6741 C   0  0  0  0  0  0  0  0  0  0  0  0
   -2.9166   -2.1609   -2.1795 C   0  0  0  0  0  0  0  0  0  0  0  0
   -2.2853   -0.9324   -1.9431 C   0  0  0  0  0  0  0  0  0  0  0  0
   -0.9558   -0.7074   -2.5226 C   0  0  0  0  0  0  0  0  0  0  0  0
    0.1900   -0.6111   -1.8331 C   0  0  0  0  0  0  0  0  0  0  0  0
    1.7243   -0.2856   -2.6430 S   0  0  0  0  0  0  0  0  0  0  0  0
    2.5178   -0.2817   -1.1257 C   0  0  0  0  0  0  0  0  0  0  0  0
    3.7415   -0.1035   -0.7220 N   0  0  0  0  0  0  0  0  0  0  0  0
    3.6061   -0.2609    0.6489 C   0  0  0  0  0  0  0  0  0  0  0  0
    4.8220   -0.1393    1.6253 C   0  0  0  0  0  0  0  0  0  0  0  0
    4.7737   -0.2835    2.9991 C   0  0  0  0  0  0  0  0  0  0  0  0
    6.0933   -0.0944    3.4764 C   0  0  0  0  0  0  0  0  0  0  0  0
    6.8663    0.1537    2.3673 C   0  0  0  0  0  0  0  0  0  0  0  0
    6.1074    0.1288    1.2423 O   0  0  0  0  0  0  0  0  0  0  0  0
    2.3533   -0.5264    1.0768 N   0  0  0  0  0  0  0  0  0  0  0  0
    1.6895   -0.5295   -0.0937 N   0  0  0  0  0  0  0  0  0  0  0  0
    0.3517   -0.7488   -0.3467 C   0  0  0  0  0  0  0  0  0  0  0  0
   -0.4545   -1.0069    0.5269 O   0  0  0  0  0  0  0  0  0  0  0  0
   -2.6381    3.7823   -0.2958 H   0  0  0  0  0  0  0  0  0  0  0  0
   -3.0480    3.4734    1.4078 H   0  0  0  0  0  0  0  0  0  0  0  0
   -4.1212    2.9249    0.1001 H   0  0  0  0  0  0  0  0  0  0  0  0
   -2.7270    1.0210    1.0594 H   0  0  0  0  0  0  0  0  0  0  0  0
   -1.2780    1.9139    0.6129 H   0  0  0  0  0  0  0  0  0  0  0  0
   -4.7815    0.5709   -0.1592 H   0  0  0  0  0  0  0  0  0  0  0  0
   -5.8560   -1.6090   -0.5609 H   0  0  0  0  0  0  0  0  0  0  0  0
   -4.6768   -3.3633   -1.8578 H   0  0  0  0  0  0  0  0  0  0  0  0
   -2.4198   -2.9362   -2.7583 H   0  0  0  0  0  0  0  0  0  0  0  0
   -0.9605   -0.5982   -3.6052 H   0  0  0  0  0  0  0  0  0  0  0  0
    3.8862   -0.5004    3.5781 H   0  0  0  0  0  0  0  0  0  0  0  0
    6.4380   -0.1342    4.5000 H   0  0  0  0  0  0  0  0  0  0  0  0
    7.9174    0.3567    2.2157 H   0  0  0  0  0  0  0  0  0  0  0  0
  1  2  1  0
  2  3  1  0
  3  4  1  0
  4  5  2  0
  5  6  1  0
  6  7  2  0
  7  8  1  0
  8  9  2  0
  9 10  1  0
 10 11  2  3
 11 12  1  0
 12 13  1  0
 13 14  2  0
 14 15  1  0
 15 16  1  0
 16 17  2  0
 17 18  1  0
 18 19  2  0
 19 20  1  0
 15 21  2  0
 21 22  1  0
 22 23  1  0
 23 24  2  0
  9  4  1  0
 23 11  1  0
 22 13  1  0
 20 16  1  0
  1 25  1  0
  1 26  1  0
  1 27  1  0
  2 28  1  0
  2 29  1  0
  5 30  1  0
  6 31  1  0
  7 32  1  0
  8 33  1  0
 10 34  1  0
 17 35  1  0
 18 36  1  0
 19 37  1  0
M  END
$$$$
