
     RDKit          3D

 34 35  0  0  0  0  0  0  0  0999 V2000
    2.3923    2.6556   -0.4490 C   0  0  0  0  0  0  0  0  0  0  0  0
    2.6340    1.2965    0.1790 C   0  0  0  0  0  0  0  0  0  0  0  0
    1.7492    0.3394    0.1750 N   0  0  0  0  0  0  0  0  0  0  0  0
    0.5150    0.5412   -0.3647 N   0  0  0  0  0  0  0  0  0  0  0  0
   -0.4011   -0.5107   -0.3904 C   0  0  0  0  0  0  0  0  0  0  0  0
   -0.1560   -1.6522   -0.0192 O   0  0  0  0  0  0  0  0  0  0  0  0
   -1.7217   -0.0669   -0.9837 C   0  0  0  0  0  0  0  0  0  0  0  0
   -2.8578   -1.0862   -0.9239 C   0  0  0  0  0  0  0  0  0  0  0  0
   -2.5668   -2.4038   -1.6387 C   0  0  0  0  0  0  0  0  0  0  0  0
   -3.9835   -0.4697   -1.6043 O   0  0  0  0  0  0  0  0  0  0  0  0
   -5.1022   -0.7122   -0.7515 C   0  0  0  0  0  0  0  0  0  0  0  0
   -4.4920   -0.6946    0.6206 C   0  0  0  0  0  0  0  0  0  0  0  0
   -3.2384   -1.3474    0.4366 O   0  0  0  0  0  0  0  0  0  0  0  0
    3.8969    1.0134    0.8581 C   0  0  0  0  0  0  0  0  0  0  0  0
    4.3340   -0.2162    1.3252 C   0  0  0  0  0  0  0  0  0  0  0  0
    5.6091   -0.1508    1.9564 C   0  0  0  0  0  0  0  0  0  0  0  0
    6.1091    1.1303    1.9647 C   0  0  0  0  0  0  0  0  0  0  0  0
    5.0417    2.2370    1.2211 S   0  0  0  0  0  0  0  0  0  0  0  0
    3.3223    3.1560   -0.7260 H   0  0  0  0  0  0  0  0  0  0  0  0
    1.8419    3.2829    0.2580 H   0  0  0  0  0  0  0  0  0  0  0  0
    1.8111    2.5584   -1.3701 H   0  0  0  0  0  0  0  0  0  0  0  0
    0.2190    1.4746   -0.6207 H   0  0  0  0  0  0  0  0  0  0  0  0
   -1.5418    0.2247   -2.0267 H   0  0  0  0  0  0  0  0  0  0  0  0
   -2.0341    0.8418   -0.4514 H   0  0  0  0  0  0  0  0  0  0  0  0
   -1.8331   -3.0162   -1.1090 H   0  0  0  0  0  0  0  0  0  0  0  0
   -3.4777   -3.0102   -1.7090 H   0  0  0  0  0  0  0  0  0  0  0  0
   -2.2224   -2.2295   -2.6635 H   0  0  0  0  0  0  0  0  0  0  0  0
   -5.8704    0.0516   -0.8948 H   0  0  0  0  0  0  0  0  0  0  0  0
   -5.5179   -1.6948   -0.9989 H   0  0  0  0  0  0  0  0  0  0  0  0
   -4.2950    0.3281    0.9598 H   0  0  0  0  0  0  0  0  0  0  0  0
   -5.0935   -1.2138    1.3706 H   0  0  0  0  0  0  0  0  0  0  0  0
    3.7538   -1.1269    1.2142 H   0  0  0  0  0  0  0  0  0  0  0  0
    6.1271   -1.0003    2.3844 H   0  0  0  0  0  0  0  0  0  0  0  0
    7.0488    1.4712    2.3773 H   0  0  0  0  0  0  0  0  0  0  0  0
  1  2  1  0
  2  3  2  3
  3  4  1  0
  4  5  1  0
  5  6  2  0
  5  7  1  0
  7  8  1  0
  8  9  1  0
  8 10  1  0
 10 11  1  0
 11 12  1  0
 12 13  1  0
  2 14  1  0
 14 15  2  0
 15 16  1  0
 16 17  2  0
 17 18  1  0
 13  8  1  0
 18 14  1  0
  1 19  1  0
  1 20  1  0
  1 21  1  0
  4 22  1  0
  7 23  1  0
  7 24  1  0
  9 25  1  0
  9 26  1  0
  9 27  1  0
 11 28  1  0
 11 29  1  0
 12 30  1  0
 12 31  1  0
 15 32  1  0
 16 33  1  0
 17 34  1  0
M  END
$$$$
