
     RDKit          3D

 54 57  0  0  0  0  0  0  0  0999 V2000
    5.5701    1.0335    4.2239 C   0  0  0  0  0  0  0  0  0  0  0  0
    4.8712    0.7701    2.8998 C   0  0  0  0  0  0  0  0  0  0  0  0
    3.4166    0.3647    3.0827 C   0  0  0  0  0  0  0  0  0  0  0  0
    2.8730    0.3927    4.1864 O   0  0  0  0  0  0  0  0  0  0  0  0
    2.7345   -0.0320    1.9418 N   0  0  0  0  0  0  0  0  0  0  0  0
    3.3017   -0.0632    0.5871 C   0  0  0  0  0  0  0  0  0  0  0  0
    2.2343    0.0500   -0.5172 C   0  0  0  0  0  0  0  0  0  0  0  0
    1.1253   -0.9234   -0.3684 N   0  0  0  0  0  0  0  0  0  0  0  0
    1.0615   -1.9174   -1.3783 C   0  0  0  0  0  0  0  0  0  0  0  0
    2.1501   -2.7433   -1.6910 C   0  0  0  0  0  0  0  0  0  0  0  0
    2.0315   -3.7241   -2.6773 C   0  0  0  0  0  0  0  0  0  0  0  0
    0.8239   -3.8866   -3.3541 C   0  0  0  0  0  0  0  0  0  0  0  0
    0.6943   -5.1004   -4.5686 Cl  0  0  0  0  0  0  0  0  0  0  0  0
   -0.2740   -3.0797   -3.0602 C   0  0  0  0  0  0  0  0  0  0  0  0
   -0.1609   -2.0978   -2.0760 C   0  0  0  0  0  0  0  0  0  0  0  0
   -1.2011   -1.2148   -1.7155 N   0  0  0  0  0  0  0  0  0  0  0  0
   -2.5013   -1.1927   -2.1670 C   0  0  0  0  0  0  0  0  0  0  0  0
   -3.0167   -1.9928   -2.9390 O   0  0  0  0  0  0  0  0  0  0  0  0
   -3.3456   -0.0968   -1.6088 C   0  0  0  0  0  0  0  0  0  0  0  0
   -4.7197   -0.3297   -1.4499 C   0  0  0  0  0  0  0  0  0  0  0  0
   -5.5489    0.6686   -0.9335 C   0  0  0  0  0  0  0  0  0  0  0  0
   -5.0099    1.9049   -0.5862 C   0  0  0  0  0  0  0  0  0  0  0  0
   -3.6382    2.1379   -0.7329 C   0  0  0  0  0  0  0  0  0  0  0  0
   -2.8082    1.1498   -1.2618 C   0  0  0  0  0  0  0  0  0  0  0  0
   -3.0369    3.3221   -0.3885 O   0  0  0  0  0  0  0  0  0  0  0  0
   -3.8919    4.1221    0.4375 C   0  0  0  0  0  0  0  0  0  0  0  0
   -5.3044    4.1544   -0.1222 C   0  0  0  0  0  0  0  0  0  0  0  0
   -5.8841    2.8451   -0.1055 O   0  0  0  0  0  0  0  0  0  0  0  0
    0.9754   -1.5183    0.9849 C   0  0  0  0  0  0  0  0  0  0  0  0
    1.3511   -0.5045    2.0773 C   0  0  0  0  0  0  0  0  0  0  0  0
    5.0906    1.8561    4.7645 H   0  0  0  0  0  0  0  0  0  0  0  0
    6.6175    1.3018    4.0546 H   0  0  0  0  0  0  0  0  0  0  0  0
    5.5427    0.1476    4.8667 H   0  0  0  0  0  0  0  0  0  0  0  0
    5.4014   -0.0296    2.3718 H   0  0  0  0  0  0  0  0  0  0  0  0
    4.9061    1.6829    2.2958 H   0  0  0  0  0  0  0  0  0  0  0  0
    4.0294    0.7441    0.4666 H   0  0  0  0  0  0  0  0  0  0  0  0
    3.8425   -1.0122    0.4964 H   0  0  0  0  0  0  0  0  0  0  0  0
    1.7831    1.0489   -0.4571 H   0  0  0  0  0  0  0  0  0  0  0  0
    2.7087   -0.0091   -1.5048 H   0  0  0  0  0  0  0  0  0  0  0  0
    3.0933   -2.6433   -1.1639 H   0  0  0  0  0  0  0  0  0  0  0  0
    2.8809   -4.3609   -2.9104 H   0  0  0  0  0  0  0  0  0  0  0  0
   -1.1979   -3.2264   -3.6093 H   0  0  0  0  0  0  0  0  0  0  0  0
   -0.9090   -0.5664   -0.9899 H   0  0  0  0  0  0  0  0  0  0  0  0
   -5.1468   -1.2909   -1.7308 H   0  0  0  0  0  0  0  0  0  0  0  0
   -6.6136    0.4854   -0.8164 H   0  0  0  0  0  0  0  0  0  0  0  0
   -1.7564    1.3750   -1.4102 H   0  0  0  0  0  0  0  0  0  0  0  0
   -3.4734    5.1331    0.4656 H   0  0  0  0  0  0  0  0  0  0  0  0
   -3.8723    3.7150    1.4562 H   0  0  0  0  0  0  0  0  0  0  0  0
   -5.9384    4.8056    0.4877 H   0  0  0  0  0  0  0  0  0  0  0  0
   -5.3197    4.5301   -1.1527 H   0  0  0  0  0  0  0  0  0  0  0  0
    1.6151   -2.4043    1.0944 H   0  0  0  0  0  0  0  0  0  0  0  0
   -0.0647   -1.8340    1.1288 H   0  0  0  0  0  0  0  0  0  0  0  0
    0.7063    0.3804    2.0117 H   0  0  0  0  0  0  0  0  0  0  0  0
    1.2020   -0.9536    3.0651 H   0  0  0  0  0  0  0  0  0  0  0  0
  1  2  1  0
  2  3  1  0
  3  4  2  0
  3  5  1  0
  5  6  1  0
  6  7  1  0
  7  8  1  0
  8  9  1  0
  9 10  2  0
 10 11  1  0
 11 12  2  0
 12 13  1  0
 12 14  1  0
 14 15  2  0
 15 16  1  0
 16 17  1  0
 17 18  2  0
 17 19  1  0
 19 20  2  0
 20 21  1  0
 21 22  2  0
 22 23  1  0
 23 24  2  0
 23 25  1  0
 25 26  1  0
 26 27  1  0
 27 28  1  0
  8 29  1  0
 29 30  1  0
 30  5  1  0
 15  9  1  0
 24 19  1  0
 28 22  1  0
  1 31  1  0
  1 32  1  0
  1 33  1  0
  2 34  1  0
  2 35  1  0
  6 36  1  0
  6 37  1  0
  7 38  1  0
  7 39  1  0
 10 40  1  0
 11 41  1  0
 14 42  1  0
 16 43  1  0
 20 44  1  0
 21 45  1  0
 24 46  1  0
 26 47  1  0
 26 48  1  0
 27 49  1  0
 27 50  1  0
 29 51  1  0
 29 52  1  0
 30 53  1  0
 30 54  1  0
M  END
$$$$
