
     RDKit          3D

 55 60  0  0  0  0  0  0  0  0999 V2000
    3.8765   -2.7720    1.3786 O   0  0  0  0  0  0  0  0  0  0  0  0
    3.8496   -1.5667    1.1369 C   0  0  0  0  0  0  0  0  0  0  0  0
    5.0391   -0.7478    1.3196 C   0  0  0  0  0  0  0  0  0  0  0  0
    5.1809    0.6257    1.6799 C   0  0  0  0  0  0  0  0  0  0  0  0
    6.5308    0.8774    1.7502 C   0  0  0  0  0  0  0  0  0  0  0  0
    7.2359   -0.2494    1.4794 O   0  0  0  0  0  0  0  0  0  0  0  0
    6.3304   -1.2319    1.2413 C   0  0  0  0  0  0  0  0  0  0  0  0
    2.6727   -0.9165    0.7268 N   0  0  0  0  0  0  0  0  0  0  0  0
    1.4556   -1.7128    0.7980 C   0  0  0  0  0  0  0  0  0  0  0  0
    0.2053   -0.8351    0.7981 C   0  0  0  0  0  0  0  0  0  0  0  0
    0.1590    0.1245   -0.4193 C   0  0  0  0  0  0  0  0  0  0  0  0
    1.4889    0.9309   -0.4042 C   0  0  0  0  0  0  0  0  0  0  0  0
    2.7136    0.0210   -0.3921 C   0  0  0  0  0  0  0  0  0  0  0  0
    0.1069   -0.7326   -1.5859 O   0  0  0  0  0  0  0  0  0  0  0  0
   -0.1658   -0.1170   -2.7748 C   0  0  0  0  0  0  0  0  0  0  0  0
    0.1494   -0.8396   -3.9263 C   0  0  0  0  0  0  0  0  0  0  0  0
   -0.0782   -0.2783   -5.1838 C   0  0  0  0  0  0  0  0  0  0  0  0
   -0.6238    0.9983   -5.2799 C   0  0  0  0  0  0  0  0  0  0  0  0
   -0.8385    1.5317   -6.4887 F   0  0  0  0  0  0  0  0  0  0  0  0
   -0.9561    1.7235   -4.1430 C   0  0  0  0  0  0  0  0  0  0  0  0
   -0.7332    1.1529   -2.8875 C   0  0  0  0  0  0  0  0  0  0  0  0
   -1.1131    1.8763   -1.6596 C   0  0  0  0  0  0  0  0  0  0  0  0
   -1.4636    3.0492   -1.7316 O   0  0  0  0  0  0  0  0  0  0  0  0
   -1.0884    1.0526   -0.3768 C   0  0  0  0  0  0  0  0  0  0  0  0
   -2.4377    0.3528   -0.2559 C   0  0  0  0  0  0  0  0  0  0  0  0
   -2.7198    0.6220    1.1810 C   0  0  0  0  0  0  0  0  0  0  0  0
   -3.8227   -0.0508    1.9063 C   0  0  0  0  0  0  0  0  0  0  0  0
   -4.7270   -0.8921    1.2469 C   0  0  0  0  0  0  0  0  0  0  0  0
   -5.7544   -1.5143    1.9644 C   0  0  0  0  0  0  0  0  0  0  0  0
   -5.8789   -1.2953    3.3357 C   0  0  0  0  0  0  0  0  0  0  0  0
   -7.1436   -2.0638    4.2116 Cl  0  0  0  0  0  0  0  0  0  0  0  0
   -4.9861   -0.4569    3.9987 C   0  0  0  0  0  0  0  0  0  0  0  0
   -3.9590    0.1661    3.2844 C   0  0  0  0  0  0  0  0  0  0  0  0
   -1.9306    1.4836    1.7365 N   0  0  0  0  0  0  0  0  0  0  0  0
   -1.0235    1.9323    0.7501 O   0  0  0  0  0  0  0  0  0  0  0  0
    4.3923    1.3384    1.8775 H   0  0  0  0  0  0  0  0  0  0  0  0
    7.1204    1.7538    1.9816 H   0  0  0  0  0  0  0  0  0  0  0  0
    6.7432   -2.2097    1.0319 H   0  0  0  0  0  0  0  0  0  0  0  0
    1.4521   -2.4122   -0.0472 H   0  0  0  0  0  0  0  0  0  0  0  0
    1.4685   -2.3144    1.7149 H   0  0  0  0  0  0  0  0  0  0  0  0
    0.1863   -0.2606    1.7320 H   0  0  0  0  0  0  0  0  0  0  0  0
   -0.6624   -1.5040    0.7997 H   0  0  0  0  0  0  0  0  0  0  0  0
    1.5705    1.5844   -1.2794 H   0  0  0  0  0  0  0  0  0  0  0  0
    1.5212    1.5772    0.4821 H   0  0  0  0  0  0  0  0  0  0  0  0
    3.6174    0.6324   -0.3742 H   0  0  0  0  0  0  0  0  0  0  0  0
    2.7703   -0.5711   -1.3143 H   0  0  0  0  0  0  0  0  0  0  0  0
    0.5823   -1.8343   -3.8476 H   0  0  0  0  0  0  0  0  0  0  0  0
    0.1688   -0.8258   -6.0889 H   0  0  0  0  0  0  0  0  0  0  0  0
   -1.3897    2.7145   -4.2448 H   0  0  0  0  0  0  0  0  0  0  0  0
   -2.4004   -0.7143   -0.4860 H   0  0  0  0  0  0  0  0  0  0  0  0
   -3.2229    0.8232   -0.8585 H   0  0  0  0  0  0  0  0  0  0  0  0
   -4.6619   -1.0745    0.1784 H   0  0  0  0  0  0  0  0  0  0  0  0
   -6.4559   -2.1655    1.4484 H   0  0  0  0  0  0  0  0  0  0  0  0
   -5.0823   -0.2810    5.0672 H   0  0  0  0  0  0  0  0  0  0  0  0
   -3.2686    0.8223    3.8121 H   0  0  0  0  0  0  0  0  0  0  0  0
  1  2  2  0
  2  3  1  0
  3  4  1  0
  4  5  2  0
  5  6  1  0
  6  7  1  0
  2  8  1  0
  8  9  1  0
  9 10  1  0
 10 11  1  0
 11 12  1  0
 12 13  1  0
 11 14  1  0
 14 15  1  0
 15 16  2  0
 16 17  1  0
 17 18  2  0
 18 19  1  0
 18 20  1  0
 20 21  2  0
 21 22  1  0
 22 23  2  0
 22 24  1  0
 24 25  1  0
 25 26  1  0
 26 27  1  0
 27 28  2  0
 28 29  1  0
 29 30  2  0
 30 31  1  0
 30 32  1  0
 32 33  2  0
 26 34  2  0
 34 35  1  0
  7  3  2  0
 13  8  1  0
 21 15  1  0
 35 24  1  0
 24 11  1  0
 33 27  1  0
  4 36  1  0
  5 37  1  0
  7 38  1  0
  9 39  1  0
  9 40  1  0
 10 41  1  0
 10 42  1  0
 12 43  1  0
 12 44  1  0
 13 45  1  0
 13 46  1  0
 16 47  1  0
 17 48  1  0
 20 49  1  0
 25 50  1  0
 25 51  1  0
 28 52  1  0
 29 53  1  0
 32 54  1  0
 33 55  1  0
M  END
$$$$
