
     RDKit          3D

 35 35  0  0  0  0  0  0  0  0999 V2000
   -3.6966   -1.1299   -1.3934 C   0  0  0  0  0  0  0  0  0  0  0  0
   -3.7196    0.0452   -0.4064 C   0  0  0  0  0  0  0  0  0  0  0  0
   -3.6789    1.3761   -1.1670 C   0  0  0  0  0  0  0  0  0  0  0  0
   -2.6765   -0.1258    0.6301 N   0  0  0  0  0  0  0  0  0  0  0  0
   -2.9804    0.6729    1.8216 C   0  0  0  0  0  0  0  0  0  0  0  0
   -1.3056    0.1270    0.1491 C   0  0  0  0  0  0  0  0  0  0  0  0
   -0.2073   -0.4077    1.0818 C   0  0  0  0  0  0  0  0  0  0  0  0
    1.0612   -0.2204    0.4315 O   0  0  0  0  0  0  0  0  0  0  0  0
    2.1301   -0.5433    1.1959 C   0  0  0  0  0  0  0  0  0  0  0  0
    2.1158   -1.0090    2.3224 O   0  0  0  0  0  0  0  0  0  0  0  0
    3.3612   -0.3465    0.4113 C   0  0  0  0  0  0  0  0  0  0  0  0
    4.2010   -1.4610    0.2671 C   0  0  0  0  0  0  0  0  0  0  0  0
    5.3828   -1.3578   -0.4668 C   0  0  0  0  0  0  0  0  0  0  0  0
    5.7343   -0.1416   -1.0495 C   0  0  0  0  0  0  0  0  0  0  0  0
    4.9112    0.9760   -0.8910 C   0  0  0  0  0  0  0  0  0  0  0  0
    3.7242    0.8807   -0.1553 C   0  0  0  0  0  0  0  0  0  0  0  0
    2.7122    2.4716    0.0734 Br  0  0  0  0  0  0  0  0  0  0  0  0
   -2.8117   -1.1182   -2.0372 H   0  0  0  0  0  0  0  0  0  0  0  0
   -4.5761   -1.0944   -2.0462 H   0  0  0  0  0  0  0  0  0  0  0  0
   -3.7221   -2.0881   -0.8626 H   0  0  0  0  0  0  0  0  0  0  0  0
   -4.6980   -0.0169    0.0896 H   0  0  0  0  0  0  0  0  0  0  0  0
   -2.7730    1.4744   -1.7740 H   0  0  0  0  0  0  0  0  0  0  0  0
   -4.5360    1.4502   -1.8460 H   0  0  0  0  0  0  0  0  0  0  0  0
   -3.7310    2.2307   -0.4854 H   0  0  0  0  0  0  0  0  0  0  0  0
   -4.0012    0.4798    2.1708 H   0  0  0  0  0  0  0  0  0  0  0  0
   -2.8763    1.7481    1.6419 H   0  0  0  0  0  0  0  0  0  0  0  0
   -2.3273    0.3995    2.6562 H   0  0  0  0  0  0  0  0  0  0  0  0
   -1.1479   -0.3549   -0.8228 H   0  0  0  0  0  0  0  0  0  0  0  0
   -1.1348    1.1977   -0.0252 H   0  0  0  0  0  0  0  0  0  0  0  0
   -0.3573   -1.4777    1.2676 H   0  0  0  0  0  0  0  0  0  0  0  0
   -0.2063    0.1368    2.0322 H   0  0  0  0  0  0  0  0  0  0  0  0
    3.9321   -2.4110    0.7257 H   0  0  0  0  0  0  0  0  0  0  0  0
    6.0298   -2.2246   -0.5812 H   0  0  0  0  0  0  0  0  0  0  0  0
    6.6568   -0.0592   -1.6200 H   0  0  0  0  0  0  0  0  0  0  0  0
    5.2113    1.9213   -1.3380 H   0  0  0  0  0  0  0  0  0  0  0  0
  1  2  1  0
  2  3  1  0
  2  4  1  0
  4  5  1  0
  4  6  1  0
  6  7  1  0
  7  8  1  0
  8  9  1  0
  9 10  2  0
  9 11  1  0
 11 12  2  0
 12 13  1  0
 13 14  2  0
 14 15  1  0
 15 16  2  0
 16 17  1  0
 16 11  1  0
  1 18  1  0
  1 19  1  0
  1 20  1  0
  2 21  1  0
  3 22  1  0
  3 23  1  0
  3 24  1  0
  5 25  1  0
  5 26  1  0
  5 27  1  0
  6 28  1  0
  6 29  1  0
  7 30  1  0
  7 31  1  0
 12 32  1  0
 13 33  1  0
 14 34  1  0
 15 35  1  0
M  END
$$$$
