
     RDKit          3D

 37 38  0  0  0  0  0  0  0  0999 V2000
    3.3619   -2.2750    2.1084 C   0  0  0  0  0  0  0  0  0  0  0  0
    4.0616   -1.4704    1.0278 C   0  0  0  0  0  0  0  0  0  0  0  0
    3.2783   -0.3263    0.6049 N   0  0  0  0  0  0  0  0  0  0  0  0
    2.4352   -0.2656   -0.4623 C   0  0  0  0  0  0  0  0  0  0  0  0
    1.9177    1.0146   -0.4809 C   0  0  0  0  0  0  0  0  0  0  0  0
    0.9451    1.5835   -1.4496 C   0  0  0  0  0  0  0  0  0  0  0  0
   -0.3775    1.1322   -1.0757 N   0  0  0  0  0  0  0  0  0  0  0  0
   -0.9813    0.0766   -1.7234 C   0  0  0  0  0  0  0  0  0  0  0  0
   -0.5103   -0.4831   -2.7065 O   0  0  0  0  0  0  0  0  0  0  0  0
   -2.2681   -0.4054   -1.1474 C   0  0  0  0  0  0  0  0  0  0  0  0
   -2.6355   -1.7410   -1.3698 C   0  0  0  0  0  0  0  0  0  0  0  0
   -3.8342   -2.2443   -0.8587 C   0  0  0  0  0  0  0  0  0  0  0  0
   -4.6820   -1.4142   -0.1262 C   0  0  0  0  0  0  0  0  0  0  0  0
   -4.3233   -0.0756    0.0835 C   0  0  0  0  0  0  0  0  0  0  0  0
   -5.2189    0.8040    0.8452 N   0  0  0  0  0  4  0  0  0  0  0  0
   -6.3249    0.3555    1.1763 O   0  0  0  0  0  0  0  0  0  0  0  0
   -4.8103    1.9426    1.1145 O   0  0  0  0  0  1  0  0  0  0  0  0
   -3.1216    0.4382   -0.4267 C   0  0  0  0  0  0  0  0  0  0  0  0
    2.5287    1.6524    0.6348 C   0  0  0  0  0  0  0  0  0  0  0  0
    2.3493    3.0492    1.1035 C   0  0  0  0  0  0  0  0  0  0  0  0
    3.3510    0.8261    1.2927 N   0  0  0  0  0  0  0  0  0  0  0  0
    2.3958   -2.6518    1.7559 H   0  0  0  0  0  0  0  0  0  0  0  0
    3.9765   -3.1313    2.4027 H   0  0  0  0  0  0  0  0  0  0  0  0
    3.1768   -1.6648    2.9989 H   0  0  0  0  0  0  0  0  0  0  0  0
    5.0285   -1.0979    1.3839 H   0  0  0  0  0  0  0  0  0  0  0  0
    4.2462   -2.0928    0.1454 H   0  0  0  0  0  0  0  0  0  0  0  0
    2.2652   -1.1138   -1.1119 H   0  0  0  0  0  0  0  0  0  0  0  0
    1.1886    1.2814   -2.4734 H   0  0  0  0  0  0  0  0  0  0  0  0
    0.9394    2.6771   -1.4079 H   0  0  0  0  0  0  0  0  0  0  0  0
   -0.6869    1.3854   -0.1486 H   0  0  0  0  0  0  0  0  0  0  0  0
   -1.9820   -2.3960   -1.9456 H   0  0  0  0  0  0  0  0  0  0  0  0
   -4.1055   -3.2829   -1.0367 H   0  0  0  0  0  0  0  0  0  0  0  0
   -5.6135   -1.8194    0.2652 H   0  0  0  0  0  0  0  0  0  0  0  0
   -2.8715    1.4867   -0.2886 H   0  0  0  0  0  0  0  0  0  0  0  0
    2.8676    3.2264    2.0516 H   0  0  0  0  0  0  0  0  0  0  0  0
    2.7463    3.7509    0.3632 H   0  0  0  0  0  0  0  0  0  0  0  0
    1.2875    3.2689    1.2544 H   0  0  0  0  0  0  0  0  0  0  0  0
  1  2  1  0
  2  3  1  0
  3  4  1  0
  4  5  2  0
  5  6  1  0
  6  7  1  0
  7  8  1  0
  8  9  2  0
  8 10  1  0
 10 11  2  0
 11 12  1  0
 12 13  2  0
 13 14  1  0
 14 15  1  0
 15 16  2  0
 15 17  1  0
 14 18  2  0
  5 19  1  0
 19 20  1  0
 19 21  2  0
 21  3  1  0
 18 10  1  0
  1 22  1  0
  1 23  1  0
  1 24  1  0
  2 25  1  0
  2 26  1  0
  4 27  1  0
  6 28  1  0
  6 29  1  0
  7 30  1  0
 11 31  1  0
 12 32  1  0
 13 33  1  0
 18 34  1  0
 20 35  1  0
 20 36  1  0
 20 37  1  0
M  CHG  2  15   1  17  -1
M  END
$$$$
