
     RDKit          3D

 37 39  0  0  0  0  0  0  0  0999 V2000
   -5.3905    2.9304   -1.1130 C   0  0  0  0  0  0  0  0  0  0  0  0
   -5.7309    1.8534   -0.0950 C   0  0  0  0  0  0  0  0  0  0  0  0
   -4.5035    1.1788    0.4195 C   0  0  0  0  0  0  0  0  0  0  0  0
   -3.7730    1.6152    1.4246 N   0  0  0  0  0  0  0  0  0  0  0  0
   -2.6959    0.7885    1.6749 N   0  0  0  0  0  0  0  0  0  0  0  0
   -2.6537   -0.2365    0.8529 C   0  0  0  0  0  0  0  0  0  0  0  0
   -1.6710   -1.1884    0.9228 N   0  0  0  0  0  0  0  0  0  0  0  0
   -1.4998   -2.2758    0.0972 C   0  0  0  0  0  0  0  0  0  0  0  0
   -2.2063   -2.6082   -0.8495 O   0  0  0  0  0  0  0  0  0  0  0  0
   -0.2940   -3.1317    0.5030 C   0  0  0  0  0  0  0  0  0  0  0  0
    0.7106   -2.4328    1.2272 O   0  0  0  0  0  0  0  0  0  0  0  0
    1.6046   -1.6763    0.5186 C   0  0  0  0  0  0  0  0  0  0  0  0
    1.5638   -1.4192   -0.8498 C   0  0  0  0  0  0  0  0  0  0  0  0
    2.5398   -0.6081   -1.4398 C   0  0  0  0  0  0  0  0  0  0  0  0
    3.5685   -0.0407   -0.6730 C   0  0  0  0  0  0  0  0  0  0  0  0
    4.5532    0.7752   -1.2533 C   0  0  0  0  0  0  0  0  0  0  0  0
    5.5680    1.3317   -0.4733 C   0  0  0  0  0  0  0  0  0  0  0  0
    5.6110    1.0800    0.8948 C   0  0  0  0  0  0  0  0  0  0  0  0
    4.6392    0.2711    1.4859 C   0  0  0  0  0  0  0  0  0  0  0  0
    3.6116   -0.2964    0.7147 C   0  0  0  0  0  0  0  0  0  0  0  0
    2.6242   -1.1122    1.2917 C   0  0  0  0  0  0  0  0  0  0  0  0
   -3.9226   -0.2770   -0.2821 S   0  0  0  0  0  0  0  0  0  0  0  0
   -4.7344    3.6926   -0.6789 H   0  0  0  0  0  0  0  0  0  0  0  0
   -4.8811    2.5066   -1.9851 H   0  0  0  0  0  0  0  0  0  0  0  0
   -6.3028    3.4255   -1.4605 H   0  0  0  0  0  0  0  0  0  0  0  0
   -6.4170    1.1258   -0.5441 H   0  0  0  0  0  0  0  0  0  0  0  0
   -6.2651    2.3095    0.7469 H   0  0  0  0  0  0  0  0  0  0  0  0
   -0.9712   -1.0126    1.6351 H   0  0  0  0  0  0  0  0  0  0  0  0
   -0.6799   -3.9124    1.1688 H   0  0  0  0  0  0  0  0  0  0  0  0
    0.1220   -3.6445   -0.3720 H   0  0  0  0  0  0  0  0  0  0  0  0
    0.7914   -1.8221   -1.4971 H   0  0  0  0  0  0  0  0  0  0  0  0
    2.4880   -0.4200   -2.5105 H   0  0  0  0  0  0  0  0  0  0  0  0
    4.5360    0.9842   -2.3206 H   0  0  0  0  0  0  0  0  0  0  0  0
    6.3238    1.9621   -0.9347 H   0  0  0  0  0  0  0  0  0  0  0  0
    6.4003    1.5134    1.5035 H   0  0  0  0  0  0  0  0  0  0  0  0
    4.6893    0.0867    2.5568 H   0  0  0  0  0  0  0  0  0  0  0  0
    2.6478   -1.3157    2.3604 H   0  0  0  0  0  0  0  0  0  0  0  0
  1  2  1  0
  2  3  1  0
  3  4  2  0
  4  5  1  0
  5  6  2  0
  6  7  1  0
  7  8  1  0
  8  9  2  0
  8 10  1  0
 10 11  1  0
 11 12  1  0
 12 13  2  0
 13 14  1  0
 14 15  2  0
 15 16  1  0
 16 17  2  0
 17 18  1  0
 18 19  2  0
 19 20  1  0
 20 21  2  0
  6 22  1  0
 22  3  1  0
 21 12  1  0
 20 15  1  0
  1 23  1  0
  1 24  1  0
  1 25  1  0
  2 26  1  0
  2 27  1  0
  7 28  1  0
 10 29  1  0
 10 30  1  0
 13 31  1  0
 14 32  1  0
 16 33  1  0
 17 34  1  0
 18 35  1  0
 19 36  1  0
 21 37  1  0
M  END
$$$$
