
     RDKit          3D

 33 33  0  0  0  0  0  0  0  0999 V2000
   -4.8692    0.1113    1.3380 C   0  0  0  0  0  0  0  0  0  0  0  0
   -3.5832   -0.4074    0.6869 C   0  0  0  0  0  0  0  0  0  0  0  0
   -3.9091   -1.0038   -0.6833 C   0  0  0  0  0  0  0  0  0  0  0  0
   -2.6357    0.7093    0.6088 N   0  0  0  0  0  0  0  0  0  0  0  0
   -1.3112    0.3965    0.0669 C   0  0  0  0  0  0  0  0  0  0  0  0
   -0.5007   -0.5786    0.9273 C   0  0  0  0  0  0  0  0  0  0  0  0
    0.8988   -0.8081    0.3560 C   0  0  0  0  0  0  0  0  0  0  0  0
    1.6251    0.4175    0.4112 O   0  0  0  0  0  0  0  0  0  0  0  0
    2.8969    0.4390   -0.0942 C   0  0  0  0  0  0  0  0  0  0  0  0
    3.5677   -0.6799   -0.5995 C   0  0  0  0  0  0  0  0  0  0  0  0
    4.8713   -0.5604   -1.0939 C   0  0  0  0  0  0  0  0  0  0  0  0
    5.5105    0.6768   -1.0843 C   0  0  0  0  0  0  0  0  0  0  0  0
    7.1132    0.8138   -1.6938 Cl  0  0  0  0  0  0  0  0  0  0  0  0
    4.8615    1.8005   -0.5843 C   0  0  0  0  0  0  0  0  0  0  0  0
    3.5594    1.6788   -0.0910 C   0  0  0  0  0  0  0  0  0  0  0  0
    2.7201    3.2482    0.5797 Br  0  0  0  0  0  0  0  0  0  0  0  0
   -5.3299    0.9071    0.7415 H   0  0  0  0  0  0  0  0  0  0  0  0
   -5.6021   -0.6961    1.4442 H   0  0  0  0  0  0  0  0  0  0  0  0
   -4.6718    0.5091    2.3399 H   0  0  0  0  0  0  0  0  0  0  0  0
   -3.1873   -1.1962    1.3361 H   0  0  0  0  0  0  0  0  0  0  0  0
   -4.2545   -0.2345   -1.3830 H   0  0  0  0  0  0  0  0  0  0  0  0
   -4.7006   -1.7567   -0.5984 H   0  0  0  0  0  0  0  0  0  0  0  0
   -3.0393   -1.5014   -1.1235 H   0  0  0  0  0  0  0  0  0  0  0  0
   -2.5248    1.1291    1.5323 H   0  0  0  0  0  0  0  0  0  0  0  0
   -0.7687    1.3466   -0.0071 H   0  0  0  0  0  0  0  0  0  0  0  0
   -1.3915    0.0265   -0.9611 H   0  0  0  0  0  0  0  0  0  0  0  0
   -0.4152   -0.1759    1.9441 H   0  0  0  0  0  0  0  0  0  0  0  0
   -1.0078   -1.5472    0.9896 H   0  0  0  0  0  0  0  0  0  0  0  0
    1.4047   -1.5646    0.9674 H   0  0  0  0  0  0  0  0  0  0  0  0
    0.8187   -1.1614   -0.6791 H   0  0  0  0  0  0  0  0  0  0  0  0
    3.1081   -1.6627   -0.6220 H   0  0  0  0  0  0  0  0  0  0  0  0
    5.3811   -1.4383   -1.4838 H   0  0  0  0  0  0  0  0  0  0  0  0
    5.3657    2.7630   -0.5791 H   0  0  0  0  0  0  0  0  0  0  0  0
  1  2  1  0
  2  3  1  0
  2  4  1  0
  4  5  1  0
  5  6  1  0
  6  7  1  0
  7  8  1  0
  8  9  1  0
  9 10  2  0
 10 11  1  0
 11 12  2  0
 12 13  1  0
 12 14  1  0
 14 15  2  0
 15 16  1  0
 15  9  1  0
  1 17  1  0
  1 18  1  0
  1 19  1  0
  2 20  1  0
  3 21  1  0
  3 22  1  0
  3 23  1  0
  4 24  1  0
  5 25  1  0
  5 26  1  0
  6 27  1  0
  6 28  1  0
  7 29  1  0
  7 30  1  0
 10 31  1  0
 11 32  1  0
 14 33  1  0
M  END
$$$$
