
     RDKit          3D

 36 38  0  0  0  0  0  0  0  0999 V2000
   -2.7007    0.8006   -2.2844 C   0  0  0  0  0  0  0  0  0  0  0  0
   -2.2741    0.2242   -0.9702 C   0  0  0  0  0  0  0  0  0  0  0  0
   -0.9523    0.2146   -0.6885 N   0  0  0  0  0  0  0  0  0  0  0  0
   -0.6066   -0.3303    0.5078 C   0  0  0  0  0  0  0  0  0  0  0  0
    1.1431   -0.3533    0.8874 S   0  0  0  0  0  6  0  0  0  0  0  0
    1.3564    0.5306    2.0246 O   0  0  0  0  0  0  0  0  0  0  0  0
    1.5666   -1.7461    0.9189 O   0  0  0  0  0  0  0  0  0  0  0  0
    1.8729    0.4137   -0.5534 C   0  0  0  0  0  0  0  0  0  0  0  0
    3.3729    0.4743   -0.3912 C   0  0  0  0  0  0  0  0  0  0  0  0
    4.1806   -0.5847   -0.8333 C   0  0  0  0  0  0  0  0  0  0  0  0
    5.5680   -0.5293   -0.6804 C   0  0  0  0  0  0  0  0  0  0  0  0
    6.1555    0.5830   -0.0826 C   0  0  0  0  0  0  0  0  0  0  0  0
    7.8646    0.6514    0.1035 Cl  0  0  0  0  0  0  0  0  0  0  0  0
    5.3670    1.6389    0.3680 C   0  0  0  0  0  0  0  0  0  0  0  0
    3.9796    1.5847    0.2155 C   0  0  0  0  0  0  0  0  0  0  0  0
   -1.4149   -0.8646    1.4460 N   0  0  0  0  0  0  0  0  0  0  0  0
   -2.7040   -0.8128    1.1084 C   0  0  0  0  0  0  0  0  0  0  0  0
   -3.1881   -0.2806   -0.0750 C   0  0  0  0  0  0  0  0  0  0  0  0
   -4.6702   -0.4157   -0.1611 C   0  0  0  0  0  0  0  0  0  0  0  0
   -5.0319   -0.6737    1.3105 C   0  0  0  0  0  0  0  0  0  0  0  0
   -3.8209   -1.3725    1.9434 C   0  0  0  0  0  0  0  0  0  0  0  0
   -1.8321    1.1288   -2.8647 H   0  0  0  0  0  0  0  0  0  0  0  0
   -3.3499    1.6672   -2.1260 H   0  0  0  0  0  0  0  0  0  0  0  0
   -3.2373    0.0499   -2.8728 H   0  0  0  0  0  0  0  0  0  0  0  0
    1.6088   -0.1766   -1.4366 H   0  0  0  0  0  0  0  0  0  0  0  0
    1.4603    1.4219   -0.6606 H   0  0  0  0  0  0  0  0  0  0  0  0
    3.7356   -1.4682   -1.2883 H   0  0  0  0  0  0  0  0  0  0  0  0
    6.1813   -1.3588   -1.0222 H   0  0  0  0  0  0  0  0  0  0  0  0
    5.8233    2.5022    0.8447 H   0  0  0  0  0  0  0  0  0  0  0  0
    3.3760    2.4113    0.5873 H   0  0  0  0  0  0  0  0  0  0  0  0
   -4.9367   -1.2721   -0.7889 H   0  0  0  0  0  0  0  0  0  0  0  0
   -5.1575    0.4891   -0.5345 H   0  0  0  0  0  0  0  0  0  0  0  0
   -5.1947    0.2893    1.8145 H   0  0  0  0  0  0  0  0  0  0  0  0
   -5.9537   -1.2535    1.4190 H   0  0  0  0  0  0  0  0  0  0  0  0
   -3.7123   -1.1250    3.0025 H   0  0  0  0  0  0  0  0  0  0  0  0
   -3.8746   -2.4579    1.8128 H   0  0  0  0  0  0  0  0  0  0  0  0
  1  2  1  0
  2  3  2  0
  3  4  1  0
  4  5  1  0
  5  6  2  0
  5  7  2  0
  5  8  1  0
  8  9  1  0
  9 10  2  0
 10 11  1  0
 11 12  2  0
 12 13  1  0
 12 14  1  0
 14 15  2  0
  4 16  2  0
 16 17  1  0
 17 18  2  0
 18 19  1  0
 19 20  1  0
 20 21  1  0
 18  2  1  0
 15  9  1  0
 21 17  1  0
  1 22  1  0
  1 23  1  0
  1 24  1  0
  8 25  1  0
  8 26  1  0
 10 27  1  0
 11 28  1  0
 14 29  1  0
 15 30  1  0
 19 31  1  0
 19 32  1  0
 20 33  1  0
 20 34  1  0
 21 35  1  0
 21 36  1  0
M  END
$$$$
