
     RDKit          3D

 50 53  0  0  0  0  0  0  0  0999 V2000
   -1.9913   -4.0750   -0.9234 C   0  0  0  0  0  0  0  0  0  0  0  0
   -3.1923   -3.2299   -0.5357 C   0  0  0  0  0  0  0  0  0  0  0  0
   -2.8709   -2.3719    0.5587 O   0  0  0  0  0  0  0  0  0  0  0  0
   -2.4022   -1.1165    0.2960 C   0  0  0  0  0  0  0  0  0  0  0  0
   -2.3022   -0.2904    1.4187 C   0  0  0  0  0  0  0  0  0  0  0  0
   -1.8162    1.0143    1.3072 C   0  0  0  0  0  0  0  0  0  0  0  0
   -1.4214    1.5083    0.0603 C   0  0  0  0  0  0  0  0  0  0  0  0
   -0.8198    2.8308   -0.0524 C   0  0  0  0  0  0  0  0  0  0  0  0
    0.5105    3.2029   -0.2430 C   0  0  0  0  0  0  0  0  0  0  0  0
    1.7252    2.3888   -0.3809 C   0  0  0  0  0  0  0  0  0  0  0  0
    2.7423    2.8502   -0.8940 O   0  0  0  0  0  0  0  0  0  0  0  0
    1.6338    1.0915    0.1142 N   0  0  0  0  0  0  0  0  0  0  0  0
    2.6811    0.2238   -0.0115 N   0  0  0  0  0  0  0  0  0  0  0  0
    2.4727   -0.9645    0.4594 C   0  0  0  0  0  0  0  0  0  0  0  0
    3.5029   -2.0194    0.3965 C   0  0  0  0  0  0  0  0  0  0  0  0
    3.2052   -3.2846    0.9155 C   0  0  0  0  0  0  0  0  0  0  0  0
    4.1650   -4.2991    0.8658 C   0  0  0  0  0  0  0  0  0  0  0  0
    5.4095   -4.0374    0.2980 C   0  0  0  0  0  0  0  0  0  0  0  0
    6.3740   -4.9981    0.2293 O   0  0  0  0  0  0  0  0  0  0  0  0
    5.7106   -2.7818   -0.2198 C   0  0  0  0  0  0  0  0  0  0  0  0
    4.7550   -1.7660   -0.1716 C   0  0  0  0  0  0  0  0  0  0  0  0
    0.5783    4.5704   -0.3233 N   0  0  0  0  0  0  0  0  0  0  0  0
   -0.6357    5.0659   -0.1758 N   0  0  0  0  0  0  0  0  0  0  0  0
   -1.5228    4.0425   -0.0468 N   0  0  0  0  0  0  0  0  0  0  0  0
   -2.9173    4.2859    0.0442 C   0  0  0  0  0  0  0  0  0  0  0  0
   -3.7951    3.2833    0.0946 N   0  0  0  0  0  0  0  0  0  0  0  0
   -5.0341    3.9186    0.1542 O   0  0  0  0  0  0  0  0  0  0  0  0
   -4.8934    5.3019    0.1362 N   0  0  0  0  0  0  0  0  0  0  0  0
   -3.5817    5.5268    0.0742 C   0  0  0  0  0  0  0  0  0  0  0  0
   -3.0207    6.7506    0.0500 N   0  0  0  0  0  0  0  0  0  0  0  0
   -1.5203    0.6828   -1.0651 C   0  0  0  0  0  0  0  0  0  0  0  0
   -2.0084   -0.6237   -0.9469 C   0  0  0  0  0  0  0  0  0  0  0  0
   -1.1598   -3.4546   -1.2707 H   0  0  0  0  0  0  0  0  0  0  0  0
   -1.6252   -4.6388   -0.0588 H   0  0  0  0  0  0  0  0  0  0  0  0
   -2.2550   -4.7804   -1.7165 H   0  0  0  0  0  0  0  0  0  0  0  0
   -3.6149   -2.6868   -1.3883 H   0  0  0  0  0  0  0  0  0  0  0  0
   -3.9858   -3.8982   -0.1823 H   0  0  0  0  0  0  0  0  0  0  0  0
   -2.6115   -0.6676    2.3914 H   0  0  0  0  0  0  0  0  0  0  0  0
   -1.7492    1.6305    2.2015 H   0  0  0  0  0  0  0  0  0  0  0  0
    0.8018    0.7734    0.5916 H   0  0  0  0  0  0  0  0  0  0  0  0
    1.5099   -1.2429    0.9259 H   0  0  0  0  0  0  0  0  0  0  0  0
    2.2347   -3.4918    1.3585 H   0  0  0  0  0  0  0  0  0  0  0  0
    3.9273   -5.2781    1.2705 H   0  0  0  0  0  0  0  0  0  0  0  0
    6.0359   -5.8145    0.6317 H   0  0  0  0  0  0  0  0  0  0  0  0
    6.6862   -2.5925   -0.6594 H   0  0  0  0  0  0  0  0  0  0  0  0
    4.9924   -0.7842   -0.5766 H   0  0  0  0  0  0  0  0  0  0  0  0
   -2.0399    6.8766   -0.1986 H   0  0  0  0  0  0  0  0  0  0  0  0
   -3.6062    7.5581   -0.1366 H   0  0  0  0  0  0  0  0  0  0  0  0
   -1.2072    1.0403   -2.0449 H   0  0  0  0  0  0  0  0  0  0  0  0
   -2.0536   -1.2296   -1.8459 H   0  0  0  0  0  0  0  0  0  0  0  0
  1  2  1  0
  2  3  1  0
  3  4  1  0
  4  5  2  0
  5  6  1  0
  6  7  2  0
  7  8  1  0
  8  9  2  0
  9 10  1  0
 10 11  2  0
 10 12  1  0
 12 13  1  0
 13 14  2  3
 14 15  1  0
 15 16  2  0
 16 17  1  0
 17 18  2  0
 18 19  1  0
 18 20  1  0
 20 21  2  0
  9 22  1  0
 22 23  2  0
 23 24  1  0
 24 25  1  0
 25 26  2  0
 26 27  1  0
 27 28  1  0
 28 29  2  0
 29 30  1  0
  7 31  1  0
 31 32  2  0
 32  4  1  0
 24  8  1  0
 29 25  1  0
 21 15  1  0
  1 33  1  0
  1 34  1  0
  1 35  1  0
  2 36  1  0
  2 37  1  0
  5 38  1  0
  6 39  1  0
 12 40  1  0
 14 41  1  0
 16 42  1  0
 17 43  1  0
 19 44  1  0
 20 45  1  0
 21 46  1  0
 30 47  1  0
 30 48  1  0
 31 49  1  0
 32 50  1  0
M  END
$$$$
