
     RDKit          3D

 59 62  0  0  0  0  0  0  0  0999 V2000
   -9.3097    0.5016   -1.7272 C   0  0  0  0  0  0  0  0  0  0  0  0
   -8.0856    0.8101   -0.9155 C   0  0  0  0  0  0  0  0  0  0  0  0
   -8.1476    0.7762    0.4850 C   0  0  0  0  0  0  0  0  0  0  0  0
   -7.0221    1.0872    1.2502 C   0  0  0  0  0  0  0  0  0  0  0  0
   -5.8250    1.4264    0.6155 C   0  0  0  0  0  0  0  0  0  0  0  0
   -4.6469    1.7695    1.4431 C   0  0  0  0  0  0  0  0  0  0  0  0
   -4.7906    2.6193    2.3203 O   0  0  0  0  0  0  0  0  0  0  0  0
   -3.4316    1.1317    1.1794 N   0  0  0  0  0  0  0  0  0  0  0  0
   -2.3050    1.4973    2.0449 C   0  0  0  0  0  0  0  0  0  0  0  0
   -0.9380    1.1509    1.4278 C   0  0  0  0  0  0  0  0  0  0  0  0
   -0.9071   -0.2675    0.9867 N   0  0  0  0  0  0  0  0  0  0  0  0
    0.3794   -0.7450    0.6968 C   0  0  0  0  0  0  0  0  0  0  0  0
    0.7578   -1.2533   -0.5513 C   0  0  0  0  0  0  0  0  0  0  0  0
    2.0542   -1.7381   -0.7828 C   0  0  0  0  0  0  0  0  0  0  0  0
    3.0128   -1.7369    0.2330 C   0  0  0  0  0  0  0  0  0  0  0  0
    4.2856   -2.2519   -0.0769 N   0  0  0  0  0  0  0  0  0  0  0  0
    5.4105   -2.2800    0.7283 C   0  0  0  0  0  0  0  0  0  0  0  0
    5.4970   -1.8417    1.8726 O   0  0  0  0  0  0  0  0  0  0  0  0
    6.5972   -2.9971    0.0982 C   0  0  0  0  0  0  0  0  0  0  0  0
    6.8890   -2.5136   -1.6380 S   0  0  0  0  0  0  0  0  0  0  0  0
    7.2494   -0.7632   -1.5435 C   0  0  0  0  0  0  0  0  0  0  0  0
    7.1269   -0.0307   -2.7349 C   0  0  0  0  0  0  0  0  0  0  0  0
    7.3946    1.3419   -2.7674 C   0  0  0  0  0  0  0  0  0  0  0  0
    7.7921    1.9943   -1.6053 C   0  0  0  0  0  0  0  0  0  0  0  0
    8.1246    3.6811   -1.6395 Cl  0  0  0  0  0  0  0  0  0  0  0  0
    7.9287    1.2823   -0.4167 C   0  0  0  0  0  0  0  0  0  0  0  0
    7.6637   -0.0927   -0.3874 C   0  0  0  0  0  0  0  0  0  0  0  0
    2.6507   -1.2494    1.4838 C   0  0  0  0  0  0  0  0  0  0  0  0
    1.3534   -0.7653    1.7069 C   0  0  0  0  0  0  0  0  0  0  0  0
   -2.0024   -0.5903    0.0500 C   0  0  0  0  0  0  0  0  0  0  0  0
   -3.3685   -0.2493    0.6741 C   0  0  0  0  0  0  0  0  0  0  0  0
   -5.7622    1.5024   -0.7799 C   0  0  0  0  0  0  0  0  0  0  0  0
   -6.8902    1.1909   -1.5417 C   0  0  0  0  0  0  0  0  0  0  0  0
   -9.9916    1.3582   -1.7163 H   0  0  0  0  0  0  0  0  0  0  0  0
   -9.0498    0.2767   -2.7678 H   0  0  0  0  0  0  0  0  0  0  0  0
   -9.8272   -0.3757   -1.3225 H   0  0  0  0  0  0  0  0  0  0  0  0
   -9.0765    0.5146    0.9879 H   0  0  0  0  0  0  0  0  0  0  0  0
   -7.0789    1.0713    2.3354 H   0  0  0  0  0  0  0  0  0  0  0  0
   -2.3418    2.5704    2.2700 H   0  0  0  0  0  0  0  0  0  0  0  0
   -2.4367    0.9559    2.9910 H   0  0  0  0  0  0  0  0  0  0  0  0
   -0.7523    1.8009    0.5622 H   0  0  0  0  0  0  0  0  0  0  0  0
   -0.1682    1.3684    2.1762 H   0  0  0  0  0  0  0  0  0  0  0  0
    0.0609   -1.2719   -1.3826 H   0  0  0  0  0  0  0  0  0  0  0  0
    2.2942   -2.1122   -1.7746 H   0  0  0  0  0  0  0  0  0  0  0  0
    4.4225   -2.5729   -1.0300 H   0  0  0  0  0  0  0  0  0  0  0  0
    7.4991   -2.8235    0.6920 H   0  0  0  0  0  0  0  0  0  0  0  0
    6.3904   -4.0725    0.1241 H   0  0  0  0  0  0  0  0  0  0  0  0
    6.8222   -0.5232   -3.6569 H   0  0  0  0  0  0  0  0  0  0  0  0
    7.2931    1.8906   -3.7007 H   0  0  0  0  0  0  0  0  0  0  0  0
    8.2429    1.7869    0.4938 H   0  0  0  0  0  0  0  0  0  0  0  0
    7.7969   -0.6066    0.5599 H   0  0  0  0  0  0  0  0  0  0  0  0
    3.3423   -1.2415    2.3193 H   0  0  0  0  0  0  0  0  0  0  0  0
    1.1006   -0.4283    2.7099 H   0  0  0  0  0  0  0  0  0  0  0  0
   -2.0001   -1.6602   -0.1905 H   0  0  0  0  0  0  0  0  0  0  0  0
   -1.8807   -0.0214   -0.8808 H   0  0  0  0  0  0  0  0  0  0  0  0
   -4.1558   -0.4445   -0.0568 H   0  0  0  0  0  0  0  0  0  0  0  0
   -3.5620   -0.9067    1.5317 H   0  0  0  0  0  0  0  0  0  0  0  0
   -4.8445    1.8143   -1.2717 H   0  0  0  0  0  0  0  0  0  0  0  0
   -6.8340    1.2558   -2.6257 H   0  0  0  0  0  0  0  0  0  0  0  0
  1  2  1  0
  2  3  2  0
  3  4  1  0
  4  5  2  0
  5  6  1  0
  6  7  2  0
  6  8  1  0
  8  9  1  0
  9 10  1  0
 10 11  1  0
 11 12  1  0
 12 13  2  0
 13 14  1  0
 14 15  2  0
 15 16  1  0
 16 17  1  0
 17 18  2  0
 17 19  1  0
 19 20  1  0
 20 21  1  0
 21 22  2  0
 22 23  1  0
 23 24  2  0
 24 25  1  0
 24 26  1  0
 26 27  2  0
 15 28  1  0
 28 29  2  0
 11 30  1  0
 30 31  1  0
  5 32  1  0
 32 33  2  0
 33  2  1  0
 31  8  1  0
 29 12  1  0
 27 21  1  0
  1 34  1  0
  1 35  1  0
  1 36  1  0
  3 37  1  0
  4 38  1  0
  9 39  1  0
  9 40  1  0
 10 41  1  0
 10 42  1  0
 13 43  1  0
 14 44  1  0
 16 45  1  0
 19 46  1  0
 19 47  1  0
 22 48  1  0
 23 49  1  0
 26 50  1  0
 27 51  1  0
 28 52  1  0
 29 53  1  0
 30 54  1  0
 30 55  1  0
 31 56  1  0
 31 57  1  0
 32 58  1  0
 33 59  1  0
M  END
$$$$
