
     RDKit          3D

 48 49  0  0  0  0  0  0  0  0999 V2000
   -6.4527    0.5297   -1.9374 C   0  0  0  0  0  0  0  0  0  0  0  0
   -5.8019    1.3824   -0.8579 C   0  0  0  0  0  0  0  0  0  0  0  0
   -4.5968    0.7618   -0.3066 N   0  0  0  0  0  0  0  0  0  0  0  0
   -4.7760   -0.2179    0.7717 C   0  0  0  0  0  0  0  0  0  0  0  0
   -5.0268    0.4398    2.1202 C   0  0  0  0  0  0  0  0  0  0  0  0
   -3.4023    0.9583   -1.0057 C   0  0  0  0  0  0  0  0  0  0  0  0
   -3.3237    1.5878   -2.0586 O   0  0  0  0  0  0  0  0  0  0  0  0
   -2.1508    0.3793   -0.4768 C   0  0  0  0  0  0  0  0  0  0  0  0
   -1.4553   -0.5481   -1.2535 C   0  0  0  0  0  0  0  0  0  0  0  0
   -0.2563   -1.0865   -0.7785 C   0  0  0  0  0  0  0  0  0  0  0  0
    0.2614   -0.6937    0.4642 C   0  0  0  0  0  0  0  0  0  0  0  0
    1.4741   -1.2830    0.8657 N   0  0  0  0  0  0  0  0  0  0  0  0
    2.1933   -1.0492    2.0255 C   0  0  0  0  0  0  0  0  0  0  0  0
    1.8856   -0.2988    2.9463 O   0  0  0  0  0  0  0  0  0  0  0  0
    3.4769   -1.8832    2.0907 C   0  0  0  0  0  0  0  0  0  0  0  0
    4.0679   -2.1304    0.8208 O   0  0  0  0  0  0  0  0  0  0  0  0
    4.7867   -1.1312    0.2164 C   0  0  0  0  0  0  0  0  0  0  0  0
    4.9904    0.1451    0.7536 C   0  0  0  0  0  0  0  0  0  0  0  0
    5.7398    1.0985    0.0532 C   0  0  0  0  0  0  0  0  0  0  0  0
    6.2885    0.7762   -1.1939 C   0  0  0  0  0  0  0  0  0  0  0  0
    7.0768    1.7764   -1.9241 N   0  0  0  0  0  4  0  0  0  0  0  0
    7.2522    2.8768   -1.3836 O   0  0  0  0  0  0  0  0  0  0  0  0
    7.5216    1.4575   -3.0352 O   0  0  0  0  0  1  0  0  0  0  0  0
    6.0907   -0.4907   -1.7492 C   0  0  0  0  0  0  0  0  0  0  0  0
    5.3406   -1.4337   -1.0423 C   0  0  0  0  0  0  0  0  0  0  0  0
    5.1015   -2.9845   -1.7715 Cl  0  0  0  0  0  0  0  0  0  0  0  0
   -0.4329    0.2541    1.2213 C   0  0  0  0  0  0  0  0  0  0  0  0
   -1.6321    0.7989    0.7491 C   0  0  0  0  0  0  0  0  0  0  0  0
   -7.3344    1.0372   -2.3403 H   0  0  0  0  0  0  0  0  0  0  0  0
   -5.7614    0.3388   -2.7640 H   0  0  0  0  0  0  0  0  0  0  0  0
   -6.7710   -0.4385   -1.5396 H   0  0  0  0  0  0  0  0  0  0  0  0
   -6.5113    1.5723   -0.0465 H   0  0  0  0  0  0  0  0  0  0  0  0
   -5.5368    2.3569   -1.2845 H   0  0  0  0  0  0  0  0  0  0  0  0
   -3.9056   -0.8751    0.8452 H   0  0  0  0  0  0  0  0  0  0  0  0
   -5.6229   -0.8619    0.5099 H   0  0  0  0  0  0  0  0  0  0  0  0
   -4.2122    1.1164    2.3934 H   0  0  0  0  0  0  0  0  0  0  0  0
   -5.9527    1.0230    2.1147 H   0  0  0  0  0  0  0  0  0  0  0  0
   -5.1155   -0.3220    2.9009 H   0  0  0  0  0  0  0  0  0  0  0  0
   -1.8418   -0.8441   -2.2258 H   0  0  0  0  0  0  0  0  0  0  0  0
    0.2679   -1.8098   -1.3984 H   0  0  0  0  0  0  0  0  0  0  0  0
    1.9040   -1.9305    0.2110 H   0  0  0  0  0  0  0  0  0  0  0  0
    3.1961   -2.8567    2.5091 H   0  0  0  0  0  0  0  0  0  0  0  0
    4.1939   -1.4383    2.7896 H   0  0  0  0  0  0  0  0  0  0  0  0
    4.5788    0.4454    1.7138 H   0  0  0  0  0  0  0  0  0  0  0  0
    5.8813    2.0849    0.4940 H   0  0  0  0  0  0  0  0  0  0  0  0
    6.5096   -0.7517   -2.7189 H   0  0  0  0  0  0  0  0  0  0  0  0
   -0.0619    0.6030    2.1801 H   0  0  0  0  0  0  0  0  0  0  0  0
   -2.1444    1.5588    1.3322 H   0  0  0  0  0  0  0  0  0  0  0  0
  1  2  1  0
  2  3  1  0
  3  4  1  0
  4  5  1  0
  3  6  1  0
  6  7  2  0
  6  8  1  0
  8  9  2  0
  9 10  1  0
 10 11  2  0
 11 12  1  0
 12 13  1  0
 13 14  2  0
 13 15  1  0
 15 16  1  0
 16 17  1  0
 17 18  2  0
 18 19  1  0
 19 20  2  0
 20 21  1  0
 21 22  2  0
 21 23  1  0
 20 24  1  0
 24 25  2  0
 25 26  1  0
 11 27  1  0
 27 28  2  0
 28  8  1  0
 25 17  1  0
  1 29  1  0
  1 30  1  0
  1 31  1  0
  2 32  1  0
  2 33  1  0
  4 34  1  0
  4 35  1  0
  5 36  1  0
  5 37  1  0
  5 38  1  0
  9 39  1  0
 10 40  1  0
 12 41  1  0
 15 42  1  0
 15 43  1  0
 18 44  1  0
 19 45  1  0
 24 46  1  0
 27 47  1  0
 28 48  1  0
M  CHG  2  21   1  23  -1
M  END
$$$$
