
     RDKit          3D

 38 40  0  0  0  0  0  0  0  0999 V2000
    0.9531    1.7437   -1.0776 O   0  0  0  0  0  0  0  0  0  0  0  0
    0.4837    1.1865   -0.0876 C   0  0  0  0  0  0  0  0  0  0  0  0
    1.1754    1.0945    1.0907 N   0  0  0  0  0  0  0  0  0  0  0  0
    2.5191    1.6199    1.2050 C   0  0  0  0  0  0  0  0  0  0  0  0
    3.5470    0.5378    0.9804 C   0  0  0  0  0  0  0  0  0  0  0  0
    4.1163   -0.1454    2.0654 C   0  0  0  0  0  0  0  0  0  0  0  0
    5.0498   -1.1623    1.8495 C   0  0  0  0  0  0  0  0  0  0  0  0
    5.4131   -1.5055    0.5487 C   0  0  0  0  0  0  0  0  0  0  0  0
    6.5607   -2.7603    0.2856 Cl  0  0  0  0  0  0  0  0  0  0  0  0
    4.8505   -0.8422   -0.5389 C   0  0  0  0  0  0  0  0  0  0  0  0
    3.9182    0.1749   -0.3232 C   0  0  0  0  0  0  0  0  0  0  0  0
   -0.7817    0.6235   -0.0835 N   0  0  0  0  0  0  0  0  0  0  0  0
   -1.4015   -0.0781    1.0408 C   0  0  0  0  0  0  0  0  0  0  0  0
   -2.9045    0.1798    1.1186 C   0  0  0  0  0  0  0  0  0  0  0  0
   -3.5746   -0.1296   -0.1901 C   0  0  0  0  0  0  0  0  0  0  0  0
   -4.9207   -0.5168   -0.2271 C   0  0  0  0  0  0  0  0  0  0  0  0
   -5.5448   -0.7764   -1.4464 C   0  0  0  0  0  0  0  0  0  0  0  0
   -4.8332   -0.6401   -2.6354 C   0  0  0  0  0  0  0  0  0  0  0  0
   -3.4972   -0.2396   -2.6064 C   0  0  0  0  0  0  0  0  0  0  0  0
   -2.8553    0.0222   -1.3860 C   0  0  0  0  0  0  0  0  0  0  0  0
   -1.4134    0.4747   -1.3943 C   0  0  0  0  0  0  0  0  0  0  0  0
    1.0024    0.2644    1.6317 H   0  0  0  0  0  0  0  0  0  0  0  0
    2.6178    2.0258    2.2180 H   0  0  0  0  0  0  0  0  0  0  0  0
    2.6787    2.4513    0.5091 H   0  0  0  0  0  0  0  0  0  0  0  0
    3.8396    0.1117    3.0856 H   0  0  0  0  0  0  0  0  0  0  0  0
    5.4884   -1.6816    2.6973 H   0  0  0  0  0  0  0  0  0  0  0  0
    5.1282   -1.1105   -1.5545 H   0  0  0  0  0  0  0  0  0  0  0  0
    3.4748    0.6845   -1.1784 H   0  0  0  0  0  0  0  0  0  0  0  0
   -0.9556    0.2310    1.9902 H   0  0  0  0  0  0  0  0  0  0  0  0
   -1.1925   -1.1468    0.9076 H   0  0  0  0  0  0  0  0  0  0  0  0
   -3.0925    1.2325    1.3623 H   0  0  0  0  0  0  0  0  0  0  0  0
   -3.3297   -0.4344    1.9208 H   0  0  0  0  0  0  0  0  0  0  0  0
   -5.4902   -0.6173    0.6939 H   0  0  0  0  0  0  0  0  0  0  0  0
   -6.5880   -1.0802   -1.4693 H   0  0  0  0  0  0  0  0  0  0  0  0
   -5.3202   -0.8386   -3.5866 H   0  0  0  0  0  0  0  0  0  0  0  0
   -2.9565   -0.1263   -3.5439 H   0  0  0  0  0  0  0  0  0  0  0  0
   -0.8168   -0.2607   -1.9494 H   0  0  0  0  0  0  0  0  0  0  0  0
   -1.3477    1.4338   -1.9228 H   0  0  0  0  0  0  0  0  0  0  0  0
  1  2  2  0
  2  3  1  0
  3  4  1  0
  4  5  1  0
  5  6  2  0
  6  7  1  0
  7  8  2  0
  8  9  1  0
  8 10  1  0
 10 11  2  0
  2 12  1  0
 12 13  1  0
 13 14  1  0
 14 15  1  0
 15 16  2  0
 16 17  1  0
 17 18  2  0
 18 19  1  0
 19 20  2  0
 20 21  1  0
 11  5  1  0
 21 12  1  0
 20 15  1  0
  3 22  1  0
  4 23  1  0
  4 24  1  0
  6 25  1  0
  7 26  1  0
 10 27  1  0
 11 28  1  0
 13 29  1  0
 13 30  1  0
 14 31  1  0
 14 32  1  0
 16 33  1  0
 17 34  1  0
 18 35  1  0
 19 36  1  0
 21 37  1  0
 21 38  1  0
M  END
$$$$
