
     RDKit          3D

 51 53  0  0  0  0  0  0  0  0999 V2000
    5.6114   -2.8259    1.6039 C   0  0  0  0  0  0  0  0  0  0  0  0
    4.8454   -2.6431    0.4187 O   0  0  0  0  0  0  0  0  0  0  0  0
    3.5418   -2.2602    0.5898 C   0  0  0  0  0  0  0  0  0  0  0  0
    2.7932   -2.5244    1.7421 C   0  0  0  0  0  0  0  0  0  0  0  0
    1.4618   -2.1078    1.8330 C   0  0  0  0  0  0  0  0  0  0  0  0
    0.8716   -1.4316    0.7657 C   0  0  0  0  0  0  0  0  0  0  0  0
   -0.5301   -0.9810    0.8918 C   0  0  0  0  0  0  0  0  0  0  0  0
   -1.1021   -0.2937   -0.0450 N   0  0  0  0  0  0  0  0  0  0  0  0
   -2.4179    0.0556    0.1214 N   0  0  0  0  0  0  0  0  0  0  0  0
   -3.4001   -0.7177    0.7282 C   0  0  0  0  0  0  0  0  0  0  0  0
   -3.1918   -1.7686    1.3329 O   0  0  0  0  0  0  0  0  0  0  0  0
   -4.8133   -0.2086    0.6286 C   0  0  0  0  0  0  0  0  0  0  0  0
   -5.7610   -0.8474    1.4523 C   0  0  0  0  0  0  0  0  0  0  0  0
   -7.0991   -0.4570    1.4479 C   0  0  0  0  0  0  0  0  0  0  0  0
   -7.5097    0.5782    0.6183 C   0  0  0  0  0  0  0  0  0  0  0  0
   -6.5864    1.2208   -0.2106 C   0  0  0  0  0  0  0  0  0  0  0  0
   -5.2365    0.8361   -0.2216 C   0  0  0  0  0  0  0  0  0  0  0  0
   -4.2940    1.4279   -1.0250 O   0  0  0  0  0  0  0  0  0  0  0  0
   -4.7356    2.3926   -1.9753 C   0  0  0  0  0  0  0  0  0  0  0  0
    1.6037   -1.1826   -0.3976 C   0  0  0  0  0  0  0  0  0  0  0  0
    2.9438   -1.5951   -0.4958 C   0  0  0  0  0  0  0  0  0  0  0  0
    3.7318   -1.2703   -1.7478 C   0  0  0  0  0  0  0  0  0  0  0  0
    4.7360   -0.2637   -1.5336 O   0  0  0  0  0  0  0  0  0  0  0  0
    4.2583    0.9579   -1.1425 C   0  0  0  0  0  0  0  0  0  0  0  0
    4.8030    1.5192    0.0149 C   0  0  0  0  0  0  0  0  0  0  0  0
    5.7339    0.8511    0.7129 F   0  0  0  0  0  0  0  0  0  0  0  0
    4.3772    2.7643    0.4648 C   0  0  0  0  0  0  0  0  0  0  0  0
    4.8972    3.2867    1.5845 F   0  0  0  0  0  0  0  0  0  0  0  0
    3.4155    3.4675   -0.2467 C   0  0  0  0  0  0  0  0  0  0  0  0
    3.0072    4.6695    0.1840 F   0  0  0  0  0  0  0  0  0  0  0  0
    2.8853    2.9306   -1.4119 C   0  0  0  0  0  0  0  0  0  0  0  0
    1.9705    3.6185   -2.1097 F   0  0  0  0  0  0  0  0  0  0  0  0
    3.3092    1.6842   -1.8634 C   0  0  0  0  0  0  0  0  0  0  0  0
    2.8069    1.2028   -3.0096 F   0  0  0  0  0  0  0  0  0  0  0  0
    6.6642   -2.8933    1.3134 H   0  0  0  0  0  0  0  0  0  0  0  0
    5.3421   -3.7645    2.0983 H   0  0  0  0  0  0  0  0  0  0  0  0
    5.5072   -1.9757    2.2868 H   0  0  0  0  0  0  0  0  0  0  0  0
    3.2182   -3.0647    2.5822 H   0  0  0  0  0  0  0  0  0  0  0  0
    0.8964   -2.3206    2.7370 H   0  0  0  0  0  0  0  0  0  0  0  0
   -1.0298   -1.2330    1.8421 H   0  0  0  0  0  0  0  0  0  0  0  0
   -2.7373    0.7713   -0.5293 H   0  0  0  0  0  0  0  0  0  0  0  0
   -5.4552   -1.6601    2.1099 H   0  0  0  0  0  0  0  0  0  0  0  0
   -7.8150   -0.9616    2.0921 H   0  0  0  0  0  0  0  0  0  0  0  0
   -8.5523    0.8879    0.6128 H   0  0  0  0  0  0  0  0  0  0  0  0
   -6.9593    2.0240   -0.8385 H   0  0  0  0  0  0  0  0  0  0  0  0
   -5.1334    3.2816   -1.4757 H   0  0  0  0  0  0  0  0  0  0  0  0
   -5.4666    1.9617   -2.6673 H   0  0  0  0  0  0  0  0  0  0  0  0
   -3.8654    2.7029   -2.5618 H   0  0  0  0  0  0  0  0  0  0  0  0
    1.1300   -0.6631   -1.2289 H   0  0  0  0  0  0  0  0  0  0  0  0
    4.2529   -2.1765   -2.0803 H   0  0  0  0  0  0  0  0  0  0  0  0
    3.0762   -1.0015   -2.5834 H   0  0  0  0  0  0  0  0  0  0  0  0
  1  2  1  0
  2  3  1  0
  3  4  2  0
  4  5  1  0
  5  6  2  0
  6  7  1  0
  7  8  2  3
  8  9  1  0
  9 10  1  0
 10 11  2  0
 10 12  1  0
 12 13  2  0
 13 14  1  0
 14 15  2  0
 15 16  1  0
 16 17  2  0
 17 18  1  0
 18 19  1  0
  6 20  1  0
 20 21  2  0
 21 22  1  0
 22 23  1  0
 23 24  1  0
 24 25  2  0
 25 26  1  0
 25 27  1  0
 27 28  1  0
 27 29  2  0
 29 30  1  0
 29 31  1  0
 31 32  1  0
 31 33  2  0
 33 34  1  0
 21  3  1  0
 33 24  1  0
 17 12  1  0
  1 35  1  0
  1 36  1  0
  1 37  1  0
  4 38  1  0
  5 39  1  0
  7 40  1  0
  9 41  1  0
 13 42  1  0
 14 43  1  0
 15 44  1  0
 16 45  1  0
 19 46  1  0
 19 47  1  0
 19 48  1  0
 20 49  1  0
 22 50  1  0
 22 51  1  0
M  END
$$$$
