
     RDKit          3D

 67 72  0  0  0  0  0  0  0  0999 V2000
    1.7170   -2.1628    2.6680 O   0  0  0  0  0  0  0  0  0  0  0  0
    1.7331   -1.2882    1.7970 C   0  0  0  0  0  0  0  0  0  0  0  0
    3.0124   -0.4780    1.5019 C   0  0  0  0  0  0  0  0  0  0  0  0
    3.9259   -0.4582    2.7417 C   0  0  0  0  0  0  0  0  0  0  0  0
    5.3055    0.0901    2.4451 C   0  0  0  0  0  0  0  0  0  0  0  0
    5.5914    1.4471    2.6512 C   0  0  0  0  0  0  0  0  0  0  0  0
    6.8547    1.9567    2.3518 C   0  0  0  0  0  0  0  0  0  0  0  0
    7.8447    1.1145    1.8498 C   0  0  0  0  0  0  0  0  0  0  0  0
    7.5716   -0.2362    1.6446 C   0  0  0  0  0  0  0  0  0  0  0  0
    6.3075   -0.7470    1.9393 C   0  0  0  0  0  0  0  0  0  0  0  0
    2.6973    0.8829    1.0871 N   0  0  0  0  0  0  0  0  0  0  0  0
    1.7338    0.9528    0.0817 C   0  0  0  0  0  0  0  0  0  0  0  0
    1.9091    1.9751   -0.7706 N   0  0  0  0  0  0  0  0  0  0  0  0
    0.9424    2.1499   -1.6671 C   0  0  0  0  0  0  0  0  0  0  0  0
   -0.1956    1.4534   -1.7349 N   0  0  0  0  0  0  0  0  0  0  0  0
   -0.3740    0.4552   -0.8407 C   0  0  0  0  0  0  0  0  0  0  0  0
   -1.6856   -0.0765   -0.7501 N   0  0  0  0  0  0  0  0  0  0  0  0
   -2.4772    0.0765   -2.0058 C   0  0  0  0  0  0  0  0  0  0  0  0
   -3.3604    1.3459   -2.0095 C   0  0  0  0  0  0  0  0  0  0  0  0
   -4.3154    1.3141   -0.8842 N   0  0  0  0  0  0  0  0  0  0  0  0
   -5.4705    2.0706   -0.8871 C   0  0  0  0  0  0  0  0  0  0  0  0
   -5.5845    3.2460   -1.6420 C   0  0  0  0  0  0  0  0  0  0  0  0
   -6.7549    4.0165   -1.6386 C   0  0  0  0  0  0  0  0  0  0  0  0
   -7.8519    3.6158   -0.8860 C   0  0  0  0  0  0  0  0  0  0  0  0
   -7.7718    2.4516   -0.1331 C   0  0  0  0  0  0  0  0  0  0  0  0
   -6.5925    1.6962   -0.1310 C   0  0  0  0  0  0  0  0  0  0  0  0
   -3.9023    0.5471    0.3046 C   0  0  0  0  0  0  0  0  0  0  0  0
   -2.3634    0.5327    0.4407 C   0  0  0  0  0  0  0  0  0  0  0  0
    0.6425    0.0754    0.0525 C   0  0  0  0  0  0  0  0  0  0  0  0
    0.6575   -1.0775    0.9234 N   0  0  0  0  0  0  0  0  0  0  0  0
   -0.2234   -2.2294    0.7193 C   0  0  0  0  0  0  0  0  0  0  0  0
    0.3371   -3.1846   -0.3191 C   0  0  0  0  0  0  0  0  0  0  0  0
   -0.0987   -3.1368   -1.6513 C   0  0  0  0  0  0  0  0  0  0  0  0
    0.4497   -3.9925   -2.6099 C   0  0  0  0  0  0  0  0  0  0  0  0
    1.4424   -4.8980   -2.2446 C   0  0  0  0  0  0  0  0  0  0  0  0
    2.1961   -6.0430   -3.5449 Br  0  0  0  0  0  0  0  0  0  0  0  0
    1.8881   -4.9592   -0.9289 C   0  0  0  0  0  0  0  0  0  0  0  0
    1.3348   -4.1076    0.0307 C   0  0  0  0  0  0  0  0  0  0  0  0
    3.5249   -1.0000    0.6821 H   0  0  0  0  0  0  0  0  0  0  0  0
    3.4637    0.1329    3.5410 H   0  0  0  0  0  0  0  0  0  0  0  0
    4.0485   -1.4676    3.1538 H   0  0  0  0  0  0  0  0  0  0  0  0
    4.8297    2.1166    3.0426 H   0  0  0  0  0  0  0  0  0  0  0  0
    7.0683    3.0104    2.5112 H   0  0  0  0  0  0  0  0  0  0  0  0
    8.8314    1.5108    1.6224 H   0  0  0  0  0  0  0  0  0  0  0  0
    8.3458   -0.8928    1.2588 H   0  0  0  0  0  0  0  0  0  0  0  0
    6.1131   -1.8041    1.7760 H   0  0  0  0  0  0  0  0  0  0  0  0
    3.4874    1.4538    0.8051 H   0  0  0  0  0  0  0  0  0  0  0  0
    1.0778    2.9448   -2.3910 H   0  0  0  0  0  0  0  0  0  0  0  0
   -1.8472    0.0334   -2.9016 H   0  0  0  0  0  0  0  0  0  0  0  0
   -3.1350   -0.7995   -2.0720 H   0  0  0  0  0  0  0  0  0  0  0  0
   -3.9040    1.3760   -2.9609 H   0  0  0  0  0  0  0  0  0  0  0  0
   -2.7405    2.2458   -1.9379 H   0  0  0  0  0  0  0  0  0  0  0  0
   -4.7427    3.6076   -2.2234 H   0  0  0  0  0  0  0  0  0  0  0  0
   -6.8014    4.9324   -2.2201 H   0  0  0  0  0  0  0  0  0  0  0  0
   -8.7625    4.2065   -0.8866 H   0  0  0  0  0  0  0  0  0  0  0  0
   -8.6249    2.1217    0.4526 H   0  0  0  0  0  0  0  0  0  0  0  0
   -6.5797    0.7788    0.4496 H   0  0  0  0  0  0  0  0  0  0  0  0
   -4.2840   -0.4775    0.2218 H   0  0  0  0  0  0  0  0  0  0  0  0
   -4.3114    0.9906    1.2206 H   0  0  0  0  0  0  0  0  0  0  0  0
   -2.0952   -0.0286    1.3441 H   0  0  0  0  0  0  0  0  0  0  0  0
   -2.0321    1.5727    0.5874 H   0  0  0  0  0  0  0  0  0  0  0  0
   -1.2526   -1.9606    0.4766 H   0  0  0  0  0  0  0  0  0  0  0  0
   -0.3209   -2.7765    1.6617 H   0  0  0  0  0  0  0  0  0  0  0  0
   -0.8723   -2.4369   -1.9519 H   0  0  0  0  0  0  0  0  0  0  0  0
    0.1005   -3.9349   -3.6388 H   0  0  0  0  0  0  0  0  0  0  0  0
    2.6551   -5.6711   -0.6333 H   0  0  0  0  0  0  0  0  0  0  0  0
    1.6873   -4.1756    1.0592 H   0  0  0  0  0  0  0  0  0  0  0  0
  1  2  2  0
  2  3  1  0
  3  4  1  0
  4  5  1  0
  5  6  2  0
  6  7  1  0
  7  8  2  0
  8  9  1  0
  9 10  2  0
  3 11  1  0
 11 12  1  0
 12 13  2  0
 13 14  1  0
 14 15  2  0
 15 16  1  0
 16 17  1  0
 17 18  1  0
 18 19  1  0
 19 20  1  0
 20 21  1  0
 21 22  2  0
 22 23  1  0
 23 24  2  0
 24 25  1  0
 25 26  2  0
 20 27  1  0
 27 28  1  0
 16 29  2  0
 29 30  1  0
 30 31  1  0
 31 32  1  0
 32 33  2  0
 33 34  1  0
 34 35  2  0
 35 36  1  0
 35 37  1  0
 37 38  2  0
 30  2  1  0
 38 32  1  0
 10  5  1  0
 29 12  1  0
 28 17  1  0
 26 21  1  0
  3 39  1  0
  4 40  1  0
  4 41  1  0
  6 42  1  0
  7 43  1  0
  8 44  1  0
  9 45  1  0
 10 46  1  0
 11 47  1  0
 14 48  1  0
 18 49  1  0
 18 50  1  0
 19 51  1  0
 19 52  1  0
 22 53  1  0
 23 54  1  0
 24 55  1  0
 25 56  1  0
 26 57  1  0
 27 58  1  0
 27 59  1  0
 28 60  1  0
 28 61  1  0
 31 62  1  0
 31 63  1  0
 33 64  1  0
 34 65  1  0
 37 66  1  0
 38 67  1  0
M  END
$$$$
