
     RDKit          3D

 46 48  0  0  0  0  0  0  0  0999 V2000
    7.1820   -2.1619    1.9884 C   0  0  0  0  0  0  0  0  0  0  0  0
    6.6951   -0.7323    2.1329 C   0  0  0  0  0  0  0  0  0  0  0  0
    5.7016   -0.4457    1.1387 O   0  0  0  0  0  0  0  0  0  0  0  0
    6.1643   -0.0154   -0.0601 C   0  0  0  0  0  0  0  0  0  0  0  0
    7.3382    0.1257   -0.3670 O   0  0  0  0  0  0  0  0  0  0  0  0
    5.0365    0.2550   -0.9951 C   0  0  0  0  0  0  0  0  0  0  0  0
    5.3478    0.5575   -2.3273 C   0  0  0  0  0  0  0  0  0  0  0  0
    4.3289    0.8093   -3.2432 C   0  0  0  0  0  0  0  0  0  0  0  0
    2.9961    0.7631   -2.8299 C   0  0  0  0  0  0  0  0  0  0  0  0
    2.6664    0.4735   -1.4984 C   0  0  0  0  0  0  0  0  0  0  0  0
    1.2933    0.4501   -1.1695 N   0  0  0  0  0  0  0  0  0  0  0  0
    0.7339    0.2805    0.0844 C   0  0  0  0  0  0  0  0  0  0  0  0
    1.3321    0.1850    1.1497 O   0  0  0  0  0  0  0  0  0  0  0  0
   -0.7564    0.2634    0.1132 C   0  0  0  0  0  0  0  0  0  0  0  0
   -1.4082    0.8109    1.2221 C   0  0  0  0  0  0  0  0  0  0  0  0
   -2.8050    0.8093    1.2886 C   0  0  0  0  0  0  0  0  0  0  0  0
   -3.5711    0.2524    0.2555 C   0  0  0  0  0  0  0  0  0  0  0  0
   -4.9729    0.2924    0.4088 N   0  0  0  0  0  0  0  0  0  0  0  0
   -5.9431   -0.2195   -0.4443 C   0  0  0  0  0  0  0  0  0  0  0  0
   -5.6950   -0.8092   -1.4922 O   0  0  0  0  0  0  0  0  0  0  0  0
   -7.3079   -0.0117    0.0260 C   0  0  0  0  0  0  0  0  0  0  0  0
   -7.8664    0.7593    1.0350 C   0  0  0  0  0  0  0  0  0  0  0  0
   -9.2650    0.5291    1.0091 C   0  0  0  0  0  0  0  0  0  0  0  0
   -9.4851   -0.3573   -0.0172 C   0  0  0  0  0  0  0  0  0  0  0  0
   -8.3155   -0.6852   -0.6197 O   0  0  0  0  0  0  0  0  0  0  0  0
   -2.9137   -0.3060   -0.8435 C   0  0  0  0  0  0  0  0  0  0  0  0
   -1.5137   -0.3085   -0.9146 C   0  0  0  0  0  0  0  0  0  0  0  0
    3.6933    0.2165   -0.5858 C   0  0  0  0  0  0  0  0  0  0  0  0
    7.8704   -2.4213    2.7976 H   0  0  0  0  0  0  0  0  0  0  0  0
    7.6969   -2.3059    1.0330 H   0  0  0  0  0  0  0  0  0  0  0  0
    6.3375   -2.8601    2.0014 H   0  0  0  0  0  0  0  0  0  0  0  0
    6.2156   -0.6045    3.1088 H   0  0  0  0  0  0  0  0  0  0  0  0
    7.5243   -0.0178    2.0828 H   0  0  0  0  0  0  0  0  0  0  0  0
    6.3858    0.5936   -2.6544 H   0  0  0  0  0  0  0  0  0  0  0  0
    4.5731    1.0397   -4.2778 H   0  0  0  0  0  0  0  0  0  0  0  0
    2.2208    0.9591   -3.5664 H   0  0  0  0  0  0  0  0  0  0  0  0
    0.6583    0.6530   -1.9302 H   0  0  0  0  0  0  0  0  0  0  0  0
   -0.8294    1.2416    2.0379 H   0  0  0  0  0  0  0  0  0  0  0  0
   -3.2788    1.2484    2.1640 H   0  0  0  0  0  0  0  0  0  0  0  0
   -5.3024    0.7036    1.2692 H   0  0  0  0  0  0  0  0  0  0  0  0
   -7.3435    1.4223    1.7105 H   0  0  0  0  0  0  0  0  0  0  0  0
  -10.0202    0.9625    1.6500 H   0  0  0  0  0  0  0  0  0  0  0  0
  -10.3688   -0.8237   -0.4308 H   0  0  0  0  0  0  0  0  0  0  0  0
   -3.4585   -0.7604   -1.6652 H   0  0  0  0  0  0  0  0  0  0  0  0
   -1.0390   -0.7898   -1.7656 H   0  0  0  0  0  0  0  0  0  0  0  0
    3.4672   -0.0206    0.4494 H   0  0  0  0  0  0  0  0  0  0  0  0
  1  2  1  0
  2  3  1  0
  3  4  1  0
  4  5  2  0
  4  6  1  0
  6  7  2  0
  7  8  1  0
  8  9  2  0
  9 10  1  0
 10 11  1  0
 11 12  1  0
 12 13  2  0
 12 14  1  0
 14 15  2  0
 15 16  1  0
 16 17  2  0
 17 18  1  0
 18 19  1  0
 19 20  2  0
 19 21  1  0
 21 22  2  0
 22 23  1  0
 23 24  2  0
 24 25  1  0
 17 26  1  0
 26 27  2  0
 10 28  2  0
 28  6  1  0
 27 14  1  0
 25 21  1  0
  1 29  1  0
  1 30  1  0
  1 31  1  0
  2 32  1  0
  2 33  1  0
  7 34  1  0
  8 35  1  0
  9 36  1  0
 11 37  1  0
 15 38  1  0
 16 39  1  0
 18 40  1  0
 22 41  1  0
 23 42  1  0
 24 43  1  0
 26 44  1  0
 27 45  1  0
 28 46  1  0
M  END
$$$$
