
     RDKit          3D

 57 60  0  0  0  0  0  0  0  0999 V2000
   -5.2056   -2.0604    1.4440 C   0  0  0  0  0  0  0  0  0  0  0  0
   -4.1901   -2.5676    0.4198 C   0  0  0  0  0  0  0  0  0  0  0  0
   -4.6508   -3.9101   -0.1501 C   0  0  0  0  0  0  0  0  0  0  0  0
   -4.0261   -1.5351   -0.6978 C   0  0  0  0  0  0  0  0  0  0  0  0
   -4.6914   -1.6198   -1.7322 O   0  0  0  0  0  0  0  0  0  0  0  0
   -3.1480   -0.4807   -0.4844 N   0  0  0  0  0  0  0  0  0  0  0  0
   -2.9876    0.5321   -1.5381 C   0  0  0  0  0  0  0  0  0  0  0  0
   -1.5287    0.9916   -1.7050 C   0  0  0  0  0  0  0  0  0  0  0  0
   -0.9040    1.4354   -0.4317 N   0  0  0  0  0  0  0  0  0  0  0  0
   -0.5650    2.8170   -0.3897 C   0  0  0  0  0  0  0  0  0  0  0  0
   -1.4942    3.8312   -0.6638 C   0  0  0  0  0  0  0  0  0  0  0  0
   -1.1259    5.1742   -0.5673 C   0  0  0  0  0  0  0  0  0  0  0  0
    0.1713    5.5180   -0.1923 C   0  0  0  0  0  0  0  0  0  0  0  0
    1.1110    4.5233    0.0851 C   0  0  0  0  0  0  0  0  0  0  0  0
    0.7521    3.1791   -0.0129 C   0  0  0  0  0  0  0  0  0  0  0  0
    1.6403    2.1065    0.2067 N   0  0  0  0  0  0  0  0  0  0  0  0
    2.9440    2.1518    0.6426 C   0  0  0  0  0  0  0  0  0  0  0  0
    3.5465    3.1419    1.0407 O   0  0  0  0  0  0  0  0  0  0  0  0
    3.6525    0.8393    0.6502 C   0  0  0  0  0  0  0  0  0  0  0  0
    4.6597    0.6289    1.6032 C   0  0  0  0  0  0  0  0  0  0  0  0
    5.3684   -0.5746    1.6273 C   0  0  0  0  0  0  0  0  0  0  0  0
    5.0816   -1.5640    0.6912 C   0  0  0  0  0  0  0  0  0  0  0  0
    4.0681   -1.3647   -0.2512 C   0  0  0  0  0  0  0  0  0  0  0  0
    3.3655   -0.1604   -0.2877 C   0  0  0  0  0  0  0  0  0  0  0  0
    3.7209   -2.3018   -1.1890 O   0  0  0  0  0  0  0  0  0  0  0  0
    4.2691   -3.5883   -0.8770 C   0  0  0  0  0  0  0  0  0  0  0  0
    5.7241   -3.4678   -0.4563 C   0  0  0  0  0  0  0  0  0  0  0  0
    5.8375   -2.7068    0.7519 O   0  0  0  0  0  0  0  0  0  0  0  0
   -1.6381    1.0493    0.7992 C   0  0  0  0  0  0  0  0  0  0  0  0
   -2.2355   -0.3612    0.6616 C   0  0  0  0  0  0  0  0  0  0  0  0
   -6.1991   -1.9516    0.9925 H   0  0  0  0  0  0  0  0  0  0  0  0
   -5.2905   -2.7603    2.2831 H   0  0  0  0  0  0  0  0  0  0  0  0
   -4.9286   -1.0821    1.8454 H   0  0  0  0  0  0  0  0  0  0  0  0
   -3.2238   -2.7378    0.9050 H   0  0  0  0  0  0  0  0  0  0  0  0
   -3.9479   -4.2701   -0.9104 H   0  0  0  0  0  0  0  0  0  0  0  0
   -5.6371   -3.8337   -0.6200 H   0  0  0  0  0  0  0  0  0  0  0  0
   -4.7121   -4.6650    0.6396 H   0  0  0  0  0  0  0  0  0  0  0  0
   -3.6212    1.3806   -1.2510 H   0  0  0  0  0  0  0  0  0  0  0  0
   -3.3601    0.1581   -2.4984 H   0  0  0  0  0  0  0  0  0  0  0  0
   -1.4630    1.7544   -2.4890 H   0  0  0  0  0  0  0  0  0  0  0  0
   -0.9386    0.1383   -2.0609 H   0  0  0  0  0  0  0  0  0  0  0  0
   -2.5153    3.5884   -0.9407 H   0  0  0  0  0  0  0  0  0  0  0  0
   -1.8527    5.9538   -0.7803 H   0  0  0  0  0  0  0  0  0  0  0  0
    0.4582    6.5641   -0.1176 H   0  0  0  0  0  0  0  0  0  0  0  0
    2.1160    4.8233    0.3631 H   0  0  0  0  0  0  0  0  0  0  0  0
    1.1945    1.2101    0.0342 H   0  0  0  0  0  0  0  0  0  0  0  0
    4.9000    1.4080    2.3245 H   0  0  0  0  0  0  0  0  0  0  0  0
    6.1561   -0.7286    2.3598 H   0  0  0  0  0  0  0  0  0  0  0  0
    2.6211   -0.0111   -1.0634 H   0  0  0  0  0  0  0  0  0  0  0  0
    4.1859   -4.2094   -1.7737 H   0  0  0  0  0  0  0  0  0  0  0  0
    3.6582   -4.0431   -0.0879 H   0  0  0  0  0  0  0  0  0  0  0  0
    6.3287   -2.9829   -1.2335 H   0  0  0  0  0  0  0  0  0  0  0  0
    6.1468   -4.4588   -0.2651 H   0  0  0  0  0  0  0  0  0  0  0  0
   -0.9518    1.0634    1.6541 H   0  0  0  0  0  0  0  0  0  0  0  0
   -2.4533    1.7558    1.0093 H   0  0  0  0  0  0  0  0  0  0  0  0
   -2.7572   -0.6257    1.5839 H   0  0  0  0  0  0  0  0  0  0  0  0
   -1.4349   -1.0944    0.5072 H   0  0  0  0  0  0  0  0  0  0  0  0
  1  2  1  0
  2  3  1  0
  2  4  1  0
  4  5  2  0
  4  6  1  0
  6  7  1  0
  7  8  1  0
  8  9  1  0
  9 10  1  0
 10 11  2  0
 11 12  1  0
 12 13  2  0
 13 14  1  0
 14 15  2  0
 15 16  1  0
 16 17  1  0
 17 18  2  0
 17 19  1  0
 19 20  2  0
 20 21  1  0
 21 22  2  0
 22 23  1  0
 23 24  2  0
 23 25  1  0
 25 26  1  0
 26 27  1  0
 27 28  1  0
  9 29  1  0
 29 30  1  0
 30  6  1  0
 15 10  1  0
 24 19  1  0
 28 22  1  0
  1 31  1  0
  1 32  1  0
  1 33  1  0
  2 34  1  0
  3 35  1  0
  3 36  1  0
  3 37  1  0
  7 38  1  0
  7 39  1  0
  8 40  1  0
  8 41  1  0
 11 42  1  0
 12 43  1  0
 13 44  1  0
 14 45  1  0
 16 46  1  0
 20 47  1  0
 21 48  1  0
 24 49  1  0
 26 50  1  0
 26 51  1  0
 27 52  1  0
 27 53  1  0
 29 54  1  0
 29 55  1  0
 30 56  1  0
 30 57  1  0
M  END
$$$$
