
     RDKit          3D

 60 62  0  0  0  0  0  0  0  0999 V2000
   -3.7059    2.5288    3.2117 C   0  0  0  0  0  0  0  0  0  0  0  0
   -3.2491    2.6556    1.7879 C   0  0  0  0  0  0  0  0  0  0  0  0
   -3.5421    1.6538    0.8603 C   0  0  0  0  0  0  0  0  0  0  0  0
   -3.0801    1.7519   -0.4522 C   0  0  0  0  0  0  0  0  0  0  0  0
   -2.3020    2.8501   -0.8479 C   0  0  0  0  0  0  0  0  0  0  0  0
   -1.6614    2.8913   -2.5153 S   0  0  0  0  0  6  0  0  0  0  0  0
   -2.6721    3.5358   -3.3265 O   0  0  0  0  0  0  0  0  0  0  0  0
   -0.2974    3.3751   -2.4842 O   0  0  0  0  0  0  0  0  0  0  0  0
   -1.6317    1.2940   -3.0150 N   0  0  0  0  0  0  0  0  0  0  0  0
   -0.7117    0.2796   -2.5827 C   0  0  0  0  0  0  0  0  0  0  0  0
    0.1724    0.5102   -1.5170 C   0  0  0  0  0  0  0  0  0  0  0  0
    1.0486   -0.4802   -1.0533 C   0  0  0  0  0  0  0  0  0  0  0  0
    1.9442   -0.1880    0.1469 C   0  0  0  0  0  0  0  0  0  0  0  0
    1.4793   -0.9587    1.3689 C   0  0  0  0  0  0  0  0  0  0  0  0
    0.3591   -0.8545    1.8532 O   0  0  0  0  0  0  0  0  0  0  0  0
    2.4639   -1.7599    1.8593 O   0  0  0  0  0  0  0  0  0  0  0  0
    2.1163   -2.5872    2.9873 C   0  0  0  0  0  0  0  0  0  0  0  0
    3.4134   -2.9129    3.7168 C   0  0  0  0  0  0  0  0  0  0  0  0
    1.4383   -3.8595    2.4922 C   0  0  0  0  0  0  0  0  0  0  0  0
    3.4322   -0.3485   -0.1322 C   0  0  0  0  0  0  0  0  0  0  0  0
    3.8622   -0.9662   -1.1162 O   0  0  0  0  0  0  0  0  0  0  0  0
    4.3525    0.2961    0.8936 C   0  0  0  0  0  0  0  0  0  0  0  0
    5.1123    1.2820    0.3447 F   0  0  0  0  0  0  0  0  0  0  0  0
    5.2137   -0.5927    1.4559 F   0  0  0  0  0  0  0  0  0  0  0  0
    3.6731    0.8762    1.9220 F   0  0  0  0  0  0  0  0  0  0  0  0
    1.0102   -1.7291   -1.6777 C   0  0  0  0  0  0  0  0  0  0  0  0
    1.8817   -2.7002   -1.2520 O   0  0  0  0  0  0  0  0  0  0  0  0
    0.1183   -2.0225   -2.7268 C   0  0  0  0  0  0  0  0  0  0  0  0
    0.0879   -3.3043   -3.3174 C   0  0  0  0  0  0  0  0  0  0  0  0
   -0.7877   -3.6106   -4.3553 C   0  0  0  0  0  0  0  0  0  0  0  0
   -1.6538   -2.6377   -4.8245 C   0  0  0  0  0  0  0  0  0  0  0  0
   -1.6416   -1.3616   -4.2543 C   0  0  0  0  0  0  0  0  0  0  0  0
   -0.7612   -1.0111   -3.1953 C   0  0  0  0  0  0  0  0  0  0  0  0
   -2.0088    3.8798    0.0663 C   0  0  0  0  0  0  0  0  0  0  0  0
   -1.2010    5.0964   -0.2915 C   0  0  0  0  0  0  0  0  0  0  0  0
   -2.4767    3.7541    1.3868 C   0  0  0  0  0  0  0  0  0  0  0  0
   -2.9415    2.0177    3.8052 H   0  0  0  0  0  0  0  0  0  0  0  0
   -3.8955    3.5144    3.6497 H   0  0  0  0  0  0  0  0  0  0  0  0
   -4.6404    1.9612    3.2742 H   0  0  0  0  0  0  0  0  0  0  0  0
   -4.1273    0.7852    1.1557 H   0  0  0  0  0  0  0  0  0  0  0  0
   -3.3305    0.9565   -1.1492 H   0  0  0  0  0  0  0  0  0  0  0  0
   -2.1998    1.1473   -3.8433 H   0  0  0  0  0  0  0  0  0  0  0  0
    0.1912    1.4727   -1.0150 H   0  0  0  0  0  0  0  0  0  0  0  0
    1.8244    0.8746    0.4025 H   0  0  0  0  0  0  0  0  0  0  0  0
    1.4575   -2.0424    3.6743 H   0  0  0  0  0  0  0  0  0  0  0  0
    4.1209   -3.4229    3.0537 H   0  0  0  0  0  0  0  0  0  0  0  0
    3.9038   -1.9914    4.0488 H   0  0  0  0  0  0  0  0  0  0  0  0
    3.2310   -3.5457    4.5907 H   0  0  0  0  0  0  0  0  0  0  0  0
    0.5090   -3.6263    1.9624 H   0  0  0  0  0  0  0  0  0  0  0  0
    1.2015   -4.5312    3.3228 H   0  0  0  0  0  0  0  0  0  0  0  0
    2.0786   -4.3923    1.7805 H   0  0  0  0  0  0  0  0  0  0  0  0
    2.7766   -2.3814   -1.5085 H   0  0  0  0  0  0  0  0  0  0  0  0
    0.7560   -4.0859   -2.9580 H   0  0  0  0  0  0  0  0  0  0  0  0
   -0.7906   -4.6064   -4.7899 H   0  0  0  0  0  0  0  0  0  0  0  0
   -2.3423   -2.8661   -5.6342 H   0  0  0  0  0  0  0  0  0  0  0  0
   -2.3455   -0.6450   -4.6652 H   0  0  0  0  0  0  0  0  0  0  0  0
   -0.1346    4.8529   -0.3092 H   0  0  0  0  0  0  0  0  0  0  0  0
   -1.3492    5.8976    0.4414 H   0  0  0  0  0  0  0  0  0  0  0  0
   -1.5089    5.5040   -1.2594 H   0  0  0  0  0  0  0  0  0  0  0  0
   -2.2402    4.5277    2.1167 H   0  0  0  0  0  0  0  0  0  0  0  0
  1  2  1  0
  2  3  2  0
  3  4  1  0
  4  5  2  0
  5  6  1  0
  6  7  2  0
  6  8  2  0
  6  9  1  0
  9 10  1  0
 10 11  2  0
 11 12  1  0
 12 13  1  0
 13 14  1  0
 14 15  2  0
 14 16  1  0
 16 17  1  0
 17 18  1  0
 17 19  1  0
 13 20  1  0
 20 21  2  0
 20 22  1  0
 22 23  1  0
 22 24  1  0
 22 25  1  0
 12 26  2  0
 26 27  1  0
 26 28  1  0
 28 29  2  0
 29 30  1  0
 30 31  2  0
 31 32  1  0
 32 33  2  0
  5 34  1  0
 34 35  1  0
 34 36  2  0
 36  2  1  0
 33 10  1  0
 33 28  1  0
  1 37  1  0
  1 38  1  0
  1 39  1  0
  3 40  1  0
  4 41  1  0
  9 42  1  0
 11 43  1  0
 13 44  1  0
 17 45  1  0
 18 46  1  0
 18 47  1  0
 18 48  1  0
 19 49  1  0
 19 50  1  0
 19 51  1  0
 27 52  1  0
 29 53  1  0
 30 54  1  0
 31 55  1  0
 32 56  1  0
 35 57  1  0
 35 58  1  0
 35 59  1  0
 36 60  1  0
M  END
$$$$
