
     RDKit          3D

 54 57  0  0  0  0  0  0  0  0999 V2000
    4.0191    1.9852    4.5545 C   0  0  0  0  0  0  0  0  0  0  0  0
    3.5020    1.6211    3.1723 C   0  0  0  0  0  0  0  0  0  0  0  0
    3.4853    0.1185    2.9368 C   0  0  0  0  0  0  0  0  0  0  0  0
    3.9768   -0.6659    3.7472 O   0  0  0  0  0  0  0  0  0  0  0  0
    2.8929   -0.3159    1.7601 N   0  0  0  0  0  0  0  0  0  0  0  0
    2.7763   -1.7569    1.5069 C   0  0  0  0  0  0  0  0  0  0  0  0
    1.4666   -2.1247    0.7878 C   0  0  0  0  0  0  0  0  0  0  0  0
    1.2295   -1.3246   -0.4438 N   0  0  0  0  0  0  0  0  0  0  0  0
    1.1729   -2.1037   -1.6305 C   0  0  0  0  0  0  0  0  0  0  0  0
    2.2410   -2.9070   -2.0542 C   0  0  0  0  0  0  0  0  0  0  0  0
    2.1447   -3.6380   -3.2392 C   0  0  0  0  0  0  0  0  0  0  0  0
    0.9822   -3.5685   -4.0063 C   0  0  0  0  0  0  0  0  0  0  0  0
    0.8812   -4.4738   -5.4677 Cl  0  0  0  0  0  0  0  0  0  0  0  0
   -0.0931   -2.7758   -3.6061 C   0  0  0  0  0  0  0  0  0  0  0  0
   -0.0032   -2.0463   -2.4211 C   0  0  0  0  0  0  0  0  0  0  0  0
   -1.0272   -1.2159   -1.9195 N   0  0  0  0  0  0  0  0  0  0  0  0
   -2.2784   -0.9838   -2.4417 C   0  0  0  0  0  0  0  0  0  0  0  0
   -2.7654   -1.5118   -3.4337 O   0  0  0  0  0  0  0  0  0  0  0  0
   -3.1032   -0.0032   -1.6791 C   0  0  0  0  0  0  0  0  0  0  0  0
   -4.4957   -0.1666   -1.6653 C   0  0  0  0  0  0  0  0  0  0  0  0
   -5.3024    0.7299   -0.9605 C   0  0  0  0  0  0  0  0  0  0  0  0
   -4.7206    1.7951   -0.2767 C   0  0  0  0  0  0  0  0  0  0  0  0
   -3.3354    1.9859   -0.3252 C   0  0  0  0  0  0  0  0  0  0  0  0
   -2.5239    1.0853   -1.0137 C   0  0  0  0  0  0  0  0  0  0  0  0
   -2.7008    3.0394    0.2842 O   0  0  0  0  0  0  0  0  0  0  0  0
   -3.6318    4.0710    0.6356 C   0  0  0  0  0  0  0  0  0  0  0  0
   -4.8568    3.4780    1.3116 C   0  0  0  0  0  0  0  0  0  0  0  0
   -5.5697    2.6252    0.4084 O   0  0  0  0  0  0  0  0  0  0  0  0
    2.1124   -0.1453   -0.6121 C   0  0  0  0  0  0  0  0  0  0  0  0
    2.3299    0.5705    0.7328 C   0  0  0  0  0  0  0  0  0  0  0  0
    4.0000    3.0701    4.6942 H   0  0  0  0  0  0  0  0  0  0  0  0
    3.4040    1.5286    5.3370 H   0  0  0  0  0  0  0  0  0  0  0  0
    5.0492    1.6413    4.6922 H   0  0  0  0  0  0  0  0  0  0  0  0
    4.1483    2.0871    2.4216 H   0  0  0  0  0  0  0  0  0  0  0  0
    2.4864    2.0157    3.0604 H   0  0  0  0  0  0  0  0  0  0  0  0
    3.6379   -2.0404    0.8906 H   0  0  0  0  0  0  0  0  0  0  0  0
    2.8466   -2.3183    2.4443 H   0  0  0  0  0  0  0  0  0  0  0  0
    0.6286   -1.9133    1.4638 H   0  0  0  0  0  0  0  0  0  0  0  0
    1.4401   -3.2047    0.5960 H   0  0  0  0  0  0  0  0  0  0  0  0
    3.1565   -2.9649   -1.4730 H   0  0  0  0  0  0  0  0  0  0  0  0
    2.9791   -4.2563   -3.5607 H   0  0  0  0  0  0  0  0  0  0  0  0
   -0.9834   -2.7417   -4.2251 H   0  0  0  0  0  0  0  0  0  0  0  0
   -0.7738   -0.8094   -1.0232 H   0  0  0  0  0  0  0  0  0  0  0  0
   -4.9533   -0.9971   -2.2005 H   0  0  0  0  0  0  0  0  0  0  0  0
   -6.3804    0.5931   -0.9423 H   0  0  0  0  0  0  0  0  0  0  0  0
   -1.4548    1.2679   -1.0539 H   0  0  0  0  0  0  0  0  0  0  0  0
   -3.9015    4.6227   -0.2736 H   0  0  0  0  0  0  0  0  0  0  0  0
   -3.1209    4.7606    1.3146 H   0  0  0  0  0  0  0  0  0  0  0  0
   -4.5821    2.8939    2.1985 H   0  0  0  0  0  0  0  0  0  0  0  0
   -5.5394    4.2744    1.6244 H   0  0  0  0  0  0  0  0  0  0  0  0
    1.6530    0.5559   -1.3192 H   0  0  0  0  0  0  0  0  0  0  0  0
    3.0900   -0.4390   -1.0175 H   0  0  0  0  0  0  0  0  0  0  0  0
    1.3730    0.9404    1.1204 H   0  0  0  0  0  0  0  0  0  0  0  0
    2.9919    1.4298    0.5889 H   0  0  0  0  0  0  0  0  0  0  0  0
  1  2  1  0
  2  3  1  0
  3  4  2  0
  3  5  1  0
  5  6  1  0
  6  7  1  0
  7  8  1  0
  8  9  1  0
  9 10  2  0
 10 11  1  0
 11 12  2  0
 12 13  1  0
 12 14  1  0
 14 15  2  0
 15 16  1  0
 16 17  1  0
 17 18  2  0
 17 19  1  0
 19 20  2  0
 20 21  1  0
 21 22  2  0
 22 23  1  0
 23 24  2  0
 23 25  1  0
 25 26  1  0
 26 27  1  0
 27 28  1  0
  8 29  1  0
 29 30  1  0
 30  5  1  0
 15  9  1  0
 24 19  1  0
 28 22  1  0
  1 31  1  0
  1 32  1  0
  1 33  1  0
  2 34  1  0
  2 35  1  0
  6 36  1  0
  6 37  1  0
  7 38  1  0
  7 39  1  0
 10 40  1  0
 11 41  1  0
 14 42  1  0
 16 43  1  0
 20 44  1  0
 21 45  1  0
 24 46  1  0
 26 47  1  0
 26 48  1  0
 27 49  1  0
 27 50  1  0
 29 51  1  0
 29 52  1  0
 30 53  1  0
 30 54  1  0
M  END
$$$$
