
     RDKit          3D

 47 50  0  0  0  0  0  0  0  0999 V2000
   -2.1734   -3.0314    2.0238 C   0  0  0  0  0  0  0  0  0  0  0  0
   -1.3597   -2.2411    1.0391 C   0  0  0  0  0  0  0  0  0  0  0  0
   -0.1924   -2.7038    0.6864 N   0  0  0  0  0  0  0  0  0  0  0  0
    0.6200   -2.0087   -0.2180 N   0  0  0  0  0  0  0  0  0  0  0  0
    1.8920   -2.6425   -0.5537 C   0  0  0  0  0  0  0  0  0  0  0  0
    3.0598   -2.0699    0.2504 C   0  0  0  0  0  0  0  0  0  0  0  0
    3.8303   -2.7921    0.8816 O   0  0  0  0  0  0  0  0  0  0  0  0
    3.2436   -0.7088    0.1281 N   0  0  0  0  0  0  0  0  0  0  0  0
    4.3968   -0.0390    0.6810 C   0  0  0  0  0  0  0  0  0  0  0  0
    5.4598    0.0268   -0.3695 C   0  0  0  0  0  0  0  0  0  0  0  0
    6.3936   -0.9374   -0.6988 C   0  0  0  0  0  0  0  0  0  0  0  0
    7.2505   -0.5245   -1.7586 C   0  0  0  0  0  0  0  0  0  0  0  0
    6.9438    0.7414   -2.2043 C   0  0  0  0  0  0  0  0  0  0  0  0
    5.6301    1.4234   -1.3481 S   0  0  0  0  0  0  0  0  0  0  0  0
    0.2870   -0.7830   -0.8224 C   0  0  0  0  0  0  0  0  0  0  0  0
    1.0488   -0.1839   -1.5815 O   0  0  0  0  0  0  0  0  0  0  0  0
   -1.0248   -0.2935   -0.4269 C   0  0  0  0  0  0  0  0  0  0  0  0
   -1.6176    0.8191   -0.8622 N   0  0  0  0  0  0  0  0  0  0  0  0
   -2.7800    0.9002   -0.1571 N   0  0  0  0  0  0  0  0  0  0  0  0
   -3.5481    2.1032   -0.2444 C   0  0  0  0  0  0  0  0  0  0  0  0
   -4.5201    2.4446    0.7035 C   0  0  0  0  0  0  0  0  0  0  0  0
   -5.2404    3.6382    0.5787 C   0  0  0  0  0  0  0  0  0  0  0  0
   -4.9892    4.5051   -0.4822 C   0  0  0  0  0  0  0  0  0  0  0  0
   -4.0073    4.1892   -1.4162 C   0  0  0  0  0  0  0  0  0  0  0  0
   -3.2847    2.9997   -1.2954 C   0  0  0  0  0  0  0  0  0  0  0  0
   -3.0074   -0.2784    0.5658 C   0  0  0  0  0  0  0  0  0  0  0  0
   -4.2951   -0.6389    1.2138 C   0  0  0  0  0  0  0  0  0  0  0  0
   -1.8287   -0.9999    0.4726 C   0  0  0  0  0  0  0  0  0  0  0  0
   -1.5567   -3.8043    2.4922 H   0  0  0  0  0  0  0  0  0  0  0  0
   -3.0026   -3.5181    1.5037 H   0  0  0  0  0  0  0  0  0  0  0  0
   -2.5624   -2.3758    2.8072 H   0  0  0  0  0  0  0  0  0  0  0  0
    1.8165   -3.7175   -0.3562 H   0  0  0  0  0  0  0  0  0  0  0  0
    2.1048   -2.5043   -1.6196 H   0  0  0  0  0  0  0  0  0  0  0  0
    2.7387   -0.2219   -0.6114 H   0  0  0  0  0  0  0  0  0  0  0  0
    4.0766    0.9588    0.9985 H   0  0  0  0  0  0  0  0  0  0  0  0
    4.7607   -0.5747    1.5644 H   0  0  0  0  0  0  0  0  0  0  0  0
    6.4495   -1.8993   -0.2007 H   0  0  0  0  0  0  0  0  0  0  0  0
    8.0491   -1.1266   -2.1738 H   0  0  0  0  0  0  0  0  0  0  0  0
    7.4260    1.3008   -2.9939 H   0  0  0  0  0  0  0  0  0  0  0  0
   -4.7168    1.8390    1.5794 H   0  0  0  0  0  0  0  0  0  0  0  0
   -5.9907    3.8989    1.3215 H   0  0  0  0  0  0  0  0  0  0  0  0
   -5.5484    5.4327   -0.5736 H   0  0  0  0  0  0  0  0  0  0  0  0
   -3.7977    4.8677   -2.2394 H   0  0  0  0  0  0  0  0  0  0  0  0
   -2.5216    2.7798   -2.0412 H   0  0  0  0  0  0  0  0  0  0  0  0
   -5.1537   -0.2234    0.6784 H   0  0  0  0  0  0  0  0  0  0  0  0
   -4.3132   -0.3037    2.2550 H   0  0  0  0  0  0  0  0  0  0  0  0
   -4.4454   -1.7221    1.2082 H   0  0  0  0  0  0  0  0  0  0  0  0
  1  2  1  0
  2  3  2  0
  3  4  1  0
  4  5  1  0
  5  6  1  0
  6  7  2  0
  6  8  1  0
  8  9  1  0
  9 10  1  0
 10 11  2  0
 11 12  1  0
 12 13  2  0
 13 14  1  0
  4 15  1  0
 15 16  2  0
 15 17  1  0
 17 18  2  0
 18 19  1  0
 19 20  1  0
 20 21  2  0
 21 22  1  0
 22 23  2  0
 23 24  1  0
 24 25  2  0
 19 26  1  0
 26 27  1  0
 26 28  2  0
 28  2  1  0
 14 10  1  0
 28 17  1  0
 25 20  1  0
  1 29  1  0
  1 30  1  0
  1 31  1  0
  5 32  1  0
  5 33  1  0
  8 34  1  0
  9 35  1  0
  9 36  1  0
 11 37  1  0
 12 38  1  0
 13 39  1  0
 21 40  1  0
 22 41  1  0
 23 42  1  0
 24 43  1  0
 25 44  1  0
 27 45  1  0
 27 46  1  0
 27 47  1  0
M  END
$$$$
