
     RDKit          3D

 36 35  0  0  0  0  0  0  0  0999 V2000
    1.8748   -2.8348   -2.5934 C   0  0  0  0  0  0  0  0  0  0  0  0
    2.1788   -1.3673   -2.3207 C   0  0  0  0  0  0  0  0  0  0  0  0
    2.1827   -1.0390   -0.8827 N   0  0  0  0  0  0  0  0  0  0  0  0
    3.5163   -0.9228   -0.2648 C   0  0  0  0  0  0  0  0  0  0  0  0
    4.1653   -2.2649    0.0347 C   0  0  0  0  0  0  0  0  0  0  0  0
    1.0098   -0.9599   -0.1040 C   0  0  0  0  0  0  0  0  0  0  0  0
    0.9453   -1.0822    1.5782 S   0  0  0  0  0  0  0  0  0  0  0  0
   -0.5307   -0.7529   -0.9606 S   0  0  0  0  0  0  0  0  0  0  0  0
   -0.4097    1.2057   -1.6051 S   0  0  0  0  0  0  0  0  0  0  0  0
   -0.7730    2.1195   -0.1282 C   0  0  0  0  0  0  0  0  0  0  0  0
    0.5196    2.9342    0.5939 S   0  0  0  0  0  0  0  0  0  0  0  0
   -2.1112    2.1508    0.3215 N   0  0  0  0  0  0  0  0  0  0  0  0
   -2.4618    2.7524    1.6233 C   0  0  0  0  0  0  0  0  0  0  0  0
   -2.1928    1.8195    2.7969 C   0  0  0  0  0  0  0  0  0  0  0  0
   -3.2625    1.6936   -0.4817 C   0  0  0  0  0  0  0  0  0  0  0  0
   -3.9894    0.5009    0.1211 C   0  0  0  0  0  0  0  0  0  0  0  0
    1.8864   -3.0261   -3.6712 H   0  0  0  0  0  0  0  0  0  0  0  0
    2.6148   -3.4912   -2.1279 H   0  0  0  0  0  0  0  0  0  0  0  0
    0.8927   -3.1260   -2.2104 H   0  0  0  0  0  0  0  0  0  0  0  0
    1.4544   -0.7425   -2.8475 H   0  0  0  0  0  0  0  0  0  0  0  0
    3.1567   -1.1141   -2.7460 H   0  0  0  0  0  0  0  0  0  0  0  0
    3.4529   -0.3355    0.6563 H   0  0  0  0  0  0  0  0  0  0  0  0
    4.1551   -0.3406   -0.9395 H   0  0  0  0  0  0  0  0  0  0  0  0
    3.5126   -2.9060    0.6345 H   0  0  0  0  0  0  0  0  0  0  0  0
    4.4082   -2.7997   -0.8879 H   0  0  0  0  0  0  0  0  0  0  0  0
    5.1001   -2.1162    0.5844 H   0  0  0  0  0  0  0  0  0  0  0  0
   -3.5229    3.0280    1.6142 H   0  0  0  0  0  0  0  0  0  0  0  0
   -1.9120    3.6887    1.7595 H   0  0  0  0  0  0  0  0  0  0  0  0
   -2.4973    2.2973    3.7334 H   0  0  0  0  0  0  0  0  0  0  0  0
   -1.1329    1.5647    2.8798 H   0  0  0  0  0  0  0  0  0  0  0  0
   -2.7479    0.8823    2.6994 H   0  0  0  0  0  0  0  0  0  0  0  0
   -3.9550    2.5403   -0.5658 H   0  0  0  0  0  0  0  0  0  0  0  0
   -2.9752    1.4555   -1.5067 H   0  0  0  0  0  0  0  0  0  0  0  0
   -4.7672    0.1488   -0.5639 H   0  0  0  0  0  0  0  0  0  0  0  0
   -3.3066   -0.3287    0.3218 H   0  0  0  0  0  0  0  0  0  0  0  0
   -4.4786    0.7682    1.0627 H   0  0  0  0  0  0  0  0  0  0  0  0
  1  2  1  0
  2  3  1  0
  3  4  1  0
  4  5  1  0
  3  6  1  0
  6  7  2  0
  6  8  1  0
  8  9  1  0
  9 10  1  0
 10 11  2  0
 10 12  1  0
 12 13  1  0
 13 14  1  0
 12 15  1  0
 15 16  1  0
  1 17  1  0
  1 18  1  0
  1 19  1  0
  2 20  1  0
  2 21  1  0
  4 22  1  0
  4 23  1  0
  5 24  1  0
  5 25  1  0
  5 26  1  0
 13 27  1  0
 13 28  1  0
 14 29  1  0
 14 30  1  0
 14 31  1  0
 15 32  1  0
 15 33  1  0
 16 34  1  0
 16 35  1  0
 16 36  1  0
M  END
$$$$
