
     RDKit          3D

 51 55  0  0  0  0  0  0  0  0999 V2000
    1.8215    1.8294   -2.6229 O   0  0  0  0  0  0  0  0  0  0  0  0
    1.3020    0.7469   -2.3605 C   0  0  0  0  0  0  0  0  0  0  0  0
    0.0813    0.2563   -3.1503 C   0  0  0  0  0  0  0  0  0  0  0  0
   -1.0914    0.0682   -2.2827 N   0  0  0  0  0  0  0  0  0  0  0  0
   -1.2383   -1.1631   -1.6533 C   0  0  0  0  0  0  0  0  0  0  0  0
   -0.3612   -2.0306   -1.6970 O   0  0  0  0  0  0  0  0  0  0  0  0
   -2.5242   -1.4110   -0.9071 C   0  0  0  0  0  0  0  0  0  0  0  0
   -2.3717   -1.0100    0.5504 C   0  0  0  0  0  0  0  0  0  0  0  0
   -3.6615   -1.1214    1.2973 C   0  0  0  0  0  0  0  0  0  0  0  0
   -3.9989   -1.6897    2.5098 C   0  0  0  0  0  0  0  0  0  0  0  0
   -5.3860   -1.4694    2.6846 C   0  0  0  0  0  0  0  0  0  0  0  0
   -5.8081   -0.7809    1.5725 C   0  0  0  0  0  0  0  0  0  0  0  0
   -4.7709   -0.5674    0.7239 O   0  0  0  0  0  0  0  0  0  0  0  0
   -1.6369    0.6488    0.8223 S   0  0  0  0  0  0  0  0  0  0  0  0
   -2.2436    1.5308   -0.6149 C   0  0  0  0  0  0  0  0  0  0  0  0
   -3.0173    2.6731   -0.3548 C   0  0  0  0  0  0  0  0  0  0  0  0
   -3.4310    3.5063   -1.3927 C   0  0  0  0  0  0  0  0  0  0  0  0
   -3.0613    3.2155   -2.7002 C   0  0  0  0  0  0  0  0  0  0  0  0
   -2.2838    2.0871   -2.9731 C   0  0  0  0  0  0  0  0  0  0  0  0
   -1.8708    1.2234   -1.9441 C   0  0  0  0  0  0  0  0  0  0  0  0
    1.7395   -0.1689   -1.4182 N   0  0  0  0  0  0  0  0  0  0  0  0
    2.7908   -0.0285   -0.4934 C   0  0  0  0  0  0  0  0  0  0  0  0
    3.5708    1.1235   -0.3663 C   0  0  0  0  0  0  0  0  0  0  0  0
    4.5990    1.1837    0.5817 C   0  0  0  0  0  0  0  0  0  0  0  0
    4.8536    0.0914    1.4049 C   0  0  0  0  0  0  0  0  0  0  0  0
    4.0593   -1.0528    1.3048 C   0  0  0  0  0  0  0  0  0  0  0  0
    3.0424   -1.1175    0.3514 C   0  0  0  0  0  0  0  0  0  0  0  0
    4.2251   -2.1557    2.1049 O   0  0  0  0  0  0  0  0  0  0  0  0
    5.0465   -1.8571    3.2399 C   0  0  0  0  0  0  0  0  0  0  0  0
    6.2727   -1.0620    2.8226 C   0  0  0  0  0  0  0  0  0  0  0  0
    5.8914    0.2125    2.2928 O   0  0  0  0  0  0  0  0  0  0  0  0
    0.3447   -0.6960   -3.6277 H   0  0  0  0  0  0  0  0  0  0  0  0
   -0.1239    0.9608   -3.9612 H   0  0  0  0  0  0  0  0  0  0  0  0
   -2.7547   -2.4820   -0.9822 H   0  0  0  0  0  0  0  0  0  0  0  0
   -3.3596   -0.9111   -1.4113 H   0  0  0  0  0  0  0  0  0  0  0  0
   -1.6597   -1.7037    1.0158 H   0  0  0  0  0  0  0  0  0  0  0  0
   -3.3230   -2.1938    3.1868 H   0  0  0  0  0  0  0  0  0  0  0  0
   -6.0014   -1.7704    3.5207 H   0  0  0  0  0  0  0  0  0  0  0  0
   -6.7635   -0.3895    1.2509 H   0  0  0  0  0  0  0  0  0  0  0  0
   -3.2924    2.9309    0.6663 H   0  0  0  0  0  0  0  0  0  0  0  0
   -4.0295    4.3880   -1.1764 H   0  0  0  0  0  0  0  0  0  0  0  0
   -3.3797    3.8656   -3.5120 H   0  0  0  0  0  0  0  0  0  0  0  0
   -2.0456    1.8790   -4.0129 H   0  0  0  0  0  0  0  0  0  0  0  0
    1.2294   -1.0525   -1.3874 H   0  0  0  0  0  0  0  0  0  0  0  0
    3.4056    1.9963   -0.9900 H   0  0  0  0  0  0  0  0  0  0  0  0
    5.2035    2.0827    0.6662 H   0  0  0  0  0  0  0  0  0  0  0  0
    2.4453   -2.0230    0.2844 H   0  0  0  0  0  0  0  0  0  0  0  0
    5.3466   -2.8079    3.6904 H   0  0  0  0  0  0  0  0  0  0  0  0
    4.4422   -1.3074    3.9723 H   0  0  0  0  0  0  0  0  0  0  0  0
    6.8580   -1.5949    2.0626 H   0  0  0  0  0  0  0  0  0  0  0  0
    6.9188   -0.8817    3.6874 H   0  0  0  0  0  0  0  0  0  0  0  0
  1  2  2  0
  2  3  1  0
  3  4  1  0
  4  5  1  0
  5  6  2  0
  5  7  1  0
  7  8  1  0
  8  9  1  0
  9 10  2  0
 10 11  1  0
 11 12  2  0
 12 13  1  0
  8 14  1  0
 14 15  1  0
 15 16  2  0
 16 17  1  0
 17 18  2  0
 18 19  1  0
 19 20  2  0
  2 21  1  0
 21 22  1  0
 22 23  2  0
 23 24  1  0
 24 25  2  0
 25 26  1  0
 26 27  2  0
 26 28  1  0
 28 29  1  0
 29 30  1  0
 30 31  1  0
 20  4  1  0
 27 22  1  0
 13  9  1  0
 20 15  1  0
 31 25  1  0
  3 32  1  0
  3 33  1  0
  7 34  1  0
  7 35  1  0
  8 36  1  0
 10 37  1  0
 11 38  1  0
 12 39  1  0
 16 40  1  0
 17 41  1  0
 18 42  1  0
 19 43  1  0
 21 44  1  0
 23 45  1  0
 24 46  1  0
 27 47  1  0
 29 48  1  0
 29 49  1  0
 30 50  1  0
 30 51  1  0
M  END
$$$$
