
     RDKit          3D

 55 59  0  0  0  0  0  0  0  0999 V2000
    8.7054    0.0526    1.0164 C   0  0  0  0  0  0  0  0  0  0  0  0
    7.3773   -0.4095    0.7876 O   0  0  0  0  0  0  0  0  0  0  0  0
    6.4015    0.5461    0.6695 C   0  0  0  0  0  0  0  0  0  0  0  0
    6.6038    1.9280    0.6392 C   0  0  0  0  0  0  0  0  0  0  0  0
    5.5131    2.7952    0.5243 C   0  0  0  0  0  0  0  0  0  0  0  0
    4.2173    2.2833    0.4338 C   0  0  0  0  0  0  0  0  0  0  0  0
    3.9978    0.9018    0.4467 C   0  0  0  0  0  0  0  0  0  0  0  0
    2.6318    0.3878    0.3823 C   0  0  0  0  0  0  0  0  0  0  0  0
    1.6295    0.7936    1.1445 N   0  0  0  0  0  0  0  0  0  0  0  0
    0.5213    0.0452    0.8420 N   0  0  0  0  0  0  0  0  0  0  0  0
    0.8491   -0.7735   -0.1283 C   0  0  0  0  0  0  0  0  0  0  0  0
   -0.1780   -1.9667   -0.8398 S   0  0  0  0  0  0  0  0  0  0  0  0
   -1.7830   -1.5330   -0.0442 C   0  0  0  0  0  0  0  0  0  0  0  0
   -2.3282   -0.2085   -0.6130 C   0  0  0  0  0  0  0  0  0  0  0  0
   -2.3068    0.0273   -1.8257 O   0  0  0  0  0  0  0  0  0  0  0  0
   -2.9451    0.7530    0.3138 C   0  0  0  0  0  0  0  0  0  0  0  0
   -2.6756    0.8866    1.6665 C   0  0  0  0  0  0  0  0  0  0  0  0
   -3.4338    1.9138    2.1629 N   0  0  0  0  0  0  0  0  0  0  0  0
   -4.2145    2.4546    1.1693 C   0  0  0  0  0  0  0  0  0  0  0  0
   -5.1373    3.5079    1.2227 C   0  0  0  0  0  0  0  0  0  0  0  0
   -5.7950    3.8555    0.0389 C   0  0  0  0  0  0  0  0  0  0  0  0
   -5.5354    3.1776   -1.1502 C   0  0  0  0  0  0  0  0  0  0  0  0
   -4.6033    2.1325   -1.1866 C   0  0  0  0  0  0  0  0  0  0  0  0
   -3.9251    1.7563   -0.0052 C   0  0  0  0  0  0  0  0  0  0  0  0
   -2.7820   -2.6747   -0.1991 C   0  0  0  0  0  0  0  0  0  0  0  0
   -3.1304   -3.4524    0.9193 C   0  0  0  0  0  0  0  0  0  0  0  0
   -4.0398   -4.5065    0.8011 C   0  0  0  0  0  0  0  0  0  0  0  0
   -4.6118   -4.7998   -0.4346 C   0  0  0  0  0  0  0  0  0  0  0  0
   -4.2762   -4.0408   -1.5528 C   0  0  0  0  0  0  0  0  0  0  0  0
   -3.3663   -2.9870   -1.4384 C   0  0  0  0  0  0  0  0  0  0  0  0
    2.1537   -0.5747   -0.4829 N   0  0  0  0  0  0  0  0  0  0  0  0
    2.8681   -1.1979   -1.5689 C   0  0  0  0  0  0  0  0  0  0  0  0
    5.0994    0.0402    0.5739 C   0  0  0  0  0  0  0  0  0  0  0  0
    9.0669    0.6498    0.1700 H   0  0  0  0  0  0  0  0  0  0  0  0
    9.3567   -0.8232    1.1068 H   0  0  0  0  0  0  0  0  0  0  0  0
    8.7693    0.6147    1.9533 H   0  0  0  0  0  0  0  0  0  0  0  0
    7.5950    2.3627    0.7083 H   0  0  0  0  0  0  0  0  0  0  0  0
    5.6717    3.8718    0.5106 H   0  0  0  0  0  0  0  0  0  0  0  0
    3.3745    2.9705    0.3543 H   0  0  0  0  0  0  0  0  0  0  0  0
   -1.5706   -1.4195    1.0236 H   0  0  0  0  0  0  0  0  0  0  0  0
   -1.9788    0.3724    2.3186 H   0  0  0  0  0  0  0  0  0  0  0  0
   -3.4100    2.2443    3.1181 H   0  0  0  0  0  0  0  0  0  0  0  0
   -5.3350    4.0413    2.1465 H   0  0  0  0  0  0  0  0  0  0  0  0
   -6.5190    4.6687    0.0489 H   0  0  0  0  0  0  0  0  0  0  0  0
   -6.0565    3.4612   -2.0609 H   0  0  0  0  0  0  0  0  0  0  0  0
   -4.4046    1.6147   -2.1216 H   0  0  0  0  0  0  0  0  0  0  0  0
   -2.6951   -3.2459    1.8962 H   0  0  0  0  0  0  0  0  0  0  0  0
   -4.3021   -5.1011    1.6752 H   0  0  0  0  0  0  0  0  0  0  0  0
   -5.3193   -5.6220   -0.5262 H   0  0  0  0  0  0  0  0  0  0  0  0
   -4.7208   -4.2694   -2.5180 H   0  0  0  0  0  0  0  0  0  0  0  0
   -3.1184   -2.4130   -2.3290 H   0  0  0  0  0  0  0  0  0  0  0  0
    3.2599   -2.1598   -1.2176 H   0  0  0  0  0  0  0  0  0  0  0  0
    2.1913   -1.3426   -2.4176 H   0  0  0  0  0  0  0  0  0  0  0  0
    3.6888   -0.5530   -1.8986 H   0  0  0  0  0  0  0  0  0  0  0  0
    4.9550   -1.0367    0.6268 H   0  0  0  0  0  0  0  0  0  0  0  0
  1  2  1  0
  2  3  1  0
  3  4  2  0
  4  5  1  0
  5  6  2  0
  6  7  1  0
  7  8  1  0
  8  9  2  0
  9 10  1  0
 10 11  2  0
 11 12  1  0
 12 13  1  0
 13 14  1  0
 14 15  2  0
 14 16  1  0
 16 17  2  0
 17 18  1  0
 18 19  1  0
 19 20  2  0
 20 21  1  0
 21 22  2  0
 22 23  1  0
 23 24  2  0
 13 25  1  0
 25 26  2  0
 26 27  1  0
 27 28  2  0
 28 29  1  0
 29 30  2  0
 11 31  1  0
 31 32  1  0
  7 33  2  0
 33  3  1  0
 31  8  1  0
 24 16  1  0
 30 25  1  0
 24 19  1  0
  1 34  1  0
  1 35  1  0
  1 36  1  0
  4 37  1  0
  5 38  1  0
  6 39  1  0
 13 40  1  0
 17 41  1  0
 18 42  1  0
 20 43  1  0
 21 44  1  0
 22 45  1  0
 23 46  1  0
 26 47  1  0
 27 48  1  0
 28 49  1  0
 29 50  1  0
 30 51  1  0
 32 52  1  0
 32 53  1  0
 32 54  1  0
 33 55  1  0
M  END
$$$$
