
     RDKit          3D

 45 47  0  0  0  0  0  0  0  0999 V2000
    9.7051   -0.7033   -0.6912 C   0  0  0  0  0  0  0  0  0  0  0  0
    8.7259    0.4590   -0.6160 C   0  0  0  0  0  0  0  0  0  0  0  0
    7.3119   -0.0211   -0.2878 C   0  0  0  0  0  0  0  0  0  0  0  0
    6.3360    1.1553   -0.1819 C   0  0  0  0  0  0  0  0  0  0  0  0
    4.9391    0.6993    0.0981 C   0  0  0  0  0  0  0  0  0  0  0  0
    4.6085   -0.2724    0.9245 N   0  0  0  0  0  0  0  0  0  0  0  0
    3.2402   -0.4625    0.9880 N   0  0  0  0  0  0  0  0  0  0  0  0
    2.5959    0.3816    0.2224 C   0  0  0  0  0  0  0  0  0  0  0  0
    1.2555    0.5463    0.0021 N   0  0  0  0  0  0  0  0  0  0  0  0
    0.3092   -0.2609    0.6087 C   0  0  0  0  0  0  0  0  0  0  0  0
    0.5406   -1.1957    1.3680 O   0  0  0  0  0  0  0  0  0  0  0  0
   -1.1161    0.1574    0.2207 C   0  0  0  0  0  0  0  0  0  0  0  0
   -2.0857   -0.7441    0.7293 O   0  0  0  0  0  0  0  0  0  0  0  0
   -3.3991   -0.4733    0.4709 C   0  0  0  0  0  0  0  0  0  0  0  0
   -3.8908    0.6205   -0.2423 C   0  0  0  0  0  0  0  0  0  0  0  0
   -5.2725    0.7816   -0.4340 C   0  0  0  0  0  0  0  0  0  0  0  0
   -6.1845   -0.1466    0.0819 C   0  0  0  0  0  0  0  0  0  0  0  0
   -7.6404   -0.0363   -0.0817 C   0  0  0  0  0  0  0  0  0  0  0  0
   -8.2328    1.1201   -0.8314 C   0  0  0  0  0  0  0  0  0  0  0  0
   -8.4137   -0.9913    0.4556 C   0  0  0  0  0  0  0  0  0  0  0  0
   -7.8831   -2.1439    1.2009 C   0  0  0  0  0  0  0  0  0  0  0  0
   -8.6404   -2.9877    1.6664 O   0  0  0  0  0  0  0  0  0  0  0  0
   -6.5092   -2.2174    1.3428 O   0  0  0  0  0  0  0  0  0  0  0  0
   -5.6684   -1.2322    0.7898 C   0  0  0  0  0  0  0  0  0  0  0  0
   -4.2979   -1.4039    0.9890 C   0  0  0  0  0  0  0  0  0  0  0  0
    3.5884    1.4694   -0.6444 S   0  0  0  0  0  0  0  0  0  0  0  0
   10.7082   -0.3379   -0.9318 H   0  0  0  0  0  0  0  0  0  0  0  0
    9.4083   -1.4181   -1.4668 H   0  0  0  0  0  0  0  0  0  0  0  0
    9.7575   -1.2352    0.2653 H   0  0  0  0  0  0  0  0  0  0  0  0
    8.7245    0.9917   -1.5753 H   0  0  0  0  0  0  0  0  0  0  0  0
    9.0664    1.1678    0.1493 H   0  0  0  0  0  0  0  0  0  0  0  0
    7.3270   -0.5803    0.6577 H   0  0  0  0  0  0  0  0  0  0  0  0
    6.9709   -0.7199   -1.0641 H   0  0  0  0  0  0  0  0  0  0  0  0
    6.3687    1.7356   -1.1136 H   0  0  0  0  0  0  0  0  0  0  0  0
    6.6517    1.8270    0.6273 H   0  0  0  0  0  0  0  0  0  0  0  0
    0.9898    1.2841   -0.6320 H   0  0  0  0  0  0  0  0  0  0  0  0
   -1.2792    1.1601    0.6353 H   0  0  0  0  0  0  0  0  0  0  0  0
   -1.1687    0.1808   -0.8750 H   0  0  0  0  0  0  0  0  0  0  0  0
   -3.2324    1.3723   -0.6646 H   0  0  0  0  0  0  0  0  0  0  0  0
   -5.6128    1.6488   -0.9945 H   0  0  0  0  0  0  0  0  0  0  0  0
   -7.9747    2.0693   -0.3492 H   0  0  0  0  0  0  0  0  0  0  0  0
   -9.3266    1.0637   -0.8692 H   0  0  0  0  0  0  0  0  0  0  0  0
   -7.8742    1.1385   -1.8664 H   0  0  0  0  0  0  0  0  0  0  0  0
   -9.4947   -0.9705    0.3718 H   0  0  0  0  0  0  0  0  0  0  0  0
   -3.9315   -2.2619    1.5476 H   0  0  0  0  0  0  0  0  0  0  0  0
  1  2  1  0
  2  3  1  0
  3  4  1  0
  4  5  1  0
  5  6  2  0
  6  7  1  0
  7  8  2  0
  8  9  1  0
  9 10  1  0
 10 11  2  0
 10 12  1  0
 12 13  1  0
 13 14  1  0
 14 15  2  0
 15 16  1  0
 16 17  2  0
 17 18  1  0
 18 19  1  0
 18 20  2  0
 20 21  1  0
 21 22  2  0
 21 23  1  0
 23 24  1  0
 24 25  2  0
  8 26  1  0
 26  5  1  0
 25 14  1  0
 24 17  1  0
  1 27  1  0
  1 28  1  0
  1 29  1  0
  2 30  1  0
  2 31  1  0
  3 32  1  0
  3 33  1  0
  4 34  1  0
  4 35  1  0
  9 36  1  0
 12 37  1  0
 12 38  1  0
 15 39  1  0
 16 40  1  0
 19 41  1  0
 19 42  1  0
 19 43  1  0
 20 44  1  0
 25 45  1  0
M  END
$$$$
