
     RDKit          3D

 57 60  0  0  0  0  0  0  0  0999 V2000
   -6.8620    0.4947    3.8248 C   0  0  0  0  0  0  0  0  0  0  0  0
   -6.7296    1.2433    2.6232 O   0  0  0  0  0  0  0  0  0  0  0  0
   -5.6698    0.9424    1.8120 C   0  0  0  0  0  0  0  0  0  0  0  0
   -5.6176    1.6858    0.6312 C   0  0  0  0  0  0  0  0  0  0  0  0
   -4.5960    1.4846   -0.3004 C   0  0  0  0  0  0  0  0  0  0  0  0
   -3.6108    0.5328   -0.0526 C   0  0  0  0  0  0  0  0  0  0  0  0
   -2.5398    0.2576   -0.9301 N   0  0  0  0  0  0  0  0  0  0  0  0
   -2.2137    0.8799   -2.1174 C   0  0  0  0  0  0  0  0  0  0  0  0
   -2.8531    1.7823   -2.6558 O   0  0  0  0  0  0  0  0  0  0  0  0
   -0.9925    0.3024   -2.8140 C   0  0  0  0  0  0  0  0  0  0  0  0
    0.1198    0.0278   -1.9132 N   0  0  0  0  0  0  0  0  0  0  0  0
    0.5315   -1.2278   -1.5538 C   0  0  0  0  0  0  0  0  0  0  0  0
    1.5450   -1.0897   -0.6249 C   0  0  0  0  0  0  0  0  0  0  0  0
    2.3633   -2.4053    0.1463 S   0  0  0  0  0  6  0  0  0  0  0  0
    2.8237   -1.9025    1.4253 O   0  0  0  0  0  0  0  0  0  0  0  0
    1.4000   -3.4915    0.0821 O   0  0  0  0  0  0  0  0  0  0  0  0
    3.7327   -2.8178   -0.9197 C   0  0  0  0  0  0  0  0  0  0  0  0
    4.7043   -1.6780   -1.0586 C   0  0  0  0  0  0  0  0  0  0  0  0
    4.6789   -0.8548   -2.1941 C   0  0  0  0  0  0  0  0  0  0  0  0
    5.5735    0.2091   -2.3174 C   0  0  0  0  0  0  0  0  0  0  0  0
    6.5073    0.4568   -1.3140 C   0  0  0  0  0  0  0  0  0  0  0  0
    6.5488   -0.3592   -0.1860 C   0  0  0  0  0  0  0  0  0  0  0  0
    5.6538   -1.4222   -0.0585 C   0  0  0  0  0  0  0  0  0  0  0  0
    1.7863    0.3035   -0.4423 C   0  0  0  0  0  0  0  0  0  0  0  0
    2.6764    1.0697    0.3416 C   0  0  0  0  0  0  0  0  0  0  0  0
    2.6517    2.4661    0.2661 C   0  0  0  0  0  0  0  0  0  0  0  0
    1.7500    3.1122   -0.5706 C   0  0  0  0  0  0  0  0  0  0  0  0
    0.8507    2.3848   -1.3531 C   0  0  0  0  0  0  0  0  0  0  0  0
    0.8877    0.9823   -1.2772 C   0  0  0  0  0  0  0  0  0  0  0  0
   -3.6522   -0.2170    1.1430 C   0  0  0  0  0  0  0  0  0  0  0  0
   -2.6346   -1.1343    1.2866 O   0  0  0  0  0  0  0  0  0  0  0  0
   -2.4831   -1.7448    2.5626 C   0  0  0  0  0  0  0  0  0  0  0  0
   -4.6830   -0.0119    2.0683 C   0  0  0  0  0  0  0  0  0  0  0  0
   -6.0100    0.6662    4.4911 H   0  0  0  0  0  0  0  0  0  0  0  0
   -7.7626    0.8444    4.3388 H   0  0  0  0  0  0  0  0  0  0  0  0
   -6.9915   -0.5717    3.6146 H   0  0  0  0  0  0  0  0  0  0  0  0
   -6.3835    2.4319    0.4298 H   0  0  0  0  0  0  0  0  0  0  0  0
   -4.6010    2.0848   -1.2039 H   0  0  0  0  0  0  0  0  0  0  0  0
   -1.9127   -0.4555   -0.5632 H   0  0  0  0  0  0  0  0  0  0  0  0
   -0.6274    1.0076   -3.5685 H   0  0  0  0  0  0  0  0  0  0  0  0
   -1.2756   -0.6284   -3.3163 H   0  0  0  0  0  0  0  0  0  0  0  0
    0.0592   -2.1193   -1.9502 H   0  0  0  0  0  0  0  0  0  0  0  0
    3.3244   -3.1207   -1.8899 H   0  0  0  0  0  0  0  0  0  0  0  0
    4.2291   -3.6925   -0.4857 H   0  0  0  0  0  0  0  0  0  0  0  0
    3.9553   -1.0235   -2.9888 H   0  0  0  0  0  0  0  0  0  0  0  0
    5.5377    0.8500   -3.1945 H   0  0  0  0  0  0  0  0  0  0  0  0
    7.2006    1.2884   -1.4097 H   0  0  0  0  0  0  0  0  0  0  0  0
    7.2752   -0.1643    0.5989 H   0  0  0  0  0  0  0  0  0  0  0  0
    5.6958   -2.0406    0.8369 H   0  0  0  0  0  0  0  0  0  0  0  0
    3.3883    0.5873    1.0069 H   0  0  0  0  0  0  0  0  0  0  0  0
    3.3433    3.0474    0.8715 H   0  0  0  0  0  0  0  0  0  0  0  0
    1.7386    4.1991   -0.6129 H   0  0  0  0  0  0  0  0  0  0  0  0
    0.1438    2.9046   -1.9939 H   0  0  0  0  0  0  0  0  0  0  0  0
   -2.3596   -0.9945    3.3500 H   0  0  0  0  0  0  0  0  0  0  0  0
   -1.5735   -2.3528    2.5353 H   0  0  0  0  0  0  0  0  0  0  0  0
   -3.3231   -2.4127    2.7783 H   0  0  0  0  0  0  0  0  0  0  0  0
   -4.7188   -0.5965    2.9774 H   0  0  0  0  0  0  0  0  0  0  0  0
  1  2  1  0
  2  3  1  0
  3  4  2  0
  4  5  1  0
  5  6  2  0
  6  7  1  0
  7  8  1  0
  8  9  2  0
  8 10  1  0
 10 11  1  0
 11 12  1  0
 12 13  2  0
 13 14  1  0
 14 15  2  0
 14 16  2  0
 14 17  1  0
 17 18  1  0
 18 19  2  0
 19 20  1  0
 20 21  2  0
 21 22  1  0
 22 23  2  0
 13 24  1  0
 24 25  2  0
 25 26  1  0
 26 27  2  0
 27 28  1  0
 28 29  2  0
  6 30  1  0
 30 31  1  0
 31 32  1  0
 30 33  2  0
 33  3  1  0
 29 11  1  0
 23 18  1  0
 29 24  1  0
  1 34  1  0
  1 35  1  0
  1 36  1  0
  4 37  1  0
  5 38  1  0
  7 39  1  0
 10 40  1  0
 10 41  1  0
 12 42  1  0
 17 43  1  0
 17 44  1  0
 19 45  1  0
 20 46  1  0
 21 47  1  0
 22 48  1  0
 23 49  1  0
 25 50  1  0
 26 51  1  0
 27 52  1  0
 28 53  1  0
 32 54  1  0
 32 55  1  0
 32 56  1  0
 33 57  1  0
M  END
$$$$
