
     RDKit          3D

 60 62  0  0  0  0  0  0  0  0999 V2000
   -6.1347   -0.7666   -2.5058 C   0  0  0  0  0  0  0  0  0  0  0  0
   -4.8687    0.0359   -2.4320 C   0  0  0  0  0  0  0  0  0  0  0  0
   -3.6260   -0.5958   -2.5089 C   0  0  0  0  0  0  0  0  0  0  0  0
   -2.4518    0.1502   -2.4131 C   0  0  0  0  0  0  0  0  0  0  0  0
   -2.5075    1.5384   -2.2161 C   0  0  0  0  0  0  0  0  0  0  0  0
   -0.9520    2.4084   -2.1141 S   0  0  0  0  0  6  0  0  0  0  0  0
    0.1040    1.5391   -2.5926 O   0  0  0  0  0  0  0  0  0  0  0  0
   -1.1189    3.7270   -2.6872 O   0  0  0  0  0  0  0  0  0  0  0  0
   -0.7668    2.6356   -0.4528 N   0  0  0  0  0  0  0  0  0  0  0  0
   -0.3051    1.5469    0.3462 C   0  0  0  0  0  0  0  0  0  0  0  0
    1.0481    1.1955    0.2665 C   0  0  0  0  0  0  0  0  0  0  0  0
    1.5594    0.1272    1.0126 C   0  0  0  0  0  0  0  0  0  0  0  0
    3.0388   -0.2216    0.9095 C   0  0  0  0  0  0  0  0  0  0  0  0
    3.2636   -1.5972    0.3108 C   0  0  0  0  0  0  0  0  0  0  0  0
    2.5144   -2.5570    0.4610 O   0  0  0  0  0  0  0  0  0  0  0  0
    4.4307   -1.6159   -0.3943 O   0  0  0  0  0  0  0  0  0  0  0  0
    4.8046   -2.8808   -0.9737 C   0  0  0  0  0  0  0  0  0  0  0  0
    5.5076   -3.7343    0.0756 C   0  0  0  0  0  0  0  0  0  0  0  0
    5.7380   -2.5815   -2.1406 C   0  0  0  0  0  0  0  0  0  0  0  0
    3.7706   -0.0755    2.2302 C   0  0  0  0  0  0  0  0  0  0  0  0
    4.4008   -1.0122    2.7328 O   0  0  0  0  0  0  0  0  0  0  0  0
    3.7054    1.3023    2.8594 C   0  0  0  0  0  0  0  0  0  0  0  0
    2.5644    1.5108    3.5676 F   0  0  0  0  0  0  0  0  0  0  0  0
    4.7396    1.5490    3.7090 F   0  0  0  0  0  0  0  0  0  0  0  0
    3.7543    2.2886    1.9178 F   0  0  0  0  0  0  0  0  0  0  0  0
    0.6758   -0.5683    1.8488 C   0  0  0  0  0  0  0  0  0  0  0  0
    1.1540   -1.6307    2.5718 O   0  0  0  0  0  0  0  0  0  0  0  0
   -0.6823   -0.2092    1.9853 C   0  0  0  0  0  0  0  0  0  0  0  0
   -1.5536   -0.8985    2.8547 C   0  0  0  0  0  0  0  0  0  0  0  0
   -2.8939   -0.5349    2.9810 C   0  0  0  0  0  0  0  0  0  0  0  0
   -3.3901    0.5306    2.2437 C   0  0  0  0  0  0  0  0  0  0  0  0
   -2.5452    1.2282    1.3798 C   0  0  0  0  0  0  0  0  0  0  0  0
   -1.1856    0.8725    1.2240 C   0  0  0  0  0  0  0  0  0  0  0  0
   -3.7490    2.1946   -2.1151 C   0  0  0  0  0  0  0  0  0  0  0  0
   -3.8942    3.6762   -1.9093 C   0  0  0  0  0  0  0  0  0  0  0  0
   -4.9200    1.4223   -2.2294 C   0  0  0  0  0  0  0  0  0  0  0  0
   -6.9397   -0.1834   -2.9653 H   0  0  0  0  0  0  0  0  0  0  0  0
   -6.4447   -1.0686   -1.5007 H   0  0  0  0  0  0  0  0  0  0  0  0
   -5.9946   -1.6640   -3.1175 H   0  0  0  0  0  0  0  0  0  0  0  0
   -3.5625   -1.6731   -2.6478 H   0  0  0  0  0  0  0  0  0  0  0  0
   -1.4958   -0.3649   -2.4845 H   0  0  0  0  0  0  0  0  0  0  0  0
   -0.4936    3.5826   -0.1968 H   0  0  0  0  0  0  0  0  0  0  0  0
    1.6991    1.7570   -0.4027 H   0  0  0  0  0  0  0  0  0  0  0  0
    3.5084    0.4908    0.2164 H   0  0  0  0  0  0  0  0  0  0  0  0
    3.9197   -3.4000   -1.3612 H   0  0  0  0  0  0  0  0  0  0  0  0
    6.3702   -3.2060    0.4962 H   0  0  0  0  0  0  0  0  0  0  0  0
    5.8493   -4.6827   -0.3497 H   0  0  0  0  0  0  0  0  0  0  0  0
    4.8375   -3.9548    0.9128 H   0  0  0  0  0  0  0  0  0  0  0  0
    5.2343   -1.9466   -2.8773 H   0  0  0  0  0  0  0  0  0  0  0  0
    6.6239   -2.0309   -1.8052 H   0  0  0  0  0  0  0  0  0  0  0  0
    6.0625   -3.5009   -2.6370 H   0  0  0  0  0  0  0  0  0  0  0  0
    1.4433   -2.3129    1.9240 H   0  0  0  0  0  0  0  0  0  0  0  0
   -1.1819   -1.7316    3.4497 H   0  0  0  0  0  0  0  0  0  0  0  0
   -3.5436   -1.0827    3.6586 H   0  0  0  0  0  0  0  0  0  0  0  0
   -4.4326    0.8224    2.3384 H   0  0  0  0  0  0  0  0  0  0  0  0
   -2.9623    2.0637    0.8229 H   0  0  0  0  0  0  0  0  0  0  0  0
   -4.9177    3.9375   -1.6173 H   0  0  0  0  0  0  0  0  0  0  0  0
   -3.6693    4.2130   -2.8356 H   0  0  0  0  0  0  0  0  0  0  0  0
   -3.2455    4.0288   -1.1024 H   0  0  0  0  0  0  0  0  0  0  0  0
   -5.8931    1.9076   -2.1581 H   0  0  0  0  0  0  0  0  0  0  0  0
  1  2  1  0
  2  3  2  0
  3  4  1  0
  4  5  2  0
  5  6  1  0
  6  7  2  0
  6  8  2  0
  6  9  1  0
  9 10  1  0
 10 11  2  0
 11 12  1  0
 12 13  1  0
 13 14  1  0
 14 15  2  0
 14 16  1  0
 16 17  1  0
 17 18  1  0
 17 19  1  0
 13 20  1  0
 20 21  2  0
 20 22  1  0
 22 23  1  0
 22 24  1  0
 22 25  1  0
 12 26  2  0
 26 27  1  0
 26 28  1  0
 28 29  2  0
 29 30  1  0
 30 31  2  0
 31 32  1  0
 32 33  2  0
  5 34  1  0
 34 35  1  0
 34 36  2  0
 36  2  1  0
 33 10  1  0
 33 28  1  0
  1 37  1  0
  1 38  1  0
  1 39  1  0
  3 40  1  0
  4 41  1  0
  9 42  1  0
 11 43  1  0
 13 44  1  0
 17 45  1  0
 18 46  1  0
 18 47  1  0
 18 48  1  0
 19 49  1  0
 19 50  1  0
 19 51  1  0
 27 52  1  0
 29 53  1  0
 30 54  1  0
 31 55  1  0
 32 56  1  0
 35 57  1  0
 35 58  1  0
 35 59  1  0
 36 60  1  0
M  END
$$$$
