
     RDKit          3D

 39 39  0  0  0  0  0  0  0  0999 V2000
   -1.8310   -3.5578    1.8091 C   0  0  0  0  0  0  0  0  0  0  0  0
   -0.4101   -3.1094    1.5242 C   0  0  0  0  0  0  0  0  0  0  0  0
   -0.3780   -2.2915    0.3450 O   0  0  0  0  0  0  0  0  0  0  0  0
   -0.6307   -0.9576    0.5331 C   0  0  0  0  0  0  0  0  0  0  0  0
   -0.8538   -0.4523    1.6292 O   0  0  0  0  0  0  0  0  0  0  0  0
   -0.5166   -0.1824   -0.8064 C   0  0  0  0  0  0  0  0  0  0  0  0
   -0.6206    1.2668   -0.6751 N   0  0  0  0  0  0  0  0  0  0  0  0
   -1.8058    1.8851   -0.3851 C   0  0  0  0  0  0  0  0  0  0  0  0
   -2.8316    1.2585   -0.1582 O   0  0  0  0  0  0  0  0  0  0  0  0
   -1.7076    3.3961   -0.3815 C   0  0  0  0  0  0  0  0  0  0  0  0
   -3.0276    4.0590   -0.0321 C   0  0  0  0  0  0  0  0  0  0  0  0
    0.8569   -0.3320   -1.4112 N   0  0  0  0  0  0  0  0  0  0  0  0
    2.0502   -0.2056   -0.6934 C   0  0  0  0  0  0  0  0  0  0  0  0
    2.1882    0.5049    0.5040 C   0  0  0  0  0  0  0  0  0  0  0  0
    3.4349    0.6460    1.1261 C   0  0  0  0  0  0  0  0  0  0  0  0
    4.5756    0.1052    0.5432 C   0  0  0  0  0  0  0  0  0  0  0  0
    4.4711   -0.5665   -0.6686 C   0  0  0  0  0  0  0  0  0  0  0  0
    3.2230   -0.7062   -1.2829 C   0  0  0  0  0  0  0  0  0  0  0  0
   -1.6016   -0.8457   -1.7322 C   0  0  0  0  0  0  0  0  0  0  0  0
   -1.9499   -0.0267   -2.7602 F   0  0  0  0  0  0  0  0  0  0  0  0
   -2.7326   -1.2258   -1.1040 F   0  0  0  0  0  0  0  0  0  0  0  0
   -1.0879   -1.9669   -2.3208 F   0  0  0  0  0  0  0  0  0  0  0  0
   -1.8601   -4.2308    2.6707 H   0  0  0  0  0  0  0  0  0  0  0  0
   -2.4807   -2.7008    2.0130 H   0  0  0  0  0  0  0  0  0  0  0  0
   -2.2516   -4.0761    0.9411 H   0  0  0  0  0  0  0  0  0  0  0  0
    0.2183   -3.9832    1.3234 H   0  0  0  0  0  0  0  0  0  0  0  0
    0.0287   -2.5885    2.3828 H   0  0  0  0  0  0  0  0  0  0  0  0
    0.1479    1.7858   -1.0730 H   0  0  0  0  0  0  0  0  0  0  0  0
   -0.9441    3.6931    0.3462 H   0  0  0  0  0  0  0  0  0  0  0  0
   -1.3839    3.7255   -1.3751 H   0  0  0  0  0  0  0  0  0  0  0  0
   -3.8064    3.7884   -0.7528 H   0  0  0  0  0  0  0  0  0  0  0  0
   -2.9206    5.1480   -0.0367 H   0  0  0  0  0  0  0  0  0  0  0  0
   -3.3702    3.7527    0.9619 H   0  0  0  0  0  0  0  0  0  0  0  0
    0.8812   -1.1872   -1.9743 H   0  0  0  0  0  0  0  0  0  0  0  0
    1.3388    0.9660    0.9997 H   0  0  0  0  0  0  0  0  0  0  0  0
    3.5099    1.1871    2.0663 H   0  0  0  0  0  0  0  0  0  0  0  0
    5.5428    0.2184    1.0255 H   0  0  0  0  0  0  0  0  0  0  0  0
    5.3588   -0.9761   -1.1433 H   0  0  0  0  0  0  0  0  0  0  0  0
    3.1770   -1.2176   -2.2422 H   0  0  0  0  0  0  0  0  0  0  0  0
  1  2  1  0
  2  3  1  0
  3  4  1  0
  4  5  2  0
  4  6  1  0
  6  7  1  0
  7  8  1  0
  8  9  2  0
  8 10  1  0
 10 11  1  0
  6 12  1  0
 12 13  1  0
 13 14  2  0
 14 15  1  0
 15 16  2  0
 16 17  1  0
 17 18  2  0
  6 19  1  0
 19 20  1  0
 19 21  1  0
 19 22  1  0
 18 13  1  0
  1 23  1  0
  1 24  1  0
  1 25  1  0
  2 26  1  0
  2 27  1  0
  7 28  1  0
 10 29  1  0
 10 30  1  0
 11 31  1  0
 11 32  1  0
 11 33  1  0
 12 34  1  0
 14 35  1  0
 15 36  1  0
 16 37  1  0
 17 38  1  0
 18 39  1  0
M  END
$$$$
