
     RDKit          3D

 56 61  0  0  0  0  0  0  0  0999 V2000
    7.7556    2.5519   -2.6532 C   0  0  0  0  0  0  0  0  0  0  0  0
    8.4055    1.6012   -1.8086 O   0  0  0  0  0  0  0  0  0  0  0  0
    7.6076    0.8856   -0.9609 C   0  0  0  0  0  0  0  0  0  0  0  0
    8.2866   -0.0207   -0.1477 C   0  0  0  0  0  0  0  0  0  0  0  0
    7.5866   -0.8079    0.7655 C   0  0  0  0  0  0  0  0  0  0  0  0
    6.1915   -0.6994    0.8635 C   0  0  0  0  0  0  0  0  0  0  0  0
    5.4729   -1.4815    1.7820 C   0  0  0  0  0  0  0  0  0  0  0  0
    4.0807   -1.3320    1.8103 C   0  0  0  0  0  0  0  0  0  0  0  0
    3.0042   -1.8883    2.5426 C   0  0  0  0  0  0  0  0  0  0  0  0
    1.8423   -1.3151    2.0497 C   0  0  0  0  0  0  0  0  0  0  0  0
    0.4640   -1.4936    2.4811 C   0  0  0  0  0  0  0  0  0  0  0  0
    0.2152   -1.9772    3.5901 O   0  0  0  0  0  0  0  0  0  0  0  0
   -0.5798   -1.1076    1.6360 N   0  0  0  0  0  0  0  0  0  0  0  0
   -0.4482   -0.7836    0.2113 C   0  0  0  0  0  0  0  0  0  0  0  0
   -1.7405   -1.0995   -0.5673 C   0  0  0  0  0  0  0  0  0  0  0  0
   -2.9414   -0.3971   -0.0656 N   0  0  0  0  0  0  0  0  0  0  0  0
   -4.1587   -1.1290   -0.4627 C   0  0  0  0  0  0  0  0  0  0  0  0
   -5.4119   -0.2747   -0.3943 C   0  0  0  0  0  0  0  0  0  0  0  0
   -6.4605   -0.6095    0.4964 C   0  0  0  0  0  0  0  0  0  0  0  0
   -7.6249    0.1669    0.5597 C   0  0  0  0  0  0  0  0  0  0  0  0
   -7.7189    1.2565   -0.2795 C   0  0  0  0  0  0  0  0  0  0  0  0
   -6.7097    1.5885   -1.1562 C   0  0  0  0  0  0  0  0  0  0  0  0
   -5.5462    0.8506   -1.2341 C   0  0  0  0  0  0  0  0  0  0  0  0
   -7.0073    2.6879   -1.9009 O   0  0  0  0  0  0  0  0  0  0  0  0
   -8.3326    2.9904   -1.4168 C   0  0  0  0  0  0  0  0  0  0  0  0
   -8.7739    2.1122   -0.3574 O   0  0  0  0  0  0  0  0  0  0  0  0
   -2.8685   -0.1548    1.3938 C   0  0  0  0  0  0  0  0  0  0  0  0
   -1.9445   -1.1140    2.1652 C   0  0  0  0  0  0  0  0  0  0  0  0
    2.1632   -0.4184    1.0661 O   0  0  0  0  0  0  0  0  0  0  0  0
    3.5158   -0.4256    0.9245 C   0  0  0  0  0  0  0  0  0  0  0  0
    4.1561    0.3494    0.0345 N   0  0  0  0  0  0  0  0  0  0  0  0
    5.4869    0.2023    0.0259 C   0  0  0  0  0  0  0  0  0  0  0  0
    6.2155    0.9778   -0.8680 C   0  0  0  0  0  0  0  0  0  0  0  0
    7.0645    2.0582   -3.3472 H   0  0  0  0  0  0  0  0  0  0  0  0
    8.5266    3.0502   -3.2497 H   0  0  0  0  0  0  0  0  0  0  0  0
    7.2428    3.3243   -2.0642 H   0  0  0  0  0  0  0  0  0  0  0  0
    9.3695   -0.1071   -0.2178 H   0  0  0  0  0  0  0  0  0  0  0  0
    8.1392   -1.5020    1.3950 H   0  0  0  0  0  0  0  0  0  0  0  0
    5.9699   -2.1813    2.4460 H   0  0  0  0  0  0  0  0  0  0  0  0
    3.0475   -2.6221    3.3379 H   0  0  0  0  0  0  0  0  0  0  0  0
    0.3704   -1.3642   -0.2268 H   0  0  0  0  0  0  0  0  0  0  0  0
   -0.2072    0.2823    0.1352 H   0  0  0  0  0  0  0  0  0  0  0  0
   -1.8917   -2.1869   -0.5181 H   0  0  0  0  0  0  0  0  0  0  0  0
   -1.5953   -0.8405   -1.6229 H   0  0  0  0  0  0  0  0  0  0  0  0
   -4.0743   -1.4611   -1.5088 H   0  0  0  0  0  0  0  0  0  0  0  0
   -4.2752   -2.0430    0.1390 H   0  0  0  0  0  0  0  0  0  0  0  0
   -6.3669   -1.4785    1.1514 H   0  0  0  0  0  0  0  0  0  0  0  0
   -8.4282   -0.0842    1.2432 H   0  0  0  0  0  0  0  0  0  0  0  0
   -4.7542    1.1398   -1.9184 H   0  0  0  0  0  0  0  0  0  0  0  0
   -8.3452    4.0242   -1.0487 H   0  0  0  0  0  0  0  0  0  0  0  0
   -9.0392    2.9080   -2.2549 H   0  0  0  0  0  0  0  0  0  0  0  0
   -3.8579   -0.1540    1.8666 H   0  0  0  0  0  0  0  0  0  0  0  0
   -2.4818    0.8656    1.5249 H   0  0  0  0  0  0  0  0  0  0  0  0
   -2.3180   -2.1449    2.0993 H   0  0  0  0  0  0  0  0  0  0  0  0
   -1.9311   -0.8372    3.2268 H   0  0  0  0  0  0  0  0  0  0  0  0
    5.6532    1.6626   -1.4977 H   0  0  0  0  0  0  0  0  0  0  0  0
  1  2  1  0
  2  3  1  0
  3  4  2  0
  4  5  1  0
  5  6  2  0
  6  7  1  0
  7  8  2  0
  8  9  1  0
  9 10  2  0
 10 11  1  0
 11 12  2  0
 11 13  1  0
 13 14  1  0
 14 15  1  0
 15 16  1  0
 16 17  1  0
 17 18  1  0
 18 19  2  0
 19 20  1  0
 20 21  2  0
 21 22  1  0
 22 23  2  0
 22 24  1  0
 24 25  1  0
 25 26  1  0
 16 27  1  0
 27 28  1  0
 10 29  1  0
 29 30  1  0
 30 31  2  0
 31 32  1  0
 32 33  2  0
 33  3  1  0
 32  6  1  0
 30  8  1  0
 28 13  1  0
 23 18  1  0
 26 21  1  0
  1 34  1  0
  1 35  1  0
  1 36  1  0
  4 37  1  0
  5 38  1  0
  7 39  1  0
  9 40  1  0
 14 41  1  0
 14 42  1  0
 15 43  1  0
 15 44  1  0
 17 45  1  0
 17 46  1  0
 19 47  1  0
 20 48  1  0
 23 49  1  0
 25 50  1  0
 25 51  1  0
 27 52  1  0
 27 53  1  0
 28 54  1  0
 28 55  1  0
 33 56  1  0
M  END
$$$$
