
     RDKit          3D

 57 60  0  0  0  0  0  0  0  0999 V2000
    9.3922   -0.5927    1.0872 C   0  0  0  0  0  0  0  0  0  0  0  0
    9.1518    0.6797    0.2932 C   0  0  0  0  0  0  0  0  0  0  0  0
    8.1236    0.4859   -0.6770 O   0  0  0  0  0  0  0  0  0  0  0  0
    6.8264    0.7172   -0.3182 C   0  0  0  0  0  0  0  0  0  0  0  0
    6.3595    1.0225    0.9577 C   0  0  0  0  0  0  0  0  0  0  0  0
    4.9900    1.2261    1.1847 C   0  0  0  0  0  0  0  0  0  0  0  0
    4.0717    1.1260    0.1399 C   0  0  0  0  0  0  0  0  0  0  0  0
    2.6840    1.3166    0.2861 N   0  0  0  0  0  0  0  0  0  0  0  0
    1.9711    1.5258    1.4558 C   0  0  0  0  0  0  0  0  0  0  0  0
    2.4453    1.5931    2.5872 O   0  0  0  0  0  0  0  0  0  0  0  0
    0.4832    1.7578    1.2287 C   0  0  0  0  0  0  0  0  0  0  0  0
   -0.2292    0.4718    0.1536 S   0  0  0  0  0  0  0  0  0  0  0  0
   -1.8836    0.9935    0.0938 C   0  0  0  0  0  0  0  0  0  0  0  0
   -2.3230    2.1032    0.6412 N   0  0  0  0  0  0  0  0  0  0  0  0
   -3.6332    2.2560    0.2911 N   0  0  0  0  0  0  0  0  0  0  0  0
   -3.9866    1.2256   -0.4554 C   0  0  0  0  0  0  0  0  0  0  0  0
   -5.3953    0.9350   -0.8602 C   0  0  0  0  0  0  0  0  0  0  0  0
   -5.9727   -0.2546   -0.1512 C   0  0  0  0  0  0  0  0  0  0  0  0
   -6.3400   -1.4851   -0.6698 C   0  0  0  0  0  0  0  0  0  0  0  0
   -6.8208   -2.2801    0.3936 C   0  0  0  0  0  0  0  0  0  0  0  0
   -6.7456   -1.5202    1.5368 C   0  0  0  0  0  0  0  0  0  0  0  0
   -6.2445   -0.2885    1.2016 N   0  0  0  0  0  0  0  0  0  0  0  0
   -6.0437    0.7871    2.1515 C   0  0  0  0  0  0  0  0  0  0  0  0
   -2.8857    0.3971   -0.6543 N   0  0  0  0  0  0  0  0  0  0  0  0
   -2.8191   -0.7784   -1.4468 C   0  0  0  0  0  0  0  0  0  0  0  0
   -3.3521   -0.7764   -2.7445 C   0  0  0  0  0  0  0  0  0  0  0  0
   -3.2856   -1.9326   -3.5249 C   0  0  0  0  0  0  0  0  0  0  0  0
   -2.6933   -3.0791   -3.0084 C   0  0  0  0  0  0  0  0  0  0  0  0
   -2.6307   -4.1850   -3.7611 F   0  0  0  0  0  0  0  0  0  0  0  0
   -2.1615   -3.0930   -1.7244 C   0  0  0  0  0  0  0  0  0  0  0  0
   -2.2207   -1.9401   -0.9382 C   0  0  0  0  0  0  0  0  0  0  0  0
    4.5436    0.8209   -1.1404 C   0  0  0  0  0  0  0  0  0  0  0  0
    5.9087    0.6149   -1.3639 C   0  0  0  0  0  0  0  0  0  0  0  0
   10.2203   -0.4609    1.7900 H   0  0  0  0  0  0  0  0  0  0  0  0
    8.5021   -0.8907    1.6489 H   0  0  0  0  0  0  0  0  0  0  0  0
    9.6329   -1.4223    0.4138 H   0  0  0  0  0  0  0  0  0  0  0  0
    8.9648    1.5466    0.9364 H   0  0  0  0  0  0  0  0  0  0  0  0
   10.0643    0.9135   -0.2666 H   0  0  0  0  0  0  0  0  0  0  0  0
    7.0250    1.1030    1.8103 H   0  0  0  0  0  0  0  0  0  0  0  0
    4.6778    1.4637    2.1971 H   0  0  0  0  0  0  0  0  0  0  0  0
    2.1269    1.2091   -0.5544 H   0  0  0  0  0  0  0  0  0  0  0  0
    0.3563    2.7474    0.7779 H   0  0  0  0  0  0  0  0  0  0  0  0
   -0.0232    1.7365    2.1995 H   0  0  0  0  0  0  0  0  0  0  0  0
   -5.4707    0.8040   -1.9434 H   0  0  0  0  0  0  0  0  0  0  0  0
   -6.0164    1.8126   -0.6389 H   0  0  0  0  0  0  0  0  0  0  0  0
   -6.2650   -1.7828   -1.7081 H   0  0  0  0  0  0  0  0  0  0  0  0
   -7.1852   -3.2966    0.3319 H   0  0  0  0  0  0  0  0  0  0  0  0
   -7.0136   -1.7575    2.5580 H   0  0  0  0  0  0  0  0  0  0  0  0
   -6.6246    0.5826    3.0545 H   0  0  0  0  0  0  0  0  0  0  0  0
   -4.9806    0.8322    2.3970 H   0  0  0  0  0  0  0  0  0  0  0  0
   -6.3871    1.7246    1.7097 H   0  0  0  0  0  0  0  0  0  0  0  0
   -3.7805    0.1198   -3.1859 H   0  0  0  0  0  0  0  0  0  0  0  0
   -3.6836   -1.9451   -4.5353 H   0  0  0  0  0  0  0  0  0  0  0  0
   -1.7120   -4.0034   -1.3400 H   0  0  0  0  0  0  0  0  0  0  0  0
   -1.8339   -1.9873    0.0771 H   0  0  0  0  0  0  0  0  0  0  0  0
    3.8630    0.7300   -1.9818 H   0  0  0  0  0  0  0  0  0  0  0  0
    6.2590    0.3713   -2.3640 H   0  0  0  0  0  0  0  0  0  0  0  0
  1  2  1  0
  2  3  1  0
  3  4  1  0
  4  5  2  0
  5  6  1  0
  6  7  2  0
  7  8  1  0
  8  9  1  0
  9 10  2  0
  9 11  1  0
 11 12  1  0
 12 13  1  0
 13 14  2  0
 14 15  1  0
 15 16  2  0
 16 17  1  0
 17 18  1  0
 18 19  2  0
 19 20  1  0
 20 21  2  0
 21 22  1  0
 22 23  1  0
 16 24  1  0
 24 25  1  0
 25 26  2  0
 26 27  1  0
 27 28  2  0
 28 29  1  0
 28 30  1  0
 30 31  2  0
  7 32  1  0
 32 33  2  0
 33  4  1  0
 24 13  1  0
 31 25  1  0
 22 18  1  0
  1 34  1  0
  1 35  1  0
  1 36  1  0
  2 37  1  0
  2 38  1  0
  5 39  1  0
  6 40  1  0
  8 41  1  0
 11 42  1  0
 11 43  1  0
 17 44  1  0
 17 45  1  0
 19 46  1  0
 20 47  1  0
 21 48  1  0
 23 49  1  0
 23 50  1  0
 23 51  1  0
 26 52  1  0
 27 53  1  0
 30 54  1  0
 31 55  1  0
 32 56  1  0
 33 57  1  0
M  END
$$$$
