
     RDKit          3D

 32 33  0  0  0  0  0  0  0  0999 V2000
    5.5615   -0.2580   -0.2245 C   0  0  0  0  0  0  0  0  0  0  0  0
    4.1579   -0.7347   -0.5544 C   0  0  0  0  0  0  0  0  0  0  0  0
    2.9375    0.4636    0.0544 S   0  0  0  0  0  0  0  0  0  0  0  0
    1.4281   -0.2762   -0.3804 C   0  0  0  0  0  0  0  0  0  0  0  0
    1.1252   -1.4039   -1.1054 C   0  0  0  0  0  0  0  0  0  0  0  0
   -0.2280   -1.5796   -1.1982 N   0  0  0  0  0  0  0  0  0  0  0  0
   -0.7738   -0.5847   -0.5233 C   0  0  0  0  0  0  0  0  0  0  0  0
   -2.2131   -0.3781   -0.3802 C   0  0  0  0  0  0  0  0  0  0  0  0
   -2.9736    0.0023   -1.4923 C   0  0  0  0  0  0  0  0  0  0  0  0
   -4.3487    0.2112   -1.3695 C   0  0  0  0  0  0  0  0  0  0  0  0
   -4.9732    0.0311   -0.1361 C   0  0  0  0  0  0  0  0  0  0  0  0
   -4.2266   -0.3668    0.9724 C   0  0  0  0  0  0  0  0  0  0  0  0
   -2.8513   -0.5766    0.8498 C   0  0  0  0  0  0  0  0  0  0  0  0
    0.2089    0.2507   -0.0132 N   0  0  0  0  0  0  0  0  0  0  0  0
   -0.0279    1.4962    0.6982 C   0  0  0  0  0  0  0  0  0  0  0  0
    0.0746    1.3504    2.2077 C   0  0  0  0  0  0  0  0  0  0  0  0
    5.7822    0.7040   -0.6992 H   0  0  0  0  0  0  0  0  0  0  0  0
    5.7090   -0.1573    0.8561 H   0  0  0  0  0  0  0  0  0  0  0  0
    6.2958   -0.9831   -0.5907 H   0  0  0  0  0  0  0  0  0  0  0  0
    4.0545   -0.8465   -1.6383 H   0  0  0  0  0  0  0  0  0  0  0  0
    3.9818   -1.7080   -0.0852 H   0  0  0  0  0  0  0  0  0  0  0  0
    1.8029   -2.1021   -1.5772 H   0  0  0  0  0  0  0  0  0  0  0  0
   -2.4938    0.1299   -2.4604 H   0  0  0  0  0  0  0  0  0  0  0  0
   -4.9320    0.5051   -2.2382 H   0  0  0  0  0  0  0  0  0  0  0  0
   -6.0448    0.1876   -0.0421 H   0  0  0  0  0  0  0  0  0  0  0  0
   -4.7172   -0.5249    1.9295 H   0  0  0  0  0  0  0  0  0  0  0  0
   -2.2847   -0.9134    1.7142 H   0  0  0  0  0  0  0  0  0  0  0  0
    0.6880    2.2394    0.3318 H   0  0  0  0  0  0  0  0  0  0  0  0
   -1.0190    1.8715    0.4232 H   0  0  0  0  0  0  0  0  0  0  0  0
   -0.1268    2.3103    2.6933 H   0  0  0  0  0  0  0  0  0  0  0  0
    1.0717    1.0200    2.5145 H   0  0  0  0  0  0  0  0  0  0  0  0
   -0.6451    0.6207    2.5895 H   0  0  0  0  0  0  0  0  0  0  0  0
  1  2  1  0
  2  3  1  0
  3  4  1  0
  4  5  2  0
  5  6  1  0
  6  7  2  0
  7  8  1  0
  8  9  2  0
  9 10  1  0
 10 11  2  0
 11 12  1  0
 12 13  2  0
  7 14  1  0
 14 15  1  0
 15 16  1  0
 14  4  1  0
 13  8  1  0
  1 17  1  0
  1 18  1  0
  1 19  1  0
  2 20  1  0
  2 21  1  0
  5 22  1  0
  9 23  1  0
 10 24  1  0
 11 25  1  0
 12 26  1  0
 13 27  1  0
 15 28  1  0
 15 29  1  0
 16 30  1  0
 16 31  1  0
 16 32  1  0
M  END
$$$$
