
     RDKit          3D

 34 36  0  0  0  0  0  0  0  0999 V2000
    1.4482    0.9183    2.2424 O   0  0  0  0  0  0  0  0  0  0  0  0
    0.9469    0.4057    1.2456 C   0  0  0  0  0  0  0  0  0  0  0  0
    1.8231   -0.4343    0.4239 C   0  0  0  0  0  0  0  0  0  0  0  0
    2.0060   -1.7778    0.7605 C   0  0  0  0  0  0  0  0  0  0  0  0
    2.8955   -2.5556    0.0164 C   0  0  0  0  0  0  0  0  0  0  0  0
    3.6107   -1.9785   -1.0348 C   0  0  0  0  0  0  0  0  0  0  0  0
    4.7070   -2.9399   -1.9483 Cl  0  0  0  0  0  0  0  0  0  0  0  0
    3.4549   -0.6259   -1.3434 C   0  0  0  0  0  0  0  0  0  0  0  0
    2.5655    0.1560   -0.6036 C   0  0  0  0  0  0  0  0  0  0  0  0
   -0.3642    0.6027    0.8794 N   0  0  0  0  0  0  0  0  0  0  0  0
   -1.1869    1.5409    1.6531 C   0  0  0  0  0  0  0  0  0  0  0  0
   -1.3963    2.7303    0.7460 C   0  0  0  0  0  0  0  0  0  0  0  0
   -2.2481    2.3618   -0.2257 C   0  0  0  0  0  0  0  0  0  0  0  0
   -2.5371    0.8867   -0.0012 C   0  0  0  0  0  0  0  0  0  0  0  0
   -2.5828    0.9345    1.5370 C   0  0  0  0  0  0  0  0  0  0  0  0
   -1.2259    0.0446   -0.2659 C   0  0  0  0  0  0  0  0  0  0  0  0
   -0.7331    0.2642   -1.6944 C   0  0  0  0  0  0  0  0  0  0  0  0
    0.2219   -0.6106   -2.0705 F   0  0  0  0  0  0  0  0  0  0  0  0
   -0.2085    1.4985   -1.8809 F   0  0  0  0  0  0  0  0  0  0  0  0
   -1.7470    0.1363   -2.5846 F   0  0  0  0  0  0  0  0  0  0  0  0
   -1.5516   -1.4457   -0.1938 C   0  0  0  0  0  0  0  0  0  0  0  0
   -0.5038   -2.2384   -0.4931 F   0  0  0  0  0  0  0  0  0  0  0  0
   -2.5531   -1.7734   -1.0430 F   0  0  0  0  0  0  0  0  0  0  0  0
   -1.9612   -1.8212    1.0406 F   0  0  0  0  0  0  0  0  0  0  0  0
    1.4655   -2.2179    1.5947 H   0  0  0  0  0  0  0  0  0  0  0  0
    3.0326   -3.6050    0.2641 H   0  0  0  0  0  0  0  0  0  0  0  0
    4.0259   -0.1763   -2.1516 H   0  0  0  0  0  0  0  0  0  0  0  0
    2.4571    1.2150   -0.8260 H   0  0  0  0  0  0  0  0  0  0  0  0
   -0.8430    1.7693    2.6626 H   0  0  0  0  0  0  0  0  0  0  0  0
   -0.9282    3.6955    0.8699 H   0  0  0  0  0  0  0  0  0  0  0  0
   -2.5882    2.9677   -1.0532 H   0  0  0  0  0  0  0  0  0  0  0  0
   -3.4535    0.5305   -0.4751 H   0  0  0  0  0  0  0  0  0  0  0  0
   -3.3774    1.5819    1.9325 H   0  0  0  0  0  0  0  0  0  0  0  0
   -2.6710   -0.0399    2.0206 H   0  0  0  0  0  0  0  0  0  0  0  0
  1  2  2  0
  2  3  1  0
  3  4  2  0
  4  5  1  0
  5  6  2  0
  6  7  1  0
  6  8  1  0
  8  9  2  0
  2 10  1  0
 10 11  1  0
 11 12  1  0
 12 13  2  0
 13 14  1  0
 14 15  1  0
 14 16  1  0
 16 17  1  0
 17 18  1  0
 17 19  1  0
 17 20  1  0
 16 21  1  0
 21 22  1  0
 21 23  1  0
 21 24  1  0
  9  3  1  0
 16 10  1  0
 15 11  1  0
  4 25  1  0
  5 26  1  0
  8 27  1  0
  9 28  1  0
 11 29  1  0
 12 30  1  0
 13 31  1  0
 14 32  1  0
 15 33  1  0
 15 34  1  0
M  END
$$$$
