
     RDKit          3D

 88 93  0  0  0  0  0  0  0  0999 V2000
    2.5469    0.0490   -1.9613 C   0  0  0  0  0  0  0  0  0  0  0  0
    2.3751   -0.9379   -0.8488 C   0  0  0  0  0  0  0  0  0  0  0  0
    2.6771   -2.1193   -0.9217 O   0  0  0  0  0  0  0  0  0  0  0  0
    1.8216   -0.3238    0.2317 O   0  0  0  0  0  0  0  0  0  0  0  0
    1.6564   -1.1342    1.4074 C   0  0  1  0  0  0  0  0  0  0  0  0
    1.8437   -0.2717    2.6697 C   0  0  1  0  0  0  0  0  0  0  0  0
    2.8945    0.8271    2.5352 C   0  0  0  0  0  0  0  0  0  0  0  0
    4.1232    0.2266    2.1040 O   0  0  0  0  0  0  0  0  0  0  0  0
    5.1023    1.1102    1.7899 C   0  0  0  0  0  0  0  0  0  0  0  0
    5.0337    2.3239    1.9041 O   0  0  0  0  0  0  0  0  0  0  0  0
    6.2969    0.3963    1.2656 C   0  0  0  0  0  0  0  0  0  0  0  0
    6.2744   -0.9693    0.9481 C   0  0  0  0  0  0  0  0  0  0  0  0
    7.4197   -1.5901    0.4442 C   0  0  0  0  0  0  0  0  0  0  0  0
    8.5880   -0.8531    0.2527 C   0  0  0  0  0  0  0  0  0  0  0  0
    8.6158    0.5065    0.5615 C   0  0  0  0  0  0  0  0  0  0  0  0
    7.4732    1.1316    1.0652 C   0  0  0  0  0  0  0  0  0  0  0  0
    0.4432    0.2709    3.0401 C   0  0  0  0  0  0  0  0  0  0  0  0
   -0.5678   -0.3342    2.0186 C   0  0  2  0  0  0  0  0  0  0  0  0
   -0.6918    0.5827    0.9187 O   0  0  0  0  0  0  0  0  0  0  0  0
   -1.3136    1.7656    1.1515 C   0  0  0  0  0  0  0  0  0  0  0  0
   -1.7907    2.1413    2.2066 O   0  0  0  0  0  0  0  0  0  0  0  0
   -1.3231    2.5231   -0.1158 C   0  0  0  0  0  0  0  0  0  0  0  0
   -1.9525    3.7059   -0.1816 C   0  0  0  0  0  0  0  0  0  0  0  0
   -2.0306    4.5230   -1.3990 C   0  0  0  0  0  0  0  0  0  0  0  0
   -1.9958    5.9187   -1.2788 C   0  0  0  0  0  0  0  0  0  0  0  0
   -2.1035    6.7323   -2.4087 C   0  0  0  0  0  0  0  0  0  0  0  0
   -2.2604    6.1592   -3.6683 C   0  0  0  0  0  0  0  0  0  0  0  0
   -2.3127    4.7721   -3.7995 C   0  0  0  0  0  0  0  0  0  0  0  0
   -2.2034    3.9578   -2.6702 C   0  0  0  0  0  0  0  0  0  0  0  0
   -1.8833   -0.8195    2.6931 C   0  0  0  0  0  0  0  0  0  0  0  0
   -1.8251   -1.3911    3.7914 O   0  0  0  0  0  0  0  0  0  0  0  0
   -3.2624   -0.5906    2.0982 C   0  0  0  0  0  0  0  0  0  0  0  0
   -4.2437   -0.2710    3.2129 C   0  0  0  0  0  0  0  0  0  0  0  0
   -3.7352   -0.6355    0.8315 C   0  0  0  0  0  0  0  0  0  0  0  0
   -3.1555   -0.9218   -0.4970 C   0  0  0  0  0  0  0  0  0  0  0  0
   -3.2046   -2.3056   -1.1363 C   0  0  2  0  0  0  0  0  0  0  0  0
   -2.0869   -2.8484   -2.0078 C   0  0  0  0  0  0  0  0  0  0  0  0
   -1.2640   -3.9953   -1.3839 C   0  0  0  0  0  0  0  0  0  0  0  0
   -0.5290   -3.6711   -0.0965 C   0  0  2  0  0  0  0  0  0  0  0  0
    0.3804   -4.7259    0.4451 C   0  0  0  0  0  0  0  0  0  0  0  0
   -1.4328   -3.1301    0.8530 O   0  0  0  0  0  0  0  0  0  0  0  0
   -0.4049   -2.2311    0.3850 C   0  0  1  0  0  0  0  0  0  0  0  0
    0.2197   -1.6126    1.5791 C   0  0  1  0  0  0  0  0  0  0  0  0
   -4.1090   -1.2071   -1.6680 C   0  0  0  0  0  0  0  0  0  0  0  0
   -5.5934   -1.4310   -1.4736 C   0  0  0  0  0  0  0  0  0  0  0  0
   -3.7966   -0.5140   -2.9749 C   0  0  0  0  0  0  0  0  0  0  0  0
    3.0745   -0.4299   -2.7919 H   0  0  0  0  0  0  0  0  0  0  0  0
    3.1454    0.8957   -1.6161 H   0  0  0  0  0  0  0  0  0  0  0  0
    1.5671    0.3858   -2.3093 H   0  0  0  0  0  0  0  0  0  0  0  0
    2.3682   -1.9685    1.4150 H   0  0  0  0  0  0  0  0  0  0  0  0
    2.1604   -0.9478    3.4767 H   0  0  0  0  0  0  0  0  0  0  0  0
    2.5729    1.5847    1.8100 H   0  0  0  0  0  0  0  0  0  0  0  0
    3.0526    1.3117    3.5057 H   0  0  0  0  0  0  0  0  0  0  0  0
    5.3733   -1.5631    1.0822 H   0  0  0  0  0  0  0  0  0  0  0  0
    7.3979   -2.6494    0.1979 H   0  0  0  0  0  0  0  0  0  0  0  0
    9.4777   -1.3385   -0.1423 H   0  0  0  0  0  0  0  0  0  0  0  0
    9.5267    1.0807    0.4097 H   0  0  0  0  0  0  0  0  0  0  0  0
    7.5040    2.1939    1.2999 H   0  0  0  0  0  0  0  0  0  0  0  0
    0.2143   -0.0343    4.0679 H   0  0  0  0  0  0  0  0  0  0  0  0
    0.4450    1.3654    3.0361 H   0  0  0  0  0  0  0  0  0  0  0  0
   -0.8098    2.0828   -0.9608 H   0  0  0  0  0  0  0  0  0  0  0  0
   -2.4356    4.1219    0.7017 H   0  0  0  0  0  0  0  0  0  0  0  0
   -1.8792    6.3868   -0.3038 H   0  0  0  0  0  0  0  0  0  0  0  0
   -2.0715    7.8145   -2.3028 H   0  0  0  0  0  0  0  0  0  0  0  0
   -2.3498    6.7919   -4.5467 H   0  0  0  0  0  0  0  0  0  0  0  0
   -2.4483    4.3246   -4.7802 H   0  0  0  0  0  0  0  0  0  0  0  0
   -2.2714    2.8800   -2.7973 H   0  0  0  0  0  0  0  0  0  0  0  0
   -5.2173    0.0603    2.8380 H   0  0  0  0  0  0  0  0  0  0  0  0
   -4.4171   -1.1540    3.8378 H   0  0  0  0  0  0  0  0  0  0  0  0
   -3.8572    0.5370    3.8442 H   0  0  0  0  0  0  0  0  0  0  0  0
   -4.7937   -0.3807    0.7599 H   0  0  0  0  0  0  0  0  0  0  0  0
   -2.3273   -0.2711   -0.7504 H   0  0  0  0  0  0  0  0  0  0  0  0
   -3.6819   -3.1064   -0.5769 H   0  0  0  0  0  0  0  0  0  0  0  0
   -2.5424   -3.2400   -2.9261 H   0  0  0  0  0  0  0  0  0  0  0  0
   -1.4110   -2.0445   -2.3198 H   0  0  0  0  0  0  0  0  0  0  0  0
   -1.9310   -4.8461   -1.1959 H   0  0  0  0  0  0  0  0  0  0  0  0
   -0.5289   -4.3283   -2.1265 H   0  0  0  0  0  0  0  0  0  0  0  0
    0.8189   -4.4431    1.4073 H   0  0  0  0  0  0  0  0  0  0  0  0
    1.2016   -4.9108   -0.2542 H   0  0  0  0  0  0  0  0  0  0  0  0
   -0.1652   -5.6641    0.5895 H   0  0  0  0  0  0  0  0  0  0  0  0
   -0.5780   -1.4925   -0.3819 H   0  0  0  0  0  0  0  0  0  0  0  0
    0.2164   -2.3376    2.4075 H   0  0  0  0  0  0  0  0  0  0  0  0
   -5.8163   -2.0292   -0.5831 H   0  0  0  0  0  0  0  0  0  0  0  0
   -6.1137   -0.4713   -1.3822 H   0  0  0  0  0  0  0  0  0  0  0  0
   -6.0105   -1.9649   -2.3347 H   0  0  0  0  0  0  0  0  0  0  0  0
   -2.7343   -0.2759   -3.0824 H   0  0  0  0  0  0  0  0  0  0  0  0
   -4.3482    0.4292   -3.0440 H   0  0  0  0  0  0  0  0  0  0  0  0
   -4.0905   -1.1437   -3.8208 H   0  0  0  0  0  0  0  0  0  0  0  0
  1  2  1  0
  2  3  2  0
  2  4  1  0
  4  5  1  0
  5  6  1  0
  6  7  1  0
  7  8  1  0
  8  9  1  0
  9 10  2  0
  9 11  1  0
 11 12  2  0
 12 13  1  0
 13 14  2  0
 14 15  1  0
 15 16  2  0
  6 17  1  0
 17 18  1  0
 18 19  1  6
 19 20  1  0
 20 21  2  0
 20 22  1  0
 22 23  2  0
 23 24  1  0
 24 25  2  0
 25 26  1  0
 26 27  2  0
 27 28  1  0
 28 29  2  0
 18 30  1  0
 30 31  2  0
 30 32  1  0
 32 33  1  0
 32 34  2  3
 34 35  1  0
 35 36  1  0
 36 37  1  0
 37 38  1  0
 38 39  1  0
 39 40  1  1
 39 41  1  0
 41 42  1  0
 42 43  1  0
 36 44  1  0
 44 45  1  0
 44 46  1  0
 43  5  1  0
 16 11  1  0
 43 18  1  0
 29 24  1  0
 44 35  1  0
 42 39  1  0
  1 47  1  0
  1 48  1  0
  1 49  1  0
  5 50  1  6
  6 51  1  1
  7 52  1  0
  7 53  1  0
 12 54  1  0
 13 55  1  0
 14 56  1  0
 15 57  1  0
 16 58  1  0
 17 59  1  0
 17 60  1  0
 22 61  1  0
 23 62  1  0
 25 63  1  0
 26 64  1  0
 27 65  1  0
 28 66  1  0
 29 67  1  0
 33 68  1  0
 33 69  1  0
 33 70  1  0
 34 71  1  0
 35 72  1  0
 36 73  1  1
 37 74  1  0
 37 75  1  0
 38 76  1  0
 38 77  1  0
 40 78  1  0
 40 79  1  0
 40 80  1  0
 42 81  1  6
 43 82  1  1
 45 83  1  0
 45 84  1  0
 45 85  1  0
 46 86  1  0
 46 87  1  0
 46 88  1  0
M  END
$$$$
