
     RDKit          3D

 60 64  0  0  0  0  0  0  0  0999 V2000
   -1.3371    3.2775   -1.9383 C   0  0  0  0  0  0  0  0  0  0  0  0
   -2.0185    2.2720   -1.1285 N   0  0  0  0  0  0  0  0  0  0  0  0
   -3.3638    2.5055   -0.8390 C   0  0  0  0  0  0  0  0  0  0  0  0
   -3.9443    3.5336   -1.2021 O   0  0  0  0  0  0  0  0  0  0  0  0
   -4.1449    1.4527   -0.1127 C   0  0  0  0  0  0  0  0  0  0  0  0
   -5.4652    1.3913   -0.3709 C   0  0  0  0  0  0  0  0  0  0  0  0
   -6.4201    0.4642    0.2419 C   0  0  0  0  0  0  0  0  0  0  0  0
   -6.6765   -0.7737   -0.3545 C   0  0  0  0  0  0  0  0  0  0  0  0
   -7.5877   -1.6586    0.2277 C   0  0  0  0  0  0  0  0  0  0  0  0
   -8.2497   -1.3203    1.4180 C   0  0  0  0  0  0  0  0  0  0  0  0
   -9.2527   -2.2638    2.0358 C   0  0  0  0  0  0  0  0  0  0  0  0
  -10.5265   -2.0020    1.6321 F   0  0  0  0  0  0  0  0  0  0  0  0
   -9.2720   -2.2050    3.3970 F   0  0  0  0  0  0  0  0  0  0  0  0
   -9.0234   -3.5708    1.7255 F   0  0  0  0  0  0  0  0  0  0  0  0
   -7.9914   -0.0721    2.0060 C   0  0  0  0  0  0  0  0  0  0  0  0
   -7.0807    0.8127    1.4233 C   0  0  0  0  0  0  0  0  0  0  0  0
   -3.3504    0.4702    1.0496 S   0  0  0  0  0  0  0  0  0  0  0  0
   -1.8257    0.1879    0.1921 C   0  0  0  0  0  0  0  0  0  0  0  0
   -1.1123   -0.9723    0.5442 C   0  0  0  0  0  0  0  0  0  0  0  0
    0.1228   -1.2537   -0.0336 C   0  0  0  0  0  0  0  0  0  0  0  0
    0.6601   -0.3571   -0.9524 C   0  0  0  0  0  0  0  0  0  0  0  0
    1.9572   -0.6308   -1.6100 C   0  0  0  0  0  0  0  0  0  0  0  0
    1.9834   -0.6138   -2.8377 O   0  0  0  0  0  0  0  0  0  0  0  0
    3.0696   -0.8938   -0.8233 N   0  0  0  0  0  0  0  0  0  0  0  0
    3.1782   -0.6216    0.6195 C   0  0  0  0  0  0  0  0  0  0  0  0
    4.5824   -0.1302    1.0216 C   0  0  0  0  0  0  0  0  0  0  0  0
    5.6509   -1.0726    0.6085 N   0  0  0  0  0  0  0  0  0  0  0  0
    6.8795   -0.3982    0.4349 C   0  0  0  0  0  0  0  0  0  0  0  0
    7.4766    0.2281    1.5330 C   0  0  0  0  0  0  0  0  0  0  0  0
    8.6834    0.9088    1.3764 C   0  0  0  0  0  0  0  0  0  0  0  0
    9.2768    0.9506    0.1247 C   0  0  0  0  0  0  0  0  0  0  0  0
    8.6342    0.3029   -0.9141 C   0  0  0  0  0  0  0  0  0  0  0  0
    7.4630   -0.3610   -0.7827 N   0  0  0  0  0  0  0  0  0  0  0  0
    5.2952   -1.9620   -0.5232 C   0  0  0  0  0  0  0  0  0  0  0  0
    4.3159   -1.2898   -1.4952 C   0  0  0  0  0  0  0  0  0  0  0  0
   -0.0529    0.7907   -1.3236 C   0  0  0  0  0  0  0  0  0  0  0  0
   -1.3067    1.0847   -0.7563 C   0  0  0  0  0  0  0  0  0  0  0  0
   -1.9082    4.2070   -2.0095 H   0  0  0  0  0  0  0  0  0  0  0  0
   -1.2014    2.8899   -2.9522 H   0  0  0  0  0  0  0  0  0  0  0  0
   -0.3710    3.5265   -1.4881 H   0  0  0  0  0  0  0  0  0  0  0  0
   -5.9144    2.0662   -1.0986 H   0  0  0  0  0  0  0  0  0  0  0  0
   -6.1705   -1.0571   -1.2749 H   0  0  0  0  0  0  0  0  0  0  0  0
   -7.7781   -2.6178   -0.2526 H   0  0  0  0  0  0  0  0  0  0  0  0
   -8.4998    0.2164    2.9253 H   0  0  0  0  0  0  0  0  0  0  0  0
   -6.8905    1.7737    1.8968 H   0  0  0  0  0  0  0  0  0  0  0  0
   -1.5220   -1.6697    1.2738 H   0  0  0  0  0  0  0  0  0  0  0  0
    0.6485   -2.1689    0.2247 H   0  0  0  0  0  0  0  0  0  0  0  0
    2.4374    0.1242    0.9210 H   0  0  0  0  0  0  0  0  0  0  0  0
    2.9512   -1.5597    1.1382 H   0  0  0  0  0  0  0  0  0  0  0  0
    4.6126    0.0006    2.1097 H   0  0  0  0  0  0  0  0  0  0  0  0
    4.7354    0.8547    0.5587 H   0  0  0  0  0  0  0  0  0  0  0  0
    7.0167    0.1698    2.5136 H   0  0  0  0  0  0  0  0  0  0  0  0
    9.1545    1.3924    2.2274 H   0  0  0  0  0  0  0  0  0  0  0  0
   10.2167    1.4663   -0.0370 H   0  0  0  0  0  0  0  0  0  0  0  0
    9.0546    0.2982   -1.9156 H   0  0  0  0  0  0  0  0  0  0  0  0
    4.8061   -2.8457   -0.0923 H   0  0  0  0  0  0  0  0  0  0  0  0
    6.1706   -2.3526   -1.0558 H   0  0  0  0  0  0  0  0  0  0  0  0
    4.0754   -1.9706   -2.3185 H   0  0  0  0  0  0  0  0  0  0  0  0
    4.7541   -0.3838   -1.9281 H   0  0  0  0  0  0  0  0  0  0  0  0
    0.3953    1.4294   -2.0803 H   0  0  0  0  0  0  0  0  0  0  0  0
  1  2  1  0
  2  3  1  0
  3  4  2  0
  3  5  1  0
  5  6  2  3
  6  7  1  0
  7  8  2  0
  8  9  1  0
  9 10  2  0
 10 11  1  0
 11 12  1  0
 11 13  1  0
 11 14  1  0
 10 15  1  0
 15 16  2  0
  5 17  1  0
 17 18  1  0
 18 19  2  0
 19 20  1  0
 20 21  2  0
 21 22  1  0
 22 23  2  0
 22 24  1  0
 24 25  1  0
 25 26  1  0
 26 27  1  0
 27 28  1  0
 28 29  2  0
 29 30  1  0
 30 31  2  0
 31 32  1  0
 32 33  2  0
 27 34  1  0
 34 35  1  0
 21 36  1  0
 36 37  2  0
 37  2  1  0
 16  7  1  0
 37 18  1  0
 35 24  1  0
 33 28  1  0
  1 38  1  0
  1 39  1  0
  1 40  1  0
  6 41  1  0
  8 42  1  0
  9 43  1  0
 15 44  1  0
 16 45  1  0
 19 46  1  0
 20 47  1  0
 25 48  1  0
 25 49  1  0
 26 50  1  0
 26 51  1  0
 29 52  1  0
 30 53  1  0
 31 54  1  0
 32 55  1  0
 34 56  1  0
 34 57  1  0
 35 58  1  0
 35 59  1  0
 36 60  1  0
M  END
$$$$
