
     RDKit          3D

 58 60  0  0  0  0  0  0  0  0999 V2000
    7.4635   -3.1343   -4.4450 C   0  0  0  0  0  0  0  0  0  0  0  0
    6.4829   -2.4544   -3.5363 C   0  0  0  0  0  0  0  0  0  0  0  0
    6.4461   -1.0582   -3.4511 C   0  0  0  0  0  0  0  0  0  0  0  0
    5.5127   -0.4219   -2.6293 C   0  0  0  0  0  0  0  0  0  0  0  0
    4.5909   -1.1722   -1.8897 C   0  0  0  0  0  0  0  0  0  0  0  0
    3.5954   -0.4930   -0.9841 C   0  0  0  0  0  0  0  0  0  0  0  0
    4.1095   -0.4040    0.4545 C   0  0  0  0  0  0  0  0  0  0  0  0
    3.1839    0.3009    1.3242 N   0  0  0  0  0  0  0  0  0  0  0  0
    2.0676   -0.3186    1.8441 C   0  0  0  0  0  0  0  0  0  0  0  0
    1.7921   -1.4947    1.6415 O   0  0  0  0  0  0  0  0  0  0  0  0
    1.2192    0.6034    2.6898 C   0  0  0  0  0  0  0  0  0  0  0  0
    0.0029   -0.1237    3.2485 C   0  0  0  0  0  0  0  0  0  0  0  0
   -0.7884    0.8217    4.0562 N   0  0  0  0  0  0  0  0  0  0  0  0
   -2.3742    0.4030    4.4356 S   0  0  0  0  0  6  0  0  0  0  0  0
   -2.7525    1.2519    5.5440 O   0  0  0  0  0  0  0  0  0  0  0  0
   -2.4699   -1.0355    4.5101 O   0  0  0  0  0  0  0  0  0  0  0  0
   -3.2552    0.9723    3.0051 C   0  0  0  0  0  0  0  0  0  0  0  0
   -3.6553    2.3060    2.9277 C   0  0  0  0  0  0  0  0  0  0  0  0
   -4.3781    2.7499    1.8148 C   0  0  0  0  0  0  0  0  0  0  0  0
   -4.7147    1.8694    0.7720 C   0  0  0  0  0  0  0  0  0  0  0  0
   -4.3118    0.5374    0.8764 C   0  0  0  0  0  0  0  0  0  0  0  0
   -3.5896    0.0785    1.9897 C   0  0  0  0  0  0  0  0  0  0  0  0
   -4.6517   -0.4043   -0.2016 C   0  0  0  0  0  0  0  0  0  0  0  0
   -4.2878   -1.5740   -0.1045 O   0  0  0  0  0  0  0  0  0  0  0  0
   -5.3678    0.1049   -1.2726 N   0  0  0  0  0  0  0  0  0  0  0  0
   -5.7251   -0.7978   -2.3521 C   0  0  0  0  0  0  0  0  0  0  0  0
   -5.7894    1.4231   -1.3994 C   0  0  0  0  0  0  0  0  0  0  0  0
   -6.4333    1.7975   -2.3828 O   0  0  0  0  0  0  0  0  0  0  0  0
   -5.4486    2.2932   -0.3677 N   0  0  0  0  0  0  0  0  0  0  0  0
   -5.8787    3.6822   -0.4729 C   0  0  0  0  0  0  0  0  0  0  0  0
    4.6213   -2.5689   -1.9834 C   0  0  0  0  0  0  0  0  0  0  0  0
    5.5550   -3.2039   -2.8053 C   0  0  0  0  0  0  0  0  0  0  0  0
    7.0415   -3.2244   -5.4509 H   0  0  0  0  0  0  0  0  0  0  0  0
    8.3990   -2.5675   -4.5020 H   0  0  0  0  0  0  0  0  0  0  0  0
    7.7124   -4.1346   -4.0749 H   0  0  0  0  0  0  0  0  0  0  0  0
    7.1463   -0.4559   -4.0257 H   0  0  0  0  0  0  0  0  0  0  0  0
    5.5092    0.6642   -2.5761 H   0  0  0  0  0  0  0  0  0  0  0  0
    3.3748    0.5127   -1.3652 H   0  0  0  0  0  0  0  0  0  0  0  0
    2.6414   -1.0341   -1.0202 H   0  0  0  0  0  0  0  0  0  0  0  0
    4.2807   -1.4062    0.8655 H   0  0  0  0  0  0  0  0  0  0  0  0
    5.0603    0.1394    0.4947 H   0  0  0  0  0  0  0  0  0  0  0  0
    3.3080    1.2969    1.4507 H   0  0  0  0  0  0  0  0  0  0  0  0
    1.8356    0.9941    3.5083 H   0  0  0  0  0  0  0  0  0  0  0  0
    0.9007    1.4517    2.0720 H   0  0  0  0  0  0  0  0  0  0  0  0
   -0.6010   -0.5208    2.4258 H   0  0  0  0  0  0  0  0  0  0  0  0
    0.3195   -0.9587    3.8834 H   0  0  0  0  0  0  0  0  0  0  0  0
   -0.3295    1.2580    4.8564 H   0  0  0  0  0  0  0  0  0  0  0  0
   -3.4145    3.0038    3.7281 H   0  0  0  0  0  0  0  0  0  0  0  0
   -4.6706    3.7964    1.7959 H   0  0  0  0  0  0  0  0  0  0  0  0
   -3.2954   -0.9684    2.0571 H   0  0  0  0  0  0  0  0  0  0  0  0
   -6.8168   -0.8527   -2.4195 H   0  0  0  0  0  0  0  0  0  0  0  0
   -5.3403   -0.3974   -3.2961 H   0  0  0  0  0  0  0  0  0  0  0  0
   -5.3274   -1.8056   -2.2077 H   0  0  0  0  0  0  0  0  0  0  0  0
   -6.4277    3.8787   -1.3979 H   0  0  0  0  0  0  0  0  0  0  0  0
   -5.0007    4.3361   -0.4634 H   0  0  0  0  0  0  0  0  0  0  0  0
   -6.5422    3.9209    0.3646 H   0  0  0  0  0  0  0  0  0  0  0  0
    3.9135   -3.1726   -1.4179 H   0  0  0  0  0  0  0  0  0  0  0  0
    5.5525   -4.2897   -2.8695 H   0  0  0  0  0  0  0  0  0  0  0  0
  1  2  1  0
  2  3  2  0
  3  4  1  0
  4  5  2  0
  5  6  1  0
  6  7  1  0
  7  8  1  0
  8  9  1  0
  9 10  2  0
  9 11  1  0
 11 12  1  0
 12 13  1  0
 13 14  1  0
 14 15  2  0
 14 16  2  0
 14 17  1  0
 17 18  2  0
 18 19  1  0
 19 20  2  0
 20 21  1  0
 21 22  2  0
 21 23  1  0
 23 24  2  0
 23 25  1  0
 25 26  1  0
 25 27  1  0
 27 28  2  0
 27 29  1  0
 29 30  1  0
  5 31  1  0
 31 32  2  0
 32  2  1  0
 22 17  1  0
 29 20  1  0
  1 33  1  0
  1 34  1  0
  1 35  1  0
  3 36  1  0
  4 37  1  0
  6 38  1  0
  6 39  1  0
  7 40  1  0
  7 41  1  0
  8 42  1  0
 11 43  1  0
 11 44  1  0
 12 45  1  0
 12 46  1  0
 13 47  1  0
 18 48  1  0
 19 49  1  0
 22 50  1  0
 26 51  1  0
 26 52  1  0
 26 53  1  0
 30 54  1  0
 30 55  1  0
 30 56  1  0
 31 57  1  0
 32 58  1  0
M  END
$$$$
