
     RDKit          3D

 44 47  0  0  0  0  0  0  0  0999 V2000
   -5.7981   -3.4520   -0.1339 C   0  0  0  0  0  0  0  0  0  0  0  0
   -4.4515   -3.0427    0.4356 C   0  0  0  0  0  0  0  0  0  0  0  0
   -4.4267   -1.6210    0.5247 O   0  0  0  0  0  0  0  0  0  0  0  0
   -3.2477   -1.0267    0.9022 C   0  0  0  0  0  0  0  0  0  0  0  0
   -2.1415   -1.7196    1.4033 C   0  0  0  0  0  0  0  0  0  0  0  0
   -0.9825   -1.0310    1.7704 C   0  0  0  0  0  0  0  0  0  0  0  0
   -0.9119    0.3557    1.6282 C   0  0  0  0  0  0  0  0  0  0  0  0
    0.2846    1.1037    2.0263 C   0  0  0  0  0  0  0  0  0  0  0  0
    1.5029    1.0155    1.4712 C   0  0  0  0  0  0  0  0  0  0  0  0
    2.8466    2.0010    2.0572 S   0  0  0  0  0  0  0  0  0  0  0  0
    3.8672    1.3105    0.8680 C   0  0  0  0  0  0  0  0  0  0  0  0
    5.1158    1.4446    0.5299 N   0  0  0  0  0  0  0  0  0  0  0  0
    5.2147    0.5486   -0.5240 C   0  0  0  0  0  0  0  0  0  0  0  0
    6.5517    0.3247   -1.3042 C   0  0  0  0  0  0  0  0  0  0  0  0
    6.7345   -0.5452   -2.3627 C   0  0  0  0  0  0  0  0  0  0  0  0
    8.0883   -0.4258   -2.7603 C   0  0  0  0  0  0  0  0  0  0  0  0
    8.6492    0.5081   -1.9222 C   0  0  0  0  0  0  0  0  0  0  0  0
    7.7285    0.9685   -1.0375 O   0  0  0  0  0  0  0  0  0  0  0  0
    4.0770   -0.1135   -0.8241 N   0  0  0  0  0  0  0  0  0  0  0  0
    3.2403    0.4074    0.0909 N   0  0  0  0  0  0  0  0  0  0  0  0
    1.9063    0.1411    0.3190 C   0  0  0  0  0  0  0  0  0  0  0  0
    1.2671   -0.6628   -0.3318 O   0  0  0  0  0  0  0  0  0  0  0  0
   -2.0242    1.0556    1.1419 C   0  0  0  0  0  0  0  0  0  0  0  0
   -3.1945    0.3768    0.7821 C   0  0  0  0  0  0  0  0  0  0  0  0
   -4.3242    0.9761    0.2851 O   0  0  0  0  0  0  0  0  0  0  0  0
   -4.4413    2.3954    0.3092 C   0  0  0  0  0  0  0  0  0  0  0  0
   -3.9215    2.9988   -0.9839 C   0  0  0  0  0  0  0  0  0  0  0  0
   -6.6122   -3.0929    0.5045 H   0  0  0  0  0  0  0  0  0  0  0  0
   -5.9492   -3.0075   -1.1233 H   0  0  0  0  0  0  0  0  0  0  0  0
   -5.8706   -4.5398   -0.2205 H   0  0  0  0  0  0  0  0  0  0  0  0
   -3.6583   -3.4008   -0.2309 H   0  0  0  0  0  0  0  0  0  0  0  0
   -4.3364   -3.4854    1.4314 H   0  0  0  0  0  0  0  0  0  0  0  0
   -2.1487   -2.7976    1.5235 H   0  0  0  0  0  0  0  0  0  0  0  0
   -0.1377   -1.5959    2.1572 H   0  0  0  0  0  0  0  0  0  0  0  0
    0.1105    1.8006    2.8453 H   0  0  0  0  0  0  0  0  0  0  0  0
    5.9744   -1.1854   -2.7899 H   0  0  0  0  0  0  0  0  0  0  0  0
    8.5920   -0.9538   -3.5577 H   0  0  0  0  0  0  0  0  0  0  0  0
    9.6387    0.9340   -1.8290 H   0  0  0  0  0  0  0  0  0  0  0  0
   -1.9500    2.1325    1.0370 H   0  0  0  0  0  0  0  0  0  0  0  0
   -5.5121    2.6164    0.3861 H   0  0  0  0  0  0  0  0  0  0  0  0
   -3.9803    2.8432    1.1964 H   0  0  0  0  0  0  0  0  0  0  0  0
   -4.4408    2.5641   -1.8446 H   0  0  0  0  0  0  0  0  0  0  0  0
   -2.8557    2.7942   -1.1223 H   0  0  0  0  0  0  0  0  0  0  0  0
   -4.0726    4.0821   -0.9933 H   0  0  0  0  0  0  0  0  0  0  0  0
  1  2  1  0
  2  3  1  0
  3  4  1  0
  4  5  2  0
  5  6  1  0
  6  7  2  0
  7  8  1  0
  8  9  2  3
  9 10  1  0
 10 11  1  0
 11 12  2  0
 12 13  1  0
 13 14  1  0
 14 15  2  0
 15 16  1  0
 16 17  2  0
 17 18  1  0
 13 19  2  0
 19 20  1  0
 20 21  1  0
 21 22  2  0
  7 23  1  0
 23 24  2  0
 24 25  1  0
 25 26  1  0
 26 27  1  0
 24  4  1  0
 21  9  1  0
 20 11  1  0
 18 14  1  0
  1 28  1  0
  1 29  1  0
  1 30  1  0
  2 31  1  0
  2 32  1  0
  5 33  1  0
  6 34  1  0
  8 35  1  0
 15 36  1  0
 16 37  1  0
 17 38  1  0
 23 39  1  0
 26 40  1  0
 26 41  1  0
 27 42  1  0
 27 43  1  0
 27 44  1  0
M  END
$$$$
