
     RDKit          3D

 41 44  0  0  0  0  0  0  0  0999 V2000
   -0.9519    2.5401   -3.6944 O   0  0  0  0  0  0  0  0  0  0  0  0
   -0.8746    2.2964   -2.2685 S   0  0  0  0  0  6  0  0  0  0  0  0
   -0.7598    3.3907   -1.3289 O   0  0  0  0  0  0  0  0  0  0  0  0
    0.4231    1.2371   -2.0547 N   0  0  0  0  0  0  0  0  0  0  0  0
    0.6039    0.5904   -0.7920 C   0  0  0  0  0  0  0  0  0  0  0  0
    1.0160    1.3757    0.2894 C   0  0  0  0  0  0  0  0  0  0  0  0
    1.1803    0.8168    1.5572 C   0  0  0  0  0  0  0  0  0  0  0  0
    1.6339    1.9141    2.8940 S   0  0  0  0  0  0  0  0  0  0  0  0
    3.2203    1.3356    3.3129 C   0  0  0  0  0  0  0  0  0  0  0  0
    4.3640    2.0581    3.1305 N   0  0  0  0  0  0  0  0  0  0  0  0
    5.2959    1.2591    3.5933 C   0  0  0  0  0  0  0  0  0  0  0  0
    4.7271    0.1089    4.0401 N   0  0  0  0  0  0  0  0  0  0  0  0
    3.3916    0.1322    3.8769 N   0  0  0  0  0  0  0  0  0  0  0  0
    0.9145   -0.5502    1.7283 C   0  0  0  0  0  0  0  0  0  0  0  0
    1.0616   -1.1472    2.9607 O   0  0  0  0  0  0  0  0  0  0  0  0
    0.4822   -1.3641    0.6556 C   0  0  0  0  0  0  0  0  0  0  0  0
    0.2007   -2.7362    0.8321 C   0  0  0  0  0  0  0  0  0  0  0  0
   -0.2285   -3.5380   -0.2240 C   0  0  0  0  0  0  0  0  0  0  0  0
   -0.3860   -2.9842   -1.4848 C   0  0  0  0  0  0  0  0  0  0  0  0
   -0.1124   -1.6304   -1.6864 C   0  0  0  0  0  0  0  0  0  0  0  0
    0.3252   -0.7915   -0.6313 C   0  0  0  0  0  0  0  0  0  0  0  0
   -2.2904    1.3231   -1.8122 C   0  0  0  0  0  0  0  0  0  0  0  0
   -2.9592    0.5773   -2.7882 C   0  0  0  0  0  0  0  0  0  0  0  0
   -4.0720   -0.1822   -2.4272 C   0  0  0  0  0  0  0  0  0  0  0  0
   -4.5169   -0.1847   -1.1040 C   0  0  0  0  0  0  0  0  0  0  0  0
   -3.8593    0.5792   -0.1382 C   0  0  0  0  0  0  0  0  0  0  0  0
   -2.7481    1.3440   -0.4910 C   0  0  0  0  0  0  0  0  0  0  0  0
    0.6536    0.7227   -2.9014 H   0  0  0  0  0  0  0  0  0  0  0  0
    1.2116    2.4362    0.1357 H   0  0  0  0  0  0  0  0  0  0  0  0
    6.3584    1.4539    3.6307 H   0  0  0  0  0  0  0  0  0  0  0  0
    5.1682   -0.7051    4.4550 H   0  0  0  0  0  0  0  0  0  0  0  0
    1.7054   -0.6167    3.4779 H   0  0  0  0  0  0  0  0  0  0  0  0
    0.3130   -3.1900    1.8161 H   0  0  0  0  0  0  0  0  0  0  0  0
   -0.4415   -4.5901   -0.0552 H   0  0  0  0  0  0  0  0  0  0  0  0
   -0.7258   -3.6013   -2.3124 H   0  0  0  0  0  0  0  0  0  0  0  0
   -0.2587   -1.2379   -2.6887 H   0  0  0  0  0  0  0  0  0  0  0  0
   -2.6249    0.5835   -3.8228 H   0  0  0  0  0  0  0  0  0  0  0  0
   -4.5973   -0.7693   -3.1766 H   0  0  0  0  0  0  0  0  0  0  0  0
   -5.3842   -0.7785   -0.8246 H   0  0  0  0  0  0  0  0  0  0  0  0
   -4.2146    0.5795    0.8896 H   0  0  0  0  0  0  0  0  0  0  0  0
   -2.2445    1.9426    0.2650 H   0  0  0  0  0  0  0  0  0  0  0  0
  1  2  2  0
  2  3  2  0
  2  4  1  0
  4  5  1  0
  5  6  2  0
  6  7  1  0
  7  8  1  0
  8  9  1  0
  9 10  1  0
 10 11  2  0
 11 12  1  0
 12 13  1  0
  7 14  2  0
 14 15  1  0
 14 16  1  0
 16 17  2  0
 17 18  1  0
 18 19  2  0
 19 20  1  0
 20 21  2  0
  2 22  1  0
 22 23  2  0
 23 24  1  0
 24 25  2  0
 25 26  1  0
 26 27  2  0
 21  5  1  0
 27 22  1  0
 13  9  2  0
 21 16  1  0
  4 28  1  0
  6 29  1  0
 11 30  1  0
 12 31  1  0
 15 32  1  0
 17 33  1  0
 18 34  1  0
 19 35  1  0
 20 36  1  0
 23 37  1  0
 24 38  1  0
 25 39  1  0
 26 40  1  0
 27 41  1  0
M  END
$$$$
