
     RDKit          3D

 87 91  0  0  0  0  0  0  0  0999 V2000
    1.2926    8.0323   -0.5416 C   0  0  0  0  0  0  0  0  0  0  0  0
    0.7189    7.0337   -1.5313 C   0  0  0  0  0  0  0  0  0  0  0  0
    1.4902    5.7356   -1.5374 C   0  0  0  0  0  0  0  0  0  0  0  0
    2.5274    5.5218   -0.9258 O   0  0  0  0  0  0  0  0  0  0  0  0
    0.8518    4.8348   -2.3378 O   0  0  0  0  0  0  0  0  0  0  0  0
    1.4281    3.5223   -2.4011 C   0  0  0  0  0  0  0  0  0  0  0  0
    0.2961    2.4997   -2.4014 C   0  0  1  0  0  0  0  0  0  0  0  0
    0.8056    1.0489   -2.5441 C   0  0  0  0  0  0  0  0  0  0  0  0
   -0.2092    0.1230   -1.7916 C   0  0  2  0  0  0  0  0  0  0  0  0
    0.4198   -0.4512   -0.6350 O   0  0  0  0  0  0  0  0  0  0  0  0
    1.5213   -1.2227   -0.8148 C   0  0  0  0  0  0  0  0  0  0  0  0
    2.0704   -1.4727   -1.8737 O   0  0  0  0  0  0  0  0  0  0  0  0
    1.9371   -1.7531    0.4958 C   0  0  0  0  0  0  0  0  0  0  0  0
    2.7934   -2.7838    0.5523 C   0  0  0  0  0  0  0  0  0  0  0  0
    3.2688   -3.4091    1.7957 C   0  0  0  0  0  0  0  0  0  0  0  0
    2.4976   -3.4527    2.9665 C   0  0  0  0  0  0  0  0  0  0  0  0
    2.9819   -4.0860    4.1148 C   0  0  0  0  0  0  0  0  0  0  0  0
    4.2355   -4.6955    4.1020 C   0  0  0  0  0  0  0  0  0  0  0  0
    5.0045   -4.6756    2.9400 C   0  0  0  0  0  0  0  0  0  0  0  0
    4.5224   -4.0387    1.7923 C   0  0  0  0  0  0  0  0  0  0  0  0
   -0.9053   -0.8683   -2.7733 C   0  0  0  0  0  0  0  0  0  0  0  0
   -1.5496   -0.4580   -3.7450 O   0  0  0  0  0  0  0  0  0  0  0  0
   -0.7130   -2.3432   -2.6438 C   0  0  0  0  0  0  0  0  0  0  0  0
   -0.0021   -2.9410   -3.8265 C   0  0  0  0  0  0  0  0  0  0  0  0
   -1.1396   -3.1042   -1.6187 C   0  0  0  0  0  0  0  0  0  0  0  0
   -1.9086   -2.7928   -0.4010 C   0  0  0  0  0  0  0  0  0  0  0  0
   -3.3819   -2.4347   -0.4386 C   0  0  2  0  0  0  0  0  0  0  0  0
   -4.1427   -1.5429    0.5161 C   0  0  0  0  0  0  0  0  0  0  0  0
   -3.3598   -0.7376    1.5535 C   0  0  0  0  0  0  0  0  0  0  0  0
   -2.2464    0.1446    1.0232 C   0  0  2  0  0  0  0  0  0  0  0  0
   -1.0392    0.1922    1.9100 C   0  0  0  0  0  0  0  0  0  0  0  0
   -2.6755    1.4861    0.6887 O   0  0  0  0  0  0  0  0  0  0  0  0
   -2.3437    0.6608   -0.4195 C   0  0  1  0  0  0  0  0  0  0  0  0
   -1.2920    1.1489   -1.3500 C   0  0  1  0  0  0  0  0  0  0  0  0
   -0.5701    2.4769   -1.1261 C   0  0  1  0  0  0  0  0  0  0  0  0
    0.2776    2.4536    0.0271 O   0  0  0  0  0  0  0  0  0  0  0  0
    0.2788    3.5727    0.8095 C   0  0  0  0  0  0  0  0  0  0  0  0
   -0.4009    4.5711    0.6211 O   0  0  0  0  0  0  0  0  0  0  0  0
    1.2666    3.3908    1.9378 C   0  0  0  0  0  0  0  0  0  0  0  0
    1.4939    4.6803    2.7066 C   0  0  0  0  0  0  0  0  0  0  0  0
   -2.9629   -3.8283    0.0094 C   0  0  0  0  0  0  0  0  0  0  0  0
   -3.3858   -4.9573   -0.9089 C   0  0  0  0  0  0  0  0  0  0  0  0
   -2.9767   -4.2389    1.4627 C   0  0  0  0  0  0  0  0  0  0  0  0
    2.3234    8.2987   -0.8034 H   0  0  0  0  0  0  0  0  0  0  0  0
    1.3009    7.6170    0.4712 H   0  0  0  0  0  0  0  0  0  0  0  0
    0.6940    8.9471   -0.5297 H   0  0  0  0  0  0  0  0  0  0  0  0
   -0.3203    6.8174   -1.2600 H   0  0  0  0  0  0  0  0  0  0  0  0
    0.7461    7.4566   -2.5415 H   0  0  0  0  0  0  0  0  0  0  0  0
    1.9873    3.4553   -3.3408 H   0  0  0  0  0  0  0  0  0  0  0  0
    2.1269    3.3259   -1.5805 H   0  0  0  0  0  0  0  0  0  0  0  0
   -0.3649    2.7226   -3.2526 H   0  0  0  0  0  0  0  0  0  0  0  0
    0.8915    0.7923   -3.6070 H   0  0  0  0  0  0  0  0  0  0  0  0
    1.8113    0.9838   -2.1132 H   0  0  0  0  0  0  0  0  0  0  0  0
    1.5234   -1.2830    1.3752 H   0  0  0  0  0  0  0  0  0  0  0  0
    3.1941   -3.2064   -0.3689 H   0  0  0  0  0  0  0  0  0  0  0  0
    1.5069   -3.0063    3.0026 H   0  0  0  0  0  0  0  0  0  0  0  0
    2.3782   -4.1063    5.0184 H   0  0  0  0  0  0  0  0  0  0  0  0
    4.6114   -5.1877    4.9947 H   0  0  0  0  0  0  0  0  0  0  0  0
    5.9793   -5.1578    2.9233 H   0  0  0  0  0  0  0  0  0  0  0  0
    5.1405   -4.0364    0.8957 H   0  0  0  0  0  0  0  0  0  0  0  0
    0.2537   -3.9930   -3.6633 H   0  0  0  0  0  0  0  0  0  0  0  0
   -0.6329   -2.8867   -4.7199 H   0  0  0  0  0  0  0  0  0  0  0  0
    0.9296   -2.4058   -4.0340 H   0  0  0  0  0  0  0  0  0  0  0  0
   -0.8704   -4.1589   -1.6867 H   0  0  0  0  0  0  0  0  0  0  0  0
   -1.2962   -2.3905    0.3959 H   0  0  0  0  0  0  0  0  0  0  0  0
   -3.8319   -2.3526   -1.4273 H   0  0  0  0  0  0  0  0  0  0  0  0
   -4.8870   -2.1525    1.0444 H   0  0  0  0  0  0  0  0  0  0  0  0
   -4.7413   -0.8448   -0.0833 H   0  0  0  0  0  0  0  0  0  0  0  0
   -4.0668   -0.1096    2.1110 H   0  0  0  0  0  0  0  0  0  0  0  0
   -2.9475   -1.4276    2.2968 H   0  0  0  0  0  0  0  0  0  0  0  0
   -0.7184   -0.8193    2.1785 H   0  0  0  0  0  0  0  0  0  0  0  0
   -0.1866    0.6887    1.4589 H   0  0  0  0  0  0  0  0  0  0  0  0
   -1.2782    0.7205    2.8395 H   0  0  0  0  0  0  0  0  0  0  0  0
   -3.1828    0.3159   -1.0159 H   0  0  0  0  0  0  0  0  0  0  0  0
   -1.8953    1.3706   -2.2473 H   0  0  0  0  0  0  0  0  0  0  0  0
   -1.2832    3.3085   -1.1083 H   0  0  0  0  0  0  0  0  0  0  0  0
    0.8858    2.6201    2.6163 H   0  0  0  0  0  0  0  0  0  0  0  0
    2.2208    3.0566    1.5143 H   0  0  0  0  0  0  0  0  0  0  0  0
    0.5679    5.0252    3.1773 H   0  0  0  0  0  0  0  0  0  0  0  0
    2.2411    4.5291    3.4906 H   0  0  0  0  0  0  0  0  0  0  0  0
    1.8496    5.4748    2.0424 H   0  0  0  0  0  0  0  0  0  0  0  0
   -2.6929   -5.8002   -0.8188 H   0  0  0  0  0  0  0  0  0  0  0  0
   -4.3885   -5.3060   -0.6383 H   0  0  0  0  0  0  0  0  0  0  0  0
   -3.4170   -4.6554   -1.9614 H   0  0  0  0  0  0  0  0  0  0  0  0
   -2.4805   -3.5178    2.1135 H   0  0  0  0  0  0  0  0  0  0  0  0
   -2.4518   -5.1909    1.5914 H   0  0  0  0  0  0  0  0  0  0  0  0
   -4.0050   -4.3728    1.8119 H   0  0  0  0  0  0  0  0  0  0  0  0
  1  2  1  0
  2  3  1  0
  3  4  2  0
  3  5  1  0
  5  6  1  0
  6  7  1  0
  7  8  1  0
  8  9  1  0
  9 10  1  1
 10 11  1  0
 11 12  2  0
 11 13  1  0
 13 14  2  0
 14 15  1  0
 15 16  2  0
 16 17  1  0
 17 18  2  0
 18 19  1  0
 19 20  2  0
  9 21  1  0
 21 22  2  0
 21 23  1  0
 23 24  1  0
 23 25  2  3
 25 26  1  0
 26 27  1  0
 27 28  1  0
 28 29  1  0
 29 30  1  0
 30 31  1  1
 30 32  1  0
 32 33  1  0
 33 34  1  0
 34 35  1  0
 35 36  1  0
 36 37  1  0
 37 38  2  0
 37 39  1  0
 39 40  1  0
 27 41  1  0
 41 42  1  0
 41 43  1  0
 35  7  1  0
 34  9  1  0
 20 15  1  0
 41 26  1  0
 33 30  1  0
  1 44  1  0
  1 45  1  0
  1 46  1  0
  2 47  1  0
  2 48  1  0
  6 49  1  0
  6 50  1  0
  7 51  1  6
  8 52  1  0
  8 53  1  0
 13 54  1  0
 14 55  1  0
 16 56  1  0
 17 57  1  0
 18 58  1  0
 19 59  1  0
 20 60  1  0
 24 61  1  0
 24 62  1  0
 24 63  1  0
 25 64  1  0
 26 65  1  0
 27 66  1  6
 28 67  1  0
 28 68  1  0
 29 69  1  0
 29 70  1  0
 31 71  1  0
 31 72  1  0
 31 73  1  0
 33 74  1  6
 34 75  1  6
 35 76  1  1
 39 77  1  0
 39 78  1  0
 40 79  1  0
 40 80  1  0
 40 81  1  0
 42 82  1  0
 42 83  1  0
 42 84  1  0
 43 85  1  0
 43 86  1  0
 43 87  1  0
M  END
$$$$
