
     RDKit          3D

 43 45  0  0  0  0  0  0  0  0999 V2000
    6.1112   -2.3308    1.4846 C   0  0  0  0  0  0  0  0  0  0  0  0
    5.4467   -1.0960    0.9516 C   0  0  0  0  0  0  0  0  0  0  0  0
    6.2140    0.0004    0.5452 C   0  0  0  0  0  0  0  0  0  0  0  0
    5.6005    1.1455    0.0249 C   0  0  0  0  0  0  0  0  0  0  0  0
    6.4283    2.3108   -0.4326 C   0  0  0  0  0  0  0  0  0  0  0  0
    4.2050    1.1733   -0.1223 C   0  0  0  0  0  0  0  0  0  0  0  0
    3.4233    0.0821    0.2598 C   0  0  0  0  0  0  0  0  0  0  0  0
    2.0169    0.0419    0.1486 N   0  0  0  0  0  0  0  0  0  0  0  0
    1.1912    0.9948   -0.4195 C   0  0  0  0  0  0  0  0  0  0  0  0
    1.5295    2.0210   -0.9952 O   0  0  0  0  0  0  0  0  0  0  0  0
   -0.2629    0.6842   -0.3326 C   0  0  0  0  0  0  0  0  0  0  0  0
   -0.8246    0.1151    0.8144 C   0  0  0  0  0  0  0  0  0  0  0  0
   -2.1975   -0.1541    0.8582 C   0  0  0  0  0  0  0  0  0  0  0  0
   -3.0255    0.1419   -0.2349 C   0  0  0  0  0  0  0  0  0  0  0  0
   -4.3965   -0.1643   -0.0994 N   0  0  0  0  0  0  0  0  0  0  0  0
   -5.4022   -0.0158   -1.0478 C   0  0  0  0  0  0  0  0  0  0  0  0
   -5.2141    0.3880   -2.1914 O   0  0  0  0  0  0  0  0  0  0  0  0
   -6.7271   -0.3989   -0.5707 C   0  0  0  0  0  0  0  0  0  0  0  0
   -7.2285   -0.7991    0.6590 C   0  0  0  0  0  0  0  0  0  0  0  0
   -8.6160   -1.0344    0.4861 C   0  0  0  0  0  0  0  0  0  0  0  0
   -8.8862   -0.7647   -0.8322 C   0  0  0  0  0  0  0  0  0  0  0  0
   -7.7581   -0.3807   -1.4770 O   0  0  0  0  0  0  0  0  0  0  0  0
   -2.4576    0.7264   -1.3688 C   0  0  0  0  0  0  0  0  0  0  0  0
   -1.0855    1.0030   -1.4159 C   0  0  0  0  0  0  0  0  0  0  0  0
    4.0541   -1.0486    0.7966 C   0  0  0  0  0  0  0  0  0  0  0  0
    5.4638   -2.8429    2.2041 H   0  0  0  0  0  0  0  0  0  0  0  0
    6.3400   -3.0166    0.6632 H   0  0  0  0  0  0  0  0  0  0  0  0
    7.0409   -2.0805    2.0064 H   0  0  0  0  0  0  0  0  0  0  0  0
    7.2981   -0.0352    0.6354 H   0  0  0  0  0  0  0  0  0  0  0  0
    6.6687    2.2044   -1.4948 H   0  0  0  0  0  0  0  0  0  0  0  0
    5.8916    3.2535   -0.2822 H   0  0  0  0  0  0  0  0  0  0  0  0
    7.3618    2.3755    0.1362 H   0  0  0  0  0  0  0  0  0  0  0  0
    3.7510    2.0664   -0.5416 H   0  0  0  0  0  0  0  0  0  0  0  0
    1.5804   -0.8153    0.4598 H   0  0  0  0  0  0  0  0  0  0  0  0
   -0.2162   -0.0939    1.6903 H   0  0  0  0  0  0  0  0  0  0  0  0
   -2.6090   -0.5914    1.7648 H   0  0  0  0  0  0  0  0  0  0  0  0
   -4.6687   -0.5589    0.7880 H   0  0  0  0  0  0  0  0  0  0  0  0
   -6.6775   -0.9065    1.5817 H   0  0  0  0  0  0  0  0  0  0  0  0
   -9.3314   -1.3564    1.2301 H   0  0  0  0  0  0  0  0  0  0  0  0
   -9.7822   -0.7935   -1.4371 H   0  0  0  0  0  0  0  0  0  0  0  0
   -3.0512    0.9937   -2.2380 H   0  0  0  0  0  0  0  0  0  0  0  0
   -0.6632    1.4687   -2.3049 H   0  0  0  0  0  0  0  0  0  0  0  0
    3.4649   -1.9122    1.0949 H   0  0  0  0  0  0  0  0  0  0  0  0
  1  2  1  0
  2  3  2  0
  3  4  1  0
  4  5  1  0
  4  6  2  0
  6  7  1  0
  7  8  1  0
  8  9  1  0
  9 10  2  0
  9 11  1  0
 11 12  2  0
 12 13  1  0
 13 14  2  0
 14 15  1  0
 15 16  1  0
 16 17  2  0
 16 18  1  0
 18 19  2  0
 19 20  1  0
 20 21  2  0
 21 22  1  0
 14 23  1  0
 23 24  2  0
  7 25  2  0
 25  2  1  0
 24 11  1  0
 22 18  1  0
  1 26  1  0
  1 27  1  0
  1 28  1  0
  3 29  1  0
  5 30  1  0
  5 31  1  0
  5 32  1  0
  6 33  1  0
  8 34  1  0
 12 35  1  0
 13 36  1  0
 15 37  1  0
 19 38  1  0
 20 39  1  0
 21 40  1  0
 23 41  1  0
 24 42  1  0
 25 43  1  0
M  END
$$$$
