
     RDKit          3D

 48 52  0  0  0  0  0  0  0  0999 V2000
   -5.0029   -0.3396    0.9582 C   0  0  0  0  0  0  0  0  0  0  0  0
   -3.6720   -0.2817    0.3966 N   0  0  0  0  0  0  0  0  0  0  0  0
   -2.6387    0.4456    0.9175 C   0  0  0  0  0  0  0  0  0  0  0  0
   -1.5148    0.2601    0.1250 C   0  0  0  0  0  0  0  0  0  0  0  0
   -0.1709    0.9055    0.3833 C   0  0  0  0  0  0  0  0  0  0  0  0
    0.2410    1.6456   -0.8931 C   0  0  0  0  0  0  0  0  0  0  0  0
   -0.3879    2.8612   -1.1919 C   0  0  0  0  0  0  0  0  0  0  0  0
   -0.0293    3.5583   -2.3433 C   0  0  0  0  0  0  0  0  0  0  0  0
    0.9491    3.0358   -3.1767 C   0  0  0  0  0  0  0  0  0  0  0  0
    1.5278    1.8308   -2.8242 C   0  0  0  0  0  0  0  0  0  0  0  0
    1.1967    1.1324   -1.7173 N   0  0  0  0  0  0  0  0  0  0  0  0
    0.9385   -0.0102    0.8407 C   0  0  0  0  0  0  0  0  0  0  0  0
    0.9626   -1.3960    0.8551 C   0  0  0  0  0  0  0  0  0  0  0  0
    2.1555   -1.8133    1.3765 N   0  0  0  0  0  0  0  0  0  0  0  0
    2.5476   -3.1968    1.5209 C   0  0  0  0  0  0  0  0  0  0  0  0
    2.9207   -0.7320    1.7503 C   0  0  0  0  0  0  0  0  0  0  0  0
    4.1922   -0.6633    2.3431 C   0  0  0  0  0  0  0  0  0  0  0  0
    4.7279    0.5999    2.6080 C   0  0  0  0  0  0  0  0  0  0  0  0
    4.0221    1.7554    2.2905 C   0  0  0  0  0  0  0  0  0  0  0  0
    2.7563    1.6751    1.7000 C   0  0  0  0  0  0  0  0  0  0  0  0
    2.1875    0.4121    1.4232 C   0  0  0  0  0  0  0  0  0  0  0  0
   -1.9134   -0.6403   -0.9268 C   0  0  0  0  0  0  0  0  0  0  0  0
   -1.2481   -1.2246   -2.0275 C   0  0  0  0  0  0  0  0  0  0  0  0
   -1.9369   -2.0831   -2.8905 C   0  0  0  0  0  0  0  0  0  0  0  0
   -3.2788   -2.3726   -2.6742 C   0  0  0  0  0  0  0  0  0  0  0  0
   -3.9650   -1.8163   -1.5921 C   0  0  0  0  0  0  0  0  0  0  0  0
   -3.2628   -0.9552   -0.7317 C   0  0  0  0  0  0  0  0  0  0  0  0
   -5.0518    0.2873    1.8523 H   0  0  0  0  0  0  0  0  0  0  0  0
   -5.7102    0.0283    0.2105 H   0  0  0  0  0  0  0  0  0  0  0  0
   -5.2223   -1.3772    1.2225 H   0  0  0  0  0  0  0  0  0  0  0  0
   -2.7694    1.0376    1.8143 H   0  0  0  0  0  0  0  0  0  0  0  0
   -0.2988    1.6598    1.1743 H   0  0  0  0  0  0  0  0  0  0  0  0
   -1.1585    3.2586   -0.5381 H   0  0  0  0  0  0  0  0  0  0  0  0
   -0.5140    4.4989   -2.5870 H   0  0  0  0  0  0  0  0  0  0  0  0
    1.2518    3.5518   -4.0802 H   0  0  0  0  0  0  0  0  0  0  0  0
    2.2980    1.3767   -3.4404 H   0  0  0  0  0  0  0  0  0  0  0  0
    0.2209   -2.1124    0.5263 H   0  0  0  0  0  0  0  0  0  0  0  0
    1.7592   -3.8454    1.1303 H   0  0  0  0  0  0  0  0  0  0  0  0
    3.4694   -3.3563    0.9557 H   0  0  0  0  0  0  0  0  0  0  0  0
    2.7034   -3.4031    2.5828 H   0  0  0  0  0  0  0  0  0  0  0  0
    4.7508   -1.5602    2.5893 H   0  0  0  0  0  0  0  0  0  0  0  0
    5.7118    0.6787    3.0638 H   0  0  0  0  0  0  0  0  0  0  0  0
    4.4568    2.7298    2.4964 H   0  0  0  0  0  0  0  0  0  0  0  0
    2.2217    2.5851    1.4459 H   0  0  0  0  0  0  0  0  0  0  0  0
   -0.1970   -1.0145   -2.2066 H   0  0  0  0  0  0  0  0  0  0  0  0
   -1.4133   -2.5242   -3.7344 H   0  0  0  0  0  0  0  0  0  0  0  0
   -3.8009   -3.0415   -3.3538 H   0  0  0  0  0  0  0  0  0  0  0  0
   -5.0117   -2.0502   -1.4283 H   0  0  0  0  0  0  0  0  0  0  0  0
  1  2  1  0
  2  3  1  0
  3  4  2  0
  4  5  1  0
  5  6  1  0
  6  7  2  0
  7  8  1  0
  8  9  2  0
  9 10  1  0
 10 11  2  0
  5 12  1  0
 12 13  2  0
 13 14  1  0
 14 15  1  0
 14 16  1  0
 16 17  2  0
 17 18  1  0
 18 19  2  0
 19 20  1  0
 20 21  2  0
  4 22  1  0
 22 23  2  0
 23 24  1  0
 24 25  2  0
 25 26  1  0
 26 27  2  0
 27  2  1  0
 11  6  1  0
 21 12  1  0
 27 22  1  0
 21 16  1  0
  1 28  1  0
  1 29  1  0
  1 30  1  0
  3 31  1  0
  5 32  1  0
  7 33  1  0
  8 34  1  0
  9 35  1  0
 10 36  1  0
 13 37  1  0
 15 38  1  0
 15 39  1  0
 15 40  1  0
 17 41  1  0
 18 42  1  0
 19 43  1  0
 20 44  1  0
 23 45  1  0
 24 46  1  0
 25 47  1  0
 26 48  1  0
M  END
$$$$
