
     RDKit          3D

 53 55  0  0  0  0  0  0  0  0999 V2000
   -6.6492    1.4617    3.7518 C   0  0  0  0  0  0  0  0  0  0  0  0
   -5.6387    1.1717    2.7966 O   0  0  0  0  0  0  0  0  0  0  0  0
   -5.6306   -0.0834    2.2421 C   0  0  0  0  0  0  0  0  0  0  0  0
   -6.5042   -1.1170    2.6110 C   0  0  0  0  0  0  0  0  0  0  0  0
   -6.4418   -2.3594    1.9765 C   0  0  0  0  0  0  0  0  0  0  0  0
   -5.5154   -2.5792    0.9642 C   0  0  0  0  0  0  0  0  0  0  0  0
   -4.6410   -1.5575    0.5884 C   0  0  0  0  0  0  0  0  0  0  0  0
   -4.6667   -0.3061    1.2356 C   0  0  0  0  0  0  0  0  0  0  0  0
   -3.7356    0.8091    0.7954 C   0  0  0  0  0  0  0  0  0  0  0  0
   -2.4438    0.3154    0.3735 N   0  0  0  0  0  0  0  0  0  0  0  0
   -1.8556    0.6725   -0.8142 C   0  0  0  0  0  0  0  0  0  0  0  0
   -2.3184    1.4189   -1.6646 O   0  0  0  0  0  0  0  0  0  0  0  0
   -0.4726    0.0178   -1.0388 C   0  0  0  0  0  0  0  0  0  0  0  0
    0.0834   -0.5902   -0.1344 O   0  0  0  0  0  0  0  0  0  0  0  0
    0.0269    0.2047   -2.3071 N   0  0  0  0  0  0  0  0  0  0  0  0
    1.3492   -0.2614   -2.6893 C   0  0  0  0  0  0  0  0  0  0  0  0
    2.4944    0.4917   -1.9789 C   0  0  0  0  0  0  0  0  0  0  0  0
    2.4428    1.8910   -2.3583 O   0  0  0  0  0  0  0  0  0  0  0  0
    3.5872    2.1541   -3.1754 C   0  0  0  0  0  0  0  0  0  0  0  0
    4.6332    1.1817   -2.6821 C   0  0  0  0  0  0  0  0  0  0  0  0
    3.8141    0.0049   -2.4048 N   0  0  0  0  0  0  0  0  0  0  0  0
    4.4932   -1.3117   -1.6242 S   0  0  0  0  0  6  0  0  0  0  0  0
    3.4999   -2.3603   -1.5573 O   0  0  0  0  0  0  0  0  0  0  0  0
    5.7855   -1.5536   -2.2326 O   0  0  0  0  0  0  0  0  0  0  0  0
    4.7875   -0.7503    0.0406 C   0  0  0  0  0  0  0  0  0  0  0  0
    3.8041   -0.9395    1.0189 C   0  0  0  0  0  0  0  0  0  0  0  0
    4.0517   -0.5346    2.3325 C   0  0  0  0  0  0  0  0  0  0  0  0
    5.2834    0.0327    2.6632 C   0  0  0  0  0  0  0  0  0  0  0  0
    5.6174    0.5707    4.4444 Br  0  0  0  0  0  0  0  0  0  0  0  0
    6.2745    0.1964    1.6942 C   0  0  0  0  0  0  0  0  0  0  0  0
    6.0312   -0.2041    0.3784 C   0  0  0  0  0  0  0  0  0  0  0  0
   -6.5388    2.5100    4.0502 H   0  0  0  0  0  0  0  0  0  0  0  0
   -6.5294    0.8485    4.6486 H   0  0  0  0  0  0  0  0  0  0  0  0
   -7.6468    1.3405    3.3189 H   0  0  0  0  0  0  0  0  0  0  0  0
   -7.2518   -0.9888    3.3915 H   0  0  0  0  0  0  0  0  0  0  0  0
   -7.1237   -3.1545    2.2717 H   0  0  0  0  0  0  0  0  0  0  0  0
   -5.4748   -3.5428    0.4614 H   0  0  0  0  0  0  0  0  0  0  0  0
   -3.9383   -1.7418   -0.2255 H   0  0  0  0  0  0  0  0  0  0  0  0
   -3.5213    1.4932    1.6277 H   0  0  0  0  0  0  0  0  0  0  0  0
   -4.2119    1.3835   -0.0110 H   0  0  0  0  0  0  0  0  0  0  0  0
   -1.9116   -0.2814    0.9993 H   0  0  0  0  0  0  0  0  0  0  0  0
   -0.4687    0.8705   -2.8958 H   0  0  0  0  0  0  0  0  0  0  0  0
    1.4194   -0.1310   -3.7755 H   0  0  0  0  0  0  0  0  0  0  0  0
    1.3917   -1.3327   -2.4708 H   0  0  0  0  0  0  0  0  0  0  0  0
    2.3777    0.4710   -0.8940 H   0  0  0  0  0  0  0  0  0  0  0  0
    3.8893    3.1992   -3.0743 H   0  0  0  0  0  0  0  0  0  0  0  0
    3.3120    1.9602   -4.2170 H   0  0  0  0  0  0  0  0  0  0  0  0
    5.0901    1.5623   -1.7620 H   0  0  0  0  0  0  0  0  0  0  0  0
    5.4055    0.9961   -3.4322 H   0  0  0  0  0  0  0  0  0  0  0  0
    2.8478   -1.3993    0.7717 H   0  0  0  0  0  0  0  0  0  0  0  0
    3.2836   -0.6751    3.0907 H   0  0  0  0  0  0  0  0  0  0  0  0
    7.2397    0.6217    1.9576 H   0  0  0  0  0  0  0  0  0  0  0  0
    6.8138   -0.0960   -0.3695 H   0  0  0  0  0  0  0  0  0  0  0  0
  1  2  1  0
  2  3  1  0
  3  4  2  0
  4  5  1  0
  5  6  2  0
  6  7  1  0
  7  8  2  0
  8  9  1  0
  9 10  1  0
 10 11  1  0
 11 12  2  0
 11 13  1  0
 13 14  2  0
 13 15  1  0
 15 16  1  0
 16 17  1  0
 17 18  1  0
 18 19  1  0
 19 20  1  0
 20 21  1  0
 21 22  1  0
 22 23  2  0
 22 24  2  0
 22 25  1  0
 25 26  2  0
 26 27  1  0
 27 28  2  0
 28 29  1  0
 28 30  1  0
 30 31  2  0
  8  3  1  0
 21 17  1  0
 31 25  1  0
  1 32  1  0
  1 33  1  0
  1 34  1  0
  4 35  1  0
  5 36  1  0
  6 37  1  0
  7 38  1  0
  9 39  1  0
  9 40  1  0
 10 41  1  0
 15 42  1  0
 16 43  1  0
 16 44  1  0
 17 45  1  0
 19 46  1  0
 19 47  1  0
 20 48  1  0
 20 49  1  0
 26 50  1  0
 27 51  1  0
 30 52  1  0
 31 53  1  0
M  END
$$$$
