
     RDKit          3D

 25 26  0  0  0  0  0  0  0  0999 V2000
   -2.9443    2.3847   -1.4340 O   0  0  0  0  0  0  0  0  0  0  0  0
   -2.5987    1.2888   -1.0276 C   0  0  0  0  0  0  0  0  0  0  0  0
   -3.4382    0.0466   -0.9870 C   0  0  0  0  0  0  0  0  0  0  0  0
   -2.5930   -0.8893   -0.1291 C   0  0  0  0  0  0  0  0  0  0  0  0
   -1.2121   -0.4278   -0.3404 N   0  0  0  0  0  0  0  0  0  0  0  0
   -0.3623   -0.7396    0.8206 C   0  0  0  0  0  0  0  0  0  0  0  0
    1.0881   -0.3611    0.5929 C   0  0  0  0  0  0  0  0  0  0  0  0
    1.6947    0.6415    1.3647 C   0  0  0  0  0  0  0  0  0  0  0  0
    3.0309    0.9885    1.1501 C   0  0  0  0  0  0  0  0  0  0  0  0
    3.7668    0.3362    0.1630 C   0  0  0  0  0  0  0  0  0  0  0  0
    5.4122    0.7653   -0.0998 Cl  0  0  0  0  0  0  0  0  0  0  0  0
    3.1787   -0.6595   -0.6132 C   0  0  0  0  0  0  0  0  0  0  0  0
    1.8432   -1.0071   -0.3988 C   0  0  0  0  0  0  0  0  0  0  0  0
   -1.3461    0.9479   -0.5615 N   0  0  0  0  0  0  0  0  0  0  0  0
   -3.5569   -0.3335   -2.0063 H   0  0  0  0  0  0  0  0  0  0  0  0
   -4.4110    0.2483   -0.5323 H   0  0  0  0  0  0  0  0  0  0  0  0
   -2.7211   -1.9359   -0.4225 H   0  0  0  0  0  0  0  0  0  0  0  0
   -2.9005   -0.7842    0.9201 H   0  0  0  0  0  0  0  0  0  0  0  0
   -0.3918   -1.8190    1.0200 H   0  0  0  0  0  0  0  0  0  0  0  0
   -0.7398   -0.2447    1.7257 H   0  0  0  0  0  0  0  0  0  0  0  0
    1.1309    1.1606    2.1370 H   0  0  0  0  0  0  0  0  0  0  0  0
    3.4901    1.7665    1.7541 H   0  0  0  0  0  0  0  0  0  0  0  0
    3.7502   -1.1659   -1.3862 H   0  0  0  0  0  0  0  0  0  0  0  0
    1.3867   -1.7799   -1.0148 H   0  0  0  0  0  0  0  0  0  0  0  0
   -0.5563    1.5727   -0.6946 H   0  0  0  0  0  0  0  0  0  0  0  0
  1  2  2  0
  2  3  1  0
  3  4  1  0
  4  5  1  0
  5  6  1  0
  6  7  1  0
  7  8  2  0
  8  9  1  0
  9 10  2  0
 10 11  1  0
 10 12  1  0
 12 13  2  0
  5 14  1  0
 14  2  1  0
 13  7  1  0
  3 15  1  0
  3 16  1  0
  4 17  1  0
  4 18  1  0
  6 19  1  0
  6 20  1  0
  8 21  1  0
  9 22  1  0
 12 23  1  0
 13 24  1  0
 14 25  1  0
M  END
$$$$
