
     RDKit          3D

 59 62  0  0  0  0  0  0  0  0999 V2000
   -7.1684   -0.9085   -2.7138 C   0  0  0  0  0  0  0  0  0  0  0  0
   -5.8704   -1.6738   -2.9078 C   0  0  0  0  0  0  0  0  0  0  0  0
   -4.9839   -1.5581   -1.7605 N   0  0  0  0  0  0  0  0  0  0  0  0
   -4.9653   -2.4321   -0.6874 C   0  0  0  0  0  0  0  0  0  0  0  0
   -5.7367   -3.5743   -0.4077 C   0  0  0  0  0  0  0  0  0  0  0  0
   -5.4869   -4.2662    0.7821 C   0  0  0  0  0  0  0  0  0  0  0  0
   -4.5041   -3.8363    1.6687 C   0  0  0  0  0  0  0  0  0  0  0  0
   -3.7417   -2.6995    1.3821 C   0  0  0  0  0  0  0  0  0  0  0  0
   -3.9717   -1.9836    0.1861 C   0  0  0  0  0  0  0  0  0  0  0  0
   -3.3839   -0.8146   -0.3909 C   0  0  0  0  0  0  0  0  0  0  0  0
   -2.3489    0.0581    0.0176 C   0  0  0  0  0  0  0  0  0  0  0  0
   -2.0001    1.1658   -0.7777 C   0  0  0  0  0  0  0  0  0  0  0  0
   -0.9663    1.9938   -0.2936 N   0  0  0  0  0  0  0  0  0  0  0  0
   -0.4618    3.1545   -0.8575 C   0  0  0  0  0  0  0  0  0  0  0  0
   -0.8327    3.6728   -1.9059 O   0  0  0  0  0  0  0  0  0  0  0  0
    0.6376    3.8027   -0.0016 C   0  0  0  0  0  0  0  0  0  0  0  0
    0.0400    4.3738    1.2804 C   0  0  0  0  0  0  0  0  0  0  0  0
    1.6040    2.7745    0.2931 O   0  0  0  0  0  0  0  0  0  0  0  0
    2.8355    3.2261    0.6425 C   0  0  0  0  0  0  0  0  0  0  0  0
    3.1484    4.3872    0.8401 O   0  0  0  0  0  0  0  0  0  0  0  0
    3.7682    2.0832    0.7911 C   0  0  0  0  0  0  0  0  0  0  0  0
    3.5900    0.8860    0.0898 C   0  0  0  0  0  0  0  0  0  0  0  0
    4.5188   -0.1516    0.2341 C   0  0  0  0  0  0  0  0  0  0  0  0
    5.6298   -0.0124    1.0808 C   0  0  0  0  0  0  0  0  0  0  0  0
    6.5310   -1.0975    1.1411 N   0  0  0  0  0  0  0  0  0  0  0  0
    7.6697   -1.2032    1.9305 C   0  0  0  0  0  0  0  0  0  0  0  0
    8.0438   -0.3942    2.7736 O   0  0  0  0  0  0  0  0  0  0  0  0
    8.4663   -2.4640    1.6786 C   0  0  0  0  0  0  0  0  0  0  0  0
    9.5321   -2.1952    0.7191 C   0  0  0  0  0  0  0  0  0  0  0  0
   10.3707   -2.0185   -0.0663 N   0  0  0  0  0  0  0  0  0  0  0  0
    5.7966    1.1837    1.7820 C   0  0  0  0  0  0  0  0  0  0  0  0
    4.8762    2.2294    1.6330 C   0  0  0  0  0  0  0  0  0  0  0  0
   -2.6779    1.3922   -1.9766 C   0  0  0  0  0  0  0  0  0  0  0  0
   -3.6979    0.5332   -2.4074 C   0  0  0  0  0  0  0  0  0  0  0  0
   -4.0370   -0.5649   -1.6000 C   0  0  0  0  0  0  0  0  0  0  0  0
   -7.7221   -1.2782   -1.8441 H   0  0  0  0  0  0  0  0  0  0  0  0
   -7.8063   -1.0186   -3.5960 H   0  0  0  0  0  0  0  0  0  0  0  0
   -6.9794    0.1594   -2.5596 H   0  0  0  0  0  0  0  0  0  0  0  0
   -6.0698   -2.7366   -3.0833 H   0  0  0  0  0  0  0  0  0  0  0  0
   -5.3350   -1.3076   -3.7892 H   0  0  0  0  0  0  0  0  0  0  0  0
   -6.5073   -3.9219   -1.0874 H   0  0  0  0  0  0  0  0  0  0  0  0
   -6.0710   -5.1544    1.0194 H   0  0  0  0  0  0  0  0  0  0  0  0
   -4.3243   -4.3866    2.5896 H   0  0  0  0  0  0  0  0  0  0  0  0
   -2.9776   -2.3695    2.0801 H   0  0  0  0  0  0  0  0  0  0  0  0
   -1.8415   -0.1412    0.9604 H   0  0  0  0  0  0  0  0  0  0  0  0
   -0.5205    1.6953    0.5658 H   0  0  0  0  0  0  0  0  0  0  0  0
    1.0988    4.5959   -0.6064 H   0  0  0  0  0  0  0  0  0  0  0  0
   -0.8263    5.0079    1.0662 H   0  0  0  0  0  0  0  0  0  0  0  0
   -0.2757    3.5772    1.9664 H   0  0  0  0  0  0  0  0  0  0  0  0
    0.7788    4.9759    1.8212 H   0  0  0  0  0  0  0  0  0  0  0  0
    2.7500    0.7554   -0.5902 H   0  0  0  0  0  0  0  0  0  0  0  0
    4.3609   -1.0647   -0.3372 H   0  0  0  0  0  0  0  0  0  0  0  0
    6.3210   -1.8667    0.5166 H   0  0  0  0  0  0  0  0  0  0  0  0
    7.8097   -3.2649    1.3173 H   0  0  0  0  0  0  0  0  0  0  0  0
    8.8774   -2.8037    2.6331 H   0  0  0  0  0  0  0  0  0  0  0  0
    6.6442    1.3497    2.4445 H   0  0  0  0  0  0  0  0  0  0  0  0
    5.0352    3.1604    2.1753 H   0  0  0  0  0  0  0  0  0  0  0  0
   -2.4375    2.2388   -2.6202 H   0  0  0  0  0  0  0  0  0  0  0  0
   -4.2047    0.7303   -3.3467 H   0  0  0  0  0  0  0  0  0  0  0  0
  1  2  1  0
  2  3  1  0
  3  4  1  0
  4  5  2  0
  5  6  1  0
  6  7  2  0
  7  8  1  0
  8  9  2  0
  9 10  1  0
 10 11  2  0
 11 12  1  0
 12 13  1  0
 13 14  1  0
 14 15  2  0
 14 16  1  0
 16 17  1  0
 16 18  1  0
 18 19  1  0
 19 20  2  0
 19 21  1  0
 21 22  2  0
 22 23  1  0
 23 24  2  0
 24 25  1  0
 25 26  1  0
 26 27  2  0
 26 28  1  0
 28 29  1  0
 29 30  3  0
 24 31  1  0
 31 32  2  0
 12 33  2  0
 33 34  1  0
 34 35  2  0
 35  3  1  0
  9  4  1  0
 35 10  1  0
 32 21  1  0
  1 36  1  0
  1 37  1  0
  1 38  1  0
  2 39  1  0
  2 40  1  0
  5 41  1  0
  6 42  1  0
  7 43  1  0
  8 44  1  0
 11 45  1  0
 13 46  1  0
 16 47  1  0
 17 48  1  0
 17 49  1  0
 17 50  1  0
 22 51  1  0
 23 52  1  0
 25 53  1  0
 28 54  1  0
 28 55  1  0
 31 56  1  0
 32 57  1  0
 33 58  1  0
 34 59  1  0
M  END
$$$$
