
     RDKit          3D

 67 72  0  0  0  0  0  0  0  0999 V2000
    3.1984    0.0136   -2.6849 O   0  0  0  0  0  0  0  0  0  0  0  0
    2.6882   -0.3053   -1.6074 C   0  0  0  0  0  0  0  0  0  0  0  0
    3.5497   -0.3937   -0.3371 C   0  0  0  0  0  0  0  0  0  0  0  0
    3.5873    0.9800    0.3545 C   0  0  0  0  0  0  0  0  0  0  0  0
    4.5818    1.0447    1.4903 C   0  0  0  0  0  0  0  0  0  0  0  0
    4.1664    0.8353    2.8127 C   0  0  0  0  0  0  0  0  0  0  0  0
    5.0898    0.8753    3.8580 C   0  0  0  0  0  0  0  0  0  0  0  0
    6.4348    1.1240    3.5920 C   0  0  0  0  0  0  0  0  0  0  0  0
    6.8585    1.3310    2.2805 C   0  0  0  0  0  0  0  0  0  0  0  0
    5.9373    1.2904    1.2330 C   0  0  0  0  0  0  0  0  0  0  0  0
    3.0681   -1.4657    0.5368 N   0  0  0  0  0  0  0  0  0  0  0  0
    1.6998   -1.4274    0.7935 C   0  0  0  0  0  0  0  0  0  0  0  0
    1.3353   -1.9043    1.9901 N   0  0  0  0  0  0  0  0  0  0  0  0
    0.0254   -1.9166    2.2320 C   0  0  0  0  0  0  0  0  0  0  0  0
   -0.9278   -1.4342    1.4276 N   0  0  0  0  0  0  0  0  0  0  0  0
   -0.5443   -0.9056    0.2468 C   0  0  0  0  0  0  0  0  0  0  0  0
   -1.5260   -0.2081   -0.4840 N   0  0  0  0  0  0  0  0  0  0  0  0
   -1.3242    1.2705   -0.4413 C   0  0  0  0  0  0  0  0  0  0  0  0
   -2.4329    2.0055    0.3461 C   0  0  0  0  0  0  0  0  0  0  0  0
   -3.7837    1.7210   -0.2090 N   0  0  0  0  0  0  0  0  0  0  0  0
   -4.7986    2.1891    0.6406 C   0  0  0  0  0  0  0  0  0  0  0  0
   -5.6088    1.3527    1.4202 C   0  0  0  0  0  0  0  0  0  0  0  0
   -6.5949    1.8787    2.2631 C   0  0  0  0  0  0  0  0  0  0  0  0
   -6.7880    3.2547    2.3424 C   0  0  0  0  0  0  0  0  0  0  0  0
   -5.9934    4.1050    1.5811 C   0  0  0  0  0  0  0  0  0  0  0  0
   -5.0091    3.5742    0.7429 C   0  0  0  0  0  0  0  0  0  0  0  0
   -3.9240    0.3743   -0.8143 C   0  0  0  0  0  0  0  0  0  0  0  0
   -2.9236   -0.6293   -0.2034 C   0  0  0  0  0  0  0  0  0  0  0  0
    0.7986   -0.9472   -0.1655 C   0  0  0  0  0  0  0  0  0  0  0  0
    1.3124   -0.5194   -1.4450 N   0  0  0  0  0  0  0  0  0  0  0  0
    0.5154   -0.6654   -2.6626 C   0  0  0  0  0  0  0  0  0  0  0  0
    0.4917   -2.0952   -3.1707 C   0  0  0  0  0  0  0  0  0  0  0  0
   -0.5373   -2.9711   -2.7942 C   0  0  0  0  0  0  0  0  0  0  0  0
   -0.5450   -4.2941   -3.2424 C   0  0  0  0  0  0  0  0  0  0  0  0
    0.4780   -4.7505   -4.0701 C   0  0  0  0  0  0  0  0  0  0  0  0
    0.4679   -6.3802   -4.6218 Cl  0  0  0  0  0  0  0  0  0  0  0  0
    1.5085   -3.8958   -4.4531 C   0  0  0  0  0  0  0  0  0  0  0  0
    1.5162   -2.5734   -4.0031 C   0  0  0  0  0  0  0  0  0  0  0  0
    4.5591   -0.6768   -0.6609 H   0  0  0  0  0  0  0  0  0  0  0  0
    2.5952    1.2675    0.7262 H   0  0  0  0  0  0  0  0  0  0  0  0
    3.8468    1.7557   -0.3784 H   0  0  0  0  0  0  0  0  0  0  0  0
    3.1211    0.6323    3.0381 H   0  0  0  0  0  0  0  0  0  0  0  0
    4.7597    0.7106    4.8806 H   0  0  0  0  0  0  0  0  0  0  0  0
    7.1533    1.1548    4.4069 H   0  0  0  0  0  0  0  0  0  0  0  0
    7.9080    1.5237    2.0735 H   0  0  0  0  0  0  0  0  0  0  0  0
    6.2865    1.4528    0.2154 H   0  0  0  0  0  0  0  0  0  0  0  0
    3.5851   -1.6295    1.3959 H   0  0  0  0  0  0  0  0  0  0  0  0
   -0.2974   -2.3411    3.1763 H   0  0  0  0  0  0  0  0  0  0  0  0
   -0.3500    1.5480   -0.0192 H   0  0  0  0  0  0  0  0  0  0  0  0
   -1.3331    1.6342   -1.4762 H   0  0  0  0  0  0  0  0  0  0  0  0
   -2.2329    3.0826    0.3020 H   0  0  0  0  0  0  0  0  0  0  0  0
   -2.3818    1.6955    1.3989 H   0  0  0  0  0  0  0  0  0  0  0  0
   -5.4750    0.2758    1.4094 H   0  0  0  0  0  0  0  0  0  0  0  0
   -7.2083    1.2095    2.8608 H   0  0  0  0  0  0  0  0  0  0  0  0
   -7.5548    3.6626    2.9954 H   0  0  0  0  0  0  0  0  0  0  0  0
   -6.1389    5.1805    1.6322 H   0  0  0  0  0  0  0  0  0  0  0  0
   -4.4099    4.2535    0.1415 H   0  0  0  0  0  0  0  0  0  0  0  0
   -3.7127    0.4763   -1.8867 H   0  0  0  0  0  0  0  0  0  0  0  0
   -4.9471   -0.0122   -0.7504 H   0  0  0  0  0  0  0  0  0  0  0  0
   -3.1252   -0.6962    0.8731 H   0  0  0  0  0  0  0  0  0  0  0  0
   -3.0918   -1.6187   -0.6435 H   0  0  0  0  0  0  0  0  0  0  0  0
    0.9420   -0.0292   -3.4495 H   0  0  0  0  0  0  0  0  0  0  0  0
   -0.5010   -0.2925   -2.5526 H   0  0  0  0  0  0  0  0  0  0  0  0
   -1.3391   -2.6290   -2.1448 H   0  0  0  0  0  0  0  0  0  0  0  0
   -1.3471   -4.9617   -2.9391 H   0  0  0  0  0  0  0  0  0  0  0  0
    2.3100   -4.2501   -5.0956 H   0  0  0  0  0  0  0  0  0  0  0  0
    2.3316   -1.9167   -4.3036 H   0  0  0  0  0  0  0  0  0  0  0  0
  1  2  2  0
  2  3  1  0
  3  4  1  0
  4  5  1  0
  5  6  2  0
  6  7  1  0
  7  8  2  0
  8  9  1  0
  9 10  2  0
  3 11  1  0
 11 12  1  0
 12 13  2  0
 13 14  1  0
 14 15  2  0
 15 16  1  0
 16 17  1  0
 17 18  1  0
 18 19  1  0
 19 20  1  0
 20 21  1  0
 21 22  2  0
 22 23  1  0
 23 24  2  0
 24 25  1  0
 25 26  2  0
 20 27  1  0
 27 28  1  0
 16 29  2  0
 29 30  1  0
 30 31  1  0
 31 32  1  0
 32 33  2  0
 33 34  1  0
 34 35  2  0
 35 36  1  0
 35 37  1  0
 37 38  2  0
 30  2  1  0
 38 32  1  0
 10  5  1  0
 29 12  1  0
 28 17  1  0
 26 21  1  0
  3 39  1  0
  4 40  1  0
  4 41  1  0
  6 42  1  0
  7 43  1  0
  8 44  1  0
  9 45  1  0
 10 46  1  0
 11 47  1  0
 14 48  1  0
 18 49  1  0
 18 50  1  0
 19 51  1  0
 19 52  1  0
 22 53  1  0
 23 54  1  0
 24 55  1  0
 25 56  1  0
 26 57  1  0
 27 58  1  0
 27 59  1  0
 28 60  1  0
 28 61  1  0
 31 62  1  0
 31 63  1  0
 33 64  1  0
 34 65  1  0
 37 66  1  0
 38 67  1  0
M  END
$$$$
