
     RDKit          3D

 33 35  0  0  0  0  0  0  0  0999 V2000
   -1.0071    1.4031    1.2092 O   0  0  0  0  0  0  0  0  0  0  0  0
   -0.6346    0.2744    0.9096 C   0  0  0  0  0  0  0  0  0  0  0  0
   -1.5552   -0.9008    0.9223 C   0  0  0  0  0  0  0  0  0  0  0  0
   -2.7614   -0.8819    0.3255 C   0  0  0  0  0  0  0  0  0  0  0  0
   -3.2468    0.1769   -0.4893 C   0  0  0  0  0  0  0  0  0  0  0  0
   -4.5633    0.5746   -0.6961 C   0  0  0  0  0  0  0  0  0  0  0  0
   -4.5556    1.6524   -1.6130 C   0  0  0  0  0  0  0  0  0  0  0  0
   -3.2399    1.8531   -1.9403 C   0  0  0  0  0  0  0  0  0  0  0  0
   -2.4506    0.9661   -1.2897 O   0  0  0  0  0  0  0  0  0  0  0  0
   -1.0687   -2.1301    1.6411 C   0  0  0  0  0  0  0  0  0  0  0  0
    0.4078   -2.0698    2.0260 C   0  0  0  0  0  0  0  0  0  0  0  0
    1.2502   -1.4500    0.9126 C   0  0  0  0  0  0  0  0  0  0  0  0
    0.7957   -0.0497    0.6076 C   0  0  0  0  0  0  0  0  0  0  0  0
    1.5298    0.9760    0.1383 C   0  0  0  0  0  0  0  0  0  0  0  0
    2.8979    0.8819   -0.2419 C   0  0  0  0  0  0  0  0  0  0  0  0
    3.7787    1.9229   -0.5208 C   0  0  0  0  0  0  0  0  0  0  0  0
    5.0279    1.3614   -0.8745 C   0  0  0  0  0  0  0  0  0  0  0  0
    4.8570    0.0037   -0.8056 C   0  0  0  0  0  0  0  0  0  0  0  0
    3.5896   -0.2945   -0.4337 O   0  0  0  0  0  0  0  0  0  0  0  0
   -3.4123   -1.7462    0.4257 H   0  0  0  0  0  0  0  0  0  0  0  0
   -5.4301    0.1375   -0.2201 H   0  0  0  0  0  0  0  0  0  0  0  0
   -5.4014    2.2121   -1.9853 H   0  0  0  0  0  0  0  0  0  0  0  0
   -2.7245    2.5477   -2.5883 H   0  0  0  0  0  0  0  0  0  0  0  0
   -1.6665   -2.2944    2.5457 H   0  0  0  0  0  0  0  0  0  0  0  0
   -1.2197   -3.0027    0.9920 H   0  0  0  0  0  0  0  0  0  0  0  0
    0.5239   -1.4831    2.9472 H   0  0  0  0  0  0  0  0  0  0  0  0
    0.7694   -3.0799    2.2515 H   0  0  0  0  0  0  0  0  0  0  0  0
    2.2913   -1.4629    1.2505 H   0  0  0  0  0  0  0  0  0  0  0  0
    1.1824   -2.0636    0.0063 H   0  0  0  0  0  0  0  0  0  0  0  0
    1.0633    1.9522    0.0120 H   0  0  0  0  0  0  0  0  0  0  0  0
    3.5343    2.9754   -0.4688 H   0  0  0  0  0  0  0  0  0  0  0  0
    5.9346    1.8819   -1.1477 H   0  0  0  0  0  0  0  0  0  0  0  0
    5.5038   -0.8438   -0.9835 H   0  0  0  0  0  0  0  0  0  0  0  0
  1  2  2  0
  2  3  1  0
  3  4  2  3
  4  5  1  0
  5  6  2  0
  6  7  1  0
  7  8  2  0
  8  9  1  0
  3 10  1  0
 10 11  1  0
 11 12  1  0
 12 13  1  0
 13 14  2  3
 14 15  1  0
 15 16  2  0
 16 17  1  0
 17 18  2  0
 18 19  1  0
 13  2  1  0
 19 15  1  0
  9  5  1  0
  4 20  1  0
  6 21  1  0
  7 22  1  0
  8 23  1  0
 10 24  1  0
 10 25  1  0
 11 26  1  0
 11 27  1  0
 12 28  1  0
 12 29  1  0
 14 30  1  0
 16 31  1  0
 17 32  1  0
 18 33  1  0
M  END
$$$$
