
     RDKit          3D

 60 65  0  0  0  0  0  0  0  0999 V2000
    1.4405   -2.9072    2.1357 O   0  0  0  0  0  0  0  0  0  0  0  0
    1.9501   -2.1746    1.2960 C   0  0  0  0  0  0  0  0  0  0  0  0
    1.2300   -1.1588    0.6784 N   0  0  0  0  0  0  0  0  0  0  0  0
    1.7548   -0.2921   -0.2724 C   0  0  0  0  0  0  0  0  0  0  0  0
    0.8082    0.7533   -0.8497 C   0  0  0  0  0  0  0  0  0  0  0  0
   -0.2847    0.1085   -1.7143 C   0  0  0  0  0  0  0  0  0  0  0  0
   -1.6208   -0.0169   -0.9954 C   0  0  0  0  0  0  0  0  0  0  0  0
   -2.1023    1.2849   -0.4606 N   0  0  0  0  0  0  0  0  0  0  0  0
   -3.5236    1.9131   -1.1868 S   0  0  0  0  0  6  0  0  0  0  0  0
   -3.3083    1.8872   -2.6172 O   0  0  0  0  0  0  0  0  0  0  0  0
   -3.8820    3.1343   -0.4984 O   0  0  0  0  0  0  0  0  0  0  0  0
   -4.7399    0.6926   -0.7695 C   0  0  0  0  0  0  0  0  0  0  0  0
   -5.3494   -0.0665   -1.7738 C   0  0  0  0  0  0  0  0  0  0  0  0
   -6.2952   -1.0312   -1.4235 C   0  0  0  0  0  0  0  0  0  0  0  0
   -6.6294   -1.2242   -0.0827 C   0  0  0  0  0  0  0  0  0  0  0  0
   -6.0393   -0.4349    0.9124 C   0  0  0  0  0  0  0  0  0  0  0  0
   -5.0820    0.5173    0.5753 C   0  0  0  0  0  0  0  0  0  0  0  0
   -6.3508   -0.5513    2.2438 O   0  0  0  0  0  0  0  0  0  0  0  0
   -7.5921   -1.2390    2.4203 C   0  0  0  0  0  0  0  0  0  0  0  0
   -7.6228   -2.5042    1.5793 C   0  0  0  0  0  0  0  0  0  0  0  0
   -7.5553   -2.1973    0.1804 O   0  0  0  0  0  0  0  0  0  0  0  0
   -1.0541    2.3208   -0.2509 C   0  0  0  0  0  0  0  0  0  0  0  0
    0.2339    1.6711    0.2321 C   0  0  0  0  0  0  0  0  0  0  0  0
    2.9851   -0.3438   -0.7055 N   0  0  0  0  0  0  0  0  0  0  0  0
    3.7106   -1.3274   -0.1183 C   0  0  0  0  0  0  0  0  0  0  0  0
    3.3064   -2.2370    0.8282 C   0  0  0  0  0  0  0  0  0  0  0  0
    4.3260   -3.0746    1.1571 N   0  0  0  0  0  0  0  0  0  0  0  0
    5.3844   -2.7117    0.4330 N   0  0  0  0  0  0  0  0  0  0  0  0
    5.0213   -1.6472   -0.3252 N   0  0  0  0  0  0  0  0  0  0  0  0
    5.9555   -1.0416   -1.2491 C   0  0  0  0  0  0  0  0  0  0  0  0
    6.6120    0.1787   -0.6524 C   0  0  0  0  0  0  0  0  0  0  0  0
    7.6904    0.0412    0.2376 C   0  0  0  0  0  0  0  0  0  0  0  0
    8.2942    1.1695    0.7933 C   0  0  0  0  0  0  0  0  0  0  0  0
    7.8202    2.4336    0.4648 C   0  0  0  0  0  0  0  0  0  0  0  0
    8.4022    3.5159    0.9967 F   0  0  0  0  0  0  0  0  0  0  0  0
    6.7496    2.5916   -0.4068 C   0  0  0  0  0  0  0  0  0  0  0  0
    6.1422    1.4655   -0.9637 C   0  0  0  0  0  0  0  0  0  0  0  0
    0.2830   -1.0691    1.0130 H   0  0  0  0  0  0  0  0  0  0  0  0
    1.4146    1.3750   -1.5230 H   0  0  0  0  0  0  0  0  0  0  0  0
    0.0311   -0.8767   -2.0784 H   0  0  0  0  0  0  0  0  0  0  0  0
   -0.4341    0.7320   -2.6068 H   0  0  0  0  0  0  0  0  0  0  0  0
   -2.3471   -0.4628   -1.6825 H   0  0  0  0  0  0  0  0  0  0  0  0
   -1.5429   -0.7113   -0.1514 H   0  0  0  0  0  0  0  0  0  0  0  0
   -5.0931    0.0814   -2.8202 H   0  0  0  0  0  0  0  0  0  0  0  0
   -6.7679   -1.6350   -2.1932 H   0  0  0  0  0  0  0  0  0  0  0  0
   -4.6225    1.1259    1.3504 H   0  0  0  0  0  0  0  0  0  0  0  0
   -7.6868   -1.4877    3.4819 H   0  0  0  0  0  0  0  0  0  0  0  0
   -8.4115   -0.5583    2.1562 H   0  0  0  0  0  0  0  0  0  0  0  0
   -6.7875   -3.1689    1.8309 H   0  0  0  0  0  0  0  0  0  0  0  0
   -8.5573   -3.0484    1.7546 H   0  0  0  0  0  0  0  0  0  0  0  0
   -1.4001    3.0244    0.5157 H   0  0  0  0  0  0  0  0  0  0  0  0
   -0.8736    2.8805   -1.1782 H   0  0  0  0  0  0  0  0  0  0  0  0
    0.0384    1.1298    1.1650 H   0  0  0  0  0  0  0  0  0  0  0  0
    0.9715    2.4440    0.4779 H   0  0  0  0  0  0  0  0  0  0  0  0
    5.4106   -0.7919   -2.1672 H   0  0  0  0  0  0  0  0  0  0  0  0
    6.7095   -1.7900   -1.5204 H   0  0  0  0  0  0  0  0  0  0  0  0
    8.0609   -0.9469    0.5068 H   0  0  0  0  0  0  0  0  0  0  0  0
    9.1280    1.0695    1.4801 H   0  0  0  0  0  0  0  0  0  0  0  0
    6.3939    3.5887   -0.6447 H   0  0  0  0  0  0  0  0  0  0  0  0
    5.2972    1.5982   -1.6375 H   0  0  0  0  0  0  0  0  0  0  0  0
  1  2  2  0
  2  3  1  0
  3  4  1  0
  4  5  1  0
  5  6  1  0
  6  7  1  0
  7  8  1  0
  8  9  1  0
  9 10  2  0
  9 11  2  0
  9 12  1  0
 12 13  2  0
 13 14  1  0
 14 15  2  0
 15 16  1  0
 16 17  2  0
 16 18  1  0
 18 19  1  0
 19 20  1  0
 20 21  1  0
  8 22  1  0
 22 23  1  0
  4 24  2  0
 24 25  1  0
 25 26  2  0
 26 27  1  0
 27 28  2  0
 28 29  1  0
 29 30  1  0
 30 31  1  0
 31 32  2  0
 32 33  1  0
 33 34  2  0
 34 35  1  0
 34 36  1  0
 36 37  2  0
 26  2  1  0
 37 31  1  0
 23  5  1  0
 29 25  1  0
 17 12  1  0
 21 15  1  0
  3 38  1  0
  5 39  1  0
  6 40  1  0
  6 41  1  0
  7 42  1  0
  7 43  1  0
 13 44  1  0
 14 45  1  0
 17 46  1  0
 19 47  1  0
 19 48  1  0
 20 49  1  0
 20 50  1  0
 22 51  1  0
 22 52  1  0
 23 53  1  0
 23 54  1  0
 30 55  1  0
 30 56  1  0
 32 57  1  0
 33 58  1  0
 36 59  1  0
 37 60  1  0
M  END
$$$$
