
     RDKit          3D

 39 40  0  0  0  0  0  0  0  0999 V2000
    3.8084    1.0780    3.7299 C   0  0  0  0  0  0  0  0  0  0  0  0
    3.1258    0.4876    2.5310 C   0  0  0  0  0  0  0  0  0  0  0  0
    2.3317   -0.6583    2.6562 C   0  0  0  0  0  0  0  0  0  0  0  0
    1.6685   -1.1875    1.5452 C   0  0  0  0  0  0  0  0  0  0  0  0
    1.7862   -0.5680    0.2949 C   0  0  0  0  0  0  0  0  0  0  0  0
    1.0792   -1.0700   -0.9124 C   0  0  0  0  0  0  0  0  0  0  0  0
    1.0965   -0.5067   -1.9972 O   0  0  0  0  0  0  0  0  0  0  0  0
    0.4013   -2.2114   -0.6376 O   0  0  0  0  0  0  0  0  0  0  0  0
   -0.3691   -2.7313   -1.7224 C   0  0  0  0  0  0  0  0  0  0  0  0
   -1.6588   -1.9374   -1.9299 C   0  0  0  0  0  0  0  0  0  0  0  0
   -2.7069   -2.2084   -1.3447 O   0  0  0  0  0  0  0  0  0  0  0  0
   -1.5359   -0.8507   -2.7618 N   0  0  0  0  0  0  0  0  0  0  0  0
   -2.6326    0.0592   -3.0450 C   0  0  0  0  0  0  0  0  0  0  0  0
   -3.3009    0.6944   -1.8135 C   0  0  0  0  0  0  0  0  0  0  0  0
   -2.3557    1.2442   -0.8602 N   0  0  0  0  0  0  0  0  0  0  0  0
   -2.0636    0.7212    0.3779 C   0  0  0  0  0  0  0  0  0  0  0  0
   -2.6071   -0.4483    0.8217 O   0  0  0  0  0  0  0  0  0  0  0  0
   -1.2032    1.4479    1.0970 C   0  0  0  0  0  0  0  0  0  0  0  0
   -0.6789    2.8579    0.2333 S   0  0  0  0  0  0  0  0  0  0  0  0
   -1.6930    2.4298   -1.1537 C   0  0  0  0  0  0  0  0  0  0  0  0
   -1.7689    3.0960   -2.1733 O   0  0  0  0  0  0  0  0  0  0  0  0
    2.5696    0.5856    0.1704 C   0  0  0  0  0  0  0  0  0  0  0  0
    3.2305    1.1122    1.2828 C   0  0  0  0  0  0  0  0  0  0  0  0
    3.9823    0.3177    4.4987 H   0  0  0  0  0  0  0  0  0  0  0  0
    4.7846    1.4908    3.4544 H   0  0  0  0  0  0  0  0  0  0  0  0
    3.1916    1.8750    4.1568 H   0  0  0  0  0  0  0  0  0  0  0  0
    2.2213   -1.1466    3.6226 H   0  0  0  0  0  0  0  0  0  0  0  0
    1.0554   -2.0756    1.6762 H   0  0  0  0  0  0  0  0  0  0  0  0
   -0.6417   -3.7635   -1.4788 H   0  0  0  0  0  0  0  0  0  0  0  0
    0.2193   -2.7697   -2.6471 H   0  0  0  0  0  0  0  0  0  0  0  0
   -0.5864   -0.5101   -2.9306 H   0  0  0  0  0  0  0  0  0  0  0  0
   -2.2248    0.8373   -3.6989 H   0  0  0  0  0  0  0  0  0  0  0  0
   -3.3853   -0.4938   -3.6176 H   0  0  0  0  0  0  0  0  0  0  0  0
   -3.9708   -0.0147   -1.3182 H   0  0  0  0  0  0  0  0  0  0  0  0
   -3.9430    1.5137   -2.1618 H   0  0  0  0  0  0  0  0  0  0  0  0
   -2.8572   -0.9998    0.0529 H   0  0  0  0  0  0  0  0  0  0  0  0
   -0.8539    1.1971    2.0883 H   0  0  0  0  0  0  0  0  0  0  0  0
    2.6608    1.0894   -0.7900 H   0  0  0  0  0  0  0  0  0  0  0  0
    3.8249    2.0168    1.1687 H   0  0  0  0  0  0  0  0  0  0  0  0
  1  2  1  0
  2  3  2  0
  3  4  1  0
  4  5  2  0
  5  6  1  0
  6  7  2  0
  6  8  1  0
  8  9  1  0
  9 10  1  0
 10 11  2  0
 10 12  1  0
 12 13  1  0
 13 14  1  0
 14 15  1  0
 15 16  1  0
 16 17  1  0
 16 18  2  0
 18 19  1  0
 19 20  1  0
 20 21  2  0
  5 22  1  0
 22 23  2  0
 23  2  1  0
 20 15  1  0
  1 24  1  0
  1 25  1  0
  1 26  1  0
  3 27  1  0
  4 28  1  0
  9 29  1  0
  9 30  1  0
 12 31  1  0
 13 32  1  0
 13 33  1  0
 14 34  1  0
 14 35  1  0
 17 36  1  0
 18 37  1  0
 22 38  1  0
 23 39  1  0
M  END
$$$$
