
     RDKit          3D

 37 38  0  0  0  0  0  0  0  0999 V2000
   -0.0927    0.3971   -1.0515 O   0  0  0  0  0  0  0  0  0  0  0  0
    0.3460   -0.1676   -0.0521 C   0  0  0  0  0  0  0  0  0  0  0  0
   -0.3069   -0.0557    1.3290 C   0  0  0  0  0  0  0  0  0  0  0  0
   -1.6391    0.4535    1.2691 O   0  0  0  0  0  0  0  0  0  0  0  0
   -2.5517   -0.4370    0.8153 C   0  0  0  0  0  0  0  0  0  0  0  0
   -2.3489   -1.6193    0.5729 O   0  0  0  0  0  0  0  0  0  0  0  0
   -3.8916    0.1841    0.6590 C   0  0  0  0  0  0  0  0  0  0  0  0
   -4.0940    1.5572    0.8695 C   0  0  0  0  0  0  0  0  0  0  0  0
   -5.3687    2.1133    0.7190 C   0  0  0  0  0  0  0  0  0  0  0  0
   -6.4434    1.3018    0.3575 C   0  0  0  0  0  0  0  0  0  0  0  0
   -8.0088    1.9921    0.1764 Cl  0  0  0  0  0  0  0  0  0  0  0  0
   -6.2574   -0.0610    0.1415 C   0  0  0  0  0  0  0  0  0  0  0  0
   -4.9857   -0.6152    0.2891 C   0  0  0  0  0  0  0  0  0  0  0  0
   -4.8907   -1.9623    0.0527 O   0  0  0  0  0  0  0  0  0  0  0  0
    1.4876   -0.9488   -0.0689 N   0  0  0  0  0  0  0  0  0  0  0  0
    2.3383   -0.9772   -1.2476 C   0  0  0  0  0  0  0  0  0  0  0  0
    3.2725    0.2398   -1.3251 C   0  0  0  0  0  0  0  0  0  0  0  0
    4.4012    0.1370   -0.4056 N   0  0  0  0  0  0  0  0  0  0  0  0
    5.6698   -0.2148   -0.8011 C   0  0  0  0  0  0  0  0  0  0  0  0
    5.9035   -0.4856   -2.1155 O   0  0  0  0  0  0  0  0  0  0  0  0
    6.5691   -0.2637    0.1881 C   0  0  0  0  0  0  0  0  0  0  0  0
    5.8456    0.1310    1.7166 S   0  0  0  0  0  0  0  0  0  0  0  0
    4.2564    0.3419    0.9576 C   0  0  0  0  0  0  0  0  0  0  0  0
    3.2374    0.5803    1.5862 O   0  0  0  0  0  0  0  0  0  0  0  0
    0.2849    0.6533    1.9173 H   0  0  0  0  0  0  0  0  0  0  0  0
   -0.2821   -1.0208    1.8489 H   0  0  0  0  0  0  0  0  0  0  0  0
   -3.2684    2.2093    1.1456 H   0  0  0  0  0  0  0  0  0  0  0  0
   -5.5145    3.1783    0.8828 H   0  0  0  0  0  0  0  0  0  0  0  0
   -7.0917   -0.6961   -0.1435 H   0  0  0  0  0  0  0  0  0  0  0  0
   -3.9489   -2.2326    0.1328 H   0  0  0  0  0  0  0  0  0  0  0  0
    1.9379   -1.1016    0.8281 H   0  0  0  0  0  0  0  0  0  0  0  0
    2.9101   -1.9104   -1.2149 H   0  0  0  0  0  0  0  0  0  0  0  0
    1.6960   -0.9991   -2.1348 H   0  0  0  0  0  0  0  0  0  0  0  0
    2.7241    1.1564   -1.0765 H   0  0  0  0  0  0  0  0  0  0  0  0
    3.6434    0.3542   -2.3493 H   0  0  0  0  0  0  0  0  0  0  0  0
    6.8474   -0.6930   -2.2251 H   0  0  0  0  0  0  0  0  0  0  0  0
    7.6142   -0.5188    0.0914 H   0  0  0  0  0  0  0  0  0  0  0  0
  1  2  2  0
  2  3  1  0
  3  4  1  0
  4  5  1  0
  5  6  2  0
  5  7  1  0
  7  8  2  0
  8  9  1  0
  9 10  2  0
 10 11  1  0
 10 12  1  0
 12 13  2  0
 13 14  1  0
  2 15  1  0
 15 16  1  0
 16 17  1  0
 17 18  1  0
 18 19  1  0
 19 20  1  0
 19 21  2  0
 21 22  1  0
 22 23  1  0
 23 24  2  0
 13  7  1  0
 23 18  1  0
  3 25  1  0
  3 26  1  0
  8 27  1  0
  9 28  1  0
 12 29  1  0
 14 30  1  0
 15 31  1  0
 16 32  1  0
 16 33  1  0
 17 34  1  0
 17 35  1  0
 20 36  1  0
 21 37  1  0
M  END
$$$$
