
     RDKit          3D

 47 49  0  0  0  0  0  0  0  0999 V2000
   -2.6919   -3.5287   -0.0132 O   0  0  0  0  0  0  0  0  0  0  0  0
   -3.0321   -2.3489   -0.0125 C   0  0  0  0  0  0  0  0  0  0  0  0
   -4.5118   -1.9683   -0.1323 C   0  0  0  0  0  0  0  0  0  0  0  0
   -4.6877   -0.5523   -0.1290 O   0  0  0  0  0  0  0  0  0  0  0  0
   -5.9702   -0.0884   -0.2305 C   0  0  0  0  0  0  0  0  0  0  0  0
   -7.1210   -0.8718   -0.3381 C   0  0  0  0  0  0  0  0  0  0  0  0
   -8.3781   -0.2642   -0.4356 C   0  0  0  0  0  0  0  0  0  0  0  0
   -8.4825    1.1251   -0.4255 C   0  0  0  0  0  0  0  0  0  0  0  0
  -10.1817    1.9411   -0.5575 Br  0  0  0  0  0  0  0  0  0  0  0  0
   -7.3414    1.9147   -0.3186 C   0  0  0  0  0  0  0  0  0  0  0  0
   -6.0885    1.3050   -0.2215 C   0  0  0  0  0  0  0  0  0  0  0  0
   -2.1990   -1.2496    0.0887 N   0  0  0  0  0  0  0  0  0  0  0  0
   -0.7991   -1.2259    0.2169 C   0  0  0  0  0  0  0  0  0  0  0  0
   -0.0022   -2.3694    0.2798 C   0  0  0  0  0  0  0  0  0  0  0  0
    1.3880   -2.2589    0.4078 C   0  0  0  0  0  0  0  0  0  0  0  0
    2.0002   -1.0021    0.4638 C   0  0  0  0  0  0  0  0  0  0  0  0
    3.4862   -0.9394    0.6025 C   0  0  0  0  0  0  0  0  0  0  0  0
    4.0537   -1.8576    1.1823 O   0  0  0  0  0  0  0  0  0  0  0  0
    4.0841    0.1618    0.0208 N   0  0  0  0  0  0  0  0  0  0  0  0
    5.4585    0.5175    0.0097 C   0  0  0  0  0  0  0  0  0  0  0  0
    6.4278   -0.2346    0.6852 C   0  0  0  0  0  0  0  0  0  0  0  0
    7.7765    0.1352    0.6588 C   0  0  0  0  0  0  0  0  0  0  0  0
    8.1809    1.2656   -0.0414 C   0  0  0  0  0  0  0  0  0  0  0  0
    7.2348    2.0334   -0.7170 C   0  0  0  0  0  0  0  0  0  0  0  0
    5.8756    1.6713   -0.6971 C   0  0  0  0  0  0  0  0  0  0  0  0
    4.8816    2.5147   -1.4178 C   0  0  0  0  0  0  0  0  0  0  0  0
    3.6748    2.3349   -1.4301 O   0  0  0  0  0  0  0  0  0  0  0  0
    5.4339    3.5396   -2.0912 O   0  0  0  0  0  0  0  0  0  0  0  0
    1.2034    0.1471    0.4180 C   0  0  0  0  0  0  0  0  0  0  0  0
   -0.1861    0.0315    0.2913 C   0  0  0  0  0  0  0  0  0  0  0  0
   -5.0268   -2.4144    0.7263 H   0  0  0  0  0  0  0  0  0  0  0  0
   -4.8747   -2.3906   -1.0766 H   0  0  0  0  0  0  0  0  0  0  0  0
   -7.0820   -1.9564   -0.3495 H   0  0  0  0  0  0  0  0  0  0  0  0
   -9.2671   -0.8846   -0.5189 H   0  0  0  0  0  0  0  0  0  0  0  0
   -7.4135    2.9989   -0.3098 H   0  0  0  0  0  0  0  0  0  0  0  0
   -5.1989    1.9245   -0.1380 H   0  0  0  0  0  0  0  0  0  0  0  0
   -2.6786   -0.3541    0.0613 H   0  0  0  0  0  0  0  0  0  0  0  0
   -0.4280   -3.3672    0.2366 H   0  0  0  0  0  0  0  0  0  0  0  0
    1.9911   -3.1639    0.4611 H   0  0  0  0  0  0  0  0  0  0  0  0
    3.4829    0.7797   -0.5242 H   0  0  0  0  0  0  0  0  0  0  0  0
    6.1674   -1.1245    1.2505 H   0  0  0  0  0  0  0  0  0  0  0  0
    8.5087   -0.4685    1.1907 H   0  0  0  0  0  0  0  0  0  0  0  0
    9.2302    1.5495   -0.0599 H   0  0  0  0  0  0  0  0  0  0  0  0
    7.5692    2.9166   -1.2565 H   0  0  0  0  0  0  0  0  0  0  0  0
    4.6774    3.9948   -2.5166 H   0  0  0  0  0  0  0  0  0  0  0  0
    1.6371    1.1402    0.5020 H   0  0  0  0  0  0  0  0  0  0  0  0
   -0.7809    0.9413    0.2583 H   0  0  0  0  0  0  0  0  0  0  0  0
  1  2  2  0
  2  3  1  0
  3  4  1  0
  4  5  1  0
  5  6  2  0
  6  7  1  0
  7  8  2  0
  8  9  1  0
  8 10  1  0
 10 11  2  0
  2 12  1  0
 12 13  1  0
 13 14  2  0
 14 15  1  0
 15 16  2  0
 16 17  1  0
 17 18  2  0
 17 19  1  0
 19 20  1  0
 20 21  2  0
 21 22  1  0
 22 23  2  0
 23 24  1  0
 24 25  2  0
 25 26  1  0
 26 27  2  0
 26 28  1  0
 16 29  1  0
 29 30  2  0
 11  5  1  0
 30 13  1  0
 25 20  1  0
  3 31  1  0
  3 32  1  0
  6 33  1  0
  7 34  1  0
 10 35  1  0
 11 36  1  0
 12 37  1  0
 14 38  1  0
 15 39  1  0
 19 40  1  0
 21 41  1  0
 22 42  1  0
 23 43  1  0
 24 44  1  0
 28 45  1  0
 29 46  1  0
 30 47  1  0
M  END
$$$$
