
     RDKit          3D

 34 36  0  0  0  0  0  0  0  0999 V2000
    4.7551    1.9702   -0.3554 C   0  0  0  0  0  0  0  0  0  0  0  0
    4.5462    0.6014    0.0659 N   0  0  0  0  0  0  0  0  0  0  0  0
    5.6193   -0.2116    0.1717 N   0  0  0  0  0  0  0  0  0  0  0  0
    5.0965   -1.3693    0.5729 C   0  0  0  0  0  0  0  0  0  0  0  0
    3.7000   -1.3035    0.7098 C   0  0  0  0  0  0  0  0  0  0  0  0
    2.7347   -2.5916    1.2446 Cl  0  0  0  0  0  0  0  0  0  0  0  0
    3.3447   -0.0131    0.3564 C   0  0  0  0  0  0  0  0  0  0  0  0
    2.0609    0.6629    0.3026 C   0  0  0  0  0  0  0  0  0  0  0  0
    2.0012    1.8866    0.3454 O   0  0  0  0  0  0  0  0  0  0  0  0
    0.9799   -0.1864    0.1632 N   0  0  0  0  0  0  0  0  0  0  0  0
   -0.3676    0.1488    0.0983 C   0  0  0  0  0  0  0  0  0  0  0  0
   -0.8983    1.7587    0.3547 S   0  0  0  0  0  0  0  0  0  0  0  0
   -2.4827    1.3109    0.1145 C   0  0  0  0  0  0  0  0  0  0  0  0
   -2.6560   -0.0206   -0.1422 C   0  0  0  0  0  0  0  0  0  0  0  0
   -1.4232   -0.7405   -0.1432 C   0  0  0  0  0  0  0  0  0  0  0  0
   -1.2007   -2.1644   -0.3801 C   0  0  0  0  0  0  0  0  0  0  0  0
   -2.2928   -2.9788   -0.3029 N   0  0  0  0  0  0  0  0  0  0  0  0
   -0.0912   -2.6416   -0.6017 O   0  0  0  0  0  0  0  0  0  0  0  0
   -4.0961   -0.3184   -0.3698 C   0  0  0  0  0  0  0  0  0  0  0  0
   -4.7130    1.1022   -0.5582 C   0  0  0  0  0  0  0  0  0  0  0  0
   -3.7315    2.1066    0.1135 C   0  0  0  0  0  0  0  0  0  0  0  0
    4.1061    2.1785   -1.2092 H   0  0  0  0  0  0  0  0  0  0  0  0
    5.7986    2.1012   -0.6555 H   0  0  0  0  0  0  0  0  0  0  0  0
    4.5306    2.6281    0.4873 H   0  0  0  0  0  0  0  0  0  0  0  0
    5.7547   -2.2091    0.7542 H   0  0  0  0  0  0  0  0  0  0  0  0
    1.1727   -1.1778    0.0232 H   0  0  0  0  0  0  0  0  0  0  0  0
   -2.1037   -3.9719   -0.3280 H   0  0  0  0  0  0  0  0  0  0  0  0
   -3.1401   -2.6760    0.1510 H   0  0  0  0  0  0  0  0  0  0  0  0
   -4.5297   -0.8053    0.5100 H   0  0  0  0  0  0  0  0  0  0  0  0
   -4.2678   -0.9391   -1.2535 H   0  0  0  0  0  0  0  0  0  0  0  0
   -5.7264    1.1734   -0.1512 H   0  0  0  0  0  0  0  0  0  0  0  0
   -4.7726    1.3247   -1.6319 H   0  0  0  0  0  0  0  0  0  0  0  0
   -4.0507    2.3312    1.1364 H   0  0  0  0  0  0  0  0  0  0  0  0
   -3.6572    3.0335   -0.4614 H   0  0  0  0  0  0  0  0  0  0  0  0
  1  2  1  0
  2  3  1  0
  3  4  2  0
  4  5  1  0
  5  6  1  0
  5  7  2  0
  7  8  1  0
  8  9  2  0
  8 10  1  0
 10 11  1  0
 11 12  1  0
 12 13  1  0
 13 14  2  0
 14 15  1  0
 15 16  1  0
 16 17  1  0
 16 18  2  0
 14 19  1  0
 19 20  1  0
 20 21  1  0
  7  2  1  0
 15 11  2  0
 21 13  1  0
  1 22  1  0
  1 23  1  0
  1 24  1  0
  4 25  1  0
 10 26  1  0
 17 27  1  0
 17 28  1  0
 19 29  1  0
 19 30  1  0
 20 31  1  0
 20 32  1  0
 21 33  1  0
 21 34  1  0
M  END
$$$$
