
     RDKit          3D

 46 49  0  0  0  0  0  0  0  0999 V2000
    3.0774    3.1967    0.7135 O   0  0  0  0  0  0  0  0  0  0  0  0
    2.8534    2.2569   -0.0437 C   0  0  0  0  0  0  0  0  0  0  0  0
    1.4712    2.0364   -0.6354 C   0  0  0  0  0  0  0  0  0  0  0  0
    0.5940    0.7955    0.3583 S   0  0  0  0  0  0  0  0  0  0  0  0
   -0.8320    0.5930   -0.5950 C   0  0  0  0  0  0  0  0  0  0  0  0
   -1.0320    1.1063   -1.7851 N   0  0  0  0  0  0  0  0  0  0  0  0
   -2.2679    0.7002   -2.2136 N   0  0  0  0  0  0  0  0  0  0  0  0
   -2.8048   -0.0547   -1.2734 C   0  0  0  0  0  0  0  0  0  0  0  0
   -4.1461   -0.7081   -1.3527 C   0  0  0  0  0  0  0  0  0  0  0  0
   -5.1801   -0.0378   -0.4905 C   0  0  0  0  0  0  0  0  0  0  0  0
   -5.4581    1.3107   -0.3646 C   0  0  0  0  0  0  0  0  0  0  0  0
   -6.5132    1.5647    0.5578 C   0  0  0  0  0  0  0  0  0  0  0  0
   -7.0218    0.4024    1.0911 C   0  0  0  0  0  0  0  0  0  0  0  0
   -6.2252   -0.9833    0.4876 S   0  0  0  0  0  0  0  0  0  0  0  0
   -1.9212   -0.1441   -0.2161 N   0  0  0  0  0  0  0  0  0  0  0  0
   -2.1382   -0.8198    1.0492 C   0  0  0  0  0  0  0  0  0  0  0  0
   -1.9359   -2.2844    0.9270 C   0  0  0  0  0  0  0  0  0  0  0  0
   -2.7527   -3.3743    1.1529 C   0  0  0  0  0  0  0  0  0  0  0  0
   -1.9735   -4.5223    0.8710 C   0  0  0  0  0  0  0  0  0  0  0  0
   -0.7323   -4.0623    0.5001 C   0  0  0  0  0  0  0  0  0  0  0  0
   -0.6984   -2.7061    0.5356 O   0  0  0  0  0  0  0  0  0  0  0  0
    3.7710    1.2985   -0.4535 N   0  0  0  0  0  0  0  0  0  0  0  0
    5.1357    1.2093   -0.1069 C   0  0  0  0  0  0  0  0  0  0  0  0
    5.8529    0.1232   -0.6243 C   0  0  0  0  0  0  0  0  0  0  0  0
    7.2089   -0.0323   -0.3292 C   0  0  0  0  0  0  0  0  0  0  0  0
    8.0705   -1.3740   -0.9764 Cl  0  0  0  0  0  0  0  0  0  0  0  0
    7.8689    0.8836    0.4808 C   0  0  0  0  0  0  0  0  0  0  0  0
    7.1568    1.9621    0.9953 C   0  0  0  0  0  0  0  0  0  0  0  0
    7.9641    3.1048    2.0008 Cl  0  0  0  0  0  0  0  0  0  0  0  0
    5.7994    2.1306    0.7065 C   0  0  0  0  0  0  0  0  0  0  0  0
    1.5720    1.7069   -1.6751 H   0  0  0  0  0  0  0  0  0  0  0  0
    0.9280    2.9867   -0.6299 H   0  0  0  0  0  0  0  0  0  0  0  0
   -4.4951   -0.6717   -2.3930 H   0  0  0  0  0  0  0  0  0  0  0  0
   -4.0485   -1.7712   -1.1056 H   0  0  0  0  0  0  0  0  0  0  0  0
   -4.9233    2.0826   -0.9088 H   0  0  0  0  0  0  0  0  0  0  0  0
   -6.8857    2.5499    0.8106 H   0  0  0  0  0  0  0  0  0  0  0  0
   -7.8279    0.2995    1.8045 H   0  0  0  0  0  0  0  0  0  0  0  0
   -1.4664   -0.4064    1.8063 H   0  0  0  0  0  0  0  0  0  0  0  0
   -3.1529   -0.5884    1.3840 H   0  0  0  0  0  0  0  0  0  0  0  0
   -3.7829   -3.3467    1.4819 H   0  0  0  0  0  0  0  0  0  0  0  0
   -2.2760   -5.5585    0.9346 H   0  0  0  0  0  0  0  0  0  0  0  0
    0.1875   -4.5454    0.2000 H   0  0  0  0  0  0  0  0  0  0  0  0
    3.4060    0.5528   -1.0366 H   0  0  0  0  0  0  0  0  0  0  0  0
    5.3644   -0.6105   -1.2612 H   0  0  0  0  0  0  0  0  0  0  0  0
    8.9235    0.7605    0.7093 H   0  0  0  0  0  0  0  0  0  0  0  0
    5.2867    2.9884    1.1300 H   0  0  0  0  0  0  0  0  0  0  0  0
  1  2  2  0
  2  3  1  0
  3  4  1  0
  4  5  1  0
  5  6  2  0
  6  7  1  0
  7  8  2  0
  8  9  1  0
  9 10  1  0
 10 11  2  0
 11 12  1  0
 12 13  2  0
 13 14  1  0
  8 15  1  0
 15 16  1  0
 16 17  1  0
 17 18  2  0
 18 19  1  0
 19 20  2  0
 20 21  1  0
  2 22  1  0
 22 23  1  0
 23 24  2  0
 24 25  1  0
 25 26  1  0
 25 27  2  0
 27 28  1  0
 28 29  1  0
 28 30  2  0
 15  5  1  0
 21 17  1  0
 30 23  1  0
 14 10  1  0
  3 31  1  0
  3 32  1  0
  9 33  1  0
  9 34  1  0
 11 35  1  0
 12 36  1  0
 13 37  1  0
 16 38  1  0
 16 39  1  0
 18 40  1  0
 19 41  1  0
 20 42  1  0
 22 43  1  0
 24 44  1  0
 27 45  1  0
 30 46  1  0
M  END
$$$$
