
     RDKit          3D

 53 54  0  0  0  0  0  0  0  0999 V2000
   -5.1405    1.6600    1.0746 C   0  0  0  0  0  0  0  0  0  0  0  0
   -3.8106    0.9317    0.9469 C   0  0  0  0  0  0  0  0  0  0  0  0
   -4.0449   -0.5308    0.9526 N   0  0  0  0  0  0  0  0  0  0  0  0
   -3.4080   -1.2622    2.0752 C   0  0  0  0  0  0  0  0  0  0  0  0
   -4.0938   -0.9248    3.3955 C   0  0  0  0  0  0  0  0  0  0  0  0
   -4.0733   -1.3114   -0.5654 S   0  0  0  0  0  6  0  0  0  0  0  0
   -4.8626   -0.4968   -1.4677 O   0  0  0  0  0  0  0  0  0  0  0  0
   -4.3791   -2.7061   -0.3654 O   0  0  0  0  0  0  0  0  0  0  0  0
   -2.3737   -1.2169   -1.1093 C   0  0  0  0  0  0  0  0  0  0  0  0
   -2.0086   -0.2682   -2.0703 C   0  0  0  0  0  0  0  0  0  0  0  0
   -0.6765   -0.1774   -2.4837 C   0  0  0  0  0  0  0  0  0  0  0  0
    0.2913   -1.0391   -1.9448 C   0  0  0  0  0  0  0  0  0  0  0  0
    1.7337   -0.9213   -2.2953 C   0  0  0  0  0  0  0  0  0  0  0  0
    2.6016   -1.6814   -1.8957 O   0  0  0  0  0  0  0  0  0  0  0  0
    1.9500    0.1817   -3.0548 O   0  0  0  0  0  0  0  0  0  0  0  0
    3.3254    0.4819   -3.3035 C   0  0  0  0  0  0  0  0  0  0  0  0
    4.0070    1.0420   -2.0532 C   0  0  0  0  0  0  0  0  0  0  0  0
    3.9296    2.2293   -1.7269 O   0  0  0  0  0  0  0  0  0  0  0  0
    4.6623    0.0950   -1.2842 N   0  0  0  0  0  0  0  0  0  0  0  0
    5.3436    0.4476   -0.0511 C   0  0  0  0  0  0  0  0  0  0  0  0
    4.5616    0.0982    1.2227 C   0  0  0  0  0  0  0  0  0  0  0  0
    3.1634    0.4960    1.2617 N   0  0  0  0  0  0  0  0  0  0  0  0
    2.7110    1.7905    1.1790 C   0  0  0  0  0  0  0  0  0  0  0  0
    3.5619    2.8122    0.8829 O   0  0  0  0  0  0  0  0  0  0  0  0
    1.4029    1.9476    1.4032 C   0  0  0  0  0  0  0  0  0  0  0  0
    0.6327    0.4305    1.7445 S   0  0  0  0  0  0  0  0  0  0  0  0
    2.1797   -0.4309    1.5908 C   0  0  0  0  0  0  0  0  0  0  0  0
    2.2956   -1.6331    1.7687 O   0  0  0  0  0  0  0  0  0  0  0  0
   -0.0953   -2.0188   -1.0165 C   0  0  0  0  0  0  0  0  0  0  0  0
   -1.4288   -2.1152   -0.6027 C   0  0  0  0  0  0  0  0  0  0  0  0
   -5.6860    1.3444    1.9726 H   0  0  0  0  0  0  0  0  0  0  0  0
   -4.9754    2.7428    1.1353 H   0  0  0  0  0  0  0  0  0  0  0  0
   -5.7822    1.4603    0.2063 H   0  0  0  0  0  0  0  0  0  0  0  0
   -3.3045    1.2498    0.0323 H   0  0  0  0  0  0  0  0  0  0  0  0
   -3.1504    1.2286    1.7661 H   0  0  0  0  0  0  0  0  0  0  0  0
   -3.5088   -2.3439    1.9237 H   0  0  0  0  0  0  0  0  0  0  0  0
   -2.3377   -1.0347    2.1267 H   0  0  0  0  0  0  0  0  0  0  0  0
   -3.6941   -1.5680    4.1935 H   0  0  0  0  0  0  0  0  0  0  0  0
   -5.1752   -1.0870    3.3329 H   0  0  0  0  0  0  0  0  0  0  0  0
   -3.9233    0.1113    3.6892 H   0  0  0  0  0  0  0  0  0  0  0  0
   -2.7502    0.4088   -2.4960 H   0  0  0  0  0  0  0  0  0  0  0  0
   -0.4092    0.5779   -3.2206 H   0  0  0  0  0  0  0  0  0  0  0  0
    3.8571   -0.3979   -3.6843 H   0  0  0  0  0  0  0  0  0  0  0  0
    3.3732    1.2474   -4.0845 H   0  0  0  0  0  0  0  0  0  0  0  0
    4.3850   -0.8708   -1.4225 H   0  0  0  0  0  0  0  0  0  0  0  0
    6.2974   -0.1057   -0.0513 H   0  0  0  0  0  0  0  0  0  0  0  0
    5.6002    1.5137   -0.0693 H   0  0  0  0  0  0  0  0  0  0  0  0
    5.0616    0.5395    2.0929 H   0  0  0  0  0  0  0  0  0  0  0  0
    4.6208   -0.9877    1.3565 H   0  0  0  0  0  0  0  0  0  0  0  0
    3.7400    2.7406   -0.0843 H   0  0  0  0  0  0  0  0  0  0  0  0
    0.8790    2.8980    1.3808 H   0  0  0  0  0  0  0  0  0  0  0  0
    0.6423   -2.6977   -0.5905 H   0  0  0  0  0  0  0  0  0  0  0  0
   -1.7172   -2.8795    0.1158 H   0  0  0  0  0  0  0  0  0  0  0  0
  1  2  1  0
  2  3  1  0
  3  4  1  0
  4  5  1  0
  3  6  1  0
  6  7  2  0
  6  8  2  0
  6  9  1  0
  9 10  2  0
 10 11  1  0
 11 12  2  0
 12 13  1  0
 13 14  2  0
 13 15  1  0
 15 16  1  0
 16 17  1  0
 17 18  2  0
 17 19  1  0
 19 20  1  0
 20 21  1  0
 21 22  1  0
 22 23  1  0
 23 24  1  0
 23 25  2  0
 25 26  1  0
 26 27  1  0
 27 28  2  0
 12 29  1  0
 29 30  2  0
 30  9  1  0
 27 22  1  0
  1 31  1  0
  1 32  1  0
  1 33  1  0
  2 34  1  0
  2 35  1  0
  4 36  1  0
  4 37  1  0
  5 38  1  0
  5 39  1  0
  5 40  1  0
 10 41  1  0
 11 42  1  0
 16 43  1  0
 16 44  1  0
 19 45  1  0
 20 46  1  0
 20 47  1  0
 21 48  1  0
 21 49  1  0
 24 50  1  0
 25 51  1  0
 29 52  1  0
 30 53  1  0
M  END
$$$$
