
     RDKit          3D

 59 62  0  0  0  0  0  0  0  0999 V2000
    8.2757    0.1333    2.3845 C   0  0  0  0  0  0  0  0  0  0  0  0
    7.2316    1.0567    2.1036 O   0  0  0  0  0  0  0  0  0  0  0  0
    6.0921    0.5525    1.5391 C   0  0  0  0  0  0  0  0  0  0  0  0
    5.8815   -0.7768    1.1652 C   0  0  0  0  0  0  0  0  0  0  0  0
    4.6637   -1.1657    0.5927 C   0  0  0  0  0  0  0  0  0  0  0  0
    3.6505   -0.2264    0.3916 C   0  0  0  0  0  0  0  0  0  0  0  0
    2.3652   -0.5965   -0.2002 C   0  0  0  0  0  0  0  0  0  0  0  0
    1.3853    0.3119   -0.3661 C   0  0  0  0  0  0  0  0  0  0  0  0
    0.0431    0.0101   -0.9706 C   0  0  0  0  0  0  0  0  0  0  0  0
   -0.8092   -0.8361   -0.1107 N   0  0  0  0  0  0  0  0  0  0  0  0
   -0.6594   -2.3032   -0.2521 C   0  0  0  0  0  0  0  0  0  0  0  0
   -1.9379   -2.9124   -0.8385 C   0  0  0  0  0  0  0  0  0  0  0  0
   -1.9210   -4.4319   -0.8414 C   0  0  0  0  0  0  0  0  0  0  0  0
   -2.9011   -4.7414   -1.9446 C   0  0  0  0  0  0  0  0  0  0  0  0
   -2.5954   -3.6552   -2.9540 C   0  0  0  0  0  0  0  0  0  0  0  0
   -2.0926   -2.5264   -2.2228 O   0  0  0  0  0  0  0  0  0  0  0  0
   -1.4055   -0.2503    1.3520 S   0  0  0  0  0  6  0  0  0  0  0  0
   -0.2920    0.2237    2.1435 O   0  0  0  0  0  0  0  0  0  0  0  0
   -2.3224   -1.2368    1.8874 O   0  0  0  0  0  0  0  0  0  0  0  0
   -2.3944    1.1380    0.8539 C   0  0  0  0  0  0  0  0  0  0  0  0
   -2.0801    2.4228    1.2963 C   0  0  0  0  0  0  0  0  0  0  0  0
   -2.8780    3.4990    0.8992 C   0  0  0  0  0  0  0  0  0  0  0  0
   -3.9879    3.2954    0.0648 C   0  0  0  0  0  0  0  0  0  0  0  0
   -4.8075    4.4802   -0.3299 C   0  0  0  0  0  0  0  0  0  0  0  0
   -5.8983    4.3035   -1.3537 C   0  0  0  0  0  0  0  0  0  0  0  0
   -4.5912    5.5759    0.1838 O   0  0  0  0  0  0  0  0  0  0  0  0
   -4.2979    1.9981   -0.3668 C   0  0  0  0  0  0  0  0  0  0  0  0
   -3.5028    0.9183    0.0293 C   0  0  0  0  0  0  0  0  0  0  0  0
    1.6368    1.7394    0.0090 C   0  0  0  0  0  0  0  0  0  0  0  0
    0.7992    2.6156   -0.1854 O   0  0  0  0  0  0  0  0  0  0  0  0
    2.8535    2.0416    0.5585 N   0  0  0  0  0  0  0  0  0  0  0  0
    3.8671    1.1014    0.7669 C   0  0  0  0  0  0  0  0  0  0  0  0
    5.0782    1.4929    1.3359 C   0  0  0  0  0  0  0  0  0  0  0  0
    9.0949    0.6874    2.8530 H   0  0  0  0  0  0  0  0  0  0  0  0
    8.6610   -0.3166    1.4637 H   0  0  0  0  0  0  0  0  0  0  0  0
    7.9451   -0.6338    3.0923 H   0  0  0  0  0  0  0  0  0  0  0  0
    6.6436   -1.5367    1.3047 H   0  0  0  0  0  0  0  0  0  0  0  0
    4.5197   -2.2058    0.3108 H   0  0  0  0  0  0  0  0  0  0  0  0
    2.2300   -1.6317   -0.4881 H   0  0  0  0  0  0  0  0  0  0  0  0
    0.1945   -0.4954   -1.9340 H   0  0  0  0  0  0  0  0  0  0  0  0
   -0.5105    0.9161   -1.2370 H   0  0  0  0  0  0  0  0  0  0  0  0
   -0.4246   -2.7482    0.7217 H   0  0  0  0  0  0  0  0  0  0  0  0
    0.1820   -2.5336   -0.9144 H   0  0  0  0  0  0  0  0  0  0  0  0
   -2.8282   -2.5525   -0.3109 H   0  0  0  0  0  0  0  0  0  0  0  0
   -0.9291   -4.8134   -1.1127 H   0  0  0  0  0  0  0  0  0  0  0  0
   -2.2034   -4.8616    0.1235 H   0  0  0  0  0  0  0  0  0  0  0  0
   -3.9267   -4.6288   -1.5735 H   0  0  0  0  0  0  0  0  0  0  0  0
   -2.7972   -5.7483   -2.3572 H   0  0  0  0  0  0  0  0  0  0  0  0
   -1.8139   -3.9720   -3.6525 H   0  0  0  0  0  0  0  0  0  0  0  0
   -3.4770   -3.3582   -3.5291 H   0  0  0  0  0  0  0  0  0  0  0  0
   -1.2154    2.6008    1.9325 H   0  0  0  0  0  0  0  0  0  0  0  0
   -2.6232    4.5020    1.2393 H   0  0  0  0  0  0  0  0  0  0  0  0
   -6.7072    3.6954   -0.9411 H   0  0  0  0  0  0  0  0  0  0  0  0
   -5.4971    3.8535   -2.2656 H   0  0  0  0  0  0  0  0  0  0  0  0
   -6.3047    5.2847   -1.6179 H   0  0  0  0  0  0  0  0  0  0  0  0
   -5.1535    1.7993   -1.0054 H   0  0  0  0  0  0  0  0  0  0  0  0
   -3.7474   -0.0874   -0.3065 H   0  0  0  0  0  0  0  0  0  0  0  0
    2.9935    3.0081    0.8182 H   0  0  0  0  0  0  0  0  0  0  0  0
    5.2457    2.5255    1.6288 H   0  0  0  0  0  0  0  0  0  0  0  0
  1  2  1  0
  2  3  1  0
  3  4  2  0
  4  5  1  0
  5  6  2  0
  6  7  1  0
  7  8  2  0
  8  9  1  0
  9 10  1  0
 10 11  1  0
 11 12  1  0
 12 13  1  0
 13 14  1  0
 14 15  1  0
 15 16  1  0
 10 17  1  0
 17 18  2  0
 17 19  2  0
 17 20  1  0
 20 21  2  0
 21 22  1  0
 22 23  2  0
 23 24  1  0
 24 25  1  0
 24 26  2  0
 23 27  1  0
 27 28  2  0
  8 29  1  0
 29 30  2  0
 29 31  1  0
 31 32  1  0
 32 33  2  0
 33  3  1  0
 32  6  1  0
 16 12  1  0
 28 20  1  0
  1 34  1  0
  1 35  1  0
  1 36  1  0
  4 37  1  0
  5 38  1  0
  7 39  1  0
  9 40  1  0
  9 41  1  0
 11 42  1  0
 11 43  1  0
 12 44  1  0
 13 45  1  0
 13 46  1  0
 14 47  1  0
 14 48  1  0
 15 49  1  0
 15 50  1  0
 21 51  1  0
 22 52  1  0
 25 53  1  0
 25 54  1  0
 25 55  1  0
 27 56  1  0
 28 57  1  0
 31 58  1  0
 33 59  1  0
M  END
$$$$
