
     RDKit          3D

 46 48  0  0  0  0  0  0  0  0999 V2000
    8.0422   -1.1098    2.6163 C   0  0  0  0  0  0  0  0  0  0  0  0
    7.7178   -1.8726    1.3458 C   0  0  0  0  0  0  0  0  0  0  0  0
    6.8839   -1.0768    0.4906 O   0  0  0  0  0  0  0  0  0  0  0  0
    5.5503   -1.1656    0.7173 C   0  0  0  0  0  0  0  0  0  0  0  0
    5.0100   -1.8471    1.5745 O   0  0  0  0  0  0  0  0  0  0  0  0
    4.7968   -0.3025   -0.2317 C   0  0  0  0  0  0  0  0  0  0  0  0
    5.4314    0.4961   -1.1887 C   0  0  0  0  0  0  0  0  0  0  0  0
    4.6685    1.2870   -2.0468 C   0  0  0  0  0  0  0  0  0  0  0  0
    3.2731    1.2846   -1.9559 C   0  0  0  0  0  0  0  0  0  0  0  0
    2.6243    0.4903   -1.0093 C   0  0  0  0  0  0  0  0  0  0  0  0
    1.2232    0.4362   -0.8505 N   0  0  0  0  0  0  0  0  0  0  0  0
    0.2663    1.0673   -1.6253 C   0  0  0  0  0  0  0  0  0  0  0  0
    0.4595    1.7370   -2.6322 O   0  0  0  0  0  0  0  0  0  0  0  0
   -1.1389    0.8553   -1.1765 C   0  0  0  0  0  0  0  0  0  0  0  0
   -1.4810    0.8069    0.1787 C   0  0  0  0  0  0  0  0  0  0  0  0
   -2.8145    0.6091    0.5546 C   0  0  0  0  0  0  0  0  0  0  0  0
   -3.8201    0.4645   -0.4113 C   0  0  0  0  0  0  0  0  0  0  0  0
   -5.1315    0.2668    0.0564 N   0  0  0  0  0  0  0  0  0  0  0  0
   -6.2906    0.0870   -0.6786 C   0  0  0  0  0  0  0  0  0  0  0  0
   -6.3624    0.0634   -1.9025 O   0  0  0  0  0  0  0  0  0  0  0  0
   -7.4616   -0.0817    0.1648 C   0  0  0  0  0  0  0  0  0  0  0  0
   -8.7917   -0.2819   -0.1536 C   0  0  0  0  0  0  0  0  0  0  0  0
   -9.4951   -0.3784    1.0705 C   0  0  0  0  0  0  0  0  0  0  0  0
   -8.5565   -0.2321    2.0639 C   0  0  0  0  0  0  0  0  0  0  0  0
   -7.3203   -0.0520    1.5306 O   0  0  0  0  0  0  0  0  0  0  0  0
   -3.4731    0.5318   -1.7618 C   0  0  0  0  0  0  0  0  0  0  0  0
   -2.1409    0.7327   -2.1434 C   0  0  0  0  0  0  0  0  0  0  0  0
    3.3953   -0.2996   -0.1472 C   0  0  0  0  0  0  0  0  0  0  0  0
    8.5053   -0.1464    2.3787 H   0  0  0  0  0  0  0  0  0  0  0  0
    7.1339   -0.8939    3.1877 H   0  0  0  0  0  0  0  0  0  0  0  0
    8.7250   -1.6832    3.2495 H   0  0  0  0  0  0  0  0  0  0  0  0
    7.2539   -2.8410    1.5663 H   0  0  0  0  0  0  0  0  0  0  0  0
    8.6406   -2.0765    0.7928 H   0  0  0  0  0  0  0  0  0  0  0  0
    6.5146    0.5151   -1.2779 H   0  0  0  0  0  0  0  0  0  0  0  0
    5.1569    1.9111   -2.7918 H   0  0  0  0  0  0  0  0  0  0  0  0
    2.7203    1.9202   -2.6415 H   0  0  0  0  0  0  0  0  0  0  0  0
    0.8880   -0.1908   -0.1304 H   0  0  0  0  0  0  0  0  0  0  0  0
   -0.7323    0.9515    0.9529 H   0  0  0  0  0  0  0  0  0  0  0  0
   -3.0570    0.5794    1.6145 H   0  0  0  0  0  0  0  0  0  0  0  0
   -5.2689    0.2492    1.0616 H   0  0  0  0  0  0  0  0  0  0  0  0
   -9.1919   -0.3479   -1.1568 H   0  0  0  0  0  0  0  0  0  0  0  0
  -10.5557   -0.5349    1.2113 H   0  0  0  0  0  0  0  0  0  0  0  0
   -8.6057   -0.2320    3.1443 H   0  0  0  0  0  0  0  0  0  0  0  0
   -4.2139    0.4385   -2.5503 H   0  0  0  0  0  0  0  0  0  0  0  0
   -1.8905    0.7912   -3.2014 H   0  0  0  0  0  0  0  0  0  0  0  0
    2.9128   -0.9254    0.6010 H   0  0  0  0  0  0  0  0  0  0  0  0
  1  2  1  0
  2  3  1  0
  3  4  1  0
  4  5  2  0
  4  6  1  0
  6  7  2  0
  7  8  1  0
  8  9  2  0
  9 10  1  0
 10 11  1  0
 11 12  1  0
 12 13  2  0
 12 14  1  0
 14 15  2  0
 15 16  1  0
 16 17  2  0
 17 18  1  0
 18 19  1  0
 19 20  2  0
 19 21  1  0
 21 22  2  0
 22 23  1  0
 23 24  2  0
 24 25  1  0
 17 26  1  0
 26 27  2  0
 10 28  2  0
 28  6  1  0
 27 14  1  0
 25 21  1  0
  1 29  1  0
  1 30  1  0
  1 31  1  0
  2 32  1  0
  2 33  1  0
  7 34  1  0
  8 35  1  0
  9 36  1  0
 11 37  1  0
 15 38  1  0
 16 39  1  0
 18 40  1  0
 22 41  1  0
 23 42  1  0
 24 43  1  0
 26 44  1  0
 27 45  1  0
 28 46  1  0
M  END
$$$$
