
     RDKit          3D

 44 46  0  0  0  0  0  0  0  0999 V2000
   -5.1529   -0.7539    2.0770 C   0  0  0  0  0  0  0  0  0  0  0  0
   -3.6652   -0.5403    2.1552 C   0  0  0  0  0  0  0  0  0  0  0  0
   -3.1196    0.6702    1.6931 C   0  0  0  0  0  0  0  0  0  0  0  0
   -1.7381    0.9343    1.7383 C   0  0  0  0  0  0  0  0  0  0  0  0
   -1.2577    2.2638    1.2285 C   0  0  0  0  0  0  0  0  0  0  0  0
   -0.8960   -0.0568    2.2672 C   0  0  0  0  0  0  0  0  0  0  0  0
    0.8758    0.1243    2.4052 S   0  0  0  0  0  6  0  0  0  0  0  0
    1.2796    1.4916    2.1668 O   0  0  0  0  0  0  0  0  0  0  0  0
    1.2832   -0.5508    3.6218 O   0  0  0  0  0  0  0  0  0  0  0  0
    1.4446   -0.8493    1.1396 N   0  0  0  0  0  0  0  0  0  0  0  0
    1.3898   -0.3250   -0.1801 C   0  0  0  0  0  0  0  0  0  0  0  0
    0.2642   -0.5685   -0.9632 C   0  0  0  0  0  0  0  0  0  0  0  0
    0.1850   -0.0257   -2.2438 C   0  0  0  0  0  0  0  0  0  0  0  0
    1.2311    0.7544   -2.7357 C   0  0  0  0  0  0  0  0  0  0  0  0
    1.0646    1.2360   -4.0052 O   0  0  0  0  0  0  0  0  0  0  0  0
    2.3652    1.0184   -1.9530 C   0  0  0  0  0  0  0  0  0  0  0  0
    3.7000    2.0929   -2.4588 S   0  0  0  0  0  0  0  0  0  0  0  0
    4.3620    1.2414   -3.8222 C   0  0  0  0  0  0  0  0  0  0  0  0
    3.6280    0.9916   -4.9541 N   0  0  0  0  0  0  0  0  0  0  0  0
    4.4882    0.3697   -5.7273 C   0  0  0  0  0  0  0  0  0  0  0  0
    5.6822    0.2632   -5.0858 N   0  0  0  0  0  0  0  0  0  0  0  0
    5.6272    0.8180   -3.8651 N   0  0  0  0  0  0  0  0  0  0  0  0
    2.4296    0.4718   -0.6626 C   0  0  0  0  0  0  0  0  0  0  0  0
   -1.4345   -1.2666    2.7415 C   0  0  0  0  0  0  0  0  0  0  0  0
   -2.8120   -1.5211    2.6877 C   0  0  0  0  0  0  0  0  0  0  0  0
   -3.3425   -2.8295    3.2064 C   0  0  0  0  0  0  0  0  0  0  0  0
   -5.6606    0.1062    1.6277 H   0  0  0  0  0  0  0  0  0  0  0  0
   -5.3796   -1.6283    1.4589 H   0  0  0  0  0  0  0  0  0  0  0  0
   -5.5695   -0.8959    3.0792 H   0  0  0  0  0  0  0  0  0  0  0  0
   -3.7908    1.4284    1.2891 H   0  0  0  0  0  0  0  0  0  0  0  0
   -0.8652    2.8686    2.0513 H   0  0  0  0  0  0  0  0  0  0  0  0
   -0.4991    2.1356    0.4517 H   0  0  0  0  0  0  0  0  0  0  0  0
   -2.0736    2.8356    0.7720 H   0  0  0  0  0  0  0  0  0  0  0  0
    2.3001   -1.3269    1.4212 H   0  0  0  0  0  0  0  0  0  0  0  0
   -0.5525   -1.1796   -0.5886 H   0  0  0  0  0  0  0  0  0  0  0  0
   -0.6894   -0.2104   -2.8622 H   0  0  0  0  0  0  0  0  0  0  0  0
    1.9521    1.4156   -4.3815 H   0  0  0  0  0  0  0  0  0  0  0  0
    4.3120   -0.0099   -6.7240 H   0  0  0  0  0  0  0  0  0  0  0  0
    6.5489   -0.1559   -5.4052 H   0  0  0  0  0  0  0  0  0  0  0  0
    3.2818    0.6878   -0.0221 H   0  0  0  0  0  0  0  0  0  0  0  0
   -0.7682   -2.0213    3.1589 H   0  0  0  0  0  0  0  0  0  0  0  0
   -3.8576   -3.3743    2.4090 H   0  0  0  0  0  0  0  0  0  0  0  0
   -4.0336   -2.6568    4.0374 H   0  0  0  0  0  0  0  0  0  0  0  0
   -2.5366   -3.4726    3.5760 H   0  0  0  0  0  0  0  0  0  0  0  0
  1  2  1  0
  2  3  2  0
  3  4  1  0
  4  5  1  0
  4  6  2  0
  6  7  1  0
  7  8  2  0
  7  9  2  0
  7 10  1  0
 10 11  1  0
 11 12  2  0
 12 13  1  0
 13 14  2  0
 14 15  1  0
 14 16  1  0
 16 17  1  0
 17 18  1  0
 18 19  1  0
 19 20  2  0
 20 21  1  0
 21 22  1  0
 16 23  2  0
  6 24  1  0
 24 25  2  0
 25 26  1  0
 25  2  1  0
 23 11  1  0
 22 18  2  0
  1 27  1  0
  1 28  1  0
  1 29  1  0
  3 30  1  0
  5 31  1  0
  5 32  1  0
  5 33  1  0
 10 34  1  0
 12 35  1  0
 13 36  1  0
 15 37  1  0
 20 38  1  0
 21 39  1  0
 23 40  1  0
 24 41  1  0
 26 42  1  0
 26 43  1  0
 26 44  1  0
M  END
$$$$
