
     RDKit          3D

 43 45  0  0  0  0  0  0  0  0999 V2000
    7.6711    0.9979    1.2440 O   0  0  0  0  0  0  0  0  0  0  0  0
    8.1267    0.2354    0.4089 C   0  0  0  0  0  0  0  0  0  0  0  0
    9.4566   -0.0032    0.3736 O   0  0  0  0  0  0  0  0  0  0  0  0
    7.3973   -0.5028   -0.6868 C   0  0  0  0  0  0  0  0  0  0  0  0
    5.8943   -0.4883   -0.5448 C   0  0  0  0  0  0  0  0  0  0  0  0
    5.1542    0.6443   -0.9014 C   0  0  0  0  0  0  0  0  0  0  0  0
    3.7628    0.6550   -0.7607 C   0  0  0  0  0  0  0  0  0  0  0  0
    3.0839   -0.4622   -0.2596 C   0  0  0  0  0  0  0  0  0  0  0  0
    1.6799   -0.3698   -0.1551 N   0  0  0  0  0  0  0  0  0  0  0  0
    0.8122   -1.3139    0.3633 C   0  0  0  0  0  0  0  0  0  0  0  0
    1.1088   -2.3830    0.8827 O   0  0  0  0  0  0  0  0  0  0  0  0
   -0.6298   -0.9399    0.3027 C   0  0  0  0  0  0  0  0  0  0  0  0
   -1.1644   -0.2180   -0.7697 C   0  0  0  0  0  0  0  0  0  0  0  0
   -2.5256    0.1134   -0.7873 C   0  0  0  0  0  0  0  0  0  0  0  0
   -3.3670   -0.2796    0.2561 C   0  0  0  0  0  0  0  0  0  0  0  0
   -4.7410    0.0141    0.3124 N   0  0  0  0  0  0  0  0  0  0  0  0
   -5.5060    0.7350   -0.5880 C   0  0  0  0  0  0  0  0  0  0  0  0
   -5.0899    1.2600   -1.6155 O   0  0  0  0  0  0  0  0  0  0  0  0
   -6.9002    0.8212   -0.1887 C   0  0  0  0  0  0  0  0  0  0  0  0
   -7.9835    1.4342   -0.7898 C   0  0  0  0  0  0  0  0  0  0  0  0
   -9.1023    1.1962    0.0435 C   0  0  0  0  0  0  0  0  0  0  0  0
   -8.6391    0.4535    1.1033 C   0  0  0  0  0  0  0  0  0  0  0  0
   -7.3073    0.2191    0.9765 O   0  0  0  0  0  0  0  0  0  0  0  0
   -2.8300   -1.0204    1.3165 C   0  0  0  0  0  0  0  0  0  0  0  0
   -1.4720   -1.3532    1.3391 C   0  0  0  0  0  0  0  0  0  0  0  0
    3.8213   -1.5908    0.0962 C   0  0  0  0  0  0  0  0  0  0  0  0
    5.2147   -1.6032   -0.0406 C   0  0  0  0  0  0  0  0  0  0  0  0
    9.8066    0.5305    1.1182 H   0  0  0  0  0  0  0  0  0  0  0  0
    7.7503   -1.5411   -0.6962 H   0  0  0  0  0  0  0  0  0  0  0  0
    7.6731   -0.0539   -1.6483 H   0  0  0  0  0  0  0  0  0  0  0  0
    5.6551    1.5317   -1.2824 H   0  0  0  0  0  0  0  0  0  0  0  0
    3.2225    1.5543   -1.0440 H   0  0  0  0  0  0  0  0  0  0  0  0
    1.2821    0.5172   -0.4332 H   0  0  0  0  0  0  0  0  0  0  0  0
   -0.5490    0.0704   -1.6177 H   0  0  0  0  0  0  0  0  0  0  0  0
   -2.8987    0.6703   -1.6417 H   0  0  0  0  0  0  0  0  0  0  0  0
   -5.2572   -0.3377    1.1124 H   0  0  0  0  0  0  0  0  0  0  0  0
   -7.9542    1.9846   -1.7209 H   0  0  0  0  0  0  0  0  0  0  0  0
  -10.1209    1.5250   -0.1095 H   0  0  0  0  0  0  0  0  0  0  0  0
   -9.1069    0.0350    1.9840 H   0  0  0  0  0  0  0  0  0  0  0  0
   -3.4581   -1.3524    2.1398 H   0  0  0  0  0  0  0  0  0  0  0  0
   -1.0721   -1.9341    2.1683 H   0  0  0  0  0  0  0  0  0  0  0  0
    3.3432   -2.4836    0.4868 H   0  0  0  0  0  0  0  0  0  0  0  0
    5.7588   -2.4985    0.2534 H   0  0  0  0  0  0  0  0  0  0  0  0
  1  2  2  0
  2  3  1  0
  2  4  1  0
  4  5  1  0
  5  6  2  0
  6  7  1  0
  7  8  2  0
  8  9  1  0
  9 10  1  0
 10 11  2  0
 10 12  1  0
 12 13  2  0
 13 14  1  0
 14 15  2  0
 15 16  1  0
 16 17  1  0
 17 18  2  0
 17 19  1  0
 19 20  2  0
 20 21  1  0
 21 22  2  0
 22 23  1  0
 15 24  1  0
 24 25  2  0
  8 26  1  0
 26 27  2  0
 27  5  1  0
 25 12  1  0
 23 19  1  0
  3 28  1  0
  4 29  1  0
  4 30  1  0
  6 31  1  0
  7 32  1  0
  9 33  1  0
 13 34  1  0
 14 35  1  0
 16 36  1  0
 20 37  1  0
 21 38  1  0
 22 39  1  0
 24 40  1  0
 25 41  1  0
 26 42  1  0
 27 43  1  0
M  END
$$$$
