
     RDKit          3D

 53 55  0  0  0  0  0  0  0  0999 V2000
   -6.5293   -2.1330    3.2273 C   0  0  0  0  0  0  0  0  0  0  0  0
   -5.8985   -2.3181    1.9662 O   0  0  0  0  0  0  0  0  0  0  0  0
   -6.1578   -1.3910    0.9900 C   0  0  0  0  0  0  0  0  0  0  0  0
   -7.0415   -0.3151    1.1277 C   0  0  0  0  0  0  0  0  0  0  0  0
   -7.2268    0.5895    0.0787 C   0  0  0  0  0  0  0  0  0  0  0  0
   -6.5288    0.4305   -1.1140 C   0  0  0  0  0  0  0  0  0  0  0  0
   -5.6490   -0.6391   -1.2630 C   0  0  0  0  0  0  0  0  0  0  0  0
   -5.4638   -1.5660   -0.2222 C   0  0  0  0  0  0  0  0  0  0  0  0
   -4.4862   -2.6991   -0.4147 C   0  0  0  0  0  0  0  0  0  0  0  0
   -3.1894   -2.3576    0.1106 N   0  0  0  0  0  0  0  0  0  0  0  0
   -2.2071   -1.7870   -0.6598 C   0  0  0  0  0  0  0  0  0  0  0  0
   -2.2253   -1.6462   -1.8751 O   0  0  0  0  0  0  0  0  0  0  0  0
   -0.9909   -1.2927    0.1581 C   0  0  0  0  0  0  0  0  0  0  0  0
   -0.9417   -1.4811    1.3649 O   0  0  0  0  0  0  0  0  0  0  0  0
   -0.0337   -0.6657   -0.6038 N   0  0  0  0  0  0  0  0  0  0  0  0
    1.2799   -0.3335   -0.0752 C   0  0  0  0  0  0  0  0  0  0  0  0
    2.0126    0.6998   -0.9582 C   0  0  0  0  0  0  0  0  0  0  0  0
    2.0393    0.1649   -2.3084 O   0  0  0  0  0  0  0  0  0  0  0  0
    3.3998    0.1700   -2.7530 C   0  0  0  0  0  0  0  0  0  0  0  0
    4.2286    0.1389   -1.4893 C   0  0  0  0  0  0  0  0  0  0  0  0
    3.4195    0.9771   -0.6037 N   0  0  0  0  0  0  0  0  0  0  0  0
    3.8147    1.0655    1.0212 S   0  0  0  0  0  6  0  0  0  0  0  0
    2.9013    1.9930    1.6502 O   0  0  0  0  0  0  0  0  0  0  0  0
    3.9735   -0.2880    1.5065 O   0  0  0  0  0  0  0  0  0  0  0  0
    5.4137    1.8371    0.9821 C   0  0  0  0  0  0  0  0  0  0  0  0
    6.5548    1.1075    1.3292 C   0  0  0  0  0  0  0  0  0  0  0  0
    7.8036    1.7312    1.2949 C   0  0  0  0  0  0  0  0  0  0  0  0
    7.8991    3.0733    0.9218 C   0  0  0  0  0  0  0  0  0  0  0  0
    9.5926    3.9122    0.8753 Br  0  0  0  0  0  0  0  0  0  0  0  0
    6.7576    3.8030    0.5854 C   0  0  0  0  0  0  0  0  0  0  0  0
    5.5067    3.1848    0.6180 C   0  0  0  0  0  0  0  0  0  0  0  0
   -7.6176   -2.2133    3.1386 H   0  0  0  0  0  0  0  0  0  0  0  0
   -6.1902   -2.9346    3.8906 H   0  0  0  0  0  0  0  0  0  0  0  0
   -6.2362   -1.1803    3.6807 H   0  0  0  0  0  0  0  0  0  0  0  0
   -7.6020   -0.1477    2.0413 H   0  0  0  0  0  0  0  0  0  0  0  0
   -7.9135    1.4239    0.1975 H   0  0  0  0  0  0  0  0  0  0  0  0
   -6.6647    1.1399   -1.9261 H   0  0  0  0  0  0  0  0  0  0  0  0
   -5.0961   -0.7483   -2.1949 H   0  0  0  0  0  0  0  0  0  0  0  0
   -4.8297   -3.6046    0.0967 H   0  0  0  0  0  0  0  0  0  0  0  0
   -4.4012   -2.9526   -1.4780 H   0  0  0  0  0  0  0  0  0  0  0  0
   -3.0761   -2.2897    1.1180 H   0  0  0  0  0  0  0  0  0  0  0  0
   -0.1461   -0.7413   -1.6141 H   0  0  0  0  0  0  0  0  0  0  0  0
    1.1589    0.0235    0.9520 H   0  0  0  0  0  0  0  0  0  0  0  0
    1.8393   -1.2756   -0.0434 H   0  0  0  0  0  0  0  0  0  0  0  0
    1.4515    1.6398   -0.9967 H   0  0  0  0  0  0  0  0  0  0  0  0
    3.5662    1.0931   -3.3194 H   0  0  0  0  0  0  0  0  0  0  0  0
    3.5858   -0.6861   -3.4068 H   0  0  0  0  0  0  0  0  0  0  0  0
    5.2306    0.5387   -1.6582 H   0  0  0  0  0  0  0  0  0  0  0  0
    4.2931   -0.8831   -1.1014 H   0  0  0  0  0  0  0  0  0  0  0  0
    6.4823    0.0644    1.6298 H   0  0  0  0  0  0  0  0  0  0  0  0
    8.6930    1.1669    1.5653 H   0  0  0  0  0  0  0  0  0  0  0  0
    6.8321    4.8503    0.3029 H   0  0  0  0  0  0  0  0  0  0  0  0
    4.6132    3.7521    0.3646 H   0  0  0  0  0  0  0  0  0  0  0  0
  1  2  1  0
  2  3  1  0
  3  4  2  0
  4  5  1  0
  5  6  2  0
  6  7  1  0
  7  8  2  0
  8  9  1  0
  9 10  1  0
 10 11  1  0
 11 12  2  0
 11 13  1  0
 13 14  2  0
 13 15  1  0
 15 16  1  0
 16 17  1  0
 17 18  1  0
 18 19  1  0
 19 20  1  0
 20 21  1  0
 21 22  1  0
 22 23  2  0
 22 24  2  0
 22 25  1  0
 25 26  2  0
 26 27  1  0
 27 28  2  0
 28 29  1  0
 28 30  1  0
 30 31  2  0
  8  3  1  0
 21 17  1  0
 31 25  1  0
  1 32  1  0
  1 33  1  0
  1 34  1  0
  4 35  1  0
  5 36  1  0
  6 37  1  0
  7 38  1  0
  9 39  1  0
  9 40  1  0
 10 41  1  0
 15 42  1  0
 16 43  1  0
 16 44  1  0
 17 45  1  0
 19 46  1  0
 19 47  1  0
 20 48  1  0
 20 49  1  0
 26 50  1  0
 27 51  1  0
 30 52  1  0
 31 53  1  0
M  END
$$$$
