
     RDKit          3D

 39 39  0  0  0  0  0  0  0  0999 V2000
   -5.7506    2.0790   -1.2200 C   0  0  0  0  0  0  0  0  0  0  0  0
   -4.4366    1.3884   -1.4200 C   0  0  0  0  0  0  0  0  0  0  0  0
   -4.3134    0.2285   -1.7867 O   0  0  0  0  0  0  0  0  0  0  0  0
   -3.4145    2.2373   -1.1232 O   0  0  0  0  0  0  0  0  0  0  0  0
   -2.0911    1.7036   -1.3048 C   0  0  0  0  0  0  0  0  0  0  0  0
   -1.6554    0.9446   -0.0522 C   0  0  0  0  0  0  0  0  0  0  0  0
   -0.2599    0.3213   -0.2166 C   0  0  0  0  0  0  0  0  0  0  0  0
    0.7372    1.4074   -0.2798 N   0  0  0  0  0  0  0  0  0  0  0  0
    2.1121    1.1404   -1.1941 S   0  0  0  0  0  6  0  0  0  0  0  0
    1.7064    0.6943   -2.5056 O   0  0  0  0  0  0  0  0  0  0  0  0
    2.9469    2.3054   -1.0144 O   0  0  0  0  0  0  0  0  0  0  0  0
    2.8391   -0.0960   -0.4492 O   0  0  0  0  0  0  0  0  0  0  0  0
    4.1590   -0.4293   -0.8715 C   0  0  0  0  0  0  0  0  0  0  0  0
    4.6078   -1.7835   -0.3064 C   0  0  0  0  0  0  0  0  0  0  0  0
    4.5638   -1.7747    1.4833 Cl  0  0  0  0  0  0  0  0  0  0  0  0
    6.2913   -2.1163   -0.8293 Cl  0  0  0  0  0  0  0  0  0  0  0  0
    3.5594   -3.1018   -0.9141 Cl  0  0  0  0  0  0  0  0  0  0  0  0
    0.0429   -0.6457    0.9158 C   0  0  0  0  0  0  0  0  0  0  0  0
    0.0884   -0.2257    2.2557 C   0  0  0  0  0  0  0  0  0  0  0  0
    0.3985   -1.1290    3.2742 C   0  0  0  0  0  0  0  0  0  0  0  0
    0.6648   -2.4615    2.9692 C   0  0  0  0  0  0  0  0  0  0  0  0
    0.6170   -2.8943    1.6468 C   0  0  0  0  0  0  0  0  0  0  0  0
    0.3070   -1.9936    0.6265 C   0  0  0  0  0  0  0  0  0  0  0  0
   -5.8630    2.3655   -0.1712 H   0  0  0  0  0  0  0  0  0  0  0  0
   -5.8108    2.9570   -1.8681 H   0  0  0  0  0  0  0  0  0  0  0  0
   -6.5628    1.3957   -1.4851 H   0  0  0  0  0  0  0  0  0  0  0  0
   -2.0464    1.0739   -2.2016 H   0  0  0  0  0  0  0  0  0  0  0  0
   -1.4320    2.5598   -1.4829 H   0  0  0  0  0  0  0  0  0  0  0  0
   -2.3912    0.1599    0.1668 H   0  0  0  0  0  0  0  0  0  0  0  0
   -1.6920    1.6280    0.8065 H   0  0  0  0  0  0  0  0  0  0  0  0
   -0.2655   -0.2295   -1.1654 H   0  0  0  0  0  0  0  0  0  0  0  0
    0.9824    1.8174    0.6190 H   0  0  0  0  0  0  0  0  0  0  0  0
    4.1936   -0.4523   -1.9683 H   0  0  0  0  0  0  0  0  0  0  0  0
    4.8357    0.3654   -0.5337 H   0  0  0  0  0  0  0  0  0  0  0  0
   -0.1184    0.8078    2.5230 H   0  0  0  0  0  0  0  0  0  0  0  0
    0.4338   -0.7935    4.3078 H   0  0  0  0  0  0  0  0  0  0  0  0
    0.9098   -3.1636    3.7620 H   0  0  0  0  0  0  0  0  0  0  0  0
    0.8257   -3.9343    1.4074 H   0  0  0  0  0  0  0  0  0  0  0  0
    0.2810   -2.3561   -0.3998 H   0  0  0  0  0  0  0  0  0  0  0  0
  1  2  1  0
  2  3  2  0
  2  4  1  0
  4  5  1  0
  5  6  1  0
  6  7  1  0
  7  8  1  0
  8  9  1  0
  9 10  2  0
  9 11  2  0
  9 12  1  0
 12 13  1  0
 13 14  1  0
 14 15  1  0
 14 16  1  0
 14 17  1  0
  7 18  1  0
 18 19  2  0
 19 20  1  0
 20 21  2  0
 21 22  1  0
 22 23  2  0
 23 18  1  0
  1 24  1  0
  1 25  1  0
  1 26  1  0
  5 27  1  0
  5 28  1  0
  6 29  1  0
  6 30  1  0
  7 31  1  0
  8 32  1  0
 13 33  1  0
 13 34  1  0
 19 35  1  0
 20 36  1  0
 21 37  1  0
 22 38  1  0
 23 39  1  0
M  END
$$$$
