
     RDKit          3D

 48 51  0  0  0  0  0  0  0  0999 V2000
    0.4278   -1.0264    1.7588 C   0  0  0  0  0  0  0  0  0  0  0  0
    1.3448   -0.2308    0.8861 C   0  0  0  0  0  0  0  0  0  0  0  0
    1.2843   -0.0420   -0.4429 C   0  0  0  0  0  0  0  0  0  0  0  0
    0.4173   -0.3910   -1.4447 N   0  0  0  0  0  0  0  0  0  0  0  0
   -0.8803   -0.8637   -1.3490 C   0  0  0  0  0  0  0  0  0  0  0  0
   -1.4926   -1.0070   -0.2972 O   0  0  0  0  0  0  0  0  0  0  0  0
   -1.4717   -1.1542   -2.7276 C   0  0  0  0  0  0  0  0  0  0  0  0
   -3.0411   -2.0668   -2.6600 S   0  0  0  0  0  0  0  0  0  0  0  0
   -4.0662   -0.8426   -1.8353 C   0  0  0  0  0  0  0  0  0  0  0  0
   -3.9241    0.4176   -2.2991 N   0  0  0  0  0  0  0  0  0  0  0  0
   -4.6951    1.3369   -1.7127 C   0  0  0  0  0  0  0  0  0  0  0  0
   -5.5848    1.1220   -0.7367 N   0  0  0  0  0  0  0  0  0  0  0  0
   -5.7118   -0.1364   -0.2978 C   0  0  0  0  0  0  0  0  0  0  0  0
   -6.6254   -0.3914    0.7179 C   0  0  0  0  0  0  0  0  0  0  0  0
   -6.8187   -1.6746    1.2385 C   0  0  0  0  0  0  0  0  0  0  0  0
   -6.0850   -2.7387    0.7332 C   0  0  0  0  0  0  0  0  0  0  0  0
   -5.1655   -2.5093   -0.2868 C   0  0  0  0  0  0  0  0  0  0  0  0
   -4.9668   -1.2033   -0.8163 C   0  0  0  0  0  0  0  0  0  0  0  0
    2.5234    0.7243   -0.7984 C   0  0  0  0  0  0  0  0  0  0  0  0
    2.7959    1.0023   -1.9585 O   0  0  0  0  0  0  0  0  0  0  0  0
    3.2189    0.9387    0.3918 N   0  0  0  0  0  0  0  0  0  0  0  0
    4.6120    1.1824    0.5041 C   0  0  0  0  0  0  0  0  0  0  0  0
    5.3143    1.8235   -0.5255 C   0  0  0  0  0  0  0  0  0  0  0  0
    6.6887    2.0672   -0.4180 C   0  0  0  0  0  0  0  0  0  0  0  0
    7.3838    1.6687    0.7204 C   0  0  0  0  0  0  0  0  0  0  0  0
    6.7059    1.0227    1.7496 C   0  0  0  0  0  0  0  0  0  0  0  0
    5.3317    0.7822    1.6408 C   0  0  0  0  0  0  0  0  0  0  0  0
    2.4660    0.3927    1.4725 N   0  0  0  0  0  0  0  0  0  0  0  0
    2.2030    1.3713    2.5463 C   0  0  0  0  0  0  0  0  0  0  0  0
   -0.4252   -0.4215    2.0795 H   0  0  0  0  0  0  0  0  0  0  0  0
    0.9513   -1.3724    2.6573 H   0  0  0  0  0  0  0  0  0  0  0  0
    0.0779   -1.9324    1.2554 H   0  0  0  0  0  0  0  0  0  0  0  0
    0.7551   -0.1304   -2.3699 H   0  0  0  0  0  0  0  0  0  0  0  0
   -1.5894   -0.2176   -3.2806 H   0  0  0  0  0  0  0  0  0  0  0  0
   -0.7631   -1.7822   -3.2767 H   0  0  0  0  0  0  0  0  0  0  0  0
   -4.5932    2.3605   -2.0593 H   0  0  0  0  0  0  0  0  0  0  0  0
   -7.2034    0.4369    1.1218 H   0  0  0  0  0  0  0  0  0  0  0  0
   -7.5381   -1.8343    2.0371 H   0  0  0  0  0  0  0  0  0  0  0  0
   -6.2207   -3.7406    1.1324 H   0  0  0  0  0  0  0  0  0  0  0  0
   -4.5913   -3.3530   -0.6653 H   0  0  0  0  0  0  0  0  0  0  0  0
    4.8062    2.1631   -1.4246 H   0  0  0  0  0  0  0  0  0  0  0  0
    7.2124    2.5706   -1.2274 H   0  0  0  0  0  0  0  0  0  0  0  0
    8.4521    1.8556    0.8015 H   0  0  0  0  0  0  0  0  0  0  0  0
    7.2452    0.6966    2.6356 H   0  0  0  0  0  0  0  0  0  0  0  0
    4.8406    0.2457    2.4471 H   0  0  0  0  0  0  0  0  0  0  0  0
    3.1310    1.7653    2.9683 H   0  0  0  0  0  0  0  0  0  0  0  0
    1.6517    0.9024    3.3698 H   0  0  0  0  0  0  0  0  0  0  0  0
    1.6123    2.2136    2.1691 H   0  0  0  0  0  0  0  0  0  0  0  0
  1  2  1  0
  2  3  2  0
  3  4  1  0
  4  5  1  0
  5  6  2  0
  5  7  1  0
  7  8  1  0
  8  9  1  0
  9 10  2  0
 10 11  1  0
 11 12  2  0
 12 13  1  0
 13 14  2  0
 14 15  1  0
 15 16  2  0
 16 17  1  0
 17 18  2  0
  3 19  1  0
 19 20  2  0
 19 21  1  0
 21 22  1  0
 22 23  2  0
 23 24  1  0
 24 25  2  0
 25 26  1  0
 26 27  2  0
 21 28  1  0
 28 29  1  0
 28  2  1  0
 18  9  1  0
 27 22  1  0
 18 13  1  0
  1 30  1  0
  1 31  1  0
  1 32  1  0
  4 33  1  0
  7 34  1  0
  7 35  1  0
 11 36  1  0
 14 37  1  0
 15 38  1  0
 16 39  1  0
 17 40  1  0
 23 41  1  0
 24 42  1  0
 25 43  1  0
 26 44  1  0
 27 45  1  0
 29 46  1  0
 29 47  1  0
 29 48  1  0
M  END
$$$$
