
     RDKit          3D

 34 36  0  0  0  0  0  0  0  0999 V2000
    0.6268    1.4136   -2.3617 O   0  0  0  0  0  0  0  0  0  0  0  0
    0.4782    0.6885   -1.3821 C   0  0  0  0  0  0  0  0  0  0  0  0
    1.5509   -0.2701   -1.1016 C   0  0  0  0  0  0  0  0  0  0  0  0
    1.5582   -1.5077   -1.7499 C   0  0  0  0  0  0  0  0  0  0  0  0
    2.6193   -2.3890   -1.5322 C   0  0  0  0  0  0  0  0  0  0  0  0
    3.6715   -2.0152   -0.6940 C   0  0  0  0  0  0  0  0  0  0  0  0
    4.9779   -3.1033   -0.4297 Cl  0  0  0  0  0  0  0  0  0  0  0  0
    3.6804   -0.7620   -0.0787 C   0  0  0  0  0  0  0  0  0  0  0  0
    2.6211    0.1224   -0.2917 C   0  0  0  0  0  0  0  0  0  0  0  0
   -0.6204    0.7573   -0.5574 N   0  0  0  0  0  0  0  0  0  0  0  0
   -1.6230    1.8041   -0.7919 C   0  0  0  0  0  0  0  0  0  0  0  0
   -1.4658    2.7722    0.3567 C   0  0  0  0  0  0  0  0  0  0  0  0
   -1.9469    2.1801    1.4628 C   0  0  0  0  0  0  0  0  0  0  0  0
   -2.3493    0.7734    1.0515 C   0  0  0  0  0  0  0  0  0  0  0  0
   -2.9164    1.1358   -0.3332 C   0  0  0  0  0  0  0  0  0  0  0  0
   -1.0585   -0.0563    0.6722 C   0  0  0  0  0  0  0  0  0  0  0  0
   -0.0993   -0.1182    1.8586 C   0  0  0  0  0  0  0  0  0  0  0  0
    0.8939   -1.0159    1.6965 F   0  0  0  0  0  0  0  0  0  0  0  0
    0.5025    1.0696    2.1049 F   0  0  0  0  0  0  0  0  0  0  0  0
   -0.7517   -0.4642    2.9951 F   0  0  0  0  0  0  0  0  0  0  0  0
   -1.4438   -1.5107    0.4100 C   0  0  0  0  0  0  0  0  0  0  0  0
   -2.2644   -1.6383   -0.6592 F   0  0  0  0  0  0  0  0  0  0  0  0
   -2.1060   -2.0431    1.4634 F   0  0  0  0  0  0  0  0  0  0  0  0
   -0.3868   -2.3090    0.1627 F   0  0  0  0  0  0  0  0  0  0  0  0
    0.7492   -1.7858   -2.4207 H   0  0  0  0  0  0  0  0  0  0  0  0
    2.6248   -3.3590   -2.0227 H   0  0  0  0  0  0  0  0  0  0  0  0
    4.5095   -0.4680    0.5597 H   0  0  0  0  0  0  0  0  0  0  0  0
    2.6343    1.1080    0.1677 H   0  0  0  0  0  0  0  0  0  0  0  0
   -1.6369    2.2482   -1.7879 H   0  0  0  0  0  0  0  0  0  0  0  0
   -1.0331    3.7588    0.2821 H   0  0  0  0  0  0  0  0  0  0  0  0
   -1.9610    2.5894    2.4627 H   0  0  0  0  0  0  0  0  0  0  0  0
   -3.0609    0.2937    1.7259 H   0  0  0  0  0  0  0  0  0  0  0  0
   -3.7740    1.8211   -0.2906 H   0  0  0  0  0  0  0  0  0  0  0  0
   -3.2004    0.2795   -0.9475 H   0  0  0  0  0  0  0  0  0  0  0  0
  1  2  2  0
  2  3  1  0
  3  4  2  0
  4  5  1  0
  5  6  2  0
  6  7  1  0
  6  8  1  0
  8  9  2  0
  2 10  1  0
 10 11  1  0
 11 12  1  0
 12 13  2  0
 13 14  1  0
 14 15  1  0
 14 16  1  0
 16 17  1  0
 17 18  1  0
 17 19  1  0
 17 20  1  0
 16 21  1  0
 21 22  1  0
 21 23  1  0
 21 24  1  0
  9  3  1  0
 16 10  1  0
 15 11  1  0
  4 25  1  0
  5 26  1  0
  8 27  1  0
  9 28  1  0
 11 29  1  0
 12 30  1  0
 13 31  1  0
 14 32  1  0
 15 33  1  0
 15 34  1  0
M  END
$$$$
