
     RDKit          3D

 49 52  0  0  0  0  0  0  0  0999 V2000
   -2.5886    2.8982    2.3398 O   0  0  0  0  0  0  0  0  0  0  0  0
   -2.1288    3.3059    1.2916 C   0  0  0  0  0  0  0  0  0  0  0  0
   -1.5574    4.5230    1.2096 O   0  0  0  0  0  0  0  0  0  0  0  0
   -2.0727    2.5902   -0.0082 C   0  0  0  0  0  0  0  0  0  0  0  0
   -2.3087    3.3617   -1.1658 C   0  0  0  0  0  0  0  0  0  0  0  0
   -2.4518    2.7568   -2.4106 C   0  0  0  0  0  0  0  0  0  0  0  0
   -2.4037    1.3730   -2.5023 C   0  0  0  0  0  0  0  0  0  0  0  0
   -2.1703    0.6016   -1.3537 C   0  0  0  0  0  0  0  0  0  0  0  0
   -2.1910   -0.8741   -1.4830 C   0  0  0  0  0  0  0  0  0  0  0  0
   -2.2514   -1.4067   -2.5864 O   0  0  0  0  0  0  0  0  0  0  0  0
   -2.1590   -1.6904   -0.2538 C   0  0  0  0  0  0  0  0  0  0  0  0
   -2.3931   -3.0696   -0.3292 C   0  0  0  0  0  0  0  0  0  0  0  0
   -2.3616   -3.8400    0.8297 C   0  0  0  0  0  0  0  0  0  0  0  0
   -2.1021   -3.2314    2.0549 C   0  0  0  0  0  0  0  0  0  0  0  0
   -1.8607   -1.8546    2.1218 C   0  0  0  0  0  0  0  0  0  0  0  0
   -1.8653   -1.0598    0.9644 C   0  0  0  0  0  0  0  0  0  0  0  0
   -1.6081    0.3339    0.9999 N   0  0  0  0  0  0  0  0  0  0  0  0
   -0.4600    0.7408    1.8609 C   0  0  0  0  0  0  0  0  0  0  0  0
    0.8795    0.0503    1.5158 C   0  0  0  0  0  0  0  0  0  0  0  0
    1.8681    0.4539    2.4829 O   0  0  0  0  0  0  0  0  0  0  0  0
    1.4023    0.4244    0.1123 C   0  0  0  0  0  0  0  0  0  0  0  0
    2.7777   -0.0745   -0.0929 N   0  0  0  0  0  0  0  0  0  0  0  0
    2.8376   -1.5335   -0.2519 C   0  0  0  0  0  0  0  0  0  0  0  0
    4.2049   -1.7639   -0.8800 C   0  0  0  0  0  0  0  0  0  0  0  0
    4.5639   -0.4451   -1.5541 C   0  0  0  0  0  0  0  0  0  0  0  0
    3.3547    0.4494   -1.3364 C   0  0  0  0  0  0  0  0  0  0  0  0
   -1.9315    1.1853   -0.0894 C   0  0  0  0  0  0  0  0  0  0  0  0
   -1.6379    4.8818    2.1190 H   0  0  0  0  0  0  0  0  0  0  0  0
   -2.4157    4.4431   -1.0939 H   0  0  0  0  0  0  0  0  0  0  0  0
   -2.6411    3.3586   -3.2962 H   0  0  0  0  0  0  0  0  0  0  0  0
   -2.5617    0.8897   -3.4650 H   0  0  0  0  0  0  0  0  0  0  0  0
   -2.6052   -3.5385   -1.2876 H   0  0  0  0  0  0  0  0  0  0  0  0
   -2.5497   -4.9095    0.7787 H   0  0  0  0  0  0  0  0  0  0  0  0
   -2.0941   -3.8259    2.9657 H   0  0  0  0  0  0  0  0  0  0  0  0
   -1.6891   -1.4119    3.0998 H   0  0  0  0  0  0  0  0  0  0  0  0
   -0.2708    1.8180    1.8295 H   0  0  0  0  0  0  0  0  0  0  0  0
   -0.7055    0.5548    2.9145 H   0  0  0  0  0  0  0  0  0  0  0  0
    0.7878   -1.0362    1.6053 H   0  0  0  0  0  0  0  0  0  0  0  0
    2.7251    0.2965    2.0316 H   0  0  0  0  0  0  0  0  0  0  0  0
    0.7314    0.0564   -0.6708 H   0  0  0  0  0  0  0  0  0  0  0  0
    1.4299    1.5196    0.0418 H   0  0  0  0  0  0  0  0  0  0  0  0
    2.0541   -1.9001   -0.9276 H   0  0  0  0  0  0  0  0  0  0  0  0
    2.7489   -2.0604    0.7030 H   0  0  0  0  0  0  0  0  0  0  0  0
    4.9518   -2.0061   -0.1150 H   0  0  0  0  0  0  0  0  0  0  0  0
    4.1790   -2.5903   -1.5976 H   0  0  0  0  0  0  0  0  0  0  0  0
    5.4537   -0.0162   -1.0781 H   0  0  0  0  0  0  0  0  0  0  0  0
    4.7833   -0.5774   -2.6182 H   0  0  0  0  0  0  0  0  0  0  0  0
    3.6435    1.5011   -1.2449 H   0  0  0  0  0  0  0  0  0  0  0  0
    2.6594    0.3483   -2.1799 H   0  0  0  0  0  0  0  0  0  0  0  0
  1  2  2  0
  2  3  1  0
  2  4  1  0
  4  5  2  0
  5  6  1  0
  6  7  2  0
  7  8  1  0
  8  9  1  0
  9 10  2  0
  9 11  1  0
 11 12  2  0
 12 13  1  0
 13 14  2  0
 14 15  1  0
 15 16  2  0
 16 17  1  0
 17 18  1  0
 18 19  1  0
 19 20  1  0
 19 21  1  0
 21 22  1  0
 22 23  1  0
 23 24  1  0
 24 25  1  0
 25 26  1  0
 17 27  1  0
 27  4  1  0
 27  8  2  0
 16 11  1  0
 26 22  1  0
  3 28  1  0
  5 29  1  0
  6 30  1  0
  7 31  1  0
 12 32  1  0
 13 33  1  0
 14 34  1  0
 15 35  1  0
 18 36  1  0
 18 37  1  0
 19 38  1  0
 20 39  1  0
 21 40  1  0
 21 41  1  0
 23 42  1  0
 23 43  1  0
 24 44  1  0
 24 45  1  0
 25 46  1  0
 25 47  1  0
 26 48  1  0
 26 49  1  0
M  END
$$$$
