
     RDKit          3D

 29 29  0  0  0  0  0  0  0  0999 V2000
   -4.5774   -1.1052    1.8181 C   0  0  0  0  0  0  0  0  0  0  0  0
   -4.1042   -1.5657    0.8145 C   0  0  0  0  0  0  0  0  0  0  0  0
   -3.5378   -2.1337   -0.4154 C   0  0  0  0  0  0  0  0  0  0  0  0
   -2.0772   -2.0317   -0.4541 N   0  0  0  0  0  0  0  0  0  0  0  0
   -1.6072   -0.6518   -0.6286 C   0  0  0  0  0  0  0  0  0  0  0  0
   -0.8935   -0.1783    0.6396 C   0  0  0  0  0  0  0  0  0  0  0  0
   -0.4354    1.2749    0.5239 C   0  0  0  0  0  0  0  0  0  0  0  0
    0.4091    1.4815   -0.6068 O   0  0  0  0  0  0  0  0  0  0  0  0
    1.7543    1.2513   -0.5077 C   0  0  0  0  0  0  0  0  0  0  0  0
    2.4036    0.7726    0.6343 C   0  0  0  0  0  0  0  0  0  0  0  0
    3.7883    0.5687    0.6295 C   0  0  0  0  0  0  0  0  0  0  0  0
    4.5306    0.8410   -0.5168 C   0  0  0  0  0  0  0  0  0  0  0  0
    6.2317    0.5870   -0.5126 Cl  0  0  0  0  0  0  0  0  0  0  0  0
    3.9043    1.3142   -1.6638 C   0  0  0  0  0  0  0  0  0  0  0  0
    2.5219    1.5164   -1.6570 C   0  0  0  0  0  0  0  0  0  0  0  0
    1.7876    2.1007   -3.1118 Cl  0  0  0  0  0  0  0  0  0  0  0  0
   -4.9933   -0.7008    2.7117 H   0  0  0  0  0  0  0  0  0  0  0  0
   -3.9829   -1.6688   -1.3029 H   0  0  0  0  0  0  0  0  0  0  0  0
   -3.8020   -3.1968   -0.4584 H   0  0  0  0  0  0  0  0  0  0  0  0
   -1.7544   -2.5820   -1.2495 H   0  0  0  0  0  0  0  0  0  0  0  0
   -2.4166    0.0363   -0.9017 H   0  0  0  0  0  0  0  0  0  0  0  0
   -0.8992   -0.6380   -1.4662 H   0  0  0  0  0  0  0  0  0  0  0  0
   -0.0312   -0.8298    0.8230 H   0  0  0  0  0  0  0  0  0  0  0  0
   -1.5542   -0.2652    1.5093 H   0  0  0  0  0  0  0  0  0  0  0  0
   -1.3168    1.9088    0.3684 H   0  0  0  0  0  0  0  0  0  0  0  0
    0.0223    1.6370    1.4512 H   0  0  0  0  0  0  0  0  0  0  0  0
    1.8663    0.5387    1.5475 H   0  0  0  0  0  0  0  0  0  0  0  0
    4.2789    0.1945    1.5252 H   0  0  0  0  0  0  0  0  0  0  0  0
    4.4843    1.5241   -2.5580 H   0  0  0  0  0  0  0  0  0  0  0  0
  1  2  3  0
  2  3  1  0
  3  4  1  0
  4  5  1  0
  5  6  1  0
  6  7  1  0
  7  8  1  0
  8  9  1  0
  9 10  2  0
 10 11  1  0
 11 12  2  0
 12 13  1  0
 12 14  1  0
 14 15  2  0
 15 16  1  0
 15  9  1  0
  1 17  1  0
  3 18  1  0
  3 19  1  0
  4 20  1  0
  5 21  1  0
  5 22  1  0
  6 23  1  0
  6 24  1  0
  7 25  1  0
  7 26  1  0
 10 27  1  0
 11 28  1  0
 14 29  1  0
M  END
$$$$
