
     RDKit          3D

 48 52  0  0  0  0  0  0  0  0999 V2000
   -4.3873   -0.4317   -1.5461 C   0  0  0  0  0  0  0  0  0  0  0  0
   -2.9471   -0.3156   -1.5810 N   0  0  0  0  0  0  0  0  0  0  0  0
   -2.2246    0.5991   -0.8672 C   0  0  0  0  0  0  0  0  0  0  0  0
   -0.8743    0.4065   -1.1184 C   0  0  0  0  0  0  0  0  0  0  0  0
    0.3229    1.1639   -0.5896 C   0  0  0  0  0  0  0  0  0  0  0  0
   -0.1261    2.3290    0.2934 C   0  0  0  0  0  0  0  0  0  0  0  0
    0.0430    3.6357   -0.1785 C   0  0  0  0  0  0  0  0  0  0  0  0
   -0.3576    4.7096    0.6137 C   0  0  0  0  0  0  0  0  0  0  0  0
   -0.9179    4.4652    1.8597 C   0  0  0  0  0  0  0  0  0  0  0  0
   -1.0608    3.1503    2.2619 C   0  0  0  0  0  0  0  0  0  0  0  0
   -0.6901    2.0911    1.5120 N   0  0  0  0  0  0  0  0  0  0  0  0
    1.3313    0.3625    0.1993 C   0  0  0  0  0  0  0  0  0  0  0  0
    2.7085    0.4669    0.0604 C   0  0  0  0  0  0  0  0  0  0  0  0
    3.3051   -0.4221    0.9104 N   0  0  0  0  0  0  0  0  0  0  0  0
    4.7333   -0.5950    1.0509 C   0  0  0  0  0  0  0  0  0  0  0  0
    2.3542   -1.1296    1.6099 C   0  0  0  0  0  0  0  0  0  0  0  0
    2.4877   -2.1428    2.5745 C   0  0  0  0  0  0  0  0  0  0  0  0
    1.3251   -2.6846    3.1282 C   0  0  0  0  0  0  0  0  0  0  0  0
    0.0715   -2.2295    2.7369 C   0  0  0  0  0  0  0  0  0  0  0  0
   -0.0488   -1.2199    1.7762 C   0  0  0  0  0  0  0  0  0  0  0  0
    1.1060   -0.6550    1.1922 C   0  0  0  0  0  0  0  0  0  0  0  0
   -0.8052   -0.6808   -2.0632 C   0  0  0  0  0  0  0  0  0  0  0  0
    0.2622   -1.3418   -2.7103 C   0  0  0  0  0  0  0  0  0  0  0  0
   -0.0017   -2.3899   -3.5983 C   0  0  0  0  0  0  0  0  0  0  0  0
   -1.3097   -2.7885   -3.8514 C   0  0  0  0  0  0  0  0  0  0  0  0
   -2.3861   -2.1554   -3.2245 C   0  0  0  0  0  0  0  0  0  0  0  0
   -2.1091   -1.1049   -2.3344 C   0  0  0  0  0  0  0  0  0  0  0  0
   -4.6454   -1.4365   -1.2019 H   0  0  0  0  0  0  0  0  0  0  0  0
   -4.7731   -0.2560   -2.5536 H   0  0  0  0  0  0  0  0  0  0  0  0
   -4.7997    0.3108   -0.8581 H   0  0  0  0  0  0  0  0  0  0  0  0
   -2.7196    1.3108   -0.2180 H   0  0  0  0  0  0  0  0  0  0  0  0
    0.8411    1.5737   -1.4693 H   0  0  0  0  0  0  0  0  0  0  0  0
    0.4826    3.8217   -1.1534 H   0  0  0  0  0  0  0  0  0  0  0  0
   -0.2295    5.7284    0.2598 H   0  0  0  0  0  0  0  0  0  0  0  0
   -1.2345    5.2780    2.5026 H   0  0  0  0  0  0  0  0  0  0  0  0
   -1.4902    2.9016    3.2277 H   0  0  0  0  0  0  0  0  0  0  0  0
    3.2990    1.1089   -0.5798 H   0  0  0  0  0  0  0  0  0  0  0  0
    5.2543    0.0972    0.3845 H   0  0  0  0  0  0  0  0  0  0  0  0
    4.9852   -1.6245    0.7838 H   0  0  0  0  0  0  0  0  0  0  0  0
    5.0073   -0.3850    2.0879 H   0  0  0  0  0  0  0  0  0  0  0  0
    3.4624   -2.5008    2.8880 H   0  0  0  0  0  0  0  0  0  0  0  0
    1.4026   -3.4692    3.8763 H   0  0  0  0  0  0  0  0  0  0  0  0
   -0.8252   -2.6549    3.1785 H   0  0  0  0  0  0  0  0  0  0  0  0
   -1.0338   -0.8649    1.4880 H   0  0  0  0  0  0  0  0  0  0  0  0
    1.2894   -1.0498   -2.5125 H   0  0  0  0  0  0  0  0  0  0  0  0
    0.8246   -2.8987   -4.0874 H   0  0  0  0  0  0  0  0  0  0  0  0
   -1.4984   -3.6072   -4.5414 H   0  0  0  0  0  0  0  0  0  0  0  0
   -3.4034   -2.4758   -3.4231 H   0  0  0  0  0  0  0  0  0  0  0  0
  1  2  1  0
  2  3  1  0
  3  4  2  0
  4  5  1  0
  5  6  1  0
  6  7  2  0
  7  8  1  0
  8  9  2  0
  9 10  1  0
 10 11  2  0
  5 12  1  0
 12 13  2  0
 13 14  1  0
 14 15  1  0
 14 16  1  0
 16 17  2  0
 17 18  1  0
 18 19  2  0
 19 20  1  0
 20 21  2  0
  4 22  1  0
 22 23  2  0
 23 24  1  0
 24 25  2  0
 25 26  1  0
 26 27  2  0
 27  2  1  0
 11  6  1  0
 21 12  1  0
 27 22  1  0
 21 16  1  0
  1 28  1  0
  1 29  1  0
  1 30  1  0
  3 31  1  0
  5 32  1  0
  7 33  1  0
  8 34  1  0
  9 35  1  0
 10 36  1  0
 13 37  1  0
 15 38  1  0
 15 39  1  0
 15 40  1  0
 17 41  1  0
 18 42  1  0
 19 43  1  0
 20 44  1  0
 23 45  1  0
 24 46  1  0
 25 47  1  0
 26 48  1  0
M  END
$$$$
