
     RDKit          3D

 42 44  0  0  0  0  0  0  0  0999 V2000
   -2.0122    3.8153    1.2369 C   0  0  0  0  0  0  0  0  0  0  0  0
   -2.2426    3.1926   -0.1272 C   0  0  0  0  0  0  0  0  0  0  0  0
   -2.4723    1.7832    0.0050 O   0  0  0  0  0  0  0  0  0  0  0  0
   -1.3578    0.9950    0.0261 C   0  0  0  0  0  0  0  0  0  0  0  0
   -0.2116    1.4235   -0.0558 O   0  0  0  0  0  0  0  0  0  0  0  0
   -1.6733   -0.4245    0.1652 C   0  0  0  0  0  0  0  0  0  0  0  0
   -0.6992   -1.4250    0.2394 C   0  0  0  0  0  0  0  0  0  0  0  0
    0.6715   -1.2416    0.1890 N   0  0  0  0  0  0  0  0  0  0  0  0
    1.6698   -2.1945    0.2571 C   0  0  0  0  0  0  0  0  0  0  0  0
    1.5447   -3.4075    0.3769 O   0  0  0  0  0  0  0  0  0  0  0  0
    3.0082   -1.5779    0.1650 C   0  0  0  0  0  0  0  0  0  0  0  0
    4.2622   -2.2419    0.1955 C   0  0  0  0  0  0  0  0  0  0  0  0
    5.2051   -1.2496    0.0773 C   0  0  0  0  0  0  0  0  0  0  0  0
    4.5088   -0.0817   -0.0176 N   0  0  0  0  0  0  0  0  0  0  0  0
    5.0655    1.2506   -0.1555 C   0  0  0  0  0  0  0  0  0  0  0  0
    5.0683    1.7234   -1.5981 C   0  0  0  0  0  0  0  0  0  0  0  0
    3.1736   -0.2445    0.0357 N   0  0  0  0  0  0  0  0  0  0  0  0
   -1.3703   -2.9954    0.4133 S   0  0  0  0  0  0  0  0  0  0  0  0
   -2.9150   -2.3755    0.3880 C   0  0  0  0  0  0  0  0  0  0  0  0
   -2.9670   -1.0178    0.2496 C   0  0  0  0  0  0  0  0  0  0  0  0
   -4.3765   -0.5442    0.2369 C   0  0  0  0  0  0  0  0  0  0  0  0
   -5.1762   -1.8713    0.0460 C   0  0  0  0  0  0  0  0  0  0  0  0
   -4.2375   -3.0321    0.4922 C   0  0  0  0  0  0  0  0  0  0  0  0
   -1.8959    4.8996    1.1536 H   0  0  0  0  0  0  0  0  0  0  0  0
   -1.1159    3.4033    1.7112 H   0  0  0  0  0  0  0  0  0  0  0  0
   -2.8531    3.6002    1.9044 H   0  0  0  0  0  0  0  0  0  0  0  0
   -1.4109    3.4002   -0.8102 H   0  0  0  0  0  0  0  0  0  0  0  0
   -3.1429    3.6216   -0.5793 H   0  0  0  0  0  0  0  0  0  0  0  0
    1.0116   -0.2817    0.0864 H   0  0  0  0  0  0  0  0  0  0  0  0
    4.4333   -3.3054    0.2916 H   0  0  0  0  0  0  0  0  0  0  0  0
    6.2853   -1.2799    0.0514 H   0  0  0  0  0  0  0  0  0  0  0  0
    4.4731    1.9233    0.4745 H   0  0  0  0  0  0  0  0  0  0  0  0
    6.0858    1.2293    0.2424 H   0  0  0  0  0  0  0  0  0  0  0  0
    5.5008    2.7261   -1.6687 H   0  0  0  0  0  0  0  0  0  0  0  0
    5.6566    1.0511   -2.2318 H   0  0  0  0  0  0  0  0  0  0  0  0
    4.0520    1.7604   -2.0045 H   0  0  0  0  0  0  0  0  0  0  0  0
   -4.5848    0.1548   -0.5776 H   0  0  0  0  0  0  0  0  0  0  0  0
   -4.6319   -0.0774    1.1939 H   0  0  0  0  0  0  0  0  0  0  0  0
   -6.1236   -1.8679    0.5938 H   0  0  0  0  0  0  0  0  0  0  0  0
   -5.4129   -1.9937   -1.0193 H   0  0  0  0  0  0  0  0  0  0  0  0
   -4.4487   -3.3208    1.5269 H   0  0  0  0  0  0  0  0  0  0  0  0
   -4.3439   -3.9018   -0.1618 H   0  0  0  0  0  0  0  0  0  0  0  0
  1  2  1  0
  2  3  1  0
  3  4  1  0
  4  5  2  0
  4  6  1  0
  6  7  2  0
  7  8  1  0
  8  9  1  0
  9 10  2  0
  9 11  1  0
 11 12  1  0
 12 13  2  0
 13 14  1  0
 14 15  1  0
 15 16  1  0
 14 17  1  0
  7 18  1  0
 18 19  1  0
 19 20  2  0
 20 21  1  0
 21 22  1  0
 22 23  1  0
 20  6  1  0
 17 11  2  0
 23 19  1  0
  1 24  1  0
  1 25  1  0
  1 26  1  0
  2 27  1  0
  2 28  1  0
  8 29  1  0
 12 30  1  0
 13 31  1  0
 15 32  1  0
 15 33  1  0
 16 34  1  0
 16 35  1  0
 16 36  1  0
 21 37  1  0
 21 38  1  0
 22 39  1  0
 22 40  1  0
 23 41  1  0
 23 42  1  0
M  END
$$$$
