
     RDKit          3D

 61 66  0  0  0  0  0  0  0  0999 V2000
   -3.7960    1.1928   -3.4267 C   0  0  0  0  0  0  0  0  0  0  0  0
   -2.5773    0.3175   -3.7237 C   0  0  0  0  0  0  0  0  0  0  0  0
   -1.3078    1.1669   -3.8086 C   0  0  0  0  0  0  0  0  0  0  0  0
   -2.5286   -0.9227   -2.8340 C   0  0  0  0  0  0  0  0  0  0  0  0
   -3.2776   -2.0301   -3.2948 C   0  0  0  0  0  0  0  0  0  0  0  0
   -3.2687   -3.2628   -2.6357 C   0  0  0  0  0  0  0  0  0  0  0  0
   -2.5047   -3.4331   -1.4894 C   0  0  0  0  0  0  0  0  0  0  0  0
   -1.7676   -2.3638   -0.9926 C   0  0  0  0  0  0  0  0  0  0  0  0
   -1.7950   -1.1137   -1.6463 C   0  0  0  0  0  0  0  0  0  0  0  0
   -1.0711   -0.0807   -1.0162 N   0  0  0  0  0  0  0  0  0  0  0  0
    0.3029    0.0240   -0.9202 C   0  0  0  0  0  0  0  0  0  0  0  0
    1.4246   -1.0416   -1.7083 S   0  0  0  0  0  0  0  0  0  0  0  0
    2.8861   -0.8615   -0.6271 C   0  0  0  0  0  0  0  0  0  0  0  0
    2.7234   -1.4687    0.7522 C   0  0  0  0  0  0  0  0  0  0  0  0
    2.0084   -2.5913    0.9463 C   0  0  0  0  0  0  0  0  0  0  0  0
    1.5744   -3.0641    2.2634 C   0  0  0  0  0  0  0  0  0  0  0  0
    0.9943   -4.1358    2.3855 O   0  0  0  0  0  0  0  0  0  0  0  0
    1.7574   -2.1867    3.3087 O   0  0  0  0  0  0  0  0  0  0  0  0
    2.6387   -1.0953    3.1742 C   0  0  0  0  0  0  0  0  0  0  0  0
    2.8877   -0.4062    4.3559 C   0  0  0  0  0  0  0  0  0  0  0  0
    3.8216    0.6171    4.3564 C   0  0  0  0  0  0  0  0  0  0  0  0
    4.5613    0.9047    3.2044 C   0  0  0  0  0  0  0  0  0  0  0  0
    5.5557    1.8945    3.2775 C   0  0  0  0  0  0  0  0  0  0  0  0
    6.3752    2.1747    2.1895 C   0  0  0  0  0  0  0  0  0  0  0  0
    6.2224    1.4496    1.0204 C   0  0  0  0  0  0  0  0  0  0  0  0
    5.2269    0.4702    0.9310 C   0  0  0  0  0  0  0  0  0  0  0  0
    4.3274    0.1882    1.9935 C   0  0  0  0  0  0  0  0  0  0  0  0
    3.2630   -0.7755    1.9574 C   0  0  0  0  0  0  0  0  0  0  0  0
    0.6292    1.0793   -0.2163 N   0  0  0  0  0  0  0  0  0  0  0  0
   -0.5311    1.6656    0.2091 N   0  0  0  0  0  0  0  0  0  0  0  0
   -1.5629    0.9499   -0.2168 C   0  0  0  0  0  0  0  0  0  0  0  0
   -2.9527    1.2556    0.1353 C   0  0  0  0  0  0  0  0  0  0  0  0
   -3.3166    2.5864    0.3849 C   0  0  0  0  0  0  0  0  0  0  0  0
   -4.6276    2.9100    0.7301 C   0  0  0  0  0  0  0  0  0  0  0  0
   -5.5496    1.8845    0.8274 C   0  0  0  0  0  0  0  0  0  0  0  0
   -5.2456    0.5882    0.6139 N   0  0  0  0  0  0  0  0  0  0  0  0
   -3.9584    0.3052    0.2846 C   0  0  0  0  0  0  0  0  0  0  0  0
   -3.9159    1.9574   -4.2023 H   0  0  0  0  0  0  0  0  0  0  0  0
   -3.6987    1.7133   -2.4728 H   0  0  0  0  0  0  0  0  0  0  0  0
   -4.7193    0.6039   -3.3964 H   0  0  0  0  0  0  0  0  0  0  0  0
   -2.7124   -0.0571   -4.7499 H   0  0  0  0  0  0  0  0  0  0  0  0
   -1.1519    1.7790   -2.9170 H   0  0  0  0  0  0  0  0  0  0  0  0
   -1.3782    1.8629   -4.6530 H   0  0  0  0  0  0  0  0  0  0  0  0
   -0.4225    0.5440   -3.9720 H   0  0  0  0  0  0  0  0  0  0  0  0
   -3.8777   -1.9428   -4.2012 H   0  0  0  0  0  0  0  0  0  0  0  0
   -3.8552   -4.0908   -3.0273 H   0  0  0  0  0  0  0  0  0  0  0  0
   -2.4924   -4.3922   -0.9770 H   0  0  0  0  0  0  0  0  0  0  0  0
   -1.1980   -2.5094   -0.0754 H   0  0  0  0  0  0  0  0  0  0  0  0
    3.0827    0.2126   -0.5809 H   0  0  0  0  0  0  0  0  0  0  0  0
    3.7292   -1.3409   -1.1355 H   0  0  0  0  0  0  0  0  0  0  0  0
    1.6169   -3.1851    0.1281 H   0  0  0  0  0  0  0  0  0  0  0  0
    2.3628   -0.6711    5.2693 H   0  0  0  0  0  0  0  0  0  0  0  0
    4.0020    1.1584    5.2831 H   0  0  0  0  0  0  0  0  0  0  0  0
    5.7125    2.4516    4.1996 H   0  0  0  0  0  0  0  0  0  0  0  0
    7.1441    2.9385    2.2660 H   0  0  0  0  0  0  0  0  0  0  0  0
    6.8809    1.6334    0.1752 H   0  0  0  0  0  0  0  0  0  0  0  0
    5.2039   -0.1002    0.0096 H   0  0  0  0  0  0  0  0  0  0  0  0
   -2.5752    3.3806    0.3098 H   0  0  0  0  0  0  0  0  0  0  0  0
   -4.9171    3.9374    0.9208 H   0  0  0  0  0  0  0  0  0  0  0  0
   -6.5844    2.0822    1.0924 H   0  0  0  0  0  0  0  0  0  0  0  0
   -3.7781   -0.7571    0.1617 H   0  0  0  0  0  0  0  0  0  0  0  0
  1  2  1  0
  2  3  1  0
  2  4  1  0
  4  5  2  0
  5  6  1  0
  6  7  2  0
  7  8  1  0
  8  9  2  0
  9 10  1  0
 10 11  1  0
 11 12  1  0
 12 13  1  0
 13 14  1  0
 14 15  2  0
 15 16  1  0
 16 17  2  0
 16 18  1  0
 18 19  1  0
 19 20  2  0
 20 21  1  0
 21 22  2  0
 22 23  1  0
 23 24  2  0
 24 25  1  0
 25 26  2  0
 26 27  1  0
 27 28  2  0
 11 29  2  0
 29 30  1  0
 30 31  2  0
 31 32  1  0
 32 33  2  0
 33 34  1  0
 34 35  2  0
 35 36  1  0
 36 37  2  0
  9  4  1  0
 31 10  1  0
 37 32  1  0
 28 14  1  0
 28 19  1  0
 27 22  1  0
  1 38  1  0
  1 39  1  0
  1 40  1  0
  2 41  1  0
  3 42  1  0
  3 43  1  0
  3 44  1  0
  5 45  1  0
  6 46  1  0
  7 47  1  0
  8 48  1  0
 13 49  1  0
 13 50  1  0
 15 51  1  0
 20 52  1  0
 21 53  1  0
 23 54  1  0
 24 55  1  0
 25 56  1  0
 26 57  1  0
 33 58  1  0
 34 59  1  0
 35 60  1  0
 37 61  1  0
M  END
$$$$
