
     RDKit          3D

 39 41  0  0  0  0  0  0  0  0999 V2000
    1.5845    1.3050   -3.6645 O   0  0  0  0  0  0  0  0  0  0  0  0
    1.5804    0.8050   -2.5437 C   0  0  0  0  0  0  0  0  0  0  0  0
    2.8713    0.4277   -1.9096 C   0  0  0  0  0  0  0  0  0  0  0  0
    3.0920    0.4311   -0.5858 C   0  0  0  0  0  0  0  0  0  0  0  0
    4.3830    0.0871    0.0271 C   0  0  0  0  0  0  0  0  0  0  0  0
    4.3868   -0.5823    1.2590 C   0  0  0  0  0  0  0  0  0  0  0  0
    5.5910   -0.9066    1.8909 C   0  0  0  0  0  0  0  0  0  0  0  0
    6.7997   -0.5518    1.2974 C   0  0  0  0  0  0  0  0  0  0  0  0
    8.4288   -0.9883    2.1503 Br  0  0  0  0  0  0  0  0  0  0  0  0
    6.8147    0.1290    0.0827 C   0  0  0  0  0  0  0  0  0  0  0  0
    5.6087    0.4521   -0.5472 C   0  0  0  0  0  0  0  0  0  0  0  0
    0.2972    0.5760   -1.8387 C   0  0  0  0  0  0  0  0  0  0  0  0
    0.0525   -0.5954   -1.1168 C   0  0  0  0  0  0  0  0  0  0  0  0
   -1.1819   -0.7783   -0.4843 C   0  0  0  0  0  0  0  0  0  0  0  0
   -2.1860    0.1959   -0.5732 C   0  0  0  0  0  0  0  0  0  0  0  0
   -3.3948   -0.0700    0.0944 N   0  0  0  0  0  0  0  0  0  0  0  0
   -4.5267    0.7227    0.1764 C   0  0  0  0  0  0  0  0  0  0  0  0
   -4.6586    1.8314   -0.3307 O   0  0  0  0  0  0  0  0  0  0  0  0
   -5.5853    0.0992    0.9520 C   0  0  0  0  0  0  0  0  0  0  0  0
   -6.8560    0.5370    1.2750 C   0  0  0  0  0  0  0  0  0  0  0  0
   -7.4550   -0.4834    2.0514 C   0  0  0  0  0  0  0  0  0  0  0  0
   -6.5173   -1.4827    2.1592 C   0  0  0  0  0  0  0  0  0  0  0  0
   -5.3801   -1.1442    1.4977 O   0  0  0  0  0  0  0  0  0  0  0  0
   -1.9403    1.3533   -1.3148 C   0  0  0  0  0  0  0  0  0  0  0  0
   -0.7079    1.5397   -1.9524 C   0  0  0  0  0  0  0  0  0  0  0  0
    3.6567    0.2075   -2.6258 H   0  0  0  0  0  0  0  0  0  0  0  0
    2.3046    0.6980    0.1152 H   0  0  0  0  0  0  0  0  0  0  0  0
    3.4514   -0.8645    1.7378 H   0  0  0  0  0  0  0  0  0  0  0  0
    5.5731   -1.4305    2.8428 H   0  0  0  0  0  0  0  0  0  0  0  0
    7.7546    0.4188   -0.3799 H   0  0  0  0  0  0  0  0  0  0  0  0
    5.6434    1.0034   -1.4844 H   0  0  0  0  0  0  0  0  0  0  0  0
    0.8022   -1.3799   -1.0529 H   0  0  0  0  0  0  0  0  0  0  0  0
   -1.3496   -1.6978    0.0719 H   0  0  0  0  0  0  0  0  0  0  0  0
   -3.4684   -0.9534    0.5883 H   0  0  0  0  0  0  0  0  0  0  0  0
   -7.2866    1.4837    0.9766 H   0  0  0  0  0  0  0  0  0  0  0  0
   -8.4477   -0.4897    2.4797 H   0  0  0  0  0  0  0  0  0  0  0  0
   -6.5069   -2.4485    2.6456 H   0  0  0  0  0  0  0  0  0  0  0  0
   -2.6889    2.1317   -1.4282 H   0  0  0  0  0  0  0  0  0  0  0  0
   -0.5389    2.4413   -2.5386 H   0  0  0  0  0  0  0  0  0  0  0  0
  1  2  2  0
  2  3  1  0
  3  4  2  3
  4  5  1  0
  5  6  2  0
  6  7  1  0
  7  8  2  0
  8  9  1  0
  8 10  1  0
 10 11  2  0
  2 12  1  0
 12 13  2  0
 13 14  1  0
 14 15  2  0
 15 16  1  0
 16 17  1  0
 17 18  2  0
 17 19  1  0
 19 20  2  0
 20 21  1  0
 21 22  2  0
 22 23  1  0
 15 24  1  0
 24 25  2  0
 11  5  1  0
 25 12  1  0
 23 19  1  0
  3 26  1  0
  4 27  1  0
  6 28  1  0
  7 29  1  0
 10 30  1  0
 11 31  1  0
 13 32  1  0
 14 33  1  0
 16 34  1  0
 20 35  1  0
 21 36  1  0
 22 37  1  0
 24 38  1  0
 25 39  1  0
M  END
$$$$
