
     RDKit          3D

 32 33  0  0  0  0  0  0  0  0999 V2000
   -5.3277    0.2774    0.3914 C   0  0  0  0  0  0  0  0  0  0  0  0
   -3.8420    0.1649    0.2132 C   0  0  0  0  0  0  0  0  0  0  0  0
   -3.1450   -0.9296    0.7395 C   0  0  0  0  0  0  0  0  0  0  0  0
   -1.7644   -1.0479    0.5515 C   0  0  0  0  0  0  0  0  0  0  0  0
   -0.9591   -2.4041    1.2588 Cl  0  0  0  0  0  0  0  0  0  0  0  0
   -1.0664   -0.0879   -0.1922 C   0  0  0  0  0  0  0  0  0  0  0  0
    0.2936   -0.1887   -0.3411 O   0  0  0  0  0  0  0  0  0  0  0  0
    0.6334   -0.9454   -1.5044 C   0  0  0  0  0  0  0  0  0  0  0  0
    2.1071   -1.3424   -1.4374 C   0  0  0  0  0  0  0  0  0  0  0  0
    3.0606   -0.1453   -1.4106 C   0  0  0  0  0  0  0  0  0  0  0  0
    3.2585    0.4400   -0.1008 N   0  0  0  0  0  0  0  0  0  0  0  0
    3.9967   -0.0979    0.9172 C   0  0  0  0  0  0  0  0  0  0  0  0
    3.9586    0.8442    1.9184 C   0  0  0  0  0  0  0  0  0  0  0  0
    3.2373    1.9419    1.5271 N   0  0  0  0  0  0  0  0  0  0  0  0
    2.8258    1.6684    0.3089 C   0  0  0  0  0  0  0  0  0  0  0  0
   -1.7578    1.0143   -0.7066 C   0  0  0  0  0  0  0  0  0  0  0  0
   -0.8728    2.3940   -1.6649 Br  0  0  0  0  0  0  0  0  0  0  0  0
   -3.1394    1.1315   -0.5178 C   0  0  0  0  0  0  0  0  0  0  0  0
   -5.6444   -0.1832    1.3330 H   0  0  0  0  0  0  0  0  0  0  0  0
   -5.6390    1.3268    0.4228 H   0  0  0  0  0  0  0  0  0  0  0  0
   -5.8419   -0.2201   -0.4366 H   0  0  0  0  0  0  0  0  0  0  0  0
   -3.6774   -1.6893    1.3085 H   0  0  0  0  0  0  0  0  0  0  0  0
    0.0289   -1.8584   -1.5772 H   0  0  0  0  0  0  0  0  0  0  0  0
    0.4532   -0.3454   -2.4040 H   0  0  0  0  0  0  0  0  0  0  0  0
    2.2747   -1.9773   -0.5593 H   0  0  0  0  0  0  0  0  0  0  0  0
    2.3320   -1.9455   -2.3251 H   0  0  0  0  0  0  0  0  0  0  0  0
    4.0540   -0.4672   -1.7471 H   0  0  0  0  0  0  0  0  0  0  0  0
    2.7292    0.6432   -2.0960 H   0  0  0  0  0  0  0  0  0  0  0  0
    4.4674   -1.0683    0.8526 H   0  0  0  0  0  0  0  0  0  0  0  0
    4.4175    0.7935    2.8970 H   0  0  0  0  0  0  0  0  0  0  0  0
    2.2213    2.3179   -0.3100 H   0  0  0  0  0  0  0  0  0  0  0  0
   -3.6724    1.9860   -0.9309 H   0  0  0  0  0  0  0  0  0  0  0  0
  1  2  1  0
  2  3  2  0
  3  4  1  0
  4  5  1  0
  4  6  2  0
  6  7  1  0
  7  8  1  0
  8  9  1  0
  9 10  1  0
 10 11  1  0
 11 12  1  0
 12 13  2  0
 13 14  1  0
 14 15  2  0
  6 16  1  0
 16 17  1  0
 16 18  2  0
 18  2  1  0
 15 11  1  0
  1 19  1  0
  1 20  1  0
  1 21  1  0
  3 22  1  0
  8 23  1  0
  8 24  1  0
  9 25  1  0
  9 26  1  0
 10 27  1  0
 10 28  1  0
 12 29  1  0
 13 30  1  0
 15 31  1  0
 18 32  1  0
M  END
$$$$
