
     RDKit          3D

 19 19  0  0  0  0  0  0  0  0999 V2000
   -2.9607   -0.8482   -0.7271 C   0  0  0  0  0  0  0  0  0  0  0  0
   -2.2187    0.2663   -0.2477 O   0  0  0  0  0  0  0  0  0  0  0  0
   -0.8649    0.1158   -0.1045 C   0  0  0  0  0  0  0  0  0  0  0  0
   -0.1576   -1.0487   -0.4128 C   0  0  0  0  0  0  0  0  0  0  0  0
    1.2296   -1.1050   -0.2289 C   0  0  0  0  0  0  0  0  0  0  0  0
    1.9300   -0.0220    0.3024 C   0  0  0  0  0  0  0  0  0  0  0  0
    3.3254   -0.0475    0.3663 N   0  0  0  0  0  0  0  0  0  0  0  0
    1.2340    1.1601    0.5533 C   0  0  0  0  0  0  0  0  0  0  0  0
   -0.1570    1.2293    0.3731 C   0  0  0  0  0  0  0  0  0  0  0  0
   -0.8273    2.4615    0.6778 C   0  0  0  0  0  0  0  0  0  0  0  0
   -1.3295    3.4754    0.9400 N   0  0  0  0  0  0  0  0  0  0  0  0
   -2.8772   -1.7009   -0.0453 H   0  0  0  0  0  0  0  0  0  0  0  0
   -4.0144   -0.5559   -0.7669 H   0  0  0  0  0  0  0  0  0  0  0  0
   -2.6520   -1.1197   -1.7419 H   0  0  0  0  0  0  0  0  0  0  0  0
   -0.6487   -1.9304   -0.8119 H   0  0  0  0  0  0  0  0  0  0  0  0
    1.7601   -2.0127   -0.5079 H   0  0  0  0  0  0  0  0  0  0  0  0
    3.7240   -0.9759    0.4689 H   0  0  0  0  0  0  0  0  0  0  0  0
    3.7302    0.6175    1.0187 H   0  0  0  0  0  0  0  0  0  0  0  0
    1.7747    2.0411    0.8942 H   0  0  0  0  0  0  0  0  0  0  0  0
  1  2  1  0
  2  3  1  0
  3  4  2  0
  4  5  1  0
  5  6  2  0
  6  7  1  0
  6  8  1  0
  8  9  2  0
  9 10  1  0
 10 11  3  0
  9  3  1  0
  1 12  1  0
  1 13  1  0
  1 14  1  0
  4 15  1  0
  5 16  1  0
  7 17  1  0
  7 18  1  0
  8 19  1  0
M  END
$$$$
