
     RDKit          3D

 62 65  0  0  0  0  0  0  0  0999 V2000
   -4.2059   -3.0065   -0.2311 C   0  0  0  0  0  0  0  0  0  0  0  0
   -4.2454   -1.6871   -0.9871 C   0  0  0  0  0  0  0  0  0  0  0  0
   -3.8280   -0.5821   -0.1319 N   0  0  0  0  0  0  0  0  0  0  0  0
   -2.5288   -0.0878    0.0983 C   0  0  0  0  0  0  0  0  0  0  0  0
   -1.4134   -0.5634   -0.4953 C   0  0  0  0  0  0  0  0  0  0  0  0
   -0.0457   -0.1101   -0.3361 C   0  0  0  0  0  0  0  0  0  0  0  0
    0.9773   -0.6763   -0.9923 C   0  0  0  0  0  0  0  0  0  0  0  0
    2.4068   -0.2756   -0.8875 C   0  0  0  0  0  0  0  0  0  0  0  0
    3.3618   -0.8058   -1.6014 N   0  0  0  0  0  4  0  0  0  0  0  0
    3.2975   -1.8171   -2.6780 C   0  0  0  0  0  0  0  0  0  0  0  0
    3.4686   -3.2057   -2.0940 C   0  0  0  0  0  0  0  0  0  0  0  0
    4.6606   -0.2247   -1.2190 C   0  0  0  0  0  0  0  0  0  0  0  0
    5.9243   -0.5223   -1.7010 C   0  0  0  0  0  0  0  0  0  0  0  0
    7.0064    0.1772   -1.1598 C   0  0  0  0  0  0  0  0  0  0  0  0
    6.8063    1.1433   -0.1613 C   0  0  0  0  0  0  0  0  0  0  0  0
    5.5239    1.4231    0.3145 C   0  0  0  0  0  0  0  0  0  0  0  0
    4.4552    0.7239   -0.2274 C   0  0  0  0  0  0  0  0  0  0  0  0
    2.9802    0.8060    0.0863 C   0  0  0  0  0  0  0  0  0  0  0  0
    2.4746    2.2134   -0.2508 C   0  0  0  0  0  0  0  0  0  0  0  0
    2.7497    0.4380    1.5551 C   0  0  0  0  0  0  0  0  0  0  0  0
   -2.6356    1.0786    1.1422 C   0  0  0  0  0  0  0  0  0  0  0  0
   -1.8781    0.7838    2.4459 C   0  0  0  0  0  0  0  0  0  0  0  0
   -2.2416    2.4372    0.5441 C   0  0  0  0  0  0  0  0  0  0  0  0
   -4.1323    1.0818    1.4362 C   0  0  0  0  0  0  0  0  0  0  0  0
   -4.8492    1.8913    2.3112 C   0  0  0  0  0  0  0  0  0  0  0  0
   -6.2245    1.6947    2.4208 C   0  0  0  0  0  0  0  0  0  0  0  0
   -6.8595    0.7025    1.6639 C   0  0  0  0  0  0  0  0  0  0  0  0
   -6.1277   -0.1049    0.7855 C   0  0  0  0  0  0  0  0  0  0  0  0
   -4.7597    0.0878    0.6699 C   0  0  0  0  0  0  0  0  0  0  0  0
   -4.8736   -2.9930    0.6357 H   0  0  0  0  0  0  0  0  0  0  0  0
   -3.1949   -3.2247    0.1292 H   0  0  0  0  0  0  0  0  0  0  0  0
   -4.5171   -3.8262   -0.8865 H   0  0  0  0  0  0  0  0  0  0  0  0
   -3.5919   -1.7575   -1.8643 H   0  0  0  0  0  0  0  0  0  0  0  0
   -5.2477   -1.5194   -1.3999 H   0  0  0  0  0  0  0  0  0  0  0  0
   -1.5391   -1.3920   -1.1891 H   0  0  0  0  0  0  0  0  0  0  0  0
    0.1076    0.7169    0.3388 H   0  0  0  0  0  0  0  0  0  0  0  0
    0.7542   -1.5088   -1.6557 H   0  0  0  0  0  0  0  0  0  0  0  0
    4.0625   -1.5966   -3.4281 H   0  0  0  0  0  0  0  0  0  0  0  0
    2.3321   -1.7251   -3.1835 H   0  0  0  0  0  0  0  0  0  0  0  0
    2.6893   -3.4313   -1.3585 H   0  0  0  0  0  0  0  0  0  0  0  0
    3.4078   -3.9567   -2.8882 H   0  0  0  0  0  0  0  0  0  0  0  0
    4.4378   -3.3208   -1.5978 H   0  0  0  0  0  0  0  0  0  0  0  0
    6.1091   -1.2674   -2.4671 H   0  0  0  0  0  0  0  0  0  0  0  0
    8.0183   -0.0250   -1.5103 H   0  0  0  0  0  0  0  0  0  0  0  0
    7.6633    1.6789    0.2482 H   0  0  0  0  0  0  0  0  0  0  0  0
    5.3837    2.1715    1.0909 H   0  0  0  0  0  0  0  0  0  0  0  0
    1.4223    2.3510    0.0071 H   0  0  0  0  0  0  0  0  0  0  0  0
    3.0353    2.9841    0.2913 H   0  0  0  0  0  0  0  0  0  0  0  0
    2.5737    2.4264   -1.3221 H   0  0  0  0  0  0  0  0  0  0  0  0
    3.0655   -0.5918    1.7623 H   0  0  0  0  0  0  0  0  0  0  0  0
    1.6979    0.5140    1.8403 H   0  0  0  0  0  0  0  0  0  0  0  0
    3.3107    1.0963    2.2286 H   0  0  0  0  0  0  0  0  0  0  0  0
   -0.7950    0.7680    2.3046 H   0  0  0  0  0  0  0  0  0  0  0  0
   -2.0842    1.5453    3.2073 H   0  0  0  0  0  0  0  0  0  0  0  0
   -2.1696   -0.1855    2.8687 H   0  0  0  0  0  0  0  0  0  0  0  0
   -2.7750    2.6318   -0.3936 H   0  0  0  0  0  0  0  0  0  0  0  0
   -2.4794    3.2598    1.2285 H   0  0  0  0  0  0  0  0  0  0  0  0
   -1.1714    2.5006    0.3309 H   0  0  0  0  0  0  0  0  0  0  0  0
   -4.3590    2.6588    2.9008 H   0  0  0  0  0  0  0  0  0  0  0  0
   -6.8092    2.3125    3.0983 H   0  0  0  0  0  0  0  0  0  0  0  0
   -7.9335    0.5588    1.7607 H   0  0  0  0  0  0  0  0  0  0  0  0
   -6.6484   -0.8661    0.2166 H   0  0  0  0  0  0  0  0  0  0  0  0
  1  2  1  0
  2  3  1  0
  3  4  1  0
  4  5  2  3
  5  6  1  0
  6  7  2  3
  7  8  1  0
  8  9  2  0
  9 10  1  0
 10 11  1  0
  9 12  1  0
 12 13  2  0
 13 14  1  0
 14 15  2  0
 15 16  1  0
 16 17  2  0
 17 18  1  0
 18 19  1  0
 18 20  1  0
  4 21  1  0
 21 22  1  0
 21 23  1  0
 21 24  1  0
 24 25  2  0
 25 26  1  0
 26 27  2  0
 27 28  1  0
 28 29  2  0
 29  3  1  0
 18  8  1  0
 29 24  1  0
 17 12  1  0
  1 30  1  0
  1 31  1  0
  1 32  1  0
  2 33  1  0
  2 34  1  0
  5 35  1  0
  6 36  1  0
  7 37  1  0
 10 38  1  0
 10 39  1  0
 11 40  1  0
 11 41  1  0
 11 42  1  0
 13 43  1  0
 14 44  1  0
 15 45  1  0
 16 46  1  0
 19 47  1  0
 19 48  1  0
 19 49  1  0
 20 50  1  0
 20 51  1  0
 20 52  1  0
 22 53  1  0
 22 54  1  0
 22 55  1  0
 23 56  1  0
 23 57  1  0
 23 58  1  0
 25 59  1  0
 26 60  1  0
 27 61  1  0
 28 62  1  0
M  CHG  1   9   1
M  END
$$$$
