
     RDKit          3D

 44 45  0  0  0  0  0  0  0  0999 V2000
    8.6860    0.5512   -0.1548 C   0  0  0  0  0  0  0  0  0  0  0  0
    7.6285    1.1440   -1.0673 C   0  0  0  0  0  0  0  0  0  0  0  0
    6.3496    0.5545   -0.7902 O   0  0  0  0  0  0  0  0  0  0  0  0
    5.6266    1.1479    0.1900 C   0  0  0  0  0  0  0  0  0  0  0  0
    5.9656    2.1194    0.8481 O   0  0  0  0  0  0  0  0  0  0  0  0
    4.3188    0.4568    0.3648 C   0  0  0  0  0  0  0  0  0  0  0  0
    3.3963    1.0052    1.2697 C   0  0  0  0  0  0  0  0  0  0  0  0
    2.1512    0.4020    1.4655 C   0  0  0  0  0  0  0  0  0  0  0  0
    1.8273   -0.7540    0.7503 C   0  0  0  0  0  0  0  0  0  0  0  0
    0.2502   -1.5248    1.0059 S   0  0  0  0  0  6  0  0  0  0  0  0
   -0.1706   -1.2589    2.3668 O   0  0  0  0  0  0  0  0  0  0  0  0
    0.2870   -2.8550    0.4458 O   0  0  0  0  0  0  0  0  0  0  0  0
   -0.7467   -0.5605   -0.0297 N   0  0  0  0  0  0  0  0  0  0  0  0
   -2.0321   -0.3069    0.5782 N   0  0  0  0  0  0  0  0  0  0  0  0
   -3.1342   -1.6052    0.2588 S   0  0  0  0  0  6  0  0  0  0  0  0
   -3.2225   -2.3958    1.4642 O   0  0  0  0  0  0  0  0  0  0  0  0
   -2.7463   -2.1748   -1.0171 O   0  0  0  0  0  0  0  0  0  0  0  0
   -4.6475   -0.7103    0.0458 C   0  0  0  0  0  0  0  0  0  0  0  0
   -5.5061   -0.5375    1.1338 C   0  0  0  0  0  0  0  0  0  0  0  0
   -6.7072    0.1512    0.9576 C   0  0  0  0  0  0  0  0  0  0  0  0
   -7.0554    0.6637   -0.3004 C   0  0  0  0  0  0  0  0  0  0  0  0
   -8.3588    1.3862   -0.4777 C   0  0  0  0  0  0  0  0  0  0  0  0
   -6.1931    0.4643   -1.3876 C   0  0  0  0  0  0  0  0  0  0  0  0
   -4.9908   -0.2248   -1.2185 C   0  0  0  0  0  0  0  0  0  0  0  0
    2.7434   -1.3232   -0.1397 C   0  0  0  0  0  0  0  0  0  0  0  0
    3.9870   -0.7137   -0.3336 C   0  0  0  0  0  0  0  0  0  0  0  0
    8.7042   -0.5400   -0.2429 H   0  0  0  0  0  0  0  0  0  0  0  0
    8.4715    0.7809    0.8927 H   0  0  0  0  0  0  0  0  0  0  0  0
    9.6773    0.9430   -0.4020 H   0  0  0  0  0  0  0  0  0  0  0  0
    7.8676    0.9112   -2.1100 H   0  0  0  0  0  0  0  0  0  0  0  0
    7.5913    2.2366   -0.9821 H   0  0  0  0  0  0  0  0  0  0  0  0
    3.6452    1.9088    1.8235 H   0  0  0  0  0  0  0  0  0  0  0  0
    1.4453    0.8415    2.1676 H   0  0  0  0  0  0  0  0  0  0  0  0
   -0.8500   -1.0821   -0.9201 H   0  0  0  0  0  0  0  0  0  0  0  0
   -1.9522   -0.2297    1.6091 H   0  0  0  0  0  0  0  0  0  0  0  0
   -5.2549   -0.9349    2.1153 H   0  0  0  0  0  0  0  0  0  0  0  0
   -7.3744    0.2860    1.8064 H   0  0  0  0  0  0  0  0  0  0  0  0
   -9.1933    0.6822   -0.3902 H   0  0  0  0  0  0  0  0  0  0  0  0
   -8.4194    1.8677   -1.4583 H   0  0  0  0  0  0  0  0  0  0  0  0
   -8.4657    2.1682    0.2825 H   0  0  0  0  0  0  0  0  0  0  0  0
   -6.4555    0.8414   -2.3733 H   0  0  0  0  0  0  0  0  0  0  0  0
   -4.3363   -0.3812   -2.0725 H   0  0  0  0  0  0  0  0  0  0  0  0
    2.5028   -2.2350   -0.6838 H   0  0  0  0  0  0  0  0  0  0  0  0
    4.6904   -1.1656   -1.0313 H   0  0  0  0  0  0  0  0  0  0  0  0
  1  2  1  0
  2  3  1  0
  3  4  1  0
  4  5  2  0
  4  6  1  0
  6  7  2  0
  7  8  1  0
  8  9  2  0
  9 10  1  0
 10 11  2  0
 10 12  2  0
 10 13  1  0
 13 14  1  0
 14 15  1  0
 15 16  2  0
 15 17  2  0
 15 18  1  0
 18 19  2  0
 19 20  1  0
 20 21  2  0
 21 22  1  0
 21 23  1  0
 23 24  2  0
  9 25  1  0
 25 26  2  0
 26  6  1  0
 24 18  1  0
  1 27  1  0
  1 28  1  0
  1 29  1  0
  2 30  1  0
  2 31  1  0
  7 32  1  0
  8 33  1  0
 13 34  1  0
 14 35  1  0
 19 36  1  0
 20 37  1  0
 22 38  1  0
 22 39  1  0
 22 40  1  0
 23 41  1  0
 24 42  1  0
 25 43  1  0
 26 44  1  0
M  END
$$$$
