
     RDKit          3D

 29 30  0  0  0  0  0  0  0  0999 V2000
   -3.0122   -1.8249    0.0719 C   0  0  0  0  0  0  0  0  0  0  0  0
   -2.1157   -0.6625   -0.2486 C   0  0  0  0  0  0  0  0  0  0  0  0
   -1.2168   -0.0983    0.5831 C   0  0  0  0  0  0  0  0  0  0  0  0
   -1.0250   -0.4992    2.0224 C   0  0  0  0  0  0  0  0  0  0  0  0
   -0.3179    1.0326    0.1181 C   0  0  0  0  0  0  0  0  0  0  0  0
    1.1566    0.6608    0.1010 C   0  0  0  0  0  0  0  0  0  0  0  0
    2.0570    1.2971    0.9708 C   0  0  0  0  0  0  0  0  0  0  0  0
    3.4119    0.9592    0.9637 C   0  0  0  0  0  0  0  0  0  0  0  0
    3.8842   -0.0168    0.0886 C   0  0  0  0  0  0  0  0  0  0  0  0
    3.0037   -0.6569   -0.7806 C   0  0  0  0  0  0  0  0  0  0  0  0
    1.6491   -0.3214   -0.7750 C   0  0  0  0  0  0  0  0  0  0  0  0
   -0.7174    1.5387   -1.1786 N   0  0  0  0  0  0  0  0  0  0  0  0
   -1.5741    0.9094   -2.0140 C   0  0  0  0  0  0  0  0  0  0  0  0
   -1.8187    1.4491   -3.5663 S   0  0  0  0  0  0  0  0  0  0  0  0
   -2.2386   -0.1699   -1.5265 N   0  0  0  0  0  0  0  0  0  0  0  0
   -3.0217   -2.5405   -0.7583 H   0  0  0  0  0  0  0  0  0  0  0  0
   -2.6921   -2.3834    0.9548 H   0  0  0  0  0  0  0  0  0  0  0  0
   -4.0374   -1.4771    0.2348 H   0  0  0  0  0  0  0  0  0  0  0  0
   -0.9473    0.3905    2.6571 H   0  0  0  0  0  0  0  0  0  0  0  0
   -0.1090   -1.0868    2.1385 H   0  0  0  0  0  0  0  0  0  0  0  0
   -1.8581   -1.0842    2.4197 H   0  0  0  0  0  0  0  0  0  0  0  0
   -0.4639    1.8841    0.7954 H   0  0  0  0  0  0  0  0  0  0  0  0
    1.7096    2.0619    1.6620 H   0  0  0  0  0  0  0  0  0  0  0  0
    4.1001    1.4586    1.6409 H   0  0  0  0  0  0  0  0  0  0  0  0
    4.9391   -0.2781    0.0828 H   0  0  0  0  0  0  0  0  0  0  0  0
    3.3705   -1.4172   -1.4653 H   0  0  0  0  0  0  0  0  0  0  0  0
    0.9731   -0.8291   -1.4607 H   0  0  0  0  0  0  0  0  0  0  0  0
   -0.1890    2.3069   -1.5692 H   0  0  0  0  0  0  0  0  0  0  0  0
   -2.9002   -0.6026   -2.1624 H   0  0  0  0  0  0  0  0  0  0  0  0
  1  2  1  0
  2  3  2  0
  3  4  1  0
  3  5  1  0
  5  6  1  0
  6  7  2  0
  7  8  1  0
  8  9  2  0
  9 10  1  0
 10 11  2  0
  5 12  1  0
 12 13  1  0
 13 14  2  0
 13 15  1  0
 15  2  1  0
 11  6  1  0
  1 16  1  0
  1 17  1  0
  1 18  1  0
  4 19  1  0
  4 20  1  0
  4 21  1  0
  5 22  1  0
  7 23  1  0
  8 24  1  0
  9 25  1  0
 10 26  1  0
 11 27  1  0
 12 28  1  0
 15 29  1  0
M  END
$$$$
