
     RDKit          3D

 53 54  0  0  0  0  0  0  0  0999 V2000
   -6.8742    0.4054   -0.3804 C   0  0  0  0  0  0  0  0  0  0  0  0
   -5.3720    0.1816   -0.4501 C   0  0  0  0  0  0  0  0  0  0  0  0
   -5.0090   -1.1035    0.1927 N   0  0  0  0  0  0  0  0  0  0  0  0
   -5.0820   -1.1081    1.6742 C   0  0  0  0  0  0  0  0  0  0  0  0
   -6.1639   -2.0748    2.1243 C   0  0  0  0  0  0  0  0  0  0  0  0
   -3.7571   -2.0074   -0.5254 S   0  0  0  0  0  6  0  0  0  0  0  0
   -3.9647   -2.0232   -1.9579 O   0  0  0  0  0  0  0  0  0  0  0  0
   -3.5952   -3.2373    0.2205 O   0  0  0  0  0  0  0  0  0  0  0  0
   -2.3082   -1.0078   -0.2204 C   0  0  0  0  0  0  0  0  0  0  0  0
   -1.5041   -1.2690    0.8926 C   0  0  0  0  0  0  0  0  0  0  0  0
   -0.3506   -0.5090    1.1050 C   0  0  0  0  0  0  0  0  0  0  0  0
    0.0142    0.4977    0.1980 C   0  0  0  0  0  0  0  0  0  0  0  0
    1.2566    1.2726    0.4701 C   0  0  0  0  0  0  0  0  0  0  0  0
    1.9181    1.1454    1.4901 O   0  0  0  0  0  0  0  0  0  0  0  0
    1.5420    2.0880   -0.5733 O   0  0  0  0  0  0  0  0  0  0  0  0
    2.6910    2.9241   -0.4091 C   0  0  0  0  0  0  0  0  0  0  0  0
    4.0103    2.3018   -0.8717 C   0  0  0  0  0  0  0  0  0  0  0  0
    5.0947    2.7542   -0.5154 O   0  0  0  0  0  0  0  0  0  0  0  0
    3.8753    1.2524   -1.7558 N   0  0  0  0  0  0  0  0  0  0  0  0
    5.0215    0.5070   -2.2566 C   0  0  0  0  0  0  0  0  0  0  0  0
    5.3710   -0.7350   -1.4182 C   0  0  0  0  0  0  0  0  0  0  0  0
    5.8588   -0.4148   -0.0909 N   0  0  0  0  0  0  0  0  0  0  0  0
    5.0518   -0.3112    1.0134 C   0  0  0  0  0  0  0  0  0  0  0  0
    3.7337   -0.6327    0.8979 O   0  0  0  0  0  0  0  0  0  0  0  0
    5.6651    0.1377    2.1138 C   0  0  0  0  0  0  0  0  0  0  0  0
    7.3482    0.4508    1.8120 S   0  0  0  0  0  0  0  0  0  0  0  0
    7.1693   -0.0084    0.1071 C   0  0  0  0  0  0  0  0  0  0  0  0
    8.0751    0.0326   -0.7103 O   0  0  0  0  0  0  0  0  0  0  0  0
   -0.7881    0.7357   -0.9286 C   0  0  0  0  0  0  0  0  0  0  0  0
   -1.9437   -0.0218   -1.1429 C   0  0  0  0  0  0  0  0  0  0  0  0
   -7.4174   -0.4350   -0.8245 H   0  0  0  0  0  0  0  0  0  0  0  0
   -7.1464    1.3155   -0.9241 H   0  0  0  0  0  0  0  0  0  0  0  0
   -7.2164    0.5198    0.6526 H   0  0  0  0  0  0  0  0  0  0  0  0
   -5.0868    0.1814   -1.5066 H   0  0  0  0  0  0  0  0  0  0  0  0
   -4.8394    1.0089    0.0320 H   0  0  0  0  0  0  0  0  0  0  0  0
   -4.1261   -1.3967    2.1200 H   0  0  0  0  0  0  0  0  0  0  0  0
   -5.3008   -0.1050    2.0567 H   0  0  0  0  0  0  0  0  0  0  0  0
   -5.9514   -3.0940    1.7859 H   0  0  0  0  0  0  0  0  0  0  0  0
   -6.2322   -2.0863    3.2165 H   0  0  0  0  0  0  0  0  0  0  0  0
   -7.1423   -1.7895    1.7250 H   0  0  0  0  0  0  0  0  0  0  0  0
   -1.7603   -2.0639    1.5908 H   0  0  0  0  0  0  0  0  0  0  0  0
    0.2677   -0.7168    1.9770 H   0  0  0  0  0  0  0  0  0  0  0  0
    2.7955    3.2506    0.6322 H   0  0  0  0  0  0  0  0  0  0  0  0
    2.5251    3.8191   -1.0180 H   0  0  0  0  0  0  0  0  0  0  0  0
    2.9503    0.8625   -1.8866 H   0  0  0  0  0  0  0  0  0  0  0  0
    4.7607    0.1907   -3.2721 H   0  0  0  0  0  0  0  0  0  0  0  0
    5.8840    1.1791   -2.3245 H   0  0  0  0  0  0  0  0  0  0  0  0
    4.5079   -1.4067   -1.3433 H   0  0  0  0  0  0  0  0  0  0  0  0
    6.1622   -1.2875   -1.9396 H   0  0  0  0  0  0  0  0  0  0  0  0
    3.2473   -0.1270    1.5835 H   0  0  0  0  0  0  0  0  0  0  0  0
    5.2059    0.2996    3.0775 H   0  0  0  0  0  0  0  0  0  0  0  0
   -0.5256    1.5030   -1.6538 H   0  0  0  0  0  0  0  0  0  0  0  0
   -2.5453    0.1550   -2.0327 H   0  0  0  0  0  0  0  0  0  0  0  0
  1  2  1  0
  2  3  1  0
  3  4  1  0
  4  5  1  0
  3  6  1  0
  6  7  2  0
  6  8  2  0
  6  9  1  0
  9 10  2  0
 10 11  1  0
 11 12  2  0
 12 13  1  0
 13 14  2  0
 13 15  1  0
 15 16  1  0
 16 17  1  0
 17 18  2  0
 17 19  1  0
 19 20  1  0
 20 21  1  0
 21 22  1  0
 22 23  1  0
 23 24  1  0
 23 25  2  0
 25 26  1  0
 26 27  1  0
 27 28  2  0
 12 29  1  0
 29 30  2  0
 30  9  1  0
 27 22  1  0
  1 31  1  0
  1 32  1  0
  1 33  1  0
  2 34  1  0
  2 35  1  0
  4 36  1  0
  4 37  1  0
  5 38  1  0
  5 39  1  0
  5 40  1  0
 10 41  1  0
 11 42  1  0
 16 43  1  0
 16 44  1  0
 19 45  1  0
 20 46  1  0
 20 47  1  0
 21 48  1  0
 21 49  1  0
 24 50  1  0
 25 51  1  0
 29 52  1  0
 30 53  1  0
M  END
$$$$
