
     RDKit          3D

 74 75  0  0  0  0  0  0  0  0999 V2000
    0.1978    5.7920    0.6911 C   0  0  0  0  0  0  0  0  0  0  0  0
    0.1931    4.4899    0.1185 O   0  0  0  0  0  0  0  0  0  0  0  0
   -0.7680    3.6136    0.5484 C   0  0  0  0  0  0  0  0  0  0  0  0
   -1.9527    4.0388    1.1610 C   0  0  0  0  0  0  0  0  0  0  0  0
   -2.8852    3.1143    1.6241 C   0  0  0  0  0  0  0  0  0  0  0  0
   -2.6500    1.7506    1.4727 C   0  0  0  0  0  0  0  0  0  0  0  0
   -1.4827    1.2836    0.8393 C   0  0  0  0  0  0  0  0  0  0  0  0
   -1.2449   -0.2163    0.6126 C   0  0  0  0  0  0  0  0  0  0  0  0
   -2.5031   -1.1267    0.7640 C   0  0  0  0  0  0  0  0  0  0  0  0
   -2.6442   -1.9526    1.6622 O   0  0  0  0  0  0  0  0  0  0  0  0
   -3.4558   -0.9195   -0.2282 N   0  0  0  0  0  0  0  0  0  0  0  0
   -4.7722   -1.5700   -0.2854 C   0  0  0  0  0  0  0  0  0  0  0  0
   -5.4501   -1.1412   -1.6010 C   0  0  0  0  0  0  0  0  0  0  0  0
   -4.6483   -3.1019   -0.2986 C   0  0  0  0  0  0  0  0  0  0  0  0
   -5.6446   -1.1100    0.8922 C   0  0  0  0  0  0  0  0  0  0  0  0
   -0.0170   -0.8046    1.2369 N   0  0  0  0  0  0  0  0  0  0  0  0
    0.8920   -1.5365    0.4457 C   0  0  0  0  0  0  0  0  0  0  0  0
    1.9279   -2.0440    0.8870 O   0  0  0  0  0  0  0  0  0  0  0  0
    0.5780   -1.7235   -1.0350 C   0  0  0  0  0  0  0  0  0  0  0  0
    1.6105   -2.5887   -1.7483 C   0  0  0  0  0  0  0  0  0  0  0  0
    2.8352   -1.7658   -2.0919 C   0  0  0  0  0  0  0  0  0  0  0  0
    2.8242   -0.9952   -3.0514 O   0  0  0  0  0  0  0  0  0  0  0  0
    3.8844   -1.9760   -1.2280 N   0  0  0  0  0  0  0  0  0  0  0  0
    5.1539   -1.4641   -1.3799 C   0  0  0  0  0  0  0  0  0  0  0  0
    5.6626   -0.6119   -2.3905 C   0  0  0  0  0  0  0  0  0  0  0  0
    6.9875   -0.4477   -2.0708 C   0  0  0  0  0  0  0  0  0  0  0  0
    8.1083    0.2934   -2.6751 C   0  0  0  0  0  0  0  0  0  0  0  0
    7.2638   -1.1578   -0.9417 O   0  0  0  0  0  0  0  0  0  0  0  0
    6.1141   -1.7892   -0.5012 N   0  0  0  0  0  0  0  0  0  0  0  0
    0.2450   -0.7229    2.7290 C   0  0  0  0  0  0  0  0  0  0  0  0
   -0.8230    0.0246    3.5638 C   0  0  0  0  0  0  0  0  0  0  0  0
    1.5728    0.0314    2.9896 C   0  0  0  0  0  0  0  0  0  0  0  0
    0.3322   -2.1409    3.3508 C   0  0  0  0  0  0  0  0  0  0  0  0
   -0.5519    2.2338    0.3466 C   0  0  0  0  0  0  0  0  0  0  0  0
    0.5462    1.6835   -0.2711 O   0  0  0  0  0  0  0  0  0  0  0  0
    1.1587    2.4196   -1.3231 C   0  0  0  0  0  0  0  0  0  0  0  0
    1.1395    6.2750    0.4136 H   0  0  0  0  0  0  0  0  0  0  0  0
   -0.6141    6.3988    0.2776 H   0  0  0  0  0  0  0  0  0  0  0  0
    0.1493    5.7549    1.7844 H   0  0  0  0  0  0  0  0  0  0  0  0
   -2.1784    5.0921    1.2958 H   0  0  0  0  0  0  0  0  0  0  0  0
   -3.7957    3.4574    2.1108 H   0  0  0  0  0  0  0  0  0  0  0  0
   -3.3890    1.0588    1.8766 H   0  0  0  0  0  0  0  0  0  0  0  0
   -1.1036   -0.2396   -0.4718 H   0  0  0  0  0  0  0  0  0  0  0  0
   -3.3553   -0.0740   -0.7807 H   0  0  0  0  0  0  0  0  0  0  0  0
   -6.4489   -1.5769   -1.7038 H   0  0  0  0  0  0  0  0  0  0  0  0
   -5.5500   -0.0508   -1.6562 H   0  0  0  0  0  0  0  0  0  0  0  0
   -4.8528   -1.4526   -2.4681 H   0  0  0  0  0  0  0  0  0  0  0  0
   -5.6219   -3.5737   -0.4669 H   0  0  0  0  0  0  0  0  0  0  0  0
   -3.9694   -3.4326   -1.0954 H   0  0  0  0  0  0  0  0  0  0  0  0
   -4.2588   -3.4937    0.6463 H   0  0  0  0  0  0  0  0  0  0  0  0
   -5.2136   -1.3958    1.8555 H   0  0  0  0  0  0  0  0  0  0  0  0
   -6.6468   -1.5473    0.8366 H   0  0  0  0  0  0  0  0  0  0  0  0
   -5.7558   -0.0205    0.8942 H   0  0  0  0  0  0  0  0  0  0  0  0
   -0.3922   -2.2261   -1.1130 H   0  0  0  0  0  0  0  0  0  0  0  0
    0.5325   -0.7482   -1.5274 H   0  0  0  0  0  0  0  0  0  0  0  0
    1.8853   -3.4748   -1.1673 H   0  0  0  0  0  0  0  0  0  0  0  0
    1.1961   -2.9568   -2.6942 H   0  0  0  0  0  0  0  0  0  0  0  0
    3.7355   -2.4926   -0.3648 H   0  0  0  0  0  0  0  0  0  0  0  0
    5.1402   -0.1753   -3.2327 H   0  0  0  0  0  0  0  0  0  0  0  0
    8.7123    0.7767   -1.9029 H   0  0  0  0  0  0  0  0  0  0  0  0
    8.7500   -0.3903   -3.2388 H   0  0  0  0  0  0  0  0  0  0  0  0
    7.7461    1.0687   -3.3562 H   0  0  0  0  0  0  0  0  0  0  0  0
   -0.6152   -0.0691    4.6379 H   0  0  0  0  0  0  0  0  0  0  0  0
   -1.8295   -0.3696    3.4087 H   0  0  0  0  0  0  0  0  0  0  0  0
   -0.8231    1.0977    3.3616 H   0  0  0  0  0  0  0  0  0  0  0  0
    1.7565    0.1423    4.0658 H   0  0  0  0  0  0  0  0  0  0  0  0
    2.4460   -0.4801    2.5747 H   0  0  0  0  0  0  0  0  0  0  0  0
    1.5434    1.0355    2.5495 H   0  0  0  0  0  0  0  0  0  0  0  0
    0.4602   -2.0882    4.4395 H   0  0  0  0  0  0  0  0  0  0  0  0
   -0.5753   -2.7182    3.1430 H   0  0  0  0  0  0  0  0  0  0  0  0
    1.1809   -2.7210    2.9793 H   0  0  0  0  0  0  0  0  0  0  0  0
    0.4297    2.9465   -1.9485 H   0  0  0  0  0  0  0  0  0  0  0  0
    1.6754    1.6988   -1.9648 H   0  0  0  0  0  0  0  0  0  0  0  0
    1.9157    3.1026   -0.9230 H   0  0  0  0  0  0  0  0  0  0  0  0
  1  2  1  0
  2  3  1  0
  3  4  2  0
  4  5  1  0
  5  6  2  0
  6  7  1  0
  7  8  1  0
  8  9  1  0
  9 10  2  0
  9 11  1  0
 11 12  1  0
 12 13  1  0
 12 14  1  0
 12 15  1  0
  8 16  1  0
 16 17  1  0
 17 18  2  0
 17 19  1  0
 19 20  1  0
 20 21  1  0
 21 22  2  0
 21 23  1  0
 23 24  1  0
 24 25  1  0
 25 26  2  0
 26 27  1  0
 26 28  1  0
 28 29  1  0
 16 30  1  0
 30 31  1  0
 30 32  1  0
 30 33  1  0
  7 34  2  0
 34 35  1  0
 35 36  1  0
 34  3  1  0
 29 24  2  0
  1 37  1  0
  1 38  1  0
  1 39  1  0
  4 40  1  0
  5 41  1  0
  6 42  1  0
  8 43  1  0
 11 44  1  0
 13 45  1  0
 13 46  1  0
 13 47  1  0
 14 48  1  0
 14 49  1  0
 14 50  1  0
 15 51  1  0
 15 52  1  0
 15 53  1  0
 19 54  1  0
 19 55  1  0
 20 56  1  0
 20 57  1  0
 23 58  1  0
 25 59  1  0
 27 60  1  0
 27 61  1  0
 27 62  1  0
 31 63  1  0
 31 64  1  0
 31 65  1  0
 32 66  1  0
 32 67  1  0
 32 68  1  0
 33 69  1  0
 33 70  1  0
 33 71  1  0
 36 72  1  0
 36 73  1  0
 36 74  1  0
M  END
$$$$
