
     RDKit          3D

 47 50  0  0  0  0  0  0  0  0999 V2000
   -8.2589   -0.9193   -2.5773 C   0  0  0  0  0  0  0  0  0  0  0  0
   -7.1608   -0.7899   -1.6709 O   0  0  0  0  0  0  0  0  0  0  0  0
   -7.5301   -0.6753   -0.3701 C   0  0  0  0  0  0  0  0  0  0  0  0
   -8.6763   -0.6649    0.0532 O   0  0  0  0  0  0  0  0  0  0  0  0
   -6.3417   -0.5093    0.5143 C   0  0  0  0  0  0  0  0  0  0  0  0
   -6.5695   -0.2005    1.8601 C   0  0  0  0  0  0  0  0  0  0  0  0
   -5.4954   -0.0248    2.7282 C   0  0  0  0  0  0  0  0  0  0  0  0
   -4.1798   -0.1497    2.2664 C   0  0  0  0  0  0  0  0  0  0  0  0
   -3.9289   -0.4414    0.9175 C   0  0  0  0  0  0  0  0  0  0  0  0
   -2.6073   -0.5836    0.4054 N   0  0  0  0  0  0  0  0  0  0  0  0
   -2.4004   -1.2218   -0.7796 N   0  0  0  0  0  0  0  0  0  0  0  0
   -1.0892   -1.3555   -0.9129 N   0  0  0  0  0  0  0  0  0  0  0  0
   -0.4245   -0.7578    0.1203 N   0  0  0  0  0  0  0  0  0  0  0  0
   -1.3508   -0.2351    0.8924 C   0  0  0  0  0  0  0  0  0  0  0  0
   -1.0155    0.8322    2.2123 S   0  0  0  0  0  0  0  0  0  0  0  0
    0.6642    0.3325    2.6583 C   0  0  0  0  0  0  0  0  0  0  0  0
    1.7124    1.0363    1.8037 C   0  0  0  0  0  0  0  0  0  0  0  0
    1.9480    2.2317    1.9660 O   0  0  0  0  0  0  0  0  0  0  0  0
    2.3409    0.1888    0.9172 N   0  0  0  0  0  0  0  0  0  0  0  0
    3.5305    0.4200    0.2686 C   0  0  0  0  0  0  0  0  0  0  0  0
    4.0125   -0.4417   -0.6010 N   0  0  0  0  0  0  0  0  0  0  0  0
    5.2471   -0.0069   -1.0421 C   0  0  0  0  0  0  0  0  0  0  0  0
    5.7186    1.1291   -0.4205 C   0  0  0  0  0  0  0  0  0  0  0  0
    4.5508    1.7358    0.6565 S   0  0  0  0  0  0  0  0  0  0  0  0
    7.0485    1.7567   -0.6666 C   0  0  0  0  0  0  0  0  0  0  0  0
    7.6011    1.2774   -2.0164 C   0  0  0  0  0  0  0  0  0  0  0  0
    7.4580   -0.2487   -2.1801 C   0  0  0  0  0  0  0  0  0  0  0  0
    5.9868   -0.7078   -2.1232 C   0  0  0  0  0  0  0  0  0  0  0  0
   -5.0233   -0.6391    0.0467 C   0  0  0  0  0  0  0  0  0  0  0  0
   -8.7569    0.0472   -2.6854 H   0  0  0  0  0  0  0  0  0  0  0  0
   -8.9622   -1.6823   -2.2395 H   0  0  0  0  0  0  0  0  0  0  0  0
   -7.8577   -1.2310   -3.5455 H   0  0  0  0  0  0  0  0  0  0  0  0
   -7.5871   -0.0942    2.2333 H   0  0  0  0  0  0  0  0  0  0  0  0
   -5.6803    0.2090    3.7766 H   0  0  0  0  0  0  0  0  0  0  0  0
   -3.3924   -0.0387    3.0037 H   0  0  0  0  0  0  0  0  0  0  0  0
    0.8471    0.6242    3.7005 H   0  0  0  0  0  0  0  0  0  0  0  0
    0.7773   -0.7550    2.6230 H   0  0  0  0  0  0  0  0  0  0  0  0
    1.8909   -0.6756    0.6375 H   0  0  0  0  0  0  0  0  0  0  0  0
    7.7381    1.4665    0.1345 H   0  0  0  0  0  0  0  0  0  0  0  0
    6.9815    2.8461   -0.6555 H   0  0  0  0  0  0  0  0  0  0  0  0
    8.6563    1.5614   -2.0969 H   0  0  0  0  0  0  0  0  0  0  0  0
    7.0658    1.7751   -2.8315 H   0  0  0  0  0  0  0  0  0  0  0  0
    8.0290   -0.7349   -1.3759 H   0  0  0  0  0  0  0  0  0  0  0  0
    7.8986   -0.5631   -3.1353 H   0  0  0  0  0  0  0  0  0  0  0  0
    5.5055   -0.4668   -3.0766 H   0  0  0  0  0  0  0  0  0  0  0  0
    5.9338   -1.7885   -1.9945 H   0  0  0  0  0  0  0  0  0  0  0  0
   -4.8542   -0.8671   -1.0037 H   0  0  0  0  0  0  0  0  0  0  0  0
  1  2  1  0
  2  3  1  0
  3  4  2  0
  3  5  1  0
  5  6  2  0
  6  7  1  0
  7  8  2  0
  8  9  1  0
  9 10  1  0
 10 11  1  0
 11 12  2  0
 12 13  1  0
 13 14  2  0
 14 15  1  0
 15 16  1  0
 16 17  1  0
 17 18  2  0
 17 19  1  0
 19 20  1  0
 20 21  2  0
 21 22  1  0
 22 23  2  0
 23 24  1  0
 23 25  1  0
 25 26  1  0
 26 27  1  0
 27 28  1  0
  9 29  2  0
 29  5  1  0
 14 10  1  0
 24 20  1  0
 28 22  1  0
  1 30  1  0
  1 31  1  0
  1 32  1  0
  6 33  1  0
  7 34  1  0
  8 35  1  0
 16 36  1  0
 16 37  1  0
 19 38  1  0
 25 39  1  0
 25 40  1  0
 26 41  1  0
 26 42  1  0
 27 43  1  0
 27 44  1  0
 28 45  1  0
 28 46  1  0
 29 47  1  0
M  END
$$$$
