
     RDKit          3D

 36 38  0  0  0  0  0  0  0  0999 V2000
   -5.1121   -0.7549   -1.0889 C   0  0  0  0  0  0  0  0  0  0  0  0
   -4.0238    0.0660   -0.4566 C   0  0  0  0  0  0  0  0  0  0  0  0
   -4.3561    1.1840    0.3296 C   0  0  0  0  0  0  0  0  0  0  0  0
   -3.3607    1.9746    0.9044 C   0  0  0  0  0  0  0  0  0  0  0  0
   -2.0354    1.6404    0.6736 C   0  0  0  0  0  0  0  0  0  0  0  0
   -1.6715    0.5399   -0.1293 C   0  0  0  0  0  0  0  0  0  0  0  0
   -2.6738   -0.2476   -0.6928 C   0  0  0  0  0  0  0  0  0  0  0  0
   -0.2594    0.3386   -0.2563 N   0  0  0  0  0  0  0  0  0  0  0  0
    0.1287   -0.0576   -1.6141 C   0  0  0  0  0  0  0  0  0  0  0  0
    0.4263    1.3120    0.4890 C   0  0  0  0  0  0  0  0  0  0  0  0
    1.7391    1.3797    0.7764 C   0  0  0  0  0  0  0  0  0  0  0  0
    2.7456    0.3845    0.4124 C   0  0  0  0  0  0  0  0  0  0  0  0
    3.7778    0.7572   -0.4586 C   0  0  0  0  0  0  0  0  0  0  0  0
    4.7389   -0.1702   -0.8381 C   0  0  0  0  0  0  0  0  0  0  0  0
    4.6631   -1.4611   -0.3414 C   0  0  0  0  0  0  0  0  0  0  0  0
    3.6381   -1.7958    0.5340 C   0  0  0  0  0  0  0  0  0  0  0  0
    2.7097   -0.8837    0.9116 N   0  0  0  0  0  4  0  0  0  0  0  0
    1.6766   -1.3078    1.8829 C   0  0  0  0  0  0  0  0  0  0  0  0
   -0.6133    2.5227    1.2842 S   0  0  0  0  0  0  0  0  0  0  0  0
   -6.0130   -0.7552   -0.4664 H   0  0  0  0  0  0  0  0  0  0  0  0
   -4.7973   -1.7974   -1.2043 H   0  0  0  0  0  0  0  0  0  0  0  0
   -5.3616   -0.3486   -2.0738 H   0  0  0  0  0  0  0  0  0  0  0  0
   -5.4007    1.4430    0.4973 H   0  0  0  0  0  0  0  0  0  0  0  0
   -3.6251    2.8352    1.5112 H   0  0  0  0  0  0  0  0  0  0  0  0
   -2.4331   -1.1129   -1.3018 H   0  0  0  0  0  0  0  0  0  0  0  0
   -0.2682   -1.0464   -1.8672 H   0  0  0  0  0  0  0  0  0  0  0  0
   -0.2194    0.6714   -2.3556 H   0  0  0  0  0  0  0  0  0  0  0  0
    1.2135   -0.1352   -1.7189 H   0  0  0  0  0  0  0  0  0  0  0  0
    2.1274    2.2060    1.3707 H   0  0  0  0  0  0  0  0  0  0  0  0
    3.8280    1.7709   -0.8543 H   0  0  0  0  0  0  0  0  0  0  0  0
    5.5395    0.1134   -1.5202 H   0  0  0  0  0  0  0  0  0  0  0  0
    5.4041   -2.2042   -0.6297 H   0  0  0  0  0  0  0  0  0  0  0  0
    3.5561   -2.7989    0.9447 H   0  0  0  0  0  0  0  0  0  0  0  0
    2.0590   -2.1512    2.4654 H   0  0  0  0  0  0  0  0  0  0  0  0
    1.4601   -0.4920    2.5756 H   0  0  0  0  0  0  0  0  0  0  0  0
    0.7933   -1.6187    1.3221 H   0  0  0  0  0  0  0  0  0  0  0  0
  1  2  1  0
  2  3  2  0
  3  4  1  0
  4  5  2  0
  5  6  1  0
  6  7  2  0
  6  8  1  0
  8  9  1  0
  8 10  1  0
 10 11  2  3
 11 12  1  0
 12 13  2  0
 13 14  1  0
 14 15  2  0
 15 16  1  0
 16 17  2  0
 17 18  1  0
 10 19  1  0
  7  2  1  0
 17 12  1  0
 19  5  1  0
  1 20  1  0
  1 21  1  0
  1 22  1  0
  3 23  1  0
  4 24  1  0
  7 25  1  0
  9 26  1  0
  9 27  1  0
  9 28  1  0
 11 29  1  0
 13 30  1  0
 14 31  1  0
 15 32  1  0
 16 33  1  0
 18 34  1  0
 18 35  1  0
 18 36  1  0
M  CHG  1  17   1
M  END
$$$$
