
     RDKit          3D

 46 49  0  0  0  0  0  0  0  0999 V2000
   -6.4416    0.1378    0.6789 C   0  0  0  0  0  0  0  0  0  0  0  0
   -5.1568    0.7354    0.8017 O   0  0  0  0  0  0  0  0  0  0  0  0
   -4.1342    0.1528    0.1072 C   0  0  0  0  0  0  0  0  0  0  0  0
   -4.2320   -0.9611   -0.7187 C   0  0  0  0  0  0  0  0  0  0  0  0
   -3.0966   -1.4533   -1.3753 C   0  0  0  0  0  0  0  0  0  0  0  0
   -1.8477   -0.8396   -1.2114 C   0  0  0  0  0  0  0  0  0  0  0  0
   -0.7073   -1.2496   -1.8562 O   0  0  0  0  0  0  0  0  0  0  0  0
   -0.7998   -2.3617   -2.7380 C   0  0  0  0  0  0  0  0  0  0  0  0
   -1.7273    0.2837   -0.3630 C   0  0  0  0  0  0  0  0  0  0  0  0
   -0.4466    0.9659   -0.1240 C   0  0  0  0  0  0  0  0  0  0  0  0
   -0.4554    2.3196   -0.1679 N   0  0  0  0  0  0  0  0  0  0  0  0
    0.7270    2.9348    0.0836 C   0  0  0  0  0  0  0  0  0  0  0  0
    0.7367    4.4229    0.0322 C   0  0  0  0  0  0  0  0  0  0  0  0
   -0.4566    5.0111   -0.2885 N   0  0  0  0  0  0  0  0  0  0  0  0
    1.7439    5.0823    0.2587 O   0  0  0  0  0  0  0  0  0  0  0  0
    1.8598    2.2340    0.3733 C   0  0  0  0  0  0  0  0  0  0  0  0
    3.1556    2.6222    0.6728 N   0  0  0  0  0  0  0  0  0  0  0  0
    3.9252    1.4740    0.9027 C   0  0  0  0  0  0  0  0  0  0  0  0
    5.1122    1.5118    1.1818 O   0  0  0  0  0  0  0  0  0  0  0  0
    3.0514    0.3572    0.7286 N   0  0  0  0  0  0  0  0  0  0  0  0
    3.3825   -1.0192    0.8582 C   0  0  0  0  0  0  0  0  0  0  0  0
    2.5096   -2.0538    0.4747 C   0  0  0  0  0  0  0  0  0  0  0  0
    2.8633   -3.4030    0.6113 C   0  0  0  0  0  0  0  0  0  0  0  0
    4.1034   -3.7397    1.1277 C   0  0  0  0  0  0  0  0  0  0  0  0
    4.4427   -5.0284    1.2556 F   0  0  0  0  0  0  0  0  0  0  0  0
    4.9921   -2.7515    1.5146 C   0  0  0  0  0  0  0  0  0  0  0  0
    4.6316   -1.4042    1.3805 C   0  0  0  0  0  0  0  0  0  0  0  0
    1.7674    0.8641    0.4016 C   0  0  0  0  0  0  0  0  0  0  0  0
    0.6274    0.2062    0.1785 N   0  0  0  0  0  0  0  0  0  0  0  0
   -2.8906    0.7650    0.2745 C   0  0  0  0  0  0  0  0  0  0  0  0
   -6.8013    0.1860   -0.3533 H   0  0  0  0  0  0  0  0  0  0  0  0
   -7.1361    0.7099    1.3009 H   0  0  0  0  0  0  0  0  0  0  0  0
   -6.4360   -0.8934    1.0480 H   0  0  0  0  0  0  0  0  0  0  0  0
   -5.1751   -1.4729   -0.8795 H   0  0  0  0  0  0  0  0  0  0  0  0
   -3.2266   -2.3208   -2.0154 H   0  0  0  0  0  0  0  0  0  0  0  0
   -1.4733   -2.1464   -3.5744 H   0  0  0  0  0  0  0  0  0  0  0  0
   -1.1062   -3.2678   -2.2041 H   0  0  0  0  0  0  0  0  0  0  0  0
    0.1963   -2.5411   -3.1539 H   0  0  0  0  0  0  0  0  0  0  0  0
   -1.2713    4.4416   -0.4903 H   0  0  0  0  0  0  0  0  0  0  0  0
   -0.5127    6.0172   -0.3615 H   0  0  0  0  0  0  0  0  0  0  0  0
    3.4936    3.5765    0.7222 H   0  0  0  0  0  0  0  0  0  0  0  0
    1.5347   -1.8565    0.0415 H   0  0  0  0  0  0  0  0  0  0  0  0
    2.1752   -4.1851    0.3064 H   0  0  0  0  0  0  0  0  0  0  0  0
    5.9628   -3.0249    1.9170 H   0  0  0  0  0  0  0  0  0  0  0  0
    5.3614   -0.6710    1.7114 H   0  0  0  0  0  0  0  0  0  0  0  0
   -2.8246    1.6331    0.9294 H   0  0  0  0  0  0  0  0  0  0  0  0
  1  2  1  0
  2  3  1  0
  3  4  2  0
  4  5  1  0
  5  6  2  0
  6  7  1  0
  7  8  1  0
  6  9  1  0
  9 10  1  0
 10 11  2  0
 11 12  1  0
 12 13  1  0
 13 14  1  0
 13 15  2  0
 12 16  2  0
 16 17  1  0
 17 18  1  0
 18 19  2  0
 18 20  1  0
 20 21  1  0
 21 22  2  0
 22 23  1  0
 23 24  2  0
 24 25  1  0
 24 26  1  0
 26 27  2  0
 20 28  1  0
 28 29  2  0
  9 30  2  0
 30  3  1  0
 29 10  1  0
 28 16  1  0
 27 21  1  0
  1 31  1  0
  1 32  1  0
  1 33  1  0
  4 34  1  0
  5 35  1  0
  8 36  1  0
  8 37  1  0
  8 38  1  0
 14 39  1  0
 14 40  1  0
 17 41  1  0
 22 42  1  0
 23 43  1  0
 26 44  1  0
 27 45  1  0
 30 46  1  0
M  END
$$$$
