
     RDKit          3D

 31 32  0  0  0  0  0  0  0  0999 V2000
   -0.1667   -2.1242    2.3232 C   0  0  0  0  0  0  0  0  0  0  0  0
    1.5858   -2.5808    2.2238 S   0  0  0  0  0  0  0  0  0  0  0  0
    2.1610   -1.4749    0.9437 C   0  0  0  0  0  0  0  0  0  0  0  0
    3.0997   -1.9599    0.0248 C   0  0  0  0  0  0  0  0  0  0  0  0
    3.5841   -1.1408   -0.9978 C   0  0  0  0  0  0  0  0  0  0  0  0
    3.1403    0.1758   -1.1041 C   0  0  0  0  0  0  0  0  0  0  0  0
    2.2250    0.6715   -0.1769 C   0  0  0  0  0  0  0  0  0  0  0  0
    1.7300    2.0061   -0.2932 N   0  0  0  0  0  0  0  0  0  0  0  0
    0.3970    2.2160   -1.3293 S   0  0  0  0  0  6  0  0  0  0  0  0
    0.6536    1.5142   -2.5715 O   0  0  0  0  0  0  0  0  0  0  0  0
    0.0880    3.6314   -1.3319 O   0  0  0  0  0  0  0  0  0  0  0  0
   -1.0351    1.4627   -0.6765 C   0  0  0  0  0  0  0  0  0  0  0  0
   -2.1342    1.0568   -1.4107 C   0  0  0  0  0  0  0  0  0  0  0  0
   -3.0106    0.5619   -0.4907 N   0  0  0  0  0  0  0  0  0  0  0  0
   -4.3186    0.0194   -0.7570 C   0  0  0  0  0  0  0  0  0  0  0  0
   -2.4387    0.6771    0.7443 C   0  0  0  0  0  0  0  0  0  0  0  0
   -1.2392    1.2101    0.6737 N   0  0  0  0  0  0  0  0  0  0  0  0
    1.7361   -0.1475    0.8410 C   0  0  0  0  0  0  0  0  0  0  0  0
   -0.2889   -1.1431    2.7887 H   0  0  0  0  0  0  0  0  0  0  0  0
   -0.6247   -2.1236    1.3302 H   0  0  0  0  0  0  0  0  0  0  0  0
   -0.6882   -2.8595    2.9421 H   0  0  0  0  0  0  0  0  0  0  0  0
    3.4552   -2.9862    0.0928 H   0  0  0  0  0  0  0  0  0  0  0  0
    4.3001   -1.5342   -1.7151 H   0  0  0  0  0  0  0  0  0  0  0  0
    3.5035    0.7986   -1.9169 H   0  0  0  0  0  0  0  0  0  0  0  0
    2.4396    2.6865   -0.5614 H   0  0  0  0  0  0  0  0  0  0  0  0
   -2.3395    1.0939   -2.4720 H   0  0  0  0  0  0  0  0  0  0  0  0
   -4.3631   -0.9939   -0.3499 H   0  0  0  0  0  0  0  0  0  0  0  0
   -5.0619    0.6593   -0.2749 H   0  0  0  0  0  0  0  0  0  0  0  0
   -4.4913   -0.0062   -1.8359 H   0  0  0  0  0  0  0  0  0  0  0  0
   -2.9360    0.3622    1.6531 H   0  0  0  0  0  0  0  0  0  0  0  0
    1.0378    0.2712    1.5595 H   0  0  0  0  0  0  0  0  0  0  0  0
  1  2  1  0
  2  3  1  0
  3  4  2  0
  4  5  1  0
  5  6  2  0
  6  7  1  0
  7  8  1  0
  8  9  1  0
  9 10  2  0
  9 11  2  0
  9 12  1  0
 12 13  2  0
 13 14  1  0
 14 15  1  0
 14 16  1  0
 16 17  2  0
  7 18  2  0
 18  3  1  0
 17 12  1  0
  1 19  1  0
  1 20  1  0
  1 21  1  0
  4 22  1  0
  5 23  1  0
  6 24  1  0
  8 25  1  0
 13 26  1  0
 15 27  1  0
 15 28  1  0
 15 29  1  0
 16 30  1  0
 18 31  1  0
M  END
$$$$
