
     RDKit          3D

 55 60  0  0  0  0  0  0  0  0999 V2000
    5.2632    0.5601    0.3855 O   0  0  0  0  0  0  0  0  0  0  0  0
    4.2320    1.1836    0.6317 C   0  0  0  0  0  0  0  0  0  0  0  0
    4.3117    2.4943    1.2592 C   0  0  0  0  0  0  0  0  0  0  0  0
    5.3389    3.4695    1.0857 C   0  0  0  0  0  0  0  0  0  0  0  0
    5.0227    4.5280    1.9030 C   0  0  0  0  0  0  0  0  0  0  0  0
    3.8854    4.2650    2.5947 O   0  0  0  0  0  0  0  0  0  0  0  0
    3.4745    3.0263    2.2200 C   0  0  0  0  0  0  0  0  0  0  0  0
    2.9724    0.6523    0.3287 N   0  0  0  0  0  0  0  0  0  0  0  0
    1.7576    1.4471    0.1631 C   0  0  0  0  0  0  0  0  0  0  0  0
    0.9063    0.9782   -1.0163 C   0  0  0  0  0  0  0  0  0  0  0  0
    0.5651   -0.5440   -0.9996 C   0  0  0  0  0  0  0  0  0  0  0  0
    1.5181   -1.3004   -0.0402 C   0  0  0  0  0  0  0  0  0  0  0  0
    2.9298   -0.7330   -0.1222 C   0  0  0  0  0  0  0  0  0  0  0  0
    0.8788   -0.9661   -2.3601 O   0  0  0  0  0  0  0  0  0  0  0  0
    0.3365   -2.1322   -2.8136 C   0  0  0  0  0  0  0  0  0  0  0  0
    0.8523   -2.6236   -4.0125 C   0  0  0  0  0  0  0  0  0  0  0  0
    0.3769   -3.8276   -4.5389 C   0  0  0  0  0  0  0  0  0  0  0  0
   -0.6167   -4.5372   -3.8638 C   0  0  0  0  0  0  0  0  0  0  0  0
   -1.1931   -6.0223   -4.5115 Cl  0  0  0  0  0  0  0  0  0  0  0  0
   -1.1457   -4.0499   -2.6720 C   0  0  0  0  0  0  0  0  0  0  0  0
   -0.6695   -2.8385   -2.1617 C   0  0  0  0  0  0  0  0  0  0  0  0
   -1.2187   -2.2830   -0.9184 C   0  0  0  0  0  0  0  0  0  0  0  0
   -1.8473   -3.0040   -0.1486 O   0  0  0  0  0  0  0  0  0  0  0  0
   -0.9333   -0.8060   -0.6737 C   0  0  0  0  0  0  0  0  0  0  0  0
   -1.3884   -0.3754    0.7117 C   0  0  0  0  0  0  0  0  0  0  0  0
   -2.7578    0.1021    0.3618 C   0  0  0  0  0  0  0  0  0  0  0  0
   -3.7921    0.3636    1.3904 C   0  0  0  0  0  0  0  0  0  0  0  0
   -3.5161    0.2424    2.7575 C   0  0  0  0  0  0  0  0  0  0  0  0
   -4.5174    0.5020    3.6998 C   0  0  0  0  0  0  0  0  0  0  0  0
   -5.7904    0.8829    3.2776 C   0  0  0  0  0  0  0  0  0  0  0  0
   -7.0159    1.2023    4.4411 Cl  0  0  0  0  0  0  0  0  0  0  0  0
   -6.0736    1.0076    1.9199 C   0  0  0  0  0  0  0  0  0  0  0  0
   -5.0751    0.7486    0.9768 C   0  0  0  0  0  0  0  0  0  0  0  0
   -2.9509    0.3052   -0.9026 N   0  0  0  0  0  0  0  0  0  0  0  0
   -1.7666   -0.0604   -1.5786 O   0  0  0  0  0  0  0  0  0  0  0  0
    6.2011    3.3949    0.4368 H   0  0  0  0  0  0  0  0  0  0  0  0
    5.4858    5.4837    2.1067 H   0  0  0  0  0  0  0  0  0  0  0  0
    2.5915    2.6649    2.7274 H   0  0  0  0  0  0  0  0  0  0  0  0
    1.1952    1.3705    1.0986 H   0  0  0  0  0  0  0  0  0  0  0  0
    2.0096    2.5005    0.0083 H   0  0  0  0  0  0  0  0  0  0  0  0
    1.4555    1.2218   -1.9370 H   0  0  0  0  0  0  0  0  0  0  0  0
   -0.0013    1.5911   -1.0541 H   0  0  0  0  0  0  0  0  0  0  0  0
    1.5638   -2.3668   -0.2879 H   0  0  0  0  0  0  0  0  0  0  0  0
    1.1668   -1.2235    0.9957 H   0  0  0  0  0  0  0  0  0  0  0  0
    3.6064   -1.3295    0.5010 H   0  0  0  0  0  0  0  0  0  0  0  0
    3.3141   -0.7684   -1.1487 H   0  0  0  0  0  0  0  0  0  0  0  0
    1.6307   -2.0738   -4.5369 H   0  0  0  0  0  0  0  0  0  0  0  0
    0.7862   -4.2062   -5.4724 H   0  0  0  0  0  0  0  0  0  0  0  0
   -1.9267   -4.5976   -2.1497 H   0  0  0  0  0  0  0  0  0  0  0  0
   -0.8348    0.4805    1.1031 H   0  0  0  0  0  0  0  0  0  0  0  0
   -1.3905   -1.1779    1.4523 H   0  0  0  0  0  0  0  0  0  0  0  0
   -2.5350   -0.0509    3.1182 H   0  0  0  0  0  0  0  0  0  0  0  0
   -4.2990    0.4044    4.7605 H   0  0  0  0  0  0  0  0  0  0  0  0
   -7.0650    1.3036    1.5868 H   0  0  0  0  0  0  0  0  0  0  0  0
   -5.3080    0.8472   -0.0823 H   0  0  0  0  0  0  0  0  0  0  0  0
  1  2  2  0
  2  3  1  0
  3  4  1  0
  4  5  2  0
  5  6  1  0
  6  7  1  0
  2  8  1  0
  8  9  1  0
  9 10  1  0
 10 11  1  0
 11 12  1  0
 12 13  1  0
 11 14  1  0
 14 15  1  0
 15 16  2  0
 16 17  1  0
 17 18  2  0
 18 19  1  0
 18 20  1  0
 20 21  2  0
 21 22  1  0
 22 23  2  0
 22 24  1  0
 24 25  1  0
 25 26  1  0
 26 27  1  0
 27 28  2  0
 28 29  1  0
 29 30  2  0
 30 31  1  0
 30 32  1  0
 32 33  2  0
 26 34  2  0
 34 35  1  0
  7  3  2  0
 13  8  1  0
 21 15  1  0
 35 24  1  0
 24 11  1  0
 33 27  1  0
  4 36  1  0
  5 37  1  0
  7 38  1  0
  9 39  1  0
  9 40  1  0
 10 41  1  0
 10 42  1  0
 12 43  1  0
 12 44  1  0
 13 45  1  0
 13 46  1  0
 16 47  1  0
 17 48  1  0
 20 49  1  0
 25 50  1  0
 25 51  1  0
 28 52  1  0
 29 53  1  0
 32 54  1  0
 33 55  1  0
M  END
$$$$
