
     RDKit          3D

 36 37  0  0  0  0  0  0  0  0999 V2000
    1.0319    2.5186   -2.4388 O   0  0  0  0  0  0  0  0  0  0  0  0
    0.7027    1.5421   -1.7705 C   0  0  0  0  0  0  0  0  0  0  0  0
   -0.1940    0.4393   -2.3337 C   0  0  0  0  0  0  0  0  0  0  0  0
   -1.4018    0.2454   -1.5970 O   0  0  0  0  0  0  0  0  0  0  0  0
   -1.3811   -0.7312   -0.6636 C   0  0  0  0  0  0  0  0  0  0  0  0
   -0.4434   -1.4455   -0.3524 O   0  0  0  0  0  0  0  0  0  0  0  0
   -2.7196   -0.7963   -0.0590 C   0  0  0  0  0  0  0  0  0  0  0  0
   -3.7923   -1.2082   -0.8632 C   0  0  0  0  0  0  0  0  0  0  0  0
   -5.0685   -1.2923   -0.3115 C   0  0  0  0  0  0  0  0  0  0  0  0
   -6.3892   -1.7974   -1.2889 Cl  0  0  0  0  0  0  0  0  0  0  0  0
   -5.2820   -0.9730    1.0289 C   0  0  0  0  0  0  0  0  0  0  0  0
   -4.2097   -0.5615    1.8268 C   0  0  0  0  0  0  0  0  0  0  0  0
   -2.9237   -0.4708    1.2848 C   0  0  0  0  0  0  0  0  0  0  0  0
   -1.6521    0.0830    2.3091 Cl  0  0  0  0  0  0  0  0  0  0  0  0
    1.1490    1.3282   -0.4885 N   0  0  0  0  0  0  0  0  0  0  0  0
    2.1547    2.1824    0.1240 C   0  0  0  0  0  0  0  0  0  0  0  0
    2.7308    1.5986    1.4217 C   0  0  0  0  0  0  0  0  0  0  0  0
    3.4307    0.3404    1.2000 N   0  0  0  0  0  0  0  0  0  0  0  0
    2.7977   -0.8770    1.1454 C   0  0  0  0  0  0  0  0  0  0  0  0
    1.4634   -0.9192    1.4012 O   0  0  0  0  0  0  0  0  0  0  0  0
    3.5815   -1.9033    0.8005 C   0  0  0  0  0  0  0  0  0  0  0  0
    5.2142   -1.3745    0.5201 S   0  0  0  0  0  0  0  0  0  0  0  0
    4.7725    0.3123    0.8594 C   0  0  0  0  0  0  0  0  0  0  0  0
    5.5504    1.2483    0.7752 O   0  0  0  0  0  0  0  0  0  0  0  0
    0.3889   -0.4843   -2.4301 H   0  0  0  0  0  0  0  0  0  0  0  0
   -0.4865    0.7332   -3.3477 H   0  0  0  0  0  0  0  0  0  0  0  0
   -3.6309   -1.4596   -1.9084 H   0  0  0  0  0  0  0  0  0  0  0  0
   -6.2804   -1.0377    1.4580 H   0  0  0  0  0  0  0  0  0  0  0  0
   -4.3876   -0.3067    2.8697 H   0  0  0  0  0  0  0  0  0  0  0  0
    0.9051    0.4650   -0.0082 H   0  0  0  0  0  0  0  0  0  0  0  0
    2.9530    2.3479   -0.6091 H   0  0  0  0  0  0  0  0  0  0  0  0
    1.6815    3.1497    0.3257 H   0  0  0  0  0  0  0  0  0  0  0  0
    1.9411    1.4454    2.1663 H   0  0  0  0  0  0  0  0  0  0  0  0
    3.4411    2.3190    1.8449 H   0  0  0  0  0  0  0  0  0  0  0  0
    1.0779   -1.7271    1.0052 H   0  0  0  0  0  0  0  0  0  0  0  0
    3.2748   -2.9332    0.6942 H   0  0  0  0  0  0  0  0  0  0  0  0
  1  2  2  0
  2  3  1  0
  3  4  1  0
  4  5  1  0
  5  6  2  0
  5  7  1  0
  7  8  2  0
  8  9  1  0
  9 10  1  0
  9 11  2  0
 11 12  1  0
 12 13  2  0
 13 14  1  0
  2 15  1  0
 15 16  1  0
 16 17  1  0
 17 18  1  0
 18 19  1  0
 19 20  1  0
 19 21  2  0
 21 22  1  0
 22 23  1  0
 23 24  2  0
 13  7  1  0
 23 18  1  0
  3 25  1  0
  3 26  1  0
  8 27  1  0
 11 28  1  0
 12 29  1  0
 15 30  1  0
 16 31  1  0
 16 32  1  0
 17 33  1  0
 17 34  1  0
 20 35  1  0
 21 36  1  0
M  END
$$$$
