
     RDKit          3D

 38 39  0  0  0  0  0  0  0  0999 V2000
   -4.7514    2.0262    0.1559 C   0  0  0  0  0  0  0  0  0  0  0  0
   -4.2961    1.3804    1.2377 C   0  0  0  0  0  0  0  0  0  0  0  0
   -3.0225    1.7229    1.9578 C   0  0  0  0  0  0  0  0  0  0  0  0
   -2.0576    0.5619    2.0000 C   0  0  0  0  0  0  0  0  0  0  0  0
   -1.9478   -0.2339    3.1438 C   0  0  0  0  0  0  0  0  0  0  0  0
   -1.0695   -1.3145    3.1608 C   0  0  0  0  0  0  0  0  0  0  0  0
   -0.3006   -1.6115    2.0347 C   0  0  0  0  0  0  0  0  0  0  0  0
    0.5045   -2.7141    2.1477 O   0  0  0  0  0  0  0  0  0  0  0  0
   -0.3607   -0.8288    0.8676 C   0  0  0  0  0  0  0  0  0  0  0  0
    0.4890   -1.0504   -0.3301 C   0  0  0  0  0  0  0  0  0  0  0  0
    1.2315    0.0238   -0.8630 C   0  0  0  0  0  0  0  0  0  0  0  0
    2.0223   -0.1122   -2.0179 C   0  0  0  0  0  0  0  0  0  0  0  0
    2.8122    1.0638   -2.5425 C   0  0  0  0  0  0  0  0  0  0  0  0
    4.0999    1.2643   -1.7953 C   0  0  0  0  0  0  0  0  0  0  0  0
    4.4231    2.3823   -1.1318 C   0  0  0  0  0  0  0  0  0  0  0  0
    2.0880   -1.3571   -2.6507 C   0  0  0  0  0  0  0  0  0  0  0  0
    1.3747   -2.4412   -2.1430 C   0  0  0  0  0  0  0  0  0  0  0  0
    0.5898   -2.2828   -0.9980 C   0  0  0  0  0  0  0  0  0  0  0  0
   -0.0715   -3.3749   -0.4963 O   0  0  0  0  0  0  0  0  0  0  0  0
   -1.2682    0.2528    0.8770 C   0  0  0  0  0  0  0  0  0  0  0  0
   -4.2113    2.8595   -0.2822 H   0  0  0  0  0  0  0  0  0  0  0  0
   -5.6812    1.7260   -0.3176 H   0  0  0  0  0  0  0  0  0  0  0  0
   -4.8751    0.5505    1.6385 H   0  0  0  0  0  0  0  0  0  0  0  0
   -2.5229    2.5841    1.4959 H   0  0  0  0  0  0  0  0  0  0  0  0
   -3.2709    2.0358    2.9796 H   0  0  0  0  0  0  0  0  0  0  0  0
   -2.5480   -0.0236    4.0255 H   0  0  0  0  0  0  0  0  0  0  0  0
   -0.9888   -1.9379    4.0469 H   0  0  0  0  0  0  0  0  0  0  0  0
    0.5870   -3.0763    1.2442 H   0  0  0  0  0  0  0  0  0  0  0  0
    1.2056    0.9903   -0.3597 H   0  0  0  0  0  0  0  0  0  0  0  0
    2.1835    1.9625   -2.5012 H   0  0  0  0  0  0  0  0  0  0  0  0
    3.0420    0.9107   -3.6044 H   0  0  0  0  0  0  0  0  0  0  0  0
    4.8064    0.4366   -1.8058 H   0  0  0  0  0  0  0  0  0  0  0  0
    5.3714    2.4615   -0.6086 H   0  0  0  0  0  0  0  0  0  0  0  0
    3.7541    3.2359   -1.0880 H   0  0  0  0  0  0  0  0  0  0  0  0
    2.7045   -1.4917   -3.5368 H   0  0  0  0  0  0  0  0  0  0  0  0
    1.4548   -3.4032   -2.6403 H   0  0  0  0  0  0  0  0  0  0  0  0
   -0.1295   -4.0477   -1.1969 H   0  0  0  0  0  0  0  0  0  0  0  0
   -1.3706    0.8702   -0.0151 H   0  0  0  0  0  0  0  0  0  0  0  0
  1  2  2  0
  2  3  1  0
  3  4  1  0
  4  5  2  0
  5  6  1  0
  6  7  2  0
  7  8  1  0
  7  9  1  0
  9 10  1  0
 10 11  2  0
 11 12  1  0
 12 13  1  0
 13 14  1  0
 14 15  2  0
 12 16  2  0
 16 17  1  0
 17 18  2  0
 18 19  1  0
  9 20  2  0
 20  4  1  0
 18 10  1  0
  1 21  1  0
  1 22  1  0
  2 23  1  0
  3 24  1  0
  3 25  1  0
  5 26  1  0
  6 27  1  0
  8 28  1  0
 11 29  1  0
 13 30  1  0
 13 31  1  0
 14 32  1  0
 15 33  1  0
 15 34  1  0
 16 35  1  0
 17 36  1  0
 19 37  1  0
 20 38  1  0
M  END
$$$$
