
     RDKit          3D

 51 53  0  0  0  0  0  0  0  0999 V2000
    9.5436   -2.3665    0.1786 C   0  0  0  0  0  0  0  0  0  0  0  0
    8.1319   -2.2092    0.1210 O   0  0  0  0  0  0  0  0  0  0  0  0
    7.6542   -0.9409   -0.0709 C   0  0  0  0  0  0  0  0  0  0  0  0
    8.4292    0.2088   -0.2189 C   0  0  0  0  0  0  0  0  0  0  0  0
    7.8112    1.4453   -0.4098 C   0  0  0  0  0  0  0  0  0  0  0  0
    6.4191    1.5346   -0.4532 C   0  0  0  0  0  0  0  0  0  0  0  0
    5.6298    0.3894   -0.3059 C   0  0  0  0  0  0  0  0  0  0  0  0
    4.2359    0.5598   -0.3617 N   0  0  0  0  0  0  0  0  0  0  0  0
    3.2575   -0.4037   -0.2368 C   0  0  0  0  0  0  0  0  0  0  0  0
    3.3698   -1.6061   -0.0474 O   0  0  0  0  0  0  0  0  0  0  0  0
    1.8416    0.1926   -0.3612 C   0  0  0  0  0  0  0  0  0  0  0  0
    1.7206    1.3999   -0.5272 O   0  0  0  0  0  0  0  0  0  0  0  0
    0.8582   -0.7741   -0.2484 N   0  0  0  0  0  0  0  0  0  0  0  0
   -0.4970   -0.5815   -0.1769 N   0  0  0  0  0  0  0  0  0  0  0  0
   -1.0170    0.4986   -0.6611 C   0  0  0  0  0  0  0  0  0  0  0  0
   -2.4505    0.7320   -0.5515 C   0  0  0  0  0  0  0  0  0  0  0  0
   -3.1077    1.9222   -0.9485 C   0  0  0  0  0  0  0  0  0  0  0  0
   -4.4534    1.8009   -0.6674 C   0  0  0  0  0  0  0  0  0  0  0  0
   -5.4967    2.8551   -0.8244 C   0  0  0  0  0  0  0  0  0  0  0  0
   -4.6601    0.5472   -0.1001 N   0  0  0  0  0  0  0  0  0  0  0  0
   -5.8999    0.0525    0.4022 C   0  0  0  0  0  0  0  0  0  0  0  0
   -7.0754    0.2015   -0.3416 C   0  0  0  0  0  0  0  0  0  0  0  0
   -8.2859   -0.2829    0.1620 C   0  0  0  0  0  0  0  0  0  0  0  0
   -8.3300   -0.9136    1.4088 C   0  0  0  0  0  0  0  0  0  0  0  0
   -9.8620   -1.4859    1.9655 Cl  0  0  0  0  0  0  0  0  0  0  0  0
   -7.1557   -1.0617    2.1550 C   0  0  0  0  0  0  0  0  0  0  0  0
   -7.1357   -1.8225    3.7066 Cl  0  0  0  0  0  0  0  0  0  0  0  0
   -5.9420   -0.5802    1.6522 C   0  0  0  0  0  0  0  0  0  0  0  0
   -3.4384   -0.1291   -0.0818 C   0  0  0  0  0  0  0  0  0  0  0  0
   -3.2969   -1.5669    0.3125 C   0  0  0  0  0  0  0  0  0  0  0  0
    6.2568   -0.8438   -0.1153 C   0  0  0  0  0  0  0  0  0  0  0  0
    9.9684   -1.8137    1.0230 H   0  0  0  0  0  0  0  0  0  0  0  0
   10.0127   -2.0697   -0.7653 H   0  0  0  0  0  0  0  0  0  0  0  0
    9.7556   -3.4284    0.3358 H   0  0  0  0  0  0  0  0  0  0  0  0
    9.5131    0.1773   -0.1906 H   0  0  0  0  0  0  0  0  0  0  0  0
    8.4160    2.3414   -0.5248 H   0  0  0  0  0  0  0  0  0  0  0  0
    5.9639    2.5105   -0.6029 H   0  0  0  0  0  0  0  0  0  0  0  0
    3.8806    1.5030   -0.5051 H   0  0  0  0  0  0  0  0  0  0  0  0
    1.1762   -1.7074    0.0189 H   0  0  0  0  0  0  0  0  0  0  0  0
   -0.4478    1.2855   -1.1799 H   0  0  0  0  0  0  0  0  0  0  0  0
   -2.6382    2.8043   -1.3680 H   0  0  0  0  0  0  0  0  0  0  0  0
   -5.0304    3.8422   -0.9203 H   0  0  0  0  0  0  0  0  0  0  0  0
   -6.0870    2.6850   -1.7294 H   0  0  0  0  0  0  0  0  0  0  0  0
   -6.1627    2.9005    0.0423 H   0  0  0  0  0  0  0  0  0  0  0  0
   -7.0650    0.6497   -1.3319 H   0  0  0  0  0  0  0  0  0  0  0  0
   -9.1924   -0.1727   -0.4292 H   0  0  0  0  0  0  0  0  0  0  0  0
   -5.0430   -0.6709    2.2580 H   0  0  0  0  0  0  0  0  0  0  0  0
   -2.9602   -1.6471    1.3506 H   0  0  0  0  0  0  0  0  0  0  0  0
   -2.5696   -2.0765   -0.3272 H   0  0  0  0  0  0  0  0  0  0  0  0
   -4.2296   -2.1262    0.1968 H   0  0  0  0  0  0  0  0  0  0  0  0
    5.6842   -1.7587    0.0031 H   0  0  0  0  0  0  0  0  0  0  0  0
  1  2  1  0
  2  3  1  0
  3  4  2  0
  4  5  1  0
  5  6  2  0
  6  7  1  0
  7  8  1  0
  8  9  1  0
  9 10  2  0
  9 11  1  0
 11 12  2  0
 11 13  1  0
 13 14  1  0
 14 15  2  3
 15 16  1  0
 16 17  1  0
 17 18  2  0
 18 19  1  0
 18 20  1  0
 20 21  1  0
 21 22  2  0
 22 23  1  0
 23 24  2  0
 24 25  1  0
 24 26  1  0
 26 27  1  0
 26 28  2  0
 20 29  1  0
 29 30  1  0
  7 31  2  0
 31  3  1  0
 29 16  2  0
 28 21  1  0
  1 32  1  0
  1 33  1  0
  1 34  1  0
  4 35  1  0
  5 36  1  0
  6 37  1  0
  8 38  1  0
 13 39  1  0
 15 40  1  0
 17 41  1  0
 19 42  1  0
 19 43  1  0
 19 44  1  0
 22 45  1  0
 23 46  1  0
 28 47  1  0
 30 48  1  0
 30 49  1  0
 30 50  1  0
 31 51  1  0
M  END
$$$$
