
     RDKit          3D

 38 40  0  0  0  0  0  0  0  0999 V2000
    0.4192    1.5826    1.5588 O   0  0  0  0  0  0  0  0  0  0  0  0
    0.3817    1.1570    0.4063 C   0  0  0  0  0  0  0  0  0  0  0  0
    1.4758    1.1905   -0.4166 N   0  0  0  0  0  0  0  0  0  0  0  0
    2.7459    1.6967    0.0584 C   0  0  0  0  0  0  0  0  0  0  0  0
    3.6358    0.5737    0.5324 C   0  0  0  0  0  0  0  0  0  0  0  0
    4.5965    0.0119   -0.3217 C   0  0  0  0  0  0  0  0  0  0  0  0
    5.4010   -1.0433    0.1158 C   0  0  0  0  0  0  0  0  0  0  0  0
    5.2442   -1.5462    1.4060 C   0  0  0  0  0  0  0  0  0  0  0  0
    6.2343   -2.8478    1.9411 Cl  0  0  0  0  0  0  0  0  0  0  0  0
    4.2893   -1.0046    2.2627 C   0  0  0  0  0  0  0  0  0  0  0  0
    3.4858    0.0508    1.8259 C   0  0  0  0  0  0  0  0  0  0  0  0
   -0.7695    0.6259   -0.1514 N   0  0  0  0  0  0  0  0  0  0  0  0
   -0.8902    0.0761   -1.5017 C   0  0  0  0  0  0  0  0  0  0  0  0
   -2.2536    0.3738   -2.1216 C   0  0  0  0  0  0  0  0  0  0  0  0
   -3.3676   -0.0741   -1.2184 C   0  0  0  0  0  0  0  0  0  0  0  0
   -4.6136   -0.4338   -1.7487 C   0  0  0  0  0  0  0  0  0  0  0  0
   -5.6521   -0.8228   -0.9037 C   0  0  0  0  0  0  0  0  0  0  0  0
   -5.4569   -0.8439    0.4747 C   0  0  0  0  0  0  0  0  0  0  0  0
   -4.2236   -0.4717    1.0100 C   0  0  0  0  0  0  0  0  0  0  0  0
   -3.1684   -0.0808    0.1712 C   0  0  0  0  0  0  0  0  0  0  0  0
   -1.8530    0.3363    0.7876 C   0  0  0  0  0  0  0  0  0  0  0  0
    1.5461    0.4345   -1.0761 H   0  0  0  0  0  0  0  0  0  0  0  0
    2.6036    2.4361    0.8546 H   0  0  0  0  0  0  0  0  0  0  0  0
    3.2163    2.2177   -0.7830 H   0  0  0  0  0  0  0  0  0  0  0  0
    4.7272    0.3941   -1.3318 H   0  0  0  0  0  0  0  0  0  0  0  0
    6.1454   -1.4677   -0.5524 H   0  0  0  0  0  0  0  0  0  0  0  0
    4.1615   -1.3974    3.2677 H   0  0  0  0  0  0  0  0  0  0  0  0
    2.7343    0.4648    2.4978 H   0  0  0  0  0  0  0  0  0  0  0  0
   -0.1214    0.4861   -2.1625 H   0  0  0  0  0  0  0  0  0  0  0  0
   -0.7210   -1.0051   -1.4251 H   0  0  0  0  0  0  0  0  0  0  0  0
   -2.3606    1.4519   -2.2931 H   0  0  0  0  0  0  0  0  0  0  0  0
   -2.3211   -0.1316   -3.0920 H   0  0  0  0  0  0  0  0  0  0  0  0
   -4.7819   -0.4120   -2.8229 H   0  0  0  0  0  0  0  0  0  0  0  0
   -6.6155   -1.1045   -1.3205 H   0  0  0  0  0  0  0  0  0  0  0  0
   -6.2672   -1.1433    1.1343 H   0  0  0  0  0  0  0  0  0  0  0  0
   -4.0886   -0.4821    2.0898 H   0  0  0  0  0  0  0  0  0  0  0  0
   -1.4973   -0.4725    1.4388 H   0  0  0  0  0  0  0  0  0  0  0  0
   -2.0208    1.2243    1.4095 H   0  0  0  0  0  0  0  0  0  0  0  0
  1  2  2  0
  2  3  1  0
  3  4  1  0
  4  5  1  0
  5  6  2  0
  6  7  1  0
  7  8  2  0
  8  9  1  0
  8 10  1  0
 10 11  2  0
  2 12  1  0
 12 13  1  0
 13 14  1  0
 14 15  1  0
 15 16  2  0
 16 17  1  0
 17 18  2  0
 18 19  1  0
 19 20  2  0
 20 21  1  0
 11  5  1  0
 21 12  1  0
 20 15  1  0
  3 22  1  0
  4 23  1  0
  4 24  1  0
  6 25  1  0
  7 26  1  0
 10 27  1  0
 11 28  1  0
 13 29  1  0
 13 30  1  0
 14 31  1  0
 14 32  1  0
 16 33  1  0
 17 34  1  0
 18 35  1  0
 19 36  1  0
 21 37  1  0
 21 38  1  0
M  END
$$$$
