
     RDKit          3D

 51 55  0  0  0  0  0  0  0  0999 V2000
    8.1721    2.3961    2.4947 F   0  0  0  0  0  0  0  0  0  0  0  0
    7.1979    1.7617    1.8294 C   0  0  0  0  0  0  0  0  0  0  0  0
    6.1373    2.4927    1.3079 C   0  0  0  0  0  0  0  0  0  0  0  0
    5.1211    1.8333    0.6153 C   0  0  0  0  0  0  0  0  0  0  0  0
    5.1703    0.4414    0.4420 C   0  0  0  0  0  0  0  0  0  0  0  0
    4.0607   -0.2772   -0.2907 C   0  0  0  0  0  0  0  0  0  0  0  0
    2.9089   -0.6563    0.6567 C   0  0  0  0  0  0  0  0  0  0  0  0
    1.8504   -1.4492    0.0045 N   0  0  0  0  0  0  0  0  0  0  0  0
    1.1864   -0.6965   -1.0844 C   0  0  0  0  0  0  0  0  0  0  0  0
   -0.2339   -1.2010   -1.4261 C   0  0  0  0  0  0  0  0  0  0  0  0
   -1.1307   -1.1161   -0.2646 N   0  0  0  0  0  0  0  0  0  0  0  0
   -2.4151   -0.5911   -0.3662 C   0  0  0  0  0  0  0  0  0  0  0  0
   -2.8490    0.1635    0.6147 N   0  0  0  0  0  0  0  0  0  0  0  0
   -4.1223    0.7606    0.5594 C   0  0  0  0  0  0  0  0  0  0  0  0
   -4.5228    1.5678    1.6261 C   0  0  0  0  0  0  0  0  0  0  0  0
   -5.7716    2.1950    1.6173 C   0  0  0  0  0  0  0  0  0  0  0  0
   -6.6348    2.0199    0.5353 C   0  0  0  0  0  0  0  0  0  0  0  0
   -6.2554    1.2172   -0.5411 C   0  0  0  0  0  0  0  0  0  0  0  0
   -5.0025    0.5967   -0.5179 C   0  0  0  0  0  0  0  0  0  0  0  0
   -4.5470   -0.2388   -1.5503 N   0  0  0  0  0  0  0  0  0  0  0  0
   -5.1813   -0.6145   -2.7108 C   0  0  0  0  0  0  0  0  0  0  0  0
   -4.3716   -1.5101   -3.3734 C   0  0  0  0  0  0  0  0  0  0  0  0
   -3.2010   -1.6689   -2.5959 C   0  0  0  0  0  0  0  0  0  0  0  0
   -3.3078   -0.8412   -1.4909 C   0  0  0  0  0  0  0  0  0  0  0  0
   -0.4551   -1.1163    1.0445 C   0  0  0  0  0  0  0  0  0  0  0  0
    0.8541   -1.9297    0.9921 C   0  0  0  0  0  0  0  0  0  0  0  0
    6.2470   -0.2795    0.9808 C   0  0  0  0  0  0  0  0  0  0  0  0
    7.2617    0.3825    1.6729 C   0  0  0  0  0  0  0  0  0  0  0  0
    6.1085    3.5688    1.4444 H   0  0  0  0  0  0  0  0  0  0  0  0
    4.2921    2.4103    0.2111 H   0  0  0  0  0  0  0  0  0  0  0  0
    3.7052    0.3672   -1.1041 H   0  0  0  0  0  0  0  0  0  0  0  0
    4.4656   -1.1775   -0.7709 H   0  0  0  0  0  0  0  0  0  0  0  0
    3.3359   -1.2511    1.4754 H   0  0  0  0  0  0  0  0  0  0  0  0
    2.4850    0.2470    1.1159 H   0  0  0  0  0  0  0  0  0  0  0  0
    1.1076    0.3671   -0.8198 H   0  0  0  0  0  0  0  0  0  0  0  0
    1.8034   -0.7635   -1.9878 H   0  0  0  0  0  0  0  0  0  0  0  0
   -0.1857   -2.2415   -1.7676 H   0  0  0  0  0  0  0  0  0  0  0  0
   -0.6087   -0.5907   -2.2555 H   0  0  0  0  0  0  0  0  0  0  0  0
   -3.8515    1.7074    2.4692 H   0  0  0  0  0  0  0  0  0  0  0  0
   -6.0681    2.8200    2.4557 H   0  0  0  0  0  0  0  0  0  0  0  0
   -7.6059    2.5091    0.5328 H   0  0  0  0  0  0  0  0  0  0  0  0
   -6.9450    1.0934   -1.3692 H   0  0  0  0  0  0  0  0  0  0  0  0
   -6.1605   -0.2408   -2.9722 H   0  0  0  0  0  0  0  0  0  0  0  0
   -4.6059   -2.0043   -4.3075 H   0  0  0  0  0  0  0  0  0  0  0  0
   -2.3720   -2.3243   -2.8235 H   0  0  0  0  0  0  0  0  0  0  0  0
   -0.2401   -0.0870    1.3577 H   0  0  0  0  0  0  0  0  0  0  0  0
   -1.1139   -1.5674    1.7961 H   0  0  0  0  0  0  0  0  0  0  0  0
    1.2854   -1.9949    1.9986 H   0  0  0  0  0  0  0  0  0  0  0  0
    0.6040   -2.9618    0.7129 H   0  0  0  0  0  0  0  0  0  0  0  0
    6.2996   -1.3600    0.8636 H   0  0  0  0  0  0  0  0  0  0  0  0
    8.0988   -0.1673    2.0906 H   0  0  0  0  0  0  0  0  0  0  0  0
  1  2  1  0
  2  3  2  0
  3  4  1  0
  4  5  2  0
  5  6  1  0
  6  7  1  0
  7  8  1  0
  8  9  1  0
  9 10  1  0
 10 11  1  0
 11 12  1  0
 12 13  2  0
 13 14  1  0
 14 15  2  0
 15 16  1  0
 16 17  2  0
 17 18  1  0
 18 19  2  0
 19 20  1  0
 20 21  1  0
 21 22  2  0
 22 23  1  0
 23 24  2  0
 11 25  1  0
 25 26  1  0
  5 27  1  0
 27 28  2  0
 28  2  1  0
 26  8  1  0
 24 12  1  0
 19 14  1  0
 24 20  1  0
  3 29  1  0
  4 30  1  0
  6 31  1  0
  6 32  1  0
  7 33  1  0
  7 34  1  0
  9 35  1  0
  9 36  1  0
 10 37  1  0
 10 38  1  0
 15 39  1  0
 16 40  1  0
 17 41  1  0
 18 42  1  0
 21 43  1  0
 22 44  1  0
 23 45  1  0
 25 46  1  0
 25 47  1  0
 26 48  1  0
 26 49  1  0
 27 50  1  0
 28 51  1  0
M  END
$$$$
