
     RDKit          3D

 43 45  0  0  0  0  0  0  0  0999 V2000
   -7.3271    0.3892   -1.4493 C   0  0  0  0  0  0  0  0  0  0  0  0
   -6.7738   -0.5129   -0.4410 N   0  0  0  0  0  0  0  0  0  0  0  0
   -7.7269   -1.0177    0.5456 C   0  0  0  0  0  0  0  0  0  0  0  0
   -5.4272   -0.3857   -0.0801 C   0  0  0  0  0  0  0  0  0  0  0  0
   -4.8924   -1.0239    1.0522 C   0  0  0  0  0  0  0  0  0  0  0  0
   -3.5386   -0.9143    1.4091 C   0  0  0  0  0  0  0  0  0  0  0  0
   -2.6524   -0.1741    0.6283 C   0  0  0  0  0  0  0  0  0  0  0  0
   -1.2493   -0.0589    1.0490 C   0  0  0  0  0  0  0  0  0  0  0  0
   -0.2111   -0.0337    0.1978 C   0  0  0  0  0  0  0  0  0  0  0  0
    1.1635    0.0729    0.6482 C   0  0  0  0  0  0  0  0  0  0  0  0
    2.2592    0.1058   -0.1248 C   0  0  0  0  0  0  0  0  0  0  0  0
    2.3432    0.0283   -1.8315 S   0  0  0  0  0  0  0  0  0  0  0  0
    4.0962    0.2344   -1.8519 C   0  0  0  0  0  0  0  0  0  0  0  0
    4.8754    0.4748   -3.3154 S   0  0  0  0  0  0  0  0  0  0  0  0
    4.5885    0.2468   -0.5503 N   0  0  0  0  0  0  0  0  0  0  0  0
    5.9806    0.3080   -0.2046 C   0  0  0  0  0  0  0  0  0  0  0  0
    6.9448   -0.4350   -0.9031 C   0  0  0  0  0  0  0  0  0  0  0  0
    8.2981   -0.3751   -0.5527 C   0  0  0  0  0  0  0  0  0  0  0  0
    8.7108    0.4215    0.5101 C   0  0  0  0  0  0  0  0  0  0  0  0
    7.7698    1.1514    1.2282 C   0  0  0  0  0  0  0  0  0  0  0  0
    6.4173    1.0903    0.8772 C   0  0  0  0  0  0  0  0  0  0  0  0
    3.6254    0.2121    0.4597 C   0  0  0  0  0  0  0  0  0  0  0  0
    3.8023    0.2289    1.6728 O   0  0  0  0  0  0  0  0  0  0  0  0
   -3.1559    0.4699   -0.5008 C   0  0  0  0  0  0  0  0  0  0  0  0
   -4.5120    0.3546   -0.8482 C   0  0  0  0  0  0  0  0  0  0  0  0
   -6.8245    0.2620   -2.4142 H   0  0  0  0  0  0  0  0  0  0  0  0
   -7.2504    1.4338   -1.1279 H   0  0  0  0  0  0  0  0  0  0  0  0
   -8.3863    0.1772   -1.6339 H   0  0  0  0  0  0  0  0  0  0  0  0
   -8.7428   -1.0524    0.1361 H   0  0  0  0  0  0  0  0  0  0  0  0
   -7.4875   -2.0455    0.8386 H   0  0  0  0  0  0  0  0  0  0  0  0
   -7.7511   -0.3768    1.4339 H   0  0  0  0  0  0  0  0  0  0  0  0
   -5.5169   -1.6351    1.6963 H   0  0  0  0  0  0  0  0  0  0  0  0
   -3.1905   -1.4312    2.3004 H   0  0  0  0  0  0  0  0  0  0  0  0
   -1.0874   -0.0141    2.1239 H   0  0  0  0  0  0  0  0  0  0  0  0
   -0.3899   -0.1090   -0.8725 H   0  0  0  0  0  0  0  0  0  0  0  0
    1.2993    0.1303    1.7294 H   0  0  0  0  0  0  0  0  0  0  0  0
    6.6670   -1.1121   -1.7063 H   0  0  0  0  0  0  0  0  0  0  0  0
    9.0272   -0.9615   -1.1069 H   0  0  0  0  0  0  0  0  0  0  0  0
    9.7618    0.4668    0.7835 H   0  0  0  0  0  0  0  0  0  0  0  0
    8.0839    1.7709    2.0647 H   0  0  0  0  0  0  0  0  0  0  0  0
    5.7178    1.6890    1.4567 H   0  0  0  0  0  0  0  0  0  0  0  0
   -2.5102    1.0783   -1.1289 H   0  0  0  0  0  0  0  0  0  0  0  0
   -4.8278    0.8719   -1.7488 H   0  0  0  0  0  0  0  0  0  0  0  0
  1  2  1  0
  2  3  1  0
  2  4  1  0
  4  5  2  0
  5  6  1  0
  6  7  2  0
  7  8  1  0
  8  9  2  3
  9 10  1  0
 10 11  2  3
 11 12  1  0
 12 13  1  0
 13 14  2  0
 13 15  1  0
 15 16  1  0
 16 17  2  0
 17 18  1  0
 18 19  2  0
 19 20  1  0
 20 21  2  0
 15 22  1  0
 22 23  2  0
  7 24  1  0
 24 25  2  0
 25  4  1  0
 22 11  1  0
 21 16  1  0
  1 26  1  0
  1 27  1  0
  1 28  1  0
  3 29  1  0
  3 30  1  0
  3 31  1  0
  5 32  1  0
  6 33  1  0
  8 34  1  0
  9 35  1  0
 10 36  1  0
 17 37  1  0
 18 38  1  0
 19 39  1  0
 20 40  1  0
 21 41  1  0
 24 42  1  0
 25 43  1  0
M  END
$$$$
