
     RDKit          3D

 38 40  0  0  0  0  0  0  0  0999 V2000
   -6.4651    2.4273   -0.9476 C   0  0  0  0  0  0  0  0  0  0  0  0
   -6.7841    1.1546   -0.1832 C   0  0  0  0  0  0  0  0  0  0  0  0
   -5.5831    0.4423    0.0996 O   0  0  0  0  0  0  0  0  0  0  0  0
   -5.2477   -0.4941   -0.9282 C   0  0  0  0  0  0  0  0  0  0  0  0
   -3.9456   -1.1347   -0.5781 C   0  0  0  0  0  0  0  0  0  0  0  0
   -3.7660   -2.4317   -0.4192 N   0  0  0  0  0  0  0  0  0  0  0  0
   -2.4468   -2.7461   -0.1488 N   0  0  0  0  0  0  0  0  0  0  0  0
   -1.6900   -1.6789   -0.1138 C   0  0  0  0  0  0  0  0  0  0  0  0
   -0.3499   -1.5523    0.1112 N   0  0  0  0  0  0  0  0  0  0  0  0
    0.4744   -2.6320    0.3175 C   0  0  0  0  0  0  0  0  0  0  0  0
    0.1471   -3.8146    0.3193 O   0  0  0  0  0  0  0  0  0  0  0  0
    1.9301   -2.2315    0.5679 C   0  0  0  0  0  0  0  0  0  0  0  0
    2.1135   -0.8254    0.4124 O   0  0  0  0  0  0  0  0  0  0  0  0
    3.3966   -0.3587    0.5105 C   0  0  0  0  0  0  0  0  0  0  0  0
    4.5040   -1.0997    0.9624 C   0  0  0  0  0  0  0  0  0  0  0  0
    5.7756   -0.5154    1.0216 C   0  0  0  0  0  0  0  0  0  0  0  0
    5.9033    0.7954    0.6254 C   0  0  0  0  0  0  0  0  0  0  0  0
    4.8240    1.5227    0.1931 C   0  0  0  0  0  0  0  0  0  0  0  0
    3.5602    0.9767    0.1274 C   0  0  0  0  0  0  0  0  0  0  0  0
    5.1606    2.7947   -0.1470 O   0  0  0  0  0  0  0  0  0  0  0  0
    6.5746    2.7889    0.1398 C   0  0  0  0  0  0  0  0  0  0  0  0
    7.0558    1.5155    0.6110 O   0  0  0  0  0  0  0  0  0  0  0  0
   -2.5047   -0.2055   -0.3971 S   0  0  0  0  0  0  0  0  0  0  0  0
   -7.3718    3.0112   -1.1209 H   0  0  0  0  0  0  0  0  0  0  0  0
   -6.0045    2.2023   -1.9149 H   0  0  0  0  0  0  0  0  0  0  0  0
   -5.7505    3.0370   -0.3855 H   0  0  0  0  0  0  0  0  0  0  0  0
   -7.2412    1.4168    0.7784 H   0  0  0  0  0  0  0  0  0  0  0  0
   -7.5006    0.5299   -0.7288 H   0  0  0  0  0  0  0  0  0  0  0  0
   -5.1713    0.0090   -1.8978 H   0  0  0  0  0  0  0  0  0  0  0  0
   -6.0313   -1.2583   -0.9852 H   0  0  0  0  0  0  0  0  0  0  0  0
    0.0521   -0.6242    0.1064 H   0  0  0  0  0  0  0  0  0  0  0  0
    2.1713   -2.5337    1.5930 H   0  0  0  0  0  0  0  0  0  0  0  0
    2.5427   -2.7749   -0.1610 H   0  0  0  0  0  0  0  0  0  0  0  0
    4.4104   -2.1348    1.2814 H   0  0  0  0  0  0  0  0  0  0  0  0
    6.6347   -1.0758    1.3668 H   0  0  0  0  0  0  0  0  0  0  0  0
    2.7223    1.5709   -0.2180 H   0  0  0  0  0  0  0  0  0  0  0  0
    7.1210    3.0517   -0.7734 H   0  0  0  0  0  0  0  0  0  0  0  0
    6.7801    3.5455    0.9031 H   0  0  0  0  0  0  0  0  0  0  0  0
  1  2  1  0
  2  3  1  0
  3  4  1  0
  4  5  1  0
  5  6  2  0
  6  7  1  0
  7  8  2  0
  8  9  1  0
  9 10  1  0
 10 11  2  0
 10 12  1  0
 12 13  1  0
 13 14  1  0
 14 15  2  0
 15 16  1  0
 16 17  2  0
 17 18  1  0
 18 19  2  0
 18 20  1  0
 20 21  1  0
 21 22  1  0
  8 23  1  0
 23  5  1  0
 19 14  1  0
 22 17  1  0
  1 24  1  0
  1 25  1  0
  1 26  1  0
  2 27  1  0
  2 28  1  0
  4 29  1  0
  4 30  1  0
  9 31  1  0
 12 32  1  0
 12 33  1  0
 15 34  1  0
 16 35  1  0
 19 36  1  0
 21 37  1  0
 21 38  1  0
M  END
$$$$
