
     RDKit          3D

 41 43  0  0  0  0  0  0  0  0999 V2000
   -3.0122    1.9898    1.2061 C   0  0  0  0  0  0  0  0  0  0  0  0
   -2.4832    1.4749   -0.0310 N   0  0  0  0  0  0  0  0  0  0  0  0
   -1.5739    2.0759   -0.8547 C   0  0  0  0  0  0  0  0  0  0  0  0
   -0.9289    3.6598   -0.6192 S   0  0  0  0  0  0  0  0  0  0  0  0
    0.5323    3.5806   -1.6996 C   0  0  0  0  0  0  0  0  0  0  0  0
    1.6158    2.7250   -1.0642 C   0  0  0  0  0  0  0  0  0  0  0  0
    2.4134    3.1962   -0.2532 O   0  0  0  0  0  0  0  0  0  0  0  0
    1.6029    1.3977   -1.4953 N   0  0  0  0  0  0  0  0  0  0  0  0
    2.3754    0.4080   -0.9284 N   0  0  0  0  0  0  0  0  0  0  0  0
    3.6059    0.6908   -0.6347 C   0  0  0  0  0  0  0  0  0  0  0  0
    4.4815   -0.2647    0.0099 C   0  0  0  0  0  0  0  0  0  0  0  0
    5.8065   -0.0786    0.3607 C   0  0  0  0  0  0  0  0  0  0  0  0
    6.3703   -1.2322    0.9862 C   0  0  0  0  0  0  0  0  0  0  0  0
    5.4467   -2.2502    1.0877 C   0  0  0  0  0  0  0  0  0  0  0  0
    5.6658   -3.5516    1.6638 N   0  0  0  0  0  4  0  0  0  0  0  0
    4.7197   -4.3482    1.7018 O   0  0  0  0  0  0  0  0  0  0  0  0
    6.8084   -3.7766    2.0871 O   0  0  0  0  0  1  0  0  0  0  0  0
    3.9341   -1.8307    0.4423 S   0  0  0  0  0  0  0  0  0  0  0  0
   -1.2433    1.2621   -1.8278 N   0  0  0  0  0  0  0  0  0  0  0  0
   -1.9481    0.1018   -1.6512 N   0  0  0  0  0  0  0  0  0  0  0  0
   -2.7282    0.2372   -0.5916 C   0  0  0  0  0  0  0  0  0  0  0  0
   -3.6517   -0.7795   -0.0942 C   0  0  0  0  0  0  0  0  0  0  0  0
   -3.2059   -2.1011    0.0511 C   0  0  0  0  0  0  0  0  0  0  0  0
   -4.0689   -3.0968    0.5177 C   0  0  0  0  0  0  0  0  0  0  0  0
   -5.3876   -2.7767    0.8301 C   0  0  0  0  0  0  0  0  0  0  0  0
   -6.4528   -3.9987    1.4045 Cl  0  0  0  0  0  0  0  0  0  0  0  0
   -5.8519   -1.4720    0.6735 C   0  0  0  0  0  0  0  0  0  0  0  0
   -4.9873   -0.4764    0.2074 C   0  0  0  0  0  0  0  0  0  0  0  0
   -2.2482    2.5773    1.7207 H   0  0  0  0  0  0  0  0  0  0  0  0
   -3.2984    1.1646    1.8621 H   0  0  0  0  0  0  0  0  0  0  0  0
   -3.8806    2.6115    0.9753 H   0  0  0  0  0  0  0  0  0  0  0  0
    0.2750    3.2155   -2.6991 H   0  0  0  0  0  0  0  0  0  0  0  0
    0.9326    4.5922   -1.8248 H   0  0  0  0  0  0  0  0  0  0  0  0
    0.7056    1.0433   -1.8459 H   0  0  0  0  0  0  0  0  0  0  0  0
    4.0633    1.6636   -0.8865 H   0  0  0  0  0  0  0  0  0  0  0  0
    6.3491    0.8432    0.1810 H   0  0  0  0  0  0  0  0  0  0  0  0
    7.3929   -1.3025    1.3406 H   0  0  0  0  0  0  0  0  0  0  0  0
   -2.1787   -2.3616   -0.2020 H   0  0  0  0  0  0  0  0  0  0  0  0
   -3.7058   -4.1154    0.6278 H   0  0  0  0  0  0  0  0  0  0  0  0
   -6.8859   -1.2265    0.9017 H   0  0  0  0  0  0  0  0  0  0  0  0
   -5.3757    0.5289    0.0628 H   0  0  0  0  0  0  0  0  0  0  0  0
  1  2  1  0
  2  3  1  0
  3  4  1  0
  4  5  1  0
  5  6  1  0
  6  7  2  0
  6  8  1  0
  8  9  1  0
  9 10  2  3
 10 11  1  0
 11 12  2  0
 12 13  1  0
 13 14  2  0
 14 15  1  0
 15 16  2  0
 15 17  1  0
 14 18  1  0
  3 19  2  0
 19 20  1  0
 20 21  2  0
 21 22  1  0
 22 23  2  0
 23 24  1  0
 24 25  2  0
 25 26  1  0
 25 27  1  0
 27 28  2  0
 21  2  1  0
 28 22  1  0
 18 11  1  0
  1 29  1  0
  1 30  1  0
  1 31  1  0
  5 32  1  0
  5 33  1  0
  8 34  1  0
 10 35  1  0
 12 36  1  0
 13 37  1  0
 23 38  1  0
 24 39  1  0
 27 40  1  0
 28 41  1  0
M  CHG  2  15   1  17  -1
M  END
$$$$
