
     RDKit          3D

 93 97  0  0  0  0  0  0  0  0999 V2000
   -8.0664   -0.8780   -4.0433 C   0  0  0  0  0  0  0  0  0  0  0  0
   -7.0627   -0.1736   -3.1400 C   0  0  0  0  0  0  0  0  0  0  0  0
   -5.6952   -0.8402   -3.1572 C   0  0  0  0  0  0  0  0  0  0  0  0
   -4.7273   -0.1267   -2.2440 C   0  0  0  0  0  0  0  0  0  0  0  0
   -4.7331    1.0695   -2.0151 O   0  0  0  0  0  0  0  0  0  0  0  0
   -3.8335   -1.0175   -1.7182 O   0  0  0  0  0  0  0  0  0  0  0  0
   -2.9641   -0.4514   -0.7203 C   0  0  0  0  0  0  0  0  0  0  0  0
   -2.0361   -1.5428   -0.1839 C   0  0  1  0  0  0  0  0  0  0  0  0
   -0.9584   -1.9632   -1.2038 C   0  0  0  0  0  0  0  0  0  0  0  0
    0.4236   -1.4173   -0.6856 C   0  0  2  0  0  0  0  0  0  0  0  0
    0.4798   -0.0263   -1.0023 O   0  0  0  0  0  0  0  0  0  0  0  0
    0.5211    0.3357   -2.3015 C   0  0  0  0  0  0  0  0  0  0  0  0
    0.7118   -0.4113   -3.2466 O   0  0  0  0  0  0  0  0  0  0  0  0
    0.3292    1.7905   -2.4826 C   0  0  0  0  0  0  0  0  0  0  0  0
   -0.1030    2.6198   -1.5141 C   0  0  0  0  0  0  0  0  0  0  0  0
   -0.3073    4.0526   -1.7378 C   0  0  0  0  0  0  0  0  0  0  0  0
    0.7225    4.8720   -2.2217 C   0  0  0  0  0  0  0  0  0  0  0  0
    0.5054    6.2392   -2.3894 C   0  0  0  0  0  0  0  0  0  0  0  0
   -0.7346    6.7996   -2.0749 C   0  0  0  0  0  0  0  0  0  0  0  0
   -1.7578    5.9913   -1.5856 C   0  0  0  0  0  0  0  0  0  0  0  0
   -1.5473    4.6201   -1.4098 C   0  0  0  0  0  0  0  0  0  0  0  0
    1.5472   -2.3671   -1.2295 C   0  0  0  0  0  0  0  0  0  0  0  0
    1.2931   -3.4598   -1.7660 O   0  0  0  0  0  0  0  0  0  0  0  0
    2.9769   -1.9662   -1.1736 C   0  0  0  0  0  0  0  0  0  0  0  0
    3.5037   -1.1550   -2.3282 C   0  0  0  0  0  0  0  0  0  0  0  0
    3.8013   -2.4999   -0.2495 C   0  0  0  0  0  0  0  0  0  0  0  0
    3.4833   -3.3737    0.8849 C   0  0  0  0  0  0  0  0  0  0  0  0
    3.8348   -2.9410    2.3000 C   0  0  2  0  0  0  0  0  0  0  0  0
    4.4506   -1.5981    2.5897 C   0  0  0  0  0  0  0  0  0  0  0  0
    3.4077   -0.5598    3.0172 C   0  0  0  0  0  0  0  0  0  0  0  0
    2.3752   -0.2673    1.9399 C   0  0  2  0  0  0  0  0  0  0  0  0
    2.7812    0.7523    0.9204 C   0  0  0  0  0  0  0  0  0  0  0  0
    1.0854    0.0736    2.4556 O   0  0  0  0  0  0  0  0  0  0  0  0
    1.1731   -1.2440    1.8997 C   0  0  1  0  0  0  0  0  0  0  0  0
    0.1890   -1.6182    0.8299 C   0  0  1  0  0  0  0  0  0  0  0  0
   -1.2633   -1.1583    1.0898 C   0  0  1  0  0  0  0  0  0  0  0  0
   -1.3844    0.2572    1.2900 O   0  0  0  0  0  0  0  0  0  0  0  0
   -1.7612    0.6666    2.5358 C   0  0  0  0  0  0  0  0  0  0  0  0
   -1.9597   -0.0598    3.5059 O   0  0  0  0  0  0  0  0  0  0  0  0
   -1.9807    2.1618    2.5503 C   0  0  0  0  0  0  0  0  0  0  0  0
   -1.4701    2.7850    3.8482 C   0  0  0  0  0  0  0  0  0  0  0  0
   -1.9057    4.2384    3.9648 C   0  0  0  0  0  0  0  0  0  0  0  0
    4.5813   -4.0997    1.6602 C   0  0  0  0  0  0  0  0  0  0  0  0
    4.2462   -5.4872    2.1693 C   0  0  0  0  0  0  0  0  0  0  0  0
    6.0449   -3.9680    1.2916 C   0  0  0  0  0  0  0  0  0  0  0  0
   -9.0373   -0.3571   -4.0022 H   0  0  0  0  0  0  0  0  0  0  0  0
   -7.7205   -0.8745   -5.0808 H   0  0  0  0  0  0  0  0  0  0  0  0
   -8.2238   -1.9129   -3.7219 H   0  0  0  0  0  0  0  0  0  0  0  0
   -6.9757    0.8705   -3.4536 H   0  0  0  0  0  0  0  0  0  0  0  0
   -7.4532   -0.1546   -2.1174 H   0  0  0  0  0  0  0  0  0  0  0  0
   -5.8035   -1.8769   -2.8232 H   0  0  0  0  0  0  0  0  0  0  0  0
   -5.2747   -0.8512   -4.1651 H   0  0  0  0  0  0  0  0  0  0  0  0
   -3.5933   -0.0646    0.0895 H   0  0  0  0  0  0  0  0  0  0  0  0
   -2.3954    0.3663   -1.1698 H   0  0  0  0  0  0  0  0  0  0  0  0
   -2.6471   -2.4365    0.0175 H   0  0  0  0  0  0  0  0  0  0  0  0
   -0.9530   -3.0588   -1.2314 H   0  0  0  0  0  0  0  0  0  0  0  0
   -1.2111   -1.6336   -2.2152 H   0  0  0  0  0  0  0  0  0  0  0  0
    0.5313    2.1465   -3.4893 H   0  0  0  0  0  0  0  0  0  0  0  0
   -0.3443    2.2654   -0.5136 H   0  0  0  0  0  0  0  0  0  0  0  0
    1.7003    4.4589   -2.4531 H   0  0  0  0  0  0  0  0  0  0  0  0
    1.3024    6.8725   -2.7656 H   0  0  0  0  0  0  0  0  0  0  0  0
   -0.9024    7.8653   -2.2046 H   0  0  0  0  0  0  0  0  0  0  0  0
   -2.7237    6.4275   -1.3564 H   0  0  0  0  0  0  0  0  0  0  0  0
   -2.3591    3.9975   -1.0423 H   0  0  0  0  0  0  0  0  0  0  0  0
    3.0307   -1.4618   -3.2632 H   0  0  0  0  0  0  0  0  0  0  0  0
    3.3365   -0.0783   -2.1699 H   0  0  0  0  0  0  0  0  0  0  0  0
    4.5869   -1.2951   -2.4698 H   0  0  0  0  0  0  0  0  0  0  0  0
    4.8458   -2.2108   -0.3486 H   0  0  0  0  0  0  0  0  0  0  0  0
    2.5565   -3.9326    0.7564 H   0  0  0  0  0  0  0  0  0  0  0  0
    3.1630   -3.2256    3.1112 H   0  0  0  0  0  0  0  0  0  0  0  0
    5.1587   -1.7293    3.4168 H   0  0  0  0  0  0  0  0  0  0  0  0
    5.0251   -1.2099    1.7404 H   0  0  0  0  0  0  0  0  0  0  0  0
    2.9080   -0.9088    3.9331 H   0  0  0  0  0  0  0  0  0  0  0  0
    3.9245    0.3675    3.2970 H   0  0  0  0  0  0  0  0  0  0  0  0
    1.9342    1.2056    0.4189 H   0  0  0  0  0  0  0  0  0  0  0  0
    3.2921    1.5861    1.4016 H   0  0  0  0  0  0  0  0  0  0  0  0
    3.4813    0.3430    0.1897 H   0  0  0  0  0  0  0  0  0  0  0  0
    1.1442   -2.0289    2.6623 H   0  0  0  0  0  0  0  0  0  0  0  0
    0.1583   -2.7175    0.9395 H   0  0  0  0  0  0  0  0  0  0  0  0
   -1.6851   -1.7155    1.9357 H   0  0  0  0  0  0  0  0  0  0  0  0
   -1.4535    2.6174    1.7016 H   0  0  0  0  0  0  0  0  0  0  0  0
   -3.0572    2.3325    2.4190 H   0  0  0  0  0  0  0  0  0  0  0  0
   -1.8455    2.2285    4.7173 H   0  0  0  0  0  0  0  0  0  0  0  0
   -0.3737    2.7183    3.8755 H   0  0  0  0  0  0  0  0  0  0  0  0
   -1.4848    4.6870    4.8658 H   0  0  0  0  0  0  0  0  0  0  0  0
   -2.9945    4.3109    4.0330 H   0  0  0  0  0  0  0  0  0  0  0  0
   -1.5675    4.8190    3.1051 H   0  0  0  0  0  0  0  0  0  0  0  0
    4.4940   -6.2386    1.4157 H   0  0  0  0  0  0  0  0  0  0  0  0
    4.8160   -5.7020    3.0806 H   0  0  0  0  0  0  0  0  0  0  0  0
    3.1826   -5.5923    2.4233 H   0  0  0  0  0  0  0  0  0  0  0  0
    6.2392   -4.5864    0.4008 H   0  0  0  0  0  0  0  0  0  0  0  0
    6.3717   -2.9384    1.0800 H   0  0  0  0  0  0  0  0  0  0  0  0
    6.6797   -4.3475    2.1105 H   0  0  0  0  0  0  0  0  0  0  0  0
  1  2  1  0
  2  3  1  0
  3  4  1  0
  4  5  2  0
  4  6  1  0
  6  7  1  0
  7  8  1  0
  8  9  1  0
  9 10  1  0
 10 11  1  1
 11 12  1  0
 12 13  2  0
 12 14  1  0
 14 15  2  0
 15 16  1  0
 16 17  2  0
 17 18  1  0
 18 19  2  0
 19 20  1  0
 20 21  2  0
 10 22  1  0
 22 23  2  0
 22 24  1  0
 24 25  1  0
 24 26  2  3
 26 27  1  0
 27 28  1  0
 28 29  1  0
 29 30  1  0
 30 31  1  0
 31 32  1  6
 31 33  1  0
 33 34  1  0
 34 35  1  0
 35 36  1  0
 36 37  1  0
 37 38  1  0
 38 39  2  0
 38 40  1  0
 40 41  1  0
 41 42  1  0
 28 43  1  0
 43 44  1  0
 43 45  1  0
 36  8  1  0
 35 10  1  0
 21 16  1  0
 43 27  1  0
 34 31  1  0
  1 46  1  0
  1 47  1  0
  1 48  1  0
  2 49  1  0
  2 50  1  0
  3 51  1  0
  3 52  1  0
  7 53  1  0
  7 54  1  0
  8 55  1  1
  9 56  1  0
  9 57  1  0
 14 58  1  0
 15 59  1  0
 17 60  1  0
 18 61  1  0
 19 62  1  0
 20 63  1  0
 21 64  1  0
 25 65  1  0
 25 66  1  0
 25 67  1  0
 26 68  1  0
 27 69  1  0
 28 70  1  1
 29 71  1  0
 29 72  1  0
 30 73  1  0
 30 74  1  0
 32 75  1  0
 32 76  1  0
 32 77  1  0
 34 78  1  1
 35 79  1  6
 36 80  1  1
 40 81  1  0
 40 82  1  0
 41 83  1  0
 41 84  1  0
 42 85  1  0
 42 86  1  0
 42 87  1  0
 44 88  1  0
 44 89  1  0
 44 90  1  0
 45 91  1  0
 45 92  1  0
 45 93  1  0
M  END
$$$$
