
     RDKit          3D

 40 41  0  0  0  0  0  0  0  0999 V2000
   -6.3498    3.0372   -0.0094 C   0  0  0  0  0  0  0  0  0  0  0  0
   -5.1550    3.2355   -0.7585 O   0  0  0  0  0  0  0  0  0  0  0  0
   -4.0167    2.6433   -0.2850 C   0  0  0  0  0  0  0  0  0  0  0  0
   -2.9102    2.7515   -1.1308 C   0  0  0  0  0  0  0  0  0  0  0  0
   -1.6813    2.1927   -0.7719 C   0  0  0  0  0  0  0  0  0  0  0  0
   -1.5439    1.5222    0.4474 C   0  0  0  0  0  0  0  0  0  0  0  0
   -0.2154    0.9394    0.7868 C   0  0  0  0  0  0  0  0  0  0  0  0
    0.7721    1.0388    0.0720 O   0  0  0  0  0  0  0  0  0  0  0  0
   -0.2638    0.2855    1.9729 O   0  0  0  0  0  0  0  0  0  0  0  0
    0.9619   -0.3269    2.3860 C   0  0  0  0  0  0  0  0  0  0  0  0
    1.1351   -1.7344    1.8180 C   0  0  0  0  0  0  0  0  0  0  0  0
    0.9483   -2.7422    2.4956 O   0  0  0  0  0  0  0  0  0  0  0  0
    1.5229   -1.7767    0.4969 N   0  0  0  0  0  0  0  0  0  0  0  0
    1.6988   -3.0421   -0.1942 C   0  0  0  0  0  0  0  0  0  0  0  0
    2.2797   -2.8877   -1.6066 C   0  0  0  0  0  0  0  0  0  0  0  0
    3.5915   -2.2553   -1.6099 N   0  0  0  0  0  0  0  0  0  0  0  0
    3.7768   -0.8965   -1.6961 C   0  0  0  0  0  0  0  0  0  0  0  0
    2.6813   -0.0986   -1.8296 O   0  0  0  0  0  0  0  0  0  0  0  0
    5.0545   -0.4982   -1.6301 C   0  0  0  0  0  0  0  0  0  0  0  0
    6.1228   -1.8564   -1.4285 S   0  0  0  0  0  0  0  0  0  0  0  0
    4.7507   -2.9908   -1.4370 C   0  0  0  0  0  0  0  0  0  0  0  0
    4.8665   -4.1972   -1.3035 O   0  0  0  0  0  0  0  0  0  0  0  0
   -2.6516    1.4190    1.3001 C   0  0  0  0  0  0  0  0  0  0  0  0
   -3.8831    1.9769    0.9329 C   0  0  0  0  0  0  0  0  0  0  0  0
   -6.5930    1.9731    0.0720 H   0  0  0  0  0  0  0  0  0  0  0  0
   -7.1690    3.5245   -0.5484 H   0  0  0  0  0  0  0  0  0  0  0  0
   -6.2775    3.5009    0.9797 H   0  0  0  0  0  0  0  0  0  0  0  0
   -3.0065    3.2746   -2.0807 H   0  0  0  0  0  0  0  0  0  0  0  0
   -0.8369    2.2842   -1.4534 H   0  0  0  0  0  0  0  0  0  0  0  0
    0.9371   -0.4034    3.4804 H   0  0  0  0  0  0  0  0  0  0  0  0
    1.8327    0.2881    2.1359 H   0  0  0  0  0  0  0  0  0  0  0  0
    1.5122   -0.9159   -0.0514 H   0  0  0  0  0  0  0  0  0  0  0  0
    2.3479   -3.6779    0.4281 H   0  0  0  0  0  0  0  0  0  0  0  0
    0.7123   -3.5296   -0.2459 H   0  0  0  0  0  0  0  0  0  0  0  0
    2.3767   -3.8831   -2.0553 H   0  0  0  0  0  0  0  0  0  0  0  0
    1.5987   -2.3114   -2.2482 H   0  0  0  0  0  0  0  0  0  0  0  0
    2.9517    0.8363   -1.7563 H   0  0  0  0  0  0  0  0  0  0  0  0
    5.4133    0.5210   -1.6801 H   0  0  0  0  0  0  0  0  0  0  0  0
   -2.5721    0.9063    2.2579 H   0  0  0  0  0  0  0  0  0  0  0  0
   -4.7196    1.8732    1.6213 H   0  0  0  0  0  0  0  0  0  0  0  0
  1  2  1  0
  2  3  1  0
  3  4  2  0
  4  5  1  0
  5  6  2  0
  6  7  1  0
  7  8  2  0
  7  9  1  0
  9 10  1  0
 10 11  1  0
 11 12  2  0
 11 13  1  0
 13 14  1  0
 14 15  1  0
 15 16  1  0
 16 17  1  0
 17 18  1  0
 17 19  2  0
 19 20  1  0
 20 21  1  0
 21 22  2  0
  6 23  1  0
 23 24  2  0
 24  3  1  0
 21 16  1  0
  1 25  1  0
  1 26  1  0
  1 27  1  0
  4 28  1  0
  5 29  1  0
 10 30  1  0
 10 31  1  0
 13 32  1  0
 14 33  1  0
 14 34  1  0
 15 35  1  0
 15 36  1  0
 18 37  1  0
 19 38  1  0
 23 39  1  0
 24 40  1  0
M  END
$$$$
