
     RDKit          3D

 58 61  0  0  0  0  0  0  0  0999 V2000
   -2.6628    6.2972    0.6550 C   0  0  0  0  0  0  0  0  0  0  0  0
   -1.9969    5.0637    0.4168 O   0  0  0  0  0  0  0  0  0  0  0  0
   -2.6304    3.9257    0.8362 C   0  0  0  0  0  0  0  0  0  0  0  0
   -3.8544    3.8655    1.4884 C   0  0  0  0  0  0  0  0  0  0  0  0
   -4.4008    2.6339    1.8676 C   0  0  0  0  0  0  0  0  0  0  0  0
   -3.6943    1.4495    1.5830 C   0  0  0  0  0  0  0  0  0  0  0  0
   -4.1793   -0.1552    1.9583 S   0  0  0  0  0  0  0  0  0  0  0  0
   -2.7730   -0.8345    1.2635 C   0  0  0  0  0  0  0  0  0  0  0  0
   -2.6074   -2.2934    1.3113 C   0  0  0  0  0  0  0  0  0  0  0  0
   -1.8307   -2.8474    2.3423 C   0  0  0  0  0  0  0  0  0  0  0  0
   -1.6383   -4.2251    2.4226 C   0  0  0  0  0  0  0  0  0  0  0  0
   -2.2179   -5.0599    1.4720 C   0  0  0  0  0  0  0  0  0  0  0  0
   -2.9890   -4.5217    0.4374 C   0  0  0  0  0  0  0  0  0  0  0  0
   -3.1904   -3.1393    0.3450 C   0  0  0  0  0  0  0  0  0  0  0  0
   -3.9166   -2.5265   -0.6455 O   0  0  0  0  0  0  0  0  0  0  0  0
   -4.5670   -3.3585   -1.5953 C   0  0  0  0  0  0  0  0  0  0  0  0
   -1.9312    0.1398    0.7525 C   0  0  0  0  0  0  0  0  0  0  0  0
   -0.6588   -0.2000    0.1261 C   0  0  0  0  0  0  0  0  0  0  0  0
    0.5433    0.1115    0.7692 C   0  0  0  0  0  0  0  0  0  0  0  0
    1.7692   -0.2050    0.1719 C   0  0  0  0  0  0  0  0  0  0  0  0
    1.8021   -0.8351   -1.0725 C   0  0  0  0  0  0  0  0  0  0  0  0
    2.9210   -1.1931   -1.7715 O   0  0  0  0  0  0  0  0  0  0  0  0
    4.1989   -1.0392   -1.1457 C   0  0  0  0  0  0  0  0  0  0  0  0
    4.7745    0.3621   -1.4153 C   0  0  0  0  0  0  0  0  0  0  0  0
    6.0359    0.6421   -0.7008 N   0  0  0  0  0  0  0  0  0  0  0  0
    7.1387   -0.1835   -1.1981 C   0  0  0  0  0  0  0  0  0  0  0  0
    6.3810    2.0602   -0.8400 C   0  0  0  0  0  0  0  0  0  0  0  0
    0.5982   -1.1364   -1.7161 C   0  0  0  0  0  0  0  0  0  0  0  0
   -0.6273   -0.8219   -1.1241 C   0  0  0  0  0  0  0  0  0  0  0  0
   -2.4602    1.4738    0.9322 C   0  0  0  0  0  0  0  0  0  0  0  0
   -1.9386    2.7405    0.5589 C   0  0  0  0  0  0  0  0  0  0  0  0
   -3.6233    6.3355    0.1306 H   0  0  0  0  0  0  0  0  0  0  0  0
   -2.0339    7.0990    0.2562 H   0  0  0  0  0  0  0  0  0  0  0  0
   -2.7897    6.4763    1.7278 H   0  0  0  0  0  0  0  0  0  0  0  0
   -4.4222    4.7602    1.7218 H   0  0  0  0  0  0  0  0  0  0  0  0
   -5.3604    2.5937    2.3756 H   0  0  0  0  0  0  0  0  0  0  0  0
   -1.3715   -2.2003    3.0863 H   0  0  0  0  0  0  0  0  0  0  0  0
   -1.0352   -4.6442    3.2236 H   0  0  0  0  0  0  0  0  0  0  0  0
   -2.0668   -6.1350    1.5315 H   0  0  0  0  0  0  0  0  0  0  0  0
   -3.4140   -5.2109   -0.2844 H   0  0  0  0  0  0  0  0  0  0  0  0
   -5.2883   -4.0248   -1.1108 H   0  0  0  0  0  0  0  0  0  0  0  0
   -3.8395   -3.9235   -2.1872 H   0  0  0  0  0  0  0  0  0  0  0  0
   -5.1217   -2.7115   -2.2816 H   0  0  0  0  0  0  0  0  0  0  0  0
    0.5348    0.6022    1.7400 H   0  0  0  0  0  0  0  0  0  0  0  0
    2.6745    0.0642    0.7058 H   0  0  0  0  0  0  0  0  0  0  0  0
    4.8461   -1.7920   -1.6095 H   0  0  0  0  0  0  0  0  0  0  0  0
    4.1685   -1.2879   -0.0784 H   0  0  0  0  0  0  0  0  0  0  0  0
    4.8937    0.5017   -2.4986 H   0  0  0  0  0  0  0  0  0  0  0  0
    4.0222    1.1002   -1.1102 H   0  0  0  0  0  0  0  0  0  0  0  0
    7.3044   -0.0489   -2.2731 H   0  0  0  0  0  0  0  0  0  0  0  0
    8.0696    0.0635   -0.6747 H   0  0  0  0  0  0  0  0  0  0  0  0
    6.9567   -1.2450   -1.0036 H   0  0  0  0  0  0  0  0  0  0  0  0
    6.5351    2.3476   -1.8864 H   0  0  0  0  0  0  0  0  0  0  0  0
    5.5906    2.6925   -0.4201 H   0  0  0  0  0  0  0  0  0  0  0  0
    7.2939    2.2914   -0.2797 H   0  0  0  0  0  0  0  0  0  0  0  0
    0.6136   -1.6228   -2.6882 H   0  0  0  0  0  0  0  0  0  0  0  0
   -1.5517   -1.0653   -1.6426 H   0  0  0  0  0  0  0  0  0  0  0  0
   -0.9829    2.7944    0.0420 H   0  0  0  0  0  0  0  0  0  0  0  0
  1  2  1  0
  2  3  1  0
  3  4  2  0
  4  5  1  0
  5  6  2  0
  6  7  1  0
  7  8  1  0
  8  9  1  0
  9 10  2  0
 10 11  1  0
 11 12  2  0
 12 13  1  0
 13 14  2  0
 14 15  1  0
 15 16  1  0
  8 17  2  0
 17 18  1  0
 18 19  2  0
 19 20  1  0
 20 21  2  0
 21 22  1  0
 22 23  1  0
 23 24  1  0
 24 25  1  0
 25 26  1  0
 25 27  1  0
 21 28  1  0
 28 29  2  0
 17 30  1  0
 30 31  2  0
 31  3  1  0
 30  6  1  0
 14  9  1  0
 29 18  1  0
  1 32  1  0
  1 33  1  0
  1 34  1  0
  4 35  1  0
  5 36  1  0
 10 37  1  0
 11 38  1  0
 12 39  1  0
 13 40  1  0
 16 41  1  0
 16 42  1  0
 16 43  1  0
 19 44  1  0
 20 45  1  0
 23 46  1  0
 23 47  1  0
 24 48  1  0
 24 49  1  0
 26 50  1  0
 26 51  1  0
 26 52  1  0
 27 53  1  0
 27 54  1  0
 27 55  1  0
 28 56  1  0
 29 57  1  0
 31 58  1  0
M  END
$$$$
