
     RDKit          3D

 41 42  0  0  0  0  0  0  0  0999 V2000
    0.9601    3.6113    2.5280 C   0  0  0  0  0  0  0  0  0  0  0  0
    0.9185    3.6536    1.0123 C   0  0  0  0  0  0  0  0  0  0  0  0
    0.4328    2.4024    0.4963 O   0  0  0  0  0  0  0  0  0  0  0  0
    1.3845    1.4178    0.3157 C   0  0  0  0  0  0  0  0  0  0  0  0
    2.5690    1.5939    0.5633 O   0  0  0  0  0  0  0  0  0  0  0  0
    0.7263    0.1335   -0.2721 C   0  0  0  0  0  0  0  0  0  0  0  0
   -0.7343    0.2288    0.0223 N   0  0  0  0  0  0  0  0  0  0  0  0
   -1.6373   -0.7055   -0.4176 C   0  0  0  0  0  0  0  0  0  0  0  0
   -1.2857   -1.7917   -0.8592 O   0  0  0  0  0  0  0  0  0  0  0  0
   -3.0770   -0.3463   -0.3344 C   0  0  0  0  0  0  0  0  0  0  0  0
   -3.5631    0.5595    0.6191 C   0  0  0  0  0  0  0  0  0  0  0  0
   -4.9256    0.8643    0.6609 C   0  0  0  0  0  0  0  0  0  0  0  0
   -5.8033    0.2624   -0.2415 C   0  0  0  0  0  0  0  0  0  0  0  0
   -5.3189   -0.6494   -1.1787 C   0  0  0  0  0  0  0  0  0  0  0  0
   -6.4078   -1.3947   -2.2825 Cl  0  0  0  0  0  0  0  0  0  0  0  0
   -3.9622   -0.9609   -1.2281 C   0  0  0  0  0  0  0  0  0  0  0  0
    1.1327   -1.0883    0.4518 N   0  0  0  0  0  0  0  0  0  0  0  0
    2.3516   -1.6330    0.2176 C   0  0  0  0  0  0  0  0  0  0  0  0
    3.4009   -1.0332   -0.2938 N   0  0  0  0  0  0  0  0  0  0  0  0
    4.4862   -1.8720   -0.4384 N   0  0  0  0  0  0  0  0  0  0  0  0
    4.2249   -3.0903   -0.0205 C   0  0  0  0  0  0  0  0  0  0  0  0
    5.1853   -4.2206   -0.0395 C   0  0  0  0  0  0  0  0  0  0  0  0
    2.6289   -3.2990    0.5703 S   0  0  0  0  0  0  0  0  0  0  0  0
    1.0305    0.2129   -1.8044 C   0  0  0  0  0  0  0  0  0  0  0  0
    2.2774    0.6260   -2.1111 F   0  0  0  0  0  0  0  0  0  0  0  0
    0.8313   -0.9684   -2.4372 F   0  0  0  0  0  0  0  0  0  0  0  0
    0.1845    1.1086   -2.3945 F   0  0  0  0  0  0  0  0  0  0  0  0
   -0.0251    3.3563    2.9323 H   0  0  0  0  0  0  0  0  0  0  0  0
    1.2692    4.5783    2.9347 H   0  0  0  0  0  0  0  0  0  0  0  0
    1.6569    2.8448    2.8816 H   0  0  0  0  0  0  0  0  0  0  0  0
    0.2145    4.4259    0.6855 H   0  0  0  0  0  0  0  0  0  0  0  0
    1.8954    3.9095    0.5869 H   0  0  0  0  0  0  0  0  0  0  0  0
   -1.0586    1.1804    0.1561 H   0  0  0  0  0  0  0  0  0  0  0  0
   -2.9049    1.0145    1.3546 H   0  0  0  0  0  0  0  0  0  0  0  0
   -5.3068    1.5630    1.4025 H   0  0  0  0  0  0  0  0  0  0  0  0
   -6.8637    0.5007   -0.2043 H   0  0  0  0  0  0  0  0  0  0  0  0
   -3.5924   -1.6764   -1.9599 H   0  0  0  0  0  0  0  0  0  0  0  0
    0.3849   -1.7802    0.3965 H   0  0  0  0  0  0  0  0  0  0  0  0
    4.8126   -5.0383   -0.6644 H   0  0  0  0  0  0  0  0  0  0  0  0
    5.3587   -4.6021    0.9717 H   0  0  0  0  0  0  0  0  0  0  0  0
    6.1488   -3.8982   -0.4471 H   0  0  0  0  0  0  0  0  0  0  0  0
  1  2  1  0
  2  3  1  0
  3  4  1  0
  4  5  2  0
  4  6  1  0
  6  7  1  0
  7  8  1  0
  8  9  2  0
  8 10  1  0
 10 11  2  0
 11 12  1  0
 12 13  2  0
 13 14  1  0
 14 15  1  0
 14 16  2  0
  6 17  1  0
 17 18  1  0
 18 19  2  0
 19 20  1  0
 20 21  2  0
 21 22  1  0
 21 23  1  0
  6 24  1  0
 24 25  1  0
 24 26  1  0
 24 27  1  0
 16 10  1  0
 23 18  1  0
  1 28  1  0
  1 29  1  0
  1 30  1  0
  2 31  1  0
  2 32  1  0
  7 33  1  0
 11 34  1  0
 12 35  1  0
 13 36  1  0
 16 37  1  0
 17 38  1  0
 22 39  1  0
 22 40  1  0
 22 41  1  0
M  END
$$$$
