
     RDKit          3D

 58 62  0  0  0  0  0  0  0  0999 V2000
    6.5947   -1.4655    4.3916 C   0  0  0  0  0  0  0  0  0  0  0  0
    6.4233   -0.5937    3.2815 O   0  0  0  0  0  0  0  0  0  0  0  0
    5.1390   -0.2978    2.8986 C   0  0  0  0  0  0  0  0  0  0  0  0
    3.9950   -0.8695    3.4639 C   0  0  0  0  0  0  0  0  0  0  0  0
    2.7251   -0.5053    3.0059 C   0  0  0  0  0  0  0  0  0  0  0  0
    2.5729    0.4318    1.9766 C   0  0  0  0  0  0  0  0  0  0  0  0
    1.2318    0.7970    1.5272 C   0  0  0  0  0  0  0  0  0  0  0  0
    0.0586    0.4776    2.0407 N   0  0  0  0  0  0  0  0  0  0  0  0
   -0.8647    1.0940    1.2144 C   0  0  0  0  0  0  0  0  0  0  0  0
   -2.3168    0.9726    1.5218 C   0  0  0  0  0  0  0  0  0  0  0  0
   -3.1441    0.8507    0.3318 N   0  0  0  0  0  0  0  0  0  0  0  0
   -3.3652   -0.2788   -0.4181 C   0  0  0  0  0  0  0  0  0  0  0  0
   -2.6595   -1.8158   -0.0384 S   0  0  0  0  0  0  0  0  0  0  0  0
   -3.4427   -2.9041   -1.2565 C   0  0  0  0  0  0  0  0  0  0  0  0
   -2.6123   -3.0879   -2.5038 C   0  0  0  0  0  0  0  0  0  0  0  0
   -2.8225   -2.2781   -3.6316 C   0  0  0  0  0  0  0  0  0  0  0  0
   -2.0635   -2.4575   -4.7904 C   0  0  0  0  0  0  0  0  0  0  0  0
   -1.0777   -3.4412   -4.8312 C   0  0  0  0  0  0  0  0  0  0  0  0
   -0.8578   -4.2349   -3.7129 C   0  0  0  0  0  0  0  0  0  0  0  0
    0.0906   -5.1797   -3.7512 F   0  0  0  0  0  0  0  0  0  0  0  0
   -1.6110   -4.0692   -2.5562 C   0  0  0  0  0  0  0  0  0  0  0  0
   -4.1706   -0.0435   -1.4303 N   0  0  0  0  0  0  0  0  0  0  0  0
   -4.5198    1.2774   -1.3196 C   0  0  0  0  0  0  0  0  0  0  0  0
   -5.3625    2.0389   -2.1284 C   0  0  0  0  0  0  0  0  0  0  0  0
   -5.5261    3.3604   -1.7471 C   0  0  0  0  0  0  0  0  0  0  0  0
   -4.9345    3.9351   -0.6727 N   0  0  0  0  0  0  0  0  0  0  0  0
   -4.1203    3.1942    0.1130 C   0  0  0  0  0  0  0  0  0  0  0  0
   -3.9082    1.8624   -0.2158 C   0  0  0  0  0  0  0  0  0  0  0  0
   -0.1904    1.7806    0.2216 C   0  0  0  0  0  0  0  0  0  0  0  0
   -0.5692    2.6073   -0.9375 C   0  0  0  0  0  0  0  0  0  0  0  0
    1.1497    1.5981    0.4200 O   0  0  0  0  0  0  0  0  0  0  0  0
    3.7252    0.9973    1.4056 C   0  0  0  0  0  0  0  0  0  0  0  0
    5.0035    0.6381    1.8532 C   0  0  0  0  0  0  0  0  0  0  0  0
    6.1728    1.1477    1.3443 O   0  0  0  0  0  0  0  0  0  0  0  0
    6.0835    2.0019    0.2114 C   0  0  0  0  0  0  0  0  0  0  0  0
    6.2220   -2.4703    4.1631 H   0  0  0  0  0  0  0  0  0  0  0  0
    6.1202   -1.0599    5.2931 H   0  0  0  0  0  0  0  0  0  0  0  0
    7.6675   -1.5457    4.5900 H   0  0  0  0  0  0  0  0  0  0  0  0
    4.0536   -1.6085    4.2584 H   0  0  0  0  0  0  0  0  0  0  0  0
    1.8461   -0.9674    3.4553 H   0  0  0  0  0  0  0  0  0  0  0  0
   -2.5155    0.1037    2.1584 H   0  0  0  0  0  0  0  0  0  0  0  0
   -2.6478    1.8526    2.0856 H   0  0  0  0  0  0  0  0  0  0  0  0
   -3.5850   -3.8810   -0.7824 H   0  0  0  0  0  0  0  0  0  0  0  0
   -4.4551   -2.5622   -1.5075 H   0  0  0  0  0  0  0  0  0  0  0  0
   -3.5845   -1.4994   -3.6102 H   0  0  0  0  0  0  0  0  0  0  0  0
   -2.2388   -1.8260   -5.6589 H   0  0  0  0  0  0  0  0  0  0  0  0
   -0.4804   -3.5943   -5.7256 H   0  0  0  0  0  0  0  0  0  0  0  0
   -1.4093   -4.7097   -1.6989 H   0  0  0  0  0  0  0  0  0  0  0  0
   -5.8597    1.6189   -2.9923 H   0  0  0  0  0  0  0  0  0  0  0  0
   -6.1695    4.0219   -2.3220 H   0  0  0  0  0  0  0  0  0  0  0  0
   -3.6688    3.6960    0.9581 H   0  0  0  0  0  0  0  0  0  0  0  0
   -1.1053    2.0082   -1.6809 H   0  0  0  0  0  0  0  0  0  0  0  0
   -1.2053    3.4398   -0.6257 H   0  0  0  0  0  0  0  0  0  0  0  0
    0.3173    3.0334   -1.4231 H   0  0  0  0  0  0  0  0  0  0  0  0
    3.6040    1.7227    0.6080 H   0  0  0  0  0  0  0  0  0  0  0  0
    7.1003    2.2625   -0.0932 H   0  0  0  0  0  0  0  0  0  0  0  0
    5.5601    2.9328    0.4610 H   0  0  0  0  0  0  0  0  0  0  0  0
    5.6077    1.4911   -0.6300 H   0  0  0  0  0  0  0  0  0  0  0  0
  1  2  1  0
  2  3  1  0
  3  4  2  0
  4  5  1  0
  5  6  2  0
  6  7  1  0
  7  8  2  0
  8  9  1  0
  9 10  1  0
 10 11  1  0
 11 12  1  0
 12 13  1  0
 13 14  1  0
 14 15  1  0
 15 16  2  0
 16 17  1  0
 17 18  2  0
 18 19  1  0
 19 20  1  0
 19 21  2  0
 12 22  2  0
 22 23  1  0
 23 24  2  0
 24 25  1  0
 25 26  2  0
 26 27  1  0
 27 28  2  0
  9 29  2  0
 29 30  1  0
 29 31  1  0
  6 32  1  0
 32 33  2  0
 33 34  1  0
 34 35  1  0
 33  3  1  0
 31  7  1  0
 28 11  1  0
 21 15  1  0
 28 23  1  0
  1 36  1  0
  1 37  1  0
  1 38  1  0
  4 39  1  0
  5 40  1  0
 10 41  1  0
 10 42  1  0
 14 43  1  0
 14 44  1  0
 16 45  1  0
 17 46  1  0
 18 47  1  0
 21 48  1  0
 24 49  1  0
 25 50  1  0
 27 51  1  0
 30 52  1  0
 30 53  1  0
 30 54  1  0
 32 55  1  0
 35 56  1  0
 35 57  1  0
 35 58  1  0
M  END
$$$$
