
     RDKit          3D

 59 62  0  0  0  0  0  0  0  0999 V2000
   10.1202    2.5400   -0.0815 C   0  0  0  0  0  0  0  0  0  0  0  0
    8.8578    2.8921    0.4726 O   0  0  0  0  0  0  0  0  0  0  0  0
    7.7871    2.1249    0.1075 C   0  0  0  0  0  0  0  0  0  0  0  0
    6.5727    2.5053    0.6838 C   0  0  0  0  0  0  0  0  0  0  0  0
    5.3917    1.8095    0.4008 C   0  0  0  0  0  0  0  0  0  0  0  0
    5.4168    0.7140   -0.4687 C   0  0  0  0  0  0  0  0  0  0  0  0
    4.1890   -0.0719   -0.8125 C   0  0  0  0  0  0  0  0  0  0  0  0
    4.2787   -0.9412   -1.6778 O   0  0  0  0  0  0  0  0  0  0  0  0
    2.9026    0.2710   -0.0804 C   0  0  0  0  0  0  0  0  0  0  0  0
    1.5743   -0.9183   -0.4264 S   0  0  0  0  0  0  0  0  0  0  0  0
    0.3048   -0.2347    0.5273 C   0  0  0  0  0  0  0  0  0  0  0  0
    0.3766    0.8972    1.1874 N   0  0  0  0  0  0  0  0  0  0  0  0
   -0.8249    1.0915    1.8146 N   0  0  0  0  0  0  0  0  0  0  0  0
   -1.6124    0.0710    1.5258 C   0  0  0  0  0  0  0  0  0  0  0  0
   -3.0061   -0.1062    2.0379 C   0  0  0  0  0  0  0  0  0  0  0  0
   -4.0157   -0.6181    1.1079 N   0  0  0  0  0  0  0  0  0  0  0  0
   -4.5528    0.1854    0.0899 C   0  0  0  0  0  0  0  0  0  0  0  0
   -3.9997    1.4172   -0.2866 C   0  0  0  0  0  0  0  0  0  0  0  0
   -4.5237    2.1643   -1.3477 C   0  0  0  0  0  0  0  0  0  0  0  0
   -5.6012    1.6840   -2.0887 C   0  0  0  0  0  0  0  0  0  0  0  0
   -6.1896    2.4993   -3.2013 C   0  0  0  0  0  0  0  0  0  0  0  0
   -6.1532    0.4485   -1.7429 C   0  0  0  0  0  0  0  0  0  0  0  0
   -5.6293   -0.3130   -0.6804 C   0  0  0  0  0  0  0  0  0  0  0  0
   -6.2521   -1.6537   -0.3895 C   0  0  0  0  0  0  0  0  0  0  0  0
   -0.9292   -0.8013    0.7027 N   0  0  0  0  0  0  0  0  0  0  0  0
   -1.4273   -2.0355    0.1259 C   0  0  0  0  0  0  0  0  0  0  0  0
   -1.5978   -3.0907    1.1574 C   0  0  0  0  0  0  0  0  0  0  0  0
   -2.6809   -3.8353    1.5804 C   0  0  0  0  0  0  0  0  0  0  0  0
   -2.2024   -4.6961    2.5974 C   0  0  0  0  0  0  0  0  0  0  0  0
   -0.8600   -4.4294    2.7255 C   0  0  0  0  0  0  0  0  0  0  0  0
   -0.4835   -3.4593    1.8541 O   0  0  0  0  0  0  0  0  0  0  0  0
    6.6362    0.3363   -1.0485 C   0  0  0  0  0  0  0  0  0  0  0  0
    7.8146    1.0365   -0.7627 C   0  0  0  0  0  0  0  0  0  0  0  0
   10.1155    2.6457   -1.1713 H   0  0  0  0  0  0  0  0  0  0  0  0
   10.4154    1.5291    0.2176 H   0  0  0  0  0  0  0  0  0  0  0  0
   10.8655    3.2347    0.3171 H   0  0  0  0  0  0  0  0  0  0  0  0
    6.5457    3.3567    1.3618 H   0  0  0  0  0  0  0  0  0  0  0  0
    4.4754    2.1538    0.8715 H   0  0  0  0  0  0  0  0  0  0  0  0
    3.0928    0.2583    0.9978 H   0  0  0  0  0  0  0  0  0  0  0  0
    2.5799    1.2664   -0.4018 H   0  0  0  0  0  0  0  0  0  0  0  0
   -3.3587    0.8340    2.4799 H   0  0  0  0  0  0  0  0  0  0  0  0
   -2.9480   -0.8129    2.8753 H   0  0  0  0  0  0  0  0  0  0  0  0
   -4.7679   -1.0811    1.6129 H   0  0  0  0  0  0  0  0  0  0  0  0
   -3.1524    1.8459    0.2411 H   0  0  0  0  0  0  0  0  0  0  0  0
   -4.0737    3.1250   -1.5887 H   0  0  0  0  0  0  0  0  0  0  0  0
   -5.4311    3.1422   -3.6597 H   0  0  0  0  0  0  0  0  0  0  0  0
   -6.9995    3.1267   -2.8167 H   0  0  0  0  0  0  0  0  0  0  0  0
   -6.5863    1.8525   -3.9908 H   0  0  0  0  0  0  0  0  0  0  0  0
   -6.9980    0.0671   -2.3139 H   0  0  0  0  0  0  0  0  0  0  0  0
   -5.4878   -2.4375   -0.3838 H   0  0  0  0  0  0  0  0  0  0  0  0
   -6.9910   -1.9292   -1.1494 H   0  0  0  0  0  0  0  0  0  0  0  0
   -6.7621   -1.6307    0.5785 H   0  0  0  0  0  0  0  0  0  0  0  0
   -0.7348   -2.3899   -0.6425 H   0  0  0  0  0  0  0  0  0  0  0  0
   -2.3636   -1.8168   -0.3938 H   0  0  0  0  0  0  0  0  0  0  0  0
   -3.6902   -3.7646    1.1972 H   0  0  0  0  0  0  0  0  0  0  0  0
   -2.7633   -5.4268    3.1631 H   0  0  0  0  0  0  0  0  0  0  0  0
   -0.0724   -4.8241    3.3528 H   0  0  0  0  0  0  0  0  0  0  0  0
    6.6779   -0.5114   -1.7314 H   0  0  0  0  0  0  0  0  0  0  0  0
    8.7315    0.7037   -1.2382 H   0  0  0  0  0  0  0  0  0  0  0  0
  1  2  1  0
  2  3  1  0
  3  4  2  0
  4  5  1  0
  5  6  2  0
  6  7  1  0
  7  8  2  0
  7  9  1  0
  9 10  1  0
 10 11  1  0
 11 12  2  0
 12 13  1  0
 13 14  2  0
 14 15  1  0
 15 16  1  0
 16 17  1  0
 17 18  2  0
 18 19  1  0
 19 20  2  0
 20 21  1  0
 20 22  1  0
 22 23  2  0
 23 24  1  0
 14 25  1  0
 25 26  1  0
 26 27  1  0
 27 28  2  0
 28 29  1  0
 29 30  2  0
 30 31  1  0
  6 32  1  0
 32 33  2  0
 33  3  1  0
 25 11  1  0
 31 27  1  0
 23 17  1  0
  1 34  1  0
  1 35  1  0
  1 36  1  0
  4 37  1  0
  5 38  1  0
  9 39  1  0
  9 40  1  0
 15 41  1  0
 15 42  1  0
 16 43  1  0
 18 44  1  0
 19 45  1  0
 21 46  1  0
 21 47  1  0
 21 48  1  0
 22 49  1  0
 24 50  1  0
 24 51  1  0
 24 52  1  0
 26 53  1  0
 26 54  1  0
 28 55  1  0
 29 56  1  0
 30 57  1  0
 32 58  1  0
 33 59  1  0
M  END
$$$$
