
     RDKit          3D

 43 46  0  0  0  0  0  0  0  0999 V2000
    6.3980    2.1454   -0.7665 C   0  0  0  0  0  0  0  0  0  0  0  0
    5.0266    1.5368   -0.7188 C   0  0  0  0  0  0  0  0  0  0  0  0
    4.6802    0.6476    0.3029 C   0  0  0  0  0  0  0  0  0  0  0  0
    3.3934    0.1031    0.3688 C   0  0  0  0  0  0  0  0  0  0  0  0
    2.4337    0.4524   -0.5815 C   0  0  0  0  0  0  0  0  0  0  0  0
    0.9852   -0.1530   -0.5220 C   0  0  0  0  0  0  0  0  0  0  0  0
   -0.0348    0.0596   -1.4419 C   0  0  0  0  0  0  0  0  0  0  0  0
   -1.1600   -0.6686   -1.0514 N   0  0  0  0  0  4  0  0  0  0  0  0
   -2.4384   -0.7435   -1.7549 C   0  0  0  0  0  0  0  0  0  0  0  0
   -3.5331   -0.1760   -0.8885 C   0  0  0  0  0  0  0  0  0  0  0  0
   -4.7300   -0.8866   -0.7032 C   0  0  0  0  0  0  0  0  0  0  0  0
   -5.7525   -0.3631    0.0923 C   0  0  0  0  0  0  0  0  0  0  0  0
   -5.5961    0.8787    0.7067 C   0  0  0  0  0  0  0  0  0  0  0  0
   -4.4200    1.5975    0.5168 C   0  0  0  0  0  0  0  0  0  0  0  0
   -4.2177    3.1290    1.2708 Cl  0  0  0  0  0  0  0  0  0  0  0  0
   -3.3963    1.0825   -0.2794 C   0  0  0  0  0  0  0  0  0  0  0  0
   -0.8451   -1.3103    0.0696 C   0  0  0  0  0  0  0  0  0  0  0  0
    0.4054   -1.0035    0.4025 N   0  0  0  0  0  0  0  0  0  0  0  0
    0.8156   -1.6547    1.6384 C   0  0  0  0  0  0  0  0  0  0  0  0
   -0.5124   -2.2191    2.2126 C   0  0  0  0  0  0  0  0  0  0  0  0
   -1.4897   -2.2452    1.0208 C   0  0  0  0  0  0  0  0  0  0  0  0
    2.7722    1.3505   -1.6004 C   0  0  0  0  0  0  0  0  0  0  0  0
    4.0593    1.8931   -1.6626 C   0  0  0  0  0  0  0  0  0  0  0  0
    6.4162    3.0718   -0.1843 H   0  0  0  0  0  0  0  0  0  0  0  0
    7.1454    1.4561   -0.3596 H   0  0  0  0  0  0  0  0  0  0  0  0
    6.6903    2.3690   -1.7979 H   0  0  0  0  0  0  0  0  0  0  0  0
    5.4172    0.3706    1.0554 H   0  0  0  0  0  0  0  0  0  0  0  0
    3.1860   -0.5934    1.1701 H   0  0  0  0  0  0  0  0  0  0  0  0
   -0.1016    0.6404   -2.3463 H   0  0  0  0  0  0  0  0  0  0  0  0
   -2.6201   -1.7975   -1.9938 H   0  0  0  0  0  0  0  0  0  0  0  0
   -2.3815   -0.1844   -2.6951 H   0  0  0  0  0  0  0  0  0  0  0  0
   -4.8869   -1.8544   -1.1782 H   0  0  0  0  0  0  0  0  0  0  0  0
   -6.6781   -0.9196    0.2295 H   0  0  0  0  0  0  0  0  0  0  0  0
   -6.3966    1.2821    1.3228 H   0  0  0  0  0  0  0  0  0  0  0  0
   -2.4914    1.6693   -0.4207 H   0  0  0  0  0  0  0  0  0  0  0  0
    1.2663   -0.9377    2.3282 H   0  0  0  0  0  0  0  0  0  0  0  0
    1.5154   -2.4601    1.3974 H   0  0  0  0  0  0  0  0  0  0  0  0
   -0.3882   -3.1983    2.6828 H   0  0  0  0  0  0  0  0  0  0  0  0
   -0.8931   -1.5273    2.9734 H   0  0  0  0  0  0  0  0  0  0  0  0
   -1.5249   -3.2183    0.5268 H   0  0  0  0  0  0  0  0  0  0  0  0
   -2.4835   -1.8795    1.2772 H   0  0  0  0  0  0  0  0  0  0  0  0
    2.0603    1.6595   -2.3598 H   0  0  0  0  0  0  0  0  0  0  0  0
    4.3055    2.5988   -2.4548 H   0  0  0  0  0  0  0  0  0  0  0  0
  1  2  1  0
  2  3  2  0
  3  4  1  0
  4  5  2  0
  5  6  1  0
  6  7  2  0
  7  8  1  0
  8  9  1  0
  9 10  1  0
 10 11  2  0
 11 12  1  0
 12 13  2  0
 13 14  1  0
 14 15  1  0
 14 16  2  0
  8 17  2  0
 17 18  1  0
 18 19  1  0
 19 20  1  0
 20 21  1  0
  5 22  1  0
 22 23  2  0
 23  2  1  0
 18  6  1  0
 16 10  1  0
 21 17  1  0
  1 24  1  0
  1 25  1  0
  1 26  1  0
  3 27  1  0
  4 28  1  0
  7 29  1  0
  9 30  1  0
  9 31  1  0
 11 32  1  0
 12 33  1  0
 13 34  1  0
 16 35  1  0
 19 36  1  0
 19 37  1  0
 20 38  1  0
 20 39  1  0
 21 40  1  0
 21 41  1  0
 22 42  1  0
 23 43  1  0
M  CHG  1   8   1
M  END
$$$$
