
     RDKit          3D

 33 34  0  0  0  0  0  0  0  0999 V2000
   -5.1229   -1.4161   -0.4793 C   0  0  0  0  0  0  0  0  0  0  0  0
   -5.0062    0.0583   -0.8242 C   0  0  0  0  0  0  0  0  0  0  0  0
   -4.1756    0.7345    0.1180 O   0  0  0  0  0  0  0  0  0  0  0  0
   -2.8325    0.8117   -0.1176 C   0  0  0  0  0  0  0  0  0  0  0  0
   -2.1313    0.1677   -1.1372 C   0  0  0  0  0  0  0  0  0  0  0  0
   -0.7445    0.3324   -1.2561 C   0  0  0  0  0  0  0  0  0  0  0  0
   -0.0480    1.1375   -0.3467 C   0  0  0  0  0  0  0  0  0  0  0  0
    1.4245    1.3430   -0.4358 C   0  0  0  0  0  0  0  0  0  0  0  0
    1.9327    2.3627    0.0167 O   0  0  0  0  0  0  0  0  0  0  0  0
    2.1489    0.3220   -1.0123 N   0  0  0  0  0  0  0  0  0  0  0  0
    3.5949    0.3343   -0.9947 C   0  0  0  0  0  0  0  0  0  0  0  0
    4.0552   -0.4258    0.1924 C   0  0  0  0  0  0  0  0  0  0  0  0
    4.3603   -0.0617    1.4877 C   0  0  0  0  0  0  0  0  0  0  0  0
    4.7310   -1.2506    2.1596 C   0  0  0  0  0  0  0  0  0  0  0  0
    4.6243   -2.2628    1.2350 C   0  0  0  0  0  0  0  0  0  0  0  0
    4.2103   -1.7735    0.0375 O   0  0  0  0  0  0  0  0  0  0  0  0
   -0.7522    1.7917    0.6682 C   0  0  0  0  0  0  0  0  0  0  0  0
   -2.1342    1.6214    0.7827 C   0  0  0  0  0  0  0  0  0  0  0  0
   -5.4841   -1.5418    0.5469 H   0  0  0  0  0  0  0  0  0  0  0  0
   -5.8166   -1.9183   -1.1597 H   0  0  0  0  0  0  0  0  0  0  0  0
   -4.1532   -1.9193   -0.5370 H   0  0  0  0  0  0  0  0  0  0  0  0
   -6.0005    0.5118   -0.7407 H   0  0  0  0  0  0  0  0  0  0  0  0
   -4.6886    0.2225   -1.8597 H   0  0  0  0  0  0  0  0  0  0  0  0
   -2.6288   -0.4714   -1.8587 H   0  0  0  0  0  0  0  0  0  0  0  0
   -0.2306   -0.1563   -2.0790 H   0  0  0  0  0  0  0  0  0  0  0  0
    1.7177   -0.5867   -1.1068 H   0  0  0  0  0  0  0  0  0  0  0  0
    3.9737    1.3610   -0.9756 H   0  0  0  0  0  0  0  0  0  0  0  0
    3.9384   -0.1446   -1.9170 H   0  0  0  0  0  0  0  0  0  0  0  0
    4.3097    0.9414    1.8899 H   0  0  0  0  0  0  0  0  0  0  0  0
    5.0343   -1.3577    3.1914 H   0  0  0  0  0  0  0  0  0  0  0  0
    4.7954   -3.3297    1.2699 H   0  0  0  0  0  0  0  0  0  0  0  0
   -0.2286    2.4324    1.3748 H   0  0  0  0  0  0  0  0  0  0  0  0
   -2.6726    2.1298    1.5796 H   0  0  0  0  0  0  0  0  0  0  0  0
  1  2  1  0
  2  3  1  0
  3  4  1  0
  4  5  2  0
  5  6  1  0
  6  7  2  0
  7  8  1  0
  8  9  2  0
  8 10  1  0
 10 11  1  0
 11 12  1  0
 12 13  2  0
 13 14  1  0
 14 15  2  0
 15 16  1  0
  7 17  1  0
 17 18  2  0
 18  4  1  0
 16 12  1  0
  1 19  1  0
  1 20  1  0
  1 21  1  0
  2 22  1  0
  2 23  1  0
  5 24  1  0
  6 25  1  0
 10 26  1  0
 11 27  1  0
 11 28  1  0
 13 29  1  0
 14 30  1  0
 15 31  1  0
 17 32  1  0
 18 33  1  0
M  END
$$$$
