
     RDKit          3D

 33 34  0  0  0  0  0  0  0  0999 V2000
   -1.7768    4.1802    0.4751 C   0  0  0  0  0  0  0  0  0  0  0  0
   -1.0030    3.0090    0.2150 O   0  0  0  0  0  0  0  0  0  0  0  0
   -0.5206    2.4226    1.3363 C   0  0  0  0  0  0  0  0  0  0  0  0
   -0.5721    2.8378    2.4801 O   0  0  0  0  0  0  0  0  0  0  0  0
    0.2434    1.2349    0.9370 C   0  0  0  0  0  0  0  0  0  0  0  0
    1.6051    1.2492    1.2326 C   0  0  0  0  0  0  0  0  0  0  0  0
    2.3580    0.1804    0.8064 C   0  0  0  0  0  0  0  0  0  0  0  0
    3.7041    0.2207    1.0982 O   0  0  0  0  0  0  0  0  0  0  0  0
    4.4136   -0.9311    0.6523 C   0  0  0  0  0  0  0  0  0  0  0  0
    1.8455   -0.8598    0.1187 N   0  0  0  0  0  0  0  0  0  0  0  0
    0.5135   -0.8674   -0.1462 C   0  0  0  0  0  0  0  0  0  0  0  0
   -0.3262    0.1501    0.2655 C   0  0  0  0  0  0  0  0  0  0  0  0
   -1.7658    0.0062    0.0207 C   0  0  0  0  0  0  0  0  0  0  0  0
   -2.5638    0.7202    0.6194 O   0  0  0  0  0  0  0  0  0  0  0  0
   -2.1495   -0.9962   -0.8568 N   0  0  0  0  0  0  0  0  0  0  0  0
   -3.5610   -1.1008   -1.1814 C   0  0  0  0  0  0  0  0  0  0  0  0
   -1.3294   -2.0467   -1.2461 C   0  0  0  0  0  0  0  0  0  0  0  0
   -1.7681   -3.0075   -1.8810 O   0  0  0  0  0  0  0  0  0  0  0  0
   -0.0039   -1.9630   -0.8662 N   0  0  0  0  0  0  0  0  0  0  0  0
    0.9264   -3.0172   -1.2447 C   0  0  0  0  0  0  0  0  0  0  0  0
   -1.1464    4.9650    0.9048 H   0  0  0  0  0  0  0  0  0  0  0  0
   -2.1782    4.5389   -0.4767 H   0  0  0  0  0  0  0  0  0  0  0  0
   -2.6165    3.9496    1.1391 H   0  0  0  0  0  0  0  0  0  0  0  0
    2.0633    2.0747    1.7679 H   0  0  0  0  0  0  0  0  0  0  0  0
    4.3748   -1.0230   -0.4386 H   0  0  0  0  0  0  0  0  0  0  0  0
    4.0390   -1.8396    1.1367 H   0  0  0  0  0  0  0  0  0  0  0  0
    5.4622   -0.8082    0.9393 H   0  0  0  0  0  0  0  0  0  0  0  0
   -4.0314   -1.7824   -0.4657 H   0  0  0  0  0  0  0  0  0  0  0  0
   -4.0536   -0.1257   -1.1234 H   0  0  0  0  0  0  0  0  0  0  0  0
   -3.6932   -1.5016   -2.1911 H   0  0  0  0  0  0  0  0  0  0  0  0
    1.6865   -2.6052   -1.9165 H   0  0  0  0  0  0  0  0  0  0  0  0
    0.4232   -3.8375   -1.7638 H   0  0  0  0  0  0  0  0  0  0  0  0
    1.4008   -3.4263   -0.3466 H   0  0  0  0  0  0  0  0  0  0  0  0
  1  2  1  0
  2  3  1  0
  3  4  2  0
  3  5  1  0
  5  6  2  0
  6  7  1  0
  7  8  1  0
  8  9  1  0
  7 10  2  0
 10 11  1  0
 11 12  2  0
 12 13  1  0
 13 14  2  0
 13 15  1  0
 15 16  1  0
 15 17  1  0
 17 18  2  0
 17 19  1  0
 19 20  1  0
 12  5  1  0
 19 11  1  0
  1 21  1  0
  1 22  1  0
  1 23  1  0
  6 24  1  0
  9 25  1  0
  9 26  1  0
  9 27  1  0
 16 28  1  0
 16 29  1  0
 16 30  1  0
 20 31  1  0
 20 32  1  0
 20 33  1  0
M  END
$$$$
