
     RDKit          3D

 60 65  0  0  0  0  0  0  0  0999 V2000
    2.3285    3.4922   -3.1452 O   0  0  0  0  0  0  0  0  0  0  0  0
    2.6199    2.4286   -2.6110 C   0  0  0  0  0  0  0  0  0  0  0  0
    1.6533    1.5789   -2.0839 N   0  0  0  0  0  0  0  0  0  0  0  0
    1.9319    0.3710   -1.4543 C   0  0  0  0  0  0  0  0  0  0  0  0
    0.7442   -0.4373   -0.9428 C   0  0  0  0  0  0  0  0  0  0  0  0
   -0.0964    0.3515    0.0653 C   0  0  0  0  0  0  0  0  0  0  0  0
   -1.5098   -0.2033    0.1435 C   0  0  0  0  0  0  0  0  0  0  0  0
   -2.2102   -0.0837   -1.1629 N   0  0  0  0  0  0  0  0  0  0  0  0
   -3.3806    1.1610   -1.2829 S   0  0  0  0  0  6  0  0  0  0  0  0
   -4.0028    1.0680   -2.5850 O   0  0  0  0  0  0  0  0  0  0  0  0
   -2.7254    2.3768   -0.8463 O   0  0  0  0  0  0  0  0  0  0  0  0
   -4.5924    0.6935   -0.0789 C   0  0  0  0  0  0  0  0  0  0  0  0
   -4.9050    1.5579    0.9752 C   0  0  0  0  0  0  0  0  0  0  0  0
   -5.8618    1.1727    1.9154 C   0  0  0  0  0  0  0  0  0  0  0  0
   -6.4986   -0.0626    1.7936 C   0  0  0  0  0  0  0  0  0  0  0  0
   -6.1622   -0.9312    0.7477 C   0  0  0  0  0  0  0  0  0  0  0  0
   -5.2201   -0.5494   -0.2031 C   0  0  0  0  0  0  0  0  0  0  0  0
   -6.7254   -2.1714    0.5907 O   0  0  0  0  0  0  0  0  0  0  0  0
   -7.4212   -2.5870    1.7720 C   0  0  0  0  0  0  0  0  0  0  0  0
   -8.2706   -1.4545    2.3244 C   0  0  0  0  0  0  0  0  0  0  0  0
   -7.4428   -0.3624    2.7420 O   0  0  0  0  0  0  0  0  0  0  0  0
   -1.3478   -0.1838   -2.3700 C   0  0  0  0  0  0  0  0  0  0  0  0
   -0.0928   -1.0024   -2.0994 C   0  0  0  0  0  0  0  0  0  0  0  0
    3.1355   -0.1126   -1.3029 N   0  0  0  0  0  0  0  0  0  0  0  0
    4.0974    0.6970   -1.8104 C   0  0  0  0  0  0  0  0  0  0  0  0
    3.9477    1.9056   -2.4456 C   0  0  0  0  0  0  0  0  0  0  0  0
    5.1566    2.4048   -2.8200 N   0  0  0  0  0  0  0  0  0  0  0  0
    6.0841    1.5302   -2.4300 N   0  0  0  0  0  0  0  0  0  0  0  0
    5.4497    0.5079   -1.8036 N   0  0  0  0  0  0  0  0  0  0  0  0
    6.1938   -0.6171   -1.2789 C   0  0  0  0  0  0  0  0  0  0  0  0
    6.4880   -0.4470    0.1919 C   0  0  0  0  0  0  0  0  0  0  0  0
    5.6720   -1.0601    1.1570 C   0  0  0  0  0  0  0  0  0  0  0  0
    5.9395   -0.8921    2.5163 C   0  0  0  0  0  0  0  0  0  0  0  0
    7.0162   -0.1080    2.9122 C   0  0  0  0  0  0  0  0  0  0  0  0
    7.2699    0.0524    4.2175 F   0  0  0  0  0  0  0  0  0  0  0  0
    7.8302    0.5151    1.9745 C   0  0  0  0  0  0  0  0  0  0  0  0
    7.5664    0.3485    0.6143 C   0  0  0  0  0  0  0  0  0  0  0  0
    0.7139    1.9429   -2.1495 H   0  0  0  0  0  0  0  0  0  0  0  0
    1.1704   -1.3023   -0.4137 H   0  0  0  0  0  0  0  0  0  0  0  0
    0.3791    0.2939    1.0522 H   0  0  0  0  0  0  0  0  0  0  0  0
   -0.1380    1.4176   -0.1843 H   0  0  0  0  0  0  0  0  0  0  0  0
   -1.4943   -1.2634    0.4242 H   0  0  0  0  0  0  0  0  0  0  0  0
   -2.0574    0.3117    0.9388 H   0  0  0  0  0  0  0  0  0  0  0  0
   -4.4197    2.5272    1.0669 H   0  0  0  0  0  0  0  0  0  0  0  0
   -6.1230    1.8391    2.7336 H   0  0  0  0  0  0  0  0  0  0  0  0
   -4.9740   -1.2163   -1.0255 H   0  0  0  0  0  0  0  0  0  0  0  0
   -8.0541   -3.4380    1.5017 H   0  0  0  0  0  0  0  0  0  0  0  0
   -6.6828   -2.9295    2.5073 H   0  0  0  0  0  0  0  0  0  0  0  0
   -8.8351   -1.7956    3.1978 H   0  0  0  0  0  0  0  0  0  0  0  0
   -8.9851   -1.0860    1.5778 H   0  0  0  0  0  0  0  0  0  0  0  0
   -1.9233   -0.6710   -3.1652 H   0  0  0  0  0  0  0  0  0  0  0  0
   -1.0708    0.8154   -2.7222 H   0  0  0  0  0  0  0  0  0  0  0  0
   -0.3970   -2.0259   -1.8417 H   0  0  0  0  0  0  0  0  0  0  0  0
    0.5032   -1.0801   -3.0165 H   0  0  0  0  0  0  0  0  0  0  0  0
    7.1241   -0.7131   -1.8511 H   0  0  0  0  0  0  0  0  0  0  0  0
    5.6099   -1.5260   -1.4647 H   0  0  0  0  0  0  0  0  0  0  0  0
    4.8194   -1.6656    0.8548 H   0  0  0  0  0  0  0  0  0  0  0  0
    5.3145   -1.3631    3.2681 H   0  0  0  0  0  0  0  0  0  0  0  0
    8.6605    1.1301    2.3069 H   0  0  0  0  0  0  0  0  0  0  0  0
    8.2008    0.8505   -0.1150 H   0  0  0  0  0  0  0  0  0  0  0  0
  1  2  2  0
  2  3  1  0
  3  4  1  0
  4  5  1  0
  5  6  1  0
  6  7  1  0
  7  8  1  0
  8  9  1  0
  9 10  2  0
  9 11  2  0
  9 12  1  0
 12 13  2  0
 13 14  1  0
 14 15  2  0
 15 16  1  0
 16 17  2  0
 16 18  1  0
 18 19  1  0
 19 20  1  0
 20 21  1  0
  8 22  1  0
 22 23  1  0
  4 24  2  0
 24 25  1  0
 25 26  2  0
 26 27  1  0
 27 28  2  0
 28 29  1  0
 29 30  1  0
 30 31  1  0
 31 32  2  0
 32 33  1  0
 33 34  2  0
 34 35  1  0
 34 36  1  0
 36 37  2  0
 26  2  1  0
 37 31  1  0
 23  5  1  0
 29 25  1  0
 17 12  1  0
 21 15  1  0
  3 38  1  0
  5 39  1  0
  6 40  1  0
  6 41  1  0
  7 42  1  0
  7 43  1  0
 13 44  1  0
 14 45  1  0
 17 46  1  0
 19 47  1  0
 19 48  1  0
 20 49  1  0
 20 50  1  0
 22 51  1  0
 22 52  1  0
 23 53  1  0
 23 54  1  0
 30 55  1  0
 30 56  1  0
 32 57  1  0
 33 58  1  0
 36 59  1  0
 37 60  1  0
M  END
$$$$
