
     RDKit          3D

 58 61  0  0  0  0  0  0  0  0999 V2000
   -3.7099    5.1222    0.0158 C   0  0  0  0  0  0  0  0  0  0  0  0
   -3.5678    3.7120   -0.0930 O   0  0  0  0  0  0  0  0  0  0  0  0
   -3.3130    3.0233    1.0614 C   0  0  0  0  0  0  0  0  0  0  0  0
   -3.2258    3.5719    2.3409 C   0  0  0  0  0  0  0  0  0  0  0  0
   -2.9592    2.7503    3.4391 C   0  0  0  0  0  0  0  0  0  0  0  0
   -2.7791    1.3778    3.2627 C   0  0  0  0  0  0  0  0  0  0  0  0
   -2.8665    0.8113    1.9849 C   0  0  0  0  0  0  0  0  0  0  0  0
   -2.6637   -0.6295    1.7849 C   0  0  0  0  0  0  0  0  0  0  0  0
   -3.7708   -1.7156    2.5096 S   0  0  0  0  0  0  0  0  0  0  0  0
   -2.9797   -3.0966    1.8673 C   0  0  0  0  0  0  0  0  0  0  0  0
   -3.3466   -4.4433    2.0537 C   0  0  0  0  0  0  0  0  0  0  0  0
   -2.5800   -5.4510    1.4575 C   0  0  0  0  0  0  0  0  0  0  0  0
   -1.4680   -5.1330    0.6901 C   0  0  0  0  0  0  0  0  0  0  0  0
   -0.6416   -6.0245    0.0626 O   0  0  0  0  0  0  0  0  0  0  0  0
   -0.9520   -7.4047    0.2069 C   0  0  0  0  0  0  0  0  0  0  0  0
   -1.1155   -3.7898    0.5116 C   0  0  0  0  0  0  0  0  0  0  0  0
   -1.8722   -2.7409    1.0979 C   0  0  0  0  0  0  0  0  0  0  0  0
   -1.6987   -1.3048    1.0522 C   0  0  0  0  0  0  0  0  0  0  0  0
   -0.6411   -0.5983    0.3358 C   0  0  0  0  0  0  0  0  0  0  0  0
    0.3685    0.0698    1.0365 C   0  0  0  0  0  0  0  0  0  0  0  0
    1.3802    0.7477    0.3464 C   0  0  0  0  0  0  0  0  0  0  0  0
    1.3911    0.7591   -1.0487 C   0  0  0  0  0  0  0  0  0  0  0  0
    2.3109    1.3865   -1.8419 O   0  0  0  0  0  0  0  0  0  0  0  0
    3.4240    2.0006   -1.1905 C   0  0  0  0  0  0  0  0  0  0  0  0
    4.3596    2.6294   -2.2427 C   0  0  0  0  0  0  0  0  0  0  0  0
    4.9759    1.6868   -3.2006 N   0  0  0  0  0  0  0  0  0  0  0  0
    5.7049    2.4239   -4.2340 C   0  0  0  0  0  0  0  0  0  0  0  0
    5.8640    0.7272   -2.5466 C   0  0  0  0  0  0  0  0  0  0  0  0
    0.3834    0.0879   -1.7460 C   0  0  0  0  0  0  0  0  0  0  0  0
   -0.6274   -0.5914   -1.0617 C   0  0  0  0  0  0  0  0  0  0  0  0
   -3.1343    1.6468    0.8916 C   0  0  0  0  0  0  0  0  0  0  0  0
   -4.5770    5.3847    0.6309 H   0  0  0  0  0  0  0  0  0  0  0  0
   -2.7952    5.5833    0.4027 H   0  0  0  0  0  0  0  0  0  0  0  0
   -3.8829    5.5192   -0.9891 H   0  0  0  0  0  0  0  0  0  0  0  0
   -3.3613    4.6333    2.5186 H   0  0  0  0  0  0  0  0  0  0  0  0
   -2.8911    3.1809    4.4350 H   0  0  0  0  0  0  0  0  0  0  0  0
   -2.5654    0.7542    4.1279 H   0  0  0  0  0  0  0  0  0  0  0  0
   -4.2148   -4.6998    2.6547 H   0  0  0  0  0  0  0  0  0  0  0  0
   -2.8873   -6.4789    1.6197 H   0  0  0  0  0  0  0  0  0  0  0  0
   -0.8940   -7.7146    1.2557 H   0  0  0  0  0  0  0  0  0  0  0  0
   -0.2034   -7.9762   -0.3505 H   0  0  0  0  0  0  0  0  0  0  0  0
   -1.9335   -7.6354   -0.2208 H   0  0  0  0  0  0  0  0  0  0  0  0
   -0.2402   -3.5488   -0.0882 H   0  0  0  0  0  0  0  0  0  0  0  0
    0.3735    0.0707    2.1239 H   0  0  0  0  0  0  0  0  0  0  0  0
    2.1378    1.2587    0.9295 H   0  0  0  0  0  0  0  0  0  0  0  0
    3.9671    1.2719   -0.5784 H   0  0  0  0  0  0  0  0  0  0  0  0
    3.0625    2.8089   -0.5420 H   0  0  0  0  0  0  0  0  0  0  0  0
    5.1398    3.2003   -1.7220 H   0  0  0  0  0  0  0  0  0  0  0  0
    3.7560    3.3472   -2.8145 H   0  0  0  0  0  0  0  0  0  0  0  0
    6.5333    3.0086   -3.8170 H   0  0  0  0  0  0  0  0  0  0  0  0
    5.0348    3.1066   -4.7685 H   0  0  0  0  0  0  0  0  0  0  0  0
    6.1107    1.7366   -4.9850 H   0  0  0  0  0  0  0  0  0  0  0  0
    6.3338    0.0692   -3.2875 H   0  0  0  0  0  0  0  0  0  0  0  0
    5.3086    0.0690   -1.8720 H   0  0  0  0  0  0  0  0  0  0  0  0
    6.6589    1.2219   -1.9773 H   0  0  0  0  0  0  0  0  0  0  0  0
    0.3875    0.0948   -2.8334 H   0  0  0  0  0  0  0  0  0  0  0  0
   -1.4021   -1.1046   -1.6261 H   0  0  0  0  0  0  0  0  0  0  0  0
   -3.2056    1.2274   -0.1098 H   0  0  0  0  0  0  0  0  0  0  0  0
  1  2  1  0
  2  3  1  0
  3  4  2  0
  4  5  1  0
  5  6  2  0
  6  7  1  0
  7  8  1  0
  8  9  1  0
  9 10  1  0
 10 11  2  0
 11 12  1  0
 12 13  2  0
 13 14  1  0
 14 15  1  0
 13 16  1  0
 16 17  2  0
 17 18  1  0
 18 19  1  0
 19 20  2  0
 20 21  1  0
 21 22  2  0
 22 23  1  0
 23 24  1  0
 24 25  1  0
 25 26  1  0
 26 27  1  0
 26 28  1  0
 22 29  1  0
 29 30  2  0
  7 31  2  0
 31  3  1  0
 18  8  2  0
 30 19  1  0
 17 10  1  0
  1 32  1  0
  1 33  1  0
  1 34  1  0
  4 35  1  0
  5 36  1  0
  6 37  1  0
 11 38  1  0
 12 39  1  0
 15 40  1  0
 15 41  1  0
 15 42  1  0
 16 43  1  0
 20 44  1  0
 21 45  1  0
 24 46  1  0
 24 47  1  0
 25 48  1  0
 25 49  1  0
 27 50  1  0
 27 51  1  0
 27 52  1  0
 28 53  1  0
 28 54  1  0
 28 55  1  0
 29 56  1  0
 30 57  1  0
 31 58  1  0
M  END
$$$$
