
     RDKit          3D

 58 61  0  0  0  0  0  0  0  0999 V2000
   -3.5301    5.2854   -0.6522 C   0  0  0  0  0  0  0  0  0  0  0  0
   -3.3342    3.8850   -0.7994 O   0  0  0  0  0  0  0  0  0  0  0  0
   -3.4223    3.1253    0.3353 C   0  0  0  0  0  0  0  0  0  0  0  0
   -3.7166    3.5948    1.6155 C   0  0  0  0  0  0  0  0  0  0  0  0
   -3.7763    2.7059    2.6919 C   0  0  0  0  0  0  0  0  0  0  0  0
   -3.5431    1.3447    2.4932 C   0  0  0  0  0  0  0  0  0  0  0  0
   -3.2489    0.8581    1.2138 C   0  0  0  0  0  0  0  0  0  0  0  0
   -2.9845   -0.5692    0.9949 C   0  0  0  0  0  0  0  0  0  0  0  0
   -4.2595   -1.6813    1.2515 S   0  0  0  0  0  0  0  0  0  0  0  0
   -3.2974   -3.0292    0.7996 C   0  0  0  0  0  0  0  0  0  0  0  0
   -3.6987   -4.3784    0.7615 C   0  0  0  0  0  0  0  0  0  0  0  0
   -2.7771   -5.3565    0.3706 C   0  0  0  0  0  0  0  0  0  0  0  0
   -1.4789   -5.0071    0.0255 C   0  0  0  0  0  0  0  0  0  0  0  0
   -0.4915   -5.8680   -0.3694 O   0  0  0  0  0  0  0  0  0  0  0  0
   -0.8188   -7.2513   -0.4067 C   0  0  0  0  0  0  0  0  0  0  0  0
   -1.0934   -3.6618    0.0674 C   0  0  0  0  0  0  0  0  0  0  0  0
   -2.0029   -2.6419    0.4535 C   0  0  0  0  0  0  0  0  0  0  0  0
   -1.8307   -1.2096    0.5682 C   0  0  0  0  0  0  0  0  0  0  0  0
   -0.6039   -0.4731    0.2803 C   0  0  0  0  0  0  0  0  0  0  0  0
    0.1180    0.1354    1.3105 C   0  0  0  0  0  0  0  0  0  0  0  0
    1.2893    0.8388    1.0204 C   0  0  0  0  0  0  0  0  0  0  0  0
    1.7543    0.9402   -0.2935 C   0  0  0  0  0  0  0  0  0  0  0  0
    2.9092    1.6580   -0.4336 O   0  0  0  0  0  0  0  0  0  0  0  0
    3.4448    1.7860   -1.7519 C   0  0  0  0  0  0  0  0  0  0  0  0
    4.7388    2.6249   -1.7098 C   0  0  0  0  0  0  0  0  0  0  0  0
    5.9747    1.9929   -1.2072 N   0  0  0  0  0  0  0  0  0  0  0  0
    5.8600    1.5639    0.1849 C   0  0  0  0  0  0  0  0  0  0  0  0
    6.4323    0.8935   -2.0514 C   0  0  0  0  0  0  0  0  0  0  0  0
    1.0363    0.3287   -1.3216 C   0  0  0  0  0  0  0  0  0  0  0  0
   -0.1377   -0.3775   -1.0354 C   0  0  0  0  0  0  0  0  0  0  0  0
   -3.1906    1.7599    0.1425 C   0  0  0  0  0  0  0  0  0  0  0  0
   -2.7763    5.7228    0.0108 H   0  0  0  0  0  0  0  0  0  0  0  0
   -4.5433    5.5070   -0.3010 H   0  0  0  0  0  0  0  0  0  0  0  0
   -3.4123    5.7447   -1.6384 H   0  0  0  0  0  0  0  0  0  0  0  0
   -3.9042    4.6452    1.8109 H   0  0  0  0  0  0  0  0  0  0  0  0
   -4.0031    3.0759    3.6888 H   0  0  0  0  0  0  0  0  0  0  0  0
   -3.5856    0.6677    3.3435 H   0  0  0  0  0  0  0  0  0  0  0  0
   -4.7128   -4.6595    1.0327 H   0  0  0  0  0  0  0  0  0  0  0  0
   -3.1163   -6.3872    0.3504 H   0  0  0  0  0  0  0  0  0  0  0  0
   -1.0934   -7.6190    0.5875 H   0  0  0  0  0  0  0  0  0  0  0  0
   -1.6116   -7.4495   -1.1355 H   0  0  0  0  0  0  0  0  0  0  0  0
    0.0732   -7.7973   -0.7286 H   0  0  0  0  0  0  0  0  0  0  0  0
   -0.0725   -3.3967   -0.1991 H   0  0  0  0  0  0  0  0  0  0  0  0
   -0.2239    0.0700    2.3404 H   0  0  0  0  0  0  0  0  0  0  0  0
    1.8433    1.3142    1.8261 H   0  0  0  0  0  0  0  0  0  0  0  0
    3.6375    0.8018   -2.1922 H   0  0  0  0  0  0  0  0  0  0  0  0
    2.7208    2.3215   -2.3789 H   0  0  0  0  0  0  0  0  0  0  0  0
    4.5542    3.5254   -1.1095 H   0  0  0  0  0  0  0  0  0  0  0  0
    4.9426    2.9840   -2.7268 H   0  0  0  0  0  0  0  0  0  0  0  0
    5.5091    2.3852    0.8197 H   0  0  0  0  0  0  0  0  0  0  0  0
    6.8434    1.2714    0.5704 H   0  0  0  0  0  0  0  0  0  0  0  0
    5.1860    0.7100    0.3103 H   0  0  0  0  0  0  0  0  0  0  0  0
    5.7580    0.0310   -2.0269 H   0  0  0  0  0  0  0  0  0  0  0  0
    6.5386    1.2209   -3.0915 H   0  0  0  0  0  0  0  0  0  0  0  0
    7.4234    0.5548   -1.7288 H   0  0  0  0  0  0  0  0  0  0  0  0
    1.3563    0.3828   -2.3565 H   0  0  0  0  0  0  0  0  0  0  0  0
   -0.6896   -0.8451   -1.8480 H   0  0  0  0  0  0  0  0  0  0  0  0
   -2.9622    1.4014   -0.8587 H   0  0  0  0  0  0  0  0  0  0  0  0
  1  2  1  0
  2  3  1  0
  3  4  2  0
  4  5  1  0
  5  6  2  0
  6  7  1  0
  7  8  1  0
  8  9  1  0
  9 10  1  0
 10 11  2  0
 11 12  1  0
 12 13  2  0
 13 14  1  0
 14 15  1  0
 13 16  1  0
 16 17  2  0
 17 18  1  0
 18 19  1  0
 19 20  2  0
 20 21  1  0
 21 22  2  0
 22 23  1  0
 23 24  1  0
 24 25  1  0
 25 26  1  0
 26 27  1  0
 26 28  1  0
 22 29  1  0
 29 30  2  0
  7 31  2  0
 31  3  1  0
 18  8  2  0
 30 19  1  0
 17 10  1  0
  1 32  1  0
  1 33  1  0
  1 34  1  0
  4 35  1  0
  5 36  1  0
  6 37  1  0
 11 38  1  0
 12 39  1  0
 15 40  1  0
 15 41  1  0
 15 42  1  0
 16 43  1  0
 20 44  1  0
 21 45  1  0
 24 46  1  0
 24 47  1  0
 25 48  1  0
 25 49  1  0
 27 50  1  0
 27 51  1  0
 27 52  1  0
 28 53  1  0
 28 54  1  0
 28 55  1  0
 29 56  1  0
 30 57  1  0
 31 58  1  0
M  END
$$$$
