
     RDKit          3D

 32 32  0  0  0  0  0  0  0  0999 V2000
   -2.5825   -2.4579    1.7842 C   0  0  0  0  0  0  0  0  0  0  0  0
   -2.3545   -1.9839    0.7041 C   0  0  0  0  0  0  0  0  0  0  0  0
   -2.0680   -1.4054   -0.6197 C   0  0  0  0  0  0  0  0  0  0  0  0
   -2.2836    0.0531   -0.6234 N   0  0  0  0  0  0  0  0  0  0  0  0
   -3.7214    0.3536   -0.6259 C   0  0  0  0  0  0  0  0  0  0  0  0
   -1.6400    0.6904   -1.7851 C   0  0  0  0  0  0  0  0  0  0  0  0
   -0.1265    0.8483   -1.6107 C   0  0  0  0  0  0  0  0  0  0  0  0
    0.2366    1.7468   -0.4284 C   0  0  0  0  0  0  0  0  0  0  0  0
    1.6558    1.8101   -0.2729 O   0  0  0  0  0  0  0  0  0  0  0  0
    2.2852    0.8836    0.5161 C   0  0  0  0  0  0  0  0  0  0  0  0
    1.6546   -0.2026    1.1329 C   0  0  0  0  0  0  0  0  0  0  0  0
    2.3898   -1.0989    1.9165 C   0  0  0  0  0  0  0  0  0  0  0  0
    3.7596   -0.9160    2.0862 C   0  0  0  0  0  0  0  0  0  0  0  0
    4.6557   -2.0234    3.0502 Cl  0  0  0  0  0  0  0  0  0  0  0  0
    4.4065    0.1544    1.4793 C   0  0  0  0  0  0  0  0  0  0  0  0
    3.6705    1.0484    0.6971 C   0  0  0  0  0  0  0  0  0  0  0  0
    4.5238    2.3620   -0.0397 Cl  0  0  0  0  0  0  0  0  0  0  0  0
   -2.7877   -2.8719    2.7444 H   0  0  0  0  0  0  0  0  0  0  0  0
   -1.0226   -1.6425   -0.8452 H   0  0  0  0  0  0  0  0  0  0  0  0
   -2.6703   -1.8977   -1.3937 H   0  0  0  0  0  0  0  0  0  0  0  0
   -3.8851    1.4363   -0.5770 H   0  0  0  0  0  0  0  0  0  0  0  0
   -4.2206   -0.0288   -1.5238 H   0  0  0  0  0  0  0  0  0  0  0  0
   -4.2204   -0.0671    0.2537 H   0  0  0  0  0  0  0  0  0  0  0  0
   -2.0508    1.6982   -1.9326 H   0  0  0  0  0  0  0  0  0  0  0  0
   -1.8540    0.1315   -2.7053 H   0  0  0  0  0  0  0  0  0  0  0  0
    0.3665   -0.1252   -1.5214 H   0  0  0  0  0  0  0  0  0  0  0  0
    0.2926    1.2901   -2.5242 H   0  0  0  0  0  0  0  0  0  0  0  0
   -0.2655    1.4780    0.5069 H   0  0  0  0  0  0  0  0  0  0  0  0
   -0.0930    2.7684   -0.6531 H   0  0  0  0  0  0  0  0  0  0  0  0
    0.5906   -0.3896    1.0247 H   0  0  0  0  0  0  0  0  0  0  0  0
    1.8832   -1.9370    2.3896 H   0  0  0  0  0  0  0  0  0  0  0  0
    5.4756    0.2947    1.6116 H   0  0  0  0  0  0  0  0  0  0  0  0
  1  2  3  0
  2  3  1  0
  3  4  1  0
  4  5  1  0
  4  6  1  0
  6  7  1  0
  7  8  1  0
  8  9  1  0
  9 10  1  0
 10 11  2  0
 11 12  1  0
 12 13  2  0
 13 14  1  0
 13 15  1  0
 15 16  2  0
 16 17  1  0
 16 10  1  0
  1 18  1  0
  3 19  1  0
  3 20  1  0
  5 21  1  0
  5 22  1  0
  5 23  1  0
  6 24  1  0
  6 25  1  0
  7 26  1  0
  7 27  1  0
  8 28  1  0
  8 29  1  0
 11 30  1  0
 12 31  1  0
 15 32  1  0
M  END
$$$$
