
     RDKit          3D

 59 62  0  0  0  0  0  0  0  0999 V2000
   -8.4894    2.5155    2.8218 C   0  0  0  0  0  0  0  0  0  0  0  0
   -7.6179    1.7379    1.8770 C   0  0  0  0  0  0  0  0  0  0  0  0
   -6.7493    2.4075    1.0041 C   0  0  0  0  0  0  0  0  0  0  0  0
   -5.9290    1.6877    0.1330 C   0  0  0  0  0  0  0  0  0  0  0  0
   -5.9557    0.2905    0.1508 C   0  0  0  0  0  0  0  0  0  0  0  0
   -5.1270   -0.4961   -0.7898 C   0  0  0  0  0  0  0  0  0  0  0  0
   -5.7016   -1.2909   -1.5327 O   0  0  0  0  0  0  0  0  0  0  0  0
   -3.7511   -0.3058   -0.7987 N   0  0  0  0  0  0  0  0  0  0  0  0
   -2.9555   -1.0296   -1.7893 C   0  0  0  0  0  0  0  0  0  0  0  0
   -1.6260   -0.3296   -2.1203 C   0  0  0  0  0  0  0  0  0  0  0  0
   -0.8301   -0.0341   -0.9099 N   0  0  0  0  0  0  0  0  0  0  0  0
    0.5474    0.0892   -0.9894 C   0  0  0  0  0  0  0  0  0  0  0  0
    1.1890    0.4120   -2.1952 C   0  0  0  0  0  0  0  0  0  0  0  0
    2.5831    0.5398   -2.2979 C   0  0  0  0  0  0  0  0  0  0  0  0
    3.3915    0.3508   -1.1846 C   0  0  0  0  0  0  0  0  0  0  0  0
    4.7969    0.4336   -1.1999 N   0  0  0  0  0  0  0  0  0  0  0  0
    5.6203    0.6187   -2.3004 C   0  0  0  0  0  0  0  0  0  0  0  0
    5.2569    0.8244   -3.4559 O   0  0  0  0  0  0  0  0  0  0  0  0
    7.1017    0.5598   -1.9559 C   0  0  0  0  0  0  0  0  0  0  0  0
    7.6793   -1.1710   -1.8892 S   0  0  0  0  0  0  0  0  0  0  0  0
    7.2433   -1.5774   -0.2118 C   0  0  0  0  0  0  0  0  0  0  0  0
    6.1722   -2.4410    0.0423 C   0  0  0  0  0  0  0  0  0  0  0  0
    5.8013   -2.7320    1.3587 C   0  0  0  0  0  0  0  0  0  0  0  0
    6.5106   -2.1696    2.4188 C   0  0  0  0  0  0  0  0  0  0  0  0
    6.0448   -2.5122    4.0389 Cl  0  0  0  0  0  0  0  0  0  0  0  0
    7.5918   -1.3248    2.1749 C   0  0  0  0  0  0  0  0  0  0  0  0
    7.9596   -1.0320    0.8586 C   0  0  0  0  0  0  0  0  0  0  0  0
    2.7794    0.0430    0.0313 C   0  0  0  0  0  0  0  0  0  0  0  0
    1.3846   -0.0859    0.1214 C   0  0  0  0  0  0  0  0  0  0  0  0
   -1.5401   -0.0657    0.3783 C   0  0  0  0  0  0  0  0  0  0  0  0
   -2.9955    0.4230    0.2293 C   0  0  0  0  0  0  0  0  0  0  0  0
   -6.8215   -0.3869    1.0130 C   0  0  0  0  0  0  0  0  0  0  0  0
   -7.6408    0.3368    1.8828 C   0  0  0  0  0  0  0  0  0  0  0  0
   -8.7455    3.4929    2.4010 H   0  0  0  0  0  0  0  0  0  0  0  0
   -7.9731    2.6642    3.7736 H   0  0  0  0  0  0  0  0  0  0  0  0
   -9.4308    1.9873    3.0086 H   0  0  0  0  0  0  0  0  0  0  0  0
   -6.7211    3.4953    0.9854 H   0  0  0  0  0  0  0  0  0  0  0  0
   -5.2898    2.2186   -0.5677 H   0  0  0  0  0  0  0  0  0  0  0  0
   -2.7593   -2.0255   -1.3725 H   0  0  0  0  0  0  0  0  0  0  0  0
   -3.5397   -1.1674   -2.7068 H   0  0  0  0  0  0  0  0  0  0  0  0
   -1.0733   -0.9855   -2.8036 H   0  0  0  0  0  0  0  0  0  0  0  0
   -1.8347    0.6134   -2.6396 H   0  0  0  0  0  0  0  0  0  0  0  0
    0.6107    0.5927   -3.0987 H   0  0  0  0  0  0  0  0  0  0  0  0
    2.9933    0.7934   -3.2699 H   0  0  0  0  0  0  0  0  0  0  0  0
    5.2544    0.2509   -0.3155 H   0  0  0  0  0  0  0  0  0  0  0  0
    7.6563    1.0783   -2.7466 H   0  0  0  0  0  0  0  0  0  0  0  0
    7.3012    1.0951   -1.0230 H   0  0  0  0  0  0  0  0  0  0  0  0
    5.6105   -2.8831   -0.7805 H   0  0  0  0  0  0  0  0  0  0  0  0
    4.9633   -3.3965    1.5498 H   0  0  0  0  0  0  0  0  0  0  0  0
    8.1556   -0.8981    3.0008 H   0  0  0  0  0  0  0  0  0  0  0  0
    8.8133   -0.3823    0.6778 H   0  0  0  0  0  0  0  0  0  0  0  0
    3.3696   -0.1139    0.9304 H   0  0  0  0  0  0  0  0  0  0  0  0
    0.9725   -0.3556    1.0894 H   0  0  0  0  0  0  0  0  0  0  0  0
   -1.5321   -1.0927    0.7657 H   0  0  0  0  0  0  0  0  0  0  0  0
   -1.0542    0.5849    1.1166 H   0  0  0  0  0  0  0  0  0  0  0  0
   -3.5067    0.3434    1.1934 H   0  0  0  0  0  0  0  0  0  0  0  0
   -2.9916    1.4775   -0.0721 H   0  0  0  0  0  0  0  0  0  0  0  0
   -6.8632   -1.4729    1.0010 H   0  0  0  0  0  0  0  0  0  0  0  0
   -8.3086   -0.2002    2.5537 H   0  0  0  0  0  0  0  0  0  0  0  0
  1  2  1  0
  2  3  2  0
  3  4  1  0
  4  5  2  0
  5  6  1  0
  6  7  2  0
  6  8  1  0
  8  9  1  0
  9 10  1  0
 10 11  1  0
 11 12  1  0
 12 13  2  0
 13 14  1  0
 14 15  2  0
 15 16  1  0
 16 17  1  0
 17 18  2  0
 17 19  1  0
 19 20  1  0
 20 21  1  0
 21 22  2  0
 22 23  1  0
 23 24  2  0
 24 25  1  0
 24 26  1  0
 26 27  2  0
 15 28  1  0
 28 29  2  0
 11 30  1  0
 30 31  1  0
  5 32  1  0
 32 33  2  0
 33  2  1  0
 31  8  1  0
 29 12  1  0
 27 21  1  0
  1 34  1  0
  1 35  1  0
  1 36  1  0
  3 37  1  0
  4 38  1  0
  9 39  1  0
  9 40  1  0
 10 41  1  0
 10 42  1  0
 13 43  1  0
 14 44  1  0
 16 45  1  0
 19 46  1  0
 19 47  1  0
 22 48  1  0
 23 49  1  0
 26 50  1  0
 27 51  1  0
 28 52  1  0
 29 53  1  0
 30 54  1  0
 30 55  1  0
 31 56  1  0
 31 57  1  0
 32 58  1  0
 33 59  1  0
M  END
$$$$
