
     RDKit          3D

 39 40  0  0  0  0  0  0  0  0999 V2000
   -1.1497   -3.5531    1.2320 C   0  0  0  0  0  0  0  0  0  0  0  0
   -1.5443   -2.0830    1.1207 C   0  0  0  0  0  0  0  0  0  0  0  0
   -2.0716   -1.8907   -0.1923 O   0  0  0  0  0  0  0  0  0  0  0  0
   -2.7579   -0.7399   -0.4808 C   0  0  0  0  0  0  0  0  0  0  0  0
   -3.0550    0.2688    0.4424 C   0  0  0  0  0  0  0  0  0  0  0  0
   -3.7630    1.4095    0.0438 C   0  0  0  0  0  0  0  0  0  0  0  0
   -4.1775    1.5442   -1.2867 C   0  0  0  0  0  0  0  0  0  0  0  0
   -4.9197    2.7409   -1.7015 N   0  0  0  0  0  4  0  0  0  0  0  0
   -5.2476    2.8296   -2.8926 O   0  0  0  0  0  0  0  0  0  0  0  0
   -5.1733    3.5893   -0.8353 O   0  0  0  0  0  1  0  0  0  0  0  0
   -3.8878    0.5489   -2.2237 C   0  0  0  0  0  0  0  0  0  0  0  0
   -3.1802   -0.5842   -1.8151 C   0  0  0  0  0  0  0  0  0  0  0  0
   -2.8234   -1.7859   -3.0082 Cl  0  0  0  0  0  0  0  0  0  0  0  0
   -0.3012   -1.2127    1.3810 C   0  0  0  0  0  0  0  0  0  0  0  0
   -0.1312   -0.6757    2.4720 O   0  0  0  0  0  0  0  0  0  0  0  0
    0.5423   -1.1460    0.2840 N   0  0  0  0  0  0  0  0  0  0  0  0
    1.7714   -0.4703    0.1777 C   0  0  0  0  0  0  0  0  0  0  0  0
    2.3909    0.1930    1.2386 C   0  0  0  0  0  0  0  0  0  0  0  0
    3.6189    0.8432    1.0545 C   0  0  0  0  0  0  0  0  0  0  0  0
    4.2371    0.8401   -0.1998 C   0  0  0  0  0  0  0  0  0  0  0  0
    5.5404    1.5128   -0.4482 C   0  0  0  0  0  0  0  0  0  0  0  0
    5.9173    2.5042    0.4147 N   0  0  0  0  0  0  0  0  0  0  0  0
    6.2410    1.2199   -1.4088 O   0  0  0  0  0  0  0  0  0  0  0  0
    3.6273    0.1621   -1.2600 C   0  0  0  0  0  0  0  0  0  0  0  0
    2.4020   -0.4857   -1.0720 C   0  0  0  0  0  0  0  0  0  0  0  0
   -2.0264   -4.1943    1.0908 H   0  0  0  0  0  0  0  0  0  0  0  0
   -0.7069   -3.7730    2.2086 H   0  0  0  0  0  0  0  0  0  0  0  0
   -0.4271   -3.8329    0.4570 H   0  0  0  0  0  0  0  0  0  0  0  0
   -2.3072   -1.8798    1.8811 H   0  0  0  0  0  0  0  0  0  0  0  0
   -2.7521    0.2119    1.4846 H   0  0  0  0  0  0  0  0  0  0  0  0
   -3.9793    2.1798    0.7832 H   0  0  0  0  0  0  0  0  0  0  0  0
   -4.2018    0.6438   -3.2610 H   0  0  0  0  0  0  0  0  0  0  0  0
    0.1934   -1.5899   -0.5607 H   0  0  0  0  0  0  0  0  0  0  0  0
    1.9521    0.2139    2.2317 H   0  0  0  0  0  0  0  0  0  0  0  0
    4.0844    1.3205    1.9117 H   0  0  0  0  0  0  0  0  0  0  0  0
    5.2632    2.9584    1.0351 H   0  0  0  0  0  0  0  0  0  0  0  0
    6.7437    3.0261    0.1506 H   0  0  0  0  0  0  0  0  0  0  0  0
    4.1045    0.1368   -2.2382 H   0  0  0  0  0  0  0  0  0  0  0  0
    1.9542   -1.0006   -1.9187 H   0  0  0  0  0  0  0  0  0  0  0  0
  1  2  1  0
  2  3  1  0
  3  4  1  0
  4  5  2  0
  5  6  1  0
  6  7  2  0
  7  8  1  0
  8  9  2  0
  8 10  1  0
  7 11  1  0
 11 12  2  0
 12 13  1  0
  2 14  1  0
 14 15  2  0
 14 16  1  0
 16 17  1  0
 17 18  2  0
 18 19  1  0
 19 20  2  0
 20 21  1  0
 21 22  1  0
 21 23  2  0
 20 24  1  0
 24 25  2  0
 12  4  1  0
 25 17  1  0
  1 26  1  0
  1 27  1  0
  1 28  1  0
  2 29  1  0
  5 30  1  0
  6 31  1  0
 11 32  1  0
 16 33  1  0
 18 34  1  0
 19 35  1  0
 22 36  1  0
 22 37  1  0
 24 38  1  0
 25 39  1  0
M  CHG  2   8   1  10  -1
M  END
$$$$
