
     RDKit          3D

 44 47  0  0  0  0  0  0  0  0999 V2000
   -5.7965   -3.4894   -0.4952 C   0  0  0  0  0  0  0  0  0  0  0  0
   -4.7628   -2.3756   -0.4897 C   0  0  0  0  0  0  0  0  0  0  0  0
   -4.8014   -1.7386    0.7914 O   0  0  0  0  0  0  0  0  0  0  0  0
   -3.6055   -1.1201    1.0641 C   0  0  0  0  0  0  0  0  0  0  0  0
   -2.8284   -1.7012    2.0697 C   0  0  0  0  0  0  0  0  0  0  0  0
   -1.5958   -1.1428    2.4004 C   0  0  0  0  0  0  0  0  0  0  0  0
   -1.1505    0.0066    1.7401 C   0  0  0  0  0  0  0  0  0  0  0  0
    0.1610    0.5672    2.0780 C   0  0  0  0  0  0  0  0  0  0  0  0
    1.2616    0.4529    1.3207 C   0  0  0  0  0  0  0  0  0  0  0  0
    1.3996   -0.3716   -0.2214 S   0  0  0  0  0  0  0  0  0  0  0  0
    3.0693    0.0169   -0.2700 C   0  0  0  0  0  0  0  0  0  0  0  0
    4.0492   -0.2055   -1.0954 N   0  0  0  0  0  0  0  0  0  0  0  0
    5.1047    0.4201   -0.4485 C   0  0  0  0  0  0  0  0  0  0  0  0
    6.5495    0.4425   -1.0452 C   0  0  0  0  0  0  0  0  0  0  0  0
    7.6538    1.0370   -0.4678 C   0  0  0  0  0  0  0  0  0  0  0  0
    8.7418    0.8151   -1.3448 C   0  0  0  0  0  0  0  0  0  0  0  0
    8.2363    0.1000   -2.4030 C   0  0  0  0  0  0  0  0  0  0  0  0
    6.9114   -0.1304   -2.2327 O   0  0  0  0  0  0  0  0  0  0  0  0
    4.7922    1.0053    0.7279 N   0  0  0  0  0  0  0  0  0  0  0  0
    3.4803    0.7216    0.8015 N   0  0  0  0  0  0  0  0  0  0  0  0
    2.5594    1.0390    1.7758 C   0  0  0  0  0  0  0  0  0  0  0  0
    2.8165    1.6697    2.7836 O   0  0  0  0  0  0  0  0  0  0  0  0
   -1.9567    0.6081    0.7640 C   0  0  0  0  0  0  0  0  0  0  0  0
   -3.1905    0.0518    0.4132 C   0  0  0  0  0  0  0  0  0  0  0  0
   -4.0565    0.5704   -0.5094 O   0  0  0  0  0  0  0  0  0  0  0  0
   -3.6389    1.6477   -1.3436 C   0  0  0  0  0  0  0  0  0  0  0  0
   -3.9718    2.9834   -0.7044 C   0  0  0  0  0  0  0  0  0  0  0  0
   -5.6197   -4.1798    0.3342 H   0  0  0  0  0  0  0  0  0  0  0  0
   -6.8025   -3.0790   -0.3674 H   0  0  0  0  0  0  0  0  0  0  0  0
   -5.7627   -4.0488   -1.4382 H   0  0  0  0  0  0  0  0  0  0  0  0
   -3.7730   -2.8065   -0.6890 H   0  0  0  0  0  0  0  0  0  0  0  0
   -5.0126   -1.6515   -1.2775 H   0  0  0  0  0  0  0  0  0  0  0  0
   -3.1804   -2.5981    2.5772 H   0  0  0  0  0  0  0  0  0  0  0  0
   -0.9887   -1.6166    3.1676 H   0  0  0  0  0  0  0  0  0  0  0  0
    0.2042    1.0847    3.0356 H   0  0  0  0  0  0  0  0  0  0  0  0
    7.6629    1.5643    0.4758 H   0  0  0  0  0  0  0  0  0  0  0  0
    9.7653    1.1356   -1.2211 H   0  0  0  0  0  0  0  0  0  0  0  0
    8.6649   -0.3005   -3.3105 H   0  0  0  0  0  0  0  0  0  0  0  0
   -1.6025    1.5174    0.2992 H   0  0  0  0  0  0  0  0  0  0  0  0
   -2.5853    1.5712   -1.6365 H   0  0  0  0  0  0  0  0  0  0  0  0
   -4.2148    1.5594   -2.2709 H   0  0  0  0  0  0  0  0  0  0  0  0
   -3.3978    3.1414    0.2149 H   0  0  0  0  0  0  0  0  0  0  0  0
   -5.0301    3.0230   -0.4271 H   0  0  0  0  0  0  0  0  0  0  0  0
   -3.7584    3.8036   -1.3950 H   0  0  0  0  0  0  0  0  0  0  0  0
  1  2  1  0
  2  3  1  0
  3  4  1  0
  4  5  2  0
  5  6  1  0
  6  7  2  0
  7  8  1  0
  8  9  2  3
  9 10  1  0
 10 11  1  0
 11 12  2  0
 12 13  1  0
 13 14  1  0
 14 15  2  0
 15 16  1  0
 16 17  2  0
 17 18  1  0
 13 19  2  0
 19 20  1  0
 20 21  1  0
 21 22  2  0
  7 23  1  0
 23 24  2  0
 24 25  1  0
 25 26  1  0
 26 27  1  0
 24  4  1  0
 21  9  1  0
 20 11  1  0
 18 14  1  0
  1 28  1  0
  1 29  1  0
  1 30  1  0
  2 31  1  0
  2 32  1  0
  5 33  1  0
  6 34  1  0
  8 35  1  0
 15 36  1  0
 16 37  1  0
 17 38  1  0
 23 39  1  0
 26 40  1  0
 26 41  1  0
 27 42  1  0
 27 43  1  0
 27 44  1  0
M  END
$$$$
