
     RDKit          3D

 51 55  0  0  0  0  0  0  0  0999 V2000
    9.6557   -0.1439    1.4858 Cl  0  0  0  0  0  0  0  0  0  0  0  0
    7.9348   -0.1239    1.3346 C   0  0  0  0  0  0  0  0  0  0  0  0
    7.3376    1.0431    0.8501 C   0  0  0  0  0  0  0  0  0  0  0  0
    5.9500    1.1172    0.7063 C   0  0  0  0  0  0  0  0  0  0  0  0
    5.1426    0.0257    1.0495 C   0  0  0  0  0  0  0  0  0  0  0  0
    3.6417    0.0974    0.8782 C   0  0  0  0  0  0  0  0  0  0  0  0
    3.2097   -0.3702   -0.5239 C   0  0  0  0  0  0  0  0  0  0  0  0
    1.7724   -0.3597   -0.8273 N   0  0  0  0  0  0  0  0  0  0  0  0
    0.9861   -1.2826    0.0122 C   0  0  0  0  0  0  0  0  0  0  0  0
   -0.5033   -1.3146   -0.3966 C   0  0  0  0  0  0  0  0  0  0  0  0
   -1.0846    0.0438   -0.3497 N   0  0  0  0  0  0  0  0  0  0  0  0
   -2.4744    0.1477   -0.3731 C   0  0  0  0  0  0  0  0  0  0  0  0
   -3.0569    0.7317   -1.3899 N   0  0  0  0  0  0  0  0  0  0  0  0
   -4.4615    0.8240   -1.4550 C   0  0  0  0  0  0  0  0  0  0  0  0
   -5.0342    1.4403   -2.5692 C   0  0  0  0  0  0  0  0  0  0  0  0
   -6.4223    1.5507   -2.6891 C   0  0  0  0  0  0  0  0  0  0  0  0
   -7.2542    1.0426   -1.6906 C   0  0  0  0  0  0  0  0  0  0  0  0
   -6.7042    0.4228   -0.5679 C   0  0  0  0  0  0  0  0  0  0  0  0
   -5.3140    0.3192   -0.4625 C   0  0  0  0  0  0  0  0  0  0  0  0
   -4.6771   -0.2782    0.6371 N   0  0  0  0  0  0  0  0  0  0  0  0
   -5.2218   -0.8371    1.7692 C   0  0  0  0  0  0  0  0  0  0  0  0
   -4.1900   -1.2343    2.5924 C   0  0  0  0  0  0  0  0  0  0  0  0
   -2.9808   -0.9175    1.9311 C   0  0  0  0  0  0  0  0  0  0  0  0
   -3.3048   -0.3583    0.7078 C   0  0  0  0  0  0  0  0  0  0  0  0
   -0.3162    0.9778   -1.2015 C   0  0  0  0  0  0  0  0  0  0  0  0
    1.1726    0.9881   -0.7896 C   0  0  0  0  0  0  0  0  0  0  0  0
    5.7478   -1.1452    1.5296 C   0  0  0  0  0  0  0  0  0  0  0  0
    7.1379   -1.2215    1.6745 C   0  0  0  0  0  0  0  0  0  0  0  0
    7.8024   -2.6993    2.2753 Cl  0  0  0  0  0  0  0  0  0  0  0  0
    7.9492    1.9012    0.5808 H   0  0  0  0  0  0  0  0  0  0  0  0
    5.5044    2.0342    0.3242 H   0  0  0  0  0  0  0  0  0  0  0  0
    3.3174    1.1282    1.0628 H   0  0  0  0  0  0  0  0  0  0  0  0
    3.1709   -0.5146    1.6563 H   0  0  0  0  0  0  0  0  0  0  0  0
    3.7201    0.2426   -1.2792 H   0  0  0  0  0  0  0  0  0  0  0  0
    3.5849   -1.3885   -0.6942 H   0  0  0  0  0  0  0  0  0  0  0  0
    1.0482   -0.9943    1.0688 H   0  0  0  0  0  0  0  0  0  0  0  0
    1.3890   -2.2980   -0.0794 H   0  0  0  0  0  0  0  0  0  0  0  0
   -0.6053   -1.7205   -1.4115 H   0  0  0  0  0  0  0  0  0  0  0  0
   -1.0308   -1.9979    0.2759 H   0  0  0  0  0  0  0  0  0  0  0  0
   -4.3890    1.8350   -3.3495 H   0  0  0  0  0  0  0  0  0  0  0  0
   -6.8520    2.0332   -3.5632 H   0  0  0  0  0  0  0  0  0  0  0  0
   -8.3335    1.1314   -1.7883 H   0  0  0  0  0  0  0  0  0  0  0  0
   -7.3707    0.0375    0.1963 H   0  0  0  0  0  0  0  0  0  0  0  0
   -6.2900   -0.8976    1.9174 H   0  0  0  0  0  0  0  0  0  0  0  0
   -4.2993   -1.6921    3.5672 H   0  0  0  0  0  0  0  0  0  0  0  0
   -1.9787   -1.0768    2.3061 H   0  0  0  0  0  0  0  0  0  0  0  0
   -0.4118    0.6911   -2.2567 H   0  0  0  0  0  0  0  0  0  0  0  0
   -0.7091    1.9957   -1.0900 H   0  0  0  0  0  0  0  0  0  0  0  0
    1.7138    1.6524   -1.4736 H   0  0  0  0  0  0  0  0  0  0  0  0
    1.2483    1.4158    0.2177 H   0  0  0  0  0  0  0  0  0  0  0  0
    5.1330   -2.0039    1.7927 H   0  0  0  0  0  0  0  0  0  0  0  0
  1  2  1  0
  2  3  2  0
  3  4  1  0
  4  5  2  0
  5  6  1  0
  6  7  1  0
  7  8  1  0
  8  9  1  0
  9 10  1  0
 10 11  1  0
 11 12  1  0
 12 13  2  0
 13 14  1  0
 14 15  2  0
 15 16  1  0
 16 17  2  0
 17 18  1  0
 18 19  2  0
 19 20  1  0
 20 21  1  0
 21 22  2  0
 22 23  1  0
 23 24  2  0
 11 25  1  0
 25 26  1  0
  5 27  1  0
 27 28  2  0
 28 29  1  0
 28  2  1  0
 26  8  1  0
 24 12  1  0
 19 14  1  0
 24 20  1  0
  3 30  1  0
  4 31  1  0
  6 32  1  0
  6 33  1  0
  7 34  1  0
  7 35  1  0
  9 36  1  0
  9 37  1  0
 10 38  1  0
 10 39  1  0
 15 40  1  0
 16 41  1  0
 17 42  1  0
 18 43  1  0
 21 44  1  0
 22 45  1  0
 23 46  1  0
 25 47  1  0
 25 48  1  0
 26 49  1  0
 26 50  1  0
 27 51  1  0
M  END
$$$$
