
     RDKit          3D

 58 60  0  0  0  0  0  0  0  0999 V2000
    9.0108   -4.3013   -1.8137 C   0  0  0  0  0  0  0  0  0  0  0  0
    7.7715   -3.5881   -1.3613 C   0  0  0  0  0  0  0  0  0  0  0  0
    6.9212   -2.9867   -2.2959 C   0  0  0  0  0  0  0  0  0  0  0  0
    5.7476   -2.3540   -1.8813 C   0  0  0  0  0  0  0  0  0  0  0  0
    5.3976   -2.3232   -0.5259 C   0  0  0  0  0  0  0  0  0  0  0  0
    4.1371   -1.6229   -0.0849 C   0  0  0  0  0  0  0  0  0  0  0  0
    4.3455   -0.1116    0.0505 C   0  0  0  0  0  0  0  0  0  0  0  0
    3.1398    0.5745    0.4827 N   0  0  0  0  0  0  0  0  0  0  0  0
    2.1150    0.8528   -0.3964 C   0  0  0  0  0  0  0  0  0  0  0  0
    2.1451    0.5506   -1.5856 O   0  0  0  0  0  0  0  0  0  0  0  0
    0.9320    1.5310    0.2599 C   0  0  0  0  0  0  0  0  0  0  0  0
   -0.0754    2.0473   -0.7613 C   0  0  0  0  0  0  0  0  0  0  0  0
   -0.7481    0.9182   -1.4291 N   0  0  0  0  0  0  0  0  0  0  0  0
   -2.1368    1.2484   -2.3205 S   0  0  0  0  0  6  0  0  0  0  0  0
   -2.1220    2.6371   -2.7193 O   0  0  0  0  0  0  0  0  0  0  0  0
   -2.2734    0.1768   -3.2816 O   0  0  0  0  0  0  0  0  0  0  0  0
   -3.4060    1.0253   -1.0975 C   0  0  0  0  0  0  0  0  0  0  0  0
   -4.0098   -0.2221   -0.9415 C   0  0  0  0  0  0  0  0  0  0  0  0
   -5.0362   -0.3840   -0.0033 C   0  0  0  0  0  0  0  0  0  0  0  0
   -5.4721    0.6946    0.7854 C   0  0  0  0  0  0  0  0  0  0  0  0
   -4.8563    1.9337    0.6066 C   0  0  0  0  0  0  0  0  0  0  0  0
   -3.8326    2.1118   -0.3364 C   0  0  0  0  0  0  0  0  0  0  0  0
   -5.2861    3.0744    1.4278 C   0  0  0  0  0  0  0  0  0  0  0  0
   -4.6597    4.1291    1.3568 O   0  0  0  0  0  0  0  0  0  0  0  0
   -6.3768    2.8697    2.2577 N   0  0  0  0  0  0  0  0  0  0  0  0
   -6.8387    3.9968    3.0460 C   0  0  0  0  0  0  0  0  0  0  0  0
   -6.9637    1.6351    2.5074 C   0  0  0  0  0  0  0  0  0  0  0  0
   -7.8421    1.5025    3.3632 O   0  0  0  0  0  0  0  0  0  0  0  0
   -6.5037    0.5587    1.7520 N   0  0  0  0  0  0  0  0  0  0  0  0
   -7.1220   -0.7436    1.9669 C   0  0  0  0  0  0  0  0  0  0  0  0
    6.2442   -2.9317    0.4088 C   0  0  0  0  0  0  0  0  0  0  0  0
    7.4178   -3.5648   -0.0071 C   0  0  0  0  0  0  0  0  0  0  0  0
    9.7743   -4.2975   -1.0287 H   0  0  0  0  0  0  0  0  0  0  0  0
    9.4442   -3.8095   -2.6912 H   0  0  0  0  0  0  0  0  0  0  0  0
    8.7732   -5.3386   -2.0697 H   0  0  0  0  0  0  0  0  0  0  0  0
    7.1669   -3.0059   -3.3554 H   0  0  0  0  0  0  0  0  0  0  0  0
    5.1035   -1.8883   -2.6255 H   0  0  0  0  0  0  0  0  0  0  0  0
    3.7942   -2.0400    0.8709 H   0  0  0  0  0  0  0  0  0  0  0  0
    3.3353   -1.8405   -0.8020 H   0  0  0  0  0  0  0  0  0  0  0  0
    5.1210    0.1074    0.7928 H   0  0  0  0  0  0  0  0  0  0  0  0
    4.6666    0.3220   -0.9050 H   0  0  0  0  0  0  0  0  0  0  0  0
    3.0138    0.7509    1.4714 H   0  0  0  0  0  0  0  0  0  0  0  0
    0.4585    0.8145    0.9399 H   0  0  0  0  0  0  0  0  0  0  0  0
    1.3057    2.3746    0.8511 H   0  0  0  0  0  0  0  0  0  0  0  0
    0.4269    2.6651   -1.5135 H   0  0  0  0  0  0  0  0  0  0  0  0
   -0.8142    2.6611   -0.2369 H   0  0  0  0  0  0  0  0  0  0  0  0
   -0.1164    0.3062   -1.9608 H   0  0  0  0  0  0  0  0  0  0  0  0
   -3.6935   -1.0705   -1.5467 H   0  0  0  0  0  0  0  0  0  0  0  0
   -5.4809   -1.3718    0.0825 H   0  0  0  0  0  0  0  0  0  0  0  0
   -3.3795    3.0921   -0.4737 H   0  0  0  0  0  0  0  0  0  0  0  0
   -6.6046    4.9477    2.5577 H   0  0  0  0  0  0  0  0  0  0  0  0
   -6.3398    3.9642    4.0198 H   0  0  0  0  0  0  0  0  0  0  0  0
   -7.9209    3.9408    3.2019 H   0  0  0  0  0  0  0  0  0  0  0  0
   -6.3536   -1.4713    2.2483 H   0  0  0  0  0  0  0  0  0  0  0  0
   -7.8672   -0.7230    2.7668 H   0  0  0  0  0  0  0  0  0  0  0  0
   -7.6274   -1.0578    1.0475 H   0  0  0  0  0  0  0  0  0  0  0  0
    5.9950   -2.9243    1.4674 H   0  0  0  0  0  0  0  0  0  0  0  0
    8.0554   -4.0416    0.7346 H   0  0  0  0  0  0  0  0  0  0  0  0
  1  2  1  0
  2  3  2  0
  3  4  1  0
  4  5  2  0
  5  6  1  0
  6  7  1  0
  7  8  1  0
  8  9  1  0
  9 10  2  0
  9 11  1  0
 11 12  1  0
 12 13  1  0
 13 14  1  0
 14 15  2  0
 14 16  2  0
 14 17  1  0
 17 18  2  0
 18 19  1  0
 19 20  2  0
 20 21  1  0
 21 22  2  0
 21 23  1  0
 23 24  2  0
 23 25  1  0
 25 26  1  0
 25 27  1  0
 27 28  2  0
 27 29  1  0
 29 30  1  0
  5 31  1  0
 31 32  2  0
 32  2  1  0
 22 17  1  0
 29 20  1  0
  1 33  1  0
  1 34  1  0
  1 35  1  0
  3 36  1  0
  4 37  1  0
  6 38  1  0
  6 39  1  0
  7 40  1  0
  7 41  1  0
  8 42  1  0
 11 43  1  0
 11 44  1  0
 12 45  1  0
 12 46  1  0
 13 47  1  0
 18 48  1  0
 19 49  1  0
 22 50  1  0
 26 51  1  0
 26 52  1  0
 26 53  1  0
 30 54  1  0
 30 55  1  0
 30 56  1  0
 31 57  1  0
 32 58  1  0
M  END
$$$$
