
     RDKit          3D

 29 30  0  0  0  0  0  0  0  0999 V2000
    5.8638   -0.6521    1.1731 O   0  0  0  0  0  0  0  0  0  0  0  0
    4.7324   -0.5830    1.6361 C   0  0  0  0  0  0  0  0  0  0  0  0
    3.6019   -0.0307    0.8639 C   0  0  0  0  0  0  0  0  0  0  0  0
    3.8110    0.4769   -0.4224 C   0  0  0  0  0  0  0  0  0  0  0  0
    2.7408    1.0128   -1.1396 C   0  0  0  0  0  0  0  0  0  0  0  0
    1.4633    1.0299   -0.5777 C   0  0  0  0  0  0  0  0  0  0  0  0
    1.2568    0.4936    0.6971 C   0  0  0  0  0  0  0  0  0  0  0  0
    0.0253    0.5074    1.3131 O   0  0  0  0  0  0  0  0  0  0  0  0
   -1.0415    0.0282    0.5884 C   0  0  0  0  0  0  0  0  0  0  0  0
   -1.0049   -1.2447    0.0051 C   0  0  0  0  0  0  0  0  0  0  0  0
   -2.1291   -1.7473   -0.6612 C   0  0  0  0  0  0  0  0  0  0  0  0
   -3.3038   -0.9809   -0.7290 C   0  0  0  0  0  0  0  0  0  0  0  0
   -4.4808   -1.5155   -1.4273 N   0  0  0  0  0  4  0  0  0  0  0  0
   -5.4690   -0.7766   -1.5288 O   0  0  0  0  0  0  0  0  0  0  0  0
   -4.4100   -2.6684   -1.8729 O   0  0  0  0  0  1  0  0  0  0  0  0
   -3.3658    0.2851   -0.1355 C   0  0  0  0  0  0  0  0  0  0  0  0
   -2.2256    0.7694    0.5184 C   0  0  0  0  0  0  0  0  0  0  0  0
   -2.2907    2.0850    1.1218 N   0  0  0  0  0  4  0  0  0  0  0  0
   -3.1825    2.2699    1.9597 O   0  0  0  0  0  0  0  0  0  0  0  0
   -1.4814    2.9320    0.7236 O   0  0  0  0  0  1  0  0  0  0  0  0
    2.3265   -0.0181    1.4326 C   0  0  0  0  0  0  0  0  0  0  0  0
    4.5075   -0.9375    2.6560 H   0  0  0  0  0  0  0  0  0  0  0  0
    4.8076    0.4688   -0.8607 H   0  0  0  0  0  0  0  0  0  0  0  0
    2.9063    1.4286   -2.1310 H   0  0  0  0  0  0  0  0  0  0  0  0
    0.6446    1.4800   -1.1331 H   0  0  0  0  0  0  0  0  0  0  0  0
   -0.1095   -1.8598    0.0736 H   0  0  0  0  0  0  0  0  0  0  0  0
   -2.0752   -2.7379   -1.1120 H   0  0  0  0  0  0  0  0  0  0  0  0
   -4.2733    0.8859   -0.1743 H   0  0  0  0  0  0  0  0  0  0  0  0
    2.1553   -0.4013    2.4345 H   0  0  0  0  0  0  0  0  0  0  0  0
  1  2  2  0
  2  3  1  0
  3  4  2  0
  4  5  1  0
  5  6  2  0
  6  7  1  0
  7  8  1  0
  8  9  1  0
  9 10  2  0
 10 11  1  0
 11 12  2  0
 12 13  1  0
 13 14  2  0
 13 15  1  0
 12 16  1  0
 16 17  2  0
 17 18  1  0
 18 19  2  0
 18 20  1  0
  7 21  2  0
 21  3  1  0
 17  9  1  0
  2 22  1  0
  4 23  1  0
  5 24  1  0
  6 25  1  0
 10 26  1  0
 11 27  1  0
 16 28  1  0
 21 29  1  0
M  CHG  4  13   1  15  -1  18   1  20  -1
M  END
$$$$
