
     RDKit          3D

 46 49  0  0  0  0  0  0  0  0999 V2000
    0.6210    0.9106   -0.5175 O   0  0  0  0  0  0  0  0  0  0  0  0
    0.8616    0.0929    0.3641 C   0  0  0  0  0  0  0  0  0  0  0  0
   -0.2134   -0.8223    0.9291 C   0  0  0  0  0  0  0  0  0  0  0  0
   -0.8443   -1.6343   -0.0964 N   0  0  0  0  0  0  0  0  0  0  0  0
   -2.1385   -1.5244   -0.5663 C   0  0  0  0  0  0  0  0  0  0  0  0
   -3.1222   -0.4839   -0.1278 C   0  0  0  0  0  0  0  0  0  0  0  0
   -2.5017    0.7856   -0.2967 O   0  0  0  0  0  0  0  0  0  0  0  0
   -3.1736    1.8786    0.1714 C   0  0  0  0  0  0  0  0  0  0  0  0
   -2.4468    3.0710    0.1178 C   0  0  0  0  0  0  0  0  0  0  0  0
   -3.0083    4.2660    0.5687 C   0  0  0  0  0  0  0  0  0  0  0  0
   -4.3061    4.2744    1.0739 C   0  0  0  0  0  0  0  0  0  0  0  0
   -5.0394    3.0895    1.1230 C   0  0  0  0  0  0  0  0  0  0  0  0
   -4.4762    1.8919    0.6709 C   0  0  0  0  0  0  0  0  0  0  0  0
   -2.4029   -2.4942   -1.4233 N   0  0  0  0  0  0  0  0  0  0  0  0
   -1.2540   -3.2315   -1.5305 C   0  0  0  0  0  0  0  0  0  0  0  0
   -0.9948   -4.3646   -2.3154 C   0  0  0  0  0  0  0  0  0  0  0  0
    0.2693   -4.9605   -2.2442 C   0  0  0  0  0  0  0  0  0  0  0  0
    1.2553   -4.4390   -1.4060 C   0  0  0  0  0  0  0  0  0  0  0  0
    1.0140   -3.3094   -0.6145 C   0  0  0  0  0  0  0  0  0  0  0  0
   -0.2571   -2.7257   -0.7030 C   0  0  0  0  0  0  0  0  0  0  0  0
    2.1010   -0.0923    0.9609 N   0  0  0  0  0  0  0  0  0  0  0  0
    3.3189    0.5705    0.6649 C   0  0  0  0  0  0  0  0  0  0  0  0
    3.4447    1.5576   -0.3174 C   0  0  0  0  0  0  0  0  0  0  0  0
    4.6815    2.1738   -0.5575 C   0  0  0  0  0  0  0  0  0  0  0  0
    4.7507    3.3874   -1.7867 Cl  0  0  0  0  0  0  0  0  0  0  0  0
    5.8076    1.8037    0.1855 C   0  0  0  0  0  0  0  0  0  0  0  0
    7.3592    2.5225   -0.0583 Cl  0  0  0  0  0  0  0  0  0  0  0  0
    5.6981    0.8186    1.1667 C   0  0  0  0  0  0  0  0  0  0  0  0
    4.4642    0.2095    1.4014 C   0  0  0  0  0  0  0  0  0  0  0  0
    4.3800   -1.0114    2.6276 Cl  0  0  0  0  0  0  0  0  0  0  0  0
    0.1964   -1.5151    1.6727 H   0  0  0  0  0  0  0  0  0  0  0  0
   -0.9616   -0.2162    1.4453 H   0  0  0  0  0  0  0  0  0  0  0  0
   -3.3814   -0.6623    0.9227 H   0  0  0  0  0  0  0  0  0  0  0  0
   -4.0211   -0.5489   -0.7517 H   0  0  0  0  0  0  0  0  0  0  0  0
   -1.4349    3.0657   -0.2835 H   0  0  0  0  0  0  0  0  0  0  0  0
   -2.4341    5.1872    0.5191 H   0  0  0  0  0  0  0  0  0  0  0  0
   -4.7486    5.2042    1.4217 H   0  0  0  0  0  0  0  0  0  0  0  0
   -6.0562    3.0987    1.5079 H   0  0  0  0  0  0  0  0  0  0  0  0
   -5.0855    0.9955    0.7127 H   0  0  0  0  0  0  0  0  0  0  0  0
   -1.7677   -4.7623   -2.9634 H   0  0  0  0  0  0  0  0  0  0  0  0
    0.4818   -5.8372   -2.8512 H   0  0  0  0  0  0  0  0  0  0  0  0
    2.2318   -4.9179   -1.3703 H   0  0  0  0  0  0  0  0  0  0  0  0
    1.7924   -2.9131    0.0263 H   0  0  0  0  0  0  0  0  0  0  0  0
    2.1743   -0.7865    1.6993 H   0  0  0  0  0  0  0  0  0  0  0  0
    2.5958    1.8711   -0.9181 H   0  0  0  0  0  0  0  0  0  0  0  0
    6.5709    0.5265    1.7457 H   0  0  0  0  0  0  0  0  0  0  0  0
  1  2  2  0
  2  3  1  0
  3  4  1  0
  4  5  1  0
  5  6  1  0
  6  7  1  0
  7  8  1  0
  8  9  2  0
  9 10  1  0
 10 11  2  0
 11 12  1  0
 12 13  2  0
  5 14  2  0
 14 15  1  0
 15 16  2  0
 16 17  1  0
 17 18  2  0
 18 19  1  0
 19 20  2  0
  2 21  1  0
 21 22  1  0
 22 23  2  0
 23 24  1  0
 24 25  1  0
 24 26  2  0
 26 27  1  0
 26 28  1  0
 28 29  2  0
 29 30  1  0
 20  4  1  0
 29 22  1  0
 13  8  1  0
 20 15  1  0
  3 31  1  0
  3 32  1  0
  6 33  1  0
  6 34  1  0
  9 35  1  0
 10 36  1  0
 11 37  1  0
 12 38  1  0
 13 39  1  0
 16 40  1  0
 17 41  1  0
 18 42  1  0
 19 43  1  0
 21 44  1  0
 23 45  1  0
 28 46  1  0
M  END
$$$$
