
     RDKit          3D

 60 65  0  0  0  0  0  0  0  0999 V2000
    1.2982    0.3308    3.7498 O   0  0  0  0  0  0  0  0  0  0  0  0
    1.8007    0.5182    2.6487 C   0  0  0  0  0  0  0  0  0  0  0  0
    1.0700    0.3688    1.4748 N   0  0  0  0  0  0  0  0  0  0  0  0
    1.5845    0.5765    0.2000 C   0  0  0  0  0  0  0  0  0  0  0  0
    0.6260    0.3643   -0.9626 C   0  0  0  0  0  0  0  0  0  0  0  0
   -0.5295    1.3673   -0.9050 C   0  0  0  0  0  0  0  0  0  0  0  0
   -1.5477    1.1049   -2.0096 C   0  0  0  0  0  0  0  0  0  0  0  0
   -1.9252   -0.3249   -2.0854 N   0  0  0  0  0  0  0  0  0  0  0  0
   -3.4576   -0.6891   -2.7250 S   0  0  0  0  0  6  0  0  0  0  0  0
   -3.7121    0.2341   -3.8114 O   0  0  0  0  0  0  0  0  0  0  0  0
   -3.5448   -2.1205   -2.9161 O   0  0  0  0  0  0  0  0  0  0  0  0
   -4.5541   -0.2654   -1.3875 C   0  0  0  0  0  0  0  0  0  0  0  0
   -5.2114    0.9704   -1.3870 C   0  0  0  0  0  0  0  0  0  0  0  0
   -6.0830    1.2872   -0.3435 C   0  0  0  0  0  0  0  0  0  0  0  0
   -6.3010    0.3691    0.6821 C   0  0  0  0  0  0  0  0  0  0  0  0
   -5.6360   -0.8629    0.6785 C   0  0  0  0  0  0  0  0  0  0  0  0
   -4.7820   -1.1962   -0.3684 C   0  0  0  0  0  0  0  0  0  0  0  0
   -5.7762   -1.7938    1.6747 O   0  0  0  0  0  0  0  0  0  0  0  0
   -6.3929   -1.2297    2.8399 C   0  0  0  0  0  0  0  0  0  0  0  0
   -7.5890   -0.3736    2.4578 C   0  0  0  0  0  0  0  0  0  0  0  0
   -7.1757    0.7474    1.6680 O   0  0  0  0  0  0  0  0  0  0  0  0
   -1.3826   -1.2090   -1.0418 C   0  0  0  0  0  0  0  0  0  0  0  0
    0.1398   -1.0916   -1.0358 C   0  0  0  0  0  0  0  0  0  0  0  0
    2.8148    0.9375   -0.0410 N   0  0  0  0  0  0  0  0  0  0  0  0
    3.5533    1.0794    1.0879 C   0  0  0  0  0  0  0  0  0  0  0  0
    3.1597    0.9068    2.3935 C   0  0  0  0  0  0  0  0  0  0  0  0
    4.1922    1.1562    3.2440 N   0  0  0  0  0  0  0  0  0  0  0  0
    5.2492    1.4816    2.4986 N   0  0  0  0  0  0  0  0  0  0  0  0
    4.8722    1.4179    1.1966 N   0  0  0  0  0  0  0  0  0  0  0  0
    5.8041    1.7417    0.1366 C   0  0  0  0  0  0  0  0  0  0  0  0
    6.4289    0.4982   -0.4491 C   0  0  0  0  0  0  0  0  0  0  0  0
    7.5327   -0.1065    0.1760 C   0  0  0  0  0  0  0  0  0  0  0  0
    8.1016   -1.2627   -0.3614 C   0  0  0  0  0  0  0  0  0  0  0  0
    7.5667   -1.8170   -1.5181 C   0  0  0  0  0  0  0  0  0  0  0  0
    8.1109   -2.9275   -2.0308 F   0  0  0  0  0  0  0  0  0  0  0  0
    6.4674   -1.2416   -2.1450 C   0  0  0  0  0  0  0  0  0  0  0  0
    5.8955   -0.0865   -1.6102 C   0  0  0  0  0  0  0  0  0  0  0  0
    0.1118    0.0879    1.6176 H   0  0  0  0  0  0  0  0  0  0  0  0
    1.1953    0.5672   -1.8799 H   0  0  0  0  0  0  0  0  0  0  0  0
   -0.1443    2.3906   -0.9936 H   0  0  0  0  0  0  0  0  0  0  0  0
   -1.0361    1.3224    0.0680 H   0  0  0  0  0  0  0  0  0  0  0  0
   -2.4216    1.7385   -1.8306 H   0  0  0  0  0  0  0  0  0  0  0  0
   -1.1209    1.3919   -2.9782 H   0  0  0  0  0  0  0  0  0  0  0  0
   -5.0594    1.6838   -2.1941 H   0  0  0  0  0  0  0  0  0  0  0  0
   -6.6034    2.2421   -0.3346 H   0  0  0  0  0  0  0  0  0  0  0  0
   -4.2969   -2.1690   -0.3801 H   0  0  0  0  0  0  0  0  0  0  0  0
   -6.7108   -2.0588    3.4821 H   0  0  0  0  0  0  0  0  0  0  0  0
   -5.6379   -0.6433    3.3830 H   0  0  0  0  0  0  0  0  0  0  0  0
   -8.0751    0.0173    3.3585 H   0  0  0  0  0  0  0  0  0  0  0  0
   -8.3305   -0.9483    1.8898 H   0  0  0  0  0  0  0  0  0  0  0  0
   -1.6444   -2.2538   -1.2385 H   0  0  0  0  0  0  0  0  0  0  0  0
   -1.7930   -0.9396   -0.0627 H   0  0  0  0  0  0  0  0  0  0  0  0
    0.5259   -1.5339   -1.9648 H   0  0  0  0  0  0  0  0  0  0  0  0
    0.5497   -1.7030   -0.2236 H   0  0  0  0  0  0  0  0  0  0  0  0
    6.5743    2.4066    0.5442 H   0  0  0  0  0  0  0  0  0  0  0  0
    5.2628    2.3113   -0.6264 H   0  0  0  0  0  0  0  0  0  0  0  0
    7.9479    0.3148    1.0908 H   0  0  0  0  0  0  0  0  0  0  0  0
    8.9535   -1.7357    0.1172 H   0  0  0  0  0  0  0  0  0  0  0  0
    6.0598   -1.6996   -3.0401 H   0  0  0  0  0  0  0  0  0  0  0  0
    5.0257    0.3506   -2.0993 H   0  0  0  0  0  0  0  0  0  0  0  0
  1  2  2  0
  2  3  1  0
  3  4  1  0
  4  5  1  0
  5  6  1  0
  6  7  1  0
  7  8  1  0
  8  9  1  0
  9 10  2  0
  9 11  2  0
  9 12  1  0
 12 13  2  0
 13 14  1  0
 14 15  2  0
 15 16  1  0
 16 17  2  0
 16 18  1  0
 18 19  1  0
 19 20  1  0
 20 21  1  0
  8 22  1  0
 22 23  1  0
  4 24  2  0
 24 25  1  0
 25 26  2  0
 26 27  1  0
 27 28  2  0
 28 29  1  0
 29 30  1  0
 30 31  1  0
 31 32  2  0
 32 33  1  0
 33 34  2  0
 34 35  1  0
 34 36  1  0
 36 37  2  0
 26  2  1  0
 37 31  1  0
 23  5  1  0
 29 25  1  0
 17 12  1  0
 21 15  1  0
  3 38  1  0
  5 39  1  0
  6 40  1  0
  6 41  1  0
  7 42  1  0
  7 43  1  0
 13 44  1  0
 14 45  1  0
 17 46  1  0
 19 47  1  0
 19 48  1  0
 20 49  1  0
 20 50  1  0
 22 51  1  0
 22 52  1  0
 23 53  1  0
 23 54  1  0
 30 55  1  0
 30 56  1  0
 32 57  1  0
 33 58  1  0
 36 59  1  0
 37 60  1  0
M  END
$$$$
