
     RDKit          3D

 58 62  0  0  0  0  0  0  0  0999 V2000
    8.1691    1.3631    1.6161 C   0  0  0  0  0  0  0  0  0  0  0  0
    7.2411    2.0621    0.7926 O   0  0  0  0  0  0  0  0  0  0  0  0
    5.9135    1.7297    0.9108 C   0  0  0  0  0  0  0  0  0  0  0  0
    5.4395    0.6223    1.6227 C   0  0  0  0  0  0  0  0  0  0  0  0
    4.0675    0.3601    1.6827 C   0  0  0  0  0  0  0  0  0  0  0  0
    3.1445    1.1909    1.0332 C   0  0  0  0  0  0  0  0  0  0  0  0
    1.7205    0.8770    1.1171 C   0  0  0  0  0  0  0  0  0  0  0  0
    1.1163   -0.0525    1.8376 N   0  0  0  0  0  0  0  0  0  0  0  0
   -0.2193    0.0720    1.5110 C   0  0  0  0  0  0  0  0  0  0  0  0
   -1.2310   -0.8247    2.1257 C   0  0  0  0  0  0  0  0  0  0  0  0
   -1.7409   -1.7894    1.1623 N   0  0  0  0  0  0  0  0  0  0  0  0
   -3.0134   -1.8807    0.6589 C   0  0  0  0  0  0  0  0  0  0  0  0
   -4.2761   -0.7607    1.0574 S   0  0  0  0  0  0  0  0  0  0  0  0
   -5.6235   -1.3202   -0.0301 C   0  0  0  0  0  0  0  0  0  0  0  0
   -5.5993   -0.6364   -1.3832 C   0  0  0  0  0  0  0  0  0  0  0  0
   -4.9386   -1.2231   -2.4723 C   0  0  0  0  0  0  0  0  0  0  0  0
   -4.9314   -0.6004   -3.7265 C   0  0  0  0  0  0  0  0  0  0  0  0
   -5.5900    0.6172   -3.8993 C   0  0  0  0  0  0  0  0  0  0  0  0
   -6.2343    1.2066   -2.8197 C   0  0  0  0  0  0  0  0  0  0  0  0
   -6.8678    2.3756   -2.9846 F   0  0  0  0  0  0  0  0  0  0  0  0
   -6.2412    0.5999   -1.5669 C   0  0  0  0  0  0  0  0  0  0  0  0
   -3.1528   -2.9200   -0.1290 N   0  0  0  0  0  0  0  0  0  0  0  0
   -1.9287   -3.5370   -0.1435 C   0  0  0  0  0  0  0  0  0  0  0  0
   -1.5250   -4.6888   -0.8147 C   0  0  0  0  0  0  0  0  0  0  0  0
   -0.2099   -5.0678   -0.6235 C   0  0  0  0  0  0  0  0  0  0  0  0
    0.6788   -4.4037    0.1469 N   0  0  0  0  0  0  0  0  0  0  0  0
    0.2890   -3.2809    0.7963 C   0  0  0  0  0  0  0  0  0  0  0  0
   -1.0226   -2.8529    0.6520 C   0  0  0  0  0  0  0  0  0  0  0  0
   -0.3718    1.0977    0.6006 C   0  0  0  0  0  0  0  0  0  0  0  0
   -1.5150    1.6885   -0.1212 C   0  0  0  0  0  0  0  0  0  0  0  0
    0.8674    1.6208    0.3440 O   0  0  0  0  0  0  0  0  0  0  0  0
    3.6245    2.2994    0.3148 C   0  0  0  0  0  0  0  0  0  0  0  0
    4.9988    2.5720    0.2444 C   0  0  0  0  0  0  0  0  0  0  0  0
    5.5462    3.6335   -0.4413 O   0  0  0  0  0  0  0  0  0  0  0  0
    4.6697    4.4560   -1.1927 C   0  0  0  0  0  0  0  0  0  0  0  0
    9.1513    1.8311    1.4869 H   0  0  0  0  0  0  0  0  0  0  0  0
    8.2558    0.3117    1.3053 H   0  0  0  0  0  0  0  0  0  0  0  0
    7.9054    1.4396    2.6769 H   0  0  0  0  0  0  0  0  0  0  0  0
    6.1081   -0.0654    2.1284 H   0  0  0  0  0  0  0  0  0  0  0  0
    3.7192   -0.5097    2.2390 H   0  0  0  0  0  0  0  0  0  0  0  0
   -2.0506   -0.2432    2.5541 H   0  0  0  0  0  0  0  0  0  0  0  0
   -0.7904   -1.4015    2.9486 H   0  0  0  0  0  0  0  0  0  0  0  0
   -6.5714   -1.0768    0.4766 H   0  0  0  0  0  0  0  0  0  0  0  0
   -5.6360   -2.4123   -0.1482 H   0  0  0  0  0  0  0  0  0  0  0  0
   -4.4217   -2.1721   -2.3470 H   0  0  0  0  0  0  0  0  0  0  0  0
   -4.4181   -1.0677   -4.5626 H   0  0  0  0  0  0  0  0  0  0  0  0
   -5.6032    1.1087   -4.8680 H   0  0  0  0  0  0  0  0  0  0  0  0
   -6.7567    1.0932   -0.7442 H   0  0  0  0  0  0  0  0  0  0  0  0
   -2.2050   -5.2572   -1.4368 H   0  0  0  0  0  0  0  0  0  0  0  0
    0.1826   -5.9588   -1.1071 H   0  0  0  0  0  0  0  0  0  0  0  0
    1.0363   -2.7704    1.3945 H   0  0  0  0  0  0  0  0  0  0  0  0
   -1.2151    2.5756   -0.6913 H   0  0  0  0  0  0  0  0  0  0  0  0
   -2.2988    1.9900    0.5835 H   0  0  0  0  0  0  0  0  0  0  0  0
   -1.9380    0.9658   -0.8223 H   0  0  0  0  0  0  0  0  0  0  0  0
    2.9062    2.9449   -0.1847 H   0  0  0  0  0  0  0  0  0  0  0  0
    3.9612    4.9777   -0.5430 H   0  0  0  0  0  0  0  0  0  0  0  0
    4.1461    3.8821   -1.9638 H   0  0  0  0  0  0  0  0  0  0  0  0
    5.2791    5.2096   -1.6915 H   0  0  0  0  0  0  0  0  0  0  0  0
  1  2  1  0
  2  3  1  0
  3  4  2  0
  4  5  1  0
  5  6  2  0
  6  7  1  0
  7  8  2  0
  8  9  1  0
  9 10  1  0
 10 11  1  0
 11 12  1  0
 12 13  1  0
 13 14  1  0
 14 15  1  0
 15 16  2  0
 16 17  1  0
 17 18  2  0
 18 19  1  0
 19 20  1  0
 19 21  2  0
 12 22  2  0
 22 23  1  0
 23 24  2  0
 24 25  1  0
 25 26  2  0
 26 27  1  0
 27 28  2  0
  9 29  2  0
 29 30  1  0
 29 31  1  0
  6 32  1  0
 32 33  2  0
 33 34  1  0
 34 35  1  0
 33  3  1  0
 31  7  1  0
 28 11  1  0
 21 15  1  0
 28 23  1  0
  1 36  1  0
  1 37  1  0
  1 38  1  0
  4 39  1  0
  5 40  1  0
 10 41  1  0
 10 42  1  0
 14 43  1  0
 14 44  1  0
 16 45  1  0
 17 46  1  0
 18 47  1  0
 21 48  1  0
 24 49  1  0
 25 50  1  0
 27 51  1  0
 30 52  1  0
 30 53  1  0
 30 54  1  0
 32 55  1  0
 35 56  1  0
 35 57  1  0
 35 58  1  0
M  END
$$$$
