
     RDKit          3D

 44 46  0  0  0  0  0  0  0  0999 V2000
   -6.3966    2.6900   -2.1216 C   0  0  0  0  0  0  0  0  0  0  0  0
   -6.0141    1.4193   -1.6118 O   0  0  0  0  0  0  0  0  0  0  0  0
   -4.6748    1.1769   -1.4629 C   0  0  0  0  0  0  0  0  0  0  0  0
   -3.6593    2.1044   -1.7114 C   0  0  0  0  0  0  0  0  0  0  0  0
   -2.3142    1.7476   -1.5461 C   0  0  0  0  0  0  0  0  0  0  0  0
   -1.9668    0.4589   -1.1317 C   0  0  0  0  0  0  0  0  0  0  0  0
   -0.5530    0.1047   -0.9674 C   0  0  0  0  0  0  0  0  0  0  0  0
    0.0550   -0.1130    0.2169 C   0  0  0  0  0  0  0  0  0  0  0  0
   -0.6291   -0.0013    1.4587 C   0  0  0  0  0  0  0  0  0  0  0  0
   -1.1348    0.0510    2.5026 N   0  0  0  0  0  0  0  0  0  0  0  0
    1.5195   -0.4660    0.1887 C   0  0  0  0  0  0  0  0  0  0  0  0
    2.1190   -0.5001   -0.8825 O   0  0  0  0  0  0  0  0  0  0  0  0
    2.0688   -0.7908    1.4197 N   0  0  0  0  0  0  0  0  0  0  0  0
    3.4113   -1.1936    1.6596 C   0  0  0  0  0  0  0  0  0  0  0  0
    3.5541   -2.1950    2.6339 C   0  0  0  0  0  0  0  0  0  0  0  0
    4.8025   -2.7322    2.9163 C   0  0  0  0  0  0  0  0  0  0  0  0
    5.9217   -2.2555    2.2405 C   0  0  0  0  0  0  0  0  0  0  0  0
    5.8374   -1.2244    1.3181 C   0  0  0  0  0  0  0  0  0  0  0  0
    6.9899   -0.8054    0.7685 N   0  0  0  0  0  0  0  0  0  0  0  0
    6.9502    0.2449   -0.0771 C   0  0  0  0  0  0  0  0  0  0  0  0
    5.7955    0.9241   -0.3921 C   0  0  0  0  0  0  0  0  0  0  0  0
    4.6068    0.4787    0.1765 C   0  0  0  0  0  0  0  0  0  0  0  0
    4.5737   -0.6506    1.0295 C   0  0  0  0  0  0  0  0  0  0  0  0
   -2.9750   -0.4758   -0.8870 C   0  0  0  0  0  0  0  0  0  0  0  0
   -4.3156   -0.1082   -1.0295 C   0  0  0  0  0  0  0  0  0  0  0  0
   -5.2542   -1.0833   -0.7941 O   0  0  0  0  0  0  0  0  0  0  0  0
   -5.8536   -0.8934    0.4887 C   0  0  0  0  0  0  0  0  0  0  0  0
   -7.4860    2.6941   -2.2239 H   0  0  0  0  0  0  0  0  0  0  0  0
   -5.9696    2.8647   -3.1155 H   0  0  0  0  0  0  0  0  0  0  0  0
   -6.1257    3.4875   -1.4230 H   0  0  0  0  0  0  0  0  0  0  0  0
   -3.8767    3.1157   -2.0382 H   0  0  0  0  0  0  0  0  0  0  0  0
   -1.5430    2.4887   -1.7503 H   0  0  0  0  0  0  0  0  0  0  0  0
    0.0018    0.0335   -1.9030 H   0  0  0  0  0  0  0  0  0  0  0  0
    1.4230   -1.0433    2.1609 H   0  0  0  0  0  0  0  0  0  0  0  0
    2.6900   -2.6012    3.1543 H   0  0  0  0  0  0  0  0  0  0  0  0
    4.9084   -3.5253    3.6517 H   0  0  0  0  0  0  0  0  0  0  0  0
    6.8980   -2.6837    2.4586 H   0  0  0  0  0  0  0  0  0  0  0  0
    7.9072    0.5381   -0.4977 H   0  0  0  0  0  0  0  0  0  0  0  0
    5.8120    1.7777   -1.0603 H   0  0  0  0  0  0  0  0  0  0  0  0
    3.7041    1.0377   -0.0467 H   0  0  0  0  0  0  0  0  0  0  0  0
   -2.7380   -1.4915   -0.5793 H   0  0  0  0  0  0  0  0  0  0  0  0
   -5.0951   -0.8305    1.2799 H   0  0  0  0  0  0  0  0  0  0  0  0
   -6.4794   -1.7681    0.6929 H   0  0  0  0  0  0  0  0  0  0  0  0
   -6.4951   -0.0057    0.5047 H   0  0  0  0  0  0  0  0  0  0  0  0
  1  2  1  0
  2  3  1  0
  3  4  2  0
  4  5  1  0
  5  6  2  0
  6  7  1  0
  7  8  2  3
  8  9  1  0
  9 10  3  0
  8 11  1  0
 11 12  2  0
 11 13  1  0
 13 14  1  0
 14 15  2  0
 15 16  1  0
 16 17  2  0
 17 18  1  0
 18 19  2  0
 19 20  1  0
 20 21  2  0
 21 22  1  0
 22 23  2  0
  6 24  1  0
 24 25  2  0
 25 26  1  0
 26 27  1  0
 25  3  1  0
 23 14  1  0
 23 18  1  0
  1 28  1  0
  1 29  1  0
  1 30  1  0
  4 31  1  0
  5 32  1  0
  7 33  1  0
 13 34  1  0
 15 35  1  0
 16 36  1  0
 17 37  1  0
 20 38  1  0
 21 39  1  0
 22 40  1  0
 24 41  1  0
 27 42  1  0
 27 43  1  0
 27 44  1  0
M  END
$$$$
