
     RDKit          3D

 40 41  0  0  0  0  0  0  0  0999 V2000
   -6.3569    3.1320    0.0747 C   0  0  0  0  0  0  0  0  0  0  0  0
   -5.2133    3.1805   -0.7726 O   0  0  0  0  0  0  0  0  0  0  0  0
   -4.0681    2.5975   -0.3062 C   0  0  0  0  0  0  0  0  0  0  0  0
   -3.9232    1.9209    0.9050 C   0  0  0  0  0  0  0  0  0  0  0  0
   -2.6836    1.3713    1.2630 C   0  0  0  0  0  0  0  0  0  0  0  0
   -1.5783    1.4954    0.4081 C   0  0  0  0  0  0  0  0  0  0  0  0
   -0.2390    0.9340    0.7441 C   0  0  0  0  0  0  0  0  0  0  0  0
    0.7520    1.0629    0.0357 O   0  0  0  0  0  0  0  0  0  0  0  0
   -0.2828    0.2657    1.9233 O   0  0  0  0  0  0  0  0  0  0  0  0
    0.9512   -0.3158    2.3442 C   0  0  0  0  0  0  0  0  0  0  0  0
    1.1484   -1.7262    1.7932 C   0  0  0  0  0  0  0  0  0  0  0  0
    1.0244   -2.7257    2.4968 O   0  0  0  0  0  0  0  0  0  0  0  0
    1.5014   -1.7801    0.4628 N   0  0  0  0  0  0  0  0  0  0  0  0
    1.7207   -3.0484   -0.2098 C   0  0  0  0  0  0  0  0  0  0  0  0
    2.3145   -2.8970   -1.6180 C   0  0  0  0  0  0  0  0  0  0  0  0
    3.6274   -2.2627   -1.6061 N   0  0  0  0  0  0  0  0  0  0  0  0
    3.8125   -0.9036   -1.6627 C   0  0  0  0  0  0  0  0  0  0  0  0
    2.7196   -0.1070   -1.8114 O   0  0  0  0  0  0  0  0  0  0  0  0
    5.0880   -0.5069   -1.5540 C   0  0  0  0  0  0  0  0  0  0  0  0
    6.1556   -1.8665   -1.3603 S   0  0  0  0  0  0  0  0  0  0  0  0
    4.7864   -3.0003   -1.4227 C   0  0  0  0  0  0  0  0  0  0  0  0
    4.8990   -4.2087   -1.3105 O   0  0  0  0  0  0  0  0  0  0  0  0
   -1.7263    2.1740   -0.8066 C   0  0  0  0  0  0  0  0  0  0  0  0
   -2.9653    2.7173   -1.1578 C   0  0  0  0  0  0  0  0  0  0  0  0
   -7.1551    3.6961   -0.4215 H   0  0  0  0  0  0  0  0  0  0  0  0
   -6.7066    2.1004    0.2073 H   0  0  0  0  0  0  0  0  0  0  0  0
   -6.1597    3.6135    1.0415 H   0  0  0  0  0  0  0  0  0  0  0  0
   -4.7524    1.7990    1.5932 H   0  0  0  0  0  0  0  0  0  0  0  0
   -2.5989    0.8494    2.2164 H   0  0  0  0  0  0  0  0  0  0  0  0
    0.9326   -0.3777    3.4383 H   0  0  0  0  0  0  0  0  0  0  0  0
    1.8145    0.3130    2.0845 H   0  0  0  0  0  0  0  0  0  0  0  0
    1.4898   -0.9227   -0.0926 H   0  0  0  0  0  0  0  0  0  0  0  0
    0.7535   -3.5653   -0.2614 H   0  0  0  0  0  0  0  0  0  0  0  0
    2.3878   -3.6539    0.4227 H   0  0  0  0  0  0  0  0  0  0  0  0
    2.4194   -3.8947   -2.0604 H   0  0  0  0  0  0  0  0  0  0  0  0
    1.6427   -2.3246   -2.2715 H   0  0  0  0  0  0  0  0  0  0  0  0
    2.9792    0.8254   -1.7034 H   0  0  0  0  0  0  0  0  0  0  0  0
    5.4464    0.5123   -1.5798 H   0  0  0  0  0  0  0  0  0  0  0  0
   -0.8839    2.2840   -1.4857 H   0  0  0  0  0  0  0  0  0  0  0  0
   -3.0737    3.2431   -2.1065 H   0  0  0  0  0  0  0  0  0  0  0  0
  1  2  1  0
  2  3  1  0
  3  4  2  0
  4  5  1  0
  5  6  2  0
  6  7  1  0
  7  8  2  0
  7  9  1  0
  9 10  1  0
 10 11  1  0
 11 12  2  0
 11 13  1  0
 13 14  1  0
 14 15  1  0
 15 16  1  0
 16 17  1  0
 17 18  1  0
 17 19  2  0
 19 20  1  0
 20 21  1  0
 21 22  2  0
  6 23  1  0
 23 24  2  0
 24  3  1  0
 21 16  1  0
  1 25  1  0
  1 26  1  0
  1 27  1  0
  4 28  1  0
  5 29  1  0
 10 30  1  0
 10 31  1  0
 13 32  1  0
 14 33  1  0
 14 34  1  0
 15 35  1  0
 15 36  1  0
 18 37  1  0
 19 38  1  0
 23 39  1  0
 24 40  1  0
M  END
$$$$
