
     RDKit          3D

 61 65  0  0  0  0  0  0  0  0999 V2000
   -8.0558    3.4405   -2.9095 C   0  0  0  0  0  0  0  0  0  0  0  0
   -7.1397    2.4079   -2.3234 C   0  0  0  0  0  0  0  0  0  0  0  0
   -5.8144    2.7151   -2.0103 C   0  0  0  0  0  0  0  0  0  0  0  0
   -4.9609    1.7360   -1.4851 C   0  0  0  0  0  0  0  0  0  0  0  0
   -5.4017    0.4211   -1.2643 C   0  0  0  0  0  0  0  0  0  0  0  0
   -4.5173   -0.6246   -0.7103 C   0  0  0  0  0  0  0  0  0  0  0  0
   -3.1586   -0.6780   -0.9644 C   0  0  0  0  0  0  0  0  0  0  0  0
   -2.4110   -1.7016   -0.3802 C   0  0  0  0  0  0  0  0  0  0  0  0
   -0.9516   -1.6647   -0.6281 C   0  0  0  0  0  0  0  0  0  0  0  0
   -0.5634   -1.7020   -1.7877 O   0  0  0  0  0  0  0  0  0  0  0  0
   -0.1920   -1.5444    0.5200 N   0  0  0  0  0  0  0  0  0  0  0  0
    1.2118   -1.4525    0.6115 C   0  0  0  0  0  0  0  0  0  0  0  0
    1.7630   -1.3820    1.8990 C   0  0  0  0  0  0  0  0  0  0  0  0
    3.1459   -1.2941    2.0808 C   0  0  0  0  0  0  0  0  0  0  0  0
    3.9842   -1.2598    0.9645 C   0  0  0  0  0  0  0  0  0  0  0  0
    5.7403   -1.1819    1.1952 S   0  0  0  0  0  6  0  0  0  0  0  0
    6.0600   -2.0323    2.3238 O   0  0  0  0  0  0  0  0  0  0  0  0
    6.4024   -1.3661   -0.0768 O   0  0  0  0  0  0  0  0  0  0  0  0
    5.9663    0.3942    1.7380 N   0  0  0  0  0  0  0  0  0  0  0  0
    6.1904    1.3808    0.7005 C   0  0  0  0  0  0  0  0  0  0  0  0
    5.4396    1.4956   -0.4253 O   0  0  0  0  0  0  0  0  0  0  0  0
    5.8958    2.5532   -1.1860 N   0  0  0  0  0  0  0  0  0  0  0  0
    6.9150    3.0801   -0.4964 C   0  0  0  0  0  0  0  0  0  0  0  0
    7.6456    4.2476   -1.0452 C   0  0  0  0  0  0  0  0  0  0  0  0
    7.1503    2.3716    0.7172 C   0  0  0  0  0  0  0  0  0  0  0  0
    8.1987    2.6505    1.7262 C   0  0  0  0  0  0  0  0  0  0  0  0
    3.4516   -1.3332   -0.3223 C   0  0  0  0  0  0  0  0  0  0  0  0
    2.0661   -1.4293   -0.4949 C   0  0  0  0  0  0  0  0  0  0  0  0
   -3.0211   -2.6977    0.4114 C   0  0  0  0  0  0  0  0  0  0  0  0
   -2.3537   -3.8146    0.9810 C   0  0  0  0  0  0  0  0  0  0  0  0
   -3.0420   -4.7408    1.7620 C   0  0  0  0  0  0  0  0  0  0  0  0
   -4.4023   -4.5738    1.9768 C   0  0  0  0  0  0  0  0  0  0  0  0
   -5.0661   -3.4881    1.3991 C   0  0  0  0  0  0  0  0  0  0  0  0
   -4.4047   -2.5525    0.6141 C   0  0  0  0  0  0  0  0  0  0  0  0
   -5.1208   -1.5480    0.0798 N   0  0  0  0  0  0  0  0  0  0  0  0
   -6.7385    0.1302   -1.5898 C   0  0  0  0  0  0  0  0  0  0  0  0
   -7.5934    1.1040   -2.1176 C   0  0  0  0  0  0  0  0  0  0  0  0
   -8.1685    3.2719   -3.9850 H   0  0  0  0  0  0  0  0  0  0  0  0
   -9.0420    3.3919   -2.4343 H   0  0  0  0  0  0  0  0  0  0  0  0
   -7.6673    4.4540   -2.7552 H   0  0  0  0  0  0  0  0  0  0  0  0
   -5.4329    3.7227   -2.1654 H   0  0  0  0  0  0  0  0  0  0  0  0
   -3.9439    2.0269   -1.2364 H   0  0  0  0  0  0  0  0  0  0  0  0
   -2.6732    0.0478   -1.6087 H   0  0  0  0  0  0  0  0  0  0  0  0
   -0.6968   -1.5064    1.3980 H   0  0  0  0  0  0  0  0  0  0  0  0
    1.1243   -1.4066    2.7796 H   0  0  0  0  0  0  0  0  0  0  0  0
    3.5584   -1.2569    3.0862 H   0  0  0  0  0  0  0  0  0  0  0  0
    6.5344    0.4276    2.5802 H   0  0  0  0  0  0  0  0  0  0  0  0
    6.9535    4.9645   -1.4965 H   0  0  0  0  0  0  0  0  0  0  0  0
    8.3576    3.9232   -1.8122 H   0  0  0  0  0  0  0  0  0  0  0  0
    8.2038    4.7724   -0.2633 H   0  0  0  0  0  0  0  0  0  0  0  0
    8.0475    3.6398    2.1749 H   0  0  0  0  0  0  0  0  0  0  0  0
    8.2004    1.9118    2.5335 H   0  0  0  0  0  0  0  0  0  0  0  0
    9.1880    2.6321    1.2608 H   0  0  0  0  0  0  0  0  0  0  0  0
    4.0986   -1.3166   -1.1975 H   0  0  0  0  0  0  0  0  0  0  0  0
    1.6871   -1.4828   -1.5111 H   0  0  0  0  0  0  0  0  0  0  0  0
   -1.2933   -3.9857    0.8006 H   0  0  0  0  0  0  0  0  0  0  0  0
   -2.5202   -5.5934    2.1904 H   0  0  0  0  0  0  0  0  0  0  0  0
   -4.9555   -5.2896    2.5802 H   0  0  0  0  0  0  0  0  0  0  0  0
   -6.1362   -3.3723    1.5606 H   0  0  0  0  0  0  0  0  0  0  0  0
   -7.1253   -0.8772   -1.4373 H   0  0  0  0  0  0  0  0  0  0  0  0
   -8.6165    0.8345   -2.3620 H   0  0  0  0  0  0  0  0  0  0  0  0
  1  2  1  0
  2  3  2  0
  3  4  1  0
  4  5  2  0
  5  6  1  0
  6  7  2  0
  7  8  1  0
  8  9  1  0
  9 10  2  0
  9 11  1  0
 11 12  1  0
 12 13  2  0
 13 14  1  0
 14 15  2  0
 15 16  1  0
 16 17  2  0
 16 18  2  0
 16 19  1  0
 19 20  1  0
 20 21  1  0
 21 22  1  0
 22 23  2  0
 23 24  1  0
 23 25  1  0
 25 26  1  0
 15 27  1  0
 27 28  2  0
  8 29  2  0
 29 30  1  0
 30 31  2  0
 31 32  1  0
 32 33  2  0
 33 34  1  0
 34 35  2  0
  5 36  1  0
 36 37  2  0
 37  2  1  0
 35  6  1  0
 28 12  1  0
 34 29  1  0
 25 20  2  0
  1 38  1  0
  1 39  1  0
  1 40  1  0
  3 41  1  0
  4 42  1  0
  7 43  1  0
 11 44  1  0
 13 45  1  0
 14 46  1  0
 19 47  1  0
 24 48  1  0
 24 49  1  0
 24 50  1  0
 26 51  1  0
 26 52  1  0
 26 53  1  0
 27 54  1  0
 28 55  1  0
 30 56  1  0
 31 57  1  0
 32 58  1  0
 33 59  1  0
 36 60  1  0
 37 61  1  0
M  END
$$$$
