
     RDKit          3D

 24 24  0  0  0  0  0  0  0  0999 V2000
   -4.0527    0.6582    0.2560 C   0  0  0  0  0  0  0  0  0  0  0  0
   -2.7181    0.1200    0.0826 N   0  0  0  0  0  0  0  0  0  0  0  0
   -2.4063   -1.2004   -0.0722 C   0  0  0  0  0  0  0  0  0  0  0  0
   -3.5045   -2.4626   -0.0733 S   0  0  0  0  0  0  0  0  0  0  0  0
   -1.0937   -1.5067   -0.2965 N   0  0  0  0  0  0  0  0  0  0  0  0
    0.0949   -0.7884   -0.0539 C   0  0  0  0  0  0  0  0  0  0  0  0
    0.1821    0.3190    0.7912 C   0  0  0  0  0  0  0  0  0  0  0  0
    1.4073    0.9651    0.9927 C   0  0  0  0  0  0  0  0  0  0  0  0
    2.5660    0.5108    0.3556 C   0  0  0  0  0  0  0  0  0  0  0  0
    3.8839    1.1835    0.6005 C   0  0  0  0  0  0  0  0  0  0  0  0
    2.4879   -0.6242   -0.4561 C   0  0  0  0  0  0  0  0  0  0  0  0
    1.2634   -1.2698   -0.6543 C   0  0  0  0  0  0  0  0  0  0  0  0
   -3.9638    1.7199    0.4988 H   0  0  0  0  0  0  0  0  0  0  0  0
   -4.5674    0.1393    1.0686 H   0  0  0  0  0  0  0  0  0  0  0  0
   -4.6109    0.5401   -0.6766 H   0  0  0  0  0  0  0  0  0  0  0  0
   -2.0537    0.7464   -0.3536 H   0  0  0  0  0  0  0  0  0  0  0  0
   -0.9697   -2.4540   -0.6384 H   0  0  0  0  0  0  0  0  0  0  0  0
   -0.6756    0.6730    1.3544 H   0  0  0  0  0  0  0  0  0  0  0  0
    1.4509    1.8184    1.6664 H   0  0  0  0  0  0  0  0  0  0  0  0
    3.7468    2.2536    0.7885 H   0  0  0  0  0  0  0  0  0  0  0  0
    4.3794    0.7325    1.4657 H   0  0  0  0  0  0  0  0  0  0  0  0
    4.5387    1.0887   -0.2721 H   0  0  0  0  0  0  0  0  0  0  0  0
    3.3797   -1.0164   -0.9399 H   0  0  0  0  0  0  0  0  0  0  0  0
    1.2356   -2.1458   -1.2975 H   0  0  0  0  0  0  0  0  0  0  0  0
  1  2  1  0
  2  3  1  0
  3  4  2  0
  3  5  1  0
  5  6  1  0
  6  7  2  0
  7  8  1  0
  8  9  2  0
  9 10  1  0
  9 11  1  0
 11 12  2  0
 12  6  1  0
  1 13  1  0
  1 14  1  0
  1 15  1  0
  2 16  1  0
  5 17  1  0
  7 18  1  0
  8 19  1  0
 10 20  1  0
 10 21  1  0
 10 22  1  0
 11 23  1  0
 12 24  1  0
M  END
$$$$
