
     RDKit          3D

 60 65  0  0  0  0  0  0  0  0999 V2000
   -3.6684   -5.2245    1.4063 O   0  0  0  0  0  0  0  0  0  0  0  0
   -3.3086   -4.0525    1.4472 C   0  0  0  0  0  0  0  0  0  0  0  0
   -2.0452   -3.6552    1.0224 N   0  0  0  0  0  0  0  0  0  0  0  0
   -1.5824   -2.3391    1.0575 C   0  0  0  0  0  0  0  0  0  0  0  0
   -0.1732   -2.1392    0.5061 C   0  0  0  0  0  0  0  0  0  0  0  0
   -0.1778   -2.4022   -1.0116 C   0  0  0  0  0  0  0  0  0  0  0  0
    0.8210   -1.5154   -1.7483 C   0  0  0  0  0  0  0  0  0  0  0  0
    0.4647   -0.0941   -1.5522 N   0  0  0  0  0  0  0  0  0  0  0  0
    1.3327    1.0681   -2.4351 S   0  0  0  0  0  6  0  0  0  0  0  0
    0.6668    2.3450   -2.2765 O   0  0  0  0  0  0  0  0  0  0  0  0
    1.6109    0.5259   -3.7487 O   0  0  0  0  0  0  0  0  0  0  0  0
    2.8808    1.1542   -1.5555 C   0  0  0  0  0  0  0  0  0  0  0  0
    3.0724    2.1387   -0.5778 C   0  0  0  0  0  0  0  0  0  0  0  0
    4.2863    2.2010    0.1085 C   0  0  0  0  0  0  0  0  0  0  0  0
    5.3018    1.2932   -0.1917 C   0  0  0  0  0  0  0  0  0  0  0  0
    5.1216    0.3441   -1.2056 C   0  0  0  0  0  0  0  0  0  0  0  0
    3.9101    0.2684   -1.8891 C   0  0  0  0  0  0  0  0  0  0  0  0
    6.0906   -0.5528   -1.5737 O   0  0  0  0  0  0  0  0  0  0  0  0
    7.3768   -0.1648   -1.0764 C   0  0  0  0  0  0  0  0  0  0  0  0
    7.2869    0.2428    0.3864 C   0  0  0  0  0  0  0  0  0  0  0  0
    6.4565    1.4003    0.5404 O   0  0  0  0  0  0  0  0  0  0  0  0
   -0.0252    0.2852   -0.2049 C   0  0  0  0  0  0  0  0  0  0  0  0
    0.3906   -0.7480    0.8382 C   0  0  0  0  0  0  0  0  0  0  0  0
   -2.2875   -1.3324    1.4927 N   0  0  0  0  0  0  0  0  0  0  0  0
   -3.5283   -1.6908    1.8989 C   0  0  0  0  0  0  0  0  0  0  0  0
   -4.0951   -2.9424    1.9144 C   0  0  0  0  0  0  0  0  0  0  0  0
   -5.3721   -2.8846    2.3826 N   0  0  0  0  0  0  0  0  0  0  0  0
   -5.6338   -1.6050    2.6596 N   0  0  0  0  0  0  0  0  0  0  0  0
   -4.5257   -0.8812    2.3596 N   0  0  0  0  0  0  0  0  0  0  0  0
   -4.4957    0.5550    2.5541 C   0  0  0  0  0  0  0  0  0  0  0  0
   -4.5389    1.2949    1.2437 C   0  0  0  0  0  0  0  0  0  0  0  0
   -5.6750    1.2482    0.4197 C   0  0  0  0  0  0  0  0  0  0  0  0
   -5.6909    1.9283   -0.8019 C   0  0  0  0  0  0  0  0  0  0  0  0
   -4.5790    2.6630   -1.2128 C   0  0  0  0  0  0  0  0  0  0  0  0
   -3.4444    2.7155   -0.4022 C   0  0  0  0  0  0  0  0  0  0  0  0
   -3.4340    2.0379    0.8142 C   0  0  0  0  0  0  0  0  0  0  0  0
   -2.3357    2.1107    1.5817 F   0  0  0  0  0  0  0  0  0  0  0  0
   -1.4633   -4.4036    0.6764 H   0  0  0  0  0  0  0  0  0  0  0  0
    0.4668   -2.8874    0.9951 H   0  0  0  0  0  0  0  0  0  0  0  0
    0.0572   -3.4578   -1.2006 H   0  0  0  0  0  0  0  0  0  0  0  0
   -1.1807   -2.2311   -1.4284 H   0  0  0  0  0  0  0  0  0  0  0  0
    0.7810   -1.7618   -2.8159 H   0  0  0  0  0  0  0  0  0  0  0  0
    1.8368   -1.7155   -1.3872 H   0  0  0  0  0  0  0  0  0  0  0  0
    2.2868    2.8550   -0.3448 H   0  0  0  0  0  0  0  0  0  0  0  0
    4.4407    2.9519    0.8797 H   0  0  0  0  0  0  0  0  0  0  0  0
    3.7807   -0.4666   -2.6801 H   0  0  0  0  0  0  0  0  0  0  0  0
    8.0482   -1.0220   -1.1885 H   0  0  0  0  0  0  0  0  0  0  0  0
    7.7597    0.6547   -1.6996 H   0  0  0  0  0  0  0  0  0  0  0  0
    6.8747   -0.5677    1.0036 H   0  0  0  0  0  0  0  0  0  0  0  0
    8.2813    0.4957    0.7720 H   0  0  0  0  0  0  0  0  0  0  0  0
   -1.1149    0.3721   -0.2618 H   0  0  0  0  0  0  0  0  0  0  0  0
    0.3522    1.2653    0.1002 H   0  0  0  0  0  0  0  0  0  0  0  0
    1.4872   -0.8051    0.8656 H   0  0  0  0  0  0  0  0  0  0  0  0
    0.0806   -0.4187    1.8368 H   0  0  0  0  0  0  0  0  0  0  0  0
   -3.5894    0.7825    3.1283 H   0  0  0  0  0  0  0  0  0  0  0  0
   -5.3527    0.8399    3.1758 H   0  0  0  0  0  0  0  0  0  0  0  0
   -6.5500    0.6714    0.7191 H   0  0  0  0  0  0  0  0  0  0  0  0
   -6.5754    1.8832   -1.4361 H   0  0  0  0  0  0  0  0  0  0  0  0
   -4.5918    3.1895   -2.1656 H   0  0  0  0  0  0  0  0  0  0  0  0
   -2.5692    3.2793   -0.7142 H   0  0  0  0  0  0  0  0  0  0  0  0
  1  2  2  0
  2  3  1  0
  3  4  1  0
  4  5  1  0
  5  6  1  0
  6  7  1  0
  7  8  1  0
  8  9  1  0
  9 10  2  0
  9 11  2  0
  9 12  1  0
 12 13  2  0
 13 14  1  0
 14 15  2  0
 15 16  1  0
 16 17  2  0
 16 18  1  0
 18 19  1  0
 19 20  1  0
 20 21  1  0
  8 22  1  0
 22 23  1  0
  4 24  2  0
 24 25  1  0
 25 26  2  0
 26 27  1  0
 27 28  2  0
 28 29  1  0
 29 30  1  0
 30 31  1  0
 31 32  2  0
 32 33  1  0
 33 34  2  0
 34 35  1  0
 35 36  2  0
 36 37  1  0
 26  2  1  0
 36 31  1  0
 23  5  1  0
 29 25  1  0
 17 12  1  0
 21 15  1  0
  3 38  1  0
  5 39  1  0
  6 40  1  0
  6 41  1  0
  7 42  1  0
  7 43  1  0
 13 44  1  0
 14 45  1  0
 17 46  1  0
 19 47  1  0
 19 48  1  0
 20 49  1  0
 20 50  1  0
 22 51  1  0
 22 52  1  0
 23 53  1  0
 23 54  1  0
 30 55  1  0
 30 56  1  0
 32 57  1  0
 33 58  1  0
 34 59  1  0
 35 60  1  0
M  END
$$$$
