
     RDKit          3D

 40 42  0  0  0  0  0  0  0  0999 V2000
   -4.0279   -2.4941   -0.3112 C   0  0  0  0  0  0  0  0  0  0  0  0
   -4.8069   -1.2147   -0.1609 C   0  0  0  0  0  0  0  0  0  0  0  0
   -6.2120   -1.2904   -0.1574 C   0  0  0  0  0  0  0  0  0  0  0  0
   -6.9895   -0.1428   -0.0234 C   0  0  0  0  0  0  0  0  0  0  0  0
   -6.3721    1.0941    0.1103 C   0  0  0  0  0  0  0  0  0  0  0  0
   -4.9778    1.1861    0.1087 C   0  0  0  0  0  0  0  0  0  0  0  0
   -4.1791    0.0447   -0.0295 C   0  0  0  0  0  0  0  0  0  0  0  0
   -2.7646    0.1056   -0.0265 N   0  0  0  0  0  0  0  0  0  0  0  0
   -1.9642    1.2337    0.0008 C   0  0  0  0  0  0  0  0  0  0  0  0
   -2.3242    2.4027   -0.0490 O   0  0  0  0  0  0  0  0  0  0  0  0
   -0.5021    0.9518    0.0573 C   0  0  0  0  0  0  0  0  0  0  0  0
    0.3700    1.7740   -0.6616 C   0  0  0  0  0  0  0  0  0  0  0  0
    1.7499    1.5386   -0.6327 C   0  0  0  0  0  0  0  0  0  0  0  0
    2.2734    0.4892    0.1249 C   0  0  0  0  0  0  0  0  0  0  0  0
    3.6441    0.1864    0.2103 N   0  0  0  0  0  0  0  0  0  0  0  0
    4.7059    0.8126   -0.4197 C   0  0  0  0  0  0  0  0  0  0  0  0
    4.6183    1.7623   -1.1903 O   0  0  0  0  0  0  0  0  0  0  0  0
    5.9851    0.2158   -0.0752 C   0  0  0  0  0  0  0  0  0  0  0  0
    7.2717    0.5292   -0.4712 C   0  0  0  0  0  0  0  0  0  0  0  0
    8.1338   -0.3861    0.1783 C   0  0  0  0  0  0  0  0  0  0  0  0
    7.3259   -1.2041    0.9316 C   0  0  0  0  0  0  0  0  0  0  0  0
    6.0220   -0.8520    0.7878 O   0  0  0  0  0  0  0  0  0  0  0  0
    1.3958   -0.3191    0.8610 C   0  0  0  0  0  0  0  0  0  0  0  0
    0.0155   -0.0909    0.8325 C   0  0  0  0  0  0  0  0  0  0  0  0
   -4.6888   -3.3629   -0.4010 H   0  0  0  0  0  0  0  0  0  0  0  0
   -3.3918   -2.6568    0.5648 H   0  0  0  0  0  0  0  0  0  0  0  0
   -3.4100   -2.4588   -1.2143 H   0  0  0  0  0  0  0  0  0  0  0  0
   -6.7125   -2.2509   -0.2608 H   0  0  0  0  0  0  0  0  0  0  0  0
   -8.0738   -0.2138   -0.0230 H   0  0  0  0  0  0  0  0  0  0  0  0
   -6.9704    1.9953    0.2173 H   0  0  0  0  0  0  0  0  0  0  0  0
   -4.5441    2.1745    0.2236 H   0  0  0  0  0  0  0  0  0  0  0  0
   -2.2862   -0.7773   -0.1287 H   0  0  0  0  0  0  0  0  0  0  0  0
   -0.0202    2.6029   -1.2499 H   0  0  0  0  0  0  0  0  0  0  0  0
    2.3859    2.2026   -1.2105 H   0  0  0  0  0  0  0  0  0  0  0  0
    3.9126   -0.5893    0.8066 H   0  0  0  0  0  0  0  0  0  0  0  0
    7.5407    1.3282   -1.1495 H   0  0  0  0  0  0  0  0  0  0  0  0
    9.2111   -0.4422    0.1065 H   0  0  0  0  0  0  0  0  0  0  0  0
    7.5159   -2.0402    1.5909 H   0  0  0  0  0  0  0  0  0  0  0  0
    1.7759   -1.1321    1.4754 H   0  0  0  0  0  0  0  0  0  0  0  0
   -0.6351   -0.7119    1.4425 H   0  0  0  0  0  0  0  0  0  0  0  0
  1  2  1  0
  2  3  2  0
  3  4  1  0
  4  5  2  0
  5  6  1  0
  6  7  2  0
  7  8  1  0
  8  9  1  0
  9 10  2  0
  9 11  1  0
 11 12  2  0
 12 13  1  0
 13 14  2  0
 14 15  1  0
 15 16  1  0
 16 17  2  0
 16 18  1  0
 18 19  2  0
 19 20  1  0
 20 21  2  0
 21 22  1  0
 14 23  1  0
 23 24  2  0
  7  2  1  0
 24 11  1  0
 22 18  1  0
  1 25  1  0
  1 26  1  0
  1 27  1  0
  3 28  1  0
  4 29  1  0
  5 30  1  0
  6 31  1  0
  8 32  1  0
 12 33  1  0
 13 34  1  0
 15 35  1  0
 19 36  1  0
 20 37  1  0
 21 38  1  0
 23 39  1  0
 24 40  1  0
M  END
$$$$
