
     RDKit          3D

 67 72  0  0  0  0  0  0  0  0999 V2000
    2.6652   -3.1242   -0.3765 O   0  0  0  0  0  0  0  0  0  0  0  0
    2.4283   -1.9163   -0.4655 C   0  0  0  0  0  0  0  0  0  0  0  0
    3.5284   -0.8884   -0.1542 C   0  0  0  0  0  0  0  0  0  0  0  0
    3.5319   -0.5784    1.3530 C   0  0  0  0  0  0  0  0  0  0  0  0
    4.7430    0.2163    1.7865 C   0  0  0  0  0  0  0  0  0  0  0  0
    5.9624   -0.4298    2.0364 C   0  0  0  0  0  0  0  0  0  0  0  0
    7.0848    0.3059    2.4194 C   0  0  0  0  0  0  0  0  0  0  0  0
    7.0022    1.6915    2.5491 C   0  0  0  0  0  0  0  0  0  0  0  0
    5.7968    2.3428    2.2958 C   0  0  0  0  0  0  0  0  0  0  0  0
    4.6710    1.6099    1.9164 C   0  0  0  0  0  0  0  0  0  0  0  0
    3.3730    0.3083   -0.9838 N   0  0  0  0  0  0  0  0  0  0  0  0
    2.0872    0.8435   -0.9872 C   0  0  0  0  0  0  0  0  0  0  0  0
    2.0308    2.1737   -1.1365 N   0  0  0  0  0  0  0  0  0  0  0  0
    0.8079    2.6998   -1.1916 C   0  0  0  0  0  0  0  0  0  0  0  0
   -0.3426    2.0322   -1.0545 N   0  0  0  0  0  0  0  0  0  0  0  0
   -0.2690    0.6969   -0.8618 C   0  0  0  0  0  0  0  0  0  0  0  0
   -1.4729    0.0433   -0.5081 N   0  0  0  0  0  0  0  0  0  0  0  0
   -2.6918    0.6891   -1.0628 C   0  0  0  0  0  0  0  0  0  0  0  0
   -3.4082    1.6221   -0.0608 C   0  0  0  0  0  0  0  0  0  0  0  0
   -3.7688    0.9030    1.1805 N   0  0  0  0  0  0  0  0  0  0  0  0
   -4.9541    1.1824    1.8429 C   0  0  0  0  0  0  0  0  0  0  0  0
   -5.6147    0.2268    2.6323 C   0  0  0  0  0  0  0  0  0  0  0  0
   -6.8155    0.5135    3.2975 C   0  0  0  0  0  0  0  0  0  0  0  0
   -7.3847    1.7769    3.1969 C   0  0  0  0  0  0  0  0  0  0  0  0
   -6.7498    2.7500    2.4361 C   0  0  0  0  0  0  0  0  0  0  0  0
   -5.5515    2.4527    1.7735 C   0  0  0  0  0  0  0  0  0  0  0  0
   -2.9656   -0.2894    1.4973 C   0  0  0  0  0  0  0  0  0  0  0  0
   -1.5200   -0.1356    0.9724 C   0  0  0  0  0  0  0  0  0  0  0  0
    0.9613    0.0183   -0.8753 C   0  0  0  0  0  0  0  0  0  0  0  0
    1.1562   -1.4067   -0.7572 N   0  0  0  0  0  0  0  0  0  0  0  0
    0.1590   -2.3559   -1.2483 C   0  0  0  0  0  0  0  0  0  0  0  0
    0.2283   -2.5438   -2.7519 C   0  0  0  0  0  0  0  0  0  0  0  0
   -0.5361   -1.7408   -3.6114 C   0  0  0  0  0  0  0  0  0  0  0  0
   -0.4554   -1.9049   -4.9962 C   0  0  0  0  0  0  0  0  0  0  0  0
    0.3886   -2.8760   -5.5311 C   0  0  0  0  0  0  0  0  0  0  0  0
    0.4817   -3.0813   -7.2374 Cl  0  0  0  0  0  0  0  0  0  0  0  0
    1.1562   -3.6814   -4.6932 C   0  0  0  0  0  0  0  0  0  0  0  0
    1.0801   -3.5118   -3.3087 C   0  0  0  0  0  0  0  0  0  0  0  0
    4.4803   -1.3526   -0.4439 H   0  0  0  0  0  0  0  0  0  0  0  0
    3.5089   -1.5142    1.9272 H   0  0  0  0  0  0  0  0  0  0  0  0
    2.6207   -0.0432    1.6515 H   0  0  0  0  0  0  0  0  0  0  0  0
    6.0452   -1.5107    1.9403 H   0  0  0  0  0  0  0  0  0  0  0  0
    8.0242   -0.2025    2.6190 H   0  0  0  0  0  0  0  0  0  0  0  0
    7.8776    2.2631    2.8464 H   0  0  0  0  0  0  0  0  0  0  0  0
    5.7317    3.4233    2.3941 H   0  0  0  0  0  0  0  0  0  0  0  0
    3.7368    2.1363    1.7219 H   0  0  0  0  0  0  0  0  0  0  0  0
    4.0608    1.0462   -0.8619 H   0  0  0  0  0  0  0  0  0  0  0  0
    0.7389    3.7716   -1.3449 H   0  0  0  0  0  0  0  0  0  0  0  0
   -2.4904    1.2154   -2.0047 H   0  0  0  0  0  0  0  0  0  0  0  0
   -3.3817   -0.1227   -1.3294 H   0  0  0  0  0  0  0  0  0  0  0  0
   -4.3012    2.0099   -0.5660 H   0  0  0  0  0  0  0  0  0  0  0  0
   -2.7687    2.4739    0.1975 H   0  0  0  0  0  0  0  0  0  0  0  0
   -5.2199   -0.7801    2.7298 H   0  0  0  0  0  0  0  0  0  0  0  0
   -7.3015   -0.2558    3.8914 H   0  0  0  0  0  0  0  0  0  0  0  0
   -8.3160    2.0026    3.7103 H   0  0  0  0  0  0  0  0  0  0  0  0
   -7.1775    3.7460    2.3592 H   0  0  0  0  0  0  0  0  0  0  0  0
   -5.0751    3.2532    1.2142 H   0  0  0  0  0  0  0  0  0  0  0  0
   -2.9104   -0.4380    2.5821 H   0  0  0  0  0  0  0  0  0  0  0  0
   -3.4301   -1.1763    1.0500 H   0  0  0  0  0  0  0  0  0  0  0  0
   -0.9491   -1.0293    1.2487 H   0  0  0  0  0  0  0  0  0  0  0  0
   -1.0601    0.7222    1.4838 H   0  0  0  0  0  0  0  0  0  0  0  0
   -0.8570   -2.1072   -0.9470 H   0  0  0  0  0  0  0  0  0  0  0  0
    0.3328   -3.3313   -0.7741 H   0  0  0  0  0  0  0  0  0  0  0  0
   -1.1983   -0.9779   -3.2080 H   0  0  0  0  0  0  0  0  0  0  0  0
   -1.0530   -1.2747   -5.6493 H   0  0  0  0  0  0  0  0  0  0  0  0
    1.8154   -4.4408   -5.1065 H   0  0  0  0  0  0  0  0  0  0  0  0
    1.6934   -4.1403   -2.6639 H   0  0  0  0  0  0  0  0  0  0  0  0
  1  2  2  0
  2  3  1  0
  3  4  1  0
  4  5  1  0
  5  6  2  0
  6  7  1  0
  7  8  2  0
  8  9  1  0
  9 10  2  0
  3 11  1  0
 11 12  1  0
 12 13  2  0
 13 14  1  0
 14 15  2  0
 15 16  1  0
 16 17  1  0
 17 18  1  0
 18 19  1  0
 19 20  1  0
 20 21  1  0
 21 22  2  0
 22 23  1  0
 23 24  2  0
 24 25  1  0
 25 26  2  0
 20 27  1  0
 27 28  1  0
 16 29  2  0
 29 30  1  0
 30 31  1  0
 31 32  1  0
 32 33  2  0
 33 34  1  0
 34 35  2  0
 35 36  1  0
 35 37  1  0
 37 38  2  0
 30  2  1  0
 38 32  1  0
 10  5  1  0
 29 12  1  0
 28 17  1  0
 26 21  1  0
  3 39  1  0
  4 40  1  0
  4 41  1  0
  6 42  1  0
  7 43  1  0
  8 44  1  0
  9 45  1  0
 10 46  1  0
 11 47  1  0
 14 48  1  0
 18 49  1  0
 18 50  1  0
 19 51  1  0
 19 52  1  0
 22 53  1  0
 23 54  1  0
 24 55  1  0
 25 56  1  0
 26 57  1  0
 27 58  1  0
 27 59  1  0
 28 60  1  0
 28 61  1  0
 31 62  1  0
 31 63  1  0
 33 64  1  0
 34 65  1  0
 37 66  1  0
 38 67  1  0
M  END
$$$$
