
     RDKit          3D

 48 50  0  0  0  0  0  0  0  0999 V2000
   -5.4999   -1.6479   -1.2704 C   0  0  0  0  0  0  0  0  0  0  0  0
   -4.1230   -1.6426   -1.6415 O   0  0  0  0  0  0  0  0  0  0  0  0
   -3.4526   -0.4856   -1.3385 C   0  0  0  0  0  0  0  0  0  0  0  0
   -2.1539   -0.6778   -0.8547 C   0  0  0  0  0  0  0  0  0  0  0  0
   -1.3444    0.4146   -0.5290 C   0  0  0  0  0  0  0  0  0  0  0  0
    0.0099    0.1775   -0.0160 C   0  0  0  0  0  0  0  0  0  0  0  0
    1.1512    0.5468   -0.6304 C   0  0  0  0  0  0  0  0  0  0  0  0
    1.2006    1.2552   -1.8635 C   0  0  0  0  0  0  0  0  0  0  0  0
    1.2117    1.8054   -2.8857 N   0  0  0  0  0  0  0  0  0  0  0  0
    2.4505    0.2477    0.0411 C   0  0  0  0  0  0  0  0  0  0  0  0
    3.3160    1.1108    0.1050 O   0  0  0  0  0  0  0  0  0  0  0  0
    2.5618   -1.0665    0.4631 N   0  0  0  0  0  0  0  0  0  0  0  0
    3.6834   -1.6490    1.1096 C   0  0  0  0  0  0  0  0  0  0  0  0
    3.9571   -2.9708    0.7270 C   0  0  0  0  0  0  0  0  0  0  0  0
    5.0574   -3.6411    1.2436 C   0  0  0  0  0  0  0  0  0  0  0  0
    5.8788   -3.0004    2.1660 C   0  0  0  0  0  0  0  0  0  0  0  0
    5.6141   -1.7174    2.6163 C   0  0  0  0  0  0  0  0  0  0  0  0
    6.4437   -1.2187    3.5492 N   0  0  0  0  0  0  0  0  0  0  0  0
    6.1801    0.0032    4.0515 C   0  0  0  0  0  0  0  0  0  0  0  0
    5.0911    0.7577    3.6801 C   0  0  0  0  0  0  0  0  0  0  0  0
    4.2374    0.2338    2.7142 C   0  0  0  0  0  0  0  0  0  0  0  0
    4.4887   -1.0205    2.1094 C   0  0  0  0  0  0  0  0  0  0  0  0
   -1.8548    1.7089   -0.6663 C   0  0  0  0  0  0  0  0  0  0  0  0
   -3.1520    1.9134   -1.1468 C   0  0  0  0  0  0  0  0  0  0  0  0
   -3.5268    3.2278   -1.2564 O   0  0  0  0  0  0  0  0  0  0  0  0
   -4.8342    3.5038   -0.7574 C   0  0  0  0  0  0  0  0  0  0  0  0
   -3.9334    0.8164   -1.5385 C   0  0  0  0  0  0  0  0  0  0  0  0
   -5.1546    1.0166   -2.1306 O   0  0  0  0  0  0  0  0  0  0  0  0
   -4.9789    1.1669   -3.5430 C   0  0  0  0  0  0  0  0  0  0  0  0
   -6.1195   -1.2933   -2.0991 H   0  0  0  0  0  0  0  0  0  0  0  0
   -5.6931   -1.0717   -0.3582 H   0  0  0  0  0  0  0  0  0  0  0  0
   -5.7829   -2.6863   -1.0706 H   0  0  0  0  0  0  0  0  0  0  0  0
   -1.7848   -1.6944   -0.7417 H   0  0  0  0  0  0  0  0  0  0  0  0
    0.0349   -0.3389    0.9423 H   0  0  0  0  0  0  0  0  0  0  0  0
    1.9402   -1.7221    0.0035 H   0  0  0  0  0  0  0  0  0  0  0  0
    3.3440   -3.4814   -0.0118 H   0  0  0  0  0  0  0  0  0  0  0  0
    5.2865   -4.6544    0.9243 H   0  0  0  0  0  0  0  0  0  0  0  0
    6.7448   -3.5260    2.5641 H   0  0  0  0  0  0  0  0  0  0  0  0
    6.8859    0.3624    4.7945 H   0  0  0  0  0  0  0  0  0  0  0  0
    4.9054    1.7287    4.1239 H   0  0  0  0  0  0  0  0  0  0  0  0
    3.3646    0.8201    2.4482 H   0  0  0  0  0  0  0  0  0  0  0  0
   -1.2546    2.5765   -0.3994 H   0  0  0  0  0  0  0  0  0  0  0  0
   -5.5709    3.4349   -1.5626 H   0  0  0  0  0  0  0  0  0  0  0  0
   -5.1118    2.8574    0.0832 H   0  0  0  0  0  0  0  0  0  0  0  0
   -4.8381    4.5370   -0.3962 H   0  0  0  0  0  0  0  0  0  0  0  0
   -5.9688    1.3044   -3.9882 H   0  0  0  0  0  0  0  0  0  0  0  0
   -4.3762    2.0508   -3.7784 H   0  0  0  0  0  0  0  0  0  0  0  0
   -4.5304    0.2701   -3.9852 H   0  0  0  0  0  0  0  0  0  0  0  0
  1  2  1  0
  2  3  1  0
  3  4  2  0
  4  5  1  0
  5  6  1  0
  6  7  2  3
  7  8  1  0
  8  9  3  0
  7 10  1  0
 10 11  2  0
 10 12  1  0
 12 13  1  0
 13 14  2  0
 14 15  1  0
 15 16  2  0
 16 17  1  0
 17 18  2  0
 18 19  1  0
 19 20  2  0
 20 21  1  0
 21 22  2  0
  5 23  2  0
 23 24  1  0
 24 25  1  0
 25 26  1  0
 24 27  2  0
 27 28  1  0
 28 29  1  0
 27  3  1  0
 22 13  1  0
 22 17  1  0
  1 30  1  0
  1 31  1  0
  1 32  1  0
  4 33  1  0
  6 34  1  0
 12 35  1  0
 14 36  1  0
 15 37  1  0
 16 38  1  0
 19 39  1  0
 20 40  1  0
 21 41  1  0
 23 42  1  0
 26 43  1  0
 26 44  1  0
 26 45  1  0
 29 46  1  0
 29 47  1  0
 29 48  1  0
M  END
$$$$
