
     RDKit          3D

 49 50  0  0  0  0  0  0  0  0999 V2000
    6.0090   -2.0623    0.8580 C   0  0  0  0  0  0  0  0  0  0  0  0
    5.1430   -0.8455    1.1351 C   0  0  0  0  0  0  0  0  0  0  0  0
    3.9938   -0.9168    0.2846 O   0  0  0  0  0  0  0  0  0  0  0  0
    3.1239    0.1302    0.4196 C   0  0  0  0  0  0  0  0  0  0  0  0
    3.2895    1.0389    1.2281 O   0  0  0  0  0  0  0  0  0  0  0  0
    1.9772    0.0456   -0.5010 C   0  0  0  0  0  0  0  0  0  0  0  0
    1.6275   -1.0149   -1.4133 C   0  0  0  0  0  0  0  0  0  0  0  0
    2.3914   -2.2819   -1.6230 C   0  0  0  0  0  0  0  0  0  0  0  0
    0.4572   -0.6396   -2.0610 C   0  0  0  0  0  0  0  0  0  0  0  0
   -0.3050   -1.3443   -3.1355 C   0  0  0  0  0  0  0  0  0  0  0  0
    0.0352    0.5627   -1.5185 N   0  0  0  0  0  0  0  0  0  0  0  0
   -1.2045    1.2638   -1.8885 C   0  0  0  0  0  0  0  0  0  0  0  0
   -2.1557    1.5034   -0.7357 C   0  0  0  0  0  0  0  0  0  0  0  0
   -2.4659    2.8217   -0.3625 C   0  0  0  0  0  0  0  0  0  0  0  0
   -3.3590    3.0775    0.6761 C   0  0  0  0  0  0  0  0  0  0  0  0
   -3.9806    2.0232    1.3462 C   0  0  0  0  0  0  0  0  0  0  0  0
   -3.7145    0.6995    0.9824 C   0  0  0  0  0  0  0  0  0  0  0  0
   -4.3227   -0.3938    1.5442 O   0  0  0  0  0  0  0  0  0  0  0  0
   -5.2744   -0.1639    2.5749 C   0  0  0  0  0  0  0  0  0  0  0  0
   -2.7830    0.4482   -0.0466 C   0  0  0  0  0  0  0  0  0  0  0  0
   -2.5217   -0.8322   -0.4752 O   0  0  0  0  0  0  0  0  0  0  0  0
   -1.8127   -1.5773    0.5182 C   0  0  0  0  0  0  0  0  0  0  0  0
    1.0073    1.0375   -0.6557 C   0  0  0  0  0  0  0  0  0  0  0  0
    0.9333    2.3851   -0.0131 C   0  0  0  0  0  0  0  0  0  0  0  0
    6.9146   -2.0472    1.4711 H   0  0  0  0  0  0  0  0  0  0  0  0
    5.4561   -2.9839    1.0730 H   0  0  0  0  0  0  0  0  0  0  0  0
    6.2969   -2.1051   -0.1990 H   0  0  0  0  0  0  0  0  0  0  0  0
    4.8314   -0.8474    2.1856 H   0  0  0  0  0  0  0  0  0  0  0  0
    5.7110    0.0681    0.9171 H   0  0  0  0  0  0  0  0  0  0  0  0
    1.9221   -2.9418   -2.3596 H   0  0  0  0  0  0  0  0  0  0  0  0
    2.4579   -2.8416   -0.6831 H   0  0  0  0  0  0  0  0  0  0  0  0
    3.4058   -2.0619   -1.9794 H   0  0  0  0  0  0  0  0  0  0  0  0
   -1.2993   -1.6331   -2.7832 H   0  0  0  0  0  0  0  0  0  0  0  0
    0.1989   -2.2531   -3.4703 H   0  0  0  0  0  0  0  0  0  0  0  0
   -0.4155   -0.6983   -4.0125 H   0  0  0  0  0  0  0  0  0  0  0  0
   -1.7283    0.6972   -2.6638 H   0  0  0  0  0  0  0  0  0  0  0  0
   -0.8900    2.2056   -2.3550 H   0  0  0  0  0  0  0  0  0  0  0  0
   -2.0084    3.6645   -0.8784 H   0  0  0  0  0  0  0  0  0  0  0  0
   -3.5813    4.1041    0.9589 H   0  0  0  0  0  0  0  0  0  0  0  0
   -4.6789    2.2700    2.1390 H   0  0  0  0  0  0  0  0  0  0  0  0
   -6.1247    0.4213    2.2071 H   0  0  0  0  0  0  0  0  0  0  0  0
   -4.8070    0.3170    3.4408 H   0  0  0  0  0  0  0  0  0  0  0  0
   -5.6558   -1.1355    2.9040 H   0  0  0  0  0  0  0  0  0  0  0  0
   -2.5076   -2.0462    1.2220 H   0  0  0  0  0  0  0  0  0  0  0  0
   -1.2690   -2.3831    0.0096 H   0  0  0  0  0  0  0  0  0  0  0  0
   -1.0811   -0.9649    1.0560 H   0  0  0  0  0  0  0  0  0  0  0  0
    1.9294    2.7854    0.1947 H   0  0  0  0  0  0  0  0  0  0  0  0
    0.3818    2.3276    0.9299 H   0  0  0  0  0  0  0  0  0  0  0  0
    0.4523    3.1180   -0.6659 H   0  0  0  0  0  0  0  0  0  0  0  0
  1  2  1  0
  2  3  1  0
  3  4  1  0
  4  5  2  0
  4  6  1  0
  6  7  1  0
  7  8  1  0
  7  9  2  0
  9 10  1  0
  9 11  1  0
 11 12  1  0
 12 13  1  0
 13 14  2  0
 14 15  1  0
 15 16  2  0
 16 17  1  0
 17 18  1  0
 18 19  1  0
 17 20  2  0
 20 21  1  0
 21 22  1  0
 11 23  1  0
 23 24  1  0
 23  6  2  0
 20 13  1  0
  1 25  1  0
  1 26  1  0
  1 27  1  0
  2 28  1  0
  2 29  1  0
  8 30  1  0
  8 31  1  0
  8 32  1  0
 10 33  1  0
 10 34  1  0
 10 35  1  0
 12 36  1  0
 12 37  1  0
 14 38  1  0
 15 39  1  0
 16 40  1  0
 19 41  1  0
 19 42  1  0
 19 43  1  0
 22 44  1  0
 22 45  1  0
 22 46  1  0
 24 47  1  0
 24 48  1  0
 24 49  1  0
M  END
$$$$
