
     RDKit          3D

 37 38  0  0  0  0  0  0  0  0999 V2000
    5.8666    0.0731   -0.6377 C   0  0  0  0  0  0  0  0  0  0  0  0
    4.5588    0.7437   -1.0178 C   0  0  0  0  0  0  0  0  0  0  0  0
    3.4574    0.3072   -0.1821 N   0  0  0  0  0  0  0  0  0  0  0  0
    2.5433   -0.6616   -0.4739 C   0  0  0  0  0  0  0  0  0  0  0  0
    1.6939   -0.7354    0.6125 C   0  0  0  0  0  0  0  0  0  0  0  0
    0.5284   -1.6328    0.8019 C   0  0  0  0  0  0  0  0  0  0  0  0
   -0.6533   -0.9338    0.3544 N   0  0  0  0  0  0  0  0  0  0  0  0
   -1.9003   -1.4620    0.5987 C   0  0  0  0  0  0  0  0  0  0  0  0
   -2.0812   -2.4867    1.2459 O   0  0  0  0  0  0  0  0  0  0  0  0
   -3.0602   -0.7410    0.0032 C   0  0  0  0  0  0  0  0  0  0  0  0
   -4.2391   -1.4645   -0.2329 C   0  0  0  0  0  0  0  0  0  0  0  0
   -5.3607   -0.8390   -0.7824 C   0  0  0  0  0  0  0  0  0  0  0  0
   -5.3171    0.5193   -1.0947 C   0  0  0  0  0  0  0  0  0  0  0  0
   -4.1450    1.2465   -0.8458 C   0  0  0  0  0  0  0  0  0  0  0  0
   -4.0998    2.6783   -1.1674 N   0  0  0  0  0  4  0  0  0  0  0  0
   -5.1535    3.2236   -1.5234 O   0  0  0  0  0  0  0  0  0  0  0  0
   -3.0064    3.2529   -1.0697 O   0  0  0  0  0  1  0  0  0  0  0  0
   -3.0141    0.6265   -0.2932 C   0  0  0  0  0  0  0  0  0  0  0  0
    2.1870    0.2533    1.5091 C   0  0  0  0  0  0  0  0  0  0  0  0
    1.6530    0.6208    2.8445 C   0  0  0  0  0  0  0  0  0  0  0  0
    3.2566    0.8862    1.0128 N   0  0  0  0  0  0  0  0  0  0  0  0
    6.1425    0.3018    0.3971 H   0  0  0  0  0  0  0  0  0  0  0  0
    5.7925   -1.0157   -0.7302 H   0  0  0  0  0  0  0  0  0  0  0  0
    6.6744    0.4178   -1.2905 H   0  0  0  0  0  0  0  0  0  0  0  0
    4.2996    0.5154   -2.0573 H   0  0  0  0  0  0  0  0  0  0  0  0
    4.6365    1.8324   -0.9227 H   0  0  0  0  0  0  0  0  0  0  0  0
    2.5749   -1.2136   -1.4029 H   0  0  0  0  0  0  0  0  0  0  0  0
    0.4072   -1.9231    1.8510 H   0  0  0  0  0  0  0  0  0  0  0  0
    0.6300   -2.5475    0.2073 H   0  0  0  0  0  0  0  0  0  0  0  0
   -0.5295   -0.2502   -0.3795 H   0  0  0  0  0  0  0  0  0  0  0  0
   -4.2853   -2.5251    0.0134 H   0  0  0  0  0  0  0  0  0  0  0  0
   -6.2677   -1.4127   -0.9621 H   0  0  0  0  0  0  0  0  0  0  0  0
   -6.1988    0.9939   -1.5217 H   0  0  0  0  0  0  0  0  0  0  0  0
   -2.1235    1.2092   -0.0716 H   0  0  0  0  0  0  0  0  0  0  0  0
    2.1989    1.4648    3.2787 H   0  0  0  0  0  0  0  0  0  0  0  0
    1.7357   -0.2262    3.5328 H   0  0  0  0  0  0  0  0  0  0  0  0
    0.5984    0.9043    2.7693 H   0  0  0  0  0  0  0  0  0  0  0  0
  1  2  1  0
  2  3  1  0
  3  4  1  0
  4  5  2  0
  5  6  1  0
  6  7  1  0
  7  8  1  0
  8  9  2  0
  8 10  1  0
 10 11  2  0
 11 12  1  0
 12 13  2  0
 13 14  1  0
 14 15  1  0
 15 16  2  0
 15 17  1  0
 14 18  2  0
  5 19  1  0
 19 20  1  0
 19 21  2  0
 21  3  1  0
 18 10  1  0
  1 22  1  0
  1 23  1  0
  1 24  1  0
  2 25  1  0
  2 26  1  0
  4 27  1  0
  6 28  1  0
  6 29  1  0
  7 30  1  0
 11 31  1  0
 12 32  1  0
 13 33  1  0
 18 34  1  0
 20 35  1  0
 20 36  1  0
 20 37  1  0
M  CHG  2  15   1  17  -1
M  END
$$$$
