
     RDKit          3D

 46 49  0  0  0  0  0  0  0  0999 V2000
    1.7245    1.1620    0.3738 O   0  0  0  0  0  0  0  0  0  0  0  0
    1.7721    1.1589   -0.8500 C   0  0  0  0  0  0  0  0  0  0  0  0
    0.6044    0.7720   -1.7488 C   0  0  0  0  0  0  0  0  0  0  0  0
   -0.6004    0.4398   -0.9651 N   0  0  0  0  0  4  0  0  0  0  0  0
   -1.8051    1.1392   -0.9428 C   0  0  0  0  0  0  0  0  0  0  0  0
   -2.6524    0.5506   -0.0099 C   0  0  0  0  0  0  0  0  0  0  0  0
   -4.0981    1.0356    0.3752 C   0  0  0  0  0  0  0  0  0  0  0  0
   -4.6811    2.1108   -0.3066 C   0  0  0  0  0  0  0  0  0  0  0  0
   -5.9665    2.5473    0.0359 C   0  0  0  0  0  0  0  0  0  0  0  0
   -6.6777    1.9191    1.0612 C   0  0  0  0  0  0  0  0  0  0  0  0
   -8.2563    2.5114    1.4263 Cl  0  0  0  0  0  0  0  0  0  0  0  0
   -6.0945    0.8505    1.7464 C   0  0  0  0  0  0  0  0  0  0  0  0
   -6.8987    0.0272    3.0361 Cl  0  0  0  0  0  0  0  0  0  0  0  0
   -4.8071    0.4113    1.4035 C   0  0  0  0  0  0  0  0  0  0  0  0
   -1.9101   -0.5158    0.4657 N   0  0  0  0  0  0  0  0  0  0  0  0
   -0.6945   -0.5466   -0.0765 C   0  0  0  0  0  0  0  0  0  0  0  0
    0.1452   -1.6594    0.4286 C   0  0  0  0  0  0  0  0  0  0  0  0
   -0.8979   -2.5460    1.1378 C   0  0  0  0  0  0  0  0  0  0  0  0
   -2.0987   -1.6013    1.4211 C   0  0  0  0  0  0  0  0  0  0  0  0
    2.8622    1.4522   -1.6086 O   0  0  0  0  0  0  0  0  0  0  0  0
    4.0893    1.6235   -0.8823 C   0  0  0  0  0  0  0  0  0  0  0  0
    4.7201    0.2722   -0.6710 C   0  0  0  0  0  0  0  0  0  0  0  0
    4.7235   -0.3265    0.5973 C   0  0  0  0  0  0  0  0  0  0  0  0
    5.2853   -1.5910    0.7824 C   0  0  0  0  0  0  0  0  0  0  0  0
    5.8486   -2.2679   -0.2982 C   0  0  0  0  0  0  0  0  0  0  0  0
    5.8481   -1.6845   -1.5649 C   0  0  0  0  0  0  0  0  0  0  0  0
    5.2853   -0.4213   -1.7522 C   0  0  0  0  0  0  0  0  0  0  0  0
    0.8748   -0.1137   -2.3346 H   0  0  0  0  0  0  0  0  0  0  0  0
    0.3727    1.6055   -2.4199 H   0  0  0  0  0  0  0  0  0  0  0  0
   -1.9011    1.9952   -1.5912 H   0  0  0  0  0  0  0  0  0  0  0  0
   -4.1716    2.6305   -1.1142 H   0  0  0  0  0  0  0  0  0  0  0  0
   -6.4132    3.3819   -0.5028 H   0  0  0  0  0  0  0  0  0  0  0  0
   -4.3803   -0.4071    1.9692 H   0  0  0  0  0  0  0  0  0  0  0  0
    0.8624   -1.2275    1.1285 H   0  0  0  0  0  0  0  0  0  0  0  0
    0.6357   -2.1482   -0.4147 H   0  0  0  0  0  0  0  0  0  0  0  0
   -1.2230   -3.3363    0.4503 H   0  0  0  0  0  0  0  0  0  0  0  0
   -0.5098   -3.0243    2.0407 H   0  0  0  0  0  0  0  0  0  0  0  0
   -2.0488   -1.1925    2.4351 H   0  0  0  0  0  0  0  0  0  0  0  0
   -3.0494   -2.1123    1.2509 H   0  0  0  0  0  0  0  0  0  0  0  0
    3.9311    2.1653    0.0578 H   0  0  0  0  0  0  0  0  0  0  0  0
    4.7521    2.2472   -1.4928 H   0  0  0  0  0  0  0  0  0  0  0  0
    4.2932    0.1903    1.4531 H   0  0  0  0  0  0  0  0  0  0  0  0
    5.3029   -2.0444    1.7707 H   0  0  0  0  0  0  0  0  0  0  0  0
    6.3014   -3.2468   -0.1508 H   0  0  0  0  0  0  0  0  0  0  0  0
    6.2989   -2.2101   -2.4043 H   0  0  0  0  0  0  0  0  0  0  0  0
    5.3026    0.0239   -2.7454 H   0  0  0  0  0  0  0  0  0  0  0  0
  1  2  2  0
  2  3  1  0
  3  4  1  0
  4  5  1  0
  5  6  2  0
  6  7  1  0
  7  8  2  0
  8  9  1  0
  9 10  2  0
 10 11  1  0
 10 12  1  0
 12 13  1  0
 12 14  2  0
  6 15  1  0
 15 16  1  0
 16 17  1  0
 17 18  1  0
 18 19  1  0
  2 20  1  0
 20 21  1  0
 21 22  1  0
 22 23  2  0
 23 24  1  0
 24 25  2  0
 25 26  1  0
 26 27  2  0
 16  4  2  0
 27 22  1  0
 14  7  1  0
 19 15  1  0
  3 28  1  0
  3 29  1  0
  5 30  1  0
  8 31  1  0
  9 32  1  0
 14 33  1  0
 17 34  1  0
 17 35  1  0
 18 36  1  0
 18 37  1  0
 19 38  1  0
 19 39  1  0
 21 40  1  0
 21 41  1  0
 23 42  1  0
 24 43  1  0
 25 44  1  0
 26 45  1  0
 27 46  1  0
M  CHG  1   4   1
M  END
$$$$
