
     RDKit          3D

 58 60  0  0  0  0  0  0  0  0999 V2000
    9.8916   -1.3611   -2.0956 C   0  0  0  0  0  0  0  0  0  0  0  0
    8.4295   -1.3210   -1.7670 C   0  0  0  0  0  0  0  0  0  0  0  0
    7.5086   -0.7733   -2.6642 C   0  0  0  0  0  0  0  0  0  0  0  0
    6.1508   -0.7133   -2.3372 C   0  0  0  0  0  0  0  0  0  0  0  0
    5.6938   -1.1958   -1.1058 C   0  0  0  0  0  0  0  0  0  0  0  0
    4.2345   -1.1075   -0.7391 C   0  0  0  0  0  0  0  0  0  0  0  0
    3.9064    0.2123   -0.0415 C   0  0  0  0  0  0  0  0  0  0  0  0
    2.4973    0.3128    0.2957 N   0  0  0  0  0  0  0  0  0  0  0  0
    1.9902   -0.2524    1.4459 C   0  0  0  0  0  0  0  0  0  0  0  0
    2.6842   -0.8016    2.2950 O   0  0  0  0  0  0  0  0  0  0  0  0
    0.4908   -0.0997    1.5726 C   0  0  0  0  0  0  0  0  0  0  0  0
   -0.0012   -0.7209    2.8720 C   0  0  0  0  0  0  0  0  0  0  0  0
   -1.4576   -0.4619    3.0665 N   0  0  0  0  0  0  0  0  0  0  0  0
   -2.5118   -1.6125    2.3973 S   0  0  0  0  0  6  0  0  0  0  0  0
   -3.0696   -2.3413    3.5142 O   0  0  0  0  0  0  0  0  0  0  0  0
   -1.8636   -2.2723    1.2883 O   0  0  0  0  0  0  0  0  0  0  0  0
   -3.7810   -0.5541    1.7475 C   0  0  0  0  0  0  0  0  0  0  0  0
   -4.7984   -0.1053    2.5904 C   0  0  0  0  0  0  0  0  0  0  0  0
   -5.8146    0.7078    2.0752 C   0  0  0  0  0  0  0  0  0  0  0  0
   -5.8367    1.0690    0.7161 C   0  0  0  0  0  0  0  0  0  0  0  0
   -4.8131    0.6010   -0.1067 C   0  0  0  0  0  0  0  0  0  0  0  0
   -3.7848   -0.2125    0.3964 C   0  0  0  0  0  0  0  0  0  0  0  0
   -4.8161    0.9635   -1.5315 C   0  0  0  0  0  0  0  0  0  0  0  0
   -3.8778    0.6053   -2.2424 O   0  0  0  0  0  0  0  0  0  0  0  0
   -5.8957    1.7051   -1.9835 N   0  0  0  0  0  0  0  0  0  0  0  0
   -5.9354    2.0435   -3.3952 C   0  0  0  0  0  0  0  0  0  0  0  0
   -6.8962    2.2329   -1.1789 C   0  0  0  0  0  0  0  0  0  0  0  0
   -7.7703    2.9724   -1.6381 O   0  0  0  0  0  0  0  0  0  0  0  0
   -6.8596    1.8880    0.1671 N   0  0  0  0  0  0  0  0  0  0  0  0
   -7.9190    2.3922    1.0295 C   0  0  0  0  0  0  0  0  0  0  0  0
    6.6180   -1.7301   -0.2025 C   0  0  0  0  0  0  0  0  0  0  0  0
    7.9751   -1.7904   -0.5293 C   0  0  0  0  0  0  0  0  0  0  0  0
   10.4118   -0.5499   -1.5778 H   0  0  0  0  0  0  0  0  0  0  0  0
   10.3285   -2.3187   -1.7923 H   0  0  0  0  0  0  0  0  0  0  0  0
   10.0591   -1.2514   -3.1713 H   0  0  0  0  0  0  0  0  0  0  0  0
    7.8403   -0.3884   -3.6271 H   0  0  0  0  0  0  0  0  0  0  0  0
    5.4540   -0.2843   -3.0522 H   0  0  0  0  0  0  0  0  0  0  0  0
    3.6211   -1.2126   -1.6455 H   0  0  0  0  0  0  0  0  0  0  0  0
    3.9631   -1.9591   -0.1007 H   0  0  0  0  0  0  0  0  0  0  0  0
    4.1379    1.0639   -0.6912 H   0  0  0  0  0  0  0  0  0  0  0  0
    4.4987    0.3209    0.8738 H   0  0  0  0  0  0  0  0  0  0  0  0
    1.8542    0.6249   -0.4208 H   0  0  0  0  0  0  0  0  0  0  0  0
    0.2458    0.9685    1.5475 H   0  0  0  0  0  0  0  0  0  0  0  0
    0.0166   -0.5728    0.7072 H   0  0  0  0  0  0  0  0  0  0  0  0
    0.2120   -1.7966    2.9274 H   0  0  0  0  0  0  0  0  0  0  0  0
    0.5198   -0.2690    3.7251 H   0  0  0  0  0  0  0  0  0  0  0  0
   -1.6697   -0.4264    4.0665 H   0  0  0  0  0  0  0  0  0  0  0  0
   -4.8092   -0.3809    3.6453 H   0  0  0  0  0  0  0  0  0  0  0  0
   -6.5834    1.0403    2.7687 H   0  0  0  0  0  0  0  0  0  0  0  0
   -3.0035   -0.5765   -0.2651 H   0  0  0  0  0  0  0  0  0  0  0  0
   -5.3579    1.3362   -3.9933 H   0  0  0  0  0  0  0  0  0  0  0  0
   -6.9676    2.0466   -3.7618 H   0  0  0  0  0  0  0  0  0  0  0  0
   -5.5158    3.0439   -3.5244 H   0  0  0  0  0  0  0  0  0  0  0  0
   -8.6503    2.9901    0.4806 H   0  0  0  0  0  0  0  0  0  0  0  0
   -7.4841    3.0263    1.8057 H   0  0  0  0  0  0  0  0  0  0  0  0
   -8.4531    1.5512    1.4793 H   0  0  0  0  0  0  0  0  0  0  0  0
    6.2865   -2.1003    0.7660 H   0  0  0  0  0  0  0  0  0  0  0  0
    8.6772   -2.2047    0.1913 H   0  0  0  0  0  0  0  0  0  0  0  0
  1  2  1  0
  2  3  2  0
  3  4  1  0
  4  5  2  0
  5  6  1  0
  6  7  1  0
  7  8  1  0
  8  9  1  0
  9 10  2  0
  9 11  1  0
 11 12  1  0
 12 13  1  0
 13 14  1  0
 14 15  2  0
 14 16  2  0
 14 17  1  0
 17 18  2  0
 18 19  1  0
 19 20  2  0
 20 21  1  0
 21 22  2  0
 21 23  1  0
 23 24  2  0
 23 25  1  0
 25 26  1  0
 25 27  1  0
 27 28  2  0
 27 29  1  0
 29 30  1  0
  5 31  1  0
 31 32  2  0
 32  2  1  0
 22 17  1  0
 29 20  1  0
  1 33  1  0
  1 34  1  0
  1 35  1  0
  3 36  1  0
  4 37  1  0
  6 38  1  0
  6 39  1  0
  7 40  1  0
  7 41  1  0
  8 42  1  0
 11 43  1  0
 11 44  1  0
 12 45  1  0
 12 46  1  0
 13 47  1  0
 18 48  1  0
 19 49  1  0
 22 50  1  0
 26 51  1  0
 26 52  1  0
 26 53  1  0
 30 54  1  0
 30 55  1  0
 30 56  1  0
 31 57  1  0
 32 58  1  0
M  END
$$$$
