
     RDKit          3D

 36 37  0  0  0  0  0  0  0  0999 V2000
    0.9848    0.7628   -2.0853 O   0  0  0  0  0  0  0  0  0  0  0  0
    0.4401    1.2084   -1.0795 C   0  0  0  0  0  0  0  0  0  0  0  0
   -0.7844    2.1229   -1.1479 C   0  0  0  0  0  0  0  0  0  0  0  0
   -2.0210    1.4260   -0.9961 O   0  0  0  0  0  0  0  0  0  0  0  0
   -2.3384    1.0811    0.2734 C   0  0  0  0  0  0  0  0  0  0  0  0
   -1.6547    1.3062    1.2608 O   0  0  0  0  0  0  0  0  0  0  0  0
   -3.6451    0.3686    0.3156 C   0  0  0  0  0  0  0  0  0  0  0  0
   -4.3944    0.1058   -0.8405 C   0  0  0  0  0  0  0  0  0  0  0  0
   -5.6148   -0.5709   -0.7485 C   0  0  0  0  0  0  0  0  0  0  0  0
   -6.0848   -0.9876    0.4961 C   0  0  0  0  0  0  0  0  0  0  0  0
   -7.7331   -1.9047    0.6175 Br  0  0  0  0  0  0  0  0  0  0  0  0
   -5.3482   -0.7339    1.6516 C   0  0  0  0  0  0  0  0  0  0  0  0
   -4.1294   -0.0558    1.5615 C   0  0  0  0  0  0  0  0  0  0  0  0
    0.8764    0.9420    0.2008 N   0  0  0  0  0  0  0  0  0  0  0  0
    1.9526    0.0038    0.4647 C   0  0  0  0  0  0  0  0  0  0  0  0
    3.3308    0.5194    0.0355 C   0  0  0  0  0  0  0  0  0  0  0  0
    4.4060   -0.3401    0.5022 N   0  0  0  0  0  0  0  0  0  0  0  0
    4.8379   -1.4510   -0.1764 C   0  0  0  0  0  0  0  0  0  0  0  0
    4.2487   -1.7676   -1.3612 O   0  0  0  0  0  0  0  0  0  0  0  0
    5.8200   -2.1269    0.4304 C   0  0  0  0  0  0  0  0  0  0  0  0
    6.2524   -1.3872    1.9413 S   0  0  0  0  0  0  0  0  0  0  0  0
    5.0279   -0.1212    1.7198 C   0  0  0  0  0  0  0  0  0  0  0  0
    4.8087    0.7589    2.5354 O   0  0  0  0  0  0  0  0  0  0  0  0
   -0.7933    2.5953   -2.1357 H   0  0  0  0  0  0  0  0  0  0  0  0
   -0.6946    2.9360   -0.4178 H   0  0  0  0  0  0  0  0  0  0  0  0
   -4.0430    0.4187   -1.8209 H   0  0  0  0  0  0  0  0  0  0  0  0
   -6.1865   -0.7685   -1.6522 H   0  0  0  0  0  0  0  0  0  0  0  0
   -5.7111   -1.0618    2.6235 H   0  0  0  0  0  0  0  0  0  0  0  0
   -3.5598    0.1382    2.4688 H   0  0  0  0  0  0  0  0  0  0  0  0
    0.2196    1.1380    0.9584 H   0  0  0  0  0  0  0  0  0  0  0  0
    1.9433   -0.1874    1.5444 H   0  0  0  0  0  0  0  0  0  0  0  0
    1.7199   -0.9407   -0.0401 H   0  0  0  0  0  0  0  0  0  0  0  0
    3.4838    1.5206    0.4576 H   0  0  0  0  0  0  0  0  0  0  0  0
    3.3997    0.6295   -1.0515 H   0  0  0  0  0  0  0  0  0  0  0  0
    4.6852   -2.5537   -1.7271 H   0  0  0  0  0  0  0  0  0  0  0  0
    6.2989   -3.0231    0.0669 H   0  0  0  0  0  0  0  0  0  0  0  0
  1  2  2  0
  2  3  1  0
  3  4  1  0
  4  5  1  0
  5  6  2  0
  5  7  1  0
  7  8  2  0
  8  9  1  0
  9 10  2  0
 10 11  1  0
 10 12  1  0
 12 13  2  0
  2 14  1  0
 14 15  1  0
 15 16  1  0
 16 17  1  0
 17 18  1  0
 18 19  1  0
 18 20  2  0
 20 21  1  0
 21 22  1  0
 22 23  2  0
 13  7  1  0
 22 17  1  0
  3 24  1  0
  3 25  1  0
  8 26  1  0
  9 27  1  0
 12 28  1  0
 13 29  1  0
 14 30  1  0
 15 31  1  0
 15 32  1  0
 16 33  1  0
 16 34  1  0
 19 35  1  0
 20 36  1  0
M  END
$$$$
