
     RDKit          3D

 56 60  0  0  0  0  0  0  0  0999 V2000
   -4.7001   -3.0124   -1.6963 C   0  0  0  0  0  0  0  0  0  0  0  0
   -3.4475   -2.4549   -1.0794 C   0  0  0  0  0  0  0  0  0  0  0  0
   -2.3053   -3.2700   -1.0338 C   0  0  0  0  0  0  0  0  0  0  0  0
   -1.1141   -2.8120   -0.4634 C   0  0  0  0  0  0  0  0  0  0  0  0
   -1.0306   -1.5295    0.0931 C   0  0  0  0  0  0  0  0  0  0  0  0
    0.2205   -1.0497    0.6879 C   0  0  0  0  0  0  0  0  0  0  0  0
    1.0523   -0.4587   -0.1955 N   0  0  0  0  0  0  0  0  0  0  0  0
    2.2552    0.0361    0.2229 N   0  0  0  0  0  0  0  0  0  0  0  0
    2.6375   -0.0546    1.5147 C   0  0  0  0  0  0  0  0  0  0  0  0
    3.9114    0.4324    1.9185 N   0  0  0  0  0  0  0  0  0  0  0  0
    4.7912    1.2747    1.1984 C   0  0  0  0  0  0  0  0  0  0  0  0
    4.3279    2.2460    0.2826 C   0  0  0  0  0  0  0  0  0  0  0  0
    5.2083    3.1210   -0.3676 C   0  0  0  0  0  0  0  0  0  0  0  0
    6.5464    3.0219   -0.0674 C   0  0  0  0  0  0  0  0  0  0  0  0
    7.0106    2.1064    0.8441 C   0  0  0  0  0  0  0  0  0  0  0  0
    6.1637    1.2346    1.4988 C   0  0  0  0  0  0  0  0  0  0  0  0
    8.3586    2.1812    1.0145 O   0  0  0  0  0  0  0  0  0  0  0  0
    8.6894    3.2381    0.0890 C   0  0  0  0  0  0  0  0  0  0  0  0
    7.5410    3.7886   -0.5883 O   0  0  0  0  0  0  0  0  0  0  0  0
    1.7892   -0.6525    2.4777 C   0  0  0  0  0  0  0  0  0  0  0  0
    2.1156   -0.7456    3.8550 C   0  0  0  0  0  0  0  0  0  0  0  0
    1.2578   -1.3482    4.7765 C   0  0  0  0  0  0  0  0  0  0  0  0
    0.0472   -1.8720    4.3495 C   0  0  0  0  0  0  0  0  0  0  0  0
   -0.3068   -1.7845    3.0036 C   0  0  0  0  0  0  0  0  0  0  0  0
    0.5457   -1.1729    2.0497 C   0  0  0  0  0  0  0  0  0  0  0  0
   -2.1678   -0.7104    0.0569 C   0  0  0  0  0  0  0  0  0  0  0  0
   -3.3643   -1.1644   -0.5233 C   0  0  0  0  0  0  0  0  0  0  0  0
   -4.7570   -0.0518   -0.5131 S   0  0  0  0  0  6  0  0  0  0  0  0
   -4.3824    1.1566    0.1879 O   0  0  0  0  0  0  0  0  0  0  0  0
   -5.9424   -0.7956   -0.1553 O   0  0  0  0  0  0  0  0  0  0  0  0
   -4.8488    0.3866   -2.1511 N   0  0  0  0  0  0  0  0  0  0  0  0
   -6.1399    1.0119   -2.5299 C   0  0  0  0  0  0  0  0  0  0  0  0
   -6.2032    1.1904   -4.0478 C   0  0  0  0  0  0  0  0  0  0  0  0
   -7.4260    1.8054   -4.4364 O   0  0  0  0  0  0  0  0  0  0  0  0
   -5.1253   -2.3191   -2.4267 H   0  0  0  0  0  0  0  0  0  0  0  0
   -4.4944   -3.9429   -2.2368 H   0  0  0  0  0  0  0  0  0  0  0  0
   -5.4380   -3.2404   -0.9222 H   0  0  0  0  0  0  0  0  0  0  0  0
   -2.3303   -4.2758   -1.4512 H   0  0  0  0  0  0  0  0  0  0  0  0
   -0.2424   -3.4652   -0.4593 H   0  0  0  0  0  0  0  0  0  0  0  0
    4.4120   -0.3204    2.3795 H   0  0  0  0  0  0  0  0  0  0  0  0
    3.2649    2.3383    0.0705 H   0  0  0  0  0  0  0  0  0  0  0  0
    4.8439    3.8567   -1.0755 H   0  0  0  0  0  0  0  0  0  0  0  0
    6.5690    0.5383    2.2243 H   0  0  0  0  0  0  0  0  0  0  0  0
    9.3827    2.8413   -0.6618 H   0  0  0  0  0  0  0  0  0  0  0  0
    9.1894    4.0424    0.6412 H   0  0  0  0  0  0  0  0  0  0  0  0
    3.0460   -0.3246    4.2316 H   0  0  0  0  0  0  0  0  0  0  0  0
    1.5350   -1.4007    5.8264 H   0  0  0  0  0  0  0  0  0  0  0  0
   -0.6266   -2.3436    5.0604 H   0  0  0  0  0  0  0  0  0  0  0  0
   -1.2680   -2.1991    2.7034 H   0  0  0  0  0  0  0  0  0  0  0  0
   -2.1088    0.2914    0.4823 H   0  0  0  0  0  0  0  0  0  0  0  0
   -4.0754    1.0318   -2.3392 H   0  0  0  0  0  0  0  0  0  0  0  0
   -6.9821    0.3843   -2.2163 H   0  0  0  0  0  0  0  0  0  0  0  0
   -6.2437    1.9865   -2.0382 H   0  0  0  0  0  0  0  0  0  0  0  0
   -5.3799    1.8257   -4.3931 H   0  0  0  0  0  0  0  0  0  0  0  0
   -6.1153    0.2266   -4.5632 H   0  0  0  0  0  0  0  0  0  0  0  0
   -8.1460    1.1765   -4.2481 H   0  0  0  0  0  0  0  0  0  0  0  0
  1  2  1  0
  2  3  2  0
  3  4  1  0
  4  5  2  0
  5  6  1  0
  6  7  2  0
  7  8  1  0
  8  9  2  0
  9 10  1  0
 10 11  1  0
 11 12  2  0
 12 13  1  0
 13 14  2  0
 14 15  1  0
 15 16  2  0
 15 17  1  0
 17 18  1  0
 18 19  1  0
  9 20  1  0
 20 21  2  0
 21 22  1  0
 22 23  2  0
 23 24  1  0
 24 25  2  0
  5 26  1  0
 26 27  2  0
 27 28  1  0
 28 29  2  0
 28 30  2  0
 28 31  1  0
 31 32  1  0
 32 33  1  0
 33 34  1  0
 27  2  1  0
 25  6  1  0
 16 11  1  0
 25 20  1  0
 19 14  1  0
  1 35  1  0
  1 36  1  0
  1 37  1  0
  3 38  1  0
  4 39  1  0
 10 40  1  0
 12 41  1  0
 13 42  1  0
 16 43  1  0
 18 44  1  0
 18 45  1  0
 21 46  1  0
 22 47  1  0
 23 48  1  0
 24 49  1  0
 26 50  1  0
 31 51  1  0
 32 52  1  0
 32 53  1  0
 33 54  1  0
 33 55  1  0
 34 56  1  0
M  END
$$$$
