
     RDKit          3D

 55 60  0  0  0  0  0  0  0  0999 V2000
    4.0207   -2.1327    0.7830 O   0  0  0  0  0  0  0  0  0  0  0  0
    3.6975   -0.9579    0.9512 C   0  0  0  0  0  0  0  0  0  0  0  0
    4.3276   -0.1879    2.0129 C   0  0  0  0  0  0  0  0  0  0  0  0
    4.7396   -0.6620    3.2938 C   0  0  0  0  0  0  0  0  0  0  0  0
    5.3431    0.3957    3.9302 C   0  0  0  0  0  0  0  0  0  0  0  0
    5.3571    1.4869    3.1225 O   0  0  0  0  0  0  0  0  0  0  0  0
    4.7655    1.1216    1.9571 C   0  0  0  0  0  0  0  0  0  0  0  0
    2.7404   -0.3423    0.1416 N   0  0  0  0  0  0  0  0  0  0  0  0
    2.4102   -0.9562   -1.1375 C   0  0  0  0  0  0  0  0  0  0  0  0
    0.9107   -1.2058   -1.2590 C   0  0  0  0  0  0  0  0  0  0  0  0
    0.0979    0.0985   -1.0466 C   0  0  0  0  0  0  0  0  0  0  0  0
    0.5103    0.7043    0.3194 C   0  0  0  0  0  0  0  0  0  0  0  0
    2.0242    0.8936    0.4515 C   0  0  0  0  0  0  0  0  0  0  0  0
    0.5295    1.0820   -2.0257 O   0  0  0  0  0  0  0  0  0  0  0  0
    0.0053    0.9898   -3.2817 C   0  0  0  0  0  0  0  0  0  0  0  0
    0.6502    1.7315   -4.2717 C   0  0  0  0  0  0  0  0  0  0  0  0
    0.2021    1.6741   -5.5938 C   0  0  0  0  0  0  0  0  0  0  0  0
   -0.8953    0.8782   -5.9217 C   0  0  0  0  0  0  0  0  0  0  0  0
   -1.4372    0.8027   -7.5526 Cl  0  0  0  0  0  0  0  0  0  0  0  0
   -1.5538    0.1442   -4.9383 C   0  0  0  0  0  0  0  0  0  0  0  0
   -1.1019    0.2151   -3.6163 C   0  0  0  0  0  0  0  0  0  0  0  0
   -1.7876   -0.5351   -2.5509 C   0  0  0  0  0  0  0  0  0  0  0  0
   -2.5705   -1.4322   -2.8490 O   0  0  0  0  0  0  0  0  0  0  0  0
   -1.4404   -0.1309   -1.1260 C   0  0  0  0  0  0  0  0  0  0  0  0
   -2.0461   -1.0788   -0.0978 C   0  0  0  0  0  0  0  0  0  0  0  0
   -2.7361   -0.0932    0.7807 C   0  0  0  0  0  0  0  0  0  0  0  0
   -3.3442   -0.4826    2.0754 C   0  0  0  0  0  0  0  0  0  0  0  0
   -3.3776   -1.8164    2.4992 C   0  0  0  0  0  0  0  0  0  0  0  0
   -3.9625   -2.1462    3.7268 C   0  0  0  0  0  0  0  0  0  0  0  0
   -4.5147   -1.1474    4.5271 C   0  0  0  0  0  0  0  0  0  0  0  0
   -5.2342   -1.5594    6.0335 Cl  0  0  0  0  0  0  0  0  0  0  0  0
   -4.4900    0.1813    4.1111 C   0  0  0  0  0  0  0  0  0  0  0  0
   -3.9053    0.5135    2.8859 C   0  0  0  0  0  0  0  0  0  0  0  0
   -2.7627    1.1187    0.3288 N   0  0  0  0  0  0  0  0  0  0  0  0
   -2.1291    1.1223   -0.9319 O   0  0  0  0  0  0  0  0  0  0  0  0
    4.6116   -1.6616    3.6888 H   0  0  0  0  0  0  0  0  0  0  0  0
    5.8043    0.5212    4.8997 H   0  0  0  0  0  0  0  0  0  0  0  0
    4.7427    1.8877    1.1929 H   0  0  0  0  0  0  0  0  0  0  0  0
    2.9505   -1.8963   -1.2821 H   0  0  0  0  0  0  0  0  0  0  0  0
    2.7570   -0.2748   -1.9224 H   0  0  0  0  0  0  0  0  0  0  0  0
    0.6212   -1.9603   -0.5178 H   0  0  0  0  0  0  0  0  0  0  0  0
    0.7196   -1.6363   -2.2488 H   0  0  0  0  0  0  0  0  0  0  0  0
    0.1748    0.0553    1.1370 H   0  0  0  0  0  0  0  0  0  0  0  0
    0.0410    1.6852    0.4618 H   0  0  0  0  0  0  0  0  0  0  0  0
    2.3854    1.6697   -0.2319 H   0  0  0  0  0  0  0  0  0  0  0  0
    2.2261    1.2231    1.4724 H   0  0  0  0  0  0  0  0  0  0  0  0
    1.5077    2.3503   -4.0177 H   0  0  0  0  0  0  0  0  0  0  0  0
    0.7116    2.2525   -6.3608 H   0  0  0  0  0  0  0  0  0  0  0  0
   -2.4127   -0.4727   -5.1932 H   0  0  0  0  0  0  0  0  0  0  0  0
   -2.7963   -1.7629   -0.5056 H   0  0  0  0  0  0  0  0  0  0  0  0
   -1.3076   -1.6570    0.4599 H   0  0  0  0  0  0  0  0  0  0  0  0
   -2.9669   -2.6181    1.8930 H   0  0  0  0  0  0  0  0  0  0  0  0
   -3.9899   -3.1838    4.0487 H   0  0  0  0  0  0  0  0  0  0  0  0
   -4.9261    0.9630    4.7275 H   0  0  0  0  0  0  0  0  0  0  0  0
   -3.8964    1.5553    2.5678 H   0  0  0  0  0  0  0  0  0  0  0  0
  1  2  2  0
  2  3  1  0
  3  4  1  0
  4  5  2  0
  5  6  1  0
  6  7  1  0
  2  8  1  0
  8  9  1  0
  9 10  1  0
 10 11  1  0
 11 12  1  0
 12 13  1  0
 11 14  1  0
 14 15  1  0
 15 16  2  0
 16 17  1  0
 17 18  2  0
 18 19  1  0
 18 20  1  0
 20 21  2  0
 21 22  1  0
 22 23  2  0
 22 24  1  0
 24 25  1  0
 25 26  1  0
 26 27  1  0
 27 28  2  0
 28 29  1  0
 29 30  2  0
 30 31  1  0
 30 32  1  0
 32 33  2  0
 26 34  2  0
 34 35  1  0
  7  3  2  0
 13  8  1  0
 21 15  1  0
 35 24  1  0
 24 11  1  0
 33 27  1  0
  4 36  1  0
  5 37  1  0
  7 38  1  0
  9 39  1  0
  9 40  1  0
 10 41  1  0
 10 42  1  0
 12 43  1  0
 12 44  1  0
 13 45  1  0
 13 46  1  0
 16 47  1  0
 17 48  1  0
 20 49  1  0
 25 50  1  0
 25 51  1  0
 28 52  1  0
 29 53  1  0
 32 54  1  0
 33 55  1  0
M  END
$$$$
