
     RDKit          3D

 36 37  0  0  0  0  0  0  0  0999 V2000
    1.9827    1.2862    1.2449 O   0  0  0  0  0  0  0  0  0  0  0  0
    0.9243    1.0082    0.6826 C   0  0  0  0  0  0  0  0  0  0  0  0
   -0.3497    1.8306    0.8488 C   0  0  0  0  0  0  0  0  0  0  0  0
   -1.5027    1.0309    0.5618 O   0  0  0  0  0  0  0  0  0  0  0  0
   -2.6637    1.7311    0.6033 C   0  0  0  0  0  0  0  0  0  0  0  0
   -2.7638    2.9262    0.8262 O   0  0  0  0  0  0  0  0  0  0  0  0
   -3.8252    0.8466    0.3165 C   0  0  0  0  0  0  0  0  0  0  0  0
   -5.0790    1.4448    0.1238 C   0  0  0  0  0  0  0  0  0  0  0  0
   -6.2024    0.6590   -0.1473 C   0  0  0  0  0  0  0  0  0  0  0  0
   -6.0739   -0.7265   -0.2227 C   0  0  0  0  0  0  0  0  0  0  0  0
   -7.5921   -1.7910   -0.5885 Br  0  0  0  0  0  0  0  0  0  0  0  0
   -4.8341   -1.3342   -0.0275 C   0  0  0  0  0  0  0  0  0  0  0  0
   -3.7089   -0.5490    0.2434 C   0  0  0  0  0  0  0  0  0  0  0  0
    0.8199   -0.0477   -0.2006 N   0  0  0  0  0  0  0  0  0  0  0  0
    1.9002   -1.0072   -0.3342 C   0  0  0  0  0  0  0  0  0  0  0  0
    3.1621   -0.4118   -0.9781 C   0  0  0  0  0  0  0  0  0  0  0  0
    4.3706   -0.9141   -0.3582 N   0  0  0  0  0  0  0  0  0  0  0  0
    5.0589   -0.2944    0.6577 C   0  0  0  0  0  0  0  0  0  0  0  0
    4.6433    0.8831    1.2037 O   0  0  0  0  0  0  0  0  0  0  0  0
    6.1574   -0.9422    1.0566 C   0  0  0  0  0  0  0  0  0  0  0  0
    6.3788   -2.4239    0.1798 S   0  0  0  0  0  0  0  0  0  0  0  0
    4.9057   -2.1313   -0.7582 C   0  0  0  0  0  0  0  0  0  0  0  0
    4.4615   -2.9025   -1.5935 O   0  0  0  0  0  0  0  0  0  0  0  0
   -0.2888    2.6800    0.1592 H   0  0  0  0  0  0  0  0  0  0  0  0
   -0.3974    2.1734    1.8881 H   0  0  0  0  0  0  0  0  0  0  0  0
   -5.1870    2.5269    0.1837 H   0  0  0  0  0  0  0  0  0  0  0  0
   -7.1679    1.1368   -0.2956 H   0  0  0  0  0  0  0  0  0  0  0  0
   -4.7345   -2.4158   -0.0806 H   0  0  0  0  0  0  0  0  0  0  0  0
   -2.7543   -1.0429    0.4036 H   0  0  0  0  0  0  0  0  0  0  0  0
   -0.1211   -0.3300   -0.4561 H   0  0  0  0  0  0  0  0  0  0  0  0
    2.1108   -1.3961    0.6693 H   0  0  0  0  0  0  0  0  0  0  0  0
    1.5262   -1.8395   -0.9401 H   0  0  0  0  0  0  0  0  0  0  0  0
    3.1744   -0.6920   -2.0393 H   0  0  0  0  0  0  0  0  0  0  0  0
    3.1772    0.6833   -0.9630 H   0  0  0  0  0  0  0  0  0  0  0  0
    3.6665    0.9535    1.1391 H   0  0  0  0  0  0  0  0  0  0  0  0
    6.8261   -0.6083    1.8371 H   0  0  0  0  0  0  0  0  0  0  0  0
  1  2  2  0
  2  3  1  0
  3  4  1  0
  4  5  1  0
  5  6  2  0
  5  7  1  0
  7  8  2  0
  8  9  1  0
  9 10  2  0
 10 11  1  0
 10 12  1  0
 12 13  2  0
  2 14  1  0
 14 15  1  0
 15 16  1  0
 16 17  1  0
 17 18  1  0
 18 19  1  0
 18 20  2  0
 20 21  1  0
 21 22  1  0
 22 23  2  0
 13  7  1  0
 22 17  1  0
  3 24  1  0
  3 25  1  0
  8 26  1  0
  9 27  1  0
 12 28  1  0
 13 29  1  0
 14 30  1  0
 15 31  1  0
 15 32  1  0
 16 33  1  0
 16 34  1  0
 19 35  1  0
 20 36  1  0
M  END
$$$$
