
     RDKit          3D

 57 60  0  0  0  0  0  0  0  0999 V2000
   -8.1442    1.1998    3.2762 C   0  0  0  0  0  0  0  0  0  0  0  0
   -8.1695    1.4997    1.7853 C   0  0  0  0  0  0  0  0  0  0  0  0
   -6.8697    1.1306    1.1181 C   0  0  0  0  0  0  0  0  0  0  0  0
   -5.8074    2.0385    1.0787 C   0  0  0  0  0  0  0  0  0  0  0  0
   -4.5941    1.6893    0.4730 C   0  0  0  0  0  0  0  0  0  0  0  0
   -4.4004    0.4215   -0.1048 C   0  0  0  0  0  0  0  0  0  0  0  0
   -3.1238    0.0355   -0.7415 C   0  0  0  0  0  0  0  0  0  0  0  0
   -1.8955    0.5029   -0.3097 C   0  0  0  0  0  0  0  0  0  0  0  0
   -0.7472    0.0748   -0.9769 C   0  0  0  0  0  0  0  0  0  0  0  0
    0.5417    0.5561   -0.4278 C   0  0  0  0  0  0  0  0  0  0  0  0
    0.7079    1.7639   -0.3289 O   0  0  0  0  0  0  0  0  0  0  0  0
    1.3975   -0.4552   -0.0346 N   0  0  0  0  0  0  0  0  0  0  0  0
    2.6861   -0.3185    0.5204 C   0  0  0  0  0  0  0  0  0  0  0  0
    3.3078    0.9104    0.7554 C   0  0  0  0  0  0  0  0  0  0  0  0
    4.5909    0.9635    1.3116 C   0  0  0  0  0  0  0  0  0  0  0  0
    5.2642   -0.2189    1.6186 C   0  0  0  0  0  0  0  0  0  0  0  0
    6.8723   -0.1538    2.3651 S   0  0  0  0  0  6  0  0  0  0  0  0
    7.0388    1.1124    3.0404 O   0  0  0  0  0  0  0  0  0  0  0  0
    7.0679   -1.4018    3.0760 O   0  0  0  0  0  0  0  0  0  0  0  0
    7.9059   -0.2339    1.0673 N   0  0  0  0  0  0  0  0  0  0  0  0
    8.0645    0.7607    0.0962 C   0  0  0  0  0  0  0  0  0  0  0  0
    9.1516    0.4726   -0.9005 C   0  0  0  0  0  0  0  0  0  0  0  0
    7.3691    1.7628    0.0343 O   0  0  0  0  0  0  0  0  0  0  0  0
    4.6516   -1.4546    1.4007 C   0  0  0  0  0  0  0  0  0  0  0  0
    3.3677   -1.4995    0.8492 C   0  0  0  0  0  0  0  0  0  0  0  0
   -0.8254   -0.7771   -2.0988 C   0  0  0  0  0  0  0  0  0  0  0  0
    0.2779   -1.1949   -2.8882 C   0  0  0  0  0  0  0  0  0  0  0  0
    0.1022   -2.0536   -3.9711 C   0  0  0  0  0  0  0  0  0  0  0  0
   -1.1724   -2.4994   -4.2875 C   0  0  0  0  0  0  0  0  0  0  0  0
   -2.2631   -2.0719   -3.5268 C   0  0  0  0  0  0  0  0  0  0  0  0
   -2.1160   -1.2135   -2.4456 C   0  0  0  0  0  0  0  0  0  0  0  0
   -3.2192   -0.8341   -1.7792 N   0  0  0  0  0  0  0  0  0  0  0  0
   -5.4820   -0.4763   -0.0599 C   0  0  0  0  0  0  0  0  0  0  0  0
   -6.6963   -0.1327    0.5461 C   0  0  0  0  0  0  0  0  0  0  0  0
   -7.9759    0.1332    3.4635 H   0  0  0  0  0  0  0  0  0  0  0  0
   -9.0989    1.4776    3.7343 H   0  0  0  0  0  0  0  0  0  0  0  0
   -7.3495    1.7596    3.7816 H   0  0  0  0  0  0  0  0  0  0  0  0
   -8.9957    0.9547    1.3139 H   0  0  0  0  0  0  0  0  0  0  0  0
   -8.3768    2.5644    1.6235 H   0  0  0  0  0  0  0  0  0  0  0  0
   -5.9165    3.0293    1.5147 H   0  0  0  0  0  0  0  0  0  0  0  0
   -3.8053    2.4381    0.4447 H   0  0  0  0  0  0  0  0  0  0  0  0
   -1.8105    1.1696    0.5428 H   0  0  0  0  0  0  0  0  0  0  0  0
    1.0554   -1.4036   -0.1347 H   0  0  0  0  0  0  0  0  0  0  0  0
    2.8189    1.8525    0.5231 H   0  0  0  0  0  0  0  0  0  0  0  0
    5.0551    1.9320    1.4945 H   0  0  0  0  0  0  0  0  0  0  0  0
    8.4789   -1.0708    1.0677 H   0  0  0  0  0  0  0  0  0  0  0  0
    9.2762    1.3300   -1.5680 H   0  0  0  0  0  0  0  0  0  0  0  0
   10.0958    0.2907   -0.3801 H   0  0  0  0  0  0  0  0  0  0  0  0
    8.8826   -0.4058   -1.4937 H   0  0  0  0  0  0  0  0  0  0  0  0
    5.1559   -2.3818    1.6638 H   0  0  0  0  0  0  0  0  0  0  0  0
    2.9062   -2.4709    0.6884 H   0  0  0  0  0  0  0  0  0  0  0  0
    1.2835   -0.8345   -2.6786 H   0  0  0  0  0  0  0  0  0  0  0  0
    0.9552   -2.3635   -4.5701 H   0  0  0  0  0  0  0  0  0  0  0  0
   -1.3280   -3.1663   -5.1317 H   0  0  0  0  0  0  0  0  0  0  0  0
   -3.2623   -2.4117   -3.7927 H   0  0  0  0  0  0  0  0  0  0  0  0
   -5.3806   -1.4670   -0.5015 H   0  0  0  0  0  0  0  0  0  0  0  0
   -7.5031   -0.8614    0.5645 H   0  0  0  0  0  0  0  0  0  0  0  0
  1  2  1  0
  2  3  1  0
  3  4  2  0
  4  5  1  0
  5  6  2  0
  6  7  1  0
  7  8  2  0
  8  9  1  0
  9 10  1  0
 10 11  2  0
 10 12  1  0
 12 13  1  0
 13 14  2  0
 14 15  1  0
 15 16  2  0
 16 17  1  0
 17 18  2  0
 17 19  2  0
 17 20  1  0
 20 21  1  0
 21 22  1  0
 21 23  2  0
 16 24  1  0
 24 25  2  0
  9 26  2  0
 26 27  1  0
 27 28  2  0
 28 29  1  0
 29 30  2  0
 30 31  1  0
 31 32  2  0
  6 33  1  0
 33 34  2  0
 34  3  1  0
 32  7  1  0
 25 13  1  0
 31 26  1  0
  1 35  1  0
  1 36  1  0
  1 37  1  0
  2 38  1  0
  2 39  1  0
  4 40  1  0
  5 41  1  0
  8 42  1  0
 12 43  1  0
 14 44  1  0
 15 45  1  0
 20 46  1  0
 22 47  1  0
 22 48  1  0
 22 49  1  0
 24 50  1  0
 25 51  1  0
 27 52  1  0
 28 53  1  0
 29 54  1  0
 30 55  1  0
 33 56  1  0
 34 57  1  0
M  END
$$$$
