
     RDKit          3D

 57 60  0  0  0  0  0  0  0  0999 V2000
   -8.0576    2.0330    2.9813 C   0  0  0  0  0  0  0  0  0  0  0  0
   -8.1914    0.8403    2.0472 C   0  0  0  0  0  0  0  0  0  0  0  0
   -6.8911    0.5190    1.3577 C   0  0  0  0  0  0  0  0  0  0  0  0
   -6.6235    1.0119    0.0783 C   0  0  0  0  0  0  0  0  0  0  0  0
   -5.4089    0.7225   -0.5531 C   0  0  0  0  0  0  0  0  0  0  0  0
   -4.4189   -0.0559    0.0731 C   0  0  0  0  0  0  0  0  0  0  0  0
   -3.1396   -0.3401   -0.6097 C   0  0  0  0  0  0  0  0  0  0  0  0
   -1.9415   -0.4900    0.0655 C   0  0  0  0  0  0  0  0  0  0  0  0
   -0.7872   -0.7440   -0.6758 C   0  0  0  0  0  0  0  0  0  0  0  0
    0.4771   -0.8206    0.0912 C   0  0  0  0  0  0  0  0  0  0  0  0
    0.5600   -1.6559    0.9806 O   0  0  0  0  0  0  0  0  0  0  0  0
    1.4103    0.1306   -0.2743 N   0  0  0  0  0  0  0  0  0  0  0  0
    2.6975    0.3202    0.2675 C   0  0  0  0  0  0  0  0  0  0  0  0
    3.2438   -0.4744    1.2782 C   0  0  0  0  0  0  0  0  0  0  0  0
    4.5305   -0.2195    1.7664 C   0  0  0  0  0  0  0  0  0  0  0  0
    5.2836    0.8242    1.2272 C   0  0  0  0  0  0  0  0  0  0  0  0
    6.8964    1.1792    1.8755 S   0  0  0  0  0  6  0  0  0  0  0  0
    7.1832    2.5699    1.5822 O   0  0  0  0  0  0  0  0  0  0  0  0
    6.9955    0.6754    3.2254 O   0  0  0  0  0  0  0  0  0  0  0  0
    7.9115    0.3174    0.8832 N   0  0  0  0  0  0  0  0  0  0  0  0
    7.9982   -1.0774    0.8284 C   0  0  0  0  0  0  0  0  0  0  0  0
    9.0896   -1.5864   -0.0704 C   0  0  0  0  0  0  0  0  0  0  0  0
    7.2361   -1.8255    1.4213 O   0  0  0  0  0  0  0  0  0  0  0  0
    4.7469    1.6343    0.2250 C   0  0  0  0  0  0  0  0  0  0  0  0
    3.4588    1.3766   -0.2536 C   0  0  0  0  0  0  0  0  0  0  0  0
   -0.8332   -0.8962   -2.0771 C   0  0  0  0  0  0  0  0  0  0  0  0
    0.2730   -1.2330   -2.8998 C   0  0  0  0  0  0  0  0  0  0  0  0
    0.1319   -1.3457   -4.2813 C   0  0  0  0  0  0  0  0  0  0  0  0
   -1.1111   -1.1331   -4.8591 C   0  0  0  0  0  0  0  0  0  0  0  0
   -2.2059   -0.8219   -4.0497 C   0  0  0  0  0  0  0  0  0  0  0  0
   -2.0933   -0.7082   -2.6706 C   0  0  0  0  0  0  0  0  0  0  0  0
   -3.1986   -0.4229   -1.9629 N   0  0  0  0  0  0  0  0  0  0  0  0
   -4.7063   -0.5459    1.3593 C   0  0  0  0  0  0  0  0  0  0  0  0
   -5.9215   -0.2615    1.9939 C   0  0  0  0  0  0  0  0  0  0  0  0
   -9.0182    2.2499    3.4579 H   0  0  0  0  0  0  0  0  0  0  0  0
   -7.3236    1.8405    3.7713 H   0  0  0  0  0  0  0  0  0  0  0  0
   -7.7381    2.9284    2.4374 H   0  0  0  0  0  0  0  0  0  0  0  0
   -8.5350   -0.0363    2.6087 H   0  0  0  0  0  0  0  0  0  0  0  0
   -8.9674    1.0448    1.3002 H   0  0  0  0  0  0  0  0  0  0  0  0
   -7.3561    1.6244   -0.4418 H   0  0  0  0  0  0  0  0  0  0  0  0
   -5.2338    1.1172   -1.5528 H   0  0  0  0  0  0  0  0  0  0  0  0
   -1.8819   -0.3887    1.1445 H   0  0  0  0  0  0  0  0  0  0  0  0
    1.1313    0.7859   -0.9953 H   0  0  0  0  0  0  0  0  0  0  0  0
    2.6920   -1.3010    1.7169 H   0  0  0  0  0  0  0  0  0  0  0  0
    4.9363   -0.8464    2.5593 H   0  0  0  0  0  0  0  0  0  0  0  0
    8.5365    0.9098    0.3466 H   0  0  0  0  0  0  0  0  0  0  0  0
    9.2167   -2.6626    0.0759 H   0  0  0  0  0  0  0  0  0  0  0  0
   10.0330   -1.0867    0.1657 H   0  0  0  0  0  0  0  0  0  0  0  0
    8.8233   -1.3948   -1.1134 H   0  0  0  0  0  0  0  0  0  0  0  0
    5.3137    2.4694   -0.1810 H   0  0  0  0  0  0  0  0  0  0  0  0
    3.0572    2.0193   -1.0335 H   0  0  0  0  0  0  0  0  0  0  0  0
    1.2518   -1.4324   -2.4669 H   0  0  0  0  0  0  0  0  0  0  0  0
    0.9864   -1.6088   -4.9002 H   0  0  0  0  0  0  0  0  0  0  0  0
   -1.2397   -1.2207   -5.9352 H   0  0  0  0  0  0  0  0  0  0  0  0
   -3.1813   -0.6719   -4.5089 H   0  0  0  0  0  0  0  0  0  0  0  0
   -3.9918   -1.1760    1.8851 H   0  0  0  0  0  0  0  0  0  0  0  0
   -6.1056   -0.6595    2.9893 H   0  0  0  0  0  0  0  0  0  0  0  0
  1  2  1  0
  2  3  1  0
  3  4  2  0
  4  5  1  0
  5  6  2  0
  6  7  1  0
  7  8  2  0
  8  9  1  0
  9 10  1  0
 10 11  2  0
 10 12  1  0
 12 13  1  0
 13 14  2  0
 14 15  1  0
 15 16  2  0
 16 17  1  0
 17 18  2  0
 17 19  2  0
 17 20  1  0
 20 21  1  0
 21 22  1  0
 21 23  2  0
 16 24  1  0
 24 25  2  0
  9 26  2  0
 26 27  1  0
 27 28  2  0
 28 29  1  0
 29 30  2  0
 30 31  1  0
 31 32  2  0
  6 33  1  0
 33 34  2  0
 34  3  1  0
 32  7  1  0
 25 13  1  0
 31 26  1  0
  1 35  1  0
  1 36  1  0
  1 37  1  0
  2 38  1  0
  2 39  1  0
  4 40  1  0
  5 41  1  0
  8 42  1  0
 12 43  1  0
 14 44  1  0
 15 45  1  0
 20 46  1  0
 22 47  1  0
 22 48  1  0
 22 49  1  0
 24 50  1  0
 25 51  1  0
 27 52  1  0
 28 53  1  0
 29 54  1  0
 30 55  1  0
 33 56  1  0
 34 57  1  0
M  END
$$$$
