
     RDKit          3D

 42 44  0  0  0  0  0  0  0  0999 V2000
   -6.2471    0.5141    2.4898 C   0  0  0  0  0  0  0  0  0  0  0  0
   -5.5196   -0.4724    1.7670 O   0  0  0  0  0  0  0  0  0  0  0  0
   -4.4076   -0.0512    1.0907 C   0  0  0  0  0  0  0  0  0  0  0  0
   -3.7305   -1.0629    0.4013 C   0  0  0  0  0  0  0  0  0  0  0  0
   -2.5705   -0.7735   -0.3201 C   0  0  0  0  0  0  0  0  0  0  0  0
   -1.9244   -1.7780   -0.9867 O   0  0  0  0  0  0  0  0  0  0  0  0
   -2.0759    0.5337   -0.3651 C   0  0  0  0  0  0  0  0  0  0  0  0
   -0.8603    0.8643   -1.1388 C   0  0  0  0  0  0  0  0  0  0  0  0
   -0.9049    1.6754   -2.0573 O   0  0  0  0  0  0  0  0  0  0  0  0
    0.3940    0.1803   -0.7224 C   0  0  0  0  0  0  0  0  0  0  0  0
    1.5399    0.4348   -1.3728 C   0  0  0  0  0  0  0  0  0  0  0  0
    2.8409   -0.1499   -1.0680 C   0  0  0  0  0  0  0  0  0  0  0  0
    2.9468   -1.4238   -0.6093 C   0  0  0  0  0  0  0  0  0  0  0  0
    4.3115   -2.0129   -0.4592 C   0  0  2  0  0  0  0  0  0  0  0  0
    4.4991   -3.0356    0.5096 O   0  0  0  0  0  0  0  0  0  0  0  0
    5.9346   -2.9768    0.7070 C   0  0  0  0  0  0  0  0  0  0  0  0
    6.4657   -1.7361    0.1771 O   0  0  0  0  0  0  0  0  0  0  0  0
    5.2828   -0.9621    0.0461 C   0  0  1  0  0  0  0  0  0  0  0  0
    5.2893    0.1885   -0.9010 C   0  0  0  0  0  0  0  0  0  0  0  0
    4.0972    0.5613   -1.4130 C   0  0  0  0  0  0  0  0  0  0  0  0
   -2.7692    1.5477    0.3062 C   0  0  0  0  0  0  0  0  0  0  0  0
   -2.2791    2.8282    0.3446 O   0  0  0  0  0  0  0  0  0  0  0  0
   -2.9805    3.6587   -0.5838 C   0  0  0  0  0  0  0  0  0  0  0  0
   -3.9200    1.2548    1.0486 C   0  0  0  0  0  0  0  0  0  0  0  0
   -7.1005    0.0195    2.9636 H   0  0  0  0  0  0  0  0  0  0  0  0
   -5.6337    0.9534    3.2833 H   0  0  0  0  0  0  0  0  0  0  0  0
   -6.6393    1.2856    1.8189 H   0  0  0  0  0  0  0  0  0  0  0  0
   -4.1224   -2.0756    0.4454 H   0  0  0  0  0  0  0  0  0  0  0  0
   -2.4566   -2.5909   -0.9407 H   0  0  0  0  0  0  0  0  0  0  0  0
    0.3384   -0.5043    0.1145 H   0  0  0  0  0  0  0  0  0  0  0  0
    1.5336    1.1587   -2.1881 H   0  0  0  0  0  0  0  0  0  0  0  0
    2.0923   -2.0628   -0.4232 H   0  0  0  0  0  0  0  0  0  0  0  0
    4.6156   -2.4394   -1.4274 H   0  0  0  0  0  0  0  0  0  0  0  0
    6.1478   -3.0367    1.7786 H   0  0  0  0  0  0  0  0  0  0  0  0
    6.4086   -3.8158    0.1885 H   0  0  0  0  0  0  0  0  0  0  0  0
    5.0292   -0.5957    1.0523 H   0  0  0  0  0  0  0  0  0  0  0  0
    6.2068    0.7225   -1.1121 H   0  0  0  0  0  0  0  0  0  0  0  0
    4.0267    1.4210   -2.0745 H   0  0  0  0  0  0  0  0  0  0  0  0
   -2.4126    4.5867   -0.6982 H   0  0  0  0  0  0  0  0  0  0  0  0
   -3.9719    3.9126   -0.1941 H   0  0  0  0  0  0  0  0  0  0  0  0
   -3.0729    3.1914   -1.5704 H   0  0  0  0  0  0  0  0  0  0  0  0
   -4.4011    2.0629    1.5888 H   0  0  0  0  0  0  0  0  0  0  0  0
  1  2  1  0
  2  3  1  0
  3  4  2  0
  4  5  1  0
  5  6  1  0
  5  7  2  0
  7  8  1  0
  8  9  2  0
  8 10  1  0
 10 11  2  0
 11 12  1  0
 12 13  2  0
 13 14  1  0
 14 15  1  0
 15 16  1  0
 16 17  1  0
 17 18  1  0
 18 19  1  0
 19 20  2  0
  7 21  1  0
 21 22  1  0
 22 23  1  0
 21 24  2  0
 24  3  1  0
 20 12  1  0
 18 14  1  0
  1 25  1  0
  1 26  1  0
  1 27  1  0
  4 28  1  0
  6 29  1  0
 10 30  1  0
 11 31  1  0
 13 32  1  0
 14 33  1  6
 16 34  1  0
 16 35  1  0
 18 36  1  1
 19 37  1  0
 20 38  1  0
 23 39  1  0
 23 40  1  0
 23 41  1  0
 24 42  1  0
M  END
$$$$
