
     RDKit          3D

 44 45  0  0  0  0  0  0  0  0999 V2000
   -5.8405    0.3230    2.6369 C   0  0  0  0  0  0  0  0  0  0  0  0
   -6.6732   -0.5876    1.7470 C   0  0  0  0  0  0  0  0  0  0  0  0
   -5.8283   -1.6089    0.9917 C   0  0  0  0  0  0  0  0  0  0  0  0
   -4.9817   -0.9421    0.0419 O   0  0  0  0  0  0  0  0  0  0  0  0
   -3.6547   -0.9248    0.3145 C   0  0  0  0  0  0  0  0  0  0  0  0
   -3.1103   -1.4150    1.2910 O   0  0  0  0  0  0  0  0  0  0  0  0
   -2.9112   -0.2047   -0.7542 C   0  0  0  0  0  0  0  0  0  0  0  0
   -3.5492    0.3712   -1.8579 C   0  0  0  0  0  0  0  0  0  0  0  0
   -2.7960    1.0341   -2.8261 C   0  0  0  0  0  0  0  0  0  0  0  0
   -1.4064    1.1256   -2.6994 C   0  0  0  0  0  0  0  0  0  0  0  0
   -0.7556    0.5569   -1.6040 C   0  0  0  0  0  0  0  0  0  0  0  0
    0.6362    0.6045   -1.4048 N   0  0  0  0  0  0  0  0  0  0  0  0
    1.5978    1.1886   -2.2086 C   0  0  0  0  0  0  0  0  0  0  0  0
    1.4055    1.7866   -3.2637 O   0  0  0  0  0  0  0  0  0  0  0  0
    3.0187    1.0236   -1.6583 C   0  0  0  0  0  0  0  0  0  0  0  0
    3.0190    0.3233   -0.4152 O   0  0  0  0  0  0  0  0  0  0  0  0
    4.2321    0.1128    0.1795 C   0  0  0  0  0  0  0  0  0  0  0  0
    4.1702   -0.5674    1.4008 C   0  0  0  0  0  0  0  0  0  0  0  0
    5.3333   -0.8530    2.1211 C   0  0  0  0  0  0  0  0  0  0  0  0
    6.5717   -0.4524    1.6091 C   0  0  0  0  0  0  0  0  0  0  0  0
    7.8009   -0.7477    2.3557 N   0  0  0  0  0  4  0  0  0  0  0  0
    7.6948   -1.3881    3.4112 O   0  0  0  0  0  0  0  0  0  0  0  0
    8.8722   -0.3399    1.8849 O   0  0  0  0  0  1  0  0  0  0  0  0
    6.6458    0.2295    0.3879 C   0  0  0  0  0  0  0  0  0  0  0  0
    5.4731    0.5103   -0.3241 C   0  0  0  0  0  0  0  0  0  0  0  0
   -1.5161   -0.1071   -0.6337 C   0  0  0  0  0  0  0  0  0  0  0  0
   -5.1566    0.9404    2.0470 H   0  0  0  0  0  0  0  0  0  0  0  0
   -5.2513   -0.2595    3.3520 H   0  0  0  0  0  0  0  0  0  0  0  0
   -6.4931    0.9953    3.2029 H   0  0  0  0  0  0  0  0  0  0  0  0
   -7.4093   -1.1155    2.3635 H   0  0  0  0  0  0  0  0  0  0  0  0
   -7.2233    0.0350    1.0317 H   0  0  0  0  0  0  0  0  0  0  0  0
   -6.4885   -2.2662    0.4157 H   0  0  0  0  0  0  0  0  0  0  0  0
   -5.2680   -2.2473    1.6839 H   0  0  0  0  0  0  0  0  0  0  0  0
   -4.6281    0.3132   -1.9781 H   0  0  0  0  0  0  0  0  0  0  0  0
   -3.2883    1.4834   -3.6855 H   0  0  0  0  0  0  0  0  0  0  0  0
   -0.8610    1.6518   -3.4772 H   0  0  0  0  0  0  0  0  0  0  0  0
    1.0001    0.1560   -0.5679 H   0  0  0  0  0  0  0  0  0  0  0  0
    3.5874    0.4612   -2.4077 H   0  0  0  0  0  0  0  0  0  0  0  0
    3.4288    2.0311   -1.5229 H   0  0  0  0  0  0  0  0  0  0  0  0
    3.2064   -0.8787    1.7989 H   0  0  0  0  0  0  0  0  0  0  0  0
    5.2543   -1.3816    3.0686 H   0  0  0  0  0  0  0  0  0  0  0  0
    7.6025    0.5474   -0.0228 H   0  0  0  0  0  0  0  0  0  0  0  0
    5.5690    1.0398   -1.2672 H   0  0  0  0  0  0  0  0  0  0  0  0
   -1.0290   -0.5571    0.2294 H   0  0  0  0  0  0  0  0  0  0  0  0
  1  2  1  0
  2  3  1  0
  3  4  1  0
  4  5  1  0
  5  6  2  0
  5  7  1  0
  7  8  2  0
  8  9  1  0
  9 10  2  0
 10 11  1  0
 11 12  1  0
 12 13  1  0
 13 14  2  0
 13 15  1  0
 15 16  1  0
 16 17  1  0
 17 18  2  0
 18 19  1  0
 19 20  2  0
 20 21  1  0
 21 22  2  0
 21 23  1  0
 20 24  1  0
 24 25  2  0
 11 26  2  0
 26  7  1  0
 25 17  1  0
  1 27  1  0
  1 28  1  0
  1 29  1  0
  2 30  1  0
  2 31  1  0
  3 32  1  0
  3 33  1  0
  8 34  1  0
  9 35  1  0
 10 36  1  0
 12 37  1  0
 15 38  1  0
 15 39  1  0
 18 40  1  0
 19 41  1  0
 24 42  1  0
 25 43  1  0
 26 44  1  0
M  CHG  2  21   1  23  -1
M  END
$$$$
