
     RDKit          3D

 36 37  0  0  0  0  0  0  0  0999 V2000
   -1.8941    0.7671    2.2371 O   0  0  0  0  0  0  0  0  0  0  0  0
   -1.1062    0.0015    1.6889 C   0  0  0  0  0  0  0  0  0  0  0  0
   -0.4037   -1.1280    2.4465 C   0  0  0  0  0  0  0  0  0  0  0  0
    0.7931   -1.6115    1.8316 O   0  0  0  0  0  0  0  0  0  0  0  0
    1.8813   -0.8315    2.0346 C   0  0  0  0  0  0  0  0  0  0  0  0
    1.9313    0.2076    2.6680 O   0  0  0  0  0  0  0  0  0  0  0  0
    3.0719   -1.4902    1.4689 C   0  0  0  0  0  0  0  0  0  0  0  0
    4.1433   -1.6998    2.3524 C   0  0  0  0  0  0  0  0  0  0  0  0
    5.3073   -2.3206    1.9067 C   0  0  0  0  0  0  0  0  0  0  0  0
    5.4072   -2.7244    0.5768 C   0  0  0  0  0  0  0  0  0  0  0  0
    4.3490   -2.4993   -0.3130 C   0  0  0  0  0  0  0  0  0  0  0  0
    4.5742   -3.0198   -1.9482 Cl  0  0  0  0  0  0  0  0  0  0  0  0
    3.1707   -1.8729    0.1234 C   0  0  0  0  0  0  0  0  0  0  0  0
    1.8905   -1.5352   -0.9979 Cl  0  0  0  0  0  0  0  0  0  0  0  0
   -0.8402    0.0352    0.3382 N   0  0  0  0  0  0  0  0  0  0  0  0
   -1.4076    1.0405   -0.5398 C   0  0  0  0  0  0  0  0  0  0  0  0
   -2.8836    0.7874   -0.8659 C   0  0  0  0  0  0  0  0  0  0  0  0
   -3.3694    1.6677   -1.9143 N   0  0  0  0  0  0  0  0  0  0  0  0
   -3.8808    2.9195   -1.6798 C   0  0  0  0  0  0  0  0  0  0  0  0
   -3.9856    3.3572   -0.3958 O   0  0  0  0  0  0  0  0  0  0  0  0
   -4.2240    3.5957   -2.7820 C   0  0  0  0  0  0  0  0  0  0  0  0
   -3.8964    2.6692   -4.2156 S   0  0  0  0  0  0  0  0  0  0  0  0
   -3.2514    1.3261   -3.2513 C   0  0  0  0  0  0  0  0  0  0  0  0
   -2.7825    0.3086   -3.7334 O   0  0  0  0  0  0  0  0  0  0  0  0
   -0.2041   -0.8050    3.4751 H   0  0  0  0  0  0  0  0  0  0  0  0
   -1.1034   -1.9690    2.4957 H   0  0  0  0  0  0  0  0  0  0  0  0
    4.0685   -1.3779    3.3906 H   0  0  0  0  0  0  0  0  0  0  0  0
    6.1355   -2.4872    2.5925 H   0  0  0  0  0  0  0  0  0  0  0  0
    6.3196   -3.2082    0.2332 H   0  0  0  0  0  0  0  0  0  0  0  0
   -0.1968   -0.6467   -0.0510 H   0  0  0  0  0  0  0  0  0  0  0  0
   -0.8053    1.0357   -1.4551 H   0  0  0  0  0  0  0  0  0  0  0  0
   -1.2870    2.0229   -0.0691 H   0  0  0  0  0  0  0  0  0  0  0  0
   -3.5132    0.8913    0.0253 H   0  0  0  0  0  0  0  0  0  0  0  0
   -3.0013   -0.2485   -1.2088 H   0  0  0  0  0  0  0  0  0  0  0  0
   -4.3651    4.2517   -0.3990 H   0  0  0  0  0  0  0  0  0  0  0  0
   -4.6418    4.5908   -2.8185 H   0  0  0  0  0  0  0  0  0  0  0  0
  1  2  2  0
  2  3  1  0
  3  4  1  0
  4  5  1  0
  5  6  2  0
  5  7  1  0
  7  8  2  0
  8  9  1  0
  9 10  2  0
 10 11  1  0
 11 12  1  0
 11 13  2  0
 13 14  1  0
  2 15  1  0
 15 16  1  0
 16 17  1  0
 17 18  1  0
 18 19  1  0
 19 20  1  0
 19 21  2  0
 21 22  1  0
 22 23  1  0
 23 24  2  0
 13  7  1  0
 23 18  1  0
  3 25  1  0
  3 26  1  0
  8 27  1  0
  9 28  1  0
 10 29  1  0
 15 30  1  0
 16 31  1  0
 16 32  1  0
 17 33  1  0
 17 34  1  0
 20 35  1  0
 21 36  1  0
M  END
$$$$
