
     RDKit          3D

 42 44  0  0  0  0  0  0  0  0999 V2000
   -4.4905   -1.2630   -3.3606 C   0  0  0  0  0  0  0  0  0  0  0  0
   -4.4900   -1.8122   -2.0514 O   0  0  0  0  0  0  0  0  0  0  0  0
   -3.8662   -1.0997   -1.0706 C   0  0  0  0  0  0  0  0  0  0  0  0
   -3.2882    0.1636   -1.2217 C   0  0  0  0  0  0  0  0  0  0  0  0
   -2.6729    0.7847   -0.1355 C   0  0  0  0  0  0  0  0  0  0  0  0
   -2.6235    0.1302    1.0992 C   0  0  0  0  0  0  0  0  0  0  0  0
   -1.8154    0.9087    2.4733 S   0  0  0  0  0  6  0  0  0  0  0  0
   -2.5490    0.5461    3.6691 O   0  0  0  0  0  0  0  0  0  0  0  0
   -1.5682    2.2962    2.1439 O   0  0  0  0  0  0  0  0  0  0  0  0
   -0.3476    0.0748    2.5624 N   0  0  0  0  0  0  0  0  0  0  0  0
    0.7057    0.4570    1.6806 C   0  0  0  0  0  0  0  0  0  0  0  0
    0.7308   -0.0989    0.3960 C   0  0  0  0  0  0  0  0  0  0  0  0
    1.7179    0.2696   -0.5263 C   0  0  0  0  0  0  0  0  0  0  0  0
    1.6799   -0.4745   -2.1491 S   0  0  0  0  0  0  0  0  0  0  0  0
    3.1889   -1.3455   -2.1231 C   0  0  0  0  0  0  0  0  0  0  0  0
    4.3521   -0.7816   -2.5705 N   0  0  0  0  0  0  0  0  0  0  0  0
    5.2478   -1.7024   -2.2920 C   0  0  0  0  0  0  0  0  0  0  0  0
    4.6436   -2.7546   -1.6824 N   0  0  0  0  0  0  0  0  0  0  0  0
    3.3253   -2.5460   -1.5607 N   0  0  0  0  0  0  0  0  0  0  0  0
    2.6727    1.2185   -0.1422 C   0  0  0  0  0  0  0  0  0  0  0  0
    3.6737    1.6535   -0.9674 O   0  0  0  0  0  0  0  0  0  0  0  0
    2.6469    1.7808    1.1346 C   0  0  0  0  0  0  0  0  0  0  0  0
    1.6710    1.3993    2.0682 C   0  0  0  0  0  0  0  0  0  0  0  0
    1.6703    2.0401    3.4283 C   0  0  0  0  0  0  0  0  0  0  0  0
   -3.2163   -1.1230    1.2675 C   0  0  0  0  0  0  0  0  0  0  0  0
   -3.8330   -1.7326    0.1781 C   0  0  0  0  0  0  0  0  0  0  0  0
   -3.4685   -1.1324   -3.7323 H   0  0  0  0  0  0  0  0  0  0  0  0
   -5.0018   -1.9724   -4.0257 H   0  0  0  0  0  0  0  0  0  0  0  0
   -5.0454   -0.3238   -3.3889 H   0  0  0  0  0  0  0  0  0  0  0  0
   -3.2998    0.6935   -2.1695 H   0  0  0  0  0  0  0  0  0  0  0  0
   -2.2256    1.7688   -0.2643 H   0  0  0  0  0  0  0  0  0  0  0  0
   -0.1079   -0.1428    3.5283 H   0  0  0  0  0  0  0  0  0  0  0  0
   -0.0123   -0.8430    0.1174 H   0  0  0  0  0  0  0  0  0  0  0  0
    6.3119   -1.6561   -2.4861 H   0  0  0  0  0  0  0  0  0  0  0  0
    5.0461   -3.6140   -1.3239 H   0  0  0  0  0  0  0  0  0  0  0  0
    3.6901    1.1053   -1.7675 H   0  0  0  0  0  0  0  0  0  0  0  0
    3.3986    2.5237    1.3956 H   0  0  0  0  0  0  0  0  0  0  0  0
    0.8569    2.7686    3.5081 H   0  0  0  0  0  0  0  0  0  0  0  0
    2.6186    2.5616    3.6233 H   0  0  0  0  0  0  0  0  0  0  0  0
    1.5620    1.2849    4.2073 H   0  0  0  0  0  0  0  0  0  0  0  0
   -3.1977   -1.6271    2.2311 H   0  0  0  0  0  0  0  0  0  0  0  0
   -4.2909   -2.7115    0.2992 H   0  0  0  0  0  0  0  0  0  0  0  0
  1  2  1  0
  2  3  1  0
  3  4  2  0
  4  5  1  0
  5  6  2  0
  6  7  1  0
  7  8  2  0
  7  9  2  0
  7 10  1  0
 10 11  1  0
 11 12  2  0
 12 13  1  0
 13 14  1  0
 14 15  1  0
 15 16  1  0
 16 17  2  0
 17 18  1  0
 18 19  1  0
 13 20  2  0
 20 21  1  0
 20 22  1  0
 22 23  2  0
 23 24  1  0
  6 25  1  0
 25 26  2  0
 26  3  1  0
 23 11  1  0
 19 15  2  0
  1 27  1  0
  1 28  1  0
  1 29  1  0
  4 30  1  0
  5 31  1  0
 10 32  1  0
 12 33  1  0
 17 34  1  0
 18 35  1  0
 21 36  1  0
 22 37  1  0
 24 38  1  0
 24 39  1  0
 24 40  1  0
 25 41  1  0
 26 42  1  0
M  END
$$$$
