
     RDKit          3D

 55 58  0  0  0  0  0  0  0  0999 V2000
    7.6642    3.0452   -0.2499 C   0  0  0  0  0  0  0  0  0  0  0  0
    7.3680    1.6596   -0.3514 O   0  0  0  0  0  0  0  0  0  0  0  0
    6.0596    1.2740   -0.1981 C   0  0  0  0  0  0  0  0  0  0  0  0
    4.9967    2.1558    0.0194 C   0  0  0  0  0  0  0  0  0  0  0  0
    3.6951    1.6691    0.1588 C   0  0  0  0  0  0  0  0  0  0  0  0
    3.4414    0.2973    0.0707 C   0  0  0  0  0  0  0  0  0  0  0  0
    2.0351   -0.1739    0.2211 C   0  0  0  0  0  0  0  0  0  0  0  0
    1.6188   -1.3404   -0.6221 C   0  0  0  0  0  0  0  0  0  0  0  0
    0.3477   -1.7632   -0.4746 C   0  0  0  0  0  0  0  0  0  0  0  0
   -0.2392   -2.8920   -1.2314 C   0  0  0  0  0  0  0  0  0  0  0  0
   -0.6413   -3.9105   -0.4318 F   0  0  0  0  0  0  0  0  0  0  0  0
    0.6680   -3.4339   -2.0936 F   0  0  0  0  0  0  0  0  0  0  0  0
   -1.2977   -2.5211   -1.9942 F   0  0  0  0  0  0  0  0  0  0  0  0
   -0.4938   -1.1133    0.4201 N   0  0  0  0  0  0  0  0  0  0  0  0
   -1.7885   -1.3866    0.7054 N   0  0  0  0  0  0  0  0  0  0  0  0
   -2.1696   -0.4683    1.6095 C   0  0  0  0  0  0  0  0  0  0  0  0
   -3.5043   -0.4136    2.2449 C   0  0  0  0  0  0  0  0  0  0  0  0
   -3.6117    0.1178    3.3535 O   0  0  0  0  0  0  0  0  0  0  0  0
   -4.6275   -0.9651    1.6042 N   0  0  0  0  0  0  0  0  0  0  0  0
   -5.8773   -0.9121    2.3449 C   0  0  0  0  0  0  0  0  0  0  0  0
   -4.7440   -1.1610    0.1565 C   0  0  0  0  0  0  0  0  0  0  0  0
   -5.1747    0.0924   -0.5737 C   0  0  0  0  0  0  0  0  0  0  0  0
   -6.5339    0.3515   -0.8063 C   0  0  0  0  0  0  0  0  0  0  0  0
   -6.9329    1.5150   -1.4665 C   0  0  0  0  0  0  0  0  0  0  0  0
   -5.9789    2.4326   -1.9011 C   0  0  0  0  0  0  0  0  0  0  0  0
   -4.6259    2.1873   -1.6775 C   0  0  0  0  0  0  0  0  0  0  0  0
   -4.2253    1.0241   -1.0177 C   0  0  0  0  0  0  0  0  0  0  0  0
   -1.0884    0.3906    1.9286 C   0  0  0  0  0  0  0  0  0  0  0  0
   -0.0333   -0.0194    1.1532 C   0  0  0  0  0  0  0  0  0  0  0  0
    1.2417    0.4531    1.0427 N   0  0  0  0  0  0  0  0  0  0  0  0
    4.5030   -0.5950   -0.1264 C   0  0  0  0  0  0  0  0  0  0  0  0
    5.8111   -0.1134   -0.2648 C   0  0  0  0  0  0  0  0  0  0  0  0
    6.9113   -0.9099   -0.4695 O   0  0  0  0  0  0  0  0  0  0  0  0
    6.7313   -2.3181   -0.4394 C   0  0  0  0  0  0  0  0  0  0  0  0
    8.7437    3.1669   -0.3818 H   0  0  0  0  0  0  0  0  0  0  0  0
    7.1667    3.6141   -1.0422 H   0  0  0  0  0  0  0  0  0  0  0  0
    7.4047    3.4337    0.7404 H   0  0  0  0  0  0  0  0  0  0  0  0
    5.1458    3.2283    0.0882 H   0  0  0  0  0  0  0  0  0  0  0  0
    2.8799    2.3693    0.3333 H   0  0  0  0  0  0  0  0  0  0  0  0
    2.3071   -1.7863   -1.3288 H   0  0  0  0  0  0  0  0  0  0  0  0
   -6.3364    0.0716    2.2096 H   0  0  0  0  0  0  0  0  0  0  0  0
   -5.7032   -1.0732    3.4133 H   0  0  0  0  0  0  0  0  0  0  0  0
   -6.5539   -1.6939    1.9880 H   0  0  0  0  0  0  0  0  0  0  0  0
   -5.4759   -1.9607   -0.0165 H   0  0  0  0  0  0  0  0  0  0  0  0
   -3.8242   -1.5325   -0.2913 H   0  0  0  0  0  0  0  0  0  0  0  0
   -7.2926   -0.3526   -0.4722 H   0  0  0  0  0  0  0  0  0  0  0  0
   -7.9886    1.7064   -1.6402 H   0  0  0  0  0  0  0  0  0  0  0  0
   -6.2898    3.3391   -2.4136 H   0  0  0  0  0  0  0  0  0  0  0  0
   -3.8809    2.9025   -2.0165 H   0  0  0  0  0  0  0  0  0  0  0  0
   -3.1646    0.8479   -0.8586 H   0  0  0  0  0  0  0  0  0  0  0  0
   -1.0876    1.2054    2.6391 H   0  0  0  0  0  0  0  0  0  0  0  0
    4.3057   -1.6598   -0.1464 H   0  0  0  0  0  0  0  0  0  0  0  0
    6.0888   -2.6501   -1.2614 H   0  0  0  0  0  0  0  0  0  0  0  0
    7.7120   -2.7840   -0.5754 H   0  0  0  0  0  0  0  0  0  0  0  0
    6.3382   -2.6466    0.5284 H   0  0  0  0  0  0  0  0  0  0  0  0
  1  2  1  0
  2  3  1  0
  3  4  2  0
  4  5  1  0
  5  6  2  0
  6  7  1  0
  7  8  1  0
  8  9  2  0
  9 10  1  0
 10 11  1  0
 10 12  1  0
 10 13  1  0
  9 14  1  0
 14 15  1  0
 15 16  2  0
 16 17  1  0
 17 18  2  0
 17 19  1  0
 19 20  1  0
 19 21  1  0
 21 22  1  0
 22 23  2  0
 23 24  1  0
 24 25  2  0
 25 26  1  0
 26 27  2  0
 16 28  1  0
 28 29  2  0
 29 30  1  0
  6 31  1  0
 31 32  2  0
 32 33  1  0
 33 34  1  0
 32  3  1  0
 30  7  2  0
 29 14  1  0
 27 22  1  0
  1 35  1  0
  1 36  1  0
  1 37  1  0
  4 38  1  0
  5 39  1  0
  8 40  1  0
 20 41  1  0
 20 42  1  0
 20 43  1  0
 21 44  1  0
 21 45  1  0
 23 46  1  0
 24 47  1  0
 25 48  1  0
 26 49  1  0
 27 50  1  0
 28 51  1  0
 31 52  1  0
 34 53  1  0
 34 54  1  0
 34 55  1  0
M  END
$$$$
