
     RDKit          3D

 57 60  0  0  0  0  0  0  0  0999 V2000
   -1.9249   -0.5867    4.3904 C   0  0  0  0  0  0  0  0  0  0  0  0
   -0.9161    0.3203    3.6943 C   0  0  0  0  0  0  0  0  0  0  0  0
   -1.2122    0.5267    2.2046 C   0  0  0  0  0  0  0  0  0  0  0  0
   -0.9178   -0.9931    1.2192 S   0  0  0  0  0  0  0  0  0  0  0  0
   -2.4045   -0.9746    0.2812 C   0  0  0  0  0  0  0  0  0  0  0  0
   -3.4497   -1.3790    0.9376 N   0  0  0  0  0  0  0  0  0  0  0  0
   -4.6277   -1.4061    0.1966 C   0  0  0  0  0  0  0  0  0  0  0  0
   -5.8738   -1.8241    0.7120 C   0  0  0  0  0  0  0  0  0  0  0  0
   -6.8539   -1.7613   -0.2607 C   0  0  0  0  0  0  0  0  0  0  0  0
   -6.2359   -1.1928   -1.7620 S   0  0  0  0  0  0  0  0  0  0  0  0
   -4.6763   -1.0419   -1.1136 C   0  0  0  0  0  0  0  0  0  0  0  0
   -3.5237   -0.5900   -1.8345 C   0  0  0  0  0  0  0  0  0  0  0  0
   -3.5435   -0.2661   -3.0191 O   0  0  0  0  0  0  0  0  0  0  0  0
   -2.3599   -0.5636   -1.0512 N   0  0  0  0  0  0  0  0  0  0  0  0
   -1.1549   -0.0490   -1.7101 C   0  0  0  0  0  0  0  0  0  0  0  0
   -0.1767   -1.1281   -2.1312 C   0  0  0  0  0  0  0  0  0  0  0  0
    1.1797   -1.0132   -1.7872 C   0  0  0  0  0  0  0  0  0  0  0  0
    2.0963   -1.9959   -2.1716 C   0  0  0  0  0  0  0  0  0  0  0  0
    1.6727   -3.1012   -2.9203 C   0  0  0  0  0  0  0  0  0  0  0  0
    2.6798   -4.1230   -3.2961 C   0  0  0  0  0  0  0  0  0  0  0  0
    3.8545   -4.1128   -2.9767 O   0  0  0  0  0  0  0  0  0  0  0  0
    2.1687   -5.1101   -4.0536 O   0  0  0  0  0  0  0  0  0  0  0  0
    0.3285   -3.2100   -3.2916 C   0  0  0  0  0  0  0  0  0  0  0  0
   -0.5878   -2.2261   -2.9048 C   0  0  0  0  0  0  0  0  0  0  0  0
   -0.3396    1.6384    1.6087 C   0  0  0  0  0  0  0  0  0  0  0  0
   -0.8586    2.6209    1.0867 O   0  0  0  0  0  0  0  0  0  0  0  0
    1.0210    1.3830    1.6855 N   0  0  0  0  0  0  0  0  0  0  0  0
    2.0814    2.2127    1.2706 C   0  0  0  0  0  0  0  0  0  0  0  0
    3.3692    1.6684    1.3196 C   0  0  0  0  0  0  0  0  0  0  0  0
    4.4812    2.4263    0.9369 C   0  0  0  0  0  0  0  0  0  0  0  0
    4.3296    3.7486    0.5000 C   0  0  0  0  0  0  0  0  0  0  0  0
    5.5450    4.5472    0.1133 C   0  0  0  0  0  0  0  0  0  0  0  0
    3.0372    4.2915    0.4651 C   0  0  0  0  0  0  0  0  0  0  0  0
    2.7675    5.9232   -0.0269 Cl  0  0  0  0  0  0  0  0  0  0  0  0
    1.9227    3.5296    0.8409 C   0  0  0  0  0  0  0  0  0  0  0  0
   -1.8498   -1.6182    4.0371 H   0  0  0  0  0  0  0  0  0  0  0  0
   -1.7419   -0.5909    5.4688 H   0  0  0  0  0  0  0  0  0  0  0  0
   -2.9485   -0.2374    4.2262 H   0  0  0  0  0  0  0  0  0  0  0  0
   -0.9379    1.2963    4.1927 H   0  0  0  0  0  0  0  0  0  0  0  0
    0.0940   -0.0752    3.8531 H   0  0  0  0  0  0  0  0  0  0  0  0
   -2.2557    0.8464    2.0950 H   0  0  0  0  0  0  0  0  0  0  0  0
   -6.0509   -2.1579    1.7271 H   0  0  0  0  0  0  0  0  0  0  0  0
   -7.9003   -2.0188   -0.1686 H   0  0  0  0  0  0  0  0  0  0  0  0
   -1.4131    0.5340   -2.6016 H   0  0  0  0  0  0  0  0  0  0  0  0
   -0.6690    0.6590   -1.0338 H   0  0  0  0  0  0  0  0  0  0  0  0
    1.5363   -0.1568   -1.2152 H   0  0  0  0  0  0  0  0  0  0  0  0
    3.1422   -1.8948   -1.8879 H   0  0  0  0  0  0  0  0  0  0  0  0
    2.9302   -5.7045   -4.2137 H   0  0  0  0  0  0  0  0  0  0  0  0
   -0.0186   -4.0550   -3.8844 H   0  0  0  0  0  0  0  0  0  0  0  0
   -1.6240   -2.3262   -3.2237 H   0  0  0  0  0  0  0  0  0  0  0  0
    1.2785    0.4518    1.9946 H   0  0  0  0  0  0  0  0  0  0  0  0
    3.5316    0.6464    1.6552 H   0  0  0  0  0  0  0  0  0  0  0  0
    5.4702    1.9743    0.9862 H   0  0  0  0  0  0  0  0  0  0  0  0
    5.7122    5.3564    0.8340 H   0  0  0  0  0  0  0  0  0  0  0  0
    5.4297    4.9658   -0.8936 H   0  0  0  0  0  0  0  0  0  0  0  0
    6.4442    3.9203    0.0975 H   0  0  0  0  0  0  0  0  0  0  0  0
    0.9434    3.9967    0.8032 H   0  0  0  0  0  0  0  0  0  0  0  0
  1  2  1  0
  2  3  1  0
  3  4  1  0
  4  5  1  0
  5  6  2  0
  6  7  1  0
  7  8  1  0
  8  9  2  0
  9 10  1  0
 10 11  1  0
 11 12  1  0
 12 13  2  0
 12 14  1  0
 14 15  1  0
 15 16  1  0
 16 17  2  0
 17 18  1  0
 18 19  2  0
 19 20  1  0
 20 21  2  0
 20 22  1  0
 19 23  1  0
 23 24  2  0
  3 25  1  0
 25 26  2  0
 25 27  1  0
 27 28  1  0
 28 29  2  0
 29 30  1  0
 30 31  2  0
 31 32  1  0
 31 33  1  0
 33 34  1  0
 33 35  2  0
 14  5  1  0
 24 16  1  0
 35 28  1  0
 11  7  2  0
  1 36  1  0
  1 37  1  0
  1 38  1  0
  2 39  1  0
  2 40  1  0
  3 41  1  0
  8 42  1  0
  9 43  1  0
 15 44  1  0
 15 45  1  0
 17 46  1  0
 18 47  1  0
 22 48  1  0
 23 49  1  0
 24 50  1  0
 27 51  1  0
 29 52  1  0
 30 53  1  0
 32 54  1  0
 32 55  1  0
 32 56  1  0
 35 57  1  0
M  END
$$$$
