
     RDKit          3D

 51 55  0  0  0  0  0  0  0  0999 V2000
    8.1811   -1.2031    3.7344 F   0  0  0  0  0  0  0  0  0  0  0  0
    7.2475   -0.7800    2.8721 C   0  0  0  0  0  0  0  0  0  0  0  0
    6.2655    0.1025    3.3055 C   0  0  0  0  0  0  0  0  0  0  0  0
    5.2916    0.5435    2.4087 C   0  0  0  0  0  0  0  0  0  0  0  0
    5.3044    0.1025    1.0764 C   0  0  0  0  0  0  0  0  0  0  0  0
    4.2384    0.5635    0.1090 C   0  0  0  0  0  0  0  0  0  0  0  0
    2.9999   -0.3481    0.1571 C   0  0  0  0  0  0  0  0  0  0  0  0
    1.9699    0.0546   -0.8143 N   0  0  0  0  0  0  0  0  0  0  0  0
    1.2395    1.2797   -0.4126 C   0  0  0  0  0  0  0  0  0  0  0  0
   -0.2178    1.0638    0.0507 C   0  0  0  0  0  0  0  0  0  0  0  0
   -1.0117    0.3722   -0.9788 N   0  0  0  0  0  0  0  0  0  0  0  0
   -2.3939    0.2974   -0.8316 C   0  0  0  0  0  0  0  0  0  0  0  0
   -2.9019    0.5800    0.3441 N   0  0  0  0  0  0  0  0  0  0  0  0
   -4.2869    0.4859    0.5758 C   0  0  0  0  0  0  0  0  0  0  0  0
   -4.7672    0.7834    1.8528 C   0  0  0  0  0  0  0  0  0  0  0  0
   -6.1316    0.6944    2.1413 C   0  0  0  0  0  0  0  0  0  0  0  0
   -7.0323    0.3043    1.1498 C   0  0  0  0  0  0  0  0  0  0  0  0
   -6.5745    0.0027   -0.1334 C   0  0  0  0  0  0  0  0  0  0  0  0
   -5.2062    0.0960   -0.4064 C   0  0  0  0  0  0  0  0  0  0  0  0
   -4.6618   -0.1745   -1.6720 N   0  0  0  0  0  0  0  0  0  0  0  0
   -5.2985   -0.5468   -2.8323 C   0  0  0  0  0  0  0  0  0  0  0  0
   -4.3575   -0.6210   -3.8349 C   0  0  0  0  0  0  0  0  0  0  0  0
   -3.1071   -0.2984   -3.2585 C   0  0  0  0  0  0  0  0  0  0  0  0
   -3.3073   -0.0649   -1.9083 C   0  0  0  0  0  0  0  0  0  0  0  0
   -0.2686   -0.6176   -1.7726 C   0  0  0  0  0  0  0  0  0  0  0  0
    1.0298   -1.0595   -1.0638 C   0  0  0  0  0  0  0  0  0  0  0  0
    6.3015   -0.7926    0.6594 C   0  0  0  0  0  0  0  0  0  0  0  0
    7.2742   -1.2318    1.5584 C   0  0  0  0  0  0  0  0  0  0  0  0
    6.2647    0.4405    4.3367 H   0  0  0  0  0  0  0  0  0  0  0  0
    4.5244    1.2333    2.7535 H   0  0  0  0  0  0  0  0  0  0  0  0
    4.6533    0.5783   -0.9074 H   0  0  0  0  0  0  0  0  0  0  0  0
    3.9795    1.6032    0.3411 H   0  0  0  0  0  0  0  0  0  0  0  0
    2.5819   -0.3854    1.1719 H   0  0  0  0  0  0  0  0  0  0  0  0
    3.3342   -1.3682   -0.0773 H   0  0  0  0  0  0  0  0  0  0  0  0
    1.7717    1.8374    0.3660 H   0  0  0  0  0  0  0  0  0  0  0  0
    1.2221    1.9361   -1.2923 H   0  0  0  0  0  0  0  0  0  0  0  0
   -0.6600    2.0454    0.2597 H   0  0  0  0  0  0  0  0  0  0  0  0
   -0.2278    0.4851    0.9830 H   0  0  0  0  0  0  0  0  0  0  0  0
   -4.0675    1.0855    2.6275 H   0  0  0  0  0  0  0  0  0  0  0  0
   -6.4889    0.9295    3.1406 H   0  0  0  0  0  0  0  0  0  0  0  0
   -8.0932    0.2369    1.3782 H   0  0  0  0  0  0  0  0  0  0  0  0
   -7.2942   -0.2951   -0.8883 H   0  0  0  0  0  0  0  0  0  0  0  0
   -6.3654   -0.7114   -2.8698 H   0  0  0  0  0  0  0  0  0  0  0  0
   -4.5538   -0.8677   -4.8705 H   0  0  0  0  0  0  0  0  0  0  0  0
   -2.1635   -0.2407   -3.7825 H   0  0  0  0  0  0  0  0  0  0  0  0
   -0.8748   -1.5148   -1.9424 H   0  0  0  0  0  0  0  0  0  0  0  0
   -0.0246   -0.1832   -2.7489 H   0  0  0  0  0  0  0  0  0  0  0  0
    1.5307   -1.8111   -1.6853 H   0  0  0  0  0  0  0  0  0  0  0  0
    0.7575   -1.5489   -0.1183 H   0  0  0  0  0  0  0  0  0  0  0  0
    6.3251   -1.1508   -0.3677 H   0  0  0  0  0  0  0  0  0  0  0  0
    8.0501   -1.9219    1.2433 H   0  0  0  0  0  0  0  0  0  0  0  0
  1  2  1  0
  2  3  2  0
  3  4  1  0
  4  5  2  0
  5  6  1  0
  6  7  1  0
  7  8  1  0
  8  9  1  0
  9 10  1  0
 10 11  1  0
 11 12  1  0
 12 13  2  0
 13 14  1  0
 14 15  2  0
 15 16  1  0
 16 17  2  0
 17 18  1  0
 18 19  2  0
 19 20  1  0
 20 21  1  0
 21 22  2  0
 22 23  1  0
 23 24  2  0
 11 25  1  0
 25 26  1  0
  5 27  1  0
 27 28  2  0
 28  2  1  0
 26  8  1  0
 24 12  1  0
 19 14  1  0
 24 20  1  0
  3 29  1  0
  4 30  1  0
  6 31  1  0
  6 32  1  0
  7 33  1  0
  7 34  1  0
  9 35  1  0
  9 36  1  0
 10 37  1  0
 10 38  1  0
 15 39  1  0
 16 40  1  0
 17 41  1  0
 18 42  1  0
 21 43  1  0
 22 44  1  0
 23 45  1  0
 25 46  1  0
 25 47  1  0
 26 48  1  0
 26 49  1  0
 27 50  1  0
 28 51  1  0
M  END
$$$$
