
     RDKit          3D

 47 51  0  0  0  0  0  0  0  0999 V2000
   -0.8245   -0.9560   -3.2602 C   0  0  0  0  0  0  0  0  0  0  0  0
   -1.6456   -0.1790   -2.2788 C   0  0  0  0  0  0  0  0  0  0  0  0
   -2.9279   -0.0296   -2.5003 N   0  0  0  0  0  0  0  0  0  0  0  0
   -3.6456    0.6885   -1.5847 C   0  0  0  0  0  0  0  0  0  0  0  0
   -5.3269    0.9555   -1.7457 S   0  0  0  0  0  0  0  0  0  0  0  0
   -5.3872    1.8527   -0.2923 C   0  0  0  0  0  0  0  0  0  0  0  0
   -4.1532    1.9717    0.3229 C   0  0  0  0  0  0  0  0  0  0  0  0
   -3.1781    1.2901   -0.4354 C   0  0  0  0  0  0  0  0  0  0  0  0
   -1.6769    1.0853   -0.2190 C   0  0  0  0  0  0  0  0  0  0  0  0
   -0.9024    1.5014    0.7490 N   0  0  0  0  0  0  0  0  0  0  0  0
    0.3593    1.0414    0.4655 N   0  0  0  0  0  0  0  0  0  0  0  0
    0.3110    0.3624   -0.6640 C   0  0  0  0  0  0  0  0  0  0  0  0
    1.6881   -0.4057   -1.3732 S   0  0  0  0  0  0  0  0  0  0  0  0
    3.0233    0.3109   -0.3693 C   0  0  0  0  0  0  0  0  0  0  0  0
    4.3509   -0.2311   -0.8616 C   0  0  0  0  0  0  0  0  0  0  0  0
    5.0082    0.3219   -1.7397 O   0  0  0  0  0  0  0  0  0  0  0  0
    4.7507   -1.3978   -0.2480 N   0  0  0  0  0  0  0  0  0  0  0  0
    5.9133   -2.1087   -0.7262 C   0  0  0  0  0  0  0  0  0  0  0  0
    6.2236   -3.2005    0.2263 C   0  0  0  0  0  0  0  0  0  0  0  0
    7.3198   -3.4924    1.0112 C   0  0  0  0  0  0  0  0  0  0  0  0
    7.0048   -4.6815    1.7120 C   0  0  0  0  0  0  0  0  0  0  0  0
    5.7385   -5.0386    1.3129 C   0  0  0  0  0  0  0  0  0  0  0  0
    5.2533   -4.1450    0.4130 O   0  0  0  0  0  0  0  0  0  0  0  0
   -0.9774    0.3544   -1.1561 N   0  0  0  0  0  0  0  0  0  0  0  0
   -3.9673    2.7040    1.6151 C   0  0  0  0  0  0  0  0  0  0  0  0
   -5.1732    3.6029    1.9351 C   0  0  0  0  0  0  0  0  0  0  0  0
   -6.5060    2.8816    1.6825 C   0  0  0  0  0  0  0  0  0  0  0  0
   -6.6595    2.4611    0.2116 C   0  0  0  0  0  0  0  0  0  0  0  0
   -0.0462   -0.3238   -3.6944 H   0  0  0  0  0  0  0  0  0  0  0  0
   -0.3955   -1.8411   -2.7845 H   0  0  0  0  0  0  0  0  0  0  0  0
   -1.4618   -1.3017   -4.0812 H   0  0  0  0  0  0  0  0  0  0  0  0
    3.0367    1.4017   -0.4629 H   0  0  0  0  0  0  0  0  0  0  0  0
    2.8904    0.0561    0.6874 H   0  0  0  0  0  0  0  0  0  0  0  0
    4.0540   -1.9517    0.2363 H   0  0  0  0  0  0  0  0  0  0  0  0
    5.6866   -2.5125   -1.7186 H   0  0  0  0  0  0  0  0  0  0  0  0
    6.7509   -1.4097   -0.8213 H   0  0  0  0  0  0  0  0  0  0  0  0
    8.2328   -2.9158    1.0697 H   0  0  0  0  0  0  0  0  0  0  0  0
    7.6235   -5.2136    2.4210 H   0  0  0  0  0  0  0  0  0  0  0  0
    5.0774   -5.8569    1.5629 H   0  0  0  0  0  0  0  0  0  0  0  0
   -3.0589    3.3159    1.5832 H   0  0  0  0  0  0  0  0  0  0  0  0
   -3.8405    1.9679    2.4184 H   0  0  0  0  0  0  0  0  0  0  0  0
   -5.1167    3.9311    2.9790 H   0  0  0  0  0  0  0  0  0  0  0  0
   -5.1325    4.5060    1.3126 H   0  0  0  0  0  0  0  0  0  0  0  0
   -7.3424    3.5308    1.9651 H   0  0  0  0  0  0  0  0  0  0  0  0
   -6.5588    1.9934    2.3255 H   0  0  0  0  0  0  0  0  0  0  0  0
   -6.8954    3.3439   -0.3952 H   0  0  0  0  0  0  0  0  0  0  0  0
   -7.4966    1.7600    0.1187 H   0  0  0  0  0  0  0  0  0  0  0  0
  1  2  1  0
  2  3  2  0
  3  4  1  0
  4  5  1  0
  5  6  1  0
  6  7  2  0
  7  8  1  0
  8  9  1  0
  9 10  2  0
 10 11  1  0
 11 12  2  0
 12 13  1  0
 13 14  1  0
 14 15  1  0
 15 16  2  0
 15 17  1  0
 17 18  1  0
 18 19  1  0
 19 20  2  0
 20 21  1  0
 21 22  2  0
 22 23  1  0
 12 24  1  0
  7 25  1  0
 25 26  1  0
 26 27  1  0
 27 28  1  0
 24  2  1  0
  8  4  2  0
 24  9  1  0
 28  6  1  0
 23 19  1  0
  1 29  1  0
  1 30  1  0
  1 31  1  0
 14 32  1  0
 14 33  1  0
 17 34  1  0
 18 35  1  0
 18 36  1  0
 20 37  1  0
 21 38  1  0
 22 39  1  0
 25 40  1  0
 25 41  1  0
 26 42  1  0
 26 43  1  0
 27 44  1  0
 27 45  1  0
 28 46  1  0
 28 47  1  0
M  END
$$$$
