
     RDKit          3D

 55 58  0  0  0  0  0  0  0  0999 V2000
    4.4550   -3.0028    0.7275 C   0  0  0  0  0  0  0  0  0  0  0  0
    3.4219   -2.3433   -0.0209 N   0  0  0  0  0  0  0  0  0  0  0  0
    3.5873   -1.4801   -1.0855 C   0  0  0  0  0  0  0  0  0  0  0  0
    4.8901   -1.1225   -1.7273 C   0  0  0  0  0  0  0  0  0  0  0  0
    5.7857   -0.2525   -0.8664 C   0  0  0  0  0  0  0  0  0  0  0  0
    5.3538    1.0155   -0.4361 C   0  0  0  0  0  0  0  0  0  0  0  0
    6.1985    1.8268    0.3232 C   0  0  0  0  0  0  0  0  0  0  0  0
    7.4809    1.3819    0.6655 C   0  0  0  0  0  0  0  0  0  0  0  0
    7.9218    0.1267    0.2436 C   0  0  0  0  0  0  0  0  0  0  0  0
    7.0779   -0.6899   -0.5139 C   0  0  0  0  0  0  0  0  0  0  0  0
    2.4022   -1.0363   -1.4610 N   0  0  0  0  0  0  0  0  0  0  0  0
    1.4491   -1.6187   -0.6625 N   0  0  0  0  0  0  0  0  0  0  0  0
    2.0706   -2.4074    0.1815 C   0  0  0  0  0  0  0  0  0  0  0  0
    1.2768   -3.3635    1.3863 S   0  0  0  0  0  0  0  0  0  0  0  0
   -0.0307   -4.1312    0.3717 C   0  0  0  0  0  0  0  0  0  0  0  0
   -1.3336   -3.3445    0.2488 C   0  0  0  0  0  0  0  0  0  0  0  0
   -2.3676   -3.9581   -0.0422 O   0  0  0  0  0  0  0  0  0  0  0  0
   -1.2346   -1.9821    0.4006 N   0  0  0  0  0  0  0  0  0  0  0  0
   -2.2494   -1.0098    0.2905 C   0  0  0  0  0  0  0  0  0  0  0  0
   -1.8697    0.3263    0.4447 C   0  0  0  0  0  0  0  0  0  0  0  0
   -2.8165    1.3580    0.3429 C   0  0  0  0  0  0  0  0  0  0  0  0
   -4.1707    1.0925    0.0894 C   0  0  0  0  0  0  0  0  0  0  0  0
   -5.1512    2.0912   -0.0430 N   0  0  0  0  0  0  0  0  0  0  0  0
   -6.2897    1.9609    0.9091 C   0  0  0  0  0  0  0  0  0  0  0  0
   -7.4220    2.9287    0.5162 C   0  0  0  0  0  0  0  0  0  0  0  0
   -6.9508    4.2915    0.4454 O   0  0  0  0  0  0  0  0  0  0  0  0
   -5.8830    4.3980   -0.5290 C   0  0  0  0  0  0  0  0  0  0  0  0
   -4.6950    3.4981   -0.1565 C   0  0  0  0  0  0  0  0  0  0  0  0
   -4.5260   -0.2558   -0.0762 C   0  0  0  0  0  0  0  0  0  0  0  0
   -3.5877   -1.2937    0.0312 C   0  0  0  0  0  0  0  0  0  0  0  0
    4.7417   -2.3558    1.5716 H   0  0  0  0  0  0  0  0  0  0  0  0
    4.0897   -3.9706    1.0980 H   0  0  0  0  0  0  0  0  0  0  0  0
    5.3172   -3.1862    0.0729 H   0  0  0  0  0  0  0  0  0  0  0  0
    4.6978   -0.5893   -2.6681 H   0  0  0  0  0  0  0  0  0  0  0  0
    5.4154   -2.0450   -2.0201 H   0  0  0  0  0  0  0  0  0  0  0  0
    4.3617    1.3862   -0.7152 H   0  0  0  0  0  0  0  0  0  0  0  0
    5.8636    2.8152    0.6346 H   0  0  0  0  0  0  0  0  0  0  0  0
    8.1406    2.0251    1.2522 H   0  0  0  0  0  0  0  0  0  0  0  0
    8.9263   -0.2085    0.4995 H   0  0  0  0  0  0  0  0  0  0  0  0
    7.4424   -1.6622   -0.8407 H   0  0  0  0  0  0  0  0  0  0  0  0
    0.3382   -4.3620   -0.6311 H   0  0  0  0  0  0  0  0  0  0  0  0
   -0.2773   -5.0852    0.8586 H   0  0  0  0  0  0  0  0  0  0  0  0
   -0.2878   -1.6135    0.4972 H   0  0  0  0  0  0  0  0  0  0  0  0
   -0.8345    0.5915    0.6460 H   0  0  0  0  0  0  0  0  0  0  0  0
   -2.4626    2.3723    0.4821 H   0  0  0  0  0  0  0  0  0  0  0  0
   -5.9396    2.2020    1.9197 H   0  0  0  0  0  0  0  0  0  0  0  0
   -6.7066    0.9507    0.9191 H   0  0  0  0  0  0  0  0  0  0  0  0
   -7.8649    2.6433   -0.4609 H   0  0  0  0  0  0  0  0  0  0  0  0
   -8.2273    2.8891    1.2724 H   0  0  0  0  0  0  0  0  0  0  0  0
   -6.2760    4.1434   -1.5303 H   0  0  0  0  0  0  0  0  0  0  0  0
   -5.5549    5.4502   -0.5520 H   0  0  0  0  0  0  0  0  0  0  0  0
   -4.2882    3.8341    0.8100 H   0  0  0  0  0  0  0  0  0  0  0  0
   -3.9215    3.6044   -0.9267 H   0  0  0  0  0  0  0  0  0  0  0  0
   -5.5505   -0.5244   -0.3294 H   0  0  0  0  0  0  0  0  0  0  0  0
   -3.9362   -2.3086   -0.1150 H   0  0  0  0  0  0  0  0  0  0  0  0
  1  2  1  0
  2  3  1  0
  3  4  1  0
  4  5  1  0
  5  6  2  0
  6  7  1  0
  7  8  2  0
  8  9  1  0
  9 10  2  0
  3 11  2  0
 11 12  1  0
 12 13  2  0
 13 14  1  0
 14 15  1  0
 15 16  1  0
 16 17  2  0
 16 18  1  0
 18 19  1  0
 19 20  2  0
 20 21  1  0
 21 22  2  0
 22 23  1  0
 23 24  1  0
 24 25  1  0
 25 26  1  0
 26 27  1  0
 27 28  1  0
 22 29  1  0
 29 30  2  0
 13  2  1  0
 30 19  1  0
 10  5  1  0
 28 23  1  0
  1 31  1  0
  1 32  1  0
  1 33  1  0
  4 34  1  0
  4 35  1  0
  6 36  1  0
  7 37  1  0
  8 38  1  0
  9 39  1  0
 10 40  1  0
 15 41  1  0
 15 42  1  0
 18 43  1  0
 20 44  1  0
 21 45  1  0
 24 46  1  0
 24 47  1  0
 25 48  1  0
 25 49  1  0
 27 50  1  0
 27 51  1  0
 28 52  1  0
 28 53  1  0
 29 54  1  0
 30 55  1  0
M  END
$$$$
