
     RDKit          3D

 48 51  0  0  0  0  0  0  0  0999 V2000
    1.8175   -3.5801    0.1333 C   0  0  0  0  0  0  0  0  0  0  0  0
    1.8794   -2.1113    0.4029 C   0  0  0  0  0  0  0  0  0  0  0  0
    0.9032   -1.3013    0.8453 C   0  0  0  0  0  0  0  0  0  0  0  0
   -0.3879   -1.4726    1.2605 N   0  0  0  0  0  0  0  0  0  0  0  0
   -1.0702   -2.6220    1.5843 C   0  0  0  0  0  0  0  0  0  0  0  0
   -0.5943   -3.7542    1.5973 O   0  0  0  0  0  0  0  0  0  0  0  0
   -2.5065   -2.3765    2.0236 C   0  0  0  0  0  0  0  0  0  0  0  0
   -3.5753   -1.9985    0.5988 S   0  0  0  0  0  0  0  0  0  0  0  0
   -3.5075   -0.2011    0.5430 C   0  0  0  0  0  0  0  0  0  0  0  0
   -2.4788    0.3674    1.2073 N   0  0  0  0  0  0  0  0  0  0  0  0
   -2.4089    1.7034    1.1420 C   0  0  0  0  0  0  0  0  0  0  0  0
   -3.2645    2.5056    0.5021 N   0  0  0  0  0  0  0  0  0  0  0  0
   -4.2746    1.9237   -0.1512 C   0  0  0  0  0  0  0  0  0  0  0  0
   -5.1719    2.7381   -0.8314 C   0  0  0  0  0  0  0  0  0  0  0  0
   -6.2563    2.2165   -1.5409 C   0  0  0  0  0  0  0  0  0  0  0  0
   -6.4557    0.8447   -1.5791 C   0  0  0  0  0  0  0  0  0  0  0  0
   -5.5691    0.0068   -0.9059 C   0  0  0  0  0  0  0  0  0  0  0  0
   -4.4652    0.5356   -0.1801 C   0  0  0  0  0  0  0  0  0  0  0  0
    1.4808    0.0834    0.8101 C   0  0  0  0  0  0  0  0  0  0  0  0
    0.8275    1.0725    1.1140 O   0  0  0  0  0  0  0  0  0  0  0  0
    2.7895   -0.0406    0.3390 N   0  0  0  0  0  0  0  0  0  0  0  0
    3.5429    0.9816   -0.2938 C   0  0  0  0  0  0  0  0  0  0  0  0
    4.5247    0.6760   -1.2493 C   0  0  0  0  0  0  0  0  0  0  0  0
    5.2683    1.6847   -1.8705 C   0  0  0  0  0  0  0  0  0  0  0  0
    5.0398    3.0184   -1.5470 C   0  0  0  0  0  0  0  0  0  0  0  0
    4.0656    3.3425   -0.6076 C   0  0  0  0  0  0  0  0  0  0  0  0
    3.3217    2.3317    0.0111 C   0  0  0  0  0  0  0  0  0  0  0  0
    3.0782   -1.4203    0.1295 N   0  0  0  0  0  0  0  0  0  0  0  0
    4.2899   -1.8751    0.8392 C   0  0  0  0  0  0  0  0  0  0  0  0
    2.5900   -3.8768   -0.5857 H   0  0  0  0  0  0  0  0  0  0  0  0
    1.9817   -4.1505    1.0521 H   0  0  0  0  0  0  0  0  0  0  0  0
    0.8644   -3.8650   -0.3205 H   0  0  0  0  0  0  0  0  0  0  0  0
   -0.9028   -0.5971    1.3892 H   0  0  0  0  0  0  0  0  0  0  0  0
   -2.8777   -3.3034    2.4747 H   0  0  0  0  0  0  0  0  0  0  0  0
   -2.5499   -1.6110    2.8046 H   0  0  0  0  0  0  0  0  0  0  0  0
   -1.5795    2.1812    1.6549 H   0  0  0  0  0  0  0  0  0  0  0  0
   -5.0223    3.8160   -0.8094 H   0  0  0  0  0  0  0  0  0  0  0  0
   -6.9375    2.8853   -2.0608 H   0  0  0  0  0  0  0  0  0  0  0  0
   -7.2956    0.4261   -2.1281 H   0  0  0  0  0  0  0  0  0  0  0  0
   -5.7436   -1.0662   -0.9496 H   0  0  0  0  0  0  0  0  0  0  0  0
    4.7034   -0.3523   -1.5512 H   0  0  0  0  0  0  0  0  0  0  0  0
    6.0173    1.4257   -2.6143 H   0  0  0  0  0  0  0  0  0  0  0  0
    5.6141    3.8042   -2.0305 H   0  0  0  0  0  0  0  0  0  0  0  0
    3.8792    4.3826   -0.3525 H   0  0  0  0  0  0  0  0  0  0  0  0
    2.5802    2.6263    0.7488 H   0  0  0  0  0  0  0  0  0  0  0  0
    4.1434   -1.8340    1.9249 H   0  0  0  0  0  0  0  0  0  0  0  0
    5.1619   -1.2638    0.5913 H   0  0  0  0  0  0  0  0  0  0  0  0
    4.5309   -2.9060    0.5599 H   0  0  0  0  0  0  0  0  0  0  0  0
  1  2  1  0
  2  3  2  0
  3  4  1  0
  4  5  1  0
  5  6  2  0
  5  7  1  0
  7  8  1  0
  8  9  1  0
  9 10  2  0
 10 11  1  0
 11 12  2  0
 12 13  1  0
 13 14  2  0
 14 15  1  0
 15 16  2  0
 16 17  1  0
 17 18  2  0
  3 19  1  0
 19 20  2  0
 19 21  1  0
 21 22  1  0
 22 23  2  0
 23 24  1  0
 24 25  2  0
 25 26  1  0
 26 27  2  0
 21 28  1  0
 28 29  1  0
 28  2  1  0
 18  9  1  0
 27 22  1  0
 18 13  1  0
  1 30  1  0
  1 31  1  0
  1 32  1  0
  4 33  1  0
  7 34  1  0
  7 35  1  0
 11 36  1  0
 14 37  1  0
 15 38  1  0
 16 39  1  0
 17 40  1  0
 23 41  1  0
 24 42  1  0
 25 43  1  0
 26 44  1  0
 27 45  1  0
 29 46  1  0
 29 47  1  0
 29 48  1  0
M  END
$$$$
