
     RDKit          3D

 61 65  0  0  0  0  0  0  0  0999 V2000
    6.4622   -4.3214    1.8467 C   0  0  0  0  0  0  0  0  0  0  0  0
    5.2634   -3.4948    1.4836 C   0  0  0  0  0  0  0  0  0  0  0  0
    4.4896   -3.8171    0.3657 C   0  0  0  0  0  0  0  0  0  0  0  0
    3.3553   -3.0639    0.0464 C   0  0  0  0  0  0  0  0  0  0  0  0
    2.9600   -1.9759    0.8414 C   0  0  0  0  0  0  0  0  0  0  0  0
    1.7694   -1.1825    0.5035 C   0  0  0  0  0  0  0  0  0  0  0  0
    1.8283    0.2048    0.3961 C   0  0  0  0  0  0  0  0  0  0  0  0
    0.6921    0.9583    0.0683 C   0  0  0  0  0  0  0  0  0  0  0  0
    0.7844    2.4151   -0.0716 C   0  0  0  0  0  0  0  0  0  0  0  0
    0.8035    3.2416    1.0637 C   0  0  0  0  0  0  0  0  0  0  0  0
    0.8956    4.6296    0.9349 C   0  0  0  0  0  0  0  0  0  0  0  0
    0.9917    5.2200   -0.3288 C   0  0  0  0  0  0  0  0  0  0  0  0
    1.0628    6.7141   -0.4607 C   0  0  0  0  0  0  0  0  0  0  0  0
    0.9800    4.4037   -1.4635 C   0  0  0  0  0  0  0  0  0  0  0  0
    0.8894    3.0152   -1.3368 C   0  0  0  0  0  0  0  0  0  0  0  0
   -0.5092    0.3388   -0.1474 N   0  0  0  0  0  4  0  0  0  0  0  0
   -1.6774    1.1184   -0.4820 C   0  0  0  0  0  0  0  0  0  0  0  0
   -2.3495    1.7972    0.5363 C   0  0  0  0  0  0  0  0  0  0  0  0
   -3.4757    2.5471    0.2049 C   0  0  0  0  0  0  0  0  0  0  0  0
   -3.9108    2.6066   -1.1225 C   0  0  0  0  0  0  0  0  0  0  0  0
   -3.2252    1.9194   -2.1286 C   0  0  0  0  0  0  0  0  0  0  0  0
   -2.0963    1.1667   -1.8133 C   0  0  0  0  0  0  0  0  0  0  0  0
   -0.5983   -1.0231   -0.0442 C   0  0  0  0  0  0  0  0  0  0  0  0
   -1.8967   -1.6741   -0.2455 C   0  0  0  0  0  0  0  0  0  0  0  0
   -2.8522   -1.7130    0.7827 C   0  0  0  0  0  0  0  0  0  0  0  0
   -4.0881   -2.3341    0.5854 C   0  0  0  0  0  0  0  0  0  0  0  0
   -4.3862   -2.9493   -0.6341 C   0  0  0  0  0  0  0  0  0  0  0  0
   -5.7268   -3.5888   -0.8553 C   0  0  0  0  0  0  0  0  0  0  0  0
   -3.4378   -2.9202   -1.6607 C   0  0  0  0  0  0  0  0  0  0  0  0
   -2.2012   -2.2999   -1.4655 C   0  0  0  0  0  0  0  0  0  0  0  0
    0.5346   -1.7848    0.2760 C   0  0  0  0  0  0  0  0  0  0  0  0
    3.7370   -1.6711    1.9707 C   0  0  0  0  0  0  0  0  0  0  0  0
    4.8712   -2.4241    2.2912 C   0  0  0  0  0  0  0  0  0  0  0  0
    7.2360   -3.7011    2.3097 H   0  0  0  0  0  0  0  0  0  0  0  0
    6.9048   -4.7826    0.9579 H   0  0  0  0  0  0  0  0  0  0  0  0
    6.1737   -5.1111    2.5467 H   0  0  0  0  0  0  0  0  0  0  0  0
    4.7685   -4.6570   -0.2683 H   0  0  0  0  0  0  0  0  0  0  0  0
    2.7918   -3.3384   -0.8430 H   0  0  0  0  0  0  0  0  0  0  0  0
    2.7792    0.7187    0.5471 H   0  0  0  0  0  0  0  0  0  0  0  0
    0.7457    2.8191    2.0658 H   0  0  0  0  0  0  0  0  0  0  0  0
    0.8997    5.2527    1.8285 H   0  0  0  0  0  0  0  0  0  0  0  0
    0.0609    7.1452   -0.3709 H   0  0  0  0  0  0  0  0  0  0  0  0
    1.4838    7.0062   -1.4283 H   0  0  0  0  0  0  0  0  0  0  0  0
    1.7066    7.1395    0.3166 H   0  0  0  0  0  0  0  0  0  0  0  0
    1.0506    4.8472   -2.4558 H   0  0  0  0  0  0  0  0  0  0  0  0
    0.9065    2.4134   -2.2438 H   0  0  0  0  0  0  0  0  0  0  0  0
   -2.0197    1.7501    1.5691 H   0  0  0  0  0  0  0  0  0  0  0  0
   -4.0221    3.0894    0.9750 H   0  0  0  0  0  0  0  0  0  0  0  0
   -4.7929    3.1945   -1.3754 H   0  0  0  0  0  0  0  0  0  0  0  0
   -3.5789    1.9767   -3.1568 H   0  0  0  0  0  0  0  0  0  0  0  0
   -1.5650    0.6397   -2.5991 H   0  0  0  0  0  0  0  0  0  0  0  0
   -2.6505   -1.2641    1.7539 H   0  0  0  0  0  0  0  0  0  0  0  0
   -4.8186   -2.3431    1.3933 H   0  0  0  0  0  0  0  0  0  0  0  0
   -5.6501   -4.4218   -1.5619 H   0  0  0  0  0  0  0  0  0  0  0  0
   -6.1261   -3.9928    0.0809 H   0  0  0  0  0  0  0  0  0  0  0  0
   -6.4312   -2.8512   -1.2520 H   0  0  0  0  0  0  0  0  0  0  0  0
   -3.6573   -3.3889   -2.6191 H   0  0  0  0  0  0  0  0  0  0  0  0
   -1.4830   -2.3118   -2.2840 H   0  0  0  0  0  0  0  0  0  0  0  0
    0.4360   -2.8677    0.3685 H   0  0  0  0  0  0  0  0  0  0  0  0
    3.4643   -0.8495    2.6298 H   0  0  0  0  0  0  0  0  0  0  0  0
    5.4481   -2.1697    3.1787 H   0  0  0  0  0  0  0  0  0  0  0  0
  1  2  1  0
  2  3  2  0
  3  4  1  0
  4  5  2  0
  5  6  1  0
  6  7  2  0
  7  8  1  0
  8  9  1  0
  9 10  2  0
 10 11  1  0
 11 12  2  0
 12 13  1  0
 12 14  1  0
 14 15  2  0
  8 16  2  0
 16 17  1  0
 17 18  2  0
 18 19  1  0
 19 20  2  0
 20 21  1  0
 21 22  2  0
 16 23  1  0
 23 24  1  0
 24 25  2  0
 25 26  1  0
 26 27  2  0
 27 28  1  0
 27 29  1  0
 29 30  2  0
 23 31  2  0
  5 32  1  0
 32 33  2  0
 33  2  1  0
 31  6  1  0
 15  9  1  0
 22 17  1  0
 30 24  1  0
  1 34  1  0
  1 35  1  0
  1 36  1  0
  3 37  1  0
  4 38  1  0
  7 39  1  0
 10 40  1  0
 11 41  1  0
 13 42  1  0
 13 43  1  0
 13 44  1  0
 14 45  1  0
 15 46  1  0
 18 47  1  0
 19 48  1  0
 20 49  1  0
 21 50  1  0
 22 51  1  0
 25 52  1  0
 26 53  1  0
 28 54  1  0
 28 55  1  0
 28 56  1  0
 29 57  1  0
 30 58  1  0
 31 59  1  0
 32 60  1  0
 33 61  1  0
M  CHG  1  16   1
M  END
$$$$
