
     RDKit          3D

 53 58  0  0  0  0  0  0  0  0999 V2000
   -0.4886    1.6068   -0.3926 O   0  0  0  0  0  0  0  0  0  0  0  0
   -1.2255    0.6242   -0.4800 C   0  0  0  0  0  0  0  0  0  0  0  0
   -0.6612   -0.8104   -0.4319 C   0  0  0  0  0  0  0  0  0  0  0  0
    0.7149   -0.8381    0.0937 N   0  0  0  0  0  4  0  0  0  0  0  0
    1.8585   -0.3767   -0.5622 C   0  0  0  0  0  0  0  0  0  0  0  0
    2.9508   -0.5090    0.2870 C   0  0  0  0  0  0  0  0  0  0  0  0
    4.4323   -0.0807   -0.0242 C   0  0  0  0  0  0  0  0  0  0  0  0
    4.7583    0.4546   -1.2759 C   0  0  0  0  0  0  0  0  0  0  0  0
    6.0750    0.8367   -1.5575 C   0  0  0  0  0  0  0  0  0  0  0  0
    7.0752    0.6909   -0.5939 C   0  0  0  0  0  0  0  0  0  0  0  0
    8.6755    1.1812   -1.0099 Cl  0  0  0  0  0  0  0  0  0  0  0  0
    6.7506    0.1618    0.6576 C   0  0  0  0  0  0  0  0  0  0  0  0
    7.9233   -0.0481    1.9089 Cl  0  0  0  0  0  0  0  0  0  0  0  0
    5.4317   -0.2214    0.9403 C   0  0  0  0  0  0  0  0  0  0  0  0
    2.4026   -1.0813    1.4226 N   0  0  0  0  0  0  0  0  0  0  0  0
    1.0862   -1.2296    1.3055 C   0  0  0  0  0  0  0  0  0  0  0  0
    0.4480   -1.7805    2.5227 C   0  0  0  0  0  0  0  0  0  0  0  0
    1.6655   -2.2675    3.3325 C   0  0  0  0  0  0  0  0  0  0  0  0
    2.8824   -1.5131    2.7290 C   0  0  0  0  0  0  0  0  0  0  0  0
   -2.6038    0.6571   -0.7253 N   0  0  0  0  0  0  0  0  0  0  0  0
   -3.1316    1.3156   -1.8945 C   0  0  0  0  0  0  0  0  0  0  0  0
   -2.3215    2.1879   -2.6510 C   0  0  0  0  0  0  0  0  0  0  0  0
   -2.8002    2.8373   -3.7944 C   0  0  0  0  0  0  0  0  0  0  0  0
   -4.0998    2.6195   -4.2234 C   0  0  0  0  0  0  0  0  0  0  0  0
   -4.9137    1.7442   -3.5128 C   0  0  0  0  0  0  0  0  0  0  0  0
   -4.4400    1.0912   -2.3606 C   0  0  0  0  0  0  0  0  0  0  0  0
   -5.5379   -0.0949   -1.6298 S   0  0  0  0  0  0  0  0  0  0  0  0
   -4.8359   -0.2172   -0.0136 C   0  0  0  0  0  0  0  0  0  0  0  0
   -5.6606   -0.7327    1.0006 C   0  0  0  0  0  0  0  0  0  0  0  0
   -5.1932   -0.8692    2.3051 C   0  0  0  0  0  0  0  0  0  0  0  0
   -3.8978   -0.4802    2.6110 C   0  0  0  0  0  0  0  0  0  0  0  0
   -3.0691    0.0235    1.6053 C   0  0  0  0  0  0  0  0  0  0  0  0
   -3.5110    0.1419    0.2677 C   0  0  0  0  0  0  0  0  0  0  0  0
   -0.6400   -1.2068   -1.4531 H   0  0  0  0  0  0  0  0  0  0  0  0
   -1.2774   -1.4725    0.1799 H   0  0  0  0  0  0  0  0  0  0  0  0
    1.7388    0.0186   -1.5570 H   0  0  0  0  0  0  0  0  0  0  0  0
    4.0158    0.5895   -2.0583 H   0  0  0  0  0  0  0  0  0  0  0  0
    6.3170    1.2512   -2.5352 H   0  0  0  0  0  0  0  0  0  0  0  0
    5.2175   -0.6162    1.9249 H   0  0  0  0  0  0  0  0  0  0  0  0
   -0.2337   -2.5825    2.2375 H   0  0  0  0  0  0  0  0  0  0  0  0
   -0.0721   -0.9507    3.0057 H   0  0  0  0  0  0  0  0  0  0  0  0
    1.7976   -3.3437    3.1691 H   0  0  0  0  0  0  0  0  0  0  0  0
    1.5558   -2.1028    4.4078 H   0  0  0  0  0  0  0  0  0  0  0  0
    3.7441   -2.1769    2.6298 H   0  0  0  0  0  0  0  0  0  0  0  0
    3.1333   -0.6294    3.3227 H   0  0  0  0  0  0  0  0  0  0  0  0
   -1.3027    2.4273   -2.3611 H   0  0  0  0  0  0  0  0  0  0  0  0
   -2.1557    3.5220   -4.3420 H   0  0  0  0  0  0  0  0  0  0  0  0
   -4.4790    3.1223   -5.1099 H   0  0  0  0  0  0  0  0  0  0  0  0
   -5.9261    1.5652   -3.8725 H   0  0  0  0  0  0  0  0  0  0  0  0
   -6.6875   -1.0234    0.7803 H   0  0  0  0  0  0  0  0  0  0  0  0
   -5.8517   -1.2543    3.0809 H   0  0  0  0  0  0  0  0  0  0  0  0
   -3.5443   -0.5428    3.6379 H   0  0  0  0  0  0  0  0  0  0  0  0
   -2.0890    0.3823    1.9102 H   0  0  0  0  0  0  0  0  0  0  0  0
  1  2  2  0
  2  3  1  0
  3  4  1  0
  4  5  1  0
  5  6  2  0
  6  7  1  0
  7  8  2  0
  8  9  1  0
  9 10  2  0
 10 11  1  0
 10 12  1  0
 12 13  1  0
 12 14  2  0
  6 15  1  0
 15 16  1  0
 16 17  1  0
 17 18  1  0
 18 19  1  0
  2 20  1  0
 20 21  1  0
 21 22  2  0
 22 23  1  0
 23 24  2  0
 24 25  1  0
 25 26  2  0
 26 27  1  0
 27 28  1  0
 28 29  2  0
 29 30  1  0
 30 31  2  0
 31 32  1  0
 32 33  2  0
 16  4  2  0
 33 20  1  0
 14  7  1  0
 19 15  1  0
 26 21  1  0
 33 28  1  0
  3 34  1  0
  3 35  1  0
  5 36  1  0
  8 37  1  0
  9 38  1  0
 14 39  1  0
 17 40  1  0
 17 41  1  0
 18 42  1  0
 18 43  1  0
 19 44  1  0
 19 45  1  0
 22 46  1  0
 23 47  1  0
 24 48  1  0
 25 49  1  0
 29 50  1  0
 30 51  1  0
 31 52  1  0
 32 53  1  0
M  CHG  1   4   1
M  END
$$$$
