
     RDKit          3D

 49 53  0  0  0  0  0  0  0  0999 V2000
    6.5742   -1.3270    0.5622 C   0  0  0  0  0  0  0  0  0  0  0  0
    5.3248   -0.6558    0.0887 C   0  0  0  0  0  0  0  0  0  0  0  0
    5.4198    0.4598   -1.1967 S   0  0  0  0  0  0  0  0  0  0  0  0
    3.7526    0.7698   -1.1458 C   0  0  0  0  0  0  0  0  0  0  0  0
    3.2198    1.6616   -1.9961 N   0  0  0  0  0  0  0  0  0  0  0  0
    1.9035    1.7903   -1.8490 C   0  0  0  0  0  0  0  0  0  0  0  0
    1.1230    1.1462   -0.9764 N   0  0  0  0  0  0  0  0  0  0  0  0
    1.6967    0.2679   -0.1335 C   0  0  0  0  0  0  0  0  0  0  0  0
    0.6381   -0.5929    0.9898 S   0  0  0  0  0  0  0  0  0  0  0  0
   -0.3381    0.7863    1.7189 C   0  0  0  0  0  0  0  0  0  0  0  0
    0.5680    1.8459    2.3451 C   0  0  0  0  0  0  0  0  0  0  0  0
   -1.3466    1.3970    0.7160 C   0  0  0  0  0  0  0  0  0  0  0  0
   -1.4035    2.6174    0.5408 O   0  0  0  0  0  0  0  0  0  0  0  0
   -2.2055    0.4743    0.0908 N   0  0  0  0  0  0  0  0  0  0  0  0
   -2.3813    0.4693   -1.3440 C   0  0  0  0  0  0  0  0  0  0  0  0
   -1.9664    1.5635   -2.1301 C   0  0  0  0  0  0  0  0  0  0  0  0
   -2.1238    1.5825   -3.5210 C   0  0  0  0  0  0  0  0  0  0  0  0
   -2.6891    0.4960   -4.1697 C   0  0  0  0  0  0  0  0  0  0  0  0
   -3.0832   -0.6107   -3.4256 C   0  0  0  0  0  0  0  0  0  0  0  0
   -2.9287   -0.6329   -2.0278 C   0  0  0  0  0  0  0  0  0  0  0  0
   -3.3531   -2.1556   -1.2145 S   0  0  0  0  0  0  0  0  0  0  0  0
   -3.6631   -1.5330    0.4108 C   0  0  0  0  0  0  0  0  0  0  0  0
   -4.5038   -2.2982    1.2379 C   0  0  0  0  0  0  0  0  0  0  0  0
   -4.8122   -1.8785    2.5287 C   0  0  0  0  0  0  0  0  0  0  0  0
   -4.2883   -0.6840    2.9996 C   0  0  0  0  0  0  0  0  0  0  0  0
   -3.4414    0.0736    2.1858 C   0  0  0  0  0  0  0  0  0  0  0  0
   -3.0843   -0.3474    0.8871 C   0  0  0  0  0  0  0  0  0  0  0  0
    3.0844    0.0305   -0.1778 C   0  0  0  0  0  0  0  0  0  0  0  0
    4.0274   -0.8028    0.5668 C   0  0  0  0  0  0  0  0  0  0  0  0
    3.6635   -1.7072    1.7057 C   0  0  0  0  0  0  0  0  0  0  0  0
    6.4419   -2.4143    0.5737 H   0  0  0  0  0  0  0  0  0  0  0  0
    7.4373   -1.1061   -0.0738 H   0  0  0  0  0  0  0  0  0  0  0  0
    6.8140   -0.9985    1.5790 H   0  0  0  0  0  0  0  0  0  0  0  0
    1.4093    2.4985   -2.5050 H   0  0  0  0  0  0  0  0  0  0  0  0
   -0.8946    0.3374    2.5455 H   0  0  0  0  0  0  0  0  0  0  0  0
    1.2854    1.4013    3.0434 H   0  0  0  0  0  0  0  0  0  0  0  0
   -0.0328    2.5656    2.9105 H   0  0  0  0  0  0  0  0  0  0  0  0
    1.1204    2.4206    1.5956 H   0  0  0  0  0  0  0  0  0  0  0  0
   -1.5217    2.4481   -1.6840 H   0  0  0  0  0  0  0  0  0  0  0  0
   -1.8038    2.4522   -4.0885 H   0  0  0  0  0  0  0  0  0  0  0  0
   -2.8118    0.5028   -5.2493 H   0  0  0  0  0  0  0  0  0  0  0  0
   -3.5017   -1.4697   -3.9463 H   0  0  0  0  0  0  0  0  0  0  0  0
   -4.9302   -3.2305    0.8738 H   0  0  0  0  0  0  0  0  0  0  0  0
   -5.4701   -2.4763    3.1541 H   0  0  0  0  0  0  0  0  0  0  0  0
   -4.5445   -0.3308    3.9961 H   0  0  0  0  0  0  0  0  0  0  0  0
   -3.0995    1.0280    2.5817 H   0  0  0  0  0  0  0  0  0  0  0  0
    3.1672   -1.1443    2.5013 H   0  0  0  0  0  0  0  0  0  0  0  0
    3.0084   -2.5108    1.3581 H   0  0  0  0  0  0  0  0  0  0  0  0
    4.5436   -2.1794    2.1521 H   0  0  0  0  0  0  0  0  0  0  0  0
  1  2  1  0
  2  3  1  0
  3  4  1  0
  4  5  2  0
  5  6  1  0
  6  7  2  0
  7  8  1  0
  8  9  1  0
  9 10  1  0
 10 11  1  0
 10 12  1  0
 12 13  2  0
 12 14  1  0
 14 15  1  0
 15 16  2  0
 16 17  1  0
 17 18  2  0
 18 19  1  0
 19 20  2  0
 20 21  1  0
 21 22  1  0
 22 23  2  0
 23 24  1  0
 24 25  2  0
 25 26  1  0
 26 27  2  0
  8 28  2  0
 28 29  1  0
 29 30  1  0
 29  2  2  0
 28  4  1  0
 27 14  1  0
 20 15  1  0
 27 22  1  0
  1 31  1  0
  1 32  1  0
  1 33  1  0
  6 34  1  0
 10 35  1  0
 11 36  1  0
 11 37  1  0
 11 38  1  0
 16 39  1  0
 17 40  1  0
 18 41  1  0
 19 42  1  0
 23 43  1  0
 24 44  1  0
 25 45  1  0
 26 46  1  0
 30 47  1  0
 30 48  1  0
 30 49  1  0
M  END
$$$$
