
     RDKit          3D

 46 48  0  0  0  0  0  0  0  0999 V2000
   -2.7119   -2.7126   -0.1826 C   0  0  0  0  0  0  0  0  0  0  0  0
   -2.8525   -1.9336   -1.2651 C   0  0  0  0  0  0  0  0  0  0  0  0
   -2.6079   -0.4523   -1.3869 C   0  0  0  0  0  0  0  0  0  0  0  0
   -2.3216    0.2363   -0.1417 N   0  0  0  0  0  0  0  0  0  0  0  0
   -1.0906    0.5596    0.3668 C   0  0  0  0  0  0  0  0  0  0  0  0
    0.4075    0.2498   -0.4368 S   0  0  0  0  0  0  0  0  0  0  0  0
    1.5741    0.9866    0.7489 C   0  0  0  0  0  0  0  0  0  0  0  0
    2.9969    0.8674    0.2572 C   0  0  0  0  0  0  0  0  0  0  0  0
    3.5599    1.8723   -0.5424 C   0  0  0  0  0  0  0  0  0  0  0  0
    4.8709    1.7537   -1.0113 C   0  0  0  0  0  0  0  0  0  0  0  0
    5.6388    0.6267   -0.6918 C   0  0  0  0  0  0  0  0  0  0  0  0
    7.0286    0.5510   -1.2194 C   0  0  0  0  0  0  0  0  0  0  0  0
    7.5167    1.3926   -1.9574 O   0  0  0  0  0  0  0  0  0  0  0  0
    7.6557   -0.5618   -0.7625 O   0  0  0  0  0  0  0  0  0  0  0  0
    9.0011   -0.6982   -1.2223 C   0  0  0  0  0  0  0  0  0  0  0  0
    5.0782   -0.3832    0.1003 C   0  0  0  0  0  0  0  0  0  0  0  0
    3.7660   -0.2634    0.5685 C   0  0  0  0  0  0  0  0  0  0  0  0
   -1.2261    1.1083    1.5504 N   0  0  0  0  0  0  0  0  0  0  0  0
   -2.5667    1.1519    1.8378 N   0  0  0  0  0  0  0  0  0  0  0  0
   -3.2273    0.6542    0.8101 C   0  0  0  0  0  0  0  0  0  0  0  0
   -4.6502    0.5163    0.7887 C   0  0  0  0  0  0  0  0  0  0  0  0
   -5.6377    1.2001   -0.4333 S   0  0  0  0  0  0  0  0  0  0  0  0
   -7.0335    0.6004    0.3574 C   0  0  0  0  0  0  0  0  0  0  0  0
   -8.2632    0.7942   -0.1449 N   0  0  0  0  0  0  0  0  0  0  0  0
   -6.8125   -0.0664    1.4603 N   0  0  0  0  0  0  0  0  0  0  0  0
   -5.4531   -0.0935    1.7407 C   0  0  0  0  0  0  0  0  0  0  0  0
   -5.0060   -0.7637    2.9916 C   0  0  0  0  0  0  0  0  0  0  0  0
   -2.3804   -2.3354    0.7803 H   0  0  0  0  0  0  0  0  0  0  0  0
   -2.9252   -3.7767   -0.2397 H   0  0  0  0  0  0  0  0  0  0  0  0
   -3.1819   -2.4120   -2.1871 H   0  0  0  0  0  0  0  0  0  0  0  0
   -1.7841   -0.2784   -2.0861 H   0  0  0  0  0  0  0  0  0  0  0  0
   -3.4794    0.0247   -1.8418 H   0  0  0  0  0  0  0  0  0  0  0  0
    1.4790    0.4893    1.7212 H   0  0  0  0  0  0  0  0  0  0  0  0
    1.3272    2.0440    0.9019 H   0  0  0  0  0  0  0  0  0  0  0  0
    2.9801    2.7547   -0.8070 H   0  0  0  0  0  0  0  0  0  0  0  0
    5.2901    2.5453   -1.6300 H   0  0  0  0  0  0  0  0  0  0  0  0
    9.0229   -0.8106   -2.3110 H   0  0  0  0  0  0  0  0  0  0  0  0
    9.6050    0.1594   -0.9085 H   0  0  0  0  0  0  0  0  0  0  0  0
    9.4228   -1.6011   -0.7718 H   0  0  0  0  0  0  0  0  0  0  0  0
    5.6486   -1.2717    0.3596 H   0  0  0  0  0  0  0  0  0  0  0  0
    3.3454   -1.0618    1.1774 H   0  0  0  0  0  0  0  0  0  0  0  0
   -8.9802    0.1839    0.2314 H   0  0  0  0  0  0  0  0  0  0  0  0
   -8.3472    0.9671   -1.1383 H   0  0  0  0  0  0  0  0  0  0  0  0
   -4.5804   -0.0325    3.6859 H   0  0  0  0  0  0  0  0  0  0  0  0
   -4.2500   -1.5248    2.7753 H   0  0  0  0  0  0  0  0  0  0  0  0
   -5.8461   -1.2563    3.4915 H   0  0  0  0  0  0  0  0  0  0  0  0
  1  2  2  0
  2  3  1  0
  3  4  1  0
  4  5  1  0
  5  6  1  0
  6  7  1  0
  7  8  1  0
  8  9  2  0
  9 10  1  0
 10 11  2  0
 11 12  1  0
 12 13  2  0
 12 14  1  0
 14 15  1  0
 11 16  1  0
 16 17  2  0
  5 18  2  0
 18 19  1  0
 19 20  2  0
 20 21  1  0
 21 22  1  0
 22 23  1  0
 23 24  1  0
 23 25  2  0
 25 26  1  0
 26 27  1  0
 20  4  1  0
 26 21  2  0
 17  8  1  0
  1 28  1  0
  1 29  1  0
  2 30  1  0
  3 31  1  0
  3 32  1  0
  7 33  1  0
  7 34  1  0
  9 35  1  0
 10 36  1  0
 15 37  1  0
 15 38  1  0
 15 39  1  0
 16 40  1  0
 17 41  1  0
 24 42  1  0
 24 43  1  0
 27 44  1  0
 27 45  1  0
 27 46  1  0
M  END
$$$$
