
     RDKit          3D

 49 50  0  0  0  0  0  0  0  0999 V2000
    6.8000   -0.8972   -0.5583 C   0  0  0  0  0  0  0  0  0  0  0  0
    5.7505   -1.4714    0.3740 C   0  0  0  0  0  0  0  0  0  0  0  0
    4.4667   -1.3082   -0.2395 O   0  0  0  0  0  0  0  0  0  0  0  0
    3.4125   -1.5966    0.5799 C   0  0  0  0  0  0  0  0  0  0  0  0
    3.5456   -2.0279    1.7247 O   0  0  0  0  0  0  0  0  0  0  0  0
    2.1082   -1.3035   -0.0327 C   0  0  0  0  0  0  0  0  0  0  0  0
    1.8213   -0.5286   -1.2062 C   0  0  0  0  0  0  0  0  0  0  0  0
    2.8192    0.1568   -2.0786 C   0  0  0  0  0  0  0  0  0  0  0  0
    0.4431   -0.5203   -1.3720 C   0  0  0  0  0  0  0  0  0  0  0  0
   -0.3678    0.1263   -2.4432 C   0  0  0  0  0  0  0  0  0  0  0  0
   -0.1250   -1.1996   -0.3105 N   0  0  0  0  0  0  0  0  0  0  0  0
   -1.5729   -1.3304   -0.0855 C   0  0  0  0  0  0  0  0  0  0  0  0
   -2.1652   -0.1214    0.6079 C   0  0  0  0  0  0  0  0  0  0  0  0
   -1.7983    0.1682    1.9314 C   0  0  0  0  0  0  0  0  0  0  0  0
   -2.3264    1.2734    2.5987 C   0  0  0  0  0  0  0  0  0  0  0  0
   -3.2148    2.1230    1.9396 C   0  0  0  0  0  0  0  0  0  0  0  0
   -3.5834    1.8768    0.6118 C   0  0  0  0  0  0  0  0  0  0  0  0
   -4.3922    2.7219   -0.0993 O   0  0  0  0  0  0  0  0  0  0  0  0
   -4.4867    4.0623    0.3598 C   0  0  0  0  0  0  0  0  0  0  0  0
   -3.0996    0.7182   -0.0355 C   0  0  0  0  0  0  0  0  0  0  0  0
   -3.4243    0.3674   -1.3275 O   0  0  0  0  0  0  0  0  0  0  0  0
   -4.8102    0.4686   -1.6560 C   0  0  0  0  0  0  0  0  0  0  0  0
    0.8812   -1.7394    0.4711 C   0  0  0  0  0  0  0  0  0  0  0  0
    0.6537   -2.6121    1.6629 C   0  0  0  0  0  0  0  0  0  0  0  0
    6.8256   -1.4408   -1.5148 H   0  0  0  0  0  0  0  0  0  0  0  0
    7.7913   -0.9485   -0.0976 H   0  0  0  0  0  0  0  0  0  0  0  0
    6.5759    0.1489   -0.8052 H   0  0  0  0  0  0  0  0  0  0  0  0
    5.9371   -2.5408    0.5552 H   0  0  0  0  0  0  0  0  0  0  0  0
    5.7832   -0.9275    1.3257 H   0  0  0  0  0  0  0  0  0  0  0  0
    3.5497    0.7134   -1.4744 H   0  0  0  0  0  0  0  0  0  0  0  0
    3.3564   -0.5799   -2.6916 H   0  0  0  0  0  0  0  0  0  0  0  0
    2.3455    0.8849   -2.7459 H   0  0  0  0  0  0  0  0  0  0  0  0
   -1.1631   -0.5375   -2.8021 H   0  0  0  0  0  0  0  0  0  0  0  0
    0.2503    0.3692   -3.3137 H   0  0  0  0  0  0  0  0  0  0  0  0
   -0.8103    1.0565   -2.0742 H   0  0  0  0  0  0  0  0  0  0  0  0
   -1.7684   -2.2256    0.5090 H   0  0  0  0  0  0  0  0  0  0  0  0
   -2.0341   -1.5360   -1.0547 H   0  0  0  0  0  0  0  0  0  0  0  0
   -1.0888   -0.4647    2.4563 H   0  0  0  0  0  0  0  0  0  0  0  0
   -2.0280    1.4865    3.6262 H   0  0  0  0  0  0  0  0  0  0  0  0
   -3.5989    2.9760    2.4917 H   0  0  0  0  0  0  0  0  0  0  0  0
   -5.1499    4.1234    1.2296 H   0  0  0  0  0  0  0  0  0  0  0  0
   -3.4989    4.4906    0.5857 H   0  0  0  0  0  0  0  0  0  0  0  0
   -4.9297    4.6593   -0.4425 H   0  0  0  0  0  0  0  0  0  0  0  0
   -5.0176    1.4465   -2.1161 H   0  0  0  0  0  0  0  0  0  0  0  0
   -5.0265   -0.2951   -2.4112 H   0  0  0  0  0  0  0  0  0  0  0  0
   -5.4669    0.2797   -0.7954 H   0  0  0  0  0  0  0  0  0  0  0  0
    0.9015   -2.0640    2.5793 H   0  0  0  0  0  0  0  0  0  0  0  0
   -0.3712   -2.9833    1.7575 H   0  0  0  0  0  0  0  0  0  0  0  0
    1.3004   -3.4976    1.6029 H   0  0  0  0  0  0  0  0  0  0  0  0
  1  2  1  0
  2  3  1  0
  3  4  1  0
  4  5  2  0
  4  6  1  0
  6  7  1  0
  7  8  1  0
  7  9  2  0
  9 10  1  0
  9 11  1  0
 11 12  1  0
 12 13  1  0
 13 14  2  0
 14 15  1  0
 15 16  2  0
 16 17  1  0
 17 18  1  0
 18 19  1  0
 17 20  2  0
 20 21  1  0
 21 22  1  0
 11 23  1  0
 23 24  1  0
 23  6  2  0
 20 13  1  0
  1 25  1  0
  1 26  1  0
  1 27  1  0
  2 28  1  0
  2 29  1  0
  8 30  1  0
  8 31  1  0
  8 32  1  0
 10 33  1  0
 10 34  1  0
 10 35  1  0
 12 36  1  0
 12 37  1  0
 14 38  1  0
 15 39  1  0
 16 40  1  0
 19 41  1  0
 19 42  1  0
 19 43  1  0
 22 44  1  0
 22 45  1  0
 22 46  1  0
 24 47  1  0
 24 48  1  0
 24 49  1  0
M  END
$$$$
