
     RDKit          3D

 52 54  0  0  0  0  0  0  0  0999 V2000
   -5.0313   -1.8859    0.9893 C   0  0  0  0  0  0  0  0  0  0  0  0
   -3.9494   -1.4709    0.1059 N   0  0  0  0  0  0  0  0  0  0  0  0
   -4.0909   -1.8194   -1.3092 C   0  0  0  0  0  0  0  0  0  0  0  0
   -5.2189   -1.0935   -2.0077 C   0  0  0  0  0  0  0  0  0  0  0  0
   -5.3958    0.2923   -1.8757 C   0  0  0  0  0  0  0  0  0  0  0  0
   -6.4253    0.9465   -2.5553 C   0  0  0  0  0  0  0  0  0  0  0  0
   -7.2837    0.2269   -3.3830 C   0  0  0  0  0  0  0  0  0  0  0  0
   -7.1134   -1.1472   -3.5332 C   0  0  0  0  0  0  0  0  0  0  0  0
   -6.0855   -1.8033   -2.8532 C   0  0  0  0  0  0  0  0  0  0  0  0
   -2.9441   -0.6622    0.6264 C   0  0  0  0  0  0  0  0  0  0  0  0
   -2.9573   -0.2712    1.7972 O   0  0  0  0  0  0  0  0  0  0  0  0
   -1.7998   -0.2498   -0.3126 C   0  0  0  0  0  0  0  0  0  0  0  0
   -0.7859    0.4943    0.3691 O   0  0  0  0  0  0  0  0  0  0  0  0
    0.0323   -0.2699    1.1478 C   0  0  0  0  0  0  0  0  0  0  0  0
    0.0288   -1.4958    1.1797 O   0  0  0  0  0  0  0  0  0  0  0  0
    0.9363    0.6149    1.9832 C   0  0  0  0  0  0  0  0  0  0  0  0
    2.0101   -0.1919    2.5768 N   0  0  0  0  0  0  0  0  0  0  0  0
    3.2404    0.5813    3.3908 S   0  0  0  0  0  6  0  0  0  0  0  0
    3.9258   -0.4254    4.1685 O   0  0  0  0  0  0  0  0  0  0  0  0
    2.6917    1.7761    3.9920 O   0  0  0  0  0  0  0  0  0  0  0  0
    4.3162    1.0511    2.0623 C   0  0  0  0  0  0  0  0  0  0  0  0
    4.5112    2.3991    1.7630 C   0  0  0  0  0  0  0  0  0  0  0  0
    5.3569    2.7502    0.7096 C   0  0  0  0  0  0  0  0  0  0  0  0
    6.0122    1.7631   -0.0462 C   0  0  0  0  0  0  0  0  0  0  0  0
    6.8636    2.1038   -1.1090 C   0  0  0  0  0  0  0  0  0  0  0  0
    7.5104    1.1138   -1.8507 C   0  0  0  0  0  0  0  0  0  0  0  0
    7.3157   -0.2286   -1.5393 C   0  0  0  0  0  0  0  0  0  0  0  0
    6.4734   -0.5858   -0.4854 C   0  0  0  0  0  0  0  0  0  0  0  0
    5.8144    0.3969    0.2697 C   0  0  0  0  0  0  0  0  0  0  0  0
    4.9650    0.0515    1.3306 C   0  0  0  0  0  0  0  0  0  0  0  0
   -5.2777   -2.9331    0.7904 H   0  0  0  0  0  0  0  0  0  0  0  0
   -4.7532   -1.7911    2.0426 H   0  0  0  0  0  0  0  0  0  0  0  0
   -5.9079   -1.2593    0.8017 H   0  0  0  0  0  0  0  0  0  0  0  0
   -3.1718   -1.6214   -1.8655 H   0  0  0  0  0  0  0  0  0  0  0  0
   -4.2506   -2.9039   -1.3501 H   0  0  0  0  0  0  0  0  0  0  0  0
   -4.7426    0.8768   -1.2326 H   0  0  0  0  0  0  0  0  0  0  0  0
   -6.5581    2.0190   -2.4369 H   0  0  0  0  0  0  0  0  0  0  0  0
   -8.0851    0.7373   -3.9109 H   0  0  0  0  0  0  0  0  0  0  0  0
   -7.7817   -1.7088   -4.1811 H   0  0  0  0  0  0  0  0  0  0  0  0
   -5.9690   -2.8766   -2.9888 H   0  0  0  0  0  0  0  0  0  0  0  0
   -1.3595   -1.1266   -0.7997 H   0  0  0  0  0  0  0  0  0  0  0  0
   -2.2085    0.4091   -1.0850 H   0  0  0  0  0  0  0  0  0  0  0  0
    0.3258    1.0614    2.7735 H   0  0  0  0  0  0  0  0  0  0  0  0
    1.3650    1.3881    1.3390 H   0  0  0  0  0  0  0  0  0  0  0  0
    1.7652   -1.1192    2.9293 H   0  0  0  0  0  0  0  0  0  0  0  0
    4.0172    3.1779    2.3394 H   0  0  0  0  0  0  0  0  0  0  0  0
    5.5053    3.8042    0.4827 H   0  0  0  0  0  0  0  0  0  0  0  0
    7.0319    3.1470   -1.3673 H   0  0  0  0  0  0  0  0  0  0  0  0
    8.1683    1.3923   -2.6700 H   0  0  0  0  0  0  0  0  0  0  0  0
    7.8211   -0.9997   -2.1151 H   0  0  0  0  0  0  0  0  0  0  0  0
    6.3368   -1.6406   -0.2566 H   0  0  0  0  0  0  0  0  0  0  0  0
    4.8060   -0.9935    1.5904 H   0  0  0  0  0  0  0  0  0  0  0  0
  1  2  1  0
  2  3  1  0
  3  4  1  0
  4  5  2  0
  5  6  1  0
  6  7  2  0
  7  8  1  0
  8  9  2  0
  2 10  1  0
 10 11  2  0
 10 12  1  0
 12 13  1  0
 13 14  1  0
 14 15  2  0
 14 16  1  0
 16 17  1  0
 17 18  1  0
 18 19  2  0
 18 20  2  0
 18 21  1  0
 21 22  2  0
 22 23  1  0
 23 24  2  0
 24 25  1  0
 25 26  2  0
 26 27  1  0
 27 28  2  0
 28 29  1  0
 29 30  2  0
  9  4  1  0
 30 21  1  0
 29 24  1  0
  1 31  1  0
  1 32  1  0
  1 33  1  0
  3 34  1  0
  3 35  1  0
  5 36  1  0
  6 37  1  0
  7 38  1  0
  8 39  1  0
  9 40  1  0
 12 41  1  0
 12 42  1  0
 16 43  1  0
 16 44  1  0
 17 45  1  0
 22 46  1  0
 23 47  1  0
 25 48  1  0
 26 49  1  0
 27 50  1  0
 28 51  1  0
 30 52  1  0
M  END
$$$$
