
     RDKit          3D

 51 55  0  0  0  0  0  0  0  0999 V2000
    4.3770    0.4918    2.4489 F   0  0  0  0  0  0  0  0  0  0  0  0
    4.9759   -0.3256    1.5706 C   0  0  0  0  0  0  0  0  0  0  0  0
    6.2349   -0.8335    1.8758 C   0  0  0  0  0  0  0  0  0  0  0  0
    6.8748   -1.6776    0.9706 C   0  0  0  0  0  0  0  0  0  0  0  0
    6.2509   -2.0055   -0.2338 C   0  0  0  0  0  0  0  0  0  0  0  0
    4.9864   -1.4921   -0.5349 C   0  0  0  0  0  0  0  0  0  0  0  0
    4.3323   -0.6472    0.3716 C   0  0  0  0  0  0  0  0  0  0  0  0
    2.9735   -0.0704    0.0559 C   0  0  0  0  0  0  0  0  0  0  0  0
    3.0835    1.3494   -0.5180 C   0  0  0  0  0  0  0  0  0  0  0  0
    1.8504    2.0664   -0.8508 N   0  0  0  0  0  0  0  0  0  0  0  0
    1.0222    1.4688   -1.9072 C   0  0  0  0  0  0  0  0  0  0  0  0
   -0.0948    0.5075   -1.4480 C   0  0  0  0  0  0  0  0  0  0  0  0
   -0.9099    1.1105   -0.3777 N   0  0  0  0  0  0  0  0  0  0  0  0
   -2.1290    0.5013   -0.0861 C   0  0  0  0  0  0  0  0  0  0  0  0
   -2.2972   -0.0705    1.0795 N   0  0  0  0  0  0  0  0  0  0  0  0
   -3.5088   -0.7202    1.3895 C   0  0  0  0  0  0  0  0  0  0  0  0
   -3.6343   -1.3265    2.6409 C   0  0  0  0  0  0  0  0  0  0  0  0
   -4.8105   -1.9924    2.9966 C   0  0  0  0  0  0  0  0  0  0  0  0
   -5.8769   -2.0584    2.0991 C   0  0  0  0  0  0  0  0  0  0  0  0
   -5.7744   -1.4596    0.8429 C   0  0  0  0  0  0  0  0  0  0  0  0
   -4.5915   -0.7976    0.5011 C   0  0  0  0  0  0  0  0  0  0  0  0
   -4.4077   -0.1589   -0.7358 N   0  0  0  0  0  0  0  0  0  0  0  0
   -5.2724   -0.0366   -1.7978 C   0  0  0  0  0  0  0  0  0  0  0  0
   -4.6608    0.7330   -2.7644 C   0  0  0  0  0  0  0  0  0  0  0  0
   -3.3786    1.0770   -2.2770 C   0  0  0  0  0  0  0  0  0  0  0  0
   -3.2299    0.4871   -1.0347 C   0  0  0  0  0  0  0  0  0  0  0  0
   -0.0753    1.5397    0.7618 C   0  0  0  0  0  0  0  0  0  0  0  0
    1.0411    2.4995    0.2997 C   0  0  0  0  0  0  0  0  0  0  0  0
    6.7077   -0.5663    2.8153 H   0  0  0  0  0  0  0  0  0  0  0  0
    7.8585   -2.0784    1.2015 H   0  0  0  0  0  0  0  0  0  0  0  0
    6.7513   -2.6626   -0.9416 H   0  0  0  0  0  0  0  0  0  0  0  0
    4.5175   -1.7564   -1.4802 H   0  0  0  0  0  0  0  0  0  0  0  0
    2.4690   -0.7334   -0.6547 H   0  0  0  0  0  0  0  0  0  0  0  0
    2.3753   -0.0792    0.9721 H   0  0  0  0  0  0  0  0  0  0  0  0
    3.7008    1.3107   -1.4263 H   0  0  0  0  0  0  0  0  0  0  0  0
    3.6638    1.9758    0.1731 H   0  0  0  0  0  0  0  0  0  0  0  0
    0.5398    2.3015   -2.4367 H   0  0  0  0  0  0  0  0  0  0  0  0
    1.6493    0.9725   -2.6579 H   0  0  0  0  0  0  0  0  0  0  0  0
    0.3284   -0.4363   -1.0884 H   0  0  0  0  0  0  0  0  0  0  0  0
   -0.7091    0.2611   -2.3200 H   0  0  0  0  0  0  0  0  0  0  0  0
   -2.8051   -1.2778    3.3417 H   0  0  0  0  0  0  0  0  0  0  0  0
   -4.8919   -2.4587    3.9751 H   0  0  0  0  0  0  0  0  0  0  0  0
   -6.7903   -2.5768    2.3811 H   0  0  0  0  0  0  0  0  0  0  0  0
   -6.6174   -1.5214    0.1631 H   0  0  0  0  0  0  0  0  0  0  0  0
   -6.2555   -0.4839   -1.7866 H   0  0  0  0  0  0  0  0  0  0  0  0
   -5.0971    1.0233   -3.7115 H   0  0  0  0  0  0  0  0  0  0  0  0
   -2.6409    1.6926   -2.7747 H   0  0  0  0  0  0  0  0  0  0  0  0
    0.3494    0.6649    1.2648 H   0  0  0  0  0  0  0  0  0  0  0  0
   -0.6958    2.0710    1.4942 H   0  0  0  0  0  0  0  0  0  0  0  0
    0.5605    3.4423    0.0048 H   0  0  0  0  0  0  0  0  0  0  0  0
    1.6809    2.7564    1.1528 H   0  0  0  0  0  0  0  0  0  0  0  0
  1  2  1  0
  2  3  2  0
  3  4  1  0
  4  5  2  0
  5  6  1  0
  6  7  2  0
  7  8  1  0
  8  9  1  0
  9 10  1  0
 10 11  1  0
 11 12  1  0
 12 13  1  0
 13 14  1  0
 14 15  2  0
 15 16  1  0
 16 17  2  0
 17 18  1  0
 18 19  2  0
 19 20  1  0
 20 21  2  0
 21 22  1  0
 22 23  1  0
 23 24  2  0
 24 25  1  0
 25 26  2  0
 13 27  1  0
 27 28  1  0
  7  2  1  0
 28 10  1  0
 26 14  1  0
 21 16  1  0
 26 22  1  0
  3 29  1  0
  4 30  1  0
  5 31  1  0
  6 32  1  0
  8 33  1  0
  8 34  1  0
  9 35  1  0
  9 36  1  0
 11 37  1  0
 11 38  1  0
 12 39  1  0
 12 40  1  0
 17 41  1  0
 18 42  1  0
 19 43  1  0
 20 44  1  0
 23 45  1  0
 24 46  1  0
 25 47  1  0
 27 48  1  0
 27 49  1  0
 28 50  1  0
 28 51  1  0
M  END
$$$$
