
     RDKit          3D

 54 57  0  0  0  0  0  0  0  0999 V2000
    7.7168    0.1461    2.0030 C   0  0  0  0  0  0  0  0  0  0  0  0
    6.4179   -0.5532    2.4098 C   0  0  0  0  0  0  0  0  0  0  0  0
    5.9038   -0.0111    3.7499 C   0  0  0  0  0  0  0  0  0  0  0  0
    5.4013   -0.4697    1.2840 C   0  0  0  0  0  0  0  0  0  0  0  0
    4.5599    0.6360    1.1100 C   0  0  0  0  0  0  0  0  0  0  0  0
    3.6469    0.6798    0.0511 C   0  0  0  0  0  0  0  0  0  0  0  0
    3.5652   -0.3712   -0.8696 C   0  0  0  0  0  0  0  0  0  0  0  0
    2.6241   -0.2400   -1.9084 N   0  0  0  0  0  0  0  0  0  0  0  0
    2.3688   -1.1226   -2.9423 C   0  0  0  0  0  0  0  0  0  0  0  0
    2.9201   -2.2031   -3.1350 O   0  0  0  0  0  0  0  0  0  0  0  0
    1.2855   -0.6147   -3.9030 C   0  0  0  0  0  0  0  0  0  0  0  0
   -0.0460   -0.7468   -3.4017 O   0  0  0  0  0  0  0  0  0  0  0  0
   -0.4325    0.2017   -2.5194 C   0  0  0  0  0  0  0  0  0  0  0  0
    0.2634    1.1247   -2.1227 O   0  0  0  0  0  0  0  0  0  0  0  0
   -1.8283   -0.0347   -2.0654 C   0  0  0  0  0  0  0  0  0  0  0  0
   -2.6342   -1.0421   -2.6083 C   0  0  0  0  0  0  0  0  0  0  0  0
   -3.9454   -1.2198   -2.1485 C   0  0  0  0  0  0  0  0  0  0  0  0
   -4.4756   -0.3997   -1.1385 C   0  0  0  0  0  0  0  0  0  0  0  0
   -3.6659    0.5960   -0.6118 C   0  0  0  0  0  0  0  0  0  0  0  0
   -2.3503    0.7891   -1.0620 C   0  0  0  0  0  0  0  0  0  0  0  0
   -4.2691    1.6605    0.6377 S   0  0  0  0  0  6  0  0  0  0  0  0
   -3.4234    1.4439    1.7942 O   0  0  0  0  0  0  0  0  0  0  0  0
   -4.4099    2.9639    0.0214 O   0  0  0  0  0  0  0  0  0  0  0  0
   -5.8758    1.1451    1.0922 C   0  0  0  0  0  0  0  0  0  0  0  0
   -6.5100    1.8150    2.1476 C   0  0  0  0  0  0  0  0  0  0  0  0
   -7.7924    1.4340    2.5352 C   0  0  0  0  0  0  0  0  0  0  0  0
   -8.4340    0.3914    1.8705 C   0  0  0  0  0  0  0  0  0  0  0  0
   -7.7912   -0.2706    0.8206 C   0  0  0  0  0  0  0  0  0  0  0  0
   -6.4968    0.1007    0.4209 C   0  0  0  0  0  0  0  0  0  0  0  0
   -5.8679   -0.6455   -0.6940 C   0  0  0  0  0  0  0  0  0  0  0  0
   -6.5221   -1.5111   -1.2699 O   0  0  0  0  0  0  0  0  0  0  0  0
    4.4101   -1.4678   -0.7119 C   0  0  0  0  0  0  0  0  0  0  0  0
    5.3179   -1.5160    0.3533 C   0  0  0  0  0  0  0  0  0  0  0  0
    8.4548    0.0919    2.8088 H   0  0  0  0  0  0  0  0  0  0  0  0
    8.1555   -0.3293    1.1166 H   0  0  0  0  0  0  0  0  0  0  0  0
    7.5528    1.2018    1.7631 H   0  0  0  0  0  0  0  0  0  0  0  0
    6.6450   -1.6148    2.5811 H   0  0  0  0  0  0  0  0  0  0  0  0
    4.9553   -0.4919    4.0307 H   0  0  0  0  0  0  0  0  0  0  0  0
    5.7431    1.0751    3.7294 H   0  0  0  0  0  0  0  0  0  0  0  0
    6.6285   -0.2172    4.5440 H   0  0  0  0  0  0  0  0  0  0  0  0
    4.6005    1.4820    1.7906 H   0  0  0  0  0  0  0  0  0  0  0  0
    3.0049    1.5531   -0.0440 H   0  0  0  0  0  0  0  0  0  0  0  0
    2.0357    0.5927   -1.8740 H   0  0  0  0  0  0  0  0  0  0  0  0
    1.4969    0.4198   -4.1974 H   0  0  0  0  0  0  0  0  0  0  0  0
    1.3451   -1.2121   -4.8188 H   0  0  0  0  0  0  0  0  0  0  0  0
   -2.2614   -1.6998   -3.3922 H   0  0  0  0  0  0  0  0  0  0  0  0
   -4.5521   -2.0106   -2.5911 H   0  0  0  0  0  0  0  0  0  0  0  0
   -1.7393    1.5807   -0.6277 H   0  0  0  0  0  0  0  0  0  0  0  0
   -6.0084    2.6310    2.6659 H   0  0  0  0  0  0  0  0  0  0  0  0
   -8.2922    1.9487    3.3530 H   0  0  0  0  0  0  0  0  0  0  0  0
   -9.4365    0.0904    2.1676 H   0  0  0  0  0  0  0  0  0  0  0  0
   -8.3122   -1.0841    0.3149 H   0  0  0  0  0  0  0  0  0  0  0  0
    4.3879   -2.3093   -1.3969 H   0  0  0  0  0  0  0  0  0  0  0  0
    5.9651   -2.3861    0.4460 H   0  0  0  0  0  0  0  0  0  0  0  0
  1  2  1  0
  2  3  1  0
  2  4  1  0
  4  5  2  0
  5  6  1  0
  6  7  2  0
  7  8  1  0
  8  9  1  0
  9 10  2  0
  9 11  1  0
 11 12  1  0
 12 13  1  0
 13 14  2  0
 13 15  1  0
 15 16  2  0
 16 17  1  0
 17 18  2  0
 18 19  1  0
 19 20  2  0
 19 21  1  0
 21 22  2  0
 21 23  2  0
 21 24  1  0
 24 25  2  0
 25 26  1  0
 26 27  2  0
 27 28  1  0
 28 29  2  0
 29 30  1  0
 30 31  2  0
  7 32  1  0
 32 33  2  0
 33  4  1  0
 20 15  1  0
 29 24  1  0
 30 18  1  0
  1 34  1  0
  1 35  1  0
  1 36  1  0
  2 37  1  0
  3 38  1  0
  3 39  1  0
  3 40  1  0
  5 41  1  0
  6 42  1  0
  8 43  1  0
 11 44  1  0
 11 45  1  0
 16 46  1  0
 17 47  1  0
 20 48  1  0
 25 49  1  0
 26 50  1  0
 27 51  1  0
 28 52  1  0
 32 53  1  0
 33 54  1  0
M  END
$$$$
