
     RDKit          3D

 36 38  0  0  0  0  0  0  0  0999 V2000
   -5.1699   -0.8011   -0.6816 C   0  0  0  0  0  0  0  0  0  0  0  0
   -4.0373    0.1197   -0.3248 C   0  0  0  0  0  0  0  0  0  0  0  0
   -4.2677    1.5027   -0.2111 C   0  0  0  0  0  0  0  0  0  0  0  0
   -3.2232    2.3792    0.0842 C   0  0  0  0  0  0  0  0  0  0  0  0
   -1.9505    1.8575    0.2545 C   0  0  0  0  0  0  0  0  0  0  0  0
   -1.6880    0.4767    0.1418 C   0  0  0  0  0  0  0  0  0  0  0  0
   -2.7370   -0.3892   -0.1613 C   0  0  0  0  0  0  0  0  0  0  0  0
   -0.3149    0.1156    0.3302 N   0  0  0  0  0  0  0  0  0  0  0  0
   -0.1653   -1.1257    1.0971 C   0  0  0  0  0  0  0  0  0  0  0  0
    0.4484    1.2694    0.5744 C   0  0  0  0  0  0  0  0  0  0  0  0
    1.7867    1.3942    0.6355 C   0  0  0  0  0  0  0  0  0  0  0  0
    2.7560    0.3285    0.3888 C   0  0  0  0  0  0  0  0  0  0  0  0
    3.5902   -0.0800    1.4377 C   0  0  0  0  0  0  0  0  0  0  0  0
    4.5088   -1.1024    1.2405 C   0  0  0  0  0  0  0  0  0  0  0  0
    4.5891   -1.7054   -0.0040 C   0  0  0  0  0  0  0  0  0  0  0  0
    3.7611   -1.2667   -1.0290 C   0  0  0  0  0  0  0  0  0  0  0  0
    2.8750   -0.2599   -0.8353 N   0  0  0  0  0  4  0  0  0  0  0  0
    2.0610    0.1789   -1.9910 C   0  0  0  0  0  0  0  0  0  0  0  0
   -0.4845    2.7868    0.6552 S   0  0  0  0  0  0  0  0  0  0  0  0
   -5.2484   -0.8922   -1.7692 H   0  0  0  0  0  0  0  0  0  0  0  0
   -6.1192   -0.4236   -0.2874 H   0  0  0  0  0  0  0  0  0  0  0  0
   -5.0133   -1.7963   -0.2524 H   0  0  0  0  0  0  0  0  0  0  0  0
   -5.2708    1.9029   -0.3524 H   0  0  0  0  0  0  0  0  0  0  0  0
   -3.4106    3.4445    0.1788 H   0  0  0  0  0  0  0  0  0  0  0  0
   -2.5681   -1.4535   -0.2885 H   0  0  0  0  0  0  0  0  0  0  0  0
    0.8844   -1.3538    1.2974 H   0  0  0  0  0  0  0  0  0  0  0  0
   -0.6752   -1.0583    2.0656 H   0  0  0  0  0  0  0  0  0  0  0  0
   -0.5578   -1.9845    0.5425 H   0  0  0  0  0  0  0  0  0  0  0  0
    2.2373    2.3651    0.8379 H   0  0  0  0  0  0  0  0  0  0  0  0
    3.5168    0.3906    2.4175 H   0  0  0  0  0  0  0  0  0  0  0  0
    5.1547   -1.4276    2.0551 H   0  0  0  0  0  0  0  0  0  0  0  0
    5.2995   -2.5113   -0.1781 H   0  0  0  0  0  0  0  0  0  0  0  0
    3.8054   -1.7166   -2.0176 H   0  0  0  0  0  0  0  0  0  0  0  0
    1.1055   -0.3471   -1.9500 H   0  0  0  0  0  0  0  0  0  0  0  0
    1.9368    1.2634   -1.9681 H   0  0  0  0  0  0  0  0  0  0  0  0
    2.5849   -0.0804   -2.9157 H   0  0  0  0  0  0  0  0  0  0  0  0
  1  2  1  0
  2  3  2  0
  3  4  1  0
  4  5  2  0
  5  6  1  0
  6  7  2  0
  6  8  1  0
  8  9  1  0
  8 10  1  0
 10 11  2  3
 11 12  1  0
 12 13  2  0
 13 14  1  0
 14 15  2  0
 15 16  1  0
 16 17  2  0
 17 18  1  0
 10 19  1  0
  7  2  1  0
 17 12  1  0
 19  5  1  0
  1 20  1  0
  1 21  1  0
  1 22  1  0
  3 23  1  0
  4 24  1  0
  7 25  1  0
  9 26  1  0
  9 27  1  0
  9 28  1  0
 11 29  1  0
 13 30  1  0
 14 31  1  0
 15 32  1  0
 16 33  1  0
 18 34  1  0
 18 35  1  0
 18 36  1  0
M  CHG  1  17   1
M  END
$$$$
