
     RDKit          3D

 41 43  0  0  0  0  0  0  0  0999 V2000
   -3.7199   -0.7308    3.2963 C   0  0  0  0  0  0  0  0  0  0  0  0
   -3.6193   -0.7674    1.8000 C   0  0  0  0  0  0  0  0  0  0  0  0
   -4.6327   -0.2276    1.0053 C   0  0  0  0  0  0  0  0  0  0  0  0
   -4.5535   -0.2923   -0.3886 C   0  0  0  0  0  0  0  0  0  0  0  0
   -3.4595   -0.8982   -1.0284 C   0  0  0  0  0  0  0  0  0  0  0  0
   -3.4496   -0.9481   -2.5302 C   0  0  0  0  0  0  0  0  0  0  0  0
   -2.4497   -1.4584   -0.2234 C   0  0  0  0  0  0  0  0  0  0  0  0
   -1.0266   -2.2808   -0.9203 S   0  0  0  0  0  6  0  0  0  0  0  0
   -1.4732   -3.0816   -2.0408 O   0  0  0  0  0  0  0  0  0  0  0  0
   -0.2571   -2.8847    0.1473 O   0  0  0  0  0  0  0  0  0  0  0  0
   -0.1309   -1.0012   -1.5781 N   0  0  0  0  0  0  0  0  0  0  0  0
    0.6619   -0.2229   -0.6900 C   0  0  0  0  0  0  0  0  0  0  0  0
    0.0895    0.8565   -0.0210 C   0  0  0  0  0  0  0  0  0  0  0  0
    0.8533    1.5928    0.8826 C   0  0  0  0  0  0  0  0  0  0  0  0
    2.1838    1.2464    1.1131 C   0  0  0  0  0  0  0  0  0  0  0  0
    2.8573    2.0307    2.0096 O   0  0  0  0  0  0  0  0  0  0  0  0
    2.7686    0.1527    0.4574 C   0  0  0  0  0  0  0  0  0  0  0  0
    4.4348   -0.4113    0.7695 S   0  0  0  0  0  0  0  0  0  0  0  0
    5.3804    0.9307    0.1951 C   0  0  0  0  0  0  0  0  0  0  0  0
    6.1167    0.9035   -0.9547 N   0  0  0  0  0  0  0  0  0  0  0  0
    6.6612    2.0970   -0.9846 C   0  0  0  0  0  0  0  0  0  0  0  0
    6.2657    2.8046    0.1062 N   0  0  0  0  0  0  0  0  0  0  0  0
    5.4413    2.0788    0.8827 N   0  0  0  0  0  0  0  0  0  0  0  0
    1.9880   -0.5850   -0.4441 C   0  0  0  0  0  0  0  0  0  0  0  0
   -2.5370   -1.3988    1.1784 C   0  0  0  0  0  0  0  0  0  0  0  0
   -2.7263   -0.6657    3.7521 H   0  0  0  0  0  0  0  0  0  0  0  0
   -4.2872    0.1449    3.6290 H   0  0  0  0  0  0  0  0  0  0  0  0
   -4.2190   -1.6342    3.6599 H   0  0  0  0  0  0  0  0  0  0  0  0
   -5.4979    0.2455    1.4657 H   0  0  0  0  0  0  0  0  0  0  0  0
   -5.3648    0.1352   -0.9758 H   0  0  0  0  0  0  0  0  0  0  0  0
   -2.4831   -0.6339   -2.9329 H   0  0  0  0  0  0  0  0  0  0  0  0
   -4.1958   -0.2661   -2.9534 H   0  0  0  0  0  0  0  0  0  0  0  0
   -3.6907   -1.9567   -2.8786 H   0  0  0  0  0  0  0  0  0  0  0  0
    0.2936   -1.2874   -2.4598 H   0  0  0  0  0  0  0  0  0  0  0  0
   -0.9441    1.1391   -0.2003 H   0  0  0  0  0  0  0  0  0  0  0  0
    0.4151    2.4376    1.4072 H   0  0  0  0  0  0  0  0  0  0  0  0
    3.8193    1.8958    1.8707 H   0  0  0  0  0  0  0  0  0  0  0  0
    7.3261    2.4887   -1.7412 H   0  0  0  0  0  0  0  0  0  0  0  0
    6.5080    3.7512    0.3789 H   0  0  0  0  0  0  0  0  0  0  0  0
    2.4084   -1.4566   -0.9402 H   0  0  0  0  0  0  0  0  0  0  0  0
   -1.7549   -1.8420    1.7939 H   0  0  0  0  0  0  0  0  0  0  0  0
  1  2  1  0
  2  3  2  0
  3  4  1  0
  4  5  2  0
  5  6  1  0
  5  7  1  0
  7  8  1  0
  8  9  2  0
  8 10  2  0
  8 11  1  0
 11 12  1  0
 12 13  2  0
 13 14  1  0
 14 15  2  0
 15 16  1  0
 15 17  1  0
 17 18  1  0
 18 19  1  0
 19 20  1  0
 20 21  2  0
 21 22  1  0
 22 23  1  0
 17 24  2  0
  7 25  2  0
 25  2  1  0
 24 12  1  0
 23 19  2  0
  1 26  1  0
  1 27  1  0
  1 28  1  0
  3 29  1  0
  4 30  1  0
  6 31  1  0
  6 32  1  0
  6 33  1  0
 11 34  1  0
 13 35  1  0
 14 36  1  0
 16 37  1  0
 21 38  1  0
 22 39  1  0
 24 40  1  0
 25 41  1  0
M  END
$$$$
