
     RDKit          3D

 49 52  0  0  0  0  0  0  0  0999 V2000
   -5.5540    0.0453    1.3746 C   0  0  0  0  0  0  0  0  0  0  0  0
   -4.2421   -0.4317    0.7939 C   0  0  0  0  0  0  0  0  0  0  0  0
   -3.8492   -1.6318    1.1191 N   0  0  0  0  0  0  0  0  0  0  0  0
   -2.5998   -2.0484    0.7392 N   0  0  0  0  0  0  0  0  0  0  0  0
   -1.4397   -1.4062    1.1701 C   0  0  0  0  0  0  0  0  0  0  0  0
   -1.4031   -0.3512    1.7969 O   0  0  0  0  0  0  0  0  0  0  0  0
   -0.2290   -2.1256    0.7899 C   0  0  0  0  0  0  0  0  0  0  0  0
   -0.2456   -3.4272    0.3720 N   0  0  0  0  0  0  0  0  0  0  0  0
    0.9909   -3.7824    0.0766 N   0  0  0  0  0  0  0  0  0  0  0  0
    1.8258   -2.7165    0.2726 N   0  0  0  0  0  0  0  0  0  0  0  0
    3.2126   -2.8070   -0.0117 C   0  0  0  0  0  0  0  0  0  0  0  0
    4.0238   -1.7610    0.1493 N   0  0  0  0  0  0  0  0  0  0  0  0
    5.2730   -2.2364   -0.2433 O   0  0  0  0  0  0  0  0  0  0  0  0
    5.2082   -3.5699   -0.6310 N   0  0  0  0  0  0  0  0  0  0  0  0
    3.9329   -3.9227   -0.4808 C   0  0  0  0  0  0  0  0  0  0  0  0
    3.4520   -5.1536   -0.7395 N   0  0  0  0  0  0  0  0  0  0  0  0
    1.0699   -1.6477    0.7431 C   0  0  0  0  0  0  0  0  0  0  0  0
    1.5921   -0.2898    1.0260 C   0  0  0  0  0  0  0  0  0  0  0  0
    1.6435    0.3564   -0.2410 O   0  0  0  0  0  0  0  0  0  0  0  0
    2.0459    1.6622   -0.2653 C   0  0  0  0  0  0  0  0  0  0  0  0
    2.4116    2.4328    0.8407 C   0  0  0  0  0  0  0  0  0  0  0  0
    2.8047    3.7638    0.6662 C   0  0  0  0  0  0  0  0  0  0  0  0
    2.8293    4.3160   -0.6081 C   0  0  0  0  0  0  0  0  0  0  0  0
    3.2063    5.5908   -0.7695 F   0  0  0  0  0  0  0  0  0  0  0  0
    2.4671    3.5634   -1.7153 C   0  0  0  0  0  0  0  0  0  0  0  0
    2.0760    2.2349   -1.5408 C   0  0  0  0  0  0  0  0  0  0  0  0
   -3.5482    0.5064   -0.1272 C   0  0  0  0  0  0  0  0  0  0  0  0
   -3.2349    1.7990    0.3038 C   0  0  0  0  0  0  0  0  0  0  0  0
   -2.5544    2.6674   -0.5522 C   0  0  0  0  0  0  0  0  0  0  0  0
   -2.1987    2.2422   -1.8322 C   0  0  0  0  0  0  0  0  0  0  0  0
   -1.3581    3.3129   -2.8853 Cl  0  0  0  0  0  0  0  0  0  0  0  0
   -2.5211    0.9574   -2.2682 C   0  0  0  0  0  0  0  0  0  0  0  0
   -3.2015    0.0860   -1.4160 C   0  0  0  0  0  0  0  0  0  0  0  0
   -6.2934   -0.7576    1.3118 H   0  0  0  0  0  0  0  0  0  0  0  0
   -5.4060    0.3055    2.4266 H   0  0  0  0  0  0  0  0  0  0  0  0
   -5.9432    0.9150    0.8378 H   0  0  0  0  0  0  0  0  0  0  0  0
   -2.5102   -3.0536    0.6033 H   0  0  0  0  0  0  0  0  0  0  0  0
    4.0256   -5.8039   -1.2670 H   0  0  0  0  0  0  0  0  0  0  0  0
    2.4493   -5.3228   -0.8110 H   0  0  0  0  0  0  0  0  0  0  0  0
    2.5751   -0.3196    1.5041 H   0  0  0  0  0  0  0  0  0  0  0  0
    0.9165    0.2488    1.6974 H   0  0  0  0  0  0  0  0  0  0  0  0
    2.4024    2.0338    1.8482 H   0  0  0  0  0  0  0  0  0  0  0  0
    3.0921    4.3723    1.5166 H   0  0  0  0  0  0  0  0  0  0  0  0
    2.4881    4.0100   -2.7031 H   0  0  0  0  0  0  0  0  0  0  0  0
    1.7871    1.6427   -2.4055 H   0  0  0  0  0  0  0  0  0  0  0  0
   -3.4812    2.1215    1.3120 H   0  0  0  0  0  0  0  0  0  0  0  0
   -2.2971    3.6682   -0.2138 H   0  0  0  0  0  0  0  0  0  0  0  0
   -2.2419    0.6290   -3.2661 H   0  0  0  0  0  0  0  0  0  0  0  0
   -3.4498   -0.9171   -1.7539 H   0  0  0  0  0  0  0  0  0  0  0  0
  1  2  1  0
  2  3  2  3
  3  4  1  0
  4  5  1  0
  5  6  2  0
  5  7  1  0
  7  8  1  0
  8  9  2  0
  9 10  1  0
 10 11  1  0
 11 12  2  0
 12 13  1  0
 13 14  1  0
 14 15  2  0
 15 16  1  0
 10 17  1  0
 17 18  1  0
 18 19  1  0
 19 20  1  0
 20 21  2  0
 21 22  1  0
 22 23  2  0
 23 24  1  0
 23 25  1  0
 25 26  2  0
  2 27  1  0
 27 28  2  0
 28 29  1  0
 29 30  2  0
 30 31  1  0
 30 32  1  0
 32 33  2  0
 17  7  2  0
 26 20  1  0
 33 27  1  0
 15 11  1  0
  1 34  1  0
  1 35  1  0
  1 36  1  0
  4 37  1  0
 16 38  1  0
 16 39  1  0
 18 40  1  0
 18 41  1  0
 21 42  1  0
 22 43  1  0
 25 44  1  0
 26 45  1  0
 28 46  1  0
 29 47  1  0
 32 48  1  0
 33 49  1  0
M  END
$$$$
