
     RDKit          3D

 62 67  0  0  0  0  0  0  0  0999 V2000
   -2.9349   -0.7572    4.6277 C   0  0  0  0  0  0  0  0  0  0  0  0
   -3.1265   -0.6275    3.2251 O   0  0  0  0  0  0  0  0  0  0  0  0
   -3.1740   -1.7820    2.4839 C   0  0  0  0  0  0  0  0  0  0  0  0
   -2.8646   -3.0531    2.9828 C   0  0  0  0  0  0  0  0  0  0  0  0
   -2.9159   -4.1749    2.1502 C   0  0  0  0  0  0  0  0  0  0  0  0
   -3.2719   -4.0395    0.8118 C   0  0  0  0  0  0  0  0  0  0  0  0
   -3.5797   -2.7797    0.3019 C   0  0  0  0  0  0  0  0  0  0  0  0
   -3.5375   -1.6447    1.1282 C   0  0  0  0  0  0  0  0  0  0  0  0
   -3.8622   -0.3371    0.5421 C   0  0  0  0  0  0  0  0  0  0  0  0
   -5.4492    0.2647    0.7359 S   0  0  0  0  0  0  0  0  0  0  0  0
   -5.1161    1.6909   -0.1655 C   0  0  0  0  0  0  0  0  0  0  0  0
   -6.0251    2.7362   -0.4413 C   0  0  0  0  0  0  0  0  0  0  0  0
   -5.5446    3.7921   -1.1877 C   0  0  0  0  0  0  0  0  0  0  0  0
   -4.2554    3.8389   -1.6422 C   0  0  0  0  0  0  0  0  0  0  0  0
   -3.3496    2.8290   -1.3835 C   0  0  0  0  0  0  0  0  0  0  0  0
   -3.7880    1.7098   -0.6217 C   0  0  0  0  0  0  0  0  0  0  0  0
   -3.0732    0.5224   -0.2039 C   0  0  0  0  0  0  0  0  0  0  0  0
   -1.6832    0.2073   -0.5149 C   0  0  0  0  0  0  0  0  0  0  0  0
   -1.3148   -0.1146   -1.8237 C   0  0  0  0  0  0  0  0  0  0  0  0
    0.0176   -0.4116   -2.1199 C   0  0  0  0  0  0  0  0  0  0  0  0
    0.9935   -0.3886   -1.1196 C   0  0  0  0  0  0  0  0  0  0  0  0
    2.2546   -0.6999   -1.5472 O   0  0  0  0  0  0  0  0  0  0  0  0
    3.2976   -0.6759   -0.5678 C   0  0  0  0  0  0  0  0  0  0  0  0
    4.6116   -1.0660   -1.2656 C   0  0  0  0  0  0  0  0  0  0  0  0
    5.7739   -1.1417   -0.3631 N   0  0  0  0  0  0  0  0  0  0  0  0
    6.0966    0.1745    0.2337 C   0  0  0  0  0  0  0  0  0  0  0  0
    7.5712    0.2723    0.6543 C   0  0  0  0  0  0  0  0  0  0  0  0
    8.4689    0.1756   -0.4598 O   0  0  0  0  0  0  0  0  0  0  0  0
    7.9556   -0.6335   -1.5268 C   0  0  0  0  0  0  0  0  0  0  0  0
    6.9596   -1.7025   -1.0504 C   0  0  0  0  0  0  0  0  0  0  0  0
    0.6256   -0.0636    0.1866 C   0  0  0  0  0  0  0  0  0  0  0  0
   -0.7079    0.2360    0.4873 C   0  0  0  0  0  0  0  0  0  0  0  0
   -3.9941    4.9681   -2.3550 O   0  0  0  0  0  0  0  0  0  0  0  0
   -5.2749    5.6281   -2.2960 C   0  0  0  0  0  0  0  0  0  0  0  0
   -6.2655    4.8867   -1.5553 O   0  0  0  0  0  0  0  0  0  0  0  0
   -1.9339   -1.1401    4.8524 H   0  0  0  0  0  0  0  0  0  0  0  0
   -3.7117   -1.3840    5.0797 H   0  0  0  0  0  0  0  0  0  0  0  0
   -3.0144    0.2407    5.0699 H   0  0  0  0  0  0  0  0  0  0  0  0
   -2.5702   -3.2057    4.0156 H   0  0  0  0  0  0  0  0  0  0  0  0
   -2.6714   -5.1565    2.5486 H   0  0  0  0  0  0  0  0  0  0  0  0
   -3.3071   -4.9116    0.1644 H   0  0  0  0  0  0  0  0  0  0  0  0
   -3.8530   -2.6813   -0.7463 H   0  0  0  0  0  0  0  0  0  0  0  0
   -7.0479    2.7102   -0.0843 H   0  0  0  0  0  0  0  0  0  0  0  0
   -2.3309    2.8937   -1.7517 H   0  0  0  0  0  0  0  0  0  0  0  0
   -2.0578   -0.1417   -2.6168 H   0  0  0  0  0  0  0  0  0  0  0  0
    0.2974   -0.6647   -3.1395 H   0  0  0  0  0  0  0  0  0  0  0  0
    3.0826   -1.3999    0.2277 H   0  0  0  0  0  0  0  0  0  0  0  0
    3.3798    0.3332   -0.1480 H   0  0  0  0  0  0  0  0  0  0  0  0
    4.4469   -2.0493   -1.7269 H   0  0  0  0  0  0  0  0  0  0  0  0
    4.8027   -0.3775   -2.0999 H   0  0  0  0  0  0  0  0  0  0  0  0
    5.8978    0.9792   -0.4867 H   0  0  0  0  0  0  0  0  0  0  0  0
    5.4596    0.3376    1.1097 H   0  0  0  0  0  0  0  0  0  0  0  0
    7.7598    1.2336    1.1432 H   0  0  0  0  0  0  0  0  0  0  0  0
    7.8275   -0.5140    1.3742 H   0  0  0  0  0  0  0  0  0  0  0  0
    7.4886    0.0306   -2.2635 H   0  0  0  0  0  0  0  0  0  0  0  0
    8.8117   -1.1094   -2.0157 H   0  0  0  0  0  0  0  0  0  0  0  0
    7.4702   -2.3484   -0.3246 H   0  0  0  0  0  0  0  0  0  0  0  0
    6.6753   -2.3517   -1.8868 H   0  0  0  0  0  0  0  0  0  0  0  0
    1.3461   -0.0354    0.9969 H   0  0  0  0  0  0  0  0  0  0  0  0
   -0.9815    0.4880    1.5099 H   0  0  0  0  0  0  0  0  0  0  0  0
   -5.6402    5.7771   -3.3187 H   0  0  0  0  0  0  0  0  0  0  0  0
   -5.1436    6.6082   -1.8231 H   0  0  0  0  0  0  0  0  0  0  0  0
  1  2  1  0
  2  3  1  0
  3  4  2  0
  4  5  1  0
  5  6  2  0
  6  7  1  0
  7  8  2  0
  8  9  1  0
  9 10  1  0
 10 11  1  0
 11 12  2  0
 12 13  1  0
 13 14  2  0
 14 15  1  0
 15 16  2  0
 16 17  1  0
 17 18  1  0
 18 19  2  0
 19 20  1  0
 20 21  2  0
 21 22  1  0
 22 23  1  0
 23 24  1  0
 24 25  1  0
 25 26  1  0
 26 27  1  0
 27 28  1  0
 28 29  1  0
 29 30  1  0
 21 31  1  0
 31 32  2  0
 14 33  1  0
 33 34  1  0
 34 35  1  0
  8  3  1  0
 17  9  2  0
 32 18  1  0
 16 11  1  0
 30 25  1  0
 35 13  1  0
  1 36  1  0
  1 37  1  0
  1 38  1  0
  4 39  1  0
  5 40  1  0
  6 41  1  0
  7 42  1  0
 12 43  1  0
 15 44  1  0
 19 45  1  0
 20 46  1  0
 23 47  1  0
 23 48  1  0
 24 49  1  0
 24 50  1  0
 26 51  1  0
 26 52  1  0
 27 53  1  0
 27 54  1  0
 29 55  1  0
 29 56  1  0
 30 57  1  0
 30 58  1  0
 31 59  1  0
 32 60  1  0
 34 61  1  0
 34 62  1  0
M  END
$$$$
