
     RDKit          3D

 37 38  0  0  0  0  0  0  0  0999 V2000
    0.6819   -2.4094    2.2992 O   0  0  0  0  0  0  0  0  0  0  0  0
    0.0600   -1.8775    1.3849 C   0  0  0  0  0  0  0  0  0  0  0  0
   -1.2871   -2.4160    0.8950 C   0  0  0  0  0  0  0  0  0  0  0  0
   -2.0318   -1.5020    0.0790 O   0  0  0  0  0  0  0  0  0  0  0  0
   -2.7323   -0.5706    0.7786 C   0  0  0  0  0  0  0  0  0  0  0  0
   -2.7587   -0.4714    1.9933 O   0  0  0  0  0  0  0  0  0  0  0  0
   -3.4570    0.3530   -0.1380 C   0  0  0  0  0  0  0  0  0  0  0  0
   -4.1357    1.4294    0.4597 C   0  0  0  0  0  0  0  0  0  0  0  0
   -4.8319    2.3573   -0.3208 C   0  0  0  0  0  0  0  0  0  0  0  0
   -4.8542    2.2160   -1.7058 C   0  0  0  0  0  0  0  0  0  0  0  0
   -5.7070    3.3585   -2.6673 Cl  0  0  0  0  0  0  0  0  0  0  0  0
   -4.1898    1.1548   -2.3154 C   0  0  0  0  0  0  0  0  0  0  0  0
   -3.4968    0.2257   -1.5353 C   0  0  0  0  0  0  0  0  0  0  0  0
   -2.8881   -0.7789   -2.2375 O   0  0  0  0  0  0  0  0  0  0  0  0
    0.5453   -0.8038    0.6701 N   0  0  0  0  0  0  0  0  0  0  0  0
    1.8109   -0.1688    0.9921 C   0  0  0  0  0  0  0  0  0  0  0  0
    3.0255   -0.9897    0.5433 C   0  0  0  0  0  0  0  0  0  0  0  0
    4.2552   -0.2174    0.5890 N   0  0  0  0  0  0  0  0  0  0  0  0
    4.6714    0.6026   -0.4308 C   0  0  0  0  0  0  0  0  0  0  0  0
    3.9158    0.6849   -1.5621 O   0  0  0  0  0  0  0  0  0  0  0  0
    5.8099    1.2612   -0.1867 C   0  0  0  0  0  0  0  0  0  0  0  0
    6.4280    0.8838    1.3923 S   0  0  0  0  0  0  0  0  0  0  0  0
    5.0596   -0.2010    1.7173 C   0  0  0  0  0  0  0  0  0  0  0  0
    4.9046   -0.7913    2.7719 O   0  0  0  0  0  0  0  0  0  0  0  0
   -1.0789   -3.2968    0.2783 H   0  0  0  0  0  0  0  0  0  0  0  0
   -1.8823   -2.7470    1.7539 H   0  0  0  0  0  0  0  0  0  0  0  0
   -4.1252    1.5544    1.5423 H   0  0  0  0  0  0  0  0  0  0  0  0
   -5.3509    3.1841    0.1584 H   0  0  0  0  0  0  0  0  0  0  0  0
   -4.2099    1.0420   -3.3965 H   0  0  0  0  0  0  0  0  0  0  0  0
   -2.5065   -1.4192   -1.6075 H   0  0  0  0  0  0  0  0  0  0  0  0
    0.0094   -0.4523   -0.1130 H   0  0  0  0  0  0  0  0  0  0  0  0
    1.8532    0.0053    2.0736 H   0  0  0  0  0  0  0  0  0  0  0  0
    1.8000    0.8099    0.5003 H   0  0  0  0  0  0  0  0  0  0  0  0
    2.8825   -1.3724   -0.4747 H   0  0  0  0  0  0  0  0  0  0  0  0
    3.1356   -1.8671    1.1918 H   0  0  0  0  0  0  0  0  0  0  0  0
    4.3692    1.2765   -2.1872 H   0  0  0  0  0  0  0  0  0  0  0  0
    6.3060    1.9532   -0.8509 H   0  0  0  0  0  0  0  0  0  0  0  0
  1  2  2  0
  2  3  1  0
  3  4  1  0
  4  5  1  0
  5  6  2  0
  5  7  1  0
  7  8  2  0
  8  9  1  0
  9 10  2  0
 10 11  1  0
 10 12  1  0
 12 13  2  0
 13 14  1  0
  2 15  1  0
 15 16  1  0
 16 17  1  0
 17 18  1  0
 18 19  1  0
 19 20  1  0
 19 21  2  0
 21 22  1  0
 22 23  1  0
 23 24  2  0
 13  7  1  0
 23 18  1  0
  3 25  1  0
  3 26  1  0
  8 27  1  0
  9 28  1  0
 12 29  1  0
 14 30  1  0
 15 31  1  0
 16 32  1  0
 16 33  1  0
 17 34  1  0
 17 35  1  0
 20 36  1  0
 21 37  1  0
M  END
$$$$
