
     RDKit          3D

 47 51  0  0  0  0  0  0  0  0999 V2000
   -0.8665    0.2567   -4.6697 C   0  0  0  0  0  0  0  0  0  0  0  0
   -1.4208    0.4565   -3.2936 C   0  0  0  0  0  0  0  0  0  0  0  0
   -2.3423    1.3680   -3.1038 N   0  0  0  0  0  0  0  0  0  0  0  0
   -2.8170    1.5270   -1.8307 C   0  0  0  0  0  0  0  0  0  0  0  0
   -4.0226    2.6746   -1.4412 S   0  0  0  0  0  0  0  0  0  0  0  0
   -4.0165    2.2168    0.2053 C   0  0  0  0  0  0  0  0  0  0  0  0
   -3.1018    1.2175    0.4867 C   0  0  0  0  0  0  0  0  0  0  0  0
   -2.4361    0.8385   -0.6987 C   0  0  0  0  0  0  0  0  0  0  0  0
   -1.3582   -0.2135   -0.9706 C   0  0  0  0  0  0  0  0  0  0  0  0
   -0.7562   -1.0337   -0.1480 N   0  0  0  0  0  0  0  0  0  0  0  0
    0.1116   -1.7797   -0.9065 N   0  0  0  0  0  0  0  0  0  0  0  0
    0.0102   -1.3846   -2.1615 C   0  0  0  0  0  0  0  0  0  0  0  0
    0.9175   -2.0936   -3.4519 S   0  0  0  0  0  0  0  0  0  0  0  0
    2.4321   -2.5683   -2.5631 C   0  0  0  0  0  0  0  0  0  0  0  0
    3.1084   -1.3531   -1.9477 C   0  0  0  0  0  0  0  0  0  0  0  0
    3.2689   -0.2930   -2.5511 O   0  0  0  0  0  0  0  0  0  0  0  0
    3.5488   -1.5441   -0.6575 N   0  0  0  0  0  0  0  0  0  0  0  0
    4.1508   -0.4552    0.0759 C   0  0  0  0  0  0  0  0  0  0  0  0
    4.6572   -0.9376    1.3873 C   0  0  0  0  0  0  0  0  0  0  0  0
    4.6903   -0.3691    2.6448 C   0  0  0  0  0  0  0  0  0  0  0  0
    5.3258   -1.3080    3.4933 C   0  0  0  0  0  0  0  0  0  0  0  0
    5.6467   -2.3851    2.7018 C   0  0  0  0  0  0  0  0  0  0  0  0
    5.2436   -2.1729    1.4237 O   0  0  0  0  0  0  0  0  0  0  0  0
   -0.9083   -0.3628   -2.2662 N   0  0  0  0  0  0  0  0  0  0  0  0
   -2.9320    0.6472    1.8601 C   0  0  0  0  0  0  0  0  0  0  0  0
   -3.5847    1.5382    2.9298 C   0  0  0  0  0  0  0  0  0  0  0  0
   -4.9734    2.0307    2.4959 C   0  0  0  0  0  0  0  0  0  0  0  0
   -4.8997    2.8796    1.2170 C   0  0  0  0  0  0  0  0  0  0  0  0
    0.2125    0.4202   -4.6768 H   0  0  0  0  0  0  0  0  0  0  0  0
   -1.3108    0.9869   -5.3544 H   0  0  0  0  0  0  0  0  0  0  0  0
   -1.1168   -0.7394   -5.0413 H   0  0  0  0  0  0  0  0  0  0  0  0
    2.1896   -3.3188   -1.8036 H   0  0  0  0  0  0  0  0  0  0  0  0
    3.1347   -3.0211   -3.2706 H   0  0  0  0  0  0  0  0  0  0  0  0
    3.1926   -2.3229   -0.1159 H   0  0  0  0  0  0  0  0  0  0  0  0
    4.9669   -0.0315   -0.5188 H   0  0  0  0  0  0  0  0  0  0  0  0
    3.3905    0.3206    0.2166 H   0  0  0  0  0  0  0  0  0  0  0  0
    4.3033    0.6056    2.9137 H   0  0  0  0  0  0  0  0  0  0  0  0
    5.5323   -1.2102    4.5491 H   0  0  0  0  0  0  0  0  0  0  0  0
    6.1415   -3.3300    2.8824 H   0  0  0  0  0  0  0  0  0  0  0  0
   -3.3967   -0.3454    1.8841 H   0  0  0  0  0  0  0  0  0  0  0  0
   -1.8702    0.5191    2.0935 H   0  0  0  0  0  0  0  0  0  0  0  0
   -3.6621    0.9810    3.8700 H   0  0  0  0  0  0  0  0  0  0  0  0
   -2.9414    2.4068    3.1257 H   0  0  0  0  0  0  0  0  0  0  0  0
   -5.4298    2.6205    3.2992 H   0  0  0  0  0  0  0  0  0  0  0  0
   -5.6230    1.1622    2.3261 H   0  0  0  0  0  0  0  0  0  0  0  0
   -5.9104    3.0370    0.8221 H   0  0  0  0  0  0  0  0  0  0  0  0
   -4.4785    3.8621    1.4634 H   0  0  0  0  0  0  0  0  0  0  0  0
  1  2  1  0
  2  3  2  0
  3  4  1  0
  4  5  1  0
  5  6  1  0
  6  7  2  0
  7  8  1  0
  8  9  1  0
  9 10  2  0
 10 11  1  0
 11 12  2  0
 12 13  1  0
 13 14  1  0
 14 15  1  0
 15 16  2  0
 15 17  1  0
 17 18  1  0
 18 19  1  0
 19 20  2  0
 20 21  1  0
 21 22  2  0
 22 23  1  0
 12 24  1  0
  7 25  1  0
 25 26  1  0
 26 27  1  0
 27 28  1  0
 24  2  1  0
  8  4  2  0
 24  9  1  0
 28  6  1  0
 23 19  1  0
  1 29  1  0
  1 30  1  0
  1 31  1  0
 14 32  1  0
 14 33  1  0
 17 34  1  0
 18 35  1  0
 18 36  1  0
 20 37  1  0
 21 38  1  0
 22 39  1  0
 25 40  1  0
 25 41  1  0
 26 42  1  0
 26 43  1  0
 27 44  1  0
 27 45  1  0
 28 46  1  0
 28 47  1  0
M  END
$$$$
