
     RDKit          3D

 65 68  0  0  0  0  0  0  0  0999 V2000
    9.3348   -1.2263    3.9609 C   0  0  0  0  0  0  0  0  0  0  0  0
    8.2883   -0.5633    3.1642 C   0  0  0  0  0  0  0  0  0  0  0  0
    7.0102   -0.9003    2.7937 C   0  0  0  0  0  0  0  0  0  0  0  0
    6.5633    0.1942    2.0222 C   0  0  0  0  0  0  0  0  0  0  0  0
    5.3541    0.3887    1.3933 N   0  0  0  0  0  0  0  0  0  0  0  0
    4.2998   -0.4964    1.4033 C   0  0  0  0  0  0  0  0  0  0  0  0
    4.2787   -1.5836    1.9721 O   0  0  0  0  0  0  0  0  0  0  0  0
    3.1273    0.0199    0.5953 C   0  0  0  0  0  0  0  0  0  0  0  0
    1.9171   -0.9036    0.6985 C   0  0  0  0  0  0  0  0  0  0  0  0
    0.7542   -0.3867   -0.1286 C   0  0  0  0  0  0  0  0  0  0  0  0
    0.9160    0.5714   -0.8854 O   0  0  0  0  0  0  0  0  0  0  0  0
   -0.4673   -1.0323    0.0120 N   0  0  0  0  0  0  0  0  0  0  0  0
   -0.6703   -2.2443    0.8074 C   0  0  0  0  0  0  0  0  0  0  0  0
   -1.5308   -1.9645    2.0056 C   0  0  0  0  0  0  0  0  0  0  0  0
   -1.5418   -0.8635    2.8412 C   0  0  0  0  0  0  0  0  0  0  0  0
   -2.5244   -0.9663    3.8678 C   0  0  0  0  0  0  0  0  0  0  0  0
   -3.2234   -2.1492    3.7953 C   0  0  0  0  0  0  0  0  0  0  0  0
   -2.6888   -3.1297    2.5024 S   0  0  0  0  0  0  0  0  0  0  0  0
   -1.6290   -0.5330   -0.7527 C   0  0  0  0  0  0  0  0  0  0  0  0
   -1.9888    0.9551   -0.4422 C   0  0  0  0  0  0  0  0  0  0  0  0
   -1.5936    1.5453    0.5651 O   0  0  0  0  0  0  0  0  0  0  0  0
   -2.8937    1.5399   -1.3134 N   0  0  0  0  0  0  0  0  0  0  0  0
   -3.3898    2.8901   -1.1128 C   0  0  0  0  0  0  0  0  0  0  0  0
   -4.5472    2.9263   -0.1181 C   0  0  0  0  0  0  0  0  0  0  0  0
   -5.7691    2.5165   -0.9353 C   0  0  0  0  0  0  0  0  0  0  0  0
   -5.4489    2.8771   -2.3859 C   0  0  0  0  0  0  0  0  0  0  0  0
   -4.0304    3.4426   -2.3824 C   0  0  0  0  0  0  0  0  0  0  0  0
   -1.5782   -0.9291   -2.2279 C   0  0  0  0  0  0  0  0  0  0  0  0
   -0.9268   -0.1456   -3.1927 C   0  0  0  0  0  0  0  0  0  0  0  0
   -0.9024   -0.5336   -4.5335 C   0  0  0  0  0  0  0  0  0  0  0  0
   -1.5245   -1.7136   -4.9316 C   0  0  0  0  0  0  0  0  0  0  0  0
   -2.1675   -2.5106   -3.9879 C   0  0  0  0  0  0  0  0  0  0  0  0
   -2.1925   -2.1233   -2.6464 C   0  0  0  0  0  0  0  0  0  0  0  0
    7.5094    1.1362    1.9372 N   0  0  0  0  0  0  0  0  0  0  0  0
    8.5906    0.6581    2.6536 O   0  0  0  0  0  0  0  0  0  0  0  0
    9.2285   -0.9689    5.0193 H   0  0  0  0  0  0  0  0  0  0  0  0
    9.2652   -2.3148    3.8634 H   0  0  0  0  0  0  0  0  0  0  0  0
   10.3331   -0.9238    3.6300 H   0  0  0  0  0  0  0  0  0  0  0  0
    6.4825   -1.8077    3.0450 H   0  0  0  0  0  0  0  0  0  0  0  0
    5.2837    1.2688    0.9004 H   0  0  0  0  0  0  0  0  0  0  0  0
    2.8647    1.0211    0.9580 H   0  0  0  0  0  0  0  0  0  0  0  0
    3.4494    0.1113   -0.4489 H   0  0  0  0  0  0  0  0  0  0  0  0
    2.1844   -1.9012    0.3329 H   0  0  0  0  0  0  0  0  0  0  0  0
    1.6112   -0.9766    1.7479 H   0  0  0  0  0  0  0  0  0  0  0  0
    0.2751   -2.6723    1.1478 H   0  0  0  0  0  0  0  0  0  0  0  0
   -1.1263   -2.9931    0.1491 H   0  0  0  0  0  0  0  0  0  0  0  0
   -0.8935   -0.0039    2.7081 H   0  0  0  0  0  0  0  0  0  0  0  0
   -2.7143   -0.2045    4.6129 H   0  0  0  0  0  0  0  0  0  0  0  0
   -4.0226   -2.4856    4.4421 H   0  0  0  0  0  0  0  0  0  0  0  0
   -2.5116   -1.0480   -0.3431 H   0  0  0  0  0  0  0  0  0  0  0  0
   -3.2712    0.9866   -2.0748 H   0  0  0  0  0  0  0  0  0  0  0  0
   -2.5570    3.5176   -0.7779 H   0  0  0  0  0  0  0  0  0  0  0  0
   -4.4030    2.2756    0.7500 H   0  0  0  0  0  0  0  0  0  0  0  0
   -4.6842    3.9513    0.2479 H   0  0  0  0  0  0  0  0  0  0  0  0
   -6.6742    3.0191   -0.5798 H   0  0  0  0  0  0  0  0  0  0  0  0
   -5.9398    1.4369   -0.8500 H   0  0  0  0  0  0  0  0  0  0  0  0
   -5.5039    1.9801   -3.0138 H   0  0  0  0  0  0  0  0  0  0  0  0
   -6.1627    3.6019   -2.7911 H   0  0  0  0  0  0  0  0  0  0  0  0
   -3.4834    3.1800   -3.2936 H   0  0  0  0  0  0  0  0  0  0  0  0
   -4.0796    4.5370   -2.3228 H   0  0  0  0  0  0  0  0  0  0  0  0
   -0.4271    0.7794   -2.9099 H   0  0  0  0  0  0  0  0  0  0  0  0
   -0.3900    0.0865   -5.2652 H   0  0  0  0  0  0  0  0  0  0  0  0
   -1.5010   -2.0145   -5.9758 H   0  0  0  0  0  0  0  0  0  0  0  0
   -2.6473   -3.4362   -4.2958 H   0  0  0  0  0  0  0  0  0  0  0  0
   -2.6993   -2.7651   -1.9285 H   0  0  0  0  0  0  0  0  0  0  0  0
  1  2  1  0
  2  3  2  0
  3  4  1  0
  4  5  1  0
  5  6  1  0
  6  7  2  0
  6  8  1  0
  8  9  1  0
  9 10  1  0
 10 11  2  0
 10 12  1  0
 12 13  1  0
 13 14  1  0
 14 15  2  0
 15 16  1  0
 16 17  2  0
 17 18  1  0
 12 19  1  0
 19 20  1  0
 20 21  2  0
 20 22  1  0
 22 23  1  0
 23 24  1  0
 24 25  1  0
 25 26  1  0
 26 27  1  0
 19 28  1  0
 28 29  2  0
 29 30  1  0
 30 31  2  0
 31 32  1  0
 32 33  2  0
  4 34  2  0
 34 35  1  0
 35  2  1  0
 18 14  1  0
 27 23  1  0
 33 28  1  0
  1 36  1  0
  1 37  1  0
  1 38  1  0
  3 39  1  0
  5 40  1  0
  8 41  1  0
  8 42  1  0
  9 43  1  0
  9 44  1  0
 13 45  1  0
 13 46  1  0
 15 47  1  0
 16 48  1  0
 17 49  1  0
 19 50  1  0
 22 51  1  0
 23 52  1  0
 24 53  1  0
 24 54  1  0
 25 55  1  0
 25 56  1  0
 26 57  1  0
 26 58  1  0
 27 59  1  0
 27 60  1  0
 29 61  1  0
 30 62  1  0
 31 63  1  0
 32 64  1  0
 33 65  1  0
M  END
$$$$
