
     RDKit          3D

 58 61  0  0  0  0  0  0  0  0999 V2000
   -4.0939    4.8077    2.5878 C   0  0  0  0  0  0  0  0  0  0  0  0
   -3.9743    3.3986    2.4418 O   0  0  0  0  0  0  0  0  0  0  0  0
   -3.5728    2.9348    1.2188 C   0  0  0  0  0  0  0  0  0  0  0  0
   -3.2472    3.7182    0.1118 C   0  0  0  0  0  0  0  0  0  0  0  0
   -2.8459    3.1126   -1.0812 C   0  0  0  0  0  0  0  0  0  0  0  0
   -2.7703    1.7226   -1.1731 C   0  0  0  0  0  0  0  0  0  0  0  0
   -3.0951    0.9218   -0.0721 C   0  0  0  0  0  0  0  0  0  0  0  0
   -2.9994   -0.5409   -0.1649 C   0  0  0  0  0  0  0  0  0  0  0  0
   -4.4295   -1.4623    0.0258 S   0  0  0  0  0  0  0  0  0  0  0  0
   -3.6141   -2.9519   -0.2205 C   0  0  0  0  0  0  0  0  0  0  0  0
   -4.1841   -4.2395   -0.2037 C   0  0  0  0  0  0  0  0  0  0  0  0
   -3.3657   -5.3539   -0.4207 C   0  0  0  0  0  0  0  0  0  0  0  0
   -2.0054   -5.1982   -0.6483 C   0  0  0  0  0  0  0  0  0  0  0  0
   -1.1056   -6.2049   -0.8697 O   0  0  0  0  0  0  0  0  0  0  0  0
   -1.6101   -7.5345   -0.8601 C   0  0  0  0  0  0  0  0  0  0  0  0
   -1.4519   -3.9122   -0.6619 C   0  0  0  0  0  0  0  0  0  0  0  0
   -2.2524   -2.7582   -0.4517 C   0  0  0  0  0  0  0  0  0  0  0  0
   -1.9043   -1.3530   -0.4218 C   0  0  0  0  0  0  0  0  0  0  0  0
   -0.5666   -0.8034   -0.6245 C   0  0  0  0  0  0  0  0  0  0  0  0
    0.0550   -0.9167   -1.8710 C   0  0  0  0  0  0  0  0  0  0  0  0
    1.3360   -0.3935   -2.0630 C   0  0  0  0  0  0  0  0  0  0  0  0
    2.0108    0.2433   -1.0183 C   0  0  0  0  0  0  0  0  0  0  0  0
    3.2548    0.7086   -1.3435 O   0  0  0  0  0  0  0  0  0  0  0  0
    4.0055    1.3435   -0.3035 C   0  0  0  0  0  0  0  0  0  0  0  0
    5.3653    1.7667   -0.8883 C   0  0  0  0  0  0  0  0  0  0  0  0
    6.3166    2.4452    0.0072 N   0  0  0  0  0  0  0  0  0  0  0  0
    6.7482    1.5968    1.1137 C   0  0  0  0  0  0  0  0  0  0  0  0
    5.8159    3.7279    0.4912 C   0  0  0  0  0  0  0  0  0  0  0  0
    1.3922    0.3532    0.2274 C   0  0  0  0  0  0  0  0  0  0  0  0
    0.1093   -0.1705    0.4244 C   0  0  0  0  0  0  0  0  0  0  0  0
   -3.4938    1.5418    1.1209 C   0  0  0  0  0  0  0  0  0  0  0  0
   -4.8429    5.2141    1.9003 H   0  0  0  0  0  0  0  0  0  0  0  0
   -4.4342    5.0103    3.6080 H   0  0  0  0  0  0  0  0  0  0  0  0
   -3.1255    5.3011    2.4554 H   0  0  0  0  0  0  0  0  0  0  0  0
   -3.2929    4.8014    0.1429 H   0  0  0  0  0  0  0  0  0  0  0  0
   -2.5904    3.7249   -1.9422 H   0  0  0  0  0  0  0  0  0  0  0  0
   -2.4565    1.2678   -2.1100 H   0  0  0  0  0  0  0  0  0  0  0  0
   -5.2475   -4.3687   -0.0222 H   0  0  0  0  0  0  0  0  0  0  0  0
   -3.8337   -6.3329   -0.4015 H   0  0  0  0  0  0  0  0  0  0  0  0
   -2.0311   -7.7898    0.1180 H   0  0  0  0  0  0  0  0  0  0  0  0
   -2.3441   -7.6839   -1.6590 H   0  0  0  0  0  0  0  0  0  0  0  0
   -0.7710   -8.2114   -1.0483 H   0  0  0  0  0  0  0  0  0  0  0  0
   -0.3834   -3.8001   -0.8342 H   0  0  0  0  0  0  0  0  0  0  0  0
   -0.4509   -1.4068   -2.6995 H   0  0  0  0  0  0  0  0  0  0  0  0
    1.8130   -0.4846   -3.0356 H   0  0  0  0  0  0  0  0  0  0  0  0
    4.1588    0.6368    0.5196 H   0  0  0  0  0  0  0  0  0  0  0  0
    3.4627    2.2264    0.0512 H   0  0  0  0  0  0  0  0  0  0  0  0
    5.8534    0.8792   -1.3129 H   0  0  0  0  0  0  0  0  0  0  0  0
    5.1851    2.4080   -1.7618 H   0  0  0  0  0  0  0  0  0  0  0  0
    7.1449    0.6462    0.7421 H   0  0  0  0  0  0  0  0  0  0  0  0
    7.5616    2.0790    1.6674 H   0  0  0  0  0  0  0  0  0  0  0  0
    5.9394    1.3831    1.8203 H   0  0  0  0  0  0  0  0  0  0  0  0
    6.6036    4.2647    1.0311 H   0  0  0  0  0  0  0  0  0  0  0  0
    5.5195    4.3689   -0.3462 H   0  0  0  0  0  0  0  0  0  0  0  0
    4.9594    3.6183    1.1650 H   0  0  0  0  0  0  0  0  0  0  0  0
    1.8755    0.8387    1.0682 H   0  0  0  0  0  0  0  0  0  0  0  0
   -0.3577   -0.0798    1.4030 H   0  0  0  0  0  0  0  0  0  0  0  0
   -3.7426    0.9394    1.9919 H   0  0  0  0  0  0  0  0  0  0  0  0
  1  2  1  0
  2  3  1  0
  3  4  2  0
  4  5  1  0
  5  6  2  0
  6  7  1  0
  7  8  1  0
  8  9  1  0
  9 10  1  0
 10 11  2  0
 11 12  1  0
 12 13  2  0
 13 14  1  0
 14 15  1  0
 13 16  1  0
 16 17  2  0
 17 18  1  0
 18 19  1  0
 19 20  2  0
 20 21  1  0
 21 22  2  0
 22 23  1  0
 23 24  1  0
 24 25  1  0
 25 26  1  0
 26 27  1  0
 26 28  1  0
 22 29  1  0
 29 30  2  0
  7 31  2  0
 31  3  1  0
 18  8  2  0
 30 19  1  0
 17 10  1  0
  1 32  1  0
  1 33  1  0
  1 34  1  0
  4 35  1  0
  5 36  1  0
  6 37  1  0
 11 38  1  0
 12 39  1  0
 15 40  1  0
 15 41  1  0
 15 42  1  0
 16 43  1  0
 20 44  1  0
 21 45  1  0
 24 46  1  0
 24 47  1  0
 25 48  1  0
 25 49  1  0
 27 50  1  0
 27 51  1  0
 27 52  1  0
 28 53  1  0
 28 54  1  0
 28 55  1  0
 29 56  1  0
 30 57  1  0
 31 58  1  0
M  END
$$$$
