
     RDKit          3D

 37 39  0  0  0  0  0  0  0  0999 V2000
   -5.7874    1.4466   -0.8176 C   0  0  0  0  0  0  0  0  0  0  0  0
   -5.1280    0.6355    0.2626 C   0  0  0  0  0  0  0  0  0  0  0  0
   -5.9091    0.0138    1.2482 C   0  0  0  0  0  0  0  0  0  0  0  0
   -5.3106   -0.7632    2.2408 C   0  0  0  0  0  0  0  0  0  0  0  0
   -3.9283   -0.9368    2.2499 C   0  0  0  0  0  0  0  0  0  0  0  0
   -3.1389   -0.3255    1.2744 C   0  0  0  0  0  0  0  0  0  0  0  0
   -3.7322    0.4756    0.2923 C   0  0  0  0  0  0  0  0  0  0  0  0
   -3.0180    1.0807   -0.7093 O   0  0  0  0  0  0  0  0  0  0  0  0
   -1.8048    1.6980   -0.3051 C   0  0  0  0  0  0  0  0  0  0  0  0
   -0.5305    0.8725   -0.5452 C   0  0  0  0  0  0  0  0  0  0  0  0
   -0.5562   -0.2368   -1.0663 O   0  0  0  0  0  0  0  0  0  0  0  0
    0.5948    1.5375   -0.0960 N   0  0  0  0  0  0  0  0  0  0  0  0
    1.8908    1.0868   -0.1414 C   0  0  0  0  0  0  0  0  0  0  0  0
    2.8900    1.8055    0.3164 N   0  0  0  0  0  0  0  0  0  0  0  0
    4.0998    1.1570    0.1767 N   0  0  0  0  0  0  0  0  0  0  0  0
    3.9800   -0.0327   -0.3874 C   0  0  0  0  0  0  0  0  0  0  0  0
    5.1062   -0.9449   -0.6552 C   0  0  0  0  0  0  0  0  0  0  0  0
    6.3902   -0.5778   -0.2317 C   0  0  0  0  0  0  0  0  0  0  0  0
    7.4542   -1.4298   -0.4796 C   0  0  0  0  0  0  0  0  0  0  0  0
    7.3310   -2.6124   -1.1142 N   0  0  0  0  0  0  0  0  0  0  0  0
    6.0922   -2.9554   -1.5211 C   0  0  0  0  0  0  0  0  0  0  0  0
    4.9677   -2.1683   -1.3215 C   0  0  0  0  0  0  0  0  0  0  0  0
    2.3471   -0.4225   -0.7736 S   0  0  0  0  0  0  0  0  0  0  0  0
   -6.8678    1.5320   -0.6537 H   0  0  0  0  0  0  0  0  0  0  0  0
   -5.6329    0.9711   -1.7919 H   0  0  0  0  0  0  0  0  0  0  0  0
   -5.3736    2.4619   -0.8385 H   0  0  0  0  0  0  0  0  0  0  0  0
   -6.9920    0.1248    1.2434 H   0  0  0  0  0  0  0  0  0  0  0  0
   -5.9252   -1.2470    2.9970 H   0  0  0  0  0  0  0  0  0  0  0  0
   -3.4648   -1.5675    3.0051 H   0  0  0  0  0  0  0  0  0  0  0  0
   -2.0700   -0.5199    1.2776 H   0  0  0  0  0  0  0  0  0  0  0  0
   -1.7063    2.6045   -0.9163 H   0  0  0  0  0  0  0  0  0  0  0  0
   -1.8397    2.0277    0.7418 H   0  0  0  0  0  0  0  0  0  0  0  0
    0.5091    2.4589    0.3126 H   0  0  0  0  0  0  0  0  0  0  0  0
    6.5674    0.3615    0.2854 H   0  0  0  0  0  0  0  0  0  0  0  0
    8.4618   -1.1742   -0.1649 H   0  0  0  0  0  0  0  0  0  0  0  0
    6.0216   -3.9115   -2.0325 H   0  0  0  0  0  0  0  0  0  0  0  0
    4.0125   -2.5256   -1.6938 H   0  0  0  0  0  0  0  0  0  0  0  0
  1  2  1  0
  2  3  2  0
  3  4  1  0
  4  5  2  0
  5  6  1  0
  6  7  2  0
  7  8  1  0
  8  9  1  0
  9 10  1  0
 10 11  2  0
 10 12  1  0
 12 13  1  0
 13 14  2  0
 14 15  1  0
 15 16  2  0
 16 17  1  0
 17 18  2  0
 18 19  1  0
 19 20  2  0
 20 21  1  0
 21 22  2  0
 16 23  1  0
  7  2  1  0
 23 13  1  0
 22 17  1  0
  1 24  1  0
  1 25  1  0
  1 26  1  0
  3 27  1  0
  4 28  1  0
  5 29  1  0
  6 30  1  0
  9 31  1  0
  9 32  1  0
 12 33  1  0
 18 34  1  0
 19 35  1  0
 21 36  1  0
 22 37  1  0
M  END
$$$$
