
     RDKit          3D

 48 51  0  0  0  0  0  0  0  0999 V2000
   -0.4535   -0.2256    3.0403 C   0  0  0  0  0  0  0  0  0  0  0  0
   -0.6006    0.9679    2.1120 C   0  0  0  0  0  0  0  0  0  0  0  0
   -0.6566    0.5865    0.7184 N   0  0  0  0  0  0  0  0  0  0  0  0
   -1.7851    0.3249   -0.0156 C   0  0  0  0  0  0  0  0  0  0  0  0
   -3.3867    0.3065    0.6339 S   0  0  0  0  0  0  0  0  0  0  0  0
   -4.3404   -0.1000   -0.8614 C   0  0  0  0  0  0  0  0  0  0  0  0
   -5.8134   -0.2238   -0.5508 C   0  0  0  0  0  0  0  0  0  0  0  0
   -6.6530    0.9006   -0.6192 C   0  0  0  0  0  0  0  0  0  0  0  0
   -8.0109    0.7862   -0.3180 C   0  0  0  0  0  0  0  0  0  0  0  0
   -8.5290   -0.4478    0.0562 C   0  0  0  0  0  0  0  0  0  0  0  0
   -9.8324   -0.5559    0.3458 F   0  0  0  0  0  0  0  0  0  0  0  0
   -7.7153   -1.5712    0.1364 C   0  0  0  0  0  0  0  0  0  0  0  0
   -6.3569   -1.4601   -0.1635 C   0  0  0  0  0  0  0  0  0  0  0  0
   -1.4604    0.0802   -1.2605 N   0  0  0  0  0  0  0  0  0  0  0  0
   -0.0974    0.1666   -1.3551 N   0  0  0  0  0  0  0  0  0  0  0  0
    0.3927    0.4566   -0.1657 C   0  0  0  0  0  0  0  0  0  0  0  0
    1.9292    0.5558    0.0839 C   0  0  0  0  0  0  0  0  0  0  0  0
    2.6422    0.7399    1.2713 C   0  0  0  0  0  0  0  0  0  0  0  0
    3.9575    0.7438    1.0734 N   0  0  0  0  0  0  0  0  0  0  0  0
    4.1126    0.3997   -0.2385 N   0  0  0  0  0  0  0  0  0  0  0  0
    5.4027   -0.0315   -0.6759 C   0  0  0  0  0  0  0  0  0  0  0  0
    5.5784   -0.8314   -1.8120 C   0  0  0  0  0  0  0  0  0  0  0  0
    6.8592   -1.2525   -2.1863 C   0  0  0  0  0  0  0  0  0  0  0  0
    7.9692   -0.8955   -1.4247 C   0  0  0  0  0  0  0  0  0  0  0  0
    7.8034   -0.1227   -0.2791 C   0  0  0  0  0  0  0  0  0  0  0  0
    6.5272    0.3006    0.0994 C   0  0  0  0  0  0  0  0  0  0  0  0
    2.9027    0.4917   -0.9011 C   0  0  0  0  0  0  0  0  0  0  0  0
    2.7823    0.5655   -2.3651 C   0  0  0  0  0  0  0  0  0  0  0  0
    3.9048    1.0499   -2.9580 F   0  0  0  0  0  0  0  0  0  0  0  0
    2.5385   -0.6470   -2.9184 F   0  0  0  0  0  0  0  0  0  0  0  0
    1.7922    1.4035   -2.7623 F   0  0  0  0  0  0  0  0  0  0  0  0
   -0.3864    0.1091    4.0799 H   0  0  0  0  0  0  0  0  0  0  0  0
   -1.3115   -0.9005    2.9560 H   0  0  0  0  0  0  0  0  0  0  0  0
    0.4452   -0.8058    2.8094 H   0  0  0  0  0  0  0  0  0  0  0  0
    0.2225    1.6753    2.2411 H   0  0  0  0  0  0  0  0  0  0  0  0
   -1.5068    1.5299    2.3599 H   0  0  0  0  0  0  0  0  0  0  0  0
   -3.9778   -1.0420   -1.2902 H   0  0  0  0  0  0  0  0  0  0  0  0
   -4.1877    0.6784   -1.6182 H   0  0  0  0  0  0  0  0  0  0  0  0
   -6.2516    1.8705   -0.9060 H   0  0  0  0  0  0  0  0  0  0  0  0
   -8.6660    1.6497   -0.3706 H   0  0  0  0  0  0  0  0  0  0  0  0
   -8.1420   -2.5237    0.4340 H   0  0  0  0  0  0  0  0  0  0  0  0
   -5.7231   -2.3420   -0.0940 H   0  0  0  0  0  0  0  0  0  0  0  0
    2.2913    0.8760    2.2837 H   0  0  0  0  0  0  0  0  0  0  0  0
    4.7486   -1.1861   -2.4136 H   0  0  0  0  0  0  0  0  0  0  0  0
    6.9879   -1.8743   -3.0700 H   0  0  0  0  0  0  0  0  0  0  0  0
    8.9614   -1.2280   -1.7188 H   0  0  0  0  0  0  0  0  0  0  0  0
    8.6654    0.1484    0.3247 H   0  0  0  0  0  0  0  0  0  0  0  0
    6.4276    0.9035    1.0011 H   0  0  0  0  0  0  0  0  0  0  0  0
  1  2  1  0
  2  3  1  0
  3  4  1  0
  4  5  1  0
  5  6  1  0
  6  7  1  0
  7  8  2  0
  8  9  1  0
  9 10  2  0
 10 11  1  0
 10 12  1  0
 12 13  2  0
  4 14  2  0
 14 15  1  0
 15 16  2  0
 16 17  1  0
 17 18  1  0
 18 19  2  0
 19 20  1  0
 20 21  1  0
 21 22  2  0
 22 23  1  0
 23 24  2  0
 24 25  1  0
 25 26  2  0
 20 27  1  0
 27 28  1  0
 28 29  1  0
 28 30  1  0
 28 31  1  0
 16  3  1  0
 27 17  2  0
 13  7  1  0
 26 21  1  0
  1 32  1  0
  1 33  1  0
  1 34  1  0
  2 35  1  0
  2 36  1  0
  6 37  1  0
  6 38  1  0
  8 39  1  0
  9 40  1  0
 12 41  1  0
 13 42  1  0
 18 43  1  0
 22 44  1  0
 23 45  1  0
 24 46  1  0
 25 47  1  0
 26 48  1  0
M  END
$$$$
