
     RDKit          3D

 31 32  0  0  0  0  0  0  0  0999 V2000
    4.8188   -1.5317   -0.3741 O   0  0  0  0  0  0  0  0  0  0  0  0
    4.7803   -0.5030    0.3004 C   0  0  0  0  0  0  0  0  0  0  0  0
    3.6394    0.2444    0.5715 N   0  0  0  0  0  0  0  0  0  0  0  0
    2.3191   -0.0053    0.1495 C   0  0  0  0  0  0  0  0  0  0  0  0
    1.9384   -1.0908   -0.6356 C   0  0  0  0  0  0  0  0  0  0  0  0
    0.5981   -1.2600   -1.0103 C   0  0  0  0  0  0  0  0  0  0  0  0
   -0.3907   -0.3507   -0.6157 C   0  0  0  0  0  0  0  0  0  0  0  0
   -1.7236   -0.5879   -0.9880 N   0  0  0  0  0  0  0  0  0  0  0  0
   -2.9465   -0.2145   -0.4037 C   0  0  0  0  0  0  0  0  0  0  0  0
   -4.0741   -0.0701   -1.2254 C   0  0  0  0  0  0  0  0  0  0  0  0
   -5.3039    0.3367   -0.6999 C   0  0  0  0  0  0  0  0  0  0  0  0
   -5.4231    0.6107    0.6594 C   0  0  0  0  0  0  0  0  0  0  0  0
   -4.3136    0.4779    1.4897 C   0  0  0  0  0  0  0  0  0  0  0  0
   -3.0849    0.0728    0.9588 C   0  0  0  0  0  0  0  0  0  0  0  0
   -0.0005    0.7299    0.1778 C   0  0  0  0  0  0  0  0  0  0  0  0
    1.3375    0.9050    0.5533 C   0  0  0  0  0  0  0  0  0  0  0  0
    6.0594    0.0588    0.9224 C   0  0  0  0  0  0  0  0  0  0  0  0
    6.3608    1.6913    0.2859 Cl  0  0  0  0  0  0  0  0  0  0  0  0
    5.8864    0.1103    2.6913 Cl  0  0  0  0  0  0  0  0  0  0  0  0
    3.7743    1.0728    1.1428 H   0  0  0  0  0  0  0  0  0  0  0  0
    2.6528   -1.8338   -0.9747 H   0  0  0  0  0  0  0  0  0  0  0  0
    0.3345   -2.1276   -1.6107 H   0  0  0  0  0  0  0  0  0  0  0  0
   -1.8248   -1.1383   -1.8331 H   0  0  0  0  0  0  0  0  0  0  0  0
   -4.0001   -0.2633   -2.2926 H   0  0  0  0  0  0  0  0  0  0  0  0
   -6.1650    0.4432   -1.3543 H   0  0  0  0  0  0  0  0  0  0  0  0
   -6.3780    0.9261    1.0713 H   0  0  0  0  0  0  0  0  0  0  0  0
   -4.4013    0.6838    2.5531 H   0  0  0  0  0  0  0  0  0  0  0  0
   -2.2428   -0.0501    1.6341 H   0  0  0  0  0  0  0  0  0  0  0  0
   -0.7295    1.4736    0.4883 H   0  0  0  0  0  0  0  0  0  0  0  0
    1.5915    1.7690    1.1618 H   0  0  0  0  0  0  0  0  0  0  0  0
    6.9112   -0.5793    0.6713 H   0  0  0  0  0  0  0  0  0  0  0  0
  1  2  2  0
  2  3  1  0
  3  4  1  0
  4  5  2  0
  5  6  1  0
  6  7  2  0
  7  8  1  0
  8  9  1  0
  9 10  2  0
 10 11  1  0
 11 12  2  0
 12 13  1  0
 13 14  2  0
  7 15  1  0
 15 16  2  0
  2 17  1  0
 17 18  1  0
 17 19  1  0
 16  4  1  0
 14  9  1  0
  3 20  1  0
  5 21  1  0
  6 22  1  0
  8 23  1  0
 10 24  1  0
 11 25  1  0
 12 26  1  0
 13 27  1  0
 14 28  1  0
 15 29  1  0
 16 30  1  0
 17 31  1  0
M  END
$$$$
