
     RDKit          3D

 31 32  0  0  0  0  0  0  0  0999 V2000
    3.7978   -0.5625   -2.2628 O   0  0  0  0  0  0  0  0  0  0  0  0
    4.3637   -0.2594   -1.2130 C   0  0  0  0  0  0  0  0  0  0  0  0
    3.7333    0.1371   -0.0386 N   0  0  0  0  0  0  0  0  0  0  0  0
    2.3520    0.2759    0.1994 C   0  0  0  0  0  0  0  0  0  0  0  0
    1.9633    0.6880    1.4777 C   0  0  0  0  0  0  0  0  0  0  0  0
    0.6091    0.8499    1.7956 C   0  0  0  0  0  0  0  0  0  0  0  0
   -0.3904    0.6100    0.8460 C   0  0  0  0  0  0  0  0  0  0  0  0
   -1.7361    0.7451    1.2241 N   0  0  0  0  0  0  0  0  0  0  0  0
   -2.9151    0.1529    0.7381 C   0  0  0  0  0  0  0  0  0  0  0  0
   -2.9333   -1.0831    0.0822 C   0  0  0  0  0  0  0  0  0  0  0  0
   -4.1251   -1.6174   -0.4175 C   0  0  0  0  0  0  0  0  0  0  0  0
   -5.3188   -0.9155   -0.2747 C   0  0  0  0  0  0  0  0  0  0  0  0
   -5.3204    0.3187    0.3685 C   0  0  0  0  0  0  0  0  0  0  0  0
   -4.1267    0.8477    0.8680 C   0  0  0  0  0  0  0  0  0  0  0  0
    0.0086    0.1923   -0.4260 C   0  0  0  0  0  0  0  0  0  0  0  0
    1.3635    0.0307   -0.7505 C   0  0  0  0  0  0  0  0  0  0  0  0
    5.8897   -0.3003   -1.1211 C   0  0  0  0  0  0  0  0  0  0  0  0
    6.5044    1.3228   -0.7346 Cl  0  0  0  0  0  0  0  0  0  0  0  0
    6.3773   -1.4578    0.1377 Cl  0  0  0  0  0  0  0  0  0  0  0  0
    4.3434    0.3504    0.7443 H   0  0  0  0  0  0  0  0  0  0  0  0
    2.7018    0.8848    2.2505 H   0  0  0  0  0  0  0  0  0  0  0  0
    0.3412    1.1548    2.8042 H   0  0  0  0  0  0  0  0  0  0  0  0
   -1.8901    1.4063    1.9763 H   0  0  0  0  0  0  0  0  0  0  0  0
   -2.0212   -1.6646   -0.0198 H   0  0  0  0  0  0  0  0  0  0  0  0
   -4.1171   -2.5838   -0.9144 H   0  0  0  0  0  0  0  0  0  0  0  0
   -6.2448   -1.3297   -0.6644 H   0  0  0  0  0  0  0  0  0  0  0  0
   -6.2479    0.8741    0.4780 H   0  0  0  0  0  0  0  0  0  0  0  0
   -4.1492    1.8207    1.3521 H   0  0  0  0  0  0  0  0  0  0  0  0
   -0.7306    0.0164   -1.2034 H   0  0  0  0  0  0  0  0  0  0  0  0
    1.6019   -0.2850   -1.7610 H   0  0  0  0  0  0  0  0  0  0  0  0
    6.3157   -0.6195   -2.0762 H   0  0  0  0  0  0  0  0  0  0  0  0
  1  2  2  0
  2  3  1  0
  3  4  1  0
  4  5  2  0
  5  6  1  0
  6  7  2  0
  7  8  1  0
  8  9  1  0
  9 10  2  0
 10 11  1  0
 11 12  2  0
 12 13  1  0
 13 14  2  0
  7 15  1  0
 15 16  2  0
  2 17  1  0
 17 18  1  0
 17 19  1  0
 16  4  1  0
 14  9  1  0
  3 20  1  0
  5 21  1  0
  6 22  1  0
  8 23  1  0
 10 24  1  0
 11 25  1  0
 12 26  1  0
 13 27  1  0
 14 28  1  0
 15 29  1  0
 16 30  1  0
 17 31  1  0
M  END
$$$$
