
     RDKit          3D

 46 49  0  0  0  0  0  0  0  0999 V2000
    3.2713   -1.5354   -3.3415 O   0  0  0  0  0  0  0  0  0  0  0  0
    2.8391   -1.0930   -2.2811 C   0  0  0  0  0  0  0  0  0  0  0  0
    1.6913   -1.7757   -1.5534 C   0  0  0  0  0  0  0  0  0  0  0  0
    0.2985   -0.6199   -1.3707 S   0  0  0  0  0  0  0  0  0  0  0  0
   -0.6509   -1.4690   -0.2045 C   0  0  0  0  0  0  0  0  0  0  0  0
   -0.4926   -2.7230    0.1438 N   0  0  0  0  0  0  0  0  0  0  0  0
   -1.4206   -3.0082    1.1113 N   0  0  0  0  0  0  0  0  0  0  0  0
   -2.1307   -1.9192    1.3387 C   0  0  0  0  0  0  0  0  0  0  0  0
   -3.2300   -1.8005    2.3428 C   0  0  0  0  0  0  0  0  0  0  0  0
   -4.5985   -1.7941    1.7202 C   0  0  0  0  0  0  0  0  0  0  0  0
   -5.1226   -2.6645    0.7825 C   0  0  0  0  0  0  0  0  0  0  0  0
   -6.4659   -2.3441    0.4344 C   0  0  0  0  0  0  0  0  0  0  0  0
   -6.9301   -1.2483    1.1260 C   0  0  0  0  0  0  0  0  0  0  0  0
   -5.7520   -0.6140    2.1893 S   0  0  0  0  0  0  0  0  0  0  0  0
   -1.6768   -0.9124    0.5109 N   0  0  0  0  0  0  0  0  0  0  0  0
   -2.1993    0.4362    0.4050 C   0  0  0  0  0  0  0  0  0  0  0  0
   -1.6144    1.3204    1.4430 C   0  0  0  0  0  0  0  0  0  0  0  0
   -2.1371    1.9599    2.5489 C   0  0  0  0  0  0  0  0  0  0  0  0
   -1.0667    2.6733    3.1406 C   0  0  0  0  0  0  0  0  0  0  0  0
    0.0360    2.4325    2.3560 C   0  0  0  0  0  0  0  0  0  0  0  0
   -0.2878    1.6167    1.3211 O   0  0  0  0  0  0  0  0  0  0  0  0
    3.3336    0.0052   -1.5959 N   0  0  0  0  0  0  0  0  0  0  0  0
    4.4115    0.8487   -1.9482 C   0  0  0  0  0  0  0  0  0  0  0  0
    5.2275    0.6250   -3.0606 C   0  0  0  0  0  0  0  0  0  0  0  0
    6.2827    1.4968   -3.3542 C   0  0  0  0  0  0  0  0  0  0  0  0
    6.5293    2.5964   -2.5362 C   0  0  0  0  0  0  0  0  0  0  0  0
    7.8284    3.6618   -2.9044 Cl  0  0  0  0  0  0  0  0  0  0  0  0
    5.7324    2.8379   -1.4227 C   0  0  0  0  0  0  0  0  0  0  0  0
    4.6804    1.9665   -1.1327 C   0  0  0  0  0  0  0  0  0  0  0  0
    3.7100    2.3024    0.2638 Cl  0  0  0  0  0  0  0  0  0  0  0  0
    1.3705   -2.6502   -2.1279 H   0  0  0  0  0  0  0  0  0  0  0  0
    2.0584   -2.1098   -0.5768 H   0  0  0  0  0  0  0  0  0  0  0  0
   -3.1732   -2.6556    3.0290 H   0  0  0  0  0  0  0  0  0  0  0  0
   -3.0661   -0.9098    2.9594 H   0  0  0  0  0  0  0  0  0  0  0  0
   -4.5643   -3.4953    0.3631 H   0  0  0  0  0  0  0  0  0  0  0  0
   -7.0631   -2.8948   -0.2824 H   0  0  0  0  0  0  0  0  0  0  0  0
   -7.9092   -0.7930    1.0633 H   0  0  0  0  0  0  0  0  0  0  0  0
   -1.9953    0.8269   -0.5962 H   0  0  0  0  0  0  0  0  0  0  0  0
   -3.2870    0.3891    0.4972 H   0  0  0  0  0  0  0  0  0  0  0  0
   -3.1634    1.9191    2.8885 H   0  0  0  0  0  0  0  0  0  0  0  0
   -1.0940    3.2916    4.0271 H   0  0  0  0  0  0  0  0  0  0  0  0
    1.0684    2.7524    2.3953 H   0  0  0  0  0  0  0  0  0  0  0  0
    2.8144    0.2916   -0.7688 H   0  0  0  0  0  0  0  0  0  0  0  0
    5.0739   -0.2222   -3.7226 H   0  0  0  0  0  0  0  0  0  0  0  0
    6.9062    1.3055   -4.2247 H   0  0  0  0  0  0  0  0  0  0  0  0
    5.9277    3.6961   -0.7860 H   0  0  0  0  0  0  0  0  0  0  0  0
  1  2  2  0
  2  3  1  0
  3  4  1  0
  4  5  1  0
  5  6  2  0
  6  7  1  0
  7  8  2  0
  8  9  1  0
  9 10  1  0
 10 11  2  0
 11 12  1  0
 12 13  2  0
 13 14  1  0
  8 15  1  0
 15 16  1  0
 16 17  1  0
 17 18  2  0
 18 19  1  0
 19 20  2  0
 20 21  1  0
  2 22  1  0
 22 23  1  0
 23 24  2  0
 24 25  1  0
 25 26  2  0
 26 27  1  0
 26 28  1  0
 28 29  2  0
 29 30  1  0
 15  5  1  0
 21 17  1  0
 29 23  1  0
 14 10  1  0
  3 31  1  0
  3 32  1  0
  9 33  1  0
  9 34  1  0
 11 35  1  0
 12 36  1  0
 13 37  1  0
 16 38  1  0
 16 39  1  0
 18 40  1  0
 19 41  1  0
 20 42  1  0
 22 43  1  0
 24 44  1  0
 25 45  1  0
 28 46  1  0
M  END
$$$$
