
     RDKit          3D

 60 64  0  0  0  0  0  0  0  0999 V2000
   -0.2531   -2.7836    2.3585 C   0  0  0  0  0  0  0  0  0  0  0  0
   -1.3084   -1.8508    1.9737 N   0  0  0  0  0  0  0  0  0  0  0  0
   -2.5300   -2.4077    1.5903 C   0  0  0  0  0  0  0  0  0  0  0  0
   -2.7185   -3.6284    1.5861 O   0  0  0  0  0  0  0  0  0  0  0  0
   -3.6277   -1.5034    1.1136 C   0  0  0  0  0  0  0  0  0  0  0  0
   -4.5230   -2.0323    0.2568 C   0  0  0  0  0  0  0  0  0  0  0  0
   -5.6939   -1.3503   -0.3042 C   0  0  0  0  0  0  0  0  0  0  0  0
   -6.9673   -1.6360    0.1959 C   0  0  0  0  0  0  0  0  0  0  0  0
   -8.0908   -0.9927   -0.3303 C   0  0  0  0  0  0  0  0  0  0  0  0
   -7.9575   -0.0613   -1.3713 C   0  0  0  0  0  0  0  0  0  0  0  0
   -9.1656    0.6534   -1.9253 C   0  0  0  0  0  0  0  0  0  0  0  0
   -9.3815    1.8527   -1.3184 F   0  0  0  0  0  0  0  0  0  0  0  0
  -10.3218   -0.0527   -1.7812 F   0  0  0  0  0  0  0  0  0  0  0  0
   -9.0602    0.9223   -3.2570 F   0  0  0  0  0  0  0  0  0  0  0  0
   -6.6751    0.2229   -1.8653 C   0  0  0  0  0  0  0  0  0  0  0  0
   -5.5520   -0.4202   -1.3386 C   0  0  0  0  0  0  0  0  0  0  0  0
   -3.7505    0.0811    1.7641 S   0  0  0  0  0  0  0  0  0  0  0  0
   -2.0322    0.5091    1.8081 C   0  0  0  0  0  0  0  0  0  0  0  0
   -1.7236    1.8812    1.7853 C   0  0  0  0  0  0  0  0  0  0  0  0
   -0.4042    2.3169    1.8697 C   0  0  0  0  0  0  0  0  0  0  0  0
    0.6148    1.3756    1.9720 C   0  0  0  0  0  0  0  0  0  0  0  0
    2.0127    1.8478    2.0835 C   0  0  0  0  0  0  0  0  0  0  0  0
    2.2740    2.6478    2.9777 O   0  0  0  0  0  0  0  0  0  0  0  0
    2.9550    1.3683    1.1822 N   0  0  0  0  0  0  0  0  0  0  0  0
    4.3436    1.8074    1.3319 C   0  0  0  0  0  0  0  0  0  0  0  0
    5.3635    0.8078    0.7547 C   0  0  0  0  0  0  0  0  0  0  0  0
    5.0161    0.3581   -0.6070 N   0  0  0  0  0  0  0  0  0  0  0  0
    6.0508    0.2424   -1.5349 C   0  0  0  0  0  0  0  0  0  0  0  0
    7.2799   -0.3134   -1.1716 C   0  0  0  0  0  0  0  0  0  0  0  0
    8.3009   -0.4383   -2.1136 C   0  0  0  0  0  0  0  0  0  0  0  0
    8.0770   -0.0140   -3.4126 C   0  0  0  0  0  0  0  0  0  0  0  0
    6.8345    0.5098   -3.7093 C   0  0  0  0  0  0  0  0  0  0  0  0
    5.8332    0.6379   -2.8092 N   0  0  0  0  0  0  0  0  0  0  0  0
    3.7318    0.8268   -1.1479 C   0  0  0  0  0  0  0  0  0  0  0  0
    2.6266    0.6932   -0.0839 C   0  0  0  0  0  0  0  0  0  0  0  0
    0.3150    0.0081    2.0295 C   0  0  0  0  0  0  0  0  0  0  0  0
   -1.0127   -0.4490    1.9322 C   0  0  0  0  0  0  0  0  0  0  0  0
   -0.6369   -3.7922    2.5372 H   0  0  0  0  0  0  0  0  0  0  0  0
    0.4850   -2.8428    1.5522 H   0  0  0  0  0  0  0  0  0  0  0  0
    0.2177   -2.4497    3.2890 H   0  0  0  0  0  0  0  0  0  0  0  0
   -4.4186   -3.0646   -0.0756 H   0  0  0  0  0  0  0  0  0  0  0  0
   -7.0930   -2.3551    1.0028 H   0  0  0  0  0  0  0  0  0  0  0  0
   -9.0740   -1.2225    0.0778 H   0  0  0  0  0  0  0  0  0  0  0  0
   -6.5458    0.9493   -2.6665 H   0  0  0  0  0  0  0  0  0  0  0  0
   -4.5678   -0.1872   -1.7388 H   0  0  0  0  0  0  0  0  0  0  0  0
   -2.5172    2.6238    1.7153 H   0  0  0  0  0  0  0  0  0  0  0  0
   -0.1747    3.3801    1.8659 H   0  0  0  0  0  0  0  0  0  0  0  0
    4.4285    2.7698    0.8118 H   0  0  0  0  0  0  0  0  0  0  0  0
    4.5673    1.9906    2.3887 H   0  0  0  0  0  0  0  0  0  0  0  0
    5.3990   -0.0784    1.3999 H   0  0  0  0  0  0  0  0  0  0  0  0
    6.3503    1.2861    0.7920 H   0  0  0  0  0  0  0  0  0  0  0  0
    7.4472   -0.6737   -0.1624 H   0  0  0  0  0  0  0  0  0  0  0  0
    9.2556   -0.8717   -1.8312 H   0  0  0  0  0  0  0  0  0  0  0  0
    8.8437   -0.0962   -4.1736 H   0  0  0  0  0  0  0  0  0  0  0  0
    6.5970    0.8521   -4.7122 H   0  0  0  0  0  0  0  0  0  0  0  0
    3.8134    1.8754   -1.4629 H   0  0  0  0  0  0  0  0  0  0  0  0
    3.4328    0.2287   -2.0178 H   0  0  0  0  0  0  0  0  0  0  0  0
    2.4804   -0.3670    0.1517 H   0  0  0  0  0  0  0  0  0  0  0  0
    1.6854    1.0899   -0.4779 H   0  0  0  0  0  0  0  0  0  0  0  0
    1.1451   -0.6815    2.1497 H   0  0  0  0  0  0  0  0  0  0  0  0
  1  2  1  0
  2  3  1  0
  3  4  2  0
  3  5  1  0
  5  6  2  3
  6  7  1  0
  7  8  2  0
  8  9  1  0
  9 10  2  0
 10 11  1  0
 11 12  1  0
 11 13  1  0
 11 14  1  0
 10 15  1  0
 15 16  2  0
  5 17  1  0
 17 18  1  0
 18 19  2  0
 19 20  1  0
 20 21  2  0
 21 22  1  0
 22 23  2  0
 22 24  1  0
 24 25  1  0
 25 26  1  0
 26 27  1  0
 27 28  1  0
 28 29  2  0
 29 30  1  0
 30 31  2  0
 31 32  1  0
 32 33  2  0
 27 34  1  0
 34 35  1  0
 21 36  1  0
 36 37  2  0
 37  2  1  0
 16  7  1  0
 37 18  1  0
 35 24  1  0
 33 28  1  0
  1 38  1  0
  1 39  1  0
  1 40  1  0
  6 41  1  0
  8 42  1  0
  9 43  1  0
 15 44  1  0
 16 45  1  0
 19 46  1  0
 20 47  1  0
 25 48  1  0
 25 49  1  0
 26 50  1  0
 26 51  1  0
 29 52  1  0
 30 53  1  0
 31 54  1  0
 32 55  1  0
 34 56  1  0
 34 57  1  0
 35 58  1  0
 35 59  1  0
 36 60  1  0
M  END
$$$$
