
     RDKit          3D

 28 28  0  0  0  0  0  0  0  0999 V2000
   -1.9285   -1.5611    1.1305 C   0  0  0  0  0  0  0  0  0  0  0  0
   -1.9348   -0.5783   -0.0464 C   0  0  0  0  0  0  0  0  0  0  0  0
   -1.8945   -1.3943   -1.3522 C   0  0  0  0  0  0  0  0  0  0  0  0
   -3.2209    0.2591   -0.0278 C   0  0  0  0  0  0  0  0  0  0  0  0
   -0.7226    0.3801   -0.0071 C   0  0  0  0  0  0  0  0  0  0  0  0
   -0.0578    0.6037   -1.0246 O   0  0  0  0  0  0  0  0  0  0  0  0
   -0.3946    1.1014    1.2909 C   0  0  0  0  0  0  0  0  0  0  0  0
    0.8909    0.2343    2.2266 S   0  0  0  0  0  0  0  0  0  0  0  0
    2.2427    0.4797    1.1090 C   0  0  0  0  0  0  0  0  0  0  0  0
    2.8617   -0.6217    0.6532 N   0  0  0  0  0  0  0  0  0  0  0  0
    3.8729   -0.4151   -0.2092 C   0  0  0  0  0  0  0  0  0  0  0  0
    4.2873    0.8329   -0.6094 C   0  0  0  0  0  0  0  0  0  0  0  0
    3.5972    1.8893   -0.0641 C   0  0  0  0  0  0  0  0  0  0  0  0
    2.5787    1.7446    0.8030 N   0  0  0  0  0  0  0  0  0  0  0  0
   -0.9932   -2.1308    1.1647 H   0  0  0  0  0  0  0  0  0  0  0  0
   -2.7524   -2.2795    1.0493 H   0  0  0  0  0  0  0  0  0  0  0  0
   -2.0432   -1.0501    2.0920 H   0  0  0  0  0  0  0  0  0  0  0  0
   -0.9694   -1.9782   -1.4238 H   0  0  0  0  0  0  0  0  0  0  0  0
   -2.7376   -2.0917   -1.4129 H   0  0  0  0  0  0  0  0  0  0  0  0
   -1.9406   -0.7436   -2.2332 H   0  0  0  0  0  0  0  0  0  0  0  0
   -4.1082   -0.3738   -0.1408 H   0  0  0  0  0  0  0  0  0  0  0  0
   -3.3298    0.8145    0.9097 H   0  0  0  0  0  0  0  0  0  0  0  0
   -3.2250    0.9936   -0.8415 H   0  0  0  0  0  0  0  0  0  0  0  0
   -0.0911    2.1276    1.0584 H   0  0  0  0  0  0  0  0  0  0  0  0
   -1.2907    1.1825    1.9110 H   0  0  0  0  0  0  0  0  0  0  0  0
    4.3546   -1.3140   -0.5825 H   0  0  0  0  0  0  0  0  0  0  0  0
    5.1001    0.9740   -1.3074 H   0  0  0  0  0  0  0  0  0  0  0  0
    3.8488    2.9149   -0.3172 H   0  0  0  0  0  0  0  0  0  0  0  0
  1  2  1  0
  2  3  1  0
  2  4  1  0
  2  5  1  0
  5  6  2  0
  5  7  1  0
  7  8  1  0
  8  9  1  0
  9 10  2  0
 10 11  1  0
 11 12  2  0
 12 13  1  0
 13 14  2  0
 14  9  1  0
  1 15  1  0
  1 16  1  0
  1 17  1  0
  3 18  1  0
  3 19  1  0
  3 20  1  0
  4 21  1  0
  4 22  1  0
  4 23  1  0
  7 24  1  0
  7 25  1  0
 11 26  1  0
 12 27  1  0
 13 28  1  0
M  END
$$$$
