
     RDKit          3D

 40 42  0  0  0  0  0  0  0  0999 V2000
   -4.7144   -1.8929    1.1274 C   0  0  0  0  0  0  0  0  0  0  0  0
   -3.4766   -1.3342    0.5905 N   0  0  0  0  0  0  0  0  0  0  0  0
   -2.3481   -2.1698    0.5986 C   0  0  0  0  0  0  0  0  0  0  0  0
   -2.4119   -3.3920    0.7381 O   0  0  0  0  0  0  0  0  0  0  0  0
   -0.9842   -1.5753    0.5564 C   0  0  0  0  0  0  0  0  0  0  0  0
   -0.6656   -0.4253    1.2844 C   0  0  0  0  0  0  0  0  0  0  0  0
    0.6331    0.0918    1.2378 C   0  0  0  0  0  0  0  0  0  0  0  0
    1.6301   -0.5392    0.4810 C   0  0  0  0  0  0  0  0  0  0  0  0
    2.9061    0.0521    0.4873 N   0  0  0  0  0  0  0  0  0  0  0  0
    4.0479   -0.3544   -0.1807 C   0  0  0  0  0  0  0  0  0  0  0  0
    4.1328   -1.3284   -0.9210 O   0  0  0  0  0  0  0  0  0  0  0  0
    5.1826    0.5149    0.0803 C   0  0  0  0  0  0  0  0  0  0  0  0
    6.4871    0.4701   -0.3745 C   0  0  0  0  0  0  0  0  0  0  0  0
    7.1601    1.5721    0.2044 C   0  0  0  0  0  0  0  0  0  0  0  0
    6.2301    2.2253    0.9776 C   0  0  0  0  0  0  0  0  0  0  0  0
    5.0278    1.5969    0.9119 O   0  0  0  0  0  0  0  0  0  0  0  0
    1.3118   -1.7049   -0.2191 C   0  0  0  0  0  0  0  0  0  0  0  0
    0.0135   -2.2269   -0.1748 C   0  0  0  0  0  0  0  0  0  0  0  0
   -3.5630   -0.0650   -0.0729 C   0  0  0  0  0  0  0  0  0  0  0  0
   -4.4997    0.8944    0.3428 C   0  0  0  0  0  0  0  0  0  0  0  0
   -4.6020    2.1318   -0.3019 C   0  0  0  0  0  0  0  0  0  0  0  0
   -3.7794    2.4253   -1.3844 C   0  0  0  0  0  0  0  0  0  0  0  0
   -2.8619    1.4784   -1.8274 C   0  0  0  0  0  0  0  0  0  0  0  0
   -2.7601    0.2419   -1.1811 C   0  0  0  0  0  0  0  0  0  0  0  0
   -4.6139   -2.9539    1.3734 H   0  0  0  0  0  0  0  0  0  0  0  0
   -4.9743   -1.3656    2.0505 H   0  0  0  0  0  0  0  0  0  0  0  0
   -5.5194   -1.7912    0.3923 H   0  0  0  0  0  0  0  0  0  0  0  0
   -1.4174    0.0718    1.8917 H   0  0  0  0  0  0  0  0  0  0  0  0
    0.8522    0.9933    1.8049 H   0  0  0  0  0  0  0  0  0  0  0  0
    3.0250    0.8903    1.0465 H   0  0  0  0  0  0  0  0  0  0  0  0
    6.8906   -0.2773   -1.0449 H   0  0  0  0  0  0  0  0  0  0  0  0
    8.1955    1.8551    0.0745 H   0  0  0  0  0  0  0  0  0  0  0  0
    6.2649    3.1064    1.6038 H   0  0  0  0  0  0  0  0  0  0  0  0
    2.0513   -2.2421   -0.8050 H   0  0  0  0  0  0  0  0  0  0  0  0
   -0.2152   -3.1444   -0.7136 H   0  0  0  0  0  0  0  0  0  0  0  0
   -5.1506    0.7138    1.1932 H   0  0  0  0  0  0  0  0  0  0  0  0
   -5.3259    2.8651    0.0446 H   0  0  0  0  0  0  0  0  0  0  0  0
   -3.8602    3.3847   -1.8885 H   0  0  0  0  0  0  0  0  0  0  0  0
   -2.2303    1.6922   -2.6862 H   0  0  0  0  0  0  0  0  0  0  0  0
   -2.0683   -0.4850   -1.5966 H   0  0  0  0  0  0  0  0  0  0  0  0
  1  2  1  0
  2  3  1  0
  3  4  2  0
  3  5  1  0
  5  6  2  0
  6  7  1  0
  7  8  2  0
  8  9  1  0
  9 10  1  0
 10 11  2  0
 10 12  1  0
 12 13  2  0
 13 14  1  0
 14 15  2  0
 15 16  1  0
  8 17  1  0
 17 18  2  0
  2 19  1  0
 19 20  2  0
 20 21  1  0
 21 22  2  0
 22 23  1  0
 23 24  2  0
 18  5  1  0
 24 19  1  0
 16 12  1  0
  1 25  1  0
  1 26  1  0
  1 27  1  0
  6 28  1  0
  7 29  1  0
  9 30  1  0
 13 31  1  0
 14 32  1  0
 15 33  1  0
 17 34  1  0
 18 35  1  0
 20 36  1  0
 21 37  1  0
 22 38  1  0
 23 39  1  0
 24 40  1  0
M  END
$$$$
