
     RDKit          3D

 59 62  0  0  0  0  0  0  0  0999 V2000
   -8.6492    3.5045   -0.9000 C   0  0  0  0  0  0  0  0  0  0  0  0
   -7.8221    2.3164   -0.5041 C   0  0  0  0  0  0  0  0  0  0  0  0
   -7.1608    1.5602   -1.4814 C   0  0  0  0  0  0  0  0  0  0  0  0
   -6.3697    0.4695   -1.1159 C   0  0  0  0  0  0  0  0  0  0  0  0
   -6.2147    0.1444    0.2342 C   0  0  0  0  0  0  0  0  0  0  0  0
   -5.3863   -1.0302    0.5978 C   0  0  0  0  0  0  0  0  0  0  0  0
   -5.5352   -2.0662   -0.0458 O   0  0  0  0  0  0  0  0  0  0  0  0
   -4.4901   -0.9134    1.6636 N   0  0  0  0  0  0  0  0  0  0  0  0
   -3.7165    0.3176    1.8862 C   0  0  0  0  0  0  0  0  0  0  0  0
   -2.3765    0.2795    1.1138 C   0  0  0  0  0  0  0  0  0  0  0  0
   -1.6185   -0.9582    1.4413 N   0  0  0  0  0  0  0  0  0  0  0  0
   -0.2993   -0.9448    0.9600 C   0  0  0  0  0  0  0  0  0  0  0  0
    0.1966   -1.8578    0.0216 C   0  0  0  0  0  0  0  0  0  0  0  0
    1.5273   -1.8093   -0.4246 C   0  0  0  0  0  0  0  0  0  0  0  0
    2.4060   -0.8491    0.0679 C   0  0  0  0  0  0  0  0  0  0  0  0
    3.7532   -0.7323   -0.3224 N   0  0  0  0  0  0  0  0  0  0  0  0
    4.4591   -1.5196   -1.2095 C   0  0  0  0  0  0  0  0  0  0  0  0
    4.0051   -2.4763   -1.8371 O   0  0  0  0  0  0  0  0  0  0  0  0
    5.9110   -1.1070   -1.4378 C   0  0  0  0  0  0  0  0  0  0  0  0
    6.5525    0.0801   -0.2048 S   0  0  0  0  0  0  0  0  0  0  0  0
    8.1903    0.3226   -0.8641 C   0  0  0  0  0  0  0  0  0  0  0  0
    9.1272   -0.7168   -0.8694 C   0  0  0  0  0  0  0  0  0  0  0  0
   10.4103   -0.5059   -1.3822 C   0  0  0  0  0  0  0  0  0  0  0  0
   10.7587    0.7468   -1.8837 C   0  0  0  0  0  0  0  0  0  0  0  0
   12.3385    1.0070   -2.5137 Cl  0  0  0  0  0  0  0  0  0  0  0  0
    9.8362    1.7912   -1.8726 C   0  0  0  0  0  0  0  0  0  0  0  0
    8.5538    1.5799   -1.3582 C   0  0  0  0  0  0  0  0  0  0  0  0
    1.9332    0.0618    1.0141 C   0  0  0  0  0  0  0  0  0  0  0  0
    0.6033    0.0100    1.4515 C   0  0  0  0  0  0  0  0  0  0  0  0
   -2.4145   -2.1965    1.2299 C   0  0  0  0  0  0  0  0  0  0  0  0
   -3.7333   -2.1167    2.0241 C   0  0  0  0  0  0  0  0  0  0  0  0
   -6.8781    0.8868    1.2167 C   0  0  0  0  0  0  0  0  0  0  0  0
   -7.6685    1.9771    0.8472 C   0  0  0  0  0  0  0  0  0  0  0  0
   -9.4392    3.6950   -0.1656 H   0  0  0  0  0  0  0  0  0  0  0  0
   -9.1379    3.3344   -1.8653 H   0  0  0  0  0  0  0  0  0  0  0  0
   -8.0149    4.3933   -0.9744 H   0  0  0  0  0  0  0  0  0  0  0  0
   -7.2669    1.8098   -2.5350 H   0  0  0  0  0  0  0  0  0  0  0  0
   -5.8778   -0.1263   -1.8815 H   0  0  0  0  0  0  0  0  0  0  0  0
   -3.5265    0.3895    2.9637 H   0  0  0  0  0  0  0  0  0  0  0  0
   -4.2724    1.2074    1.5846 H   0  0  0  0  0  0  0  0  0  0  0  0
   -1.8137    1.1827    1.3758 H   0  0  0  0  0  0  0  0  0  0  0  0
   -2.5747    0.3080    0.0338 H   0  0  0  0  0  0  0  0  0  0  0  0
   -0.4407   -2.6257   -0.4069 H   0  0  0  0  0  0  0  0  0  0  0  0
    1.8374   -2.5443   -1.1603 H   0  0  0  0  0  0  0  0  0  0  0  0
    4.2916    0.0022    0.1264 H   0  0  0  0  0  0  0  0  0  0  0  0
    5.9780   -0.6603   -2.4349 H   0  0  0  0  0  0  0  0  0  0  0  0
    6.5199   -2.0159   -1.4062 H   0  0  0  0  0  0  0  0  0  0  0  0
    8.8741   -1.6956   -0.4676 H   0  0  0  0  0  0  0  0  0  0  0  0
   11.1318   -1.3189   -1.3821 H   0  0  0  0  0  0  0  0  0  0  0  0
   10.1082    2.7706   -2.2581 H   0  0  0  0  0  0  0  0  0  0  0  0
    7.8447    2.4048   -1.3496 H   0  0  0  0  0  0  0  0  0  0  0  0
    2.5872    0.8199    1.4363 H   0  0  0  0  0  0  0  0  0  0  0  0
    0.2809    0.7149    2.2139 H   0  0  0  0  0  0  0  0  0  0  0  0
   -2.6396   -2.3222    0.1635 H   0  0  0  0  0  0  0  0  0  0  0  0
   -1.8543   -3.0720    1.5791 H   0  0  0  0  0  0  0  0  0  0  0  0
   -3.5255   -2.0615    3.0991 H   0  0  0  0  0  0  0  0  0  0  0  0
   -4.3360   -3.0140    1.8488 H   0  0  0  0  0  0  0  0  0  0  0  0
   -6.7888    0.6148    2.2655 H   0  0  0  0  0  0  0  0  0  0  0  0
   -8.1738    2.5540    1.6191 H   0  0  0  0  0  0  0  0  0  0  0  0
  1  2  1  0
  2  3  2  0
  3  4  1  0
  4  5  2  0
  5  6  1  0
  6  7  2  0
  6  8  1  0
  8  9  1  0
  9 10  1  0
 10 11  1  0
 11 12  1  0
 12 13  2  0
 13 14  1  0
 14 15  2  0
 15 16  1  0
 16 17  1  0
 17 18  2  0
 17 19  1  0
 19 20  1  0
 20 21  1  0
 21 22  2  0
 22 23  1  0
 23 24  2  0
 24 25  1  0
 24 26  1  0
 26 27  2  0
 15 28  1  0
 28 29  2  0
 11 30  1  0
 30 31  1  0
  5 32  1  0
 32 33  2  0
 33  2  1  0
 31  8  1  0
 29 12  1  0
 27 21  1  0
  1 34  1  0
  1 35  1  0
  1 36  1  0
  3 37  1  0
  4 38  1  0
  9 39  1  0
  9 40  1  0
 10 41  1  0
 10 42  1  0
 13 43  1  0
 14 44  1  0
 16 45  1  0
 19 46  1  0
 19 47  1  0
 22 48  1  0
 23 49  1  0
 26 50  1  0
 27 51  1  0
 28 52  1  0
 29 53  1  0
 30 54  1  0
 30 55  1  0
 31 56  1  0
 31 57  1  0
 32 58  1  0
 33 59  1  0
M  END
$$$$
