
     RDKit          3D

 42 46  0  0  0  0  0  0  0  0999 V2000
    5.1519    1.9367    0.7368 C   0  0  0  0  0  0  0  0  0  0  0  0
    5.2977    0.6601    0.1978 C   0  0  0  0  0  0  0  0  0  0  0  0
    4.1802   -0.0556   -0.2570 C   0  0  0  0  0  0  0  0  0  0  0  0
    4.3166   -1.3382   -0.7987 C   0  0  0  0  0  0  0  0  0  0  0  0
    3.1989   -2.0420   -1.2478 C   0  0  0  0  0  0  0  0  0  0  0  0
    1.9174   -1.4812   -1.1671 C   0  0  0  0  0  0  0  0  0  0  0  0
    0.8021   -2.1906   -1.6199 C   0  0  0  0  0  0  0  0  0  0  0  0
   -0.4707   -1.6316   -1.5426 C   0  0  0  0  0  0  0  0  0  0  0  0
   -0.6658   -0.3463   -1.0066 C   0  0  0  0  0  0  0  0  0  0  0  0
   -2.0867    0.1979   -0.9712 C   0  0  0  0  0  0  0  0  0  0  0  0
   -2.6320    0.3679    0.3859 N   0  0  0  0  0  0  0  0  0  0  0  0
   -3.9435    1.0514    0.3560 C   0  0  0  0  0  0  0  0  0  0  0  0
   -5.1038    0.1617   -0.1238 C   0  0  0  0  0  0  0  0  0  0  0  0
   -5.2007   -1.0387    0.6513 O   0  0  0  0  0  0  0  0  0  0  0  0
   -3.9673   -1.7682    0.6222 C   0  0  0  0  0  0  0  0  0  0  0  0
   -2.7946   -0.9068    1.1189 C   0  0  0  0  0  0  0  0  0  0  0  0
    0.4550    0.3937   -0.5362 C   0  0  0  0  0  0  0  0  0  0  0  0
    0.3556    1.6866    0.0184 C   0  0  0  0  0  0  0  0  0  0  0  0
    1.4785    2.3867    0.4676 C   0  0  0  0  0  0  0  0  0  0  0  0
    2.7519    1.8206    0.3804 C   0  0  0  0  0  0  0  0  0  0  0  0
    3.8868    2.5133    0.8279 C   0  0  0  0  0  0  0  0  0  0  0  0
    2.8925    0.5261   -0.1673 C   0  0  0  0  0  0  0  0  0  0  0  0
    1.7491   -0.1852   -0.6233 C   0  0  0  0  0  0  0  0  0  0  0  0
    6.0243    2.4822    1.0868 H   0  0  0  0  0  0  0  0  0  0  0  0
    6.2931    0.2262    0.1355 H   0  0  0  0  0  0  0  0  0  0  0  0
    5.2966   -1.8035   -0.8763 H   0  0  0  0  0  0  0  0  0  0  0  0
    3.3404   -3.0373   -1.6635 H   0  0  0  0  0  0  0  0  0  0  0  0
    0.9143   -3.1875   -2.0402 H   0  0  0  0  0  0  0  0  0  0  0  0
   -1.3168   -2.2107   -1.9064 H   0  0  0  0  0  0  0  0  0  0  0  0
   -2.0670    1.1676   -1.4870 H   0  0  0  0  0  0  0  0  0  0  0  0
   -2.7381   -0.4351   -1.5861 H   0  0  0  0  0  0  0  0  0  0  0  0
   -4.1624    1.3810    1.3800 H   0  0  0  0  0  0  0  0  0  0  0  0
   -3.8903    1.9631   -0.2505 H   0  0  0  0  0  0  0  0  0  0  0  0
   -6.0497    0.7014   -0.0114 H   0  0  0  0  0  0  0  0  0  0  0  0
   -5.0021   -0.1016   -1.1826 H   0  0  0  0  0  0  0  0  0  0  0  0
   -3.7952   -2.1440   -0.3926 H   0  0  0  0  0  0  0  0  0  0  0  0
   -4.0867   -2.6375    1.2768 H   0  0  0  0  0  0  0  0  0  0  0  0
   -2.9806   -0.6508    2.1705 H   0  0  0  0  0  0  0  0  0  0  0  0
   -1.8691   -1.4920    1.1192 H   0  0  0  0  0  0  0  0  0  0  0  0
   -0.6126    2.1710    0.1225 H   0  0  0  0  0  0  0  0  0  0  0  0
    1.3413    3.3790    0.8909 H   0  0  0  0  0  0  0  0  0  0  0  0
    3.7917    3.5102    1.2525 H   0  0  0  0  0  0  0  0  0  0  0  0
  1  2  2  0
  2  3  1  0
  3  4  2  0
  4  5  1  0
  5  6  2  0
  6  7  1  0
  7  8  2  0
  8  9  1  0
  9 10  1  0
 10 11  1  0
 11 12  1  0
 12 13  1  0
 13 14  1  0
 14 15  1  0
 15 16  1  0
  9 17  2  0
 17 18  1  0
 18 19  2  0
 19 20  1  0
 20 21  2  0
 20 22  1  0
 22 23  2  0
 21  1  1  0
 22  3  1  0
 23  6  1  0
 16 11  1  0
 23 17  1  0
  1 24  1  0
  2 25  1  0
  4 26  1  0
  5 27  1  0
  7 28  1  0
  8 29  1  0
 10 30  1  0
 10 31  1  0
 12 32  1  0
 12 33  1  0
 13 34  1  0
 13 35  1  0
 15 36  1  0
 15 37  1  0
 16 38  1  0
 16 39  1  0
 18 40  1  0
 19 41  1  0
 21 42  1  0
M  END
$$$$
