
     RDKit          3D

 65 69  0  0  0  0  0  0  0  0999 V2000
    5.9399    1.2234    0.7492 O   0  0  0  0  0  0  0  0  0  0  0  0
    5.6520    0.0315    0.9121 C   0  0  0  0  0  0  0  0  0  0  0  0
    6.3920   -0.8442    1.9655 C   0  0  0  0  0  0  0  0  0  0  0  0
    7.4852   -0.1517    2.8345 C   0  0  0  0  0  0  0  0  0  0  0  0
    8.2843   -1.4651    2.7661 C   0  0  0  0  0  0  0  0  0  0  0  0
    7.5366   -1.7665    1.4545 C   0  0  0  0  0  0  0  0  0  0  0  0
    4.6561   -0.6128    0.1829 N   0  0  0  0  0  0  0  0  0  0  0  0
    4.2523   -2.0189    0.3461 C   0  0  0  0  0  0  0  0  0  0  0  0
    3.1468   -2.3107   -0.6763 C   0  0  0  0  0  0  0  0  0  0  0  0
    2.9910   -0.9894   -1.3573 C   0  0  0  0  0  0  0  0  0  0  0  0
    2.1131   -0.6772   -2.3861 C   0  0  0  0  0  0  0  0  0  0  0  0
    2.1282    0.6294   -2.8832 C   0  0  0  0  0  0  0  0  0  0  0  0
    1.0375    1.0804   -4.2127 S   0  0  0  0  0  6  0  0  0  0  0  0
    1.6796    2.1244   -4.9801 O   0  0  0  0  0  0  0  0  0  0  0  0
    0.5535   -0.1334   -4.8311 O   0  0  0  0  0  0  0  0  0  0  0  0
   -0.2388    1.8057   -3.4041 N   0  0  0  0  0  0  0  0  0  0  0  0
   -1.0133    1.0340   -2.4240 C   0  0  0  0  0  0  0  0  0  0  0  0
   -2.4479    1.5908   -2.3463 C   0  0  0  0  0  0  0  0  0  0  0  0
   -3.3456    0.8232   -1.4640 N   0  0  0  0  0  0  0  0  0  0  0  0
   -2.9595    0.9244   -0.0360 C   0  0  0  0  0  0  0  0  0  0  0  0
   -3.9473    0.1882    0.9052 C   0  0  0  0  0  0  0  0  0  0  0  0
   -5.3093    0.7352    0.7218 N   0  0  0  0  0  0  0  0  0  0  0  0
   -6.2356    0.1745    1.6321 C   0  0  0  0  0  0  0  0  0  0  0  0
   -6.8431    1.0415    2.5515 C   0  0  0  0  0  0  0  0  0  0  0  0
   -7.7677    0.5684    3.4882 C   0  0  0  0  0  0  0  0  0  0  0  0
   -8.1008   -0.7849    3.5206 C   0  0  0  0  0  0  0  0  0  0  0  0
   -7.5098   -1.6636    2.6162 C   0  0  0  0  0  0  0  0  0  0  0  0
   -6.5887   -1.1851    1.6854 C   0  0  0  0  0  0  0  0  0  0  0  0
   -6.0382   -2.0644    0.8333 F   0  0  0  0  0  0  0  0  0  0  0  0
   -5.7475    0.5904   -0.6864 C   0  0  0  0  0  0  0  0  0  0  0  0
   -4.7429    1.3076   -1.6209 C   0  0  0  0  0  0  0  0  0  0  0  0
    3.0225    1.5885   -2.3773 C   0  0  0  0  0  0  0  0  0  0  0  0
    3.9012    1.2521   -1.3424 C   0  0  0  0  0  0  0  0  0  0  0  0
    3.8746   -0.0393   -0.8384 C   0  0  0  0  0  0  0  0  0  0  0  0
    5.6850   -1.3837    2.6124 H   0  0  0  0  0  0  0  0  0  0  0  0
    7.9947    0.6889    2.3471 H   0  0  0  0  0  0  0  0  0  0  0  0
    7.1735    0.1592    3.8362 H   0  0  0  0  0  0  0  0  0  0  0  0
    9.3682   -1.3578    2.6829 H   0  0  0  0  0  0  0  0  0  0  0  0
    8.0531   -2.1645    3.5776 H   0  0  0  0  0  0  0  0  0  0  0  0
    8.0480   -1.3948    0.5590 H   0  0  0  0  0  0  0  0  0  0  0  0
    7.2747   -2.8164    1.3013 H   0  0  0  0  0  0  0  0  0  0  0  0
    5.1193   -2.6685    0.1867 H   0  0  0  0  0  0  0  0  0  0  0  0
    3.8935   -2.1712    1.3702 H   0  0  0  0  0  0  0  0  0  0  0  0
    3.4582   -3.0882   -1.3815 H   0  0  0  0  0  0  0  0  0  0  0  0
    2.2189   -2.6138   -0.1795 H   0  0  0  0  0  0  0  0  0  0  0  0
    1.4405   -1.4278   -2.7923 H   0  0  0  0  0  0  0  0  0  0  0  0
   -0.1220    2.8078   -3.2641 H   0  0  0  0  0  0  0  0  0  0  0  0
   -1.0532   -0.0227   -2.7086 H   0  0  0  0  0  0  0  0  0  0  0  0
   -0.5167    1.1179   -1.4527 H   0  0  0  0  0  0  0  0  0  0  0  0
   -2.8572    1.5731   -3.3651 H   0  0  0  0  0  0  0  0  0  0  0  0
   -2.4167    2.6464   -2.0457 H   0  0  0  0  0  0  0  0  0  0  0  0
   -2.9009    1.9794    0.2658 H   0  0  0  0  0  0  0  0  0  0  0  0
   -1.9706    0.4793    0.1165 H   0  0  0  0  0  0  0  0  0  0  0  0
   -3.9117   -0.8886    0.6860 H   0  0  0  0  0  0  0  0  0  0  0  0
   -3.6187    0.3348    1.9424 H   0  0  0  0  0  0  0  0  0  0  0  0
   -6.5906    2.0995    2.5346 H   0  0  0  0  0  0  0  0  0  0  0  0
   -8.2244    1.2599    4.1915 H   0  0  0  0  0  0  0  0  0  0  0  0
   -8.8192   -1.1530    4.2488 H   0  0  0  0  0  0  0  0  0  0  0  0
   -7.7562   -2.7208    2.6270 H   0  0  0  0  0  0  0  0  0  0  0  0
   -5.8202   -0.4648   -0.9800 H   0  0  0  0  0  0  0  0  0  0  0  0
   -6.7360    1.0494   -0.8166 H   0  0  0  0  0  0  0  0  0  0  0  0
   -5.0692    1.1491   -2.6562 H   0  0  0  0  0  0  0  0  0  0  0  0
   -4.7875    2.3875   -1.4229 H   0  0  0  0  0  0  0  0  0  0  0  0
    3.0456    2.5954   -2.7884 H   0  0  0  0  0  0  0  0  0  0  0  0
    4.5875    2.0022   -0.9629 H   0  0  0  0  0  0  0  0  0  0  0  0
  1  2  2  0
  2  3  1  0
  3  4  1  0
  4  5  1  0
  5  6  1  0
  2  7  1  0
  7  8  1  0
  8  9  1  0
  9 10  1  0
 10 11  2  0
 11 12  1  0
 12 13  1  0
 13 14  2  0
 13 15  2  0
 13 16  1  0
 16 17  1  0
 17 18  1  0
 18 19  1  0
 19 20  1  0
 20 21  1  0
 21 22  1  0
 22 23  1  0
 23 24  2  0
 24 25  1  0
 25 26  2  0
 26 27  1  0
 27 28  2  0
 28 29  1  0
 22 30  1  0
 30 31  1  0
 12 32  2  0
 32 33  1  0
 33 34  2  0
  6  3  1  0
 34  7  1  0
 34 10  1  0
 31 19  1  0
 28 23  1  0
  3 35  1  0
  4 36  1  0
  4 37  1  0
  5 38  1  0
  5 39  1  0
  6 40  1  0
  6 41  1  0
  8 42  1  0
  8 43  1  0
  9 44  1  0
  9 45  1  0
 11 46  1  0
 16 47  1  0
 17 48  1  0
 17 49  1  0
 18 50  1  0
 18 51  1  0
 20 52  1  0
 20 53  1  0
 21 54  1  0
 21 55  1  0
 24 56  1  0
 25 57  1  0
 26 58  1  0
 27 59  1  0
 30 60  1  0
 30 61  1  0
 31 62  1  0
 31 63  1  0
 32 64  1  0
 33 65  1  0
M  END
$$$$
