
     RDKit          3D

 56 58  0  0  0  0  0  0  0  0999 V2000
    9.4598    1.5742   -2.1918 C   0  0  0  0  0  0  0  0  0  0  0  0
    8.2257    1.0086   -1.5116 C   0  0  0  0  0  0  0  0  0  0  0  0
    7.2944    2.0744   -1.3333 O   0  0  0  0  0  0  0  0  0  0  0  0
    6.1180    1.7731   -0.7066 C   0  0  0  0  0  0  0  0  0  0  0  0
    5.7144    0.5118   -0.2751 C   0  0  0  0  0  0  0  0  0  0  0  0
    4.4739    0.3406    0.3572 C   0  0  0  0  0  0  0  0  0  0  0  0
    3.6240    1.4272    0.5658 C   0  0  0  0  0  0  0  0  0  0  0  0
    2.3663    1.3395    1.1977 N   0  0  0  0  0  0  0  0  0  0  0  0
    1.7437    0.2014    1.6845 C   0  0  0  0  0  0  0  0  0  0  0  0
    2.1710   -0.9457    1.6337 O   0  0  0  0  0  0  0  0  0  0  0  0
    0.4051    0.5285    2.3175 C   0  0  0  0  0  0  0  0  0  0  0  0
   -0.2730   -0.7229    2.8604 C   0  0  0  0  0  0  0  0  0  0  0  0
   -1.5705   -0.3472    3.4420 N   0  0  0  0  0  0  0  0  0  0  0  0
   -2.7329   -1.5460    3.6413 S   0  0  0  0  0  6  0  0  0  0  0  0
   -2.0533   -2.7890    3.9268 O   0  0  0  0  0  0  0  0  0  0  0  0
   -3.7377   -0.9999    4.5241 O   0  0  0  0  0  0  0  0  0  0  0  0
   -3.4473   -1.6375    2.0220 C   0  0  0  0  0  0  0  0  0  0  0  0
   -3.3651   -2.8162    1.2838 C   0  0  0  0  0  0  0  0  0  0  0  0
   -3.9350   -2.8727    0.0065 C   0  0  0  0  0  0  0  0  0  0  0  0
   -4.5911   -1.7580   -0.5444 C   0  0  0  0  0  0  0  0  0  0  0  0
   -4.6569   -0.5894    0.2147 C   0  0  0  0  0  0  0  0  0  0  0  0
   -4.0939   -0.5201    1.4976 C   0  0  0  0  0  0  0  0  0  0  0  0
   -5.3248    0.5952   -0.3448 C   0  0  0  0  0  0  0  0  0  0  0  0
   -5.2851    1.6523    0.2806 O   0  0  0  0  0  0  0  0  0  0  0  0
   -5.9492    0.4373   -1.5710 N   0  0  0  0  0  0  0  0  0  0  0  0
   -6.6445    1.5837   -2.1278 C   0  0  0  0  0  0  0  0  0  0  0  0
   -5.8483   -0.6915   -2.3756 C   0  0  0  0  0  0  0  0  0  0  0  0
   -6.3287   -0.7144   -3.5114 O   0  0  0  0  0  0  0  0  0  0  0  0
   -5.1733   -1.7853   -1.8395 N   0  0  0  0  0  0  0  0  0  0  0  0
   -5.0786   -2.9958   -2.6464 C   0  0  0  0  0  0  0  0  0  0  0  0
    4.0332    2.6916    0.1300 C   0  0  0  0  0  0  0  0  0  0  0  0
    5.2688    2.8602   -0.5027 C   0  0  0  0  0  0  0  0  0  0  0  0
   10.2065    0.7924   -2.3582 H   0  0  0  0  0  0  0  0  0  0  0  0
    9.1972    2.0242   -3.1553 H   0  0  0  0  0  0  0  0  0  0  0  0
    9.9067    2.3662   -1.5815 H   0  0  0  0  0  0  0  0  0  0  0  0
    7.7942    0.2277   -2.1471 H   0  0  0  0  0  0  0  0  0  0  0  0
    8.5135    0.5882   -0.5412 H   0  0  0  0  0  0  0  0  0  0  0  0
    6.3352   -0.3675   -0.4129 H   0  0  0  0  0  0  0  0  0  0  0  0
    4.2074   -0.6620    0.6766 H   0  0  0  0  0  0  0  0  0  0  0  0
    1.8632    2.2133    1.2944 H   0  0  0  0  0  0  0  0  0  0  0  0
    0.5655    1.2513    3.1265 H   0  0  0  0  0  0  0  0  0  0  0  0
   -0.2329    1.0021    1.5615 H   0  0  0  0  0  0  0  0  0  0  0  0
    0.3468   -1.1866    3.6359 H   0  0  0  0  0  0  0  0  0  0  0  0
   -0.4146   -1.4467    2.0501 H   0  0  0  0  0  0  0  0  0  0  0  0
   -1.5843    0.3199    4.2137 H   0  0  0  0  0  0  0  0  0  0  0  0
   -2.8622   -3.6935    1.6884 H   0  0  0  0  0  0  0  0  0  0  0  0
   -3.8466   -3.8105   -0.5368 H   0  0  0  0  0  0  0  0  0  0  0  0
   -4.1615    0.3972    2.0803 H   0  0  0  0  0  0  0  0  0  0  0  0
   -6.9249    2.3033   -1.3535 H   0  0  0  0  0  0  0  0  0  0  0  0
   -5.9812    2.0748   -2.8477 H   0  0  0  0  0  0  0  0  0  0  0  0
   -7.5514    1.2611   -2.6486 H   0  0  0  0  0  0  0  0  0  0  0  0
   -5.5483   -2.8793   -3.6270 H   0  0  0  0  0  0  0  0  0  0  0  0
   -5.5881   -3.8147   -2.1295 H   0  0  0  0  0  0  0  0  0  0  0  0
   -4.0253   -3.2436   -2.8106 H   0  0  0  0  0  0  0  0  0  0  0  0
    3.4039    3.5660    0.2727 H   0  0  0  0  0  0  0  0  0  0  0  0
    5.5725    3.8489   -0.8377 H   0  0  0  0  0  0  0  0  0  0  0  0
  1  2  1  0
  2  3  1  0
  3  4  1  0
  4  5  2  0
  5  6  1  0
  6  7  2  0
  7  8  1  0
  8  9  1  0
  9 10  2  0
  9 11  1  0
 11 12  1  0
 12 13  1  0
 13 14  1  0
 14 15  2  0
 14 16  2  0
 14 17  1  0
 17 18  2  0
 18 19  1  0
 19 20  2  0
 20 21  1  0
 21 22  2  0
 21 23  1  0
 23 24  2  0
 23 25  1  0
 25 26  1  0
 25 27  1  0
 27 28  2  0
 27 29  1  0
 29 30  1  0
  7 31  1  0
 31 32  2  0
 32  4  1  0
 22 17  1  0
 29 20  1  0
  1 33  1  0
  1 34  1  0
  1 35  1  0
  2 36  1  0
  2 37  1  0
  5 38  1  0
  6 39  1  0
  8 40  1  0
 11 41  1  0
 11 42  1  0
 12 43  1  0
 12 44  1  0
 13 45  1  0
 18 46  1  0
 19 47  1  0
 22 48  1  0
 26 49  1  0
 26 50  1  0
 26 51  1  0
 30 52  1  0
 30 53  1  0
 30 54  1  0
 31 55  1  0
 32 56  1  0
M  END
$$$$
