
     RDKit          3D

 56 61  0  0  0  0  0  0  0  0999 V2000
   -4.8495   -2.6904    1.8617 C   0  0  0  0  0  0  0  0  0  0  0  0
   -3.9012   -2.3899    0.7398 C   0  0  0  0  0  0  0  0  0  0  0  0
   -4.2177   -2.7032   -0.5965 C   0  0  0  0  0  0  0  0  0  0  0  0
   -5.7262   -3.4440   -1.0096 Cl  0  0  0  0  0  0  0  0  0  0  0  0
   -3.3233   -2.4326   -1.6512 C   0  0  0  0  0  0  0  0  0  0  0  0
   -2.0837   -1.8424   -1.4043 C   0  0  0  0  0  0  0  0  0  0  0  0
   -1.7627   -1.5272   -0.0945 C   0  0  0  0  0  0  0  0  0  0  0  0
   -2.6575   -1.8069    0.9502 C   0  0  0  0  0  0  0  0  0  0  0  0
   -2.0902   -1.4223    2.1642 N   0  0  0  0  0  0  0  0  0  0  0  0
   -0.8051   -0.9050    1.9958 C   0  0  0  0  0  0  0  0  0  0  0  0
   -0.0605   -0.5701    2.9046 O   0  0  0  0  0  0  0  0  0  0  0  0
   -0.5232   -0.8974    0.4710 C   0  0  0  0  0  0  0  0  0  0  0  0
    0.7469   -1.5999    0.1243 N   0  0  0  0  0  0  0  0  0  0  0  0
    1.7890   -0.5796   -0.2410 C   0  0  2  0  0  0  0  0  0  0  0  0
    2.8251   -0.3197    0.8738 C   0  0  0  0  0  0  0  0  0  0  0  0
    3.6050   -1.5460    1.2870 C   0  0  0  0  0  0  0  0  0  0  0  0
    4.5286   -2.1378    0.4151 C   0  0  0  0  0  0  0  0  0  0  0  0
    5.2356   -3.2771    0.8029 C   0  0  0  0  0  0  0  0  0  0  0  0
    5.0283   -3.8333    2.0638 C   0  0  0  0  0  0  0  0  0  0  0  0
    4.1151   -3.2503    2.9398 C   0  0  0  0  0  0  0  0  0  0  0  0
    3.4068   -2.1115    2.5548 C   0  0  0  0  0  0  0  0  0  0  0  0
    0.9659    0.6213   -0.5229 C   0  0  0  0  0  0  0  0  0  0  0  0
   -0.3499    0.4480   -0.1025 C   0  0  0  0  0  0  0  0  0  0  0  0
   -1.0532    1.5940   -0.3752 C   0  0  0  0  0  0  0  0  0  0  0  0
   -2.3481    1.8544   -0.2074 O   0  0  0  0  0  0  0  0  0  0  0  0
   -0.1564    2.5131   -0.9691 N   0  0  0  0  0  0  0  0  0  0  0  0
   -0.4690    3.8494   -1.4027 C   0  0  0  0  0  0  0  0  0  0  0  0
   -1.5451    4.5536   -0.8420 C   0  0  0  0  0  0  0  0  0  0  0  0
   -1.8482    5.8532   -1.2625 C   0  0  0  0  0  0  0  0  0  0  0  0
   -1.0826    6.4669   -2.2487 C   0  0  0  0  0  0  0  0  0  0  0  0
   -0.0121    5.7818   -2.8145 C   0  0  0  0  0  0  0  0  0  0  0  0
    0.2944    4.4826   -2.3947 C   0  0  0  0  0  0  0  0  0  0  0  0
    1.1007    1.8726   -1.0628 C   0  0  0  0  0  0  0  0  0  0  0  0
    2.1875    2.4698   -1.5452 O   0  0  0  0  0  0  0  0  0  0  0  0
   -4.9906   -3.7718    1.9584 H   0  0  0  0  0  0  0  0  0  0  0  0
   -4.4884   -2.3202    2.8251 H   0  0  0  0  0  0  0  0  0  0  0  0
   -5.8177   -2.2111    1.6829 H   0  0  0  0  0  0  0  0  0  0  0  0
   -3.5942   -2.6884   -2.6738 H   0  0  0  0  0  0  0  0  0  0  0  0
   -1.3897   -1.6383   -2.2150 H   0  0  0  0  0  0  0  0  0  0  0  0
   -2.4966   -1.5491    3.0792 H   0  0  0  0  0  0  0  0  0  0  0  0
    1.0655   -2.1294    0.9351 H   0  0  0  0  0  0  0  0  0  0  0  0
    2.2877   -0.9220   -1.1547 H   0  0  0  0  0  0  0  0  0  0  0  0
    3.5416    0.4428    0.5388 H   0  0  0  0  0  0  0  0  0  0  0  0
    2.3358    0.1191    1.7537 H   0  0  0  0  0  0  0  0  0  0  0  0
    4.7062   -1.7177   -0.5719 H   0  0  0  0  0  0  0  0  0  0  0  0
    5.9500   -3.7313    0.1210 H   0  0  0  0  0  0  0  0  0  0  0  0
    5.5804   -4.7197    2.3648 H   0  0  0  0  0  0  0  0  0  0  0  0
    3.9551   -3.6809    3.9249 H   0  0  0  0  0  0  0  0  0  0  0  0
    2.6976   -1.6674    3.2523 H   0  0  0  0  0  0  0  0  0  0  0  0
   -2.7906    1.0394    0.0857 H   0  0  0  0  0  0  0  0  0  0  0  0
   -2.1495    4.1327   -0.0446 H   0  0  0  0  0  0  0  0  0  0  0  0
   -2.6814    6.3852   -0.8109 H   0  0  0  0  0  0  0  0  0  0  0  0
   -1.3189    7.4759   -2.5748 H   0  0  0  0  0  0  0  0  0  0  0  0
    0.5866    6.2530   -3.5897 H   0  0  0  0  0  0  0  0  0  0  0  0
    1.1172    3.9786   -2.8915 H   0  0  0  0  0  0  0  0  0  0  0  0
    2.9305    1.8466   -1.4798 H   0  0  0  0  0  0  0  0  0  0  0  0
  1  2  1  0
  2  3  2  0
  3  4  1  0
  3  5  1  0
  5  6  2  0
  6  7  1  0
  7  8  2  0
  8  9  1  0
  9 10  1  0
 10 11  2  0
 10 12  1  0
 12 13  1  0
 13 14  1  0
 14 15  1  0
 15 16  1  0
 16 17  2  0
 17 18  1  0
 18 19  2  0
 19 20  1  0
 20 21  2  0
 14 22  1  0
 22 23  1  0
 23 24  2  0
 24 25  1  0
 24 26  1  0
 26 27  1  0
 27 28  2  0
 28 29  1  0
 29 30  2  0
 30 31  1  0
 31 32  2  0
 26 33  1  0
 33 34  1  0
  8  2  1  0
 23 12  1  0
 32 27  1  0
 12  7  1  0
 21 16  1  0
 33 22  2  0
  1 35  1  0
  1 36  1  0
  1 37  1  0
  5 38  1  0
  6 39  1  0
  9 40  1  0
 13 41  1  0
 14 42  1  6
 15 43  1  0
 15 44  1  0
 17 45  1  0
 18 46  1  0
 19 47  1  0
 20 48  1  0
 21 49  1  0
 25 50  1  0
 28 51  1  0
 29 52  1  0
 30 53  1  0
 31 54  1  0
 32 55  1  0
 34 56  1  0
M  END
$$$$
