
     RDKit          3D

 61 63  0  0  0  0  0  0  0  0999 V2000
   -9.3467   -2.9746   -2.2520 C   0  0  0  0  0  0  0  0  0  0  0  0
   -9.1188   -3.0255   -0.8493 O   0  0  0  0  0  0  0  0  0  0  0  0
   -8.3330   -2.0411   -0.3160 C   0  0  0  0  0  0  0  0  0  0  0  0
   -8.1330   -2.1368    1.0629 C   0  0  0  0  0  0  0  0  0  0  0  0
   -7.3502   -1.1973    1.7388 C   0  0  0  0  0  0  0  0  0  0  0  0
   -6.7594   -0.1377    1.0408 C   0  0  0  0  0  0  0  0  0  0  0  0
   -5.8930    0.8672    1.7532 C   0  0  0  0  0  0  0  0  0  0  0  0
   -4.5097    0.4731    1.7119 N   0  0  0  0  0  0  0  0  0  0  0  0
   -3.6387    0.9352    0.7554 C   0  0  0  0  0  0  0  0  0  0  0  0
   -3.8621    1.8071   -0.0732 O   0  0  0  0  0  0  0  0  0  0  0  0
   -2.2623    0.2317    0.7855 C   0  0  0  0  0  0  0  0  0  0  0  0
   -2.0396   -0.6388    1.6147 O   0  0  0  0  0  0  0  0  0  0  0  0
   -1.3969    0.6826   -0.1850 N   0  0  0  0  0  0  0  0  0  0  0  0
    0.0014    0.2903   -0.2198 C   0  0  0  0  0  0  0  0  0  0  0  0
    0.9252    1.2649    0.5396 C   0  0  0  0  0  0  0  0  0  0  0  0
    0.6270    1.2470    1.9464 O   0  0  0  0  0  0  0  0  0  0  0  0
    1.8561    1.5689    2.5965 C   0  0  0  0  0  0  0  0  0  0  0  0
    2.8891    0.8208    1.7861 C   0  0  0  0  0  0  0  0  0  0  0  0
    2.3424    0.8469    0.4134 N   0  0  0  0  0  0  0  0  0  0  0  0
    3.1954    1.7213   -0.7495 S   0  0  0  0  0  6  0  0  0  0  0  0
    2.4838    1.6045   -2.0031 O   0  0  0  0  0  0  0  0  0  0  0  0
    3.5006    3.0143   -0.1748 O   0  0  0  0  0  0  0  0  0  0  0  0
    4.6992    0.7943   -0.8995 C   0  0  0  0  0  0  0  0  0  0  0  0
    4.6403   -0.5113   -1.3881 C   0  0  0  0  0  0  0  0  0  0  0  0
    5.8148   -1.2561   -1.5017 C   0  0  0  0  0  0  0  0  0  0  0  0
    7.0450   -0.6963   -1.1342 C   0  0  0  0  0  0  0  0  0  0  0  0
    8.2473   -1.3554   -1.2067 O   0  0  0  0  0  0  0  0  0  0  0  0
    8.2504   -2.6674   -1.7511 C   0  0  0  0  0  0  0  0  0  0  0  0
    7.0962    0.6305   -0.6513 C   0  0  0  0  0  0  0  0  0  0  0  0
    8.3413    1.1000   -0.3124 O   0  0  0  0  0  0  0  0  0  0  0  0
    8.4568    2.4692    0.0492 C   0  0  0  0  0  0  0  0  0  0  0  0
    5.9178    1.3736   -0.5360 C   0  0  0  0  0  0  0  0  0  0  0  0
   -6.9539   -0.0507   -0.3446 C   0  0  0  0  0  0  0  0  0  0  0  0
   -7.7383   -0.9937   -1.0186 C   0  0  0  0  0  0  0  0  0  0  0  0
   -9.8762   -2.0581   -2.5330 H   0  0  0  0  0  0  0  0  0  0  0  0
   -8.4092   -3.0773   -2.8086 H   0  0  0  0  0  0  0  0  0  0  0  0
   -9.9857   -3.8225   -2.5177 H   0  0  0  0  0  0  0  0  0  0  0  0
   -8.5897   -2.9542    1.6158 H   0  0  0  0  0  0  0  0  0  0  0  0
   -7.2070   -1.3019    2.8117 H   0  0  0  0  0  0  0  0  0  0  0  0
   -6.1832    0.9426    2.8070 H   0  0  0  0  0  0  0  0  0  0  0  0
   -6.0197    1.8612    1.3091 H   0  0  0  0  0  0  0  0  0  0  0  0
   -4.1996   -0.3334    2.2463 H   0  0  0  0  0  0  0  0  0  0  0  0
   -1.7284    1.4520   -0.7617 H   0  0  0  0  0  0  0  0  0  0  0  0
    0.0905   -0.7148    0.2090 H   0  0  0  0  0  0  0  0  0  0  0  0
    0.2843    0.2335   -1.2753 H   0  0  0  0  0  0  0  0  0  0  0  0
    0.7667    2.2932    0.1919 H   0  0  0  0  0  0  0  0  0  0  0  0
    2.0067    2.6533    2.5501 H   0  0  0  0  0  0  0  0  0  0  0  0
    1.8264    1.2543    3.6428 H   0  0  0  0  0  0  0  0  0  0  0  0
    2.9436   -0.2281    2.0981 H   0  0  0  0  0  0  0  0  0  0  0  0
    3.8849    1.2576    1.8896 H   0  0  0  0  0  0  0  0  0  0  0  0
    3.6886   -0.9514   -1.6787 H   0  0  0  0  0  0  0  0  0  0  0  0
    5.7381   -2.2703   -1.8800 H   0  0  0  0  0  0  0  0  0  0  0  0
    9.2853   -3.0229   -1.7607 H   0  0  0  0  0  0  0  0  0  0  0  0
    7.6692   -3.3543   -1.1273 H   0  0  0  0  0  0  0  0  0  0  0  0
    7.8894   -2.6681   -2.7850 H   0  0  0  0  0  0  0  0  0  0  0  0
    9.5165    2.6817    0.2199 H   0  0  0  0  0  0  0  0  0  0  0  0
    7.9223    2.6750    0.9823 H   0  0  0  0  0  0  0  0  0  0  0  0
    8.1121    3.1238   -0.7582 H   0  0  0  0  0  0  0  0  0  0  0  0
    5.9269    2.3937   -0.1663 H   0  0  0  0  0  0  0  0  0  0  0  0
   -6.4879    0.7553   -0.9101 H   0  0  0  0  0  0  0  0  0  0  0  0
   -7.8593   -0.8805   -2.0905 H   0  0  0  0  0  0  0  0  0  0  0  0
  1  2  1  0
  2  3  1  0
  3  4  2  0
  4  5  1  0
  5  6  2  0
  6  7  1  0
  7  8  1  0
  8  9  1  0
  9 10  2  0
  9 11  1  0
 11 12  2  0
 11 13  1  0
 13 14  1  0
 14 15  1  0
 15 16  1  0
 16 17  1  0
 17 18  1  0
 18 19  1  0
 19 20  1  0
 20 21  2  0
 20 22  2  0
 20 23  1  0
 23 24  2  0
 24 25  1  0
 25 26  2  0
 26 27  1  0
 27 28  1  0
 26 29  1  0
 29 30  1  0
 30 31  1  0
 29 32  2  0
  6 33  1  0
 33 34  2  0
 34  3  1  0
 19 15  1  0
 32 23  1  0
  1 35  1  0
  1 36  1  0
  1 37  1  0
  4 38  1  0
  5 39  1  0
  7 40  1  0
  7 41  1  0
  8 42  1  0
 13 43  1  0
 14 44  1  0
 14 45  1  0
 15 46  1  0
 17 47  1  0
 17 48  1  0
 18 49  1  0
 18 50  1  0
 24 51  1  0
 25 52  1  0
 28 53  1  0
 28 54  1  0
 28 55  1  0
 31 56  1  0
 31 57  1  0
 31 58  1  0
 32 59  1  0
 33 60  1  0
 34 61  1  0
M  END
$$$$
