
     RDKit          3D

 36 38  0  0  0  0  0  0  0  0999 V2000
   -5.1188   -0.8260   -0.9999 C   0  0  0  0  0  0  0  0  0  0  0  0
   -4.0236    0.0502   -0.4604 C   0  0  0  0  0  0  0  0  0  0  0  0
   -4.3228    1.3482   -0.0086 C   0  0  0  0  0  0  0  0  0  0  0  0
   -3.3257    2.1685    0.5196 C   0  0  0  0  0  0  0  0  0  0  0  0
   -2.0344    1.6713    0.6002 C   0  0  0  0  0  0  0  0  0  0  0  0
   -1.7088    0.3661    0.1774 C   0  0  0  0  0  0  0  0  0  0  0  0
   -2.7110   -0.4425   -0.3555 C   0  0  0  0  0  0  0  0  0  0  0  0
   -0.3274    0.0201    0.3287 N   0  0  0  0  0  0  0  0  0  0  0  0
   -0.1442   -1.3608    0.7877 C   0  0  0  0  0  0  0  0  0  0  0  0
    0.3779    1.1109    0.8632 C   0  0  0  0  0  0  0  0  0  0  0  0
    1.7074    1.2660    1.0005 C   0  0  0  0  0  0  0  0  0  0  0  0
    2.7285    0.3239    0.5468 C   0  0  0  0  0  0  0  0  0  0  0  0
    3.5515   -0.2891    1.5007 C   0  0  0  0  0  0  0  0  0  0  0  0
    4.5186   -1.2028    1.1035 C   0  0  0  0  0  0  0  0  0  0  0  0
    4.6582   -1.4935   -0.2437 C   0  0  0  0  0  0  0  0  0  0  0  0
    3.8394   -0.8565   -1.1672 C   0  0  0  0  0  0  0  0  0  0  0  0
    2.9055    0.0441   -0.7758 N   0  0  0  0  0  4  0  0  0  0  0  0
    2.1044    0.7124   -1.8256 C   0  0  0  0  0  0  0  0  0  0  0  0
   -0.6220    2.5324    1.2613 S   0  0  0  0  0  0  0  0  0  0  0  0
   -5.5748   -1.3973   -0.1856 H   0  0  0  0  0  0  0  0  0  0  0  0
   -5.8931   -0.2264   -1.4899 H   0  0  0  0  0  0  0  0  0  0  0  0
   -4.7274   -1.5239   -1.7475 H   0  0  0  0  0  0  0  0  0  0  0  0
   -5.3427    1.7258   -0.0682 H   0  0  0  0  0  0  0  0  0  0  0  0
   -3.5643    3.1698    0.8651 H   0  0  0  0  0  0  0  0  0  0  0  0
   -2.4957   -1.4460   -0.7079 H   0  0  0  0  0  0  0  0  0  0  0  0
   -0.6865   -1.5438    1.7231 H   0  0  0  0  0  0  0  0  0  0  0  0
   -0.4792   -2.0779    0.0308 H   0  0  0  0  0  0  0  0  0  0  0  0
    0.9081   -1.5901    0.9719 H   0  0  0  0  0  0  0  0  0  0  0  0
    2.1097    2.1779    1.4401 H   0  0  0  0  0  0  0  0  0  0  0  0
    3.4317   -0.0647    2.5600 H   0  0  0  0  0  0  0  0  0  0  0  0
    5.1562   -1.6868    1.8423 H   0  0  0  0  0  0  0  0  0  0  0  0
    5.4073   -2.2098   -0.5755 H   0  0  0  0  0  0  0  0  0  0  0  0
    3.9296   -1.0597   -2.2312 H   0  0  0  0  0  0  0  0  0  0  0  0
    2.6639    0.6969   -2.7657 H   0  0  0  0  0  0  0  0  0  0  0  0
    1.9322    1.7559   -1.5544 H   0  0  0  0  0  0  0  0  0  0  0  0
    1.1721    0.1571   -1.9436 H   0  0  0  0  0  0  0  0  0  0  0  0
  1  2  1  0
  2  3  2  0
  3  4  1  0
  4  5  2  0
  5  6  1  0
  6  7  2  0
  6  8  1  0
  8  9  1  0
  8 10  1  0
 10 11  2  3
 11 12  1  0
 12 13  2  0
 13 14  1  0
 14 15  2  0
 15 16  1  0
 16 17  2  0
 17 18  1  0
 10 19  1  0
  7  2  1  0
 17 12  1  0
 19  5  1  0
  1 20  1  0
  1 21  1  0
  1 22  1  0
  3 23  1  0
  4 24  1  0
  7 25  1  0
  9 26  1  0
  9 27  1  0
  9 28  1  0
 11 29  1  0
 13 30  1  0
 14 31  1  0
 15 32  1  0
 16 33  1  0
 18 34  1  0
 18 35  1  0
 18 36  1  0
M  CHG  1  17   1
M  END
$$$$
