
     RDKit          3D

 46 48  0  0  0  0  0  0  0  0999 V2000
   -4.4023    2.6941    0.8163 C   0  0  0  0  0  0  0  0  0  0  0  0
   -4.1196    1.6070   -0.2069 C   0  0  0  0  0  0  0  0  0  0  0  0
   -3.5034    0.4243    0.4085 N   0  0  0  0  0  4  0  0  0  0  0  0
   -2.1878    0.2357    0.4582 C   0  0  0  0  0  0  0  0  0  0  0  0
   -1.1897    1.1502    0.0142 C   0  0  0  0  0  0  0  0  0  0  0  0
   -0.0026    0.7531   -0.4729 C   0  0  0  0  0  0  0  0  0  0  0  0
    1.0323    1.6808   -0.8769 C   0  0  0  0  0  0  0  0  0  0  0  0
    2.3337    1.4383   -1.1083 C   0  0  0  0  0  0  0  0  0  0  0  0
    3.1012    0.2820   -0.9102 N   0  0  0  0  0  0  0  0  0  0  0  0
    2.7641   -0.6675    0.0762 C   0  0  0  0  0  0  0  0  0  0  0  0
    3.2284   -2.0911   -0.1652 C   0  0  0  0  0  0  0  0  0  0  0  0
    2.0732   -0.4321    1.0722 O   0  0  0  0  0  0  0  0  0  0  0  0
    4.3899    0.2117   -1.5624 C   0  0  0  0  0  0  0  0  0  0  0  0
    5.5340   -0.2322   -0.8823 C   0  0  0  0  0  0  0  0  0  0  0  0
    6.7743   -0.2800   -1.5254 C   0  0  0  0  0  0  0  0  0  0  0  0
    6.8896    0.1220   -2.8534 C   0  0  0  0  0  0  0  0  0  0  0  0
    5.7679    0.5807   -3.5384 C   0  0  0  0  0  0  0  0  0  0  0  0
    4.5279    0.6318   -2.8961 C   0  0  0  0  0  0  0  0  0  0  0  0
   -1.8295   -1.2726    1.2081 S   0  0  0  0  0  0  0  0  0  0  0  0
   -3.4872   -1.6367    1.4569 C   0  0  0  0  0  0  0  0  0  0  0  0
   -4.0549   -2.7719    2.0561 C   0  0  0  0  0  0  0  0  0  0  0  0
   -5.4466   -2.8407    2.1505 C   0  0  0  0  0  0  0  0  0  0  0  0
   -6.2464   -1.8117    1.6652 C   0  0  0  0  0  0  0  0  0  0  0  0
   -5.6736   -0.6817    1.0679 C   0  0  0  0  0  0  0  0  0  0  0  0
   -4.2691   -0.5981    0.9620 C   0  0  0  0  0  0  0  0  0  0  0  0
   -5.0878    2.3378    1.5913 H   0  0  0  0  0  0  0  0  0  0  0  0
   -3.4817    3.0171    1.3119 H   0  0  0  0  0  0  0  0  0  0  0  0
   -4.8554    3.5644    0.3322 H   0  0  0  0  0  0  0  0  0  0  0  0
   -3.4726    1.9970   -1.0007 H   0  0  0  0  0  0  0  0  0  0  0  0
   -5.0460    1.3131   -0.7128 H   0  0  0  0  0  0  0  0  0  0  0  0
   -1.3880    2.2147    0.1053 H   0  0  0  0  0  0  0  0  0  0  0  0
    0.2340   -0.3030   -0.5780 H   0  0  0  0  0  0  0  0  0  0  0  0
    0.7005    2.7031   -1.0622 H   0  0  0  0  0  0  0  0  0  0  0  0
    2.9070    2.2727   -1.5160 H   0  0  0  0  0  0  0  0  0  0  0  0
    2.3995   -2.7666    0.0715 H   0  0  0  0  0  0  0  0  0  0  0  0
    4.0696   -2.3277    0.4902 H   0  0  0  0  0  0  0  0  0  0  0  0
    3.4954   -2.2711   -1.2093 H   0  0  0  0  0  0  0  0  0  0  0  0
    5.4956   -0.5039    0.1695 H   0  0  0  0  0  0  0  0  0  0  0  0
    7.6546   -0.6196   -0.9840 H   0  0  0  0  0  0  0  0  0  0  0  0
    7.8557    0.0851   -3.3516 H   0  0  0  0  0  0  0  0  0  0  0  0
    5.8581    0.8964   -4.5752 H   0  0  0  0  0  0  0  0  0  0  0  0
    3.6670    0.9739   -3.4649 H   0  0  0  0  0  0  0  0  0  0  0  0
   -3.4340   -3.5782    2.4409 H   0  0  0  0  0  0  0  0  0  0  0  0
   -5.9096   -3.7124    2.6135 H   0  0  0  0  0  0  0  0  0  0  0  0
   -7.3301   -1.8888    1.7543 H   0  0  0  0  0  0  0  0  0  0  0  0
   -6.3357    0.1004    0.7080 H   0  0  0  0  0  0  0  0  0  0  0  0
  1  2  1  0
  2  3  1  0
  3  4  2  0
  4  5  1  0
  5  6  2  3
  6  7  1  0
  7  8  2  3
  8  9  1  0
  9 10  1  0
 10 11  1  0
 10 12  2  0
  9 13  1  0
 13 14  2  0
 14 15  1  0
 15 16  2  0
 16 17  1  0
 17 18  2  0
  4 19  1  0
 19 20  1  0
 20 21  2  0
 21 22  1  0
 22 23  2  0
 23 24  1  0
 24 25  2  0
 25  3  1  0
 18 13  1  0
 25 20  1  0
  1 26  1  0
  1 27  1  0
  1 28  1  0
  2 29  1  0
  2 30  1  0
  5 31  1  0
  6 32  1  0
  7 33  1  0
  8 34  1  0
 11 35  1  0
 11 36  1  0
 11 37  1  0
 14 38  1  0
 15 39  1  0
 16 40  1  0
 17 41  1  0
 18 42  1  0
 21 43  1  0
 22 44  1  0
 23 45  1  0
 24 46  1  0
M  CHG  1   3   1
M  END
$$$$
