
     RDKit          3D

 49 51  0  0  0  0  0  0  0  0999 V2000
    3.6455    0.9055   -0.1623 O   0  0  0  0  0  0  0  0  0  0  0  0
    3.2155    0.3563   -1.1670 C   0  0  0  0  0  0  0  0  0  0  0  0
    3.9604   -0.2077   -2.1745 N   0  0  0  0  0  0  0  0  0  0  0  0
    5.3875   -0.3685   -2.0795 C   0  0  0  0  0  0  0  0  0  0  0  0
    5.7416   -1.7383   -1.5631 C   0  0  0  0  0  0  0  0  0  0  0  0
    5.8204   -1.9763   -0.1832 C   0  0  0  0  0  0  0  0  0  0  0  0
    6.1259   -3.2494    0.2999 C   0  0  0  0  0  0  0  0  0  0  0  0
    6.3484   -4.2983   -0.5902 C   0  0  0  0  0  0  0  0  0  0  0  0
    6.2619   -4.0765   -1.9635 C   0  0  0  0  0  0  0  0  0  0  0  0
    5.9563   -2.8038   -2.4490 C   0  0  0  0  0  0  0  0  0  0  0  0
    1.6906    0.2314   -1.3885 C   0  0  0  0  0  0  0  0  0  0  0  0
    1.2594   -0.4083   -2.3369 O   0  0  0  0  0  0  0  0  0  0  0  0
    0.9391    0.8759   -0.4348 N   0  0  0  0  0  0  0  0  0  0  0  0
   -0.4996    0.6901   -0.3345 C   0  0  0  0  0  0  0  0  0  0  0  0
   -1.1572    1.7554    0.5748 C   0  0  0  0  0  0  0  0  0  0  0  0
   -0.4710    1.7641    1.8478 O   0  0  0  0  0  0  0  0  0  0  0  0
   -1.1743    0.8330    2.6752 C   0  0  0  0  0  0  0  0  0  0  0  0
   -2.6273    0.9891    2.2799 C   0  0  0  0  0  0  0  0  0  0  0  0
   -2.5729    1.5349    0.9155 N   0  0  0  0  0  0  0  0  0  0  0  0
   -3.5819    0.9064   -0.2611 S   0  0  0  0  0  6  0  0  0  0  0  0
   -3.4029   -0.5294   -0.2556 O   0  0  0  0  0  0  0  0  0  0  0  0
   -3.4048    1.6864   -1.4652 O   0  0  0  0  0  0  0  0  0  0  0  0
   -5.1952    1.2761    0.3812 C   0  0  0  0  0  0  0  0  0  0  0  0
   -5.6027    2.6123    0.4593 C   0  0  0  0  0  0  0  0  0  0  0  0
   -6.8689    2.9164    0.9617 C   0  0  0  0  0  0  0  0  0  0  0  0
   -7.7152    1.8859    1.3745 C   0  0  0  0  0  0  0  0  0  0  0  0
   -9.4296    2.3000    2.0554 Br  0  0  0  0  0  0  0  0  0  0  0  0
   -7.3107    0.5523    1.2874 C   0  0  0  0  0  0  0  0  0  0  0  0
   -6.0449    0.2423    0.7859 C   0  0  0  0  0  0  0  0  0  0  0  0
    3.4417   -0.7422   -2.8656 H   0  0  0  0  0  0  0  0  0  0  0  0
    5.8158    0.4054   -1.4323 H   0  0  0  0  0  0  0  0  0  0  0  0
    5.8035   -0.2204   -3.0821 H   0  0  0  0  0  0  0  0  0  0  0  0
    5.6385   -1.1667    0.5220 H   0  0  0  0  0  0  0  0  0  0  0  0
    6.1866   -3.4225    1.3712 H   0  0  0  0  0  0  0  0  0  0  0  0
    6.5848   -5.2898   -0.2133 H   0  0  0  0  0  0  0  0  0  0  0  0
    6.4296   -4.8965   -2.6570 H   0  0  0  0  0  0  0  0  0  0  0  0
    5.8863   -2.6492   -3.5233 H   0  0  0  0  0  0  0  0  0  0  0  0
    1.4473    1.2150    0.3815 H   0  0  0  0  0  0  0  0  0  0  0  0
   -0.6481   -0.3178    0.0690 H   0  0  0  0  0  0  0  0  0  0  0  0
   -0.9198    0.7088   -1.3448 H   0  0  0  0  0  0  0  0  0  0  0  0
   -1.0308    2.7513    0.1372 H   0  0  0  0  0  0  0  0  0  0  0  0
   -0.9966    1.0586    3.7302 H   0  0  0  0  0  0  0  0  0  0  0  0
   -0.8041   -0.1766    2.4666 H   0  0  0  0  0  0  0  0  0  0  0  0
   -3.1638    0.0407    2.3652 H   0  0  0  0  0  0  0  0  0  0  0  0
   -3.1234    1.7255    2.9211 H   0  0  0  0  0  0  0  0  0  0  0  0
   -4.9423    3.4119    0.1293 H   0  0  0  0  0  0  0  0  0  0  0  0
   -7.1876    3.9542    1.0226 H   0  0  0  0  0  0  0  0  0  0  0  0
   -7.9748   -0.2494    1.6015 H   0  0  0  0  0  0  0  0  0  0  0  0
   -5.7360   -0.7981    0.7103 H   0  0  0  0  0  0  0  0  0  0  0  0
  1  2  2  0
  2  3  1  0
  3  4  1  0
  4  5  1  0
  5  6  2  0
  6  7  1  0
  7  8  2  0
  8  9  1  0
  9 10  2  0
  2 11  1  0
 11 12  2  0
 11 13  1  0
 13 14  1  0
 14 15  1  0
 15 16  1  0
 16 17  1  0
 17 18  1  0
 18 19  1  0
 19 20  1  0
 20 21  2  0
 20 22  2  0
 20 23  1  0
 23 24  2  0
 24 25  1  0
 25 26  2  0
 26 27  1  0
 26 28  1  0
 28 29  2  0
 10  5  1  0
 19 15  1  0
 29 23  1  0
  3 30  1  0
  4 31  1  0
  4 32  1  0
  6 33  1  0
  7 34  1  0
  8 35  1  0
  9 36  1  0
 10 37  1  0
 13 38  1  0
 14 39  1  0
 14 40  1  0
 15 41  1  0
 17 42  1  0
 17 43  1  0
 18 44  1  0
 18 45  1  0
 24 46  1  0
 25 47  1  0
 28 48  1  0
 29 49  1  0
M  END
$$$$
