
     RDKit          3D

 51 53  0  0  0  0  0  0  0  0999 V2000
    9.6145    0.3103    1.8864 C   0  0  0  0  0  0  0  0  0  0  0  0
    8.2159    0.2672    1.6348 O   0  0  0  0  0  0  0  0  0  0  0  0
    7.8223   -0.0596    0.3651 C   0  0  0  0  0  0  0  0  0  0  0  0
    8.6709   -0.3535   -0.7018 C   0  0  0  0  0  0  0  0  0  0  0  0
    8.1353   -0.6725   -1.9502 C   0  0  0  0  0  0  0  0  0  0  0  0
    6.7521   -0.6982   -2.1344 C   0  0  0  0  0  0  0  0  0  0  0  0
    5.8898   -0.4054   -1.0731 C   0  0  0  0  0  0  0  0  0  0  0  0
    4.5106   -0.4520   -1.3362 N   0  0  0  0  0  0  0  0  0  0  0  0
    3.4705   -0.2062   -0.4662 C   0  0  0  0  0  0  0  0  0  0  0  0
    3.4991    0.1043    0.7170 O   0  0  0  0  0  0  0  0  0  0  0  0
    2.1000   -0.3628   -1.1475 C   0  0  0  0  0  0  0  0  0  0  0  0
    2.0532   -0.6740   -2.3306 O   0  0  0  0  0  0  0  0  0  0  0  0
    1.0583   -0.1152   -0.2752 N   0  0  0  0  0  0  0  0  0  0  0  0
   -0.2369   -0.2027   -0.6908 N   0  0  0  0  0  0  0  0  0  0  0  0
   -1.1279    0.0510    0.2126 C   0  0  0  0  0  0  0  0  0  0  0  0
   -2.5322   -0.0164   -0.1460 C   0  0  0  0  0  0  0  0  0  0  0  0
   -3.0751   -0.3189   -1.4169 C   0  0  0  0  0  0  0  0  0  0  0  0
   -4.4513   -0.2621   -1.3341 C   0  0  0  0  0  0  0  0  0  0  0  0
   -5.4185   -0.4125   -2.4594 C   0  0  0  0  0  0  0  0  0  0  0  0
   -4.7892    0.0633   -0.0247 N   0  0  0  0  0  0  0  0  0  0  0  0
   -6.1124    0.2494    0.4739 C   0  0  0  0  0  0  0  0  0  0  0  0
   -7.1213   -0.6659    0.1536 C   0  0  0  0  0  0  0  0  0  0  0  0
   -8.4161   -0.4791    0.6458 C   0  0  0  0  0  0  0  0  0  0  0  0
   -8.7113    0.6211    1.4557 C   0  0  0  0  0  0  0  0  0  0  0  0
  -10.3325    0.7856    2.0288 Cl  0  0  0  0  0  0  0  0  0  0  0  0
   -7.7046    1.5390    1.7742 C   0  0  0  0  0  0  0  0  0  0  0  0
   -7.9966    2.9267    2.7622 Cl  0  0  0  0  0  0  0  0  0  0  0  0
   -6.4068    1.3534    1.2844 C   0  0  0  0  0  0  0  0  0  0  0  0
   -3.6077    0.1880    0.7125 C   0  0  0  0  0  0  0  0  0  0  0  0
   -3.5738    0.4162    2.1906 C   0  0  0  0  0  0  0  0  0  0  0  0
    6.4344   -0.0872    0.1728 C   0  0  0  0  0  0  0  0  0  0  0  0
   10.0736   -0.6719    1.7329 H   0  0  0  0  0  0  0  0  0  0  0  0
    9.7570    0.5835    2.9364 H   0  0  0  0  0  0  0  0  0  0  0  0
   10.1024    1.0758    1.2742 H   0  0  0  0  0  0  0  0  0  0  0  0
    9.7504   -0.3433   -0.5958 H   0  0  0  0  0  0  0  0  0  0  0  0
    8.7970   -0.9016   -2.7818 H   0  0  0  0  0  0  0  0  0  0  0  0
    6.3609   -0.9498   -3.1172 H   0  0  0  0  0  0  0  0  0  0  0  0
    4.2144   -0.6951   -2.2802 H   0  0  0  0  0  0  0  0  0  0  0  0
    1.2929    0.1343    0.6847 H   0  0  0  0  0  0  0  0  0  0  0  0
   -0.8625    0.3222    1.2484 H   0  0  0  0  0  0  0  0  0  0  0  0
   -2.5068   -0.5312   -2.3160 H   0  0  0  0  0  0  0  0  0  0  0  0
   -5.8465   -1.4190   -2.4712 H   0  0  0  0  0  0  0  0  0  0  0  0
   -6.2246    0.3253   -2.4043 H   0  0  0  0  0  0  0  0  0  0  0  0
   -4.9128   -0.2615   -3.4197 H   0  0  0  0  0  0  0  0  0  0  0  0
   -6.9126   -1.5527   -0.4399 H   0  0  0  0  0  0  0  0  0  0  0  0
   -9.1903   -1.2029    0.3998 H   0  0  0  0  0  0  0  0  0  0  0  0
   -5.6466    2.0979    1.5069 H   0  0  0  0  0  0  0  0  0  0  0  0
   -3.5542    1.4874    2.4126 H   0  0  0  0  0  0  0  0  0  0  0  0
   -2.6791   -0.0326    2.6340 H   0  0  0  0  0  0  0  0  0  0  0  0
   -4.4279   -0.0425    2.6975 H   0  0  0  0  0  0  0  0  0  0  0  0
    5.8025    0.1466    1.0240 H   0  0  0  0  0  0  0  0  0  0  0  0
  1  2  1  0
  2  3  1  0
  3  4  2  0
  4  5  1  0
  5  6  2  0
  6  7  1  0
  7  8  1  0
  8  9  1  0
  9 10  2  0
  9 11  1  0
 11 12  2  0
 11 13  1  0
 13 14  1  0
 14 15  2  3
 15 16  1  0
 16 17  1  0
 17 18  2  0
 18 19  1  0
 18 20  1  0
 20 21  1  0
 21 22  2  0
 22 23  1  0
 23 24  2  0
 24 25  1  0
 24 26  1  0
 26 27  1  0
 26 28  2  0
 20 29  1  0
 29 30  1  0
  7 31  2  0
 31  3  1  0
 29 16  2  0
 28 21  1  0
  1 32  1  0
  1 33  1  0
  1 34  1  0
  4 35  1  0
  5 36  1  0
  6 37  1  0
  8 38  1  0
 13 39  1  0
 15 40  1  0
 17 41  1  0
 19 42  1  0
 19 43  1  0
 19 44  1  0
 22 45  1  0
 23 46  1  0
 28 47  1  0
 30 48  1  0
 30 49  1  0
 30 50  1  0
 31 51  1  0
M  END
$$$$
