
     RDKit          3D

 54 57  0  0  0  0  0  0  0  0999 V2000
   -5.1911    3.0902    1.2431 C   0  0  0  0  0  0  0  0  0  0  0  0
   -4.0528    2.3382    0.6208 C   0  0  0  0  0  0  0  0  0  0  0  0
   -4.0584    0.9427    0.5852 C   0  0  0  0  0  0  0  0  0  0  0  0
   -3.0105    0.2128   -0.0119 C   0  0  0  0  0  0  0  0  0  0  0  0
   -3.0715   -1.2839    0.1359 C   0  0  0  0  0  0  0  0  0  0  0  0
   -1.9680    0.9096   -0.6575 C   0  0  0  0  0  0  0  0  0  0  0  0
   -0.8935    0.2699   -1.3196 N   0  0  0  0  0  0  0  0  0  0  0  0
   -0.9580   -0.8647   -2.1116 C   0  0  0  0  0  0  0  0  0  0  0  0
   -1.9805   -1.4434   -2.4713 O   0  0  0  0  0  0  0  0  0  0  0  0
    0.4043   -1.2933   -2.6664 C   0  0  0  0  0  0  0  0  0  0  0  0
    1.4144   -1.4347   -1.6114 N   0  0  0  0  0  0  0  0  0  0  0  0
    2.1602   -0.3072   -1.2917 C   0  0  0  0  0  0  0  0  0  0  0  0
    1.9292    0.7680   -1.8535 O   0  0  0  0  0  0  0  0  0  0  0  0
    3.1320   -0.4457   -0.3180 N   0  0  0  0  0  0  0  0  0  0  0  0
    3.8774    0.7418    0.0731 C   0  0  0  0  0  0  0  0  0  0  0  0
    3.2003    1.3760    1.2401 C   0  0  0  0  0  0  0  0  0  0  0  0
    3.3372    1.2313    2.6058 C   0  0  0  0  0  0  0  0  0  0  0  0
    2.3810    2.0914    3.1965 C   0  0  0  0  0  0  0  0  0  0  0  0
    1.7232    2.7049    2.1568 C   0  0  0  0  0  0  0  0  0  0  0  0
    2.2172    2.2812    0.9655 O   0  0  0  0  0  0  0  0  0  0  0  0
    3.4097   -1.6222    0.3610 C   0  0  0  0  0  0  0  0  0  0  0  0
    4.3205   -1.7433    1.1779 O   0  0  0  0  0  0  0  0  0  0  0  0
    2.5363   -2.7717    0.0783 C   0  0  0  0  0  0  0  0  0  0  0  0
    2.7094   -3.9621    0.8017 C   0  0  0  0  0  0  0  0  0  0  0  0
    1.8723   -5.0483    0.5671 C   0  0  0  0  0  0  0  0  0  0  0  0
    0.8628   -4.9412   -0.3830 C   0  0  0  0  0  0  0  0  0  0  0  0
    0.6956   -3.7537   -1.1052 C   0  0  0  0  0  0  0  0  0  0  0  0
    1.5399   -2.6525   -0.8902 C   0  0  0  0  0  0  0  0  0  0  0  0
   -1.9431    2.3253   -0.6024 C   0  0  0  0  0  0  0  0  0  0  0  0
   -0.8423    3.1375   -1.2374 C   0  0  0  0  0  0  0  0  0  0  0  0
   -2.9906    3.0196    0.0279 C   0  0  0  0  0  0  0  0  0  0  0  0
   -5.6361    2.5180    2.0640 H   0  0  0  0  0  0  0  0  0  0  0  0
   -4.8486    4.0427    1.6609 H   0  0  0  0  0  0  0  0  0  0  0  0
   -5.9621    3.2898    0.4926 H   0  0  0  0  0  0  0  0  0  0  0  0
   -4.8822    0.4048    1.0527 H   0  0  0  0  0  0  0  0  0  0  0  0
   -3.5504   -1.5563    1.0841 H   0  0  0  0  0  0  0  0  0  0  0  0
   -3.6583   -1.7269   -0.6733 H   0  0  0  0  0  0  0  0  0  0  0  0
   -2.0739   -1.7309    0.1724 H   0  0  0  0  0  0  0  0  0  0  0  0
   -0.0650    0.8398   -1.4804 H   0  0  0  0  0  0  0  0  0  0  0  0
    0.3093   -2.2221   -3.2371 H   0  0  0  0  0  0  0  0  0  0  0  0
    0.7178   -0.5327   -3.3921 H   0  0  0  0  0  0  0  0  0  0  0  0
    3.9412    1.4523   -0.7586 H   0  0  0  0  0  0  0  0  0  0  0  0
    4.9042    0.4688    0.3421 H   0  0  0  0  0  0  0  0  0  0  0  0
    4.0334    0.5712    3.1063 H   0  0  0  0  0  0  0  0  0  0  0  0
    2.1882    2.2405    4.2494 H   0  0  0  0  0  0  0  0  0  0  0  0
    0.9201    3.4264    2.0993 H   0  0  0  0  0  0  0  0  0  0  0  0
    3.4922   -4.0405    1.5539 H   0  0  0  0  0  0  0  0  0  0  0  0
    2.0014   -5.9700    1.1291 H   0  0  0  0  0  0  0  0  0  0  0  0
    0.1956   -5.7817   -0.5631 H   0  0  0  0  0  0  0  0  0  0  0  0
   -0.1239   -3.7267   -1.8183 H   0  0  0  0  0  0  0  0  0  0  0  0
   -1.0306    4.2130   -1.1505 H   0  0  0  0  0  0  0  0  0  0  0  0
    0.1130    2.9330   -0.7460 H   0  0  0  0  0  0  0  0  0  0  0  0
   -0.7656    2.9072   -2.3051 H   0  0  0  0  0  0  0  0  0  0  0  0
   -2.9826    4.1080    0.0456 H   0  0  0  0  0  0  0  0  0  0  0  0
  1  2  1  0
  2  3  2  0
  3  4  1  0
  4  5  1  0
  4  6  2  0
  6  7  1  0
  7  8  1  0
  8  9  2  0
  8 10  1  0
 10 11  1  0
 11 12  1  0
 12 13  2  0
 12 14  1  0
 14 15  1  0
 15 16  1  0
 16 17  2  0
 17 18  1  0
 18 19  2  0
 19 20  1  0
 14 21  1  0
 21 22  2  0
 21 23  1  0
 23 24  2  0
 24 25  1  0
 25 26  2  0
 26 27  1  0
 27 28  2  0
  6 29  1  0
 29 30  1  0
 29 31  2  0
 31  2  1  0
 28 11  1  0
 20 16  1  0
 28 23  1  0
  1 32  1  0
  1 33  1  0
  1 34  1  0
  3 35  1  0
  5 36  1  0
  5 37  1  0
  5 38  1  0
  7 39  1  0
 10 40  1  0
 10 41  1  0
 15 42  1  0
 15 43  1  0
 17 44  1  0
 18 45  1  0
 19 46  1  0
 24 47  1  0
 25 48  1  0
 26 49  1  0
 27 50  1  0
 30 51  1  0
 30 52  1  0
 30 53  1  0
 31 54  1  0
M  END
$$$$
