
     RDKit          3D

 38 40  0  0  0  0  0  0  0  0999 V2000
   -3.0441    2.2223   -2.5818 C   0  0  0  0  0  0  0  0  0  0  0  0
   -2.7101    1.5955   -1.2596 C   0  0  0  0  0  0  0  0  0  0  0  0
   -1.4646    1.8305   -0.6608 C   0  0  0  0  0  0  0  0  0  0  0  0
   -1.1622    1.2770    0.5840 C   0  0  0  0  0  0  0  0  0  0  0  0
   -2.1103    0.4801    1.2307 C   0  0  0  0  0  0  0  0  0  0  0  0
   -1.7350   -0.2279    2.8186 S   0  0  0  0  0  6  0  0  0  0  0  0
   -2.9864   -0.3933    3.5289 O   0  0  0  0  0  0  0  0  0  0  0  0
   -0.6386    0.5175    3.3980 O   0  0  0  0  0  0  0  0  0  0  0  0
   -1.2124   -1.7869    2.4264 N   0  0  0  0  0  0  0  0  0  0  0  0
   -0.1705   -1.9569    1.4725 C   0  0  0  0  0  0  0  0  0  0  0  0
   -0.4589   -2.6065    0.2732 C   0  0  0  0  0  0  0  0  0  0  0  0
    0.5369   -2.7530   -0.6907 C   0  0  0  0  0  0  0  0  0  0  0  0
    1.8136   -2.2445   -0.4566 C   0  0  0  0  0  0  0  0  0  0  0  0
    2.7174   -2.4224   -1.4676 O   0  0  0  0  0  0  0  0  0  0  0  0
    2.1238   -1.5999    0.7494 C   0  0  0  0  0  0  0  0  0  0  0  0
    3.7558   -1.0120    1.1759 S   0  0  0  0  0  0  0  0  0  0  0  0
    4.0192    0.2423    0.0010 C   0  0  0  0  0  0  0  0  0  0  0  0
    3.9978   -0.0018   -1.3493 N   0  0  0  0  0  0  0  0  0  0  0  0
    4.2754    1.1748   -1.8624 C   0  0  0  0  0  0  0  0  0  0  0  0
    4.4638    2.0747   -0.8610 N   0  0  0  0  0  0  0  0  0  0  0  0
    4.3096    1.4999    0.3411 N   0  0  0  0  0  0  0  0  0  0  0  0
    1.1149   -1.4672    1.7149 C   0  0  0  0  0  0  0  0  0  0  0  0
   -3.3679    0.2637    0.6617 C   0  0  0  0  0  0  0  0  0  0  0  0
   -3.6639    0.8230   -0.5823 C   0  0  0  0  0  0  0  0  0  0  0  0
   -3.7485    1.5988   -3.1424 H   0  0  0  0  0  0  0  0  0  0  0  0
   -2.1465    2.3329   -3.1992 H   0  0  0  0  0  0  0  0  0  0  0  0
   -3.4907    3.2090   -2.4257 H   0  0  0  0  0  0  0  0  0  0  0  0
   -0.7227    2.4494   -1.1609 H   0  0  0  0  0  0  0  0  0  0  0  0
   -0.1918    1.4682    1.0373 H   0  0  0  0  0  0  0  0  0  0  0  0
   -1.9837   -2.4520    2.4163 H   0  0  0  0  0  0  0  0  0  0  0  0
   -1.4531   -2.9930    0.0694 H   0  0  0  0  0  0  0  0  0  0  0  0
    0.3199   -3.2542   -1.6304 H   0  0  0  0  0  0  0  0  0  0  0  0
    3.3931   -1.7152   -1.3950 H   0  0  0  0  0  0  0  0  0  0  0  0
    4.3548    1.4257   -2.9109 H   0  0  0  0  0  0  0  0  0  0  0  0
    4.6962    3.0605   -0.9163 H   0  0  0  0  0  0  0  0  0  0  0  0
    1.3362   -0.9891    2.6675 H   0  0  0  0  0  0  0  0  0  0  0  0
   -4.1201   -0.3274    1.1787 H   0  0  0  0  0  0  0  0  0  0  0  0
   -4.6464    0.6578   -1.0203 H   0  0  0  0  0  0  0  0  0  0  0  0
  1  2  1  0
  2  3  2  0
  3  4  1  0
  4  5  2  0
  5  6  1  0
  6  7  2  0
  6  8  2  0
  6  9  1  0
  9 10  1  0
 10 11  2  0
 11 12  1  0
 12 13  2  0
 13 14  1  0
 13 15  1  0
 15 16  1  0
 16 17  1  0
 17 18  1  0
 18 19  2  0
 19 20  1  0
 20 21  1  0
 15 22  2  0
  5 23  1  0
 23 24  2  0
 24  2  1  0
 22 10  1  0
 21 17  2  0
  1 25  1  0
  1 26  1  0
  1 27  1  0
  3 28  1  0
  4 29  1  0
  9 30  1  0
 11 31  1  0
 12 32  1  0
 14 33  1  0
 19 34  1  0
 20 35  1  0
 22 36  1  0
 23 37  1  0
 24 38  1  0
M  END
$$$$
