
     RDKit          3D

 47 49  0  0  0  0  0  0  0  0999 V2000
    8.1583    1.1179   -0.1890 C   0  0  0  0  0  0  0  0  0  0  0  0
    6.7740    1.7167   -0.3851 C   0  0  0  0  0  0  0  0  0  0  0  0
    5.6848    0.7007   -0.1508 C   0  0  0  0  0  0  0  0  0  0  0  0
    5.2204   -0.0985   -1.2033 C   0  0  0  0  0  0  0  0  0  0  0  0
    4.2259   -1.0536   -0.9796 C   0  0  0  0  0  0  0  0  0  0  0  0
    3.6776   -1.2186    0.2936 C   0  0  0  0  0  0  0  0  0  0  0  0
    2.6708   -2.1668    0.5121 N   0  0  0  0  0  0  0  0  0  0  0  0
    1.4403   -1.8060    0.3895 C   0  0  0  0  0  0  0  0  0  0  0  0
    0.9655   -0.5769    0.0633 N   0  0  0  0  0  0  0  0  0  0  0  0
   -0.3881   -0.4116   -0.0093 C   0  0  0  0  0  0  0  0  0  0  0  0
   -0.9223    0.6474   -0.2930 O   0  0  0  0  0  0  0  0  0  0  0  0
   -1.0745   -1.7005    0.3029 C   0  0  0  0  0  0  0  0  0  0  0  0
   -2.3890   -1.9596    0.3573 C   0  0  0  0  0  0  0  0  0  0  0  0
   -3.4892   -1.0211    0.1037 C   0  0  0  0  0  0  0  0  0  0  0  0
   -4.4439   -0.8117    1.1111 C   0  0  0  0  0  0  0  0  0  0  0  0
   -5.5318    0.0311    0.8835 C   0  0  0  0  0  0  0  0  0  0  0  0
   -6.5323    0.3173    1.7791 O   0  0  0  0  0  0  0  0  0  0  0  0
   -6.4232   -0.2688    3.0710 C   0  0  0  0  0  0  0  0  0  0  0  0
   -5.6564    0.6612   -0.3628 C   0  0  0  0  0  0  0  0  0  0  0  0
   -6.7313    1.4896   -0.5810 O   0  0  0  0  0  0  0  0  0  0  0  0
   -4.7114    0.4723   -1.3752 C   0  0  0  0  0  0  0  0  0  0  0  0
   -4.9274    1.1241   -2.5608 O   0  0  0  0  0  0  0  0  0  0  0  0
   -3.7614    1.4340   -3.3148 C   0  0  0  0  0  0  0  0  0  0  0  0
   -3.6389   -0.3918   -1.1407 C   0  0  0  0  0  0  0  0  0  0  0  0
    0.1202   -2.9157    0.6411 S   0  0  0  0  0  0  0  0  0  0  0  0
    4.1574   -0.4426    1.3503 C   0  0  0  0  0  0  0  0  0  0  0  0
    5.1516    0.5139    1.1310 C   0  0  0  0  0  0  0  0  0  0  0  0
    8.9271    1.8773   -0.3631 H   0  0  0  0  0  0  0  0  0  0  0  0
    8.3353    0.2902   -0.8843 H   0  0  0  0  0  0  0  0  0  0  0  0
    8.2848    0.7339    0.8290 H   0  0  0  0  0  0  0  0  0  0  0  0
    6.6379    2.5663    0.2950 H   0  0  0  0  0  0  0  0  0  0  0  0
    6.6863    2.1235   -1.3999 H   0  0  0  0  0  0  0  0  0  0  0  0
    5.6373    0.0110   -2.2021 H   0  0  0  0  0  0  0  0  0  0  0  0
    3.8819   -1.6771   -1.8006 H   0  0  0  0  0  0  0  0  0  0  0  0
    1.5753    0.2043   -0.1188 H   0  0  0  0  0  0  0  0  0  0  0  0
   -2.7241   -2.9592    0.6315 H   0  0  0  0  0  0  0  0  0  0  0  0
   -4.3174   -1.3193    2.0619 H   0  0  0  0  0  0  0  0  0  0  0  0
   -7.2775    0.0706    3.6645 H   0  0  0  0  0  0  0  0  0  0  0  0
   -6.4708   -1.3611    3.0130 H   0  0  0  0  0  0  0  0  0  0  0  0
   -5.5117    0.0624    3.5795 H   0  0  0  0  0  0  0  0  0  0  0  0
   -7.2405    1.4715    0.2505 H   0  0  0  0  0  0  0  0  0  0  0  0
   -3.3911    0.5461   -3.8371 H   0  0  0  0  0  0  0  0  0  0  0  0
   -2.9783    1.8775   -2.6896 H   0  0  0  0  0  0  0  0  0  0  0  0
   -4.0404    2.1722   -4.0729 H   0  0  0  0  0  0  0  0  0  0  0  0
   -2.9134   -0.5901   -1.9229 H   0  0  0  0  0  0  0  0  0  0  0  0
    3.7598   -0.5879    2.3512 H   0  0  0  0  0  0  0  0  0  0  0  0
    5.5141    1.1054    1.9689 H   0  0  0  0  0  0  0  0  0  0  0  0
  1  2  1  0
  2  3  1  0
  3  4  2  0
  4  5  1  0
  5  6  2  0
  6  7  1  0
  7  8  2  3
  8  9  1  0
  9 10  1  0
 10 11  2  0
 10 12  1  0
 12 13  2  3
 13 14  1  0
 14 15  2  0
 15 16  1  0
 16 17  1  0
 17 18  1  0
 16 19  2  0
 19 20  1  0
 19 21  1  0
 21 22  1  0
 22 23  1  0
 21 24  2  0
 12 25  1  0
  6 26  1  0
 26 27  2  0
 27  3  1  0
 25  8  1  0
 24 14  1  0
  1 28  1  0
  1 29  1  0
  1 30  1  0
  2 31  1  0
  2 32  1  0
  4 33  1  0
  5 34  1  0
  9 35  1  0
 13 36  1  0
 15 37  1  0
 18 38  1  0
 18 39  1  0
 18 40  1  0
 20 41  1  0
 23 42  1  0
 23 43  1  0
 23 44  1  0
 24 45  1  0
 26 46  1  0
 27 47  1  0
M  END
$$$$
