
     RDKit          3D

 57 59  0  0  0  0  0  0  0  0999 V2000
   -5.2579   -1.8116    0.0054 C   0  0  0  0  0  0  0  0  0  0  0  0
   -4.7440   -1.1485   -1.2700 C   0  0  0  0  0  0  0  0  0  0  0  0
   -3.3594   -1.4620   -1.6634 N   0  0  0  0  0  0  0  0  0  0  0  0
   -3.1357   -2.8856   -1.9802 C   0  0  0  0  0  0  0  0  0  0  0  0
   -4.0271   -3.4199   -3.0972 C   0  0  0  0  0  0  0  0  0  0  0  0
   -2.3499   -1.0035   -0.6877 C   0  0  0  0  0  0  0  0  0  0  0  0
   -2.2890    0.5228   -0.4960 C   0  0  0  0  0  0  0  0  0  0  0  0
   -1.2098    0.8193    0.3989 O   0  0  0  0  0  0  0  0  0  0  0  0
   -0.9707    2.1369    0.6965 C   0  0  0  0  0  0  0  0  0  0  0  0
   -1.5677    3.2153    0.1340 C   0  0  0  0  0  0  0  0  0  0  0  0
   -1.1987    4.5814    0.6460 C   0  0  2  0  0  0  0  0  0  0  0  0
   -1.4289    5.6407   -0.2709 O   0  0  0  0  0  0  0  0  0  0  0  0
   -0.7227    6.7201    0.2161 C   0  0  0  0  0  0  0  0  0  0  0  0
   -0.8456    7.8541   -0.2153 O   0  0  0  0  0  0  0  0  0  0  0  0
    0.4503    6.3124    1.4902 S   0  0  0  0  0  0  0  0  0  0  0  0
    0.2955    4.6117    0.9817 C   0  0  1  0  0  0  0  0  0  0  0  0
    0.6423    3.5279    1.9404 C   0  0  0  0  0  0  0  0  0  0  0  0
    0.0308    2.3350    1.7588 C   0  0  0  0  0  0  0  0  0  0  0  0
    0.3736    1.2497    2.7141 C   0  0  0  0  0  0  0  0  0  0  0  0
   -0.1990    1.1568    3.7972 O   0  0  0  0  0  0  0  0  0  0  0  0
    1.4653    0.3015    2.3601 C   0  0  0  0  0  0  0  0  0  0  0  0
    2.1119    0.2557    1.1863 C   0  0  0  0  0  0  0  0  0  0  0  0
    3.2039   -0.6896    0.9119 C   0  0  0  0  0  0  0  0  0  0  0  0
    3.1499   -2.0305    1.3076 C   0  0  0  0  0  0  0  0  0  0  0  0
    4.2084   -2.8981    1.0155 C   0  0  0  0  0  0  0  0  0  0  0  0
    5.3323   -2.4462    0.3201 C   0  0  0  0  0  0  0  0  0  0  0  0
    6.2981   -3.3931    0.1085 O   0  0  0  0  0  0  0  0  0  0  0  0
    7.5169   -2.9485   -0.4780 C   0  0  0  0  0  0  0  0  0  0  0  0
    5.3801   -1.1177   -0.1003 C   0  0  0  0  0  0  0  0  0  0  0  0
    4.3204   -0.2473    0.1903 C   0  0  0  0  0  0  0  0  0  0  0  0
   -5.2531   -2.9029   -0.0687 H   0  0  0  0  0  0  0  0  0  0  0  0
   -4.6747   -1.5150    0.8814 H   0  0  0  0  0  0  0  0  0  0  0  0
   -6.2935   -1.5004    0.1864 H   0  0  0  0  0  0  0  0  0  0  0  0
   -5.4231   -1.4004   -2.0932 H   0  0  0  0  0  0  0  0  0  0  0  0
   -4.8565   -0.0628   -1.1684 H   0  0  0  0  0  0  0  0  0  0  0  0
   -3.2482   -3.5162   -1.0889 H   0  0  0  0  0  0  0  0  0  0  0  0
   -2.0985   -3.0092   -2.3208 H   0  0  0  0  0  0  0  0  0  0  0  0
   -5.0630   -3.5395   -2.7648 H   0  0  0  0  0  0  0  0  0  0  0  0
   -4.0118   -2.7581   -3.9688 H   0  0  0  0  0  0  0  0  0  0  0  0
   -3.6712   -4.4064   -3.4184 H   0  0  0  0  0  0  0  0  0  0  0  0
   -1.3519   -1.3116   -1.0322 H   0  0  0  0  0  0  0  0  0  0  0  0
   -2.4772   -1.4950    0.2847 H   0  0  0  0  0  0  0  0  0  0  0  0
   -3.2229    0.8952   -0.0574 H   0  0  0  0  0  0  0  0  0  0  0  0
   -2.1118    1.0022   -1.4669 H   0  0  0  0  0  0  0  0  0  0  0  0
   -2.3407    3.1459   -0.6212 H   0  0  0  0  0  0  0  0  0  0  0  0
   -1.8452    4.7612    1.5224 H   0  0  0  0  0  0  0  0  0  0  0  0
    0.9138    4.4970    0.0799 H   0  0  0  0  0  0  0  0  0  0  0  0
    1.3700    3.6916    2.7293 H   0  0  0  0  0  0  0  0  0  0  0  0
    1.7146   -0.3771    3.1696 H   0  0  0  0  0  0  0  0  0  0  0  0
    1.8759    0.9399    0.3777 H   0  0  0  0  0  0  0  0  0  0  0  0
    2.2851   -2.4225    1.8384 H   0  0  0  0  0  0  0  0  0  0  0  0
    4.1557   -3.9369    1.3332 H   0  0  0  0  0  0  0  0  0  0  0  0
    7.3574   -2.6192   -1.5098 H   0  0  0  0  0  0  0  0  0  0  0  0
    7.9812   -2.1596    0.1238 H   0  0  0  0  0  0  0  0  0  0  0  0
    8.2070   -3.7980   -0.5030 H   0  0  0  0  0  0  0  0  0  0  0  0
    6.2241   -0.7270   -0.6618 H   0  0  0  0  0  0  0  0  0  0  0  0
    4.3849    0.7854   -0.1474 H   0  0  0  0  0  0  0  0  0  0  0  0
  1  2  1  0
  2  3  1  0
  3  4  1  0
  4  5  1  0
  3  6  1  0
  6  7  1  0
  7  8  1  0
  8  9  1  0
  9 10  2  0
 10 11  1  0
 11 12  1  0
 12 13  1  0
 13 14  2  0
 13 15  1  0
 15 16  1  0
 16 17  1  0
 17 18  2  0
 18 19  1  0
 19 20  2  0
 19 21  1  0
 21 22  2  0
 22 23  1  0
 23 24  2  0
 24 25  1  0
 25 26  2  0
 26 27  1  0
 27 28  1  0
 26 29  1  0
 29 30  2  0
 18  9  1  0
 30 23  1  0
 16 11  1  0
  1 31  1  0
  1 32  1  0
  1 33  1  0
  2 34  1  0
  2 35  1  0
  4 36  1  0
  4 37  1  0
  5 38  1  0
  5 39  1  0
  5 40  1  0
  6 41  1  0
  6 42  1  0
  7 43  1  0
  7 44  1  0
 10 45  1  0
 11 46  1  1
 16 47  1  6
 17 48  1  0
 21 49  1  0
 22 50  1  0
 24 51  1  0
 25 52  1  0
 28 53  1  0
 28 54  1  0
 28 55  1  0
 29 56  1  0
 30 57  1  0
M  END
$$$$
