
     RDKit          3D

 48 50  0  0  0  0  0  0  0  0999 V2000
    0.3971    1.3485   -2.5522 C   0  0  0  0  0  0  0  0  0  0  0  0
   -1.0069    1.5751   -2.3821 O   0  0  0  0  0  0  0  0  0  0  0  0
   -1.4455    0.9789   -1.2297 C   0  0  0  0  0  0  0  0  0  0  0  0
   -1.3046    1.6539   -0.0177 C   0  0  0  0  0  0  0  0  0  0  0  0
   -1.7287    1.0456    1.1675 C   0  0  0  0  0  0  0  0  0  0  0  0
   -1.5186    1.6779    2.4756 C   0  0  0  0  0  0  0  0  0  0  0  0
   -0.3566    2.1247    2.9983 C   0  0  0  0  0  0  0  0  0  0  0  0
   -0.3748    2.7676    4.2720 C   0  0  0  0  0  0  0  0  0  0  0  0
   -0.4519    3.2565    5.3217 N   0  0  0  0  0  0  0  0  0  0  0  0
    0.9765    2.0692    2.3149 C   0  0  0  0  0  0  0  0  0  0  0  0
    1.6871    3.0682    2.3250 O   0  0  0  0  0  0  0  0  0  0  0  0
    1.2744    0.8515    1.7296 N   0  0  0  0  0  0  0  0  0  0  0  0
    2.4225    0.5140    0.9602 C   0  0  0  0  0  0  0  0  0  0  0  0
    3.5452    1.3468    0.9256 C   0  0  0  0  0  0  0  0  0  0  0  0
    4.6594    1.0025    0.1676 C   0  0  0  0  0  0  0  0  0  0  0  0
    4.6596   -0.1788   -0.5663 C   0  0  0  0  0  0  0  0  0  0  0  0
    3.5745   -1.0365   -0.5638 C   0  0  0  0  0  0  0  0  0  0  0  0
    3.6695   -2.1468   -1.3165 N   0  0  0  0  0  0  0  0  0  0  0  0
    2.6186   -2.9890   -1.3546 C   0  0  0  0  0  0  0  0  0  0  0  0
    1.4509   -2.7761   -0.6573 C   0  0  0  0  0  0  0  0  0  0  0  0
    1.3621   -1.6333    0.1303 C   0  0  0  0  0  0  0  0  0  0  0  0
    2.4315   -0.7060    0.2061 C   0  0  0  0  0  0  0  0  0  0  0  0
   -2.3577   -0.2099    1.1196 C   0  0  0  0  0  0  0  0  0  0  0  0
   -2.5290   -0.8789   -0.0986 C   0  0  0  0  0  0  0  0  0  0  0  0
   -3.0882   -2.1211   -0.2381 O   0  0  0  0  0  0  0  0  0  0  0  0
   -3.7292   -2.6861    0.8977 C   0  0  0  0  0  0  0  0  0  0  0  0
   -2.0699   -0.2716   -1.2767 C   0  0  0  0  0  0  0  0  0  0  0  0
   -2.1560   -0.9525   -2.4689 O   0  0  0  0  0  0  0  0  0  0  0  0
   -3.3328   -0.5527   -3.1726 C   0  0  0  0  0  0  0  0  0  0  0  0
    0.6746    1.7042   -3.5484 H   0  0  0  0  0  0  0  0  0  0  0  0
    0.6463    0.2815   -2.4933 H   0  0  0  0  0  0  0  0  0  0  0  0
    0.9725    1.9248   -1.8165 H   0  0  0  0  0  0  0  0  0  0  0  0
   -0.8472    2.6393   -0.0139 H   0  0  0  0  0  0  0  0  0  0  0  0
   -2.4342    1.7804    3.0610 H   0  0  0  0  0  0  0  0  0  0  0  0
    0.5637    0.1382    1.7898 H   0  0  0  0  0  0  0  0  0  0  0  0
    3.5973    2.2681    1.4948 H   0  0  0  0  0  0  0  0  0  0  0  0
    5.5308    1.6516    0.1551 H   0  0  0  0  0  0  0  0  0  0  0  0
    5.5335   -0.4392   -1.1596 H   0  0  0  0  0  0  0  0  0  0  0  0
    2.7478   -3.8643   -1.9863 H   0  0  0  0  0  0  0  0  0  0  0  0
    0.6240   -3.4734   -0.7289 H   0  0  0  0  0  0  0  0  0  0  0  0
    0.4326   -1.4808    0.6652 H   0  0  0  0  0  0  0  0  0  0  0  0
   -2.6868   -0.6632    2.0501 H   0  0  0  0  0  0  0  0  0  0  0  0
   -4.1994   -3.6205    0.5830 H   0  0  0  0  0  0  0  0  0  0  0  0
   -4.5150   -2.0274    1.2813 H   0  0  0  0  0  0  0  0  0  0  0  0
   -3.0012   -2.9291    1.6788 H   0  0  0  0  0  0  0  0  0  0  0  0
   -4.2302   -0.6643   -2.5538 H   0  0  0  0  0  0  0  0  0  0  0  0
   -3.4393   -1.2049   -4.0461 H   0  0  0  0  0  0  0  0  0  0  0  0
   -3.2483    0.4793   -3.5290 H   0  0  0  0  0  0  0  0  0  0  0  0
  1  2  1  0
  2  3  1  0
  3  4  2  0
  4  5  1  0
  5  6  1  0
  6  7  2  3
  7  8  1  0
  8  9  3  0
  7 10  1  0
 10 11  2  0
 10 12  1  0
 12 13  1  0
 13 14  2  0
 14 15  1  0
 15 16  2  0
 16 17  1  0
 17 18  2  0
 18 19  1  0
 19 20  2  0
 20 21  1  0
 21 22  2  0
  5 23  2  0
 23 24  1  0
 24 25  1  0
 25 26  1  0
 24 27  2  0
 27 28  1  0
 28 29  1  0
 27  3  1  0
 22 13  1  0
 22 17  1  0
  1 30  1  0
  1 31  1  0
  1 32  1  0
  4 33  1  0
  6 34  1  0
 12 35  1  0
 14 36  1  0
 15 37  1  0
 16 38  1  0
 19 39  1  0
 20 40  1  0
 21 41  1  0
 23 42  1  0
 26 43  1  0
 26 44  1  0
 26 45  1  0
 29 46  1  0
 29 47  1  0
 29 48  1  0
M  END
$$$$
