
     RDKit          3D

 29 29  0  0  0  0  0  0  0  0999 V2000
   -4.0717   -2.2068   -2.4895 C   0  0  0  0  0  0  0  0  0  0  0  0
   -4.0423   -1.8795   -1.3339 C   0  0  0  0  0  0  0  0  0  0  0  0
   -4.0104   -1.4803    0.0786 C   0  0  0  0  0  0  0  0  0  0  0  0
   -2.7779   -1.8922    0.7455 N   0  0  0  0  0  0  0  0  0  0  0  0
   -1.5617   -1.2304    0.2618 C   0  0  0  0  0  0  0  0  0  0  0  0
   -1.4849    0.2576    0.6226 C   0  0  0  0  0  0  0  0  0  0  0  0
   -0.1743    0.8864    0.1514 C   0  0  0  0  0  0  0  0  0  0  0  0
    0.9128    0.2917    0.8715 O   0  0  0  0  0  0  0  0  0  0  0  0
    2.1130    0.7210    0.3686 C   0  0  0  0  0  0  0  0  0  0  0  0
    2.6626    1.8993    0.8778 C   0  0  0  0  0  0  0  0  0  0  0  0
    3.9023    2.3410    0.4137 C   0  0  0  0  0  0  0  0  0  0  0  0
    4.5901    1.5944   -0.5440 C   0  0  0  0  0  0  0  0  0  0  0  0
    6.1183    2.1441   -1.1129 Cl  0  0  0  0  0  0  0  0  0  0  0  0
    4.0559    0.4059   -1.0397 C   0  0  0  0  0  0  0  0  0  0  0  0
    2.8167   -0.0361   -0.5754 C   0  0  0  0  0  0  0  0  0  0  0  0
    2.1828   -1.5173   -1.1929 Cl  0  0  0  0  0  0  0  0  0  0  0  0
   -4.0906   -2.5069   -3.5114 H   0  0  0  0  0  0  0  0  0  0  0  0
   -4.8462   -1.9707    0.5915 H   0  0  0  0  0  0  0  0  0  0  0  0
   -4.1831   -0.4044    0.1832 H   0  0  0  0  0  0  0  0  0  0  0  0
   -2.8723   -1.7275    1.7459 H   0  0  0  0  0  0  0  0  0  0  0  0
   -0.7149   -1.7533    0.7217 H   0  0  0  0  0  0  0  0  0  0  0  0
   -1.4435   -1.3688   -0.8190 H   0  0  0  0  0  0  0  0  0  0  0  0
   -1.5696    0.3692    1.7105 H   0  0  0  0  0  0  0  0  0  0  0  0
   -2.3131    0.8071    0.1630 H   0  0  0  0  0  0  0  0  0  0  0  0
   -0.2035    1.9630    0.3601 H   0  0  0  0  0  0  0  0  0  0  0  0
   -0.0586    0.7403   -0.9302 H   0  0  0  0  0  0  0  0  0  0  0  0
    2.1315    2.4668    1.6373 H   0  0  0  0  0  0  0  0  0  0  0  0
    4.3292    3.2606    0.8065 H   0  0  0  0  0  0  0  0  0  0  0  0
    4.6032   -0.1742   -1.7774 H   0  0  0  0  0  0  0  0  0  0  0  0
  1  2  3  0
  2  3  1  0
  3  4  1  0
  4  5  1  0
  5  6  1  0
  6  7  1  0
  7  8  1  0
  8  9  1  0
  9 10  2  0
 10 11  1  0
 11 12  2  0
 12 13  1  0
 12 14  1  0
 14 15  2  0
 15 16  1  0
 15  9  1  0
  1 17  1  0
  3 18  1  0
  3 19  1  0
  4 20  1  0
  5 21  1  0
  5 22  1  0
  6 23  1  0
  6 24  1  0
  7 25  1  0
  7 26  1  0
 10 27  1  0
 11 28  1  0
 14 29  1  0
M  END
$$$$
