
     RDKit          3D

 46 49  0  0  0  0  0  0  0  0999 V2000
    3.9532    1.0061    2.4173 O   0  0  0  0  0  0  0  0  0  0  0  0
    3.4371    0.1022    1.7641 C   0  0  0  0  0  0  0  0  0  0  0  0
    2.9449   -1.1693    2.4507 C   0  0  0  0  0  0  0  0  0  0  0  0
    1.1608   -1.0869    2.7960 S   0  0  0  0  0  0  0  0  0  0  0  0
    0.5077   -1.3499    1.2196 C   0  0  0  0  0  0  0  0  0  0  0  0
    1.1990   -1.7584    0.1809 N   0  0  0  0  0  0  0  0  0  0  0  0
    0.3790   -1.7198   -0.9109 N   0  0  0  0  0  0  0  0  0  0  0  0
   -0.8170   -1.3182   -0.5159 C   0  0  0  0  0  0  0  0  0  0  0  0
   -2.0031   -1.1485   -1.4127 C   0  0  0  0  0  0  0  0  0  0  0  0
   -2.4423    0.2818   -1.5929 C   0  0  0  0  0  0  0  0  0  0  0  0
   -3.7129    0.8025   -1.4325 C   0  0  0  0  0  0  0  0  0  0  0  0
   -3.7604    2.2094   -1.6650 C   0  0  0  0  0  0  0  0  0  0  0  0
   -2.5301    2.7112   -2.0252 C   0  0  0  0  0  0  0  0  0  0  0  0
   -1.3304    1.4950   -2.0896 S   0  0  0  0  0  0  0  0  0  0  0  0
   -0.7811   -1.0836    0.8454 N   0  0  0  0  0  0  0  0  0  0  0  0
   -1.8549   -0.5709    1.6741 C   0  0  0  0  0  0  0  0  0  0  0  0
   -2.8501   -1.6265    1.9891 C   0  0  0  0  0  0  0  0  0  0  0  0
   -4.2247   -1.6971    1.8894 C   0  0  0  0  0  0  0  0  0  0  0  0
   -4.5914   -2.9863    2.3569 C   0  0  0  0  0  0  0  0  0  0  0  0
   -3.4211   -3.6112    2.7225 C   0  0  0  0  0  0  0  0  0  0  0  0
   -2.3625   -2.7840    2.5214 O   0  0  0  0  0  0  0  0  0  0  0  0
    3.2462    0.0995    0.3906 N   0  0  0  0  0  0  0  0  0  0  0  0
    3.6112    1.0939   -0.5386 C   0  0  0  0  0  0  0  0  0  0  0  0
    4.4396    2.1767   -0.2348 C   0  0  0  0  0  0  0  0  0  0  0  0
    4.7613    3.1072   -1.2258 C   0  0  0  0  0  0  0  0  0  0  0  0
    5.7980    4.4313   -0.8498 Cl  0  0  0  0  0  0  0  0  0  0  0  0
    4.2622    2.9767   -2.5194 C   0  0  0  0  0  0  0  0  0  0  0  0
    3.4282    1.9042   -2.8171 C   0  0  0  0  0  0  0  0  0  0  0  0
    2.7835    1.7409   -4.4044 Cl  0  0  0  0  0  0  0  0  0  0  0  0
    3.1081    0.9613   -1.8398 C   0  0  0  0  0  0  0  0  0  0  0  0
    3.2069   -2.0519    1.8599 H   0  0  0  0  0  0  0  0  0  0  0  0
    3.4762   -1.2632    3.4050 H   0  0  0  0  0  0  0  0  0  0  0  0
   -2.8371   -1.7480   -1.0238 H   0  0  0  0  0  0  0  0  0  0  0  0
   -1.7683   -1.5660   -2.4005 H   0  0  0  0  0  0  0  0  0  0  0  0
   -4.5749    0.2066   -1.1519 H   0  0  0  0  0  0  0  0  0  0  0  0
   -4.6527    2.8214   -1.5839 H   0  0  0  0  0  0  0  0  0  0  0  0
   -2.2785    3.7354   -2.2657 H   0  0  0  0  0  0  0  0  0  0  0  0
   -1.4428   -0.1608    2.6001 H   0  0  0  0  0  0  0  0  0  0  0  0
   -2.3173    0.2682    1.1476 H   0  0  0  0  0  0  0  0  0  0  0  0
   -4.8862   -0.9197    1.5252 H   0  0  0  0  0  0  0  0  0  0  0  0
   -5.5871   -3.4007    2.4324 H   0  0  0  0  0  0  0  0  0  0  0  0
   -3.1861   -4.5847    3.1340 H   0  0  0  0  0  0  0  0  0  0  0  0
    2.6673   -0.6612    0.0234 H   0  0  0  0  0  0  0  0  0  0  0  0
    4.8608    2.3067    0.7566 H   0  0  0  0  0  0  0  0  0  0  0  0
    4.5297    3.6990   -3.2885 H   0  0  0  0  0  0  0  0  0  0  0  0
    2.4521    0.1290   -2.0955 H   0  0  0  0  0  0  0  0  0  0  0  0
  1  2  2  0
  2  3  1  0
  3  4  1  0
  4  5  1  0
  5  6  2  0
  6  7  1  0
  7  8  2  0
  8  9  1  0
  9 10  1  0
 10 11  2  0
 11 12  1  0
 12 13  2  0
 13 14  1  0
  8 15  1  0
 15 16  1  0
 16 17  1  0
 17 18  2  0
 18 19  1  0
 19 20  2  0
 20 21  1  0
  2 22  1  0
 22 23  1  0
 23 24  2  0
 24 25  1  0
 25 26  1  0
 25 27  2  0
 27 28  1  0
 28 29  1  0
 28 30  2  0
 15  5  1  0
 21 17  1  0
 30 23  1  0
 14 10  1  0
  3 31  1  0
  3 32  1  0
  9 33  1  0
  9 34  1  0
 11 35  1  0
 12 36  1  0
 13 37  1  0
 16 38  1  0
 16 39  1  0
 18 40  1  0
 19 41  1  0
 20 42  1  0
 22 43  1  0
 24 44  1  0
 27 45  1  0
 30 46  1  0
M  END
$$$$
