
     RDKit          3D

 37 38  0  0  0  0  0  0  0  0999 V2000
   -5.1184    1.4203   -2.1323 C   0  0  0  0  0  0  0  0  0  0  0  0
   -4.5799    1.2623   -0.8273 O   0  0  0  0  0  0  0  0  0  0  0  0
   -3.4040    0.5651   -0.7028 C   0  0  0  0  0  0  0  0  0  0  0  0
   -2.7037    0.0001   -1.7737 C   0  0  0  0  0  0  0  0  0  0  0  0
   -1.5107   -0.6902   -1.5485 C   0  0  0  0  0  0  0  0  0  0  0  0
   -1.0018   -0.8105   -0.2530 C   0  0  0  0  0  0  0  0  0  0  0  0
    0.2782   -1.5443   -0.0637 C   0  0  0  0  0  0  0  0  0  0  0  0
    0.5865   -2.4493   -0.8298 O   0  0  0  0  0  0  0  0  0  0  0  0
    1.0780   -1.1133    0.9737 N   0  0  0  0  0  0  0  0  0  0  0  0
    2.4045   -1.6534    1.1698 C   0  0  0  0  0  0  0  0  0  0  0  0
    3.4437   -0.7654    0.5325 C   0  0  0  0  0  0  0  0  0  0  0  0
    4.1404    0.1838    1.2915 C   0  0  0  0  0  0  0  0  0  0  0  0
    5.0837    1.0182    0.6861 C   0  0  0  0  0  0  0  0  0  0  0  0
    5.3366    0.9192   -0.6853 C   0  0  0  0  0  0  0  0  0  0  0  0
    6.5146    1.9862   -1.3632 Cl  0  0  0  0  0  0  0  0  0  0  0  0
    4.6410   -0.0188   -1.4543 C   0  0  0  0  0  0  0  0  0  0  0  0
    4.8939   -0.1931   -3.1545 Cl  0  0  0  0  0  0  0  0  0  0  0  0
    3.6987   -0.8545   -0.8456 C   0  0  0  0  0  0  0  0  0  0  0  0
   -1.7056   -0.2654    0.8286 C   0  0  0  0  0  0  0  0  0  0  0  0
   -2.9053    0.4224    0.6100 C   0  0  0  0  0  0  0  0  0  0  0  0
   -3.6590    0.9966    1.6044 O   0  0  0  0  0  0  0  0  0  0  0  0
   -3.2935    0.7332    2.9511 C   0  0  0  0  0  0  0  0  0  0  0  0
   -4.4362    1.9859   -2.7755 H   0  0  0  0  0  0  0  0  0  0  0  0
   -6.0450    1.9957   -2.0443 H   0  0  0  0  0  0  0  0  0  0  0  0
   -5.3702    0.4513   -2.5757 H   0  0  0  0  0  0  0  0  0  0  0  0
   -3.0586    0.0763   -2.7961 H   0  0  0  0  0  0  0  0  0  0  0  0
   -0.9758   -1.1292   -2.3890 H   0  0  0  0  0  0  0  0  0  0  0  0
    0.8770   -0.2215    1.4036 H   0  0  0  0  0  0  0  0  0  0  0  0
    2.4753   -2.6706    0.7684 H   0  0  0  0  0  0  0  0  0  0  0  0
    2.5707   -1.7193    2.2507 H   0  0  0  0  0  0  0  0  0  0  0  0
    3.9566    0.2801    2.3599 H   0  0  0  0  0  0  0  0  0  0  0  0
    5.6192    1.7471    1.2903 H   0  0  0  0  0  0  0  0  0  0  0  0
    3.1507   -1.5802   -1.4468 H   0  0  0  0  0  0  0  0  0  0  0  0
   -1.3202   -0.4040    1.8315 H   0  0  0  0  0  0  0  0  0  0  0  0
   -3.2956   -0.3416    3.1607 H   0  0  0  0  0  0  0  0  0  0  0  0
   -2.3233    1.1813    3.1888 H   0  0  0  0  0  0  0  0  0  0  0  0
   -4.0422    1.1997    3.5986 H   0  0  0  0  0  0  0  0  0  0  0  0
  1  2  1  0
  2  3  1  0
  3  4  2  0
  4  5  1  0
  5  6  2  0
  6  7  1  0
  7  8  2  0
  7  9  1  0
  9 10  1  0
 10 11  1  0
 11 12  2  0
 12 13  1  0
 13 14  2  0
 14 15  1  0
 14 16  1  0
 16 17  1  0
 16 18  2  0
  6 19  1  0
 19 20  2  0
 20 21  1  0
 21 22  1  0
 20  3  1  0
 18 11  1  0
  1 23  1  0
  1 24  1  0
  1 25  1  0
  4 26  1  0
  5 27  1  0
  9 28  1  0
 10 29  1  0
 10 30  1  0
 12 31  1  0
 13 32  1  0
 18 33  1  0
 19 34  1  0
 22 35  1  0
 22 36  1  0
 22 37  1  0
M  END
$$$$
