
     RDKit          3D

 36 35  0  0  0  0  0  0  0  0999 V2000
    1.4366   -2.4175   -2.3204 C   0  0  0  0  0  0  0  0  0  0  0  0
    0.8596   -1.1902   -1.6275 C   0  0  0  0  0  0  0  0  0  0  0  0
    1.1946   -1.1148   -0.1923 N   0  0  0  0  0  0  0  0  0  0  0  0
    2.3439   -0.2510    0.1396 C   0  0  0  0  0  0  0  0  0  0  0  0
    3.6912   -0.9242   -0.0688 C   0  0  0  0  0  0  0  0  0  0  0  0
    0.5542   -1.8986    0.7948 C   0  0  0  0  0  0  0  0  0  0  0  0
    1.0934   -2.0883    2.3858 S   0  0  0  0  0  0  0  0  0  0  0  0
   -0.9052   -2.7784    0.2941 S   0  0  0  0  0  0  0  0  0  0  0  0
   -2.4118   -1.6903    1.1988 S   0  0  0  0  0  0  0  0  0  0  0  0
   -2.7402   -0.3959    0.0267 C   0  0  0  0  0  0  0  0  0  0  0  0
   -3.4295   -0.8063   -1.4629 S   0  0  0  0  0  0  0  0  0  0  0  0
   -2.4466    0.9237    0.4396 N   0  0  0  0  0  0  0  0  0  0  0  0
   -2.1600    1.3023    1.8383 C   0  0  0  0  0  0  0  0  0  0  0  0
   -0.7186    1.7272    2.0594 C   0  0  0  0  0  0  0  0  0  0  0  0
   -2.4911    2.0528   -0.5103 C   0  0  0  0  0  0  0  0  0  0  0  0
   -1.2475    2.1349   -1.3863 C   0  0  0  0  0  0  0  0  0  0  0  0
    1.1051   -3.3481   -1.8518 H   0  0  0  0  0  0  0  0  0  0  0  0
    2.5290   -2.4136   -2.3010 H   0  0  0  0  0  0  0  0  0  0  0  0
    1.1225   -2.4368   -3.3689 H   0  0  0  0  0  0  0  0  0  0  0  0
    1.2241   -0.2847   -2.1260 H   0  0  0  0  0  0  0  0  0  0  0  0
   -0.2248   -1.1784   -1.7519 H   0  0  0  0  0  0  0  0  0  0  0  0
    2.2698    0.0891    1.1766 H   0  0  0  0  0  0  0  0  0  0  0  0
    2.2804    0.6585   -0.4694 H   0  0  0  0  0  0  0  0  0  0  0  0
    3.8873   -1.0948   -1.1307 H   0  0  0  0  0  0  0  0  0  0  0  0
    4.4935   -0.2845    0.3127 H   0  0  0  0  0  0  0  0  0  0  0  0
    3.7474   -1.8884    0.4448 H   0  0  0  0  0  0  0  0  0  0  0  0
   -2.8328    2.1281    2.1005 H   0  0  0  0  0  0  0  0  0  0  0  0
   -2.4097    0.5002    2.5346 H   0  0  0  0  0  0  0  0  0  0  0  0
   -0.4935    2.6591    1.5322 H   0  0  0  0  0  0  0  0  0  0  0  0
   -0.0233    0.9647    1.7049 H   0  0  0  0  0  0  0  0  0  0  0  0
   -0.5328    1.8975    3.1244 H   0  0  0  0  0  0  0  0  0  0  0  0
   -3.3845    1.9756   -1.1376 H   0  0  0  0  0  0  0  0  0  0  0  0
   -2.5989    2.9881    0.0513 H   0  0  0  0  0  0  0  0  0  0  0  0
   -1.3068    3.0100   -2.0411 H   0  0  0  0  0  0  0  0  0  0  0  0
   -0.3382    2.2226   -0.7849 H   0  0  0  0  0  0  0  0  0  0  0  0
   -1.1367    1.2506   -2.0193 H   0  0  0  0  0  0  0  0  0  0  0  0
  1  2  1  0
  2  3  1  0
  3  4  1  0
  4  5  1  0
  3  6  1  0
  6  7  2  0
  6  8  1  0
  8  9  1  0
  9 10  1  0
 10 11  2  0
 10 12  1  0
 12 13  1  0
 13 14  1  0
 12 15  1  0
 15 16  1  0
  1 17  1  0
  1 18  1  0
  1 19  1  0
  2 20  1  0
  2 21  1  0
  4 22  1  0
  4 23  1  0
  5 24  1  0
  5 25  1  0
  5 26  1  0
 13 27  1  0
 13 28  1  0
 14 29  1  0
 14 30  1  0
 14 31  1  0
 15 32  1  0
 15 33  1  0
 16 34  1  0
 16 35  1  0
 16 36  1  0
M  END
$$$$
