
     RDKit          3D

 50 53  0  0  0  0  0  0  0  0999 V2000
    8.7213    1.7877    1.7299 C   0  0  0  0  0  0  0  0  0  0  0  0
    7.6617    1.6115    0.6573 C   0  0  0  0  0  0  0  0  0  0  0  0
    6.4945    1.0734    1.2778 O   0  0  0  0  0  0  0  0  0  0  0  0
    5.4395    0.7383    0.4778 C   0  0  0  0  0  0  0  0  0  0  0  0
    5.3447    1.0459   -0.8820 C   0  0  0  0  0  0  0  0  0  0  0  0
    4.1990    0.6980   -1.6124 C   0  0  0  0  0  0  0  0  0  0  0  0
    3.1205    0.0520   -0.9932 C   0  0  0  0  0  0  0  0  0  0  0  0
    1.9293   -0.2947   -1.8174 C   0  0  0  0  0  0  0  0  0  0  0  0
    2.1177   -0.6154   -2.9840 O   0  0  0  0  0  0  0  0  0  0  0  0
    0.7159   -0.1854   -1.1642 N   0  0  0  0  0  0  0  0  0  0  0  0
   -0.5646   -0.4701   -1.6873 C   0  0  0  0  0  0  0  0  0  0  0  0
   -0.7894   -0.9842   -2.9638 C   0  0  0  0  0  0  0  0  0  0  0  0
   -2.0910   -1.2260   -3.4095 C   0  0  0  0  0  0  0  0  0  0  0  0
   -3.1797   -0.9625   -2.5790 C   0  0  0  0  0  0  0  0  0  0  0  0
   -2.9795   -0.4608   -1.2861 C   0  0  0  0  0  0  0  0  0  0  0  0
   -4.1269   -0.1867   -0.3918 C   0  0  0  0  0  0  0  0  0  0  0  0
   -5.0119   -1.1700   -0.1533 C   0  0  0  0  0  0  0  0  0  0  0  0
   -6.1526   -0.9524    0.7203 C   0  0  0  0  0  0  0  0  0  0  0  0
   -7.0914   -1.9530    0.9814 C   0  0  0  0  0  0  0  0  0  0  0  0
   -8.1744   -1.6932    1.8276 C   0  0  0  0  0  0  0  0  0  0  0  0
   -8.3233   -0.4348    2.4150 C   0  0  0  0  0  0  0  0  0  0  0  0
   -7.3896    0.5672    2.1587 C   0  0  0  0  0  0  0  0  0  0  0  0
   -6.3165    0.2932    1.3142 C   0  0  0  0  0  0  0  0  0  0  0  0
   -5.3932    1.3264    1.0828 O   0  0  0  0  0  0  0  0  0  0  0  0
   -4.2836    1.1486    0.2619 C   0  0  0  0  0  0  0  0  0  0  0  0
   -3.4750    2.0572    0.0978 O   0  0  0  0  0  0  0  0  0  0  0  0
   -1.6651   -0.2177   -0.8544 C   0  0  0  0  0  0  0  0  0  0  0  0
    3.2022   -0.2812    0.3590 C   0  0  0  0  0  0  0  0  0  0  0  0
    4.3611    0.0657    1.0699 C   0  0  0  0  0  0  0  0  0  0  0  0
    4.4154   -0.3014    2.4724 N   0  0  0  0  0  4  0  0  0  0  0  0
    5.3101   -1.0784    2.8302 O   0  0  0  0  0  0  0  0  0  0  0  0
    3.5113    0.1418    3.1955 O   0  0  0  0  0  1  0  0  0  0  0  0
    8.9513    0.8284    2.2055 H   0  0  0  0  0  0  0  0  0  0  0  0
    8.3634    2.4569    2.5193 H   0  0  0  0  0  0  0  0  0  0  0  0
    9.6406    2.2012    1.3059 H   0  0  0  0  0  0  0  0  0  0  0  0
    8.0385    0.9251   -0.1098 H   0  0  0  0  0  0  0  0  0  0  0  0
    7.4362    2.5875    0.2128 H   0  0  0  0  0  0  0  0  0  0  0  0
    6.1397    1.5636   -1.4112 H   0  0  0  0  0  0  0  0  0  0  0  0
    4.1468    0.9418   -2.6737 H   0  0  0  0  0  0  0  0  0  0  0  0
    0.7197    0.2195   -0.2364 H   0  0  0  0  0  0  0  0  0  0  0  0
    0.0277   -1.2028   -3.6441 H   0  0  0  0  0  0  0  0  0  0  0  0
   -2.2518   -1.6152   -4.4121 H   0  0  0  0  0  0  0  0  0  0  0  0
   -4.1835   -1.1447   -2.9569 H   0  0  0  0  0  0  0  0  0  0  0  0
   -4.9032   -2.1555   -0.5967 H   0  0  0  0  0  0  0  0  0  0  0  0
   -6.9937   -2.9392    0.5339 H   0  0  0  0  0  0  0  0  0  0  0  0
   -8.9041   -2.4742    2.0294 H   0  0  0  0  0  0  0  0  0  0  0  0
   -9.1666   -0.2372    3.0722 H   0  0  0  0  0  0  0  0  0  0  0  0
   -7.4963    1.5486    2.6117 H   0  0  0  0  0  0  0  0  0  0  0  0
   -1.5041    0.1833    0.1445 H   0  0  0  0  0  0  0  0  0  0  0  0
    2.4026   -0.8262    0.8544 H   0  0  0  0  0  0  0  0  0  0  0  0
  1  2  1  0
  2  3  1  0
  3  4  1  0
  4  5  2  0
  5  6  1  0
  6  7  2  0
  7  8  1  0
  8  9  2  0
  8 10  1  0
 10 11  1  0
 11 12  2  0
 12 13  1  0
 13 14  2  0
 14 15  1  0
 15 16  1  0
 16 17  2  0
 17 18  1  0
 18 19  2  0
 19 20  1  0
 20 21  2  0
 21 22  1  0
 22 23  2  0
 23 24  1  0
 24 25  1  0
 25 26  2  0
 15 27  2  0
  7 28  1  0
 28 29  2  0
 29 30  1  0
 30 31  2  0
 30 32  1  0
 29  4  1  0
 27 11  1  0
 25 16  1  0
 23 18  1  0
  1 33  1  0
  1 34  1  0
  1 35  1  0
  2 36  1  0
  2 37  1  0
  5 38  1  0
  6 39  1  0
 10 40  1  0
 12 41  1  0
 13 42  1  0
 14 43  1  0
 17 44  1  0
 19 45  1  0
 20 46  1  0
 21 47  1  0
 22 48  1  0
 27 49  1  0
 28 50  1  0
M  CHG  2  30   1  32  -1
M  END
$$$$
