
     RDKit          3D

 43 45  0  0  0  0  0  0  0  0999 V2000
    7.1322    1.2220    2.1911 C   0  0  0  0  0  0  0  0  0  0  0  0
    6.1754    0.6555    1.2949 O   0  0  0  0  0  0  0  0  0  0  0  0
    4.9103    0.6306    1.7838 C   0  0  0  0  0  0  0  0  0  0  0  0
    4.5614    1.0340    2.8824 O   0  0  0  0  0  0  0  0  0  0  0  0
    3.9740    0.0338    0.7927 C   0  0  0  0  0  0  0  0  0  0  0  0
    4.3997   -0.4559   -0.4464 C   0  0  0  0  0  0  0  0  0  0  0  0
    3.4718   -1.0069   -1.3357 C   0  0  0  0  0  0  0  0  0  0  0  0
    2.1154   -1.0794   -1.0052 C   0  0  0  0  0  0  0  0  0  0  0  0
    1.3291   -1.6429   -1.9709 O   0  0  0  0  0  0  0  0  0  0  0  0
   -0.0552   -1.8098   -1.6957 C   0  0  0  0  0  0  0  0  0  0  0  0
   -0.9156   -0.5304   -1.7862 C   0  0  0  0  0  0  0  0  0  0  0  0
   -0.4920    0.4441   -2.4099 O   0  0  0  0  0  0  0  0  0  0  0  0
   -2.1564   -0.5770   -1.1170 N   0  0  0  0  0  0  0  0  0  0  0  0
   -2.7710   -1.8656   -0.7751 C   0  0  0  0  0  0  0  0  0  0  0  0
   -4.2820   -1.8524   -0.9084 C   0  0  0  0  0  0  0  0  0  0  0  0
   -4.8538   -0.8134    0.0315 C   0  0  0  0  0  0  0  0  0  0  0  0
   -4.1606    0.5108   -0.1444 C   0  0  0  0  0  0  0  0  0  0  0  0
   -4.8372    1.6612    0.3055 C   0  0  0  0  0  0  0  0  0  0  0  0
   -4.2525    2.9175    0.1995 C   0  0  0  0  0  0  0  0  0  0  0  0
   -2.9815    3.0327   -0.3438 C   0  0  0  0  0  0  0  0  0  0  0  0
   -2.2958    1.8935   -0.7815 C   0  0  0  0  0  0  0  0  0  0  0  0
   -2.8648    0.6126   -0.7002 C   0  0  0  0  0  0  0  0  0  0  0  0
    1.6890   -0.5881    0.2288 C   0  0  0  0  0  0  0  0  0  0  0  0
    2.6144   -0.0353    1.1231 C   0  0  0  0  0  0  0  0  0  0  0  0
    6.8814    2.2644    2.4114 H   0  0  0  0  0  0  0  0  0  0  0  0
    7.1903    0.6333    3.1120 H   0  0  0  0  0  0  0  0  0  0  0  0
    8.1101    1.1972    1.7023 H   0  0  0  0  0  0  0  0  0  0  0  0
    5.4457   -0.4148   -0.7385 H   0  0  0  0  0  0  0  0  0  0  0  0
    3.8096   -1.3800   -2.3002 H   0  0  0  0  0  0  0  0  0  0  0  0
   -0.4312   -2.4888   -2.4697 H   0  0  0  0  0  0  0  0  0  0  0  0
   -0.1846   -2.3162   -0.7327 H   0  0  0  0  0  0  0  0  0  0  0  0
   -2.4647   -2.1177    0.2477 H   0  0  0  0  0  0  0  0  0  0  0  0
   -2.3905   -2.6499   -1.4359 H   0  0  0  0  0  0  0  0  0  0  0  0
   -4.6948   -2.8394   -0.6728 H   0  0  0  0  0  0  0  0  0  0  0  0
   -4.5611   -1.6192   -1.9441 H   0  0  0  0  0  0  0  0  0  0  0  0
   -5.9280   -0.7115   -0.1634 H   0  0  0  0  0  0  0  0  0  0  0  0
   -4.7317   -1.1367    1.0726 H   0  0  0  0  0  0  0  0  0  0  0  0
   -5.8307    1.5774    0.7413 H   0  0  0  0  0  0  0  0  0  0  0  0
   -4.7829    3.8011    0.5435 H   0  0  0  0  0  0  0  0  0  0  0  0
   -2.5089    4.0084   -0.4259 H   0  0  0  0  0  0  0  0  0  0  0  0
   -1.2950    2.0567   -1.1680 H   0  0  0  0  0  0  0  0  0  0  0  0
    0.6476   -0.6037    0.5313 H   0  0  0  0  0  0  0  0  0  0  0  0
    2.2649    0.3484    2.0804 H   0  0  0  0  0  0  0  0  0  0  0  0
  1  2  1  0
  2  3  1  0
  3  4  2  0
  3  5  1  0
  5  6  2  0
  6  7  1  0
  7  8  2  0
  8  9  1  0
  9 10  1  0
 10 11  1  0
 11 12  2  0
 11 13  1  0
 13 14  1  0
 14 15  1  0
 15 16  1  0
 16 17  1  0
 17 18  2  0
 18 19  1  0
 19 20  2  0
 20 21  1  0
 21 22  2  0
  8 23  1  0
 23 24  2  0
 24  5  1  0
 22 13  1  0
 22 17  1  0
  1 25  1  0
  1 26  1  0
  1 27  1  0
  6 28  1  0
  7 29  1  0
 10 30  1  0
 10 31  1  0
 14 32  1  0
 14 33  1  0
 15 34  1  0
 15 35  1  0
 16 36  1  0
 16 37  1  0
 18 38  1  0
 19 39  1  0
 20 40  1  0
 21 41  1  0
 23 42  1  0
 24 43  1  0
M  END
$$$$
