
     RDKit          3D

 38 38  0  0  0  0  0  0  0  0999 V2000
    5.2979    3.2062    3.2557 C   0  0  0  0  0  0  0  0  0  0  0  0
    5.7438    1.9559    2.7437 O   0  0  0  0  0  0  0  0  0  0  0  0
    4.6767    1.1643    2.2182 C   0  0  0  0  0  0  0  0  0  0  0  0
    4.3497    1.5559    0.7736 C   0  0  0  0  0  0  0  0  0  0  0  0
    3.3819    0.6690    0.1508 N   0  0  0  0  0  0  0  0  0  0  0  0
    2.0366    0.7680    0.4342 C   0  0  0  0  0  0  0  0  0  0  0  0
    1.6000    1.6144    1.2094 O   0  0  0  0  0  0  0  0  0  0  0  0
    1.1330   -0.2206   -0.2526 C   0  0  0  0  0  0  0  0  0  0  0  0
    1.7198   -1.3465   -0.8853 C   0  0  0  0  0  0  0  0  0  0  0  0
    2.2615   -2.2415   -1.3908 N   0  0  0  0  0  0  0  0  0  0  0  0
   -0.1919    0.0378   -0.2060 C   0  0  0  0  0  0  0  0  0  0  0  0
   -1.3523   -0.6890   -0.7425 C   0  0  0  0  0  0  0  0  0  0  0  0
   -1.1553   -1.9927   -1.4785 C   0  0  0  0  0  0  0  0  0  0  0  0
   -2.5754   -0.1471   -0.5490 C   0  0  0  0  0  0  0  0  0  0  0  0
   -3.8462   -0.7262   -0.9938 C   0  0  0  0  0  0  0  0  0  0  0  0
   -4.4273   -0.3026   -2.1929 C   0  0  0  0  0  0  0  0  0  0  0  0
   -5.6360   -0.8561   -2.6189 C   0  0  0  0  0  0  0  0  0  0  0  0
   -6.2674   -1.8332   -1.8491 C   0  0  0  0  0  0  0  0  0  0  0  0
   -5.6926   -2.2575   -0.6514 C   0  0  0  0  0  0  0  0  0  0  0  0
   -4.4850   -1.7037   -0.2231 C   0  0  0  0  0  0  0  0  0  0  0  0
    4.8385    3.8126    2.4703 H   0  0  0  0  0  0  0  0  0  0  0  0
    6.1663    3.7448    3.6439 H   0  0  0  0  0  0  0  0  0  0  0  0
    4.5893    3.0536    4.0765 H   0  0  0  0  0  0  0  0  0  0  0  0
    3.7961    1.2158    2.8682 H   0  0  0  0  0  0  0  0  0  0  0  0
    5.0190    0.1239    2.2329 H   0  0  0  0  0  0  0  0  0  0  0  0
    3.9666    2.5802    0.7290 H   0  0  0  0  0  0  0  0  0  0  0  0
    5.2606    1.5292    0.1649 H   0  0  0  0  0  0  0  0  0  0  0  0
    3.7460   -0.0474   -0.4669 H   0  0  0  0  0  0  0  0  0  0  0  0
   -0.4806    0.9525    0.3212 H   0  0  0  0  0  0  0  0  0  0  0  0
   -0.6881   -2.7388   -0.8241 H   0  0  0  0  0  0  0  0  0  0  0  0
   -2.0903   -2.4357   -1.8328 H   0  0  0  0  0  0  0  0  0  0  0  0
   -0.5347   -1.8454   -2.3698 H   0  0  0  0  0  0  0  0  0  0  0  0
   -2.7005    0.7996   -0.0237 H   0  0  0  0  0  0  0  0  0  0  0  0
   -3.9411    0.4549   -2.8026 H   0  0  0  0  0  0  0  0  0  0  0  0
   -6.0836   -0.5271   -3.5524 H   0  0  0  0  0  0  0  0  0  0  0  0
   -7.2073   -2.2653   -2.1826 H   0  0  0  0  0  0  0  0  0  0  0  0
   -6.1827   -3.0210   -0.0527 H   0  0  0  0  0  0  0  0  0  0  0  0
   -4.0450   -2.0413    0.7126 H   0  0  0  0  0  0  0  0  0  0  0  0
  1  2  1  0
  2  3  1  0
  3  4  1  0
  4  5  1  0
  5  6  1  0
  6  7  2  0
  6  8  1  0
  8  9  1  0
  9 10  3  0
  8 11  2  3
 11 12  1  0
 12 13  1  0
 12 14  2  3
 14 15  1  0
 15 16  2  0
 16 17  1  0
 17 18  2  0
 18 19  1  0
 19 20  2  0
 20 15  1  0
  1 21  1  0
  1 22  1  0
  1 23  1  0
  3 24  1  0
  3 25  1  0
  4 26  1  0
  4 27  1  0
  5 28  1  0
 11 29  1  0
 13 30  1  0
 13 31  1  0
 13 32  1  0
 14 33  1  0
 16 34  1  0
 17 35  1  0
 18 36  1  0
 19 37  1  0
 20 38  1  0
M  END
$$$$
