
     RDKit          3D

 41 42  0  0  0  0  0  0  0  0999 V2000
    7.0914    0.8344   -0.3358 C   0  0  0  0  0  0  0  0  0  0  0  0
    5.7362    0.6330    0.0669 O   0  0  0  0  0  0  0  0  0  0  0  0
    5.1550   -0.4719   -0.4757 C   0  0  0  0  0  0  0  0  0  0  0  0
    5.7174   -1.2359   -1.2499 O   0  0  0  0  0  0  0  0  0  0  0  0
    3.7689   -0.5931   -0.0571 C   0  0  0  0  0  0  0  0  0  0  0  0
    2.8269   -1.4110   -0.6641 C   0  0  0  0  0  0  0  0  0  0  0  0
    1.5857   -1.2083   -0.0323 C   0  0  0  0  0  0  0  0  0  0  0  0
    1.7609   -0.2676    0.9705 C   0  0  0  0  0  0  0  0  0  0  0  0
    0.5833    0.4637    2.0922 S   0  0  0  0  0  6  0  0  0  0  0  0
    0.8598    1.8803    2.0484 O   0  0  0  0  0  0  0  0  0  0  0  0
    0.7162   -0.3279    3.2916 O   0  0  0  0  0  0  0  0  0  0  0  0
   -0.9410    0.1831    1.4611 N   0  0  0  0  0  0  0  0  0  0  0  0
   -1.3035    0.9490    0.2652 C   0  0  0  0  0  0  0  0  0  0  0  0
   -2.6080    0.4538   -0.3102 C   0  0  0  0  0  0  0  0  0  0  0  0
   -3.8072    0.6462    0.3902 C   0  0  0  0  0  0  0  0  0  0  0  0
   -5.0207    0.1764   -0.1243 C   0  0  0  0  0  0  0  0  0  0  0  0
   -5.0503   -0.4952   -1.3457 C   0  0  0  0  0  0  0  0  0  0  0  0
   -6.1616   -1.0041   -1.9589 O   0  0  0  0  0  0  0  0  0  0  0  0
   -7.4042   -0.8201   -1.2921 C   0  0  0  0  0  0  0  0  0  0  0  0
   -3.8569   -0.6927   -2.0440 C   0  0  0  0  0  0  0  0  0  0  0  0
   -2.6432   -0.2254   -1.5333 C   0  0  0  0  0  0  0  0  0  0  0  0
    3.1170    0.0299    1.0000 N   0  0  0  0  0  0  0  0  0  0  0  0
    3.7605    0.8388    2.0199 C   0  0  0  0  0  0  0  0  0  0  0  0
    7.1520    0.9828   -1.4185 H   0  0  0  0  0  0  0  0  0  0  0  0
    7.7146   -0.0092   -0.0228 H   0  0  0  0  0  0  0  0  0  0  0  0
    7.4599    1.7378    0.1579 H   0  0  0  0  0  0  0  0  0  0  0  0
    3.0283   -2.0658   -1.5049 H   0  0  0  0  0  0  0  0  0  0  0  0
    0.6484   -1.6834   -0.2910 H   0  0  0  0  0  0  0  0  0  0  0  0
   -1.1636   -0.8102    1.4235 H   0  0  0  0  0  0  0  0  0  0  0  0
   -0.5194    0.8659   -0.4948 H   0  0  0  0  0  0  0  0  0  0  0  0
   -1.4077    2.0106    0.5166 H   0  0  0  0  0  0  0  0  0  0  0  0
   -3.7997    1.1624    1.3491 H   0  0  0  0  0  0  0  0  0  0  0  0
   -5.9207    0.3504    0.4559 H   0  0  0  0  0  0  0  0  0  0  0  0
   -7.6414    0.2435   -1.1852 H   0  0  0  0  0  0  0  0  0  0  0  0
   -7.4100   -1.3269   -0.3214 H   0  0  0  0  0  0  0  0  0  0  0  0
   -8.1851   -1.2747   -1.9093 H   0  0  0  0  0  0  0  0  0  0  0  0
   -3.8744   -1.2164   -2.9971 H   0  0  0  0  0  0  0  0  0  0  0  0
   -1.7324   -0.3961   -2.1029 H   0  0  0  0  0  0  0  0  0  0  0  0
    3.8775    1.8523    1.6295 H   0  0  0  0  0  0  0  0  0  0  0  0
    3.1646    0.8477    2.9333 H   0  0  0  0  0  0  0  0  0  0  0  0
    4.7264    0.3941    2.2717 H   0  0  0  0  0  0  0  0  0  0  0  0
  1  2  1  0
  2  3  1  0
  3  4  2  0
  3  5  1  0
  5  6  2  0
  6  7  1  0
  7  8  2  0
  8  9  1  0
  9 10  2  0
  9 11  2  0
  9 12  1  0
 12 13  1  0
 13 14  1  0
 14 15  2  0
 15 16  1  0
 16 17  2  0
 17 18  1  0
 18 19  1  0
 17 20  1  0
 20 21  2  0
  8 22  1  0
 22 23  1  0
 22  5  1  0
 21 14  1  0
  1 24  1  0
  1 25  1  0
  1 26  1  0
  6 27  1  0
  7 28  1  0
 12 29  1  0
 13 30  1  0
 13 31  1  0
 15 32  1  0
 16 33  1  0
 19 34  1  0
 19 35  1  0
 19 36  1  0
 20 37  1  0
 21 38  1  0
 23 39  1  0
 23 40  1  0
 23 41  1  0
M  END
$$$$
