
     RDKit          3D

 56 60  0  0  0  0  0  0  0  0999 V2000
   -5.1389   -0.2367   -3.1905 C   0  0  0  0  0  0  0  0  0  0  0  0
   -3.8918    0.0424   -2.4001 C   0  0  0  0  0  0  0  0  0  0  0  0
   -2.7867    0.5776   -3.0808 C   0  0  0  0  0  0  0  0  0  0  0  0
   -1.5935    0.8636   -2.4109 C   0  0  0  0  0  0  0  0  0  0  0  0
   -1.4621    0.6376   -1.0344 C   0  0  0  0  0  0  0  0  0  0  0  0
   -0.1911    0.9233   -0.3509 C   0  0  0  0  0  0  0  0  0  0  0  0
    0.8448    0.1929   -0.8169 N   0  0  0  0  0  0  0  0  0  0  0  0
    2.0896    0.3350   -0.2724 N   0  0  0  0  0  0  0  0  0  0  0  0
    2.3173    1.2010    0.7359 C   0  0  0  0  0  0  0  0  0  0  0  0
    3.6170    1.3134    1.3014 N   0  0  0  0  0  0  0  0  0  0  0  0
    4.8388    0.7940    0.8135 C   0  0  0  0  0  0  0  0  0  0  0  0
    5.0778    0.5749   -0.5619 C   0  0  0  0  0  0  0  0  0  0  0  0
    6.3195    0.1251   -1.0302 C   0  0  0  0  0  0  0  0  0  0  0  0
    7.3189   -0.0716   -0.1065 C   0  0  0  0  0  0  0  0  0  0  0  0
    7.1171    0.1731    1.2285 C   0  0  0  0  0  0  0  0  0  0  0  0
    5.9026    0.6147    1.7149 C   0  0  0  0  0  0  0  0  0  0  0  0
    8.2334   -0.0546    1.9715 O   0  0  0  0  0  0  0  0  0  0  0  0
    9.1583   -0.4777    0.9471 C   0  0  0  0  0  0  0  0  0  0  0  0
    8.5832   -0.4925   -0.3747 O   0  0  0  0  0  0  0  0  0  0  0  0
    1.2699    2.0107    1.2384 C   0  0  0  0  0  0  0  0  0  0  0  0
    1.4562    2.9741    2.2637 C   0  0  0  0  0  0  0  0  0  0  0  0
    0.4054    3.7568    2.7411 C   0  0  0  0  0  0  0  0  0  0  0  0
   -0.8597    3.6147    2.1952 C   0  0  0  0  0  0  0  0  0  0  0  0
   -1.0706    2.6889    1.1743 C   0  0  0  0  0  0  0  0  0  0  0  0
   -0.0241    1.8659    0.6816 C   0  0  0  0  0  0  0  0  0  0  0  0
   -2.5625    0.1018   -0.3501 C   0  0  0  0  0  0  0  0  0  0  0  0
   -3.7672   -0.1872   -1.0180 C   0  0  0  0  0  0  0  0  0  0  0  0
   -5.0997   -0.8221   -0.0160 S   0  0  0  0  0  6  0  0  0  0  0  0
   -6.3682   -0.5677   -0.6586 O   0  0  0  0  0  0  0  0  0  0  0  0
   -4.8635   -0.4277    1.3542 O   0  0  0  0  0  0  0  0  0  0  0  0
   -4.8232   -2.4940   -0.1377 N   0  0  0  0  0  0  0  0  0  0  0  0
   -5.6763   -3.3028    0.7840 C   0  0  0  0  0  0  0  0  0  0  0  0
   -5.2194   -4.7597    0.7089 C   0  0  0  0  0  0  0  0  0  0  0  0
   -3.8518   -4.8651    1.0945 O   0  0  0  0  0  0  0  0  0  0  0  0
   -5.5069   -1.2486   -2.9956 H   0  0  0  0  0  0  0  0  0  0  0  0
   -4.9471   -0.1830   -4.2676 H   0  0  0  0  0  0  0  0  0  0  0  0
   -5.9114    0.5017   -2.9572 H   0  0  0  0  0  0  0  0  0  0  0  0
   -2.8391    0.7741   -4.1514 H   0  0  0  0  0  0  0  0  0  0  0  0
   -0.7520    1.2633   -2.9762 H   0  0  0  0  0  0  0  0  0  0  0  0
    3.5455    1.2119    2.3093 H   0  0  0  0  0  0  0  0  0  0  0  0
    4.2959    0.7611   -1.2937 H   0  0  0  0  0  0  0  0  0  0  0  0
    6.4864   -0.0521   -2.0864 H   0  0  0  0  0  0  0  0  0  0  0  0
    5.7917    0.8149    2.7739 H   0  0  0  0  0  0  0  0  0  0  0  0
   10.0158    0.2041    0.9476 H   0  0  0  0  0  0  0  0  0  0  0  0
    9.5118   -1.4862    1.1900 H   0  0  0  0  0  0  0  0  0  0  0  0
    2.4415    3.1384    2.6960 H   0  0  0  0  0  0  0  0  0  0  0  0
    0.5820    4.4843    3.5287 H   0  0  0  0  0  0  0  0  0  0  0  0
   -1.6834    4.2271    2.5530 H   0  0  0  0  0  0  0  0  0  0  0  0
   -2.0738    2.6221    0.7578 H   0  0  0  0  0  0  0  0  0  0  0  0
   -2.4748   -0.1034    0.7173 H   0  0  0  0  0  0  0  0  0  0  0  0
   -4.9746   -2.7762   -1.1095 H   0  0  0  0  0  0  0  0  0  0  0  0
   -5.5487   -2.9402    1.8094 H   0  0  0  0  0  0  0  0  0  0  0  0
   -6.7258   -3.2231    0.4853 H   0  0  0  0  0  0  0  0  0  0  0  0
   -5.3101   -5.1459   -0.3115 H   0  0  0  0  0  0  0  0  0  0  0  0
   -5.8151   -5.3901    1.3746 H   0  0  0  0  0  0  0  0  0  0  0  0
   -3.4070   -4.0764    0.7285 H   0  0  0  0  0  0  0  0  0  0  0  0
  1  2  1  0
  2  3  2  0
  3  4  1  0
  4  5  2  0
  5  6  1  0
  6  7  2  0
  7  8  1  0
  8  9  2  0
  9 10  1  0
 10 11  1  0
 11 12  2  0
 12 13  1  0
 13 14  2  0
 14 15  1  0
 15 16  2  0
 15 17  1  0
 17 18  1  0
 18 19  1  0
  9 20  1  0
 20 21  2  0
 21 22  1  0
 22 23  2  0
 23 24  1  0
 24 25  2  0
  5 26  1  0
 26 27  2  0
 27 28  1  0
 28 29  2  0
 28 30  2  0
 28 31  1  0
 31 32  1  0
 32 33  1  0
 33 34  1  0
 27  2  1  0
 25  6  1  0
 16 11  1  0
 25 20  1  0
 19 14  1  0
  1 35  1  0
  1 36  1  0
  1 37  1  0
  3 38  1  0
  4 39  1  0
 10 40  1  0
 12 41  1  0
 13 42  1  0
 16 43  1  0
 18 44  1  0
 18 45  1  0
 21 46  1  0
 22 47  1  0
 23 48  1  0
 24 49  1  0
 26 50  1  0
 31 51  1  0
 32 52  1  0
 32 53  1  0
 33 54  1  0
 33 55  1  0
 34 56  1  0
M  END
$$$$
