
     RDKit          3D

 53 56  0  0  0  0  0  0  0  0999 V2000
    9.6078   -2.9018   -1.0113 C   0  0  0  0  0  0  0  0  0  0  0  0
    8.2679   -2.2796   -1.3623 C   0  0  0  0  0  0  0  0  0  0  0  0
    7.7009   -1.7526   -0.1651 O   0  0  0  0  0  0  0  0  0  0  0  0
    6.4534   -1.2006   -0.2550 C   0  0  0  0  0  0  0  0  0  0  0  0
    5.8971   -0.8164    0.9688 C   0  0  0  0  0  0  0  0  0  0  0  0
    4.6258   -0.2407    1.0255 C   0  0  0  0  0  0  0  0  0  0  0  0
    3.9050   -0.0418   -0.1527 C   0  0  0  0  0  0  0  0  0  0  0  0
    2.5558    0.5633   -0.1294 C   0  0  0  0  0  0  0  0  0  0  0  0
    1.9883    0.9015    0.9843 N   0  0  0  0  0  0  0  0  0  0  0  0
    0.7181    1.4174    0.9630 N   0  0  0  0  0  0  0  0  0  0  0  0
   -0.2817    1.1730    0.0272 C   0  0  0  0  0  0  0  0  0  0  0  0
   -0.1500    0.5640   -1.0287 O   0  0  0  0  0  0  0  0  0  0  0  0
   -1.5665    1.7391    0.4391 C   0  0  0  0  0  0  0  0  0  0  0  0
   -1.6958    2.5226    1.5531 N   0  0  0  0  0  0  0  0  0  0  0  0
   -2.9650    2.8648    1.6724 N   0  0  0  0  0  0  0  0  0  0  0  0
   -3.6748    2.3436    0.6262 N   0  0  0  0  0  0  0  0  0  0  0  0
   -5.0517    2.6428    0.4658 C   0  0  0  0  0  0  0  0  0  0  0  0
   -5.7178    2.2858   -0.6323 N   0  0  0  0  0  0  0  0  0  0  0  0
   -7.0058    2.7762   -0.4249 O   0  0  0  0  0  0  0  0  0  0  0  0
   -7.1025    3.4413    0.7912 N   0  0  0  0  0  0  0  0  0  0  0  0
   -5.8932    3.3543    1.3432 C   0  0  0  0  0  0  0  0  0  0  0  0
   -5.5694    3.8643    2.5444 N   0  0  0  0  0  0  0  0  0  0  0  0
   -2.8113    1.5788   -0.1536 C   0  0  0  0  0  0  0  0  0  0  0  0
   -3.1948    0.7330   -1.3136 C   0  0  0  0  0  0  0  0  0  0  0  0
   -3.0670   -0.6398   -0.9155 O   0  0  0  0  0  0  0  0  0  0  0  0
   -4.0959   -1.1414   -0.1671 C   0  0  0  0  0  0  0  0  0  0  0  0
   -5.4377   -1.0594   -0.5432 C   0  0  0  0  0  0  0  0  0  0  0  0
   -6.4225   -1.6207    0.2740 C   0  0  0  0  0  0  0  0  0  0  0  0
   -6.0538   -2.2767    1.4447 C   0  0  0  0  0  0  0  0  0  0  0  0
   -7.0003   -2.8192    2.2229 F   0  0  0  0  0  0  0  0  0  0  0  0
   -4.7175   -2.3883    1.8114 C   0  0  0  0  0  0  0  0  0  0  0  0
   -3.7342   -1.8257    0.9965 C   0  0  0  0  0  0  0  0  0  0  0  0
    4.4552   -0.4167   -1.3812 C   0  0  0  0  0  0  0  0  0  0  0  0
    5.7290   -0.9960   -1.4309 C   0  0  0  0  0  0  0  0  0  0  0  0
   10.2766   -2.1544   -0.5712 H   0  0  0  0  0  0  0  0  0  0  0  0
    9.4812   -3.6941   -0.2657 H   0  0  0  0  0  0  0  0  0  0  0  0
   10.0859   -3.3253   -1.8992 H   0  0  0  0  0  0  0  0  0  0  0  0
    7.6152   -3.0516   -1.7852 H   0  0  0  0  0  0  0  0  0  0  0  0
    8.4259   -1.4786   -2.0924 H   0  0  0  0  0  0  0  0  0  0  0  0
    6.4582   -0.9709    1.8879 H   0  0  0  0  0  0  0  0  0  0  0  0
    4.2091    0.0473    1.9871 H   0  0  0  0  0  0  0  0  0  0  0  0
    2.0949    0.7249   -1.1168 H   0  0  0  0  0  0  0  0  0  0  0  0
    0.4204    1.8132    1.8527 H   0  0  0  0  0  0  0  0  0  0  0  0
   -6.2111    4.4971    3.0089 H   0  0  0  0  0  0  0  0  0  0  0  0
   -4.6000    3.9355    2.8504 H   0  0  0  0  0  0  0  0  0  0  0  0
   -4.1629    0.9404   -1.7644 H   0  0  0  0  0  0  0  0  0  0  0  0
   -2.4745    0.8921   -2.1246 H   0  0  0  0  0  0  0  0  0  0  0  0
   -5.7357   -0.5836   -1.4717 H   0  0  0  0  0  0  0  0  0  0  0  0
   -7.4707   -1.5615   -0.0005 H   0  0  0  0  0  0  0  0  0  0  0  0
   -4.4498   -2.9188    2.7193 H   0  0  0  0  0  0  0  0  0  0  0  0
   -2.6863   -1.9180    1.2668 H   0  0  0  0  0  0  0  0  0  0  0  0
    3.9024   -0.2684   -2.3057 H   0  0  0  0  0  0  0  0  0  0  0  0
    6.1257   -1.2737   -2.4021 H   0  0  0  0  0  0  0  0  0  0  0  0
  1  2  1  0
  2  3  1  0
  3  4  1  0
  4  5  2  0
  5  6  1  0
  6  7  2  0
  7  8  1  0
  8  9  2  3
  9 10  1  0
 10 11  1  0
 11 12  2  0
 11 13  1  0
 13 14  1  0
 14 15  2  0
 15 16  1  0
 16 17  1  0
 17 18  2  0
 18 19  1  0
 19 20  1  0
 20 21  2  0
 21 22  1  0
 16 23  1  0
 23 24  1  0
 24 25  1  0
 25 26  1  0
 26 27  2  0
 27 28  1  0
 28 29  2  0
 29 30  1  0
 29 31  1  0
 31 32  2  0
  7 33  1  0
 33 34  2  0
 34  4  1  0
 23 13  2  0
 32 26  1  0
 21 17  1  0
  1 35  1  0
  1 36  1  0
  1 37  1  0
  2 38  1  0
  2 39  1  0
  5 40  1  0
  6 41  1  0
  8 42  1  0
 10 43  1  0
 22 44  1  0
 22 45  1  0
 24 46  1  0
 24 47  1  0
 27 48  1  0
 28 49  1  0
 31 50  1  0
 32 51  1  0
 33 52  1  0
 34 53  1  0
M  END
$$$$
