
     RDKit          3D

 37 39  0  0  0  0  0  0  0  0999 V2000
   -4.1131   -2.2611   -0.6181 C   0  0  0  0  0  0  0  0  0  0  0  0
   -4.4696   -1.5248    0.6614 C   0  0  0  0  0  0  0  0  0  0  0  0
   -4.1834   -0.1010    0.5842 N   0  0  0  0  0  0  0  0  0  0  0  0
   -5.2175    0.7410    0.3499 N   0  0  0  0  0  0  0  0  0  0  0  0
   -4.6535    1.9477    0.3519 C   0  0  0  0  0  0  0  0  0  0  0  0
   -3.2717    1.8731    0.5563 C   0  0  0  0  0  0  0  0  0  0  0  0
   -2.1770    3.3881    0.6728 Br  0  0  0  0  0  0  0  0  0  0  0  0
   -2.9586    0.5330    0.6783 C   0  0  0  0  0  0  0  0  0  0  0  0
   -1.6969   -0.1529    0.8891 C   0  0  0  0  0  0  0  0  0  0  0  0
   -1.6585   -1.2339    1.4646 O   0  0  0  0  0  0  0  0  0  0  0  0
   -0.6106    0.5035    0.3438 N   0  0  0  0  0  0  0  0  0  0  0  0
    0.7246    0.1208    0.3732 C   0  0  0  0  0  0  0  0  0  0  0  0
    1.2415   -1.2396    1.2785 S   0  0  0  0  0  0  0  0  0  0  0  0
    2.8166   -1.0038    0.7961 C   0  0  0  0  0  0  0  0  0  0  0  0
    2.9971    0.0776   -0.0206 C   0  0  0  0  0  0  0  0  0  0  0  0
    1.7786    0.7759   -0.2774 C   0  0  0  0  0  0  0  0  0  0  0  0
    1.5643    1.9670   -1.0954 C   0  0  0  0  0  0  0  0  0  0  0  0
    2.6724    2.6830   -1.4431 N   0  0  0  0  0  0  0  0  0  0  0  0
    0.4497    2.3536   -1.4374 O   0  0  0  0  0  0  0  0  0  0  0  0
    4.4265    0.1893   -0.4188 C   0  0  0  0  0  0  0  0  0  0  0  0
    5.0075   -1.1965    0.0008 C   0  0  0  0  0  0  0  0  0  0  0  0
    4.0496   -1.7713    1.0847 C   0  0  0  0  0  0  0  0  0  0  0  0
   -4.6587   -1.8482   -1.4732 H   0  0  0  0  0  0  0  0  0  0  0  0
   -4.3700   -3.3212   -0.5290 H   0  0  0  0  0  0  0  0  0  0  0  0
   -3.0438   -2.1888   -0.8403 H   0  0  0  0  0  0  0  0  0  0  0  0
   -5.5420   -1.6345    0.8631 H   0  0  0  0  0  0  0  0  0  0  0  0
   -3.9459   -1.9369    1.5278 H   0  0  0  0  0  0  0  0  0  0  0  0
   -5.2782    2.8200    0.2096 H   0  0  0  0  0  0  0  0  0  0  0  0
   -0.7963    1.3378   -0.2116 H   0  0  0  0  0  0  0  0  0  0  0  0
    3.5478    2.5639   -0.9584 H   0  0  0  0  0  0  0  0  0  0  0  0
    2.5006    3.5742   -1.8891 H   0  0  0  0  0  0  0  0  0  0  0  0
    4.5575    0.3590   -1.4910 H   0  0  0  0  0  0  0  0  0  0  0  0
    4.9182    0.9911    0.1420 H   0  0  0  0  0  0  0  0  0  0  0  0
    5.0015   -1.8637   -0.8714 H   0  0  0  0  0  0  0  0  0  0  0  0
    6.0413   -1.1252    0.3527 H   0  0  0  0  0  0  0  0  0  0  0  0
    4.4234   -1.5443    2.0883 H   0  0  0  0  0  0  0  0  0  0  0  0
    3.9265   -2.8519    0.9729 H   0  0  0  0  0  0  0  0  0  0  0  0
  1  2  1  0
  2  3  1  0
  3  4  1  0
  4  5  2  0
  5  6  1  0
  6  7  1  0
  6  8  2  0
  8  9  1  0
  9 10  2  0
  9 11  1  0
 11 12  1  0
 12 13  1  0
 13 14  1  0
 14 15  2  0
 15 16  1  0
 16 17  1  0
 17 18  1  0
 17 19  2  0
 15 20  1  0
 20 21  1  0
 21 22  1  0
  8  3  1  0
 16 12  2  0
 22 14  1  0
  1 23  1  0
  1 24  1  0
  1 25  1  0
  2 26  1  0
  2 27  1  0
  5 28  1  0
 11 29  1  0
 18 30  1  0
 18 31  1  0
 20 32  1  0
 20 33  1  0
 21 34  1  0
 21 35  1  0
 22 36  1  0
 22 37  1  0
M  END
$$$$
