
     RDKit          3D

 45 47  0  0  0  0  0  0  0  0999 V2000
    7.6318    0.3464    2.0554 C   0  0  0  0  0  0  0  0  0  0  0  0
    6.5267    0.7914    1.1095 C   0  0  0  0  0  0  0  0  0  0  0  0
    6.9611    0.6650   -0.3531 C   0  0  0  0  0  0  0  0  0  0  0  0
    5.9052    1.1734   -1.3387 C   0  0  0  0  0  0  0  0  0  0  0  0
    4.6923    0.3017   -1.3820 C   0  0  0  0  0  0  0  0  0  0  0  0
    4.6828   -0.9487   -1.7953 N   0  0  0  0  0  0  0  0  0  0  0  0
    3.4214   -1.5117   -1.7233 N   0  0  0  0  0  0  0  0  0  0  0  0
    2.5356   -0.6616   -1.2692 C   0  0  0  0  0  0  0  0  0  0  0  0
    1.1977   -0.8079   -1.0481 N   0  0  0  0  0  0  0  0  0  0  0  0
    0.5272   -1.9842   -1.2894 C   0  0  0  0  0  0  0  0  0  0  0  0
    1.0087   -3.0303   -1.7132 O   0  0  0  0  0  0  0  0  0  0  0  0
   -0.9659   -1.8928   -0.9647 C   0  0  0  0  0  0  0  0  0  0  0  0
   -1.3171   -0.5819   -0.5195 O   0  0  0  0  0  0  0  0  0  0  0  0
   -2.6346   -0.3629   -0.2266 C   0  0  0  0  0  0  0  0  0  0  0  0
   -2.9400    0.9461    0.1562 C   0  0  0  0  0  0  0  0  0  0  0  0
   -4.2520    1.3151    0.4831 C   0  0  0  0  0  0  0  0  0  0  0  0
   -5.2876    0.3772    0.4348 C   0  0  0  0  0  0  0  0  0  0  0  0
   -6.6859    0.6887    0.7598 C   0  0  0  0  0  0  0  0  0  0  0  0
   -7.0761    2.0792    1.1660 C   0  0  0  0  0  0  0  0  0  0  0  0
   -7.5922   -0.2971    0.6808 C   0  0  0  0  0  0  0  0  0  0  0  0
   -7.2623   -1.6749    0.2854 C   0  0  0  0  0  0  0  0  0  0  0  0
   -8.1319   -2.5366    0.2326 O   0  0  0  0  0  0  0  0  0  0  0  0
   -5.9380   -1.9369   -0.0193 O   0  0  0  0  0  0  0  0  0  0  0  0
   -4.9591   -0.9251    0.0536 C   0  0  0  0  0  0  0  0  0  0  0  0
   -3.6545   -1.3080   -0.2764 C   0  0  0  0  0  0  0  0  0  0  0  0
    3.1494    0.8862   -0.8914 S   0  0  0  0  0  0  0  0  0  0  0  0
    7.8997   -0.7005    1.8800 H   0  0  0  0  0  0  0  0  0  0  0  0
    7.3037    0.4436    3.0953 H   0  0  0  0  0  0  0  0  0  0  0  0
    8.5304    0.9577    1.9242 H   0  0  0  0  0  0  0  0  0  0  0  0
    5.6366    0.1809    1.2969 H   0  0  0  0  0  0  0  0  0  0  0  0
    6.2622    1.8319    1.3314 H   0  0  0  0  0  0  0  0  0  0  0  0
    7.2125   -0.3803   -0.5737 H   0  0  0  0  0  0  0  0  0  0  0  0
    7.8780    1.2489   -0.5025 H   0  0  0  0  0  0  0  0  0  0  0  0
    6.3442    1.1886   -2.3442 H   0  0  0  0  0  0  0  0  0  0  0  0
    5.6434    2.2110   -1.0996 H   0  0  0  0  0  0  0  0  0  0  0  0
    0.6799   -0.0154   -0.6932 H   0  0  0  0  0  0  0  0  0  0  0  0
   -1.1685   -2.6255   -0.1750 H   0  0  0  0  0  0  0  0  0  0  0  0
   -1.5100   -2.1376   -1.8843 H   0  0  0  0  0  0  0  0  0  0  0  0
   -2.1518    1.6947    0.2010 H   0  0  0  0  0  0  0  0  0  0  0  0
   -4.4367    2.3462    0.7727 H   0  0  0  0  0  0  0  0  0  0  0  0
   -6.5504    2.3803    2.0786 H   0  0  0  0  0  0  0  0  0  0  0  0
   -6.8456    2.7961    0.3706 H   0  0  0  0  0  0  0  0  0  0  0  0
   -8.1500    2.1576    1.3701 H   0  0  0  0  0  0  0  0  0  0  0  0
   -8.6400   -0.1336    0.9068 H   0  0  0  0  0  0  0  0  0  0  0  0
   -3.4801   -2.3401   -0.5621 H   0  0  0  0  0  0  0  0  0  0  0  0
  1  2  1  0
  2  3  1  0
  3  4  1  0
  4  5  1  0
  5  6  2  0
  6  7  1  0
  7  8  2  0
  8  9  1  0
  9 10  1  0
 10 11  2  0
 10 12  1  0
 12 13  1  0
 13 14  1  0
 14 15  2  0
 15 16  1  0
 16 17  2  0
 17 18  1  0
 18 19  1  0
 18 20  2  0
 20 21  1  0
 21 22  2  0
 21 23  1  0
 23 24  1  0
 24 25  2  0
  8 26  1  0
 26  5  1  0
 25 14  1  0
 24 17  1  0
  1 27  1  0
  1 28  1  0
  1 29  1  0
  2 30  1  0
  2 31  1  0
  3 32  1  0
  3 33  1  0
  4 34  1  0
  4 35  1  0
  9 36  1  0
 12 37  1  0
 12 38  1  0
 15 39  1  0
 16 40  1  0
 19 41  1  0
 19 42  1  0
 19 43  1  0
 20 44  1  0
 25 45  1  0
M  END
$$$$
