
     RDKit          3D

 61 65  0  0  0  0  0  0  0  0999 V2000
   -6.5659    3.8608   -2.7241 C   0  0  0  0  0  0  0  0  0  0  0  0
   -5.8931    2.6955   -2.0623 C   0  0  0  0  0  0  0  0  0  0  0  0
   -6.6037    1.8698   -1.1892 C   0  0  0  0  0  0  0  0  0  0  0  0
   -5.9675    0.7997   -0.5502 C   0  0  0  0  0  0  0  0  0  0  0  0
   -4.6015    0.5275   -0.7476 C   0  0  0  0  0  0  0  0  0  0  0  0
   -3.9533   -0.6075   -0.0561 C   0  0  0  0  0  0  0  0  0  0  0  0
   -2.6187   -0.6079    0.3124 C   0  0  0  0  0  0  0  0  0  0  0  0
   -2.1108   -1.7315    0.9678 C   0  0  0  0  0  0  0  0  0  0  0  0
   -0.6819   -1.7089    1.3529 C   0  0  0  0  0  0  0  0  0  0  0  0
   -0.3980   -1.7389    2.5415 O   0  0  0  0  0  0  0  0  0  0  0  0
    0.1794   -1.6645    0.2730 N   0  0  0  0  0  0  0  0  0  0  0  0
    1.5881   -1.6180    0.3080 C   0  0  0  0  0  0  0  0  0  0  0  0
    2.2587   -1.6242   -0.9236 C   0  0  0  0  0  0  0  0  0  0  0  0
    3.6545   -1.5758   -0.9781 C   0  0  0  0  0  0  0  0  0  0  0  0
    4.3860   -1.5049    0.2077 C   0  0  0  0  0  0  0  0  0  0  0  0
    6.1630   -1.4596    0.1611 S   0  0  0  0  0  6  0  0  0  0  0  0
    6.5980   -1.7504   -1.1870 O   0  0  0  0  0  0  0  0  0  0  0  0
    6.6319   -2.2473    1.2827 O   0  0  0  0  0  0  0  0  0  0  0  0
    6.5334    0.1285    0.5318 N   0  0  0  0  0  0  0  0  0  0  0  0
    5.9445    1.1772   -0.2695 C   0  0  0  0  0  0  0  0  0  0  0  0
    5.4061    1.0224   -1.5078 O   0  0  0  0  0  0  0  0  0  0  0  0
    4.9209    2.2320   -1.9620 N   0  0  0  0  0  0  0  0  0  0  0  0
    5.2015    3.1180   -1.0000 C   0  0  0  0  0  0  0  0  0  0  0  0
    4.8309    4.5429   -1.1745 C   0  0  0  0  0  0  0  0  0  0  0  0
    5.8586    2.5021    0.1024 C   0  0  0  0  0  0  0  0  0  0  0  0
    6.3316    3.1385    1.3522 C   0  0  0  0  0  0  0  0  0  0  0  0
    3.7338   -1.5154    1.4420 C   0  0  0  0  0  0  0  0  0  0  0  0
    2.3365   -1.5660    1.4873 C   0  0  0  0  0  0  0  0  0  0  0  0
   -2.9274   -2.8401    1.2664 C   0  0  0  0  0  0  0  0  0  0  0  0
   -2.4915   -4.0153    1.9291 C   0  0  0  0  0  0  0  0  0  0  0  0
   -3.3701   -5.0684    2.1741 C   0  0  0  0  0  0  0  0  0  0  0  0
   -4.6906   -4.9644    1.7620 C   0  0  0  0  0  0  0  0  0  0  0  0
   -5.1220   -3.8076    1.1084 C   0  0  0  0  0  0  0  0  0  0  0  0
   -4.2664   -2.7441    0.8522 C   0  0  0  0  0  0  0  0  0  0  0  0
   -4.7561   -1.6675    0.2127 N   0  0  0  0  0  0  0  0  0  0  0  0
   -3.9008    1.3742   -1.6252 C   0  0  0  0  0  0  0  0  0  0  0  0
   -4.5339    2.4461   -2.2677 C   0  0  0  0  0  0  0  0  0  0  0  0
   -6.0936    4.0919   -3.6841 H   0  0  0  0  0  0  0  0  0  0  0  0
   -6.5060    4.7426   -2.0794 H   0  0  0  0  0  0  0  0  0  0  0  0
   -7.6195    3.6402   -2.9260 H   0  0  0  0  0  0  0  0  0  0  0  0
   -7.6600    2.0468   -0.9989 H   0  0  0  0  0  0  0  0  0  0  0  0
   -6.5528    0.1698    0.1191 H   0  0  0  0  0  0  0  0  0  0  0  0
   -1.9852    0.2544    0.1345 H   0  0  0  0  0  0  0  0  0  0  0  0
   -0.2387   -1.7071   -0.6487 H   0  0  0  0  0  0  0  0  0  0  0  0
    1.7077   -1.6697   -1.8598 H   0  0  0  0  0  0  0  0  0  0  0  0
    4.1568   -1.5840   -1.9437 H   0  0  0  0  0  0  0  0  0  0  0  0
    6.7884    0.3018    1.4984 H   0  0  0  0  0  0  0  0  0  0  0  0
    4.2007    4.6914   -2.0573 H   0  0  0  0  0  0  0  0  0  0  0  0
    4.2774    4.9049   -0.3029 H   0  0  0  0  0  0  0  0  0  0  0  0
    5.7297    5.1562   -1.2924 H   0  0  0  0  0  0  0  0  0  0  0  0
    5.6739    2.8729    2.1862 H   0  0  0  0  0  0  0  0  0  0  0  0
    6.3488    4.2297    1.2671 H   0  0  0  0  0  0  0  0  0  0  0  0
    7.3474    2.8098    1.5953 H   0  0  0  0  0  0  0  0  0  0  0  0
    4.2968   -1.4928    2.3721 H   0  0  0  0  0  0  0  0  0  0  0  0
    1.8615   -1.5679    2.4638 H   0  0  0  0  0  0  0  0  0  0  0  0
   -1.4612   -4.1124    2.2687 H   0  0  0  0  0  0  0  0  0  0  0  0
   -3.0231   -5.9614    2.6879 H   0  0  0  0  0  0  0  0  0  0  0  0
   -5.3892   -5.7762    1.9477 H   0  0  0  0  0  0  0  0  0  0  0  0
   -6.1594   -3.7337    0.7889 H   0  0  0  0  0  0  0  0  0  0  0  0
   -2.8487    1.2057   -1.8395 H   0  0  0  0  0  0  0  0  0  0  0  0
   -3.9559    3.0799   -2.9366 H   0  0  0  0  0  0  0  0  0  0  0  0
  1  2  1  0
  2  3  2  0
  3  4  1  0
  4  5  2  0
  5  6  1  0
  6  7  2  0
  7  8  1  0
  8  9  1  0
  9 10  2  0
  9 11  1  0
 11 12  1  0
 12 13  2  0
 13 14  1  0
 14 15  2  0
 15 16  1  0
 16 17  2  0
 16 18  2  0
 16 19  1  0
 19 20  1  0
 20 21  1  0
 21 22  1  0
 22 23  2  0
 23 24  1  0
 23 25  1  0
 25 26  1  0
 15 27  1  0
 27 28  2  0
  8 29  2  0
 29 30  1  0
 30 31  2  0
 31 32  1  0
 32 33  2  0
 33 34  1  0
 34 35  2  0
  5 36  1  0
 36 37  2  0
 37  2  1  0
 35  6  1  0
 28 12  1  0
 34 29  1  0
 25 20  2  0
  1 38  1  0
  1 39  1  0
  1 40  1  0
  3 41  1  0
  4 42  1  0
  7 43  1  0
 11 44  1  0
 13 45  1  0
 14 46  1  0
 19 47  1  0
 24 48  1  0
 24 49  1  0
 24 50  1  0
 26 51  1  0
 26 52  1  0
 26 53  1  0
 27 54  1  0
 28 55  1  0
 30 56  1  0
 31 57  1  0
 32 58  1  0
 33 59  1  0
 36 60  1  0
 37 61  1  0
M  END
$$$$
