
     RDKit          3D

 57 59  0  0  0  0  0  0  0  0999 V2000
   -8.5252    0.1839   -1.3142 C   0  0  0  0  0  0  0  0  0  0  0  0
   -7.6629   -0.9357   -1.4599 O   0  0  0  0  0  0  0  0  0  0  0  0
   -6.3870   -0.8279   -0.9639 C   0  0  0  0  0  0  0  0  0  0  0  0
   -5.8715    0.3233   -0.3546 C   0  0  0  0  0  0  0  0  0  0  0  0
   -4.5568    0.3450    0.1122 C   0  0  0  0  0  0  0  0  0  0  0  0
   -3.7557   -0.7874   -0.0385 C   0  0  0  0  0  0  0  0  0  0  0  0
   -2.0804   -0.7394    0.5482 S   0  0  0  0  0  6  0  0  0  0  0  0
   -2.0931   -0.0606    1.8243 O   0  0  0  0  0  0  0  0  0  0  0  0
   -1.5086   -2.0603    0.3996 O   0  0  0  0  0  0  0  0  0  0  0  0
   -1.3400    0.2762   -0.5798 N   0  0  0  0  0  0  0  0  0  0  0  0
   -1.2970   -0.1810   -1.9758 C   0  0  0  0  0  0  0  0  0  0  0  0
   -0.2207    0.7083   -2.5495 C   0  0  0  0  0  0  0  0  0  0  0  0
    0.7481    0.8261   -1.5058 O   0  0  0  0  0  0  0  0  0  0  0  0
    0.0610    0.6269   -0.2445 C   0  0  0  0  0  0  0  0  0  0  0  0
    0.1270    1.9414    0.5632 C   0  0  0  0  0  0  0  0  0  0  0  0
    1.4815    2.4207    0.7803 N   0  0  0  0  0  0  0  0  0  0  0  0
    2.3481    1.7682    1.6249 C   0  0  0  0  0  0  0  0  0  0  0  0
    2.0629    0.8364    2.3632 O   0  0  0  0  0  0  0  0  0  0  0  0
    3.7994    2.2955    1.5632 C   0  0  0  0  0  0  0  0  0  0  0  0
    4.1024    3.1693    0.7633 O   0  0  0  0  0  0  0  0  0  0  0  0
    4.6401    1.6791    2.4584 N   0  0  0  0  0  0  0  0  0  0  0  0
    6.0617    1.9000    2.4601 C   0  0  0  0  0  0  0  0  0  0  0  0
    6.7700    0.8568    1.6344 C   0  0  0  0  0  0  0  0  0  0  0  0
    6.9397    1.0446    0.2526 C   0  0  0  0  0  0  0  0  0  0  0  0
    7.5770    0.0726   -0.5196 C   0  0  0  0  0  0  0  0  0  0  0  0
    8.0382   -1.0892    0.0865 C   0  0  0  0  0  0  0  0  0  0  0  0
    8.6522   -2.0215   -0.6548 F   0  0  0  0  0  0  0  0  0  0  0  0
    7.8703   -1.3004    1.4500 C   0  0  0  0  0  0  0  0  0  0  0  0
    7.2324   -0.3303    2.2248 C   0  0  0  0  0  0  0  0  0  0  0  0
   -4.2563   -1.9512   -0.6285 C   0  0  0  0  0  0  0  0  0  0  0  0
   -5.5745   -1.9764   -1.0931 C   0  0  0  0  0  0  0  0  0  0  0  0
   -6.1553   -3.0615   -1.7022 O   0  0  0  0  0  0  0  0  0  0  0  0
   -5.4618   -4.3004   -1.6390 C   0  0  0  0  0  0  0  0  0  0  0  0
   -8.1364    1.0544   -1.8539 H   0  0  0  0  0  0  0  0  0  0  0  0
   -9.4914   -0.0767   -1.7576 H   0  0  0  0  0  0  0  0  0  0  0  0
   -8.6953    0.4154   -0.2573 H   0  0  0  0  0  0  0  0  0  0  0  0
   -6.4696    1.2198   -0.2274 H   0  0  0  0  0  0  0  0  0  0  0  0
   -4.1646    1.2416    0.5880 H   0  0  0  0  0  0  0  0  0  0  0  0
   -0.9872   -1.2298   -2.0346 H   0  0  0  0  0  0  0  0  0  0  0  0
   -2.2500   -0.0443   -2.4917 H   0  0  0  0  0  0  0  0  0  0  0  0
   -0.6031    1.7105   -2.7733 H   0  0  0  0  0  0  0  0  0  0  0  0
    0.2415    0.2951   -3.4496 H   0  0  0  0  0  0  0  0  0  0  0  0
    0.5809   -0.1893    0.2678 H   0  0  0  0  0  0  0  0  0  0  0  0
   -0.3955    2.7422    0.0278 H   0  0  0  0  0  0  0  0  0  0  0  0
   -0.3494    1.8197    1.5409 H   0  0  0  0  0  0  0  0  0  0  0  0
    1.9096    3.0388    0.0950 H   0  0  0  0  0  0  0  0  0  0  0  0
    4.2519    0.8896    2.9670 H   0  0  0  0  0  0  0  0  0  0  0  0
    6.2909    2.9033    2.0832 H   0  0  0  0  0  0  0  0  0  0  0  0
    6.4018    1.8579    3.5006 H   0  0  0  0  0  0  0  0  0  0  0  0
    6.5698    1.9503   -0.2261 H   0  0  0  0  0  0  0  0  0  0  0  0
    7.7127    0.2137   -1.5871 H   0  0  0  0  0  0  0  0  0  0  0  0
    8.2340   -2.2193    1.8988 H   0  0  0  0  0  0  0  0  0  0  0  0
    7.0983   -0.5054    3.2900 H   0  0  0  0  0  0  0  0  0  0  0  0
   -3.6078   -2.8163   -0.7222 H   0  0  0  0  0  0  0  0  0  0  0  0
   -6.1133   -5.0700   -2.0650 H   0  0  0  0  0  0  0  0  0  0  0  0
   -4.5481   -4.2682   -2.2411 H   0  0  0  0  0  0  0  0  0  0  0  0
   -5.2447   -4.5838   -0.6038 H   0  0  0  0  0  0  0  0  0  0  0  0
  1  2  1  0
  2  3  1  0
  3  4  2  0
  4  5  1  0
  5  6  2  0
  6  7  1  0
  7  8  2  0
  7  9  2  0
  7 10  1  0
 10 11  1  0
 11 12  1  0
 12 13  1  0
 13 14  1  0
 14 15  1  0
 15 16  1  0
 16 17  1  0
 17 18  2  0
 17 19  1  0
 19 20  2  0
 19 21  1  0
 21 22  1  0
 22 23  1  0
 23 24  2  0
 24 25  1  0
 25 26  2  0
 26 27  1  0
 26 28  1  0
 28 29  2  0
  6 30  1  0
 30 31  2  0
 31 32  1  0
 32 33  1  0
 31  3  1  0
 14 10  1  0
 29 23  1  0
  1 34  1  0
  1 35  1  0
  1 36  1  0
  4 37  1  0
  5 38  1  0
 11 39  1  0
 11 40  1  0
 12 41  1  0
 12 42  1  0
 14 43  1  0
 15 44  1  0
 15 45  1  0
 16 46  1  0
 21 47  1  0
 22 48  1  0
 22 49  1  0
 24 50  1  0
 25 51  1  0
 28 52  1  0
 29 53  1  0
 30 54  1  0
 33 55  1  0
 33 56  1  0
 33 57  1  0
M  END
$$$$
