
     RDKit          3D

 32 33  0  0  0  0  0  0  0  0999 V2000
   -5.8538   -0.6043   -0.0776 C   0  0  0  0  0  0  0  0  0  0  0  0
   -4.3615   -0.5750   -0.2335 C   0  0  0  0  0  0  0  0  0  0  0  0
   -3.7831   -0.4546   -1.5033 C   0  0  0  0  0  0  0  0  0  0  0  0
   -2.3932   -0.3985   -1.6478 C   0  0  0  0  0  0  0  0  0  0  0  0
   -1.7452   -0.3040   -3.2469 Cl  0  0  0  0  0  0  0  0  0  0  0  0
   -1.5635   -0.4294   -0.5202 C   0  0  0  0  0  0  0  0  0  0  0  0
   -0.1978   -0.4055   -0.6608 O   0  0  0  0  0  0  0  0  0  0  0  0
    0.2904    0.9423   -0.6682 C   0  0  0  0  0  0  0  0  0  0  0  0
    1.8112    0.9060   -0.7715 C   0  0  0  0  0  0  0  0  0  0  0  0
    2.4412    0.1678    0.4080 C   0  0  0  0  0  0  0  0  0  0  0  0
    3.8893    0.2013    0.3541 N   0  0  0  0  0  0  0  0  0  0  0  0
    4.6953   -0.6880   -0.2983 C   0  0  0  0  0  0  0  0  0  0  0  0
    5.9753   -0.2463   -0.0564 C   0  0  0  0  0  0  0  0  0  0  0  0
    5.9622    0.8798    0.7263 N   0  0  0  0  0  0  0  0  0  0  0  0
    4.6924    1.1224    0.9623 C   0  0  0  0  0  0  0  0  0  0  0  0
   -2.1385   -0.5693    0.7485 C   0  0  0  0  0  0  0  0  0  0  0  0
   -1.0760   -0.7020    2.3170 Br  0  0  0  0  0  0  0  0  0  0  0  0
   -3.5290   -0.6253    0.8917 C   0  0  0  0  0  0  0  0  0  0  0  0
   -6.2372    0.4139    0.0395 H   0  0  0  0  0  0  0  0  0  0  0  0
   -6.1435   -1.1951    0.7977 H   0  0  0  0  0  0  0  0  0  0  0  0
   -6.3290   -1.0637   -0.9507 H   0  0  0  0  0  0  0  0  0  0  0  0
   -4.4178   -0.4151   -2.3866 H   0  0  0  0  0  0  0  0  0  0  0  0
   -0.1112    1.4902   -1.5286 H   0  0  0  0  0  0  0  0  0  0  0  0
   -0.0060    1.4686    0.2475 H   0  0  0  0  0  0  0  0  0  0  0  0
    2.1946    1.9320   -0.8254 H   0  0  0  0  0  0  0  0  0  0  0  0
    2.1002    0.4035   -1.7032 H   0  0  0  0  0  0  0  0  0  0  0  0
    2.1376    0.6191    1.3597 H   0  0  0  0  0  0  0  0  0  0  0  0
    2.1420   -0.8863    0.4283 H   0  0  0  0  0  0  0  0  0  0  0  0
    4.3105   -1.5272   -0.8605 H   0  0  0  0  0  0  0  0  0  0  0  0
    6.9047   -0.6792   -0.4029 H   0  0  0  0  0  0  0  0  0  0  0  0
    4.3086    1.9412    1.5567 H   0  0  0  0  0  0  0  0  0  0  0  0
   -3.9691   -0.7194    1.8830 H   0  0  0  0  0  0  0  0  0  0  0  0
  1  2  1  0
  2  3  2  0
  3  4  1  0
  4  5  1  0
  4  6  2  0
  6  7  1  0
  7  8  1  0
  8  9  1  0
  9 10  1  0
 10 11  1  0
 11 12  1  0
 12 13  2  0
 13 14  1  0
 14 15  2  0
  6 16  1  0
 16 17  1  0
 16 18  2  0
 18  2  1  0
 15 11  1  0
  1 19  1  0
  1 20  1  0
  1 21  1  0
  3 22  1  0
  8 23  1  0
  8 24  1  0
  9 25  1  0
  9 26  1  0
 10 27  1  0
 10 28  1  0
 12 29  1  0
 13 30  1  0
 15 31  1  0
 18 32  1  0
M  END
$$$$
