
     RDKit          3D

 36 37  0  0  0  0  0  0  0  0999 V2000
   -3.8555    1.3853    0.6745 C   0  0  0  0  0  0  0  0  0  0  0  0
   -2.6261    0.6510    1.2020 C   0  0  0  0  0  0  0  0  0  0  0  0
   -1.6431    0.2137    0.1991 N   0  0  0  0  0  0  0  0  0  0  0  0
   -2.1860   -0.7271   -0.8001 C   0  0  0  0  0  0  0  0  0  0  0  0
   -2.7053   -2.0485   -0.2146 C   0  0  0  0  0  0  0  0  0  0  0  0
   -3.1380   -2.9012   -1.2731 O   0  0  0  0  0  0  0  0  0  0  0  0
   -0.9888    1.3660   -0.4443 C   0  0  0  0  0  0  0  0  0  0  0  0
    0.3439    0.9653   -1.0230 C   0  0  0  0  0  0  0  0  0  0  0  0
    0.6216    0.9565   -2.3771 C   0  0  0  0  0  0  0  0  0  0  0  0
    2.2170    0.4813   -2.7274 S   0  0  0  0  0  0  0  0  0  0  0  0
    2.6014    0.2823   -1.0629 C   0  0  0  0  0  0  0  0  0  0  0  0
    3.8425   -0.1197   -0.5262 C   0  0  0  0  0  0  0  0  0  0  0  0
    3.9935   -0.2253    0.8632 C   0  0  0  0  0  0  0  0  0  0  0  0
    5.2984   -0.6847    1.4448 C   0  0  0  0  0  0  0  0  0  0  0  0
    2.9075    0.0409    1.6925 C   0  0  0  0  0  0  0  0  0  0  0  0
    1.6788    0.4389    1.1542 C   0  0  0  0  0  0  0  0  0  0  0  0
    1.5050    0.5714   -0.2468 C   0  0  0  0  0  0  0  0  0  0  0  0
   -3.5822    2.2868    0.1181 H   0  0  0  0  0  0  0  0  0  0  0  0
   -4.4873    1.6959    1.5135 H   0  0  0  0  0  0  0  0  0  0  0  0
   -4.4634    0.7465    0.0273 H   0  0  0  0  0  0  0  0  0  0  0  0
   -2.9546   -0.2118    1.7927 H   0  0  0  0  0  0  0  0  0  0  0  0
   -2.1208    1.2983    1.9309 H   0  0  0  0  0  0  0  0  0  0  0  0
   -2.9737   -0.2604   -1.4052 H   0  0  0  0  0  0  0  0  0  0  0  0
   -1.4041   -1.0018   -1.5191 H   0  0  0  0  0  0  0  0  0  0  0  0
   -3.5606   -1.8887    0.4477 H   0  0  0  0  0  0  0  0  0  0  0  0
   -1.9122   -2.5607    0.3402 H   0  0  0  0  0  0  0  0  0  0  0  0
   -3.3577   -3.7583   -0.8695 H   0  0  0  0  0  0  0  0  0  0  0  0
   -0.7891    2.1567    0.2916 H   0  0  0  0  0  0  0  0  0  0  0  0
   -1.6305    1.8117   -1.2151 H   0  0  0  0  0  0  0  0  0  0  0  0
   -0.0504    1.2053   -3.1870 H   0  0  0  0  0  0  0  0  0  0  0  0
    4.6723   -0.3437   -1.1915 H   0  0  0  0  0  0  0  0  0  0  0  0
    6.1388   -0.3641    0.8202 H   0  0  0  0  0  0  0  0  0  0  0  0
    5.4541   -0.2581    2.4414 H   0  0  0  0  0  0  0  0  0  0  0  0
    5.3101   -1.7763    1.5213 H   0  0  0  0  0  0  0  0  0  0  0  0
    3.0009   -0.0599    2.7716 H   0  0  0  0  0  0  0  0  0  0  0  0
    0.8435    0.6364    1.8214 H   0  0  0  0  0  0  0  0  0  0  0  0
  1  2  1  0
  2  3  1  0
  3  4  1  0
  4  5  1  0
  5  6  1  0
  3  7  1  0
  7  8  1  0
  8  9  2  0
  9 10  1  0
 10 11  1  0
 11 12  2  0
 12 13  1  0
 13 14  1  0
 13 15  2  0
 15 16  1  0
 16 17  2  0
 17  8  1  0
 17 11  1  0
  1 18  1  0
  1 19  1  0
  1 20  1  0
  2 21  1  0
  2 22  1  0
  4 23  1  0
  4 24  1  0
  5 25  1  0
  5 26  1  0
  6 27  1  0
  7 28  1  0
  7 29  1  0
  9 30  1  0
 12 31  1  0
 14 32  1  0
 14 33  1  0
 14 34  1  0
 15 35  1  0
 16 36  1  0
M  END
$$$$
