
     RDKit          3D

 35 36  0  0  0  0  0  0  0  0999 V2000
   -4.8911   -1.2663    0.5770 C   0  0  0  0  0  0  0  0  0  0  0  0
   -4.5525   -0.0947   -0.3069 C   0  0  0  0  0  0  0  0  0  0  0  0
   -5.4341    0.5916   -0.8198 O   0  0  0  0  0  0  0  0  0  0  0  0
   -3.1173    0.2254   -0.5659 C   0  0  0  0  0  0  0  0  0  0  0  0
   -2.8114    1.3988   -1.2704 C   0  0  0  0  0  0  0  0  0  0  0  0
   -1.4824    1.7416   -1.5343 C   0  0  0  0  0  0  0  0  0  0  0  0
   -0.4540    0.9018   -1.1095 C   0  0  0  0  0  0  0  0  0  0  0  0
    0.9074    1.2741   -1.3368 N   0  0  0  0  0  0  0  0  0  0  0  0
    1.6531    2.1469   -0.0795 S   0  0  0  0  0  6  0  0  0  0  0  0
    0.8855    2.0424    1.1428 O   0  0  0  0  0  0  0  0  0  0  0  0
    1.9486    3.4418   -0.6612 O   0  0  0  0  0  0  0  0  0  0  0  0
    3.2162    1.2813    0.1217 C   0  0  0  0  0  0  0  0  0  0  0  0
    3.0040   -0.1706    0.4658 C   0  0  0  0  0  0  0  0  0  0  0  0
    2.6684   -0.5550    1.7734 C   0  0  0  0  0  0  0  0  0  0  0  0
    2.4717   -1.9012    2.0897 C   0  0  0  0  0  0  0  0  0  0  0  0
    2.6139   -2.8724    1.1022 C   0  0  0  0  0  0  0  0  0  0  0  0
    2.3623   -4.5293    1.4891 Cl  0  0  0  0  0  0  0  0  0  0  0  0
    2.9529   -2.5091   -0.1989 C   0  0  0  0  0  0  0  0  0  0  0  0
    3.1488   -1.1628   -0.5164 C   0  0  0  0  0  0  0  0  0  0  0  0
   -0.7475   -0.2598   -0.3970 C   0  0  0  0  0  0  0  0  0  0  0  0
   -2.0768   -0.6031   -0.1291 C   0  0  0  0  0  0  0  0  0  0  0  0
   -5.9714   -1.2828    0.7528 H   0  0  0  0  0  0  0  0  0  0  0  0
   -4.3972   -1.1681    1.5473 H   0  0  0  0  0  0  0  0  0  0  0  0
   -4.6080   -2.2015    0.0874 H   0  0  0  0  0  0  0  0  0  0  0  0
   -3.6091    2.0592   -1.6073 H   0  0  0  0  0  0  0  0  0  0  0  0
   -1.2679    2.6681   -2.0599 H   0  0  0  0  0  0  0  0  0  0  0  0
    1.0279    1.8174   -2.1951 H   0  0  0  0  0  0  0  0  0  0  0  0
    3.7812    1.3984   -0.8089 H   0  0  0  0  0  0  0  0  0  0  0  0
    3.7716    1.7905    0.9163 H   0  0  0  0  0  0  0  0  0  0  0  0
    2.5447    0.1933    2.5559 H   0  0  0  0  0  0  0  0  0  0  0  0
    2.2056   -2.1820    3.1055 H   0  0  0  0  0  0  0  0  0  0  0  0
    3.0646   -3.2671   -0.9699 H   0  0  0  0  0  0  0  0  0  0  0  0
    3.4092   -0.8968   -1.5393 H   0  0  0  0  0  0  0  0  0  0  0  0
    0.0511   -0.9051   -0.0442 H   0  0  0  0  0  0  0  0  0  0  0  0
   -2.2682   -1.5184    0.4231 H   0  0  0  0  0  0  0  0  0  0  0  0
  1  2  1  0
  2  3  2  0
  2  4  1  0
  4  5  2  0
  5  6  1  0
  6  7  2  0
  7  8  1  0
  8  9  1  0
  9 10  2  0
  9 11  2  0
  9 12  1  0
 12 13  1  0
 13 14  2  0
 14 15  1  0
 15 16  2  0
 16 17  1  0
 16 18  1  0
 18 19  2  0
  7 20  1  0
 20 21  2  0
 21  4  1  0
 19 13  1  0
  1 22  1  0
  1 23  1  0
  1 24  1  0
  5 25  1  0
  6 26  1  0
  8 27  1  0
 12 28  1  0
 12 29  1  0
 14 30  1  0
 15 31  1  0
 18 32  1  0
 19 33  1  0
 20 34  1  0
 21 35  1  0
M  END
$$$$
