
     RDKit          3D

 32 32  0  0  0  0  0  0  0  0999 V2000
   -4.4131    1.2897   -0.8959 C   0  0  0  0  0  0  0  0  0  0  0  0
   -3.4789    1.2806   -1.6514 C   0  0  0  0  0  0  0  0  0  0  0  0
   -2.3446    1.2850   -2.5898 C   0  0  0  0  0  0  0  0  0  0  0  0
   -1.5858    0.0337   -2.6595 N   0  0  0  0  0  0  0  0  0  0  0  0
   -2.3957   -1.1336   -2.9749 C   0  0  0  0  0  0  0  0  0  0  0  0
   -0.6168   -0.1740   -1.5792 C   0  0  0  0  0  0  0  0  0  0  0  0
   -1.1745   -0.4656   -0.1792 C   0  0  0  0  0  0  0  0  0  0  0  0
   -0.0614   -0.8236    0.8071 C   0  0  0  0  0  0  0  0  0  0  0  0
    0.8170    0.2919    0.9371 O   0  0  0  0  0  0  0  0  0  0  0  0
    1.9127    0.1613    1.7476 C   0  0  0  0  0  0  0  0  0  0  0  0
    2.1927   -0.9656    2.5277 C   0  0  0  0  0  0  0  0  0  0  0  0
    3.3394   -1.0034    3.3287 C   0  0  0  0  0  0  0  0  0  0  0  0
    4.2093    0.0843    3.3543 C   0  0  0  0  0  0  0  0  0  0  0  0
    5.6162    0.0278    4.3424 Cl  0  0  0  0  0  0  0  0  0  0  0  0
    3.9470    1.2140    2.5876 C   0  0  0  0  0  0  0  0  0  0  0  0
    2.8018    1.2504    1.7885 C   0  0  0  0  0  0  0  0  0  0  0  0
    2.5178    2.6765    0.8502 Cl  0  0  0  0  0  0  0  0  0  0  0  0
   -5.2409    1.2997   -0.2253 H   0  0  0  0  0  0  0  0  0  0  0  0
   -1.6700    2.1162   -2.3499 H   0  0  0  0  0  0  0  0  0  0  0  0
   -2.7264    1.5091   -3.5941 H   0  0  0  0  0  0  0  0  0  0  0  0
   -1.7566   -2.0012   -3.1739 H   0  0  0  0  0  0  0  0  0  0  0  0
   -2.9776   -0.9634   -3.8878 H   0  0  0  0  0  0  0  0  0  0  0  0
   -3.0912   -1.4046   -2.1742 H   0  0  0  0  0  0  0  0  0  0  0  0
    0.0438    0.7014   -1.5327 H   0  0  0  0  0  0  0  0  0  0  0  0
    0.0397   -1.0032   -1.8750 H   0  0  0  0  0  0  0  0  0  0  0  0
   -1.6948    0.4203    0.1989 H   0  0  0  0  0  0  0  0  0  0  0  0
   -1.8885   -1.2949   -0.2103 H   0  0  0  0  0  0  0  0  0  0  0  0
   -0.5168   -1.0518    1.7781 H   0  0  0  0  0  0  0  0  0  0  0  0
    0.4849   -1.7009    0.4402 H   0  0  0  0  0  0  0  0  0  0  0  0
    1.5390   -1.8319    2.5400 H   0  0  0  0  0  0  0  0  0  0  0  0
    3.5458   -1.8853    3.9308 H   0  0  0  0  0  0  0  0  0  0  0  0
    4.6266    2.0613    2.6095 H   0  0  0  0  0  0  0  0  0  0  0  0
  1  2  3  0
  2  3  1  0
  3  4  1  0
  4  5  1  0
  4  6  1  0
  6  7  1  0
  7  8  1  0
  8  9  1  0
  9 10  1  0
 10 11  2  0
 11 12  1  0
 12 13  2  0
 13 14  1  0
 13 15  1  0
 15 16  2  0
 16 17  1  0
 16 10  1  0
  1 18  1  0
  3 19  1  0
  3 20  1  0
  5 21  1  0
  5 22  1  0
  5 23  1  0
  6 24  1  0
  6 25  1  0
  7 26  1  0
  7 27  1  0
  8 28  1  0
  8 29  1  0
 11 30  1  0
 12 31  1  0
 15 32  1  0
M  END
$$$$
