
     RDKit          3D

 38 40  0  0  0  0  0  0  0  0999 V2000
   -5.7544    0.8365   -2.1692 C   0  0  0  0  0  0  0  0  0  0  0  0
   -6.3798   -0.3281   -1.4224 C   0  0  0  0  0  0  0  0  0  0  0  0
   -5.5195   -0.8579   -0.4166 O   0  0  0  0  0  0  0  0  0  0  0  0
   -4.4150   -1.6132   -0.9226 C   0  0  0  0  0  0  0  0  0  0  0  0
   -3.1658   -0.8133   -0.7576 C   0  0  0  0  0  0  0  0  0  0  0  0
   -2.4536   -0.3149   -1.7494 N   0  0  0  0  0  0  0  0  0  0  0  0
   -1.3483    0.3748   -1.2946 N   0  0  0  0  0  0  0  0  0  0  0  0
   -1.2574    0.3589    0.0169 C   0  0  0  0  0  0  0  0  0  0  0  0
   -0.2366    0.9836    0.6835 N   0  0  0  0  0  0  0  0  0  0  0  0
    0.0056    0.9764    2.0382 C   0  0  0  0  0  0  0  0  0  0  0  0
   -0.6552    0.4190    2.9089 O   0  0  0  0  0  0  0  0  0  0  0  0
    1.2369    1.8092    2.4132 C   0  0  0  0  0  0  0  0  0  0  0  0
    2.1941    1.9480    1.3704 O   0  0  0  0  0  0  0  0  0  0  0  0
    3.0679    0.9154    1.1540 C   0  0  0  0  0  0  0  0  0  0  0  0
    3.0422   -0.3371    1.7968 C   0  0  0  0  0  0  0  0  0  0  0  0
    3.9844   -1.3234    1.4752 C   0  0  0  0  0  0  0  0  0  0  0  0
    4.9268   -1.0275    0.5156 C   0  0  0  0  0  0  0  0  0  0  0  0
    4.9527    0.1916   -0.1153 C   0  0  0  0  0  0  0  0  0  0  0  0
    4.0385    1.1800    0.1801 C   0  0  0  0  0  0  0  0  0  0  0  0
    5.9564    0.2826   -1.0282 O   0  0  0  0  0  0  0  0  0  0  0  0
    6.5586   -1.0227   -0.9003 C   0  0  0  0  0  0  0  0  0  0  0  0
    5.9099   -1.8591    0.0807 O   0  0  0  0  0  0  0  0  0  0  0  0
   -2.5101   -0.4885    0.7980 S   0  0  0  0  0  0  0  0  0  0  0  0
   -6.4924    1.3163   -2.8191 H   0  0  0  0  0  0  0  0  0  0  0  0
   -4.9218    0.5043   -2.7957 H   0  0  0  0  0  0  0  0  0  0  0  0
   -5.3608    1.5805   -1.4694 H   0  0  0  0  0  0  0  0  0  0  0  0
   -6.6944   -1.1211   -2.1102 H   0  0  0  0  0  0  0  0  0  0  0  0
   -7.2797    0.0280   -0.9094 H   0  0  0  0  0  0  0  0  0  0  0  0
   -4.3466   -2.5349   -0.3344 H   0  0  0  0  0  0  0  0  0  0  0  0
   -4.5627   -1.9045   -1.9691 H   0  0  0  0  0  0  0  0  0  0  0  0
    0.4397    1.4364    0.0788 H   0  0  0  0  0  0  0  0  0  0  0  0
    0.8704    2.8161    2.6452 H   0  0  0  0  0  0  0  0  0  0  0  0
    1.6946    1.4229    3.3314 H   0  0  0  0  0  0  0  0  0  0  0  0
    2.3010   -0.5857    2.5506 H   0  0  0  0  0  0  0  0  0  0  0  0
    3.9725   -2.2917    1.9640 H   0  0  0  0  0  0  0  0  0  0  0  0
    4.0765    2.1362   -0.3301 H   0  0  0  0  0  0  0  0  0  0  0  0
    6.5163   -1.5256   -1.8735 H   0  0  0  0  0  0  0  0  0  0  0  0
    7.6091   -0.8973   -0.6142 H   0  0  0  0  0  0  0  0  0  0  0  0
  1  2  1  0
  2  3  1  0
  3  4  1  0
  4  5  1  0
  5  6  2  0
  6  7  1  0
  7  8  2  0
  8  9  1  0
  9 10  1  0
 10 11  2  0
 10 12  1  0
 12 13  1  0
 13 14  1  0
 14 15  2  0
 15 16  1  0
 16 17  2  0
 17 18  1  0
 18 19  2  0
 18 20  1  0
 20 21  1  0
 21 22  1  0
  8 23  1  0
 23  5  1  0
 19 14  1  0
 22 17  1  0
  1 24  1  0
  1 25  1  0
  1 26  1  0
  2 27  1  0
  2 28  1  0
  4 29  1  0
  4 30  1  0
  9 31  1  0
 12 32  1  0
 12 33  1  0
 15 34  1  0
 16 35  1  0
 19 36  1  0
 21 37  1  0
 21 38  1  0
M  END
$$$$
