
     RDKit          3D

 35 35  0  0  0  0  0  0  0  0999 V2000
   -3.2531    1.9137    0.4489 C   0  0  0  0  0  0  0  0  0  0  0  0
   -3.4264    0.7365   -0.5186 C   0  0  0  0  0  0  0  0  0  0  0  0
   -3.1015    1.1750   -1.9533 C   0  0  0  0  0  0  0  0  0  0  0  0
   -2.6716   -0.4881   -0.1685 N   0  0  0  0  0  0  0  0  0  0  0  0
   -3.3084   -1.2006    0.9430 C   0  0  0  0  0  0  0  0  0  0  0  0
   -1.2397   -0.2522    0.0956 C   0  0  0  0  0  0  0  0  0  0  0  0
   -0.3729   -1.5141   -0.0587 C   0  0  0  0  0  0  0  0  0  0  0  0
    0.9933   -1.2336    0.3018 O   0  0  0  0  0  0  0  0  0  0  0  0
    1.7433   -0.6561   -0.6678 C   0  0  0  0  0  0  0  0  0  0  0  0
    1.3994   -0.3693   -1.7994 O   0  0  0  0  0  0  0  0  0  0  0  0
    3.0842   -0.4066   -0.1151 C   0  0  0  0  0  0  0  0  0  0  0  0
    3.8580   -1.5107    0.2725 C   0  0  0  0  0  0  0  0  0  0  0  0
    5.1441   -1.3178    0.7773 C   0  0  0  0  0  0  0  0  0  0  0  0
    5.6584   -0.0271    0.8947 C   0  0  0  0  0  0  0  0  0  0  0  0
    4.8879    1.0737    0.5115 C   0  0  0  0  0  0  0  0  0  0  0  0
    3.5973    0.8883    0.0046 C   0  0  0  0  0  0  0  0  0  0  0  0
    2.5967    2.4369   -0.4453 Br  0  0  0  0  0  0  0  0  0  0  0  0
   -3.9090    2.7421    0.1583 H   0  0  0  0  0  0  0  0  0  0  0  0
   -2.2270    2.2959    0.4521 H   0  0  0  0  0  0  0  0  0  0  0  0
   -3.5186    1.6345    1.4732 H   0  0  0  0  0  0  0  0  0  0  0  0
   -4.4947    0.4803   -0.5323 H   0  0  0  0  0  0  0  0  0  0  0  0
   -3.7836    1.9721   -2.2700 H   0  0  0  0  0  0  0  0  0  0  0  0
   -3.2243    0.3420   -2.6544 H   0  0  0  0  0  0  0  0  0  0  0  0
   -2.0816    1.5588   -2.0536 H   0  0  0  0  0  0  0  0  0  0  0  0
   -3.2436   -0.6482    1.8864 H   0  0  0  0  0  0  0  0  0  0  0  0
   -2.8554   -2.1854    1.0932 H   0  0  0  0  0  0  0  0  0  0  0  0
   -4.3662   -1.3903    0.7279 H   0  0  0  0  0  0  0  0  0  0  0  0
   -1.0853    0.1761    1.0951 H   0  0  0  0  0  0  0  0  0  0  0  0
   -0.8393    0.4936   -0.5993 H   0  0  0  0  0  0  0  0  0  0  0  0
   -0.7043   -2.3040    0.6215 H   0  0  0  0  0  0  0  0  0  0  0  0
   -0.4297   -1.9205   -1.0761 H   0  0  0  0  0  0  0  0  0  0  0  0
    3.4623   -2.5194    0.1759 H   0  0  0  0  0  0  0  0  0  0  0  0
    5.7460   -2.1731    1.0760 H   0  0  0  0  0  0  0  0  0  0  0  0
    6.6616    0.1241    1.2873 H   0  0  0  0  0  0  0  0  0  0  0  0
    5.3033    2.0736    0.6157 H   0  0  0  0  0  0  0  0  0  0  0  0
  1  2  1  0
  2  3  1  0
  2  4  1  0
  4  5  1  0
  4  6  1  0
  6  7  1  0
  7  8  1  0
  8  9  1  0
  9 10  2  0
  9 11  1  0
 11 12  2  0
 12 13  1  0
 13 14  2  0
 14 15  1  0
 15 16  2  0
 16 17  1  0
 16 11  1  0
  1 18  1  0
  1 19  1  0
  1 20  1  0
  2 21  1  0
  3 22  1  0
  3 23  1  0
  3 24  1  0
  5 25  1  0
  5 26  1  0
  5 27  1  0
  6 28  1  0
  6 29  1  0
  7 30  1  0
  7 31  1  0
 12 32  1  0
 13 33  1  0
 14 34  1  0
 15 35  1  0
M  END
$$$$
