
     RDKit          3D

 33 33  0  0  0  0  0  0  0  0999 V2000
   -3.9286   -0.0426    0.5179 C   0  0  0  0  0  0  0  0  0  0  0  0
   -3.2541   -1.3347    0.0543 C   0  0  0  0  0  0  0  0  0  0  0  0
   -4.1003   -1.9914   -1.0398 C   0  0  0  0  0  0  0  0  0  0  0  0
   -1.9068   -1.0959   -0.4841 N   0  0  0  0  0  0  0  0  0  0  0  0
   -0.9354   -0.6771    0.5326 C   0  0  0  0  0  0  0  0  0  0  0  0
   -0.5191    0.7746    0.2869 C   0  0  0  0  0  0  0  0  0  0  0  0
    0.4460    1.2784    1.3593 C   0  0  0  0  0  0  0  0  0  0  0  0
    1.6039    0.4534    1.4698 O   0  0  0  0  0  0  0  0  0  0  0  0
    2.6779    0.6665    0.6502 C   0  0  0  0  0  0  0  0  0  0  0  0
    2.7381    1.6374   -0.3541 C   0  0  0  0  0  0  0  0  0  0  0  0
    3.8866    1.7735   -1.1426 C   0  0  0  0  0  0  0  0  0  0  0  0
    4.9809    0.9390   -0.9321 C   0  0  0  0  0  0  0  0  0  0  0  0
    6.3879    1.1137   -1.9058 Cl  0  0  0  0  0  0  0  0  0  0  0  0
    4.9412   -0.0351    0.0590 C   0  0  0  0  0  0  0  0  0  0  0  0
    3.7925   -0.1691    0.8444 C   0  0  0  0  0  0  0  0  0  0  0  0
    3.7942   -1.5238    2.1801 Br  0  0  0  0  0  0  0  0  0  0  0  0
   -3.9728    0.6973   -0.2892 H   0  0  0  0  0  0  0  0  0  0  0  0
   -3.4000    0.4078    1.3640 H   0  0  0  0  0  0  0  0  0  0  0  0
   -4.9550   -0.2401    0.8461 H   0  0  0  0  0  0  0  0  0  0  0  0
   -3.1975   -2.0363    0.8961 H   0  0  0  0  0  0  0  0  0  0  0  0
   -4.1940   -1.3440   -1.9192 H   0  0  0  0  0  0  0  0  0  0  0  0
   -5.1094   -2.2065   -0.6714 H   0  0  0  0  0  0  0  0  0  0  0  0
   -3.6592   -2.9410   -1.3632 H   0  0  0  0  0  0  0  0  0  0  0  0
   -1.5706   -1.9614   -0.9095 H   0  0  0  0  0  0  0  0  0  0  0  0
   -0.0537   -1.3240    0.4476 H   0  0  0  0  0  0  0  0  0  0  0  0
   -1.3140   -0.8106    1.5530 H   0  0  0  0  0  0  0  0  0  0  0  0
   -1.3973    1.4301    0.2737 H   0  0  0  0  0  0  0  0  0  0  0  0
   -0.0503    0.8441   -0.7015 H   0  0  0  0  0  0  0  0  0  0  0  0
   -0.0576    1.2315    2.3325 H   0  0  0  0  0  0  0  0  0  0  0  0
    0.7043    2.3338    1.2173 H   0  0  0  0  0  0  0  0  0  0  0  0
    1.9083    2.3050   -0.5607 H   0  0  0  0  0  0  0  0  0  0  0  0
    3.9168    2.5327   -1.9206 H   0  0  0  0  0  0  0  0  0  0  0  0
    5.7971   -0.6851    0.2176 H   0  0  0  0  0  0  0  0  0  0  0  0
  1  2  1  0
  2  3  1  0
  2  4  1  0
  4  5  1  0
  5  6  1  0
  6  7  1  0
  7  8  1  0
  8  9  1  0
  9 10  2  0
 10 11  1  0
 11 12  2  0
 12 13  1  0
 12 14  1  0
 14 15  2  0
 15 16  1  0
 15  9  1  0
  1 17  1  0
  1 18  1  0
  1 19  1  0
  2 20  1  0
  3 21  1  0
  3 22  1  0
  3 23  1  0
  4 24  1  0
  5 25  1  0
  5 26  1  0
  6 27  1  0
  6 28  1  0
  7 29  1  0
  7 30  1  0
 10 31  1  0
 11 32  1  0
 14 33  1  0
M  END
$$$$
