
     RDKit          3D

 60 64  0  0  0  0  0  0  0  0999 V2000
   -2.9234    0.1399   -2.9962 C   0  0  0  0  0  0  0  0  0  0  0  0
   -2.7485   -0.8989   -1.9861 N   0  0  0  0  0  0  0  0  0  0  0  0
   -3.9019   -1.3573   -1.3429 C   0  0  0  0  0  0  0  0  0  0  0  0
   -5.0285   -0.9730   -1.6582 O   0  0  0  0  0  0  0  0  0  0  0  0
   -3.7378   -2.3166   -0.2030 C   0  0  0  0  0  0  0  0  0  0  0  0
   -4.5072   -2.2837    0.9015 C   0  0  0  0  0  0  0  0  0  0  0  0
   -5.5312   -1.2871    1.2325 C   0  0  0  0  0  0  0  0  0  0  0  0
   -6.8648   -1.6875    1.3586 C   0  0  0  0  0  0  0  0  0  0  0  0
   -7.8526   -0.7576    1.6968 C   0  0  0  0  0  0  0  0  0  0  0  0
   -7.5208    0.5878    1.9157 C   0  0  0  0  0  0  0  0  0  0  0  0
   -8.5741    1.6011    2.2869 C   0  0  0  0  0  0  0  0  0  0  0  0
   -8.4839    1.9865    3.5901 F   0  0  0  0  0  0  0  0  0  0  0  0
   -8.4856    2.7459    1.5545 F   0  0  0  0  0  0  0  0  0  0  0  0
   -9.8493    1.1503    2.1209 F   0  0  0  0  0  0  0  0  0  0  0  0
   -6.1776    0.9801    1.8016 C   0  0  0  0  0  0  0  0  0  0  0  0
   -5.1902    0.0498    1.4655 C   0  0  0  0  0  0  0  0  0  0  0  0
   -2.5598   -3.5648   -0.3827 S   0  0  0  0  0  0  0  0  0  0  0  0
   -1.2196   -2.5590   -0.9736 C   0  0  0  0  0  0  0  0  0  0  0  0
    0.0819   -3.0358   -0.7382 C   0  0  0  0  0  0  0  0  0  0  0  0
    1.1904   -2.3372   -1.2082 C   0  0  0  0  0  0  0  0  0  0  0  0
    0.9940   -1.1499   -1.9081 C   0  0  0  0  0  0  0  0  0  0  0  0
    2.1463   -0.4140   -2.4622 C   0  0  0  0  0  0  0  0  0  0  0  0
    2.2092   -0.3120   -3.6840 O   0  0  0  0  0  0  0  0  0  0  0  0
    3.0923    0.1134   -1.5956 N   0  0  0  0  0  0  0  0  0  0  0  0
    4.2721    0.7540   -2.1900 C   0  0  0  0  0  0  0  0  0  0  0  0
    5.1133    1.5679   -1.1937 C   0  0  0  0  0  0  0  0  0  0  0  0
    5.3916    0.7759    0.0135 N   0  0  0  0  0  0  0  0  0  0  0  0
    6.3522    1.3062    0.8727 C   0  0  0  0  0  0  0  0  0  0  0  0
    6.7954    0.5839    1.9826 C   0  0  0  0  0  0  0  0  0  0  0  0
    7.7754    1.1154    2.8219 C   0  0  0  0  0  0  0  0  0  0  0  0
    8.3086    2.3606    2.5347 C   0  0  0  0  0  0  0  0  0  0  0  0
    7.8355    3.0162    1.4160 C   0  0  0  0  0  0  0  0  0  0  0  0
    6.8831    2.5179    0.5945 N   0  0  0  0  0  0  0  0  0  0  0  0
    4.2520    0.0698    0.6225 C   0  0  0  0  0  0  0  0  0  0  0  0
    2.9358    0.2877   -0.1475 C   0  0  0  0  0  0  0  0  0  0  0  0
   -0.2978   -0.6820   -2.1745 C   0  0  0  0  0  0  0  0  0  0  0  0
   -1.4269   -1.3735   -1.7020 C   0  0  0  0  0  0  0  0  0  0  0  0
   -2.3732   -0.1249   -3.9042 H   0  0  0  0  0  0  0  0  0  0  0  0
   -2.5649    1.0916   -2.5939 H   0  0  0  0  0  0  0  0  0  0  0  0
   -3.9714    0.2691   -3.2789 H   0  0  0  0  0  0  0  0  0  0  0  0
   -4.3854   -3.0455    1.6679 H   0  0  0  0  0  0  0  0  0  0  0  0
   -7.1471   -2.7226    1.1793 H   0  0  0  0  0  0  0  0  0  0  0  0
   -8.8858   -1.0884    1.7792 H   0  0  0  0  0  0  0  0  0  0  0  0
   -5.8961    2.0191    1.9714 H   0  0  0  0  0  0  0  0  0  0  0  0
   -4.1579    0.3795    1.3847 H   0  0  0  0  0  0  0  0  0  0  0  0
    0.2369   -3.9701   -0.2013 H   0  0  0  0  0  0  0  0  0  0  0  0
    2.1920   -2.7262   -1.0471 H   0  0  0  0  0  0  0  0  0  0  0  0
    3.9563    1.3994   -3.0161 H   0  0  0  0  0  0  0  0  0  0  0  0
    4.8777   -0.0515   -2.6178 H   0  0  0  0  0  0  0  0  0  0  0  0
    6.0408    1.8596   -1.7008 H   0  0  0  0  0  0  0  0  0  0  0  0
    4.5738    2.4819   -0.9207 H   0  0  0  0  0  0  0  0  0  0  0  0
    6.4041   -0.4055    2.1908 H   0  0  0  0  0  0  0  0  0  0  0  0
    8.1241    0.5512    3.6811 H   0  0  0  0  0  0  0  0  0  0  0  0
    9.0790    2.8031    3.1561 H   0  0  0  0  0  0  0  0  0  0  0  0
    8.2230    3.9911    1.1321 H   0  0  0  0  0  0  0  0  0  0  0  0
    4.0841    0.3842    1.6603 H   0  0  0  0  0  0  0  0  0  0  0  0
    4.4830   -1.0022    0.6315 H   0  0  0  0  0  0  0  0  0  0  0  0
    2.1604   -0.3622    0.2605 H   0  0  0  0  0  0  0  0  0  0  0  0
    2.5860    1.3162    0.0020 H   0  0  0  0  0  0  0  0  0  0  0  0
   -0.3871    0.2327   -2.7534 H   0  0  0  0  0  0  0  0  0  0  0  0
  1  2  1  0
  2  3  1  0
  3  4  2  0
  3  5  1  0
  5  6  2  3
  6  7  1  0
  7  8  2  0
  8  9  1  0
  9 10  2  0
 10 11  1  0
 11 12  1  0
 11 13  1  0
 11 14  1  0
 10 15  1  0
 15 16  2  0
  5 17  1  0
 17 18  1  0
 18 19  2  0
 19 20  1  0
 20 21  2  0
 21 22  1  0
 22 23  2  0
 22 24  1  0
 24 25  1  0
 25 26  1  0
 26 27  1  0
 27 28  1  0
 28 29  2  0
 29 30  1  0
 30 31  2  0
 31 32  1  0
 32 33  2  0
 27 34  1  0
 34 35  1  0
 21 36  1  0
 36 37  2  0
 37  2  1  0
 16  7  1  0
 37 18  1  0
 35 24  1  0
 33 28  1  0
  1 38  1  0
  1 39  1  0
  1 40  1  0
  6 41  1  0
  8 42  1  0
  9 43  1  0
 15 44  1  0
 16 45  1  0
 19 46  1  0
 20 47  1  0
 25 48  1  0
 25 49  1  0
 26 50  1  0
 26 51  1  0
 29 52  1  0
 30 53  1  0
 31 54  1  0
 32 55  1  0
 34 56  1  0
 34 57  1  0
 35 58  1  0
 35 59  1  0
 36 60  1  0
M  END
$$$$
