
     RDKit          3D

 43 46  0  0  0  0  0  0  0  0999 V2000
   -1.6811    1.9623    0.4479 O   0  0  0  0  0  0  0  0  0  0  0  0
   -1.9017    0.7673    0.2940 C   0  0  0  0  0  0  0  0  0  0  0  0
   -0.9662   -0.2320    0.0947 N   0  0  0  0  0  0  0  0  0  0  0  0
    0.4378   -0.1028    0.1048 C   0  0  0  0  0  0  0  0  0  0  0  0
    1.1120    1.0764    0.4135 C   0  0  0  0  0  0  0  0  0  0  0  0
    2.5126    1.1165    0.4062 C   0  0  0  0  0  0  0  0  0  0  0  0
    3.2643   -0.0211    0.0936 C   0  0  0  0  0  0  0  0  0  0  0  0
    4.6655    0.1114    0.1108 N   0  0  0  0  0  0  0  0  0  0  0  0
    5.6265   -0.8506   -0.1541 C   0  0  0  0  0  0  0  0  0  0  0  0
    5.3780   -2.0151   -0.4543 O   0  0  0  0  0  0  0  0  0  0  0  0
    7.0086   -0.3770   -0.0494 C   0  0  0  0  0  0  0  0  0  0  0  0
    8.1536   -1.1258   -0.2615 C   0  0  0  0  0  0  0  0  0  0  0  0
    9.3486   -0.3718   -0.0808 C   0  0  0  0  0  0  0  0  0  0  0  0
    9.0833    0.9334    0.2647 C   0  0  0  0  0  0  0  0  0  0  0  0
    7.4052    1.2402    0.3686 S   0  0  0  0  0  0  0  0  0  0  0  0
    2.5901   -1.2015   -0.2114 C   0  0  0  0  0  0  0  0  0  0  0  0
    1.1891   -1.2414   -0.2046 C   0  0  0  0  0  0  0  0  0  0  0  0
   -3.3192    0.3084    0.2719 C   0  0  0  0  0  0  0  0  0  0  0  0
   -3.7024   -0.9188    0.8227 C   0  0  0  0  0  0  0  0  0  0  0  0
   -5.0426   -1.3121    0.7810 C   0  0  0  0  0  0  0  0  0  0  0  0
   -6.0167   -0.4848    0.1990 C   0  0  0  0  0  0  0  0  0  0  0  0
   -7.3664   -0.8685    0.1491 C   0  0  0  0  0  0  0  0  0  0  0  0
   -8.3247   -0.0326   -0.4264 C   0  0  0  0  0  0  0  0  0  0  0  0
   -7.9470    1.1972   -0.9574 C   0  0  0  0  0  0  0  0  0  0  0  0
   -6.6098    1.5944   -0.9151 C   0  0  0  0  0  0  0  0  0  0  0  0
   -5.6331    0.7648   -0.3417 C   0  0  0  0  0  0  0  0  0  0  0  0
   -4.2844    1.1510   -0.2933 C   0  0  0  0  0  0  0  0  0  0  0  0
   -1.3180   -1.1474   -0.1534 H   0  0  0  0  0  0  0  0  0  0  0  0
    0.5797    1.9873    0.6691 H   0  0  0  0  0  0  0  0  0  0  0  0
    2.9988    2.0575    0.6517 H   0  0  0  0  0  0  0  0  0  0  0  0
    5.0272    1.0275    0.3465 H   0  0  0  0  0  0  0  0  0  0  0  0
    8.1250   -2.1749   -0.5359 H   0  0  0  0  0  0  0  0  0  0  0  0
   10.3500   -0.7680   -0.1987 H   0  0  0  0  0  0  0  0  0  0  0  0
    9.7954    1.7235    0.4615 H   0  0  0  0  0  0  0  0  0  0  0  0
    3.1193   -2.1154   -0.4615 H   0  0  0  0  0  0  0  0  0  0  0  0
    0.7025   -2.1821   -0.4493 H   0  0  0  0  0  0  0  0  0  0  0  0
   -2.9802   -1.5653    1.3138 H   0  0  0  0  0  0  0  0  0  0  0  0
   -5.3258   -2.2680    1.2176 H   0  0  0  0  0  0  0  0  0  0  0  0
   -7.6836   -1.8240    0.5610 H   0  0  0  0  0  0  0  0  0  0  0  0
   -9.3664   -0.3415   -0.4578 H   0  0  0  0  0  0  0  0  0  0  0  0
   -8.6929    1.8499   -1.4039 H   0  0  0  0  0  0  0  0  0  0  0  0
   -6.3347    2.5605   -1.3336 H   0  0  0  0  0  0  0  0  0  0  0  0
   -3.9763    2.1132   -0.6998 H   0  0  0  0  0  0  0  0  0  0  0  0
  1  2  2  0
  2  3  1  0
  3  4  1  0
  4  5  2  0
  5  6  1  0
  6  7  2  0
  7  8  1  0
  8  9  1  0
  9 10  2  0
  9 11  1  0
 11 12  2  0
 12 13  1  0
 13 14  2  0
 14 15  1  0
  7 16  1  0
 16 17  2  0
  2 18  1  0
 18 19  2  0
 19 20  1  0
 20 21  2  0
 21 22  1  0
 22 23  2  0
 23 24  1  0
 24 25  2  0
 25 26  1  0
 26 27  2  0
 17  4  1  0
 27 18  1  0
 15 11  1  0
 26 21  1  0
  3 28  1  0
  5 29  1  0
  6 30  1  0
  8 31  1  0
 12 32  1  0
 13 33  1  0
 14 34  1  0
 16 35  1  0
 17 36  1  0
 19 37  1  0
 20 38  1  0
 22 39  1  0
 23 40  1  0
 24 41  1  0
 25 42  1  0
 27 43  1  0
M  END
$$$$
