
     RDKit          3D

 23 23  0  0  0  0  0  0  0  0999 V2000
   -1.7532    2.7818   -0.2214 O   0  0  0  0  0  0  0  0  0  0  0  0
   -1.0255    1.8276   -0.4270 C   0  0  0  0  0  0  0  0  0  0  0  0
    0.2334    1.9860   -0.8747 O   0  0  0  0  0  0  0  0  0  0  0  0
   -1.4322    0.4102   -0.3466 C   0  0  0  0  0  0  0  0  0  0  0  0
   -2.7132    0.0962   -0.8285 C   0  0  0  0  0  0  0  0  0  0  0  0
   -3.1819   -1.2162   -0.7763 C   0  0  0  0  0  0  0  0  0  0  0  0
   -2.3817   -2.2155   -0.2285 C   0  0  0  0  0  0  0  0  0  0  0  0
   -1.1143   -1.9020    0.2693 C   0  0  0  0  0  0  0  0  0  0  0  0
   -0.6179   -0.5920    0.2117 C   0  0  0  0  0  0  0  0  0  0  0  0
    0.6404   -0.3390    0.7906 N   0  0  0  0  0  0  0  0  0  0  0  0
    1.6458   -0.3381   -0.0270 C   0  0  0  0  0  0  0  0  0  0  0  0
    3.0216   -0.0250    0.4585 C   0  0  0  0  0  0  0  0  0  0  0  0
    3.4887    1.1246   -0.3625 N   0  0  0  0  0  4  0  0  0  0  0  0
    3.3915    2.2574    0.1266 O   0  0  0  0  0  0  0  0  0  0  0  0
    3.9520    0.8616   -1.4808 O   0  0  0  0  0  1  0  0  0  0  0  0
    0.3667    2.9586   -0.8786 H   0  0  0  0  0  0  0  0  0  0  0  0
   -3.3476    0.8780   -1.2424 H   0  0  0  0  0  0  0  0  0  0  0  0
   -4.1742   -1.4552   -1.1516 H   0  0  0  0  0  0  0  0  0  0  0  0
   -2.7490   -3.2375   -0.1725 H   0  0  0  0  0  0  0  0  0  0  0  0
   -0.5108   -2.6843    0.7234 H   0  0  0  0  0  0  0  0  0  0  0  0
    1.5285   -0.5753   -1.1022 H   0  0  0  0  0  0  0  0  0  0  0  0
    3.6949   -0.8650    0.2721 H   0  0  0  0  0  0  0  0  0  0  0  0
    3.0378    0.2629    1.5120 H   0  0  0  0  0  0  0  0  0  0  0  0
  1  2  2  0
  2  3  1  0
  2  4  1  0
  4  5  2  0
  5  6  1  0
  6  7  2  0
  7  8  1  0
  8  9  2  0
  9 10  1  0
 10 11  2  3
 11 12  1  0
 12 13  1  0
 13 14  2  0
 13 15  1  0
  9  4  1  0
  3 16  1  0
  5 17  1  0
  6 18  1  0
  7 19  1  0
  8 20  1  0
 11 21  1  0
 12 22  1  0
 12 23  1  0
M  CHG  2  13   1  15  -1
M  END
$$$$
