
     RDKit          3D

 42 44  0  0  0  0  0  0  0  0999 V2000
   -8.4783   -0.4491    0.4678 C   0  0  0  0  0  0  0  0  0  0  0  0
   -7.6007   -0.1817   -0.7268 C   0  0  0  0  0  0  0  0  0  0  0  0
   -8.0835    0.0012   -1.8428 O   0  0  0  0  0  0  0  0  0  0  0  0
   -6.1197   -0.1405   -0.5422 C   0  0  0  0  0  0  0  0  0  0  0  0
   -5.5138   -0.3500    0.6996 C   0  0  0  0  0  0  0  0  0  0  0  0
   -4.1181   -0.3012    0.8237 C   0  0  0  0  0  0  0  0  0  0  0  0
   -3.3112   -0.0409   -0.2852 C   0  0  0  0  0  0  0  0  0  0  0  0
   -1.9030    0.0190   -0.2401 N   0  0  0  0  0  0  0  0  0  0  0  0
   -1.0953   -0.0744    0.8793 C   0  0  0  0  0  0  0  0  0  0  0  0
   -1.4631   -0.1574    2.0450 O   0  0  0  0  0  0  0  0  0  0  0  0
    0.3692   -0.0216    0.6046 C   0  0  0  0  0  0  0  0  0  0  0  0
    0.9299   -0.5934   -0.5424 C   0  0  0  0  0  0  0  0  0  0  0  0
    2.3117   -0.5208   -0.7625 C   0  0  0  0  0  0  0  0  0  0  0  0
    3.1472    0.1114    0.1612 C   0  0  0  0  0  0  0  0  0  0  0  0
    4.5407    0.2263    0.0122 N   0  0  0  0  0  0  0  0  0  0  0  0
    5.3350   -0.2134   -1.0326 C   0  0  0  0  0  0  0  0  0  0  0  0
    4.9330   -0.7892   -2.0383 O   0  0  0  0  0  0  0  0  0  0  0  0
    6.7417    0.0840   -0.8248 C   0  0  0  0  0  0  0  0  0  0  0  0
    7.8526   -0.1769   -1.6046 C   0  0  0  0  0  0  0  0  0  0  0  0
    8.9714    0.3387   -0.9080 C   0  0  0  0  0  0  0  0  0  0  0  0
    8.4805    0.8839    0.2544 C   0  0  0  0  0  0  0  0  0  0  0  0
    7.1318    0.7374    0.3184 O   0  0  0  0  0  0  0  0  0  0  0  0
    2.5824    0.6631    1.3180 C   0  0  0  0  0  0  0  0  0  0  0  0
    1.2038    0.5941    1.5421 C   0  0  0  0  0  0  0  0  0  0  0  0
   -3.9210    0.1640   -1.5282 C   0  0  0  0  0  0  0  0  0  0  0  0
   -5.3133    0.1161   -1.6566 C   0  0  0  0  0  0  0  0  0  0  0  0
   -9.5267   -0.4355    0.1535 H   0  0  0  0  0  0  0  0  0  0  0  0
   -8.3413    0.3308    1.2212 H   0  0  0  0  0  0  0  0  0  0  0  0
   -8.2622   -1.4368    0.8831 H   0  0  0  0  0  0  0  0  0  0  0  0
   -6.0962   -0.5554    1.5931 H   0  0  0  0  0  0  0  0  0  0  0  0
   -3.6919   -0.4765    1.8073 H   0  0  0  0  0  0  0  0  0  0  0  0
   -1.4459    0.2190   -1.1204 H   0  0  0  0  0  0  0  0  0  0  0  0
    0.3178   -1.1281   -1.2638 H   0  0  0  0  0  0  0  0  0  0  0  0
    2.7044   -0.9826   -1.6636 H   0  0  0  0  0  0  0  0  0  0  0  0
    5.0496    0.6923    0.7567 H   0  0  0  0  0  0  0  0  0  0  0  0
    7.8413   -0.6816   -2.5617 H   0  0  0  0  0  0  0  0  0  0  0  0
   10.0079    0.3157   -1.2150 H   0  0  0  0  0  0  0  0  0  0  0  0
    8.9380    1.3868    1.0956 H   0  0  0  0  0  0  0  0  0  0  0  0
    3.2045    1.1526    2.0636 H   0  0  0  0  0  0  0  0  0  0  0  0
    0.7827    1.0234    2.4495 H   0  0  0  0  0  0  0  0  0  0  0  0
   -3.3275    0.3663   -2.4163 H   0  0  0  0  0  0  0  0  0  0  0  0
   -5.7646    0.2808   -2.6337 H   0  0  0  0  0  0  0  0  0  0  0  0
  1  2  1  0
  2  3  2  0
  2  4  1  0
  4  5  2  0
  5  6  1  0
  6  7  2  0
  7  8  1  0
  8  9  1  0
  9 10  2  0
  9 11  1  0
 11 12  2  0
 12 13  1  0
 13 14  2  0
 14 15  1  0
 15 16  1  0
 16 17  2  0
 16 18  1  0
 18 19  2  0
 19 20  1  0
 20 21  2  0
 21 22  1  0
 14 23  1  0
 23 24  2  0
  7 25  1  0
 25 26  2  0
 26  4  1  0
 24 11  1  0
 22 18  1  0
  1 27  1  0
  1 28  1  0
  1 29  1  0
  5 30  1  0
  6 31  1  0
  8 32  1  0
 12 33  1  0
 13 34  1  0
 15 35  1  0
 19 36  1  0
 20 37  1  0
 21 38  1  0
 23 39  1  0
 24 40  1  0
 25 41  1  0
 26 42  1  0
M  END
$$$$
