
     RDKit          3D

 42 44  0  0  0  0  0  0  0  0999 V2000
   -6.9472    1.6282   -0.6291 C   0  0  0  0  0  0  0  0  0  0  0  0
   -5.9914    0.6543   -1.0336 O   0  0  0  0  0  0  0  0  0  0  0  0
   -4.8018    0.6386   -0.3575 C   0  0  0  0  0  0  0  0  0  0  0  0
   -4.4498    1.4759    0.6951 C   0  0  0  0  0  0  0  0  0  0  0  0
   -3.1955    1.3459    1.2892 C   0  0  0  0  0  0  0  0  0  0  0  0
   -2.9438    2.1941    2.3392 O   0  0  0  0  0  0  0  0  0  0  0  0
   -2.2620    0.4001    0.8284 C   0  0  0  0  0  0  0  0  0  0  0  0
   -0.9312    0.3699    1.4908 C   0  0  0  0  0  0  0  0  0  0  0  0
   -0.8596    0.6553    2.6862 O   0  0  0  0  0  0  0  0  0  0  0  0
    0.2826    0.1115    0.6728 C   0  0  0  0  0  0  0  0  0  0  0  0
    1.4720   -0.0470    1.2738 C   0  0  0  0  0  0  0  0  0  0  0  0
    2.7238   -0.2947    0.5695 C   0  0  0  0  0  0  0  0  0  0  0  0
    3.8865    0.0052    1.2018 C   0  0  0  0  0  0  0  0  0  0  0  0
    5.1723   -0.3664    0.5379 C   0  0  2  0  0  0  0  0  0  0  0  0
    6.3302    0.4008    0.8357 O   0  0  0  0  0  0  0  0  0  0  0  0
    7.1711    0.0992   -0.3064 C   0  0  0  0  0  0  0  0  0  0  0  0
    6.3818   -0.4883   -1.3717 O   0  0  0  0  0  0  0  0  0  0  0  0
    5.0661   -0.1485   -0.9608 C   0  0  1  0  0  0  0  0  0  0  0  0
    3.9293   -0.9556   -1.4890 C   0  0  0  0  0  0  0  0  0  0  0  0
    2.8118   -1.0005   -0.7331 C   0  0  0  0  0  0  0  0  0  0  0  0
   -2.6320   -0.4788   -0.2060 C   0  0  0  0  0  0  0  0  0  0  0  0
   -1.7341   -1.4500   -0.5657 O   0  0  0  0  0  0  0  0  0  0  0  0
   -2.1654   -2.4498   -1.4825 C   0  0  0  0  0  0  0  0  0  0  0  0
   -3.8965   -0.3363   -0.7962 C   0  0  0  0  0  0  0  0  0  0  0  0
   -7.2621    1.4648    0.4068 H   0  0  0  0  0  0  0  0  0  0  0  0
   -6.5612    2.6431   -0.7711 H   0  0  0  0  0  0  0  0  0  0  0  0
   -7.8292    1.5151   -1.2669 H   0  0  0  0  0  0  0  0  0  0  0  0
   -5.1232    2.2324    1.0836 H   0  0  0  0  0  0  0  0  0  0  0  0
   -2.1495    1.8591    2.8150 H   0  0  0  0  0  0  0  0  0  0  0  0
    0.1766    0.0828   -0.4039 H   0  0  0  0  0  0  0  0  0  0  0  0
    1.5324    0.0214    2.3603 H   0  0  0  0  0  0  0  0  0  0  0  0
    3.9249    0.4545    2.1876 H   0  0  0  0  0  0  0  0  0  0  0  0
    5.4115   -1.4088    0.7983 H   0  0  0  0  0  0  0  0  0  0  0  0
    7.9495   -0.6101   -0.0091 H   0  0  0  0  0  0  0  0  0  0  0  0
    7.6319    1.0257   -0.6623 H   0  0  0  0  0  0  0  0  0  0  0  0
    4.9112    0.9074   -1.2290 H   0  0  0  0  0  0  0  0  0  0  0  0
    4.0013   -1.4391   -2.4547 H   0  0  0  0  0  0  0  0  0  0  0  0
    1.9407   -1.5535   -1.0735 H   0  0  0  0  0  0  0  0  0  0  0  0
   -1.3535   -3.1757   -1.5888 H   0  0  0  0  0  0  0  0  0  0  0  0
   -2.3565   -2.0186   -2.4704 H   0  0  0  0  0  0  0  0  0  0  0  0
   -3.0427   -2.9846   -1.1039 H   0  0  0  0  0  0  0  0  0  0  0  0
   -4.2193   -0.9785   -1.6105 H   0  0  0  0  0  0  0  0  0  0  0  0
  1  2  1  0
  2  3  1  0
  3  4  2  0
  4  5  1  0
  5  6  1  0
  5  7  2  0
  7  8  1  0
  8  9  2  0
  8 10  1  0
 10 11  2  0
 11 12  1  0
 12 13  2  0
 13 14  1  0
 14 15  1  0
 15 16  1  0
 16 17  1  0
 17 18  1  0
 18 19  1  0
 19 20  2  0
  7 21  1  0
 21 22  1  0
 22 23  1  0
 21 24  2  0
 24  3  1  0
 20 12  1  0
 18 14  1  0
  1 25  1  0
  1 26  1  0
  1 27  1  0
  4 28  1  0
  6 29  1  0
 10 30  1  0
 11 31  1  0
 13 32  1  0
 14 33  1  6
 16 34  1  0
 16 35  1  0
 18 36  1  1
 19 37  1  0
 20 38  1  0
 23 39  1  0
 23 40  1  0
 23 41  1  0
 24 42  1  0
M  END
$$$$
