
     RDKit          3D

 39 40  0  0  0  0  0  0  0  0999 V2000
    5.4696    1.8308   -1.7487 C   0  0  0  0  0  0  0  0  0  0  0  0
    5.3472    1.6141   -0.2461 C   0  0  0  0  0  0  0  0  0  0  0  0
    5.1194    0.1403    0.1234 C   0  0  0  0  0  0  0  0  0  0  0  0
    5.1681   -0.0558    1.6396 C   0  0  0  0  0  0  0  0  0  0  0  0
    3.8109   -0.4131   -0.4478 C   0  0  0  0  0  0  0  0  0  0  0  0
    3.8381   -1.3374   -1.2545 O   0  0  0  0  0  0  0  0  0  0  0  0
    2.6841    0.2184    0.0247 N   0  0  0  0  0  0  0  0  0  0  0  0
    1.4280   -0.1278   -0.3902 C   0  0  0  0  0  0  0  0  0  0  0  0
    1.0279   -1.0358   -1.2440 N   0  0  0  0  0  0  0  0  0  0  0  0
   -0.3491   -1.0480   -1.3748 N   0  0  0  0  0  0  0  0  0  0  0  0
   -0.9273   -0.1478   -0.6071 C   0  0  0  0  0  0  0  0  0  0  0  0
   -2.4011    0.0743   -0.5245 C   0  0  0  0  0  0  0  0  0  0  0  0
   -3.0777   -1.0403    0.2757 C   0  0  0  0  0  0  0  0  0  0  0  0
   -4.5643   -0.8103    0.3931 C   0  0  0  0  0  0  0  0  0  0  0  0
   -5.0950   -0.1336    1.5001 C   0  0  0  0  0  0  0  0  0  0  0  0
   -6.4682    0.0984    1.5939 C   0  0  0  0  0  0  0  0  0  0  0  0
   -7.3214   -0.3395    0.5819 C   0  0  0  0  0  0  0  0  0  0  0  0
   -6.8030   -1.0101   -0.5245 C   0  0  0  0  0  0  0  0  0  0  0  0
   -5.4303   -1.2437   -0.6205 C   0  0  0  0  0  0  0  0  0  0  0  0
    0.1751    0.7835    0.3302 S   0  0  0  0  0  0  0  0  0  0  0  0
    6.2870    1.2338   -2.1659 H   0  0  0  0  0  0  0  0  0  0  0  0
    4.5450    1.5629   -2.2690 H   0  0  0  0  0  0  0  0  0  0  0  0
    5.6777    2.8847   -1.9594 H   0  0  0  0  0  0  0  0  0  0  0  0
    6.2718    1.9659    0.2284 H   0  0  0  0  0  0  0  0  0  0  0  0
    4.5380    2.2451    0.1394 H   0  0  0  0  0  0  0  0  0  0  0  0
    5.9321   -0.4576   -0.3115 H   0  0  0  0  0  0  0  0  0  0  0  0
    4.4503    0.5895    2.1582 H   0  0  0  0  0  0  0  0  0  0  0  0
    6.1659    0.1781    2.0257 H   0  0  0  0  0  0  0  0  0  0  0  0
    4.9361   -1.0927    1.9077 H   0  0  0  0  0  0  0  0  0  0  0  0
    2.7472    0.9674    0.6955 H   0  0  0  0  0  0  0  0  0  0  0  0
   -2.8076    0.1062   -1.5437 H   0  0  0  0  0  0  0  0  0  0  0  0
   -2.6223    1.0517   -0.0767 H   0  0  0  0  0  0  0  0  0  0  0  0
   -2.8974   -2.0161   -0.1947 H   0  0  0  0  0  0  0  0  0  0  0  0
   -2.6392   -1.1121    1.2800 H   0  0  0  0  0  0  0  0  0  0  0  0
   -4.4433    0.2150    2.2983 H   0  0  0  0  0  0  0  0  0  0  0  0
   -6.8729    0.6213    2.4566 H   0  0  0  0  0  0  0  0  0  0  0  0
   -8.3905   -0.1592    0.6556 H   0  0  0  0  0  0  0  0  0  0  0  0
   -7.4680   -1.3521   -1.3138 H   0  0  0  0  0  0  0  0  0  0  0  0
   -5.0409   -1.7685   -1.4907 H   0  0  0  0  0  0  0  0  0  0  0  0
  1  2  1  0
  2  3  1  0
  3  4  1  0
  3  5  1  0
  5  6  2  0
  5  7  1  0
  7  8  1  0
  8  9  2  0
  9 10  1  0
 10 11  2  0
 11 12  1  0
 12 13  1  0
 13 14  1  0
 14 15  2  0
 15 16  1  0
 16 17  2  0
 17 18  1  0
 18 19  2  0
 11 20  1  0
 20  8  1  0
 19 14  1  0
  1 21  1  0
  1 22  1  0
  1 23  1  0
  2 24  1  0
  2 25  1  0
  3 26  1  0
  4 27  1  0
  4 28  1  0
  4 29  1  0
  7 30  1  0
 12 31  1  0
 12 32  1  0
 13 33  1  0
 13 34  1  0
 15 35  1  0
 16 36  1  0
 17 37  1  0
 18 38  1  0
 19 39  1  0
M  END
$$$$
