
     RDKit          3D

 35 37  0  0  0  0  0  0  0  0999 V2000
   -3.3716    0.0045    1.8913 C   0  0  0  0  0  0  0  0  0  0  0  0
   -4.1077   -0.1290    0.5863 C   0  0  0  0  0  0  0  0  0  0  0  0
   -5.5096   -0.1853    0.5842 C   0  0  0  0  0  0  0  0  0  0  0  0
   -6.2115   -0.3089   -0.6132 C   0  0  0  0  0  0  0  0  0  0  0  0
   -5.5192   -0.3771   -1.8182 C   0  0  0  0  0  0  0  0  0  0  0  0
   -4.1232   -0.3221   -1.8305 C   0  0  0  0  0  0  0  0  0  0  0  0
   -3.4101   -0.1982   -0.6339 C   0  0  0  0  0  0  0  0  0  0  0  0
   -2.0447   -0.1358   -0.5380 O   0  0  0  0  0  0  0  0  0  0  0  0
   -1.2971   -0.2023   -1.7492 C   0  0  0  0  0  0  0  0  0  0  0  0
    0.2060   -0.1193   -1.4652 C   0  0  0  0  0  0  0  0  0  0  0  0
    1.0148   -0.1605   -2.3880 O   0  0  0  0  0  0  0  0  0  0  0  0
    0.4879   -0.0008   -0.1243 N   0  0  0  0  0  0  0  0  0  0  0  0
    1.7186    0.0959    0.4682 C   0  0  0  0  0  0  0  0  0  0  0  0
    1.8618    0.2056    1.7695 N   0  0  0  0  0  0  0  0  0  0  0  0
    3.1912    0.2885    2.1389 N   0  0  0  0  0  0  0  0  0  0  0  0
    3.9997    0.2379    1.0985 C   0  0  0  0  0  0  0  0  0  0  0  0
    5.4302    0.3051    1.2200 C   0  0  0  0  0  0  0  0  0  0  0  0
    6.4122    0.2661    0.2379 C   0  0  0  0  0  0  0  0  0  0  0  0
    7.6686    0.3683    0.8844 C   0  0  0  0  0  0  0  0  0  0  0  0
    7.3951    0.4645    2.2250 C   0  0  0  0  0  0  0  0  0  0  0  0
    6.0576    0.4278    2.4388 O   0  0  0  0  0  0  0  0  0  0  0  0
    3.1805    0.0851   -0.4024 S   0  0  0  0  0  0  0  0  0  0  0  0
   -2.7805    0.9260    1.9002 H   0  0  0  0  0  0  0  0  0  0  0  0
   -4.0616    0.0444    2.7408 H   0  0  0  0  0  0  0  0  0  0  0  0
   -2.7091   -0.8540    2.0419 H   0  0  0  0  0  0  0  0  0  0  0  0
   -6.0641   -0.1331    1.5188 H   0  0  0  0  0  0  0  0  0  0  0  0
   -7.2977   -0.3518   -0.6050 H   0  0  0  0  0  0  0  0  0  0  0  0
   -6.0668   -0.4735   -2.7525 H   0  0  0  0  0  0  0  0  0  0  0  0
   -3.6282   -0.3790   -2.7943 H   0  0  0  0  0  0  0  0  0  0  0  0
   -1.4764   -1.1586   -2.2536 H   0  0  0  0  0  0  0  0  0  0  0  0
   -1.5488    0.6450   -2.3973 H   0  0  0  0  0  0  0  0  0  0  0  0
   -0.2969    0.0190    0.5188 H   0  0  0  0  0  0  0  0  0  0  0  0
    6.2446    0.1742   -0.8269 H   0  0  0  0  0  0  0  0  0  0  0  0
    8.6491    0.3713    0.4292 H   0  0  0  0  0  0  0  0  0  0  0  0
    8.0068    0.5600    3.1116 H   0  0  0  0  0  0  0  0  0  0  0  0
  1  2  1  0
  2  3  2  0
  3  4  1  0
  4  5  2  0
  5  6  1  0
  6  7  2  0
  7  8  1  0
  8  9  1  0
  9 10  1  0
 10 11  2  0
 10 12  1  0
 12 13  1  0
 13 14  2  0
 14 15  1  0
 15 16  2  0
 16 17  1  0
 17 18  2  0
 18 19  1  0
 19 20  2  0
 20 21  1  0
 16 22  1  0
  7  2  1  0
 22 13  1  0
 21 17  1  0
  1 23  1  0
  1 24  1  0
  1 25  1  0
  3 26  1  0
  4 27  1  0
  5 28  1  0
  6 29  1  0
  9 30  1  0
  9 31  1  0
 12 32  1  0
 18 33  1  0
 19 34  1  0
 20 35  1  0
M  END
$$$$
