
     RDKit          3D

 57 59  0  0  0  0  0  0  0  0999 V2000
   -8.0220   -2.5549   -2.4865 C   0  0  0  0  0  0  0  0  0  0  0  0
   -7.5317   -1.4561   -1.7315 O   0  0  0  0  0  0  0  0  0  0  0  0
   -6.2245   -1.5000   -1.3136 C   0  0  0  0  0  0  0  0  0  0  0  0
   -5.3253   -2.5234   -1.6401 C   0  0  0  0  0  0  0  0  0  0  0  0
   -4.0097   -2.4830   -1.1746 C   0  0  0  0  0  0  0  0  0  0  0  0
   -3.5950   -1.4091   -0.3879 C   0  0  0  0  0  0  0  0  0  0  0  0
   -1.9239   -1.3313    0.2067 S   0  0  0  0  0  6  0  0  0  0  0  0
   -1.9824   -0.9244    1.5927 O   0  0  0  0  0  0  0  0  0  0  0  0
   -1.2388   -2.5388   -0.2000 O   0  0  0  0  0  0  0  0  0  0  0  0
   -1.2890   -0.0484   -0.6893 N   0  0  0  0  0  0  0  0  0  0  0  0
   -1.2224   -0.2110   -2.1484 C   0  0  0  0  0  0  0  0  0  0  0  0
   -0.2294    0.8613   -2.5256 C   0  0  0  0  0  0  0  0  0  0  0  0
    0.7372    0.8469   -1.4731 O   0  0  0  0  0  0  0  0  0  0  0  0
    0.0795    0.3500   -0.2804 C   0  0  0  0  0  0  0  0  0  0  0  0
    0.0369    1.4850    0.7661 C   0  0  0  0  0  0  0  0  0  0  0  0
    1.3452    2.0346    1.0786 N   0  0  0  0  0  0  0  0  0  0  0  0
    2.2776    1.3128    1.7859 C   0  0  0  0  0  0  0  0  0  0  0  0
    2.0858    0.2362    2.3327 O   0  0  0  0  0  0  0  0  0  0  0  0
    3.6768    1.9681    1.8262 C   0  0  0  0  0  0  0  0  0  0  0  0
    3.8885    3.0022    1.2087 O   0  0  0  0  0  0  0  0  0  0  0  0
    4.5839    1.2683    2.5849 N   0  0  0  0  0  0  0  0  0  0  0  0
    5.9823    1.6049    2.6204 C   0  0  0  0  0  0  0  0  0  0  0  0
    6.7573    0.7888    1.6174 C   0  0  0  0  0  0  0  0  0  0  0  0
    6.8674    1.2235    0.2862 C   0  0  0  0  0  0  0  0  0  0  0  0
    7.5633    0.4594   -0.6514 C   0  0  0  0  0  0  0  0  0  0  0  0
    8.1430   -0.7415   -0.2614 C   0  0  0  0  0  0  0  0  0  0  0  0
    8.8104   -1.4753   -1.1617 F   0  0  0  0  0  0  0  0  0  0  0  0
    8.0370   -1.1955    1.0481 C   0  0  0  0  0  0  0  0  0  0  0  0
    7.3410   -0.4334    1.9880 C   0  0  0  0  0  0  0  0  0  0  0  0
   -4.4808   -0.3839   -0.0415 C   0  0  0  0  0  0  0  0  0  0  0  0
   -5.7992   -0.4249   -0.5021 C   0  0  0  0  0  0  0  0  0  0  0  0
   -6.7415    0.5359   -0.2297 O   0  0  0  0  0  0  0  0  0  0  0  0
   -6.4170    1.5174    0.7454 C   0  0  0  0  0  0  0  0  0  0  0  0
   -7.4989   -2.6386   -3.4449 H   0  0  0  0  0  0  0  0  0  0  0  0
   -9.0789   -2.3687   -2.7004 H   0  0  0  0  0  0  0  0  0  0  0  0
   -7.9578   -3.4880   -1.9166 H   0  0  0  0  0  0  0  0  0  0  0  0
   -5.6201   -3.3683   -2.2542 H   0  0  0  0  0  0  0  0  0  0  0  0
   -3.3239   -3.2885   -1.4292 H   0  0  0  0  0  0  0  0  0  0  0  0
   -0.8279   -1.1973   -2.4148 H   0  0  0  0  0  0  0  0  0  0  0  0
   -2.1889   -0.0533   -2.6320 H   0  0  0  0  0  0  0  0  0  0  0  0
    0.2563    0.6759   -3.4873 H   0  0  0  0  0  0  0  0  0  0  0  0
   -0.6954    1.8528   -2.5466 H   0  0  0  0  0  0  0  0  0  0  0  0
    0.6722   -0.5012    0.0709 H   0  0  0  0  0  0  0  0  0  0  0  0
   -0.5619    2.3228    0.3913 H   0  0  0  0  0  0  0  0  0  0  0  0
   -0.4155    1.1347    1.6989 H   0  0  0  0  0  0  0  0  0  0  0  0
    1.7096    2.8050    0.5233 H   0  0  0  0  0  0  0  0  0  0  0  0
    4.2738    0.3653    2.9334 H   0  0  0  0  0  0  0  0  0  0  0  0
    6.1216    2.6750    2.4285 H   0  0  0  0  0  0  0  0  0  0  0  0
    6.3445    1.4063    3.6350 H   0  0  0  0  0  0  0  0  0  0  0  0
    6.4044    2.1594   -0.0241 H   0  0  0  0  0  0  0  0  0  0  0  0
    7.6523    0.7913   -1.6807 H   0  0  0  0  0  0  0  0  0  0  0  0
    8.4933   -2.1400    1.3269 H   0  0  0  0  0  0  0  0  0  0  0  0
    7.2555   -0.7987    3.0093 H   0  0  0  0  0  0  0  0  0  0  0  0
   -4.1181    0.4296    0.5787 H   0  0  0  0  0  0  0  0  0  0  0  0
   -6.1466    1.0559    1.7012 H   0  0  0  0  0  0  0  0  0  0  0  0
   -5.6220    2.1781    0.3852 H   0  0  0  0  0  0  0  0  0  0  0  0
   -7.3082    2.1303    0.9126 H   0  0  0  0  0  0  0  0  0  0  0  0
  1  2  1  0
  2  3  1  0
  3  4  2  0
  4  5  1  0
  5  6  2  0
  6  7  1  0
  7  8  2  0
  7  9  2  0
  7 10  1  0
 10 11  1  0
 11 12  1  0
 12 13  1  0
 13 14  1  0
 14 15  1  0
 15 16  1  0
 16 17  1  0
 17 18  2  0
 17 19  1  0
 19 20  2  0
 19 21  1  0
 21 22  1  0
 22 23  1  0
 23 24  2  0
 24 25  1  0
 25 26  2  0
 26 27  1  0
 26 28  1  0
 28 29  2  0
  6 30  1  0
 30 31  2  0
 31 32  1  0
 32 33  1  0
 31  3  1  0
 14 10  1  0
 29 23  1  0
  1 34  1  0
  1 35  1  0
  1 36  1  0
  4 37  1  0
  5 38  1  0
 11 39  1  0
 11 40  1  0
 12 41  1  0
 12 42  1  0
 14 43  1  0
 15 44  1  0
 15 45  1  0
 16 46  1  0
 21 47  1  0
 22 48  1  0
 22 49  1  0
 24 50  1  0
 25 51  1  0
 28 52  1  0
 29 53  1  0
 30 54  1  0
 33 55  1  0
 33 56  1  0
 33 57  1  0
M  END
$$$$
