
     RDKit          3D

 31 32  0  0  0  0  0  0  0  0999 V2000
    4.9200   -3.4354    0.5586 C   0  0  0  0  0  0  0  0  0  0  0  0
    4.0976   -2.6023    1.9433 S   0  0  0  0  0  0  0  0  0  0  0  0
    2.9560   -1.5835    1.0312 C   0  0  0  0  0  0  0  0  0  0  0  0
    3.4111   -0.5599    0.1996 C   0  0  0  0  0  0  0  0  0  0  0  0
    2.5004    0.2479   -0.4768 C   0  0  0  0  0  0  0  0  0  0  0  0
    1.1285    0.0351   -0.3261 C   0  0  0  0  0  0  0  0  0  0  0  0
    0.6583   -1.0063    0.4742 C   0  0  0  0  0  0  0  0  0  0  0  0
   -0.7284   -1.2337    0.7364 N   0  0  0  0  0  0  0  0  0  0  0  0
   -1.9208   -0.9096   -0.4054 S   0  0  0  0  0  6  0  0  0  0  0  0
   -3.1158   -1.5906    0.0523 O   0  0  0  0  0  0  0  0  0  0  0  0
   -1.4081   -1.1178   -1.7433 O   0  0  0  0  0  0  0  0  0  0  0  0
   -2.3670    0.7768   -0.3572 C   0  0  0  0  0  0  0  0  0  0  0  0
   -3.3991    1.3593   -1.0655 C   0  0  0  0  0  0  0  0  0  0  0  0
   -3.3840    2.6728   -0.6939 N   0  0  0  0  0  0  0  0  0  0  0  0
   -4.3100    3.6882   -1.1250 C   0  0  0  0  0  0  0  0  0  0  0  0
   -2.3663    2.8489    0.1993 C   0  0  0  0  0  0  0  0  0  0  0  0
   -1.7243    1.7253    0.4249 N   0  0  0  0  0  0  0  0  0  0  0  0
    1.5814   -1.7888    1.1796 C   0  0  0  0  0  0  0  0  0  0  0  0
    4.1946   -3.9850   -0.0498 H   0  0  0  0  0  0  0  0  0  0  0  0
    5.4460   -2.7149   -0.0706 H   0  0  0  0  0  0  0  0  0  0  0  0
    5.6530   -4.1442    0.9496 H   0  0  0  0  0  0  0  0  0  0  0  0
    4.4732   -0.3674    0.0879 H   0  0  0  0  0  0  0  0  0  0  0  0
    2.8529    1.0555   -1.1135 H   0  0  0  0  0  0  0  0  0  0  0  0
    0.4499    0.7058   -0.8458 H   0  0  0  0  0  0  0  0  0  0  0  0
   -0.9666   -2.0663    1.2709 H   0  0  0  0  0  0  0  0  0  0  0  0
   -4.1065    0.9489   -1.7722 H   0  0  0  0  0  0  0  0  0  0  0  0
   -4.3540    4.4830   -0.3759 H   0  0  0  0  0  0  0  0  0  0  0  0
   -5.2987    3.2379   -1.2387 H   0  0  0  0  0  0  0  0  0  0  0  0
   -3.9624    4.0874   -2.0794 H   0  0  0  0  0  0  0  0  0  0  0  0
   -2.1423    3.8028    0.6588 H   0  0  0  0  0  0  0  0  0  0  0  0
    1.2313   -2.5699    1.8476 H   0  0  0  0  0  0  0  0  0  0  0  0
  1  2  1  0
  2  3  1  0
  3  4  2  0
  4  5  1  0
  5  6  2  0
  6  7  1  0
  7  8  1  0
  8  9  1  0
  9 10  2  0
  9 11  2  0
  9 12  1  0
 12 13  2  0
 13 14  1  0
 14 15  1  0
 14 16  1  0
 16 17  2  0
  7 18  2  0
 18  3  1  0
 17 12  1  0
  1 19  1  0
  1 20  1  0
  1 21  1  0
  4 22  1  0
  5 23  1  0
  6 24  1  0
  8 25  1  0
 13 26  1  0
 15 27  1  0
 15 28  1  0
 15 29  1  0
 16 30  1  0
 18 31  1  0
M  END
$$$$
