
     RDKit          3D

 55 59  0  0  0  0  0  0  0  0999 V2000
    7.6662   -0.8960    0.2645 C   0  0  0  0  0  0  0  0  0  0  0  0
    7.5436    0.2268    1.1278 O   0  0  0  0  0  0  0  0  0  0  0  0
    6.3140    0.8216    1.2037 C   0  0  0  0  0  0  0  0  0  0  0  0
    6.2821    1.9995    1.9545 C   0  0  0  0  0  0  0  0  0  0  0  0
    5.0958    2.7169    2.1011 C   0  0  0  0  0  0  0  0  0  0  0  0
    3.9252    2.2479    1.5077 C   0  0  0  0  0  0  0  0  0  0  0  0
    3.9314    1.0541    0.7756 C   0  0  0  0  0  0  0  0  0  0  0  0
    2.6898    0.5804    0.1692 C   0  0  0  0  0  0  0  0  0  0  0  0
    1.8732    1.3124   -0.5696 N   0  0  0  0  0  0  0  0  0  0  0  0
    0.8309    0.5217   -0.9865 N   0  0  0  0  0  0  0  0  0  0  0  0
    1.0175   -0.6705   -0.4783 C   0  0  0  0  0  0  0  0  0  0  0  0
   -0.0171   -2.0338   -0.7051 S   0  0  0  0  0  0  0  0  0  0  0  0
   -1.6583   -1.1803   -0.5954 C   0  0  0  0  0  0  0  0  0  0  0  0
   -1.8062   -0.5112    0.7813 C   0  0  0  0  0  0  0  0  0  0  0  0
   -1.3126   -1.0264    1.7930 O   0  0  0  0  0  0  0  0  0  0  0  0
   -2.5465    0.7555    0.9138 C   0  0  0  0  0  0  0  0  0  0  0  0
   -2.4678    1.5219    2.0681 C   0  0  0  0  0  0  0  0  0  0  0  0
   -3.2243    2.6441    1.9106 N   0  0  0  0  0  0  0  0  0  0  0  0
   -3.8331    2.6322    0.6802 C   0  0  0  0  0  0  0  0  0  0  0  0
   -4.7006    3.5758    0.1138 C   0  0  0  0  0  0  0  0  0  0  0  0
   -5.1986    3.3214   -1.1636 C   0  0  0  0  0  0  0  0  0  0  0  0
   -4.8445    2.1626   -1.8430 C   0  0  0  0  0  0  0  0  0  0  0  0
   -3.9742    1.2304   -1.2616 C   0  0  0  0  0  0  0  0  0  0  0  0
   -3.4385    1.4578    0.0267 C   0  0  0  0  0  0  0  0  0  0  0  0
   -2.7585   -2.1855   -0.9153 C   0  0  0  0  0  0  0  0  0  0  0  0
   -3.4105   -2.9314    0.0798 C   0  0  0  0  0  0  0  0  0  0  0  0
   -4.4060   -3.8519   -0.2563 C   0  0  0  0  0  0  0  0  0  0  0  0
   -4.7552   -4.0512   -1.5894 C   0  0  0  0  0  0  0  0  0  0  0  0
   -4.1047   -3.3365   -2.5912 C   0  0  0  0  0  0  0  0  0  0  0  0
   -3.1103   -2.4153   -2.2584 C   0  0  0  0  0  0  0  0  0  0  0  0
    2.1462   -0.6816    0.2903 N   0  0  0  0  0  0  0  0  0  0  0  0
    2.6129   -1.7566    1.1279 C   0  0  0  0  0  0  0  0  0  0  0  0
    5.1381    0.3525    0.6135 C   0  0  0  0  0  0  0  0  0  0  0  0
    8.7135   -1.2129    0.2754 H   0  0  0  0  0  0  0  0  0  0  0  0
    7.4077   -0.6334   -0.7667 H   0  0  0  0  0  0  0  0  0  0  0  0
    7.0609   -1.7351    0.6228 H   0  0  0  0  0  0  0  0  0  0  0  0
    7.1949    2.3685    2.4165 H   0  0  0  0  0  0  0  0  0  0  0  0
    5.0854    3.6418    2.6716 H   0  0  0  0  0  0  0  0  0  0  0  0
    3.0030    2.8164    1.6169 H   0  0  0  0  0  0  0  0  0  0  0  0
   -1.6463   -0.3981   -1.3611 H   0  0  0  0  0  0  0  0  0  0  0  0
   -1.9139    1.3529    2.9831 H   0  0  0  0  0  0  0  0  0  0  0  0
   -3.3321    3.3781    2.5973 H   0  0  0  0  0  0  0  0  0  0  0  0
   -4.9827    4.4775    0.6479 H   0  0  0  0  0  0  0  0  0  0  0  0
   -5.8738    4.0351   -1.6293 H   0  0  0  0  0  0  0  0  0  0  0  0
   -5.2468    1.9733   -2.8358 H   0  0  0  0  0  0  0  0  0  0  0  0
   -3.7379    0.3388   -1.8276 H   0  0  0  0  0  0  0  0  0  0  0  0
   -3.1510   -2.8161    1.1310 H   0  0  0  0  0  0  0  0  0  0  0  0
   -4.9051   -4.4184    0.5260 H   0  0  0  0  0  0  0  0  0  0  0  0
   -5.5282   -4.7703   -1.8473 H   0  0  0  0  0  0  0  0  0  0  0  0
   -4.3670   -3.5006   -3.6331 H   0  0  0  0  0  0  0  0  0  0  0  0
   -2.6052   -1.8771   -3.0590 H   0  0  0  0  0  0  0  0  0  0  0  0
    3.1696   -2.4605    0.5049 H   0  0  0  0  0  0  0  0  0  0  0  0
    3.2542   -1.3659    1.9204 H   0  0  0  0  0  0  0  0  0  0  0  0
    1.7609   -2.2521    1.5994 H   0  0  0  0  0  0  0  0  0  0  0  0
    5.1409   -0.5494    0.0100 H   0  0  0  0  0  0  0  0  0  0  0  0
  1  2  1  0
  2  3  1  0
  3  4  2  0
  4  5  1  0
  5  6  2  0
  6  7  1  0
  7  8  1  0
  8  9  2  0
  9 10  1  0
 10 11  2  0
 11 12  1  0
 12 13  1  0
 13 14  1  0
 14 15  2  0
 14 16  1  0
 16 17  2  0
 17 18  1  0
 18 19  1  0
 19 20  2  0
 20 21  1  0
 21 22  2  0
 22 23  1  0
 23 24  2  0
 13 25  1  0
 25 26  2  0
 26 27  1  0
 27 28  2  0
 28 29  1  0
 29 30  2  0
 11 31  1  0
 31 32  1  0
  7 33  2  0
 33  3  1  0
 31  8  1  0
 24 16  1  0
 30 25  1  0
 24 19  1  0
  1 34  1  0
  1 35  1  0
  1 36  1  0
  4 37  1  0
  5 38  1  0
  6 39  1  0
 13 40  1  0
 17 41  1  0
 18 42  1  0
 20 43  1  0
 21 44  1  0
 22 45  1  0
 23 46  1  0
 26 47  1  0
 27 48  1  0
 28 49  1  0
 29 50  1  0
 30 51  1  0
 32 52  1  0
 32 53  1  0
 32 54  1  0
 33 55  1  0
M  END
$$$$
