
     RDKit          3D

 47 49  0  0  0  0  0  0  0  0999 V2000
   -3.6807   -2.4147    2.6543 C   0  0  0  0  0  0  0  0  0  0  0  0
   -3.7275   -0.9272    2.3482 C   0  0  0  0  0  0  0  0  0  0  0  0
   -4.1315   -0.6681    0.9595 N   0  0  0  0  0  4  0  0  0  0  0  0
   -3.2575   -0.4805   -0.0234 C   0  0  0  0  0  0  0  0  0  0  0  0
   -1.8428   -0.5746    0.0798 C   0  0  0  0  0  0  0  0  0  0  0  0
   -1.0169    0.3055   -0.5092 C   0  0  0  0  0  0  0  0  0  0  0  0
    0.4238    0.2119   -0.4023 C   0  0  0  0  0  0  0  0  0  0  0  0
    1.2518    1.0825   -1.0006 C   0  0  0  0  0  0  0  0  0  0  0  0
    2.7147    0.9884   -0.9183 C   0  0  0  0  0  0  0  0  0  0  0  0
    3.3820    0.7382    0.2796 C   0  0  0  0  0  0  0  0  0  0  0  0
    4.7844    0.6772    0.3180 C   0  0  0  0  0  0  0  0  0  0  0  0
    5.5797    0.8789   -0.8234 C   0  0  0  0  0  0  0  0  0  0  0  0
    6.9750    0.7919   -0.7805 N   0  0  0  0  0  0  0  0  0  0  0  0
    7.7565    1.2221   -1.9395 C   0  0  0  0  0  0  0  0  0  0  0  0
    7.6538    0.9013    0.5104 C   0  0  0  0  0  0  0  0  0  0  0  0
    4.8792    1.1314   -2.0153 C   0  0  0  0  0  0  0  0  0  0  0  0
    3.4777    1.1975   -2.0652 C   0  0  0  0  0  0  0  0  0  0  0  0
   -4.0730   -0.1571   -1.5028 S   0  0  0  0  0  0  0  0  0  0  0  0
   -5.6198   -0.2816   -0.7670 C   0  0  0  0  0  0  0  0  0  0  0  0
   -6.8851   -0.1353   -1.3565 C   0  0  0  0  0  0  0  0  0  0  0  0
   -8.0113   -0.2882   -0.5447 C   0  0  0  0  0  0  0  0  0  0  0  0
   -7.8817   -0.5784    0.8093 C   0  0  0  0  0  0  0  0  0  0  0  0
   -6.6164   -0.7227    1.3919 C   0  0  0  0  0  0  0  0  0  0  0  0
   -5.4686   -0.5688    0.5865 C   0  0  0  0  0  0  0  0  0  0  0  0
   -4.6611   -2.8786    2.5095 H   0  0  0  0  0  0  0  0  0  0  0  0
   -3.3729   -2.5809    3.6910 H   0  0  0  0  0  0  0  0  0  0  0  0
   -2.9712   -2.9288    1.9986 H   0  0  0  0  0  0  0  0  0  0  0  0
   -4.4213   -0.4215    3.0289 H   0  0  0  0  0  0  0  0  0  0  0  0
   -2.7495   -0.4736    2.5450 H   0  0  0  0  0  0  0  0  0  0  0  0
   -1.4231   -1.3859    0.6697 H   0  0  0  0  0  0  0  0  0  0  0  0
   -1.3987    1.1391   -1.0988 H   0  0  0  0  0  0  0  0  0  0  0  0
    0.8397   -0.6143    0.1725 H   0  0  0  0  0  0  0  0  0  0  0  0
    0.8725    1.8982   -1.6121 H   0  0  0  0  0  0  0  0  0  0  0  0
    2.8322    0.5932    1.2053 H   0  0  0  0  0  0  0  0  0  0  0  0
    5.2386    0.4616    1.2804 H   0  0  0  0  0  0  0  0  0  0  0  0
    7.5034    0.6348   -2.8288 H   0  0  0  0  0  0  0  0  0  0  0  0
    7.6022    2.2873   -2.1441 H   0  0  0  0  0  0  0  0  0  0  0  0
    8.8289    1.0679   -1.7747 H   0  0  0  0  0  0  0  0  0  0  0  0
    7.3857    0.0694    1.1703 H   0  0  0  0  0  0  0  0  0  0  0  0
    7.4161    1.8519    1.0006 H   0  0  0  0  0  0  0  0  0  0  0  0
    8.7425    0.8536    0.3947 H   0  0  0  0  0  0  0  0  0  0  0  0
    5.4077    1.2871   -2.9512 H   0  0  0  0  0  0  0  0  0  0  0  0
    3.0000    1.4014   -3.0208 H   0  0  0  0  0  0  0  0  0  0  0  0
   -6.9939    0.0893   -2.4154 H   0  0  0  0  0  0  0  0  0  0  0  0
   -9.0048   -0.1797   -0.9808 H   0  0  0  0  0  0  0  0  0  0  0  0
   -8.7774   -0.6950    1.4196 H   0  0  0  0  0  0  0  0  0  0  0  0
   -6.5615   -0.9541    2.4518 H   0  0  0  0  0  0  0  0  0  0  0  0
  1  2  1  0
  2  3  1  0
  3  4  2  0
  4  5  1  0
  5  6  2  3
  6  7  1  0
  7  8  2  3
  8  9  1  0
  9 10  2  0
 10 11  1  0
 11 12  2  0
 12 13  1  0
 13 14  1  0
 13 15  1  0
 12 16  1  0
 16 17  2  0
  4 18  1  0
 18 19  1  0
 19 20  2  0
 20 21  1  0
 21 22  2  0
 22 23  1  0
 23 24  2  0
 24  3  1  0
 17  9  1  0
 24 19  1  0
  1 25  1  0
  1 26  1  0
  1 27  1  0
  2 28  1  0
  2 29  1  0
  5 30  1  0
  6 31  1  0
  7 32  1  0
  8 33  1  0
 10 34  1  0
 11 35  1  0
 14 36  1  0
 14 37  1  0
 14 38  1  0
 15 39  1  0
 15 40  1  0
 15 41  1  0
 16 42  1  0
 17 43  1  0
 20 44  1  0
 21 45  1  0
 22 46  1  0
 23 47  1  0
M  CHG  1   3   1
M  END
$$$$
