
     RDKit          3D

 52 51  0  0  0  0  0  0  0  0999 V2000
   -6.3614    1.8017    0.2698 C   0  0  0  0  0  0  0  0  0  0  0  0
   -5.2801    1.2769    0.2411 C   0  0  0  0  0  0  0  0  0  0  0  0
   -3.9727    0.6105    0.2013 C   0  0  0  0  0  0  0  0  0  0  0  0
   -2.8080    1.6035    0.0798 N   0  0  0  0  0  4  0  0  0  0  0  0
   -2.8831    2.6332    1.2179 C   0  0  0  0  0  0  0  0  0  0  0  0
   -2.8839    2.3561   -1.2481 C   0  0  0  0  0  0  0  0  0  0  0  0
   -1.4463    0.8872    0.2254 C   0  0  0  0  0  0  0  0  0  0  0  0
   -1.1842   -0.2510   -0.7682 C   0  0  0  0  0  0  0  0  0  0  0  0
   -1.5715   -1.6671   -0.3140 C   0  0  0  0  0  0  0  0  0  0  0  0
   -0.9967   -2.1371    1.0266 C   0  0  0  0  0  0  0  0  0  0  0  0
    0.5251   -2.0454    1.1698 C   0  0  0  0  0  0  0  0  0  0  0  0
    1.2804   -2.8997    0.1487 C   0  0  0  0  0  0  0  0  0  0  0  0
    2.7838   -2.9963    0.4341 C   0  0  0  0  0  0  0  0  0  0  0  0
    3.5436   -1.6652    0.4533 C   0  0  0  0  0  0  0  0  0  0  0  0
    3.4728   -0.9077   -0.8750 C   0  0  0  0  0  0  0  0  0  0  0  0
    4.3809    0.3252   -0.9203 C   0  0  0  0  0  0  0  0  0  0  0  0
    4.1005    1.3935    0.1394 C   0  0  0  0  0  0  0  0  0  0  0  0
    2.6882    1.9547    0.0797 C   0  0  0  0  0  0  0  0  0  0  0  0
   -7.3288    2.2548    0.2956 H   0  0  0  0  0  0  0  0  0  0  0  0
   -3.8042    0.0260    1.1128 H   0  0  0  0  0  0  0  0  0  0  0  0
   -3.9301   -0.0480   -0.6707 H   0  0  0  0  0  0  0  0  0  0  0  0
   -2.9052    2.0951    2.1709 H   0  0  0  0  0  0  0  0  0  0  0  0
   -1.9960    3.2734    1.1598 H   0  0  0  0  0  0  0  0  0  0  0  0
   -3.7800    3.2471    1.0977 H   0  0  0  0  0  0  0  0  0  0  0  0
   -2.9496    1.6351   -2.0666 H   0  0  0  0  0  0  0  0  0  0  0  0
   -3.7718    2.9955   -1.2454 H   0  0  0  0  0  0  0  0  0  0  0  0
   -1.9850    2.9721   -1.3484 H   0  0  0  0  0  0  0  0  0  0  0  0
   -1.3701    0.5519    1.2641 H   0  0  0  0  0  0  0  0  0  0  0  0
   -0.6871    1.6658    0.0769 H   0  0  0  0  0  0  0  0  0  0  0  0
   -1.6546   -0.0549   -1.7370 H   0  0  0  0  0  0  0  0  0  0  0  0
   -0.1064   -0.2599   -0.9745 H   0  0  0  0  0  0  0  0  0  0  0  0
   -1.2575   -2.3686   -1.0974 H   0  0  0  0  0  0  0  0  0  0  0  0
   -2.6604   -1.7631   -0.2650 H   0  0  0  0  0  0  0  0  0  0  0  0
   -1.4612   -1.5702    1.8417 H   0  0  0  0  0  0  0  0  0  0  0  0
   -1.3028   -3.1793    1.1826 H   0  0  0  0  0  0  0  0  0  0  0  0
    0.7904   -2.3796    2.1811 H   0  0  0  0  0  0  0  0  0  0  0  0
    0.8386   -0.9989    1.0973 H   0  0  0  0  0  0  0  0  0  0  0  0
    0.8684   -3.9168    0.1583 H   0  0  0  0  0  0  0  0  0  0  0  0
    1.1218   -2.5128   -0.8633 H   0  0  0  0  0  0  0  0  0  0  0  0
    3.2383   -3.6556   -0.3165 H   0  0  0  0  0  0  0  0  0  0  0  0
    2.9281   -3.4898    1.4035 H   0  0  0  0  0  0  0  0  0  0  0  0
    3.1646   -1.0402    1.2691 H   0  0  0  0  0  0  0  0  0  0  0  0
    4.5942   -1.8780    0.6887 H   0  0  0  0  0  0  0  0  0  0  0  0
    2.4413   -0.6066   -1.0863 H   0  0  0  0  0  0  0  0  0  0  0  0
    3.7714   -1.5823   -1.6877 H   0  0  0  0  0  0  0  0  0  0  0  0
    4.2922    0.7828   -1.9134 H   0  0  0  0  0  0  0  0  0  0  0  0
    5.4254    0.0033   -0.8222 H   0  0  0  0  0  0  0  0  0  0  0  0
    4.2954    0.9971    1.1420 H   0  0  0  0  0  0  0  0  0  0  0  0
    4.8087    2.2179   -0.0080 H   0  0  0  0  0  0  0  0  0  0  0  0
    2.5866    2.7904    0.7806 H   0  0  0  0  0  0  0  0  0  0  0  0
    2.4529    2.3230   -0.9244 H   0  0  0  0  0  0  0  0  0  0  0  0
    1.9449    1.2003    0.3553 H   0  0  0  0  0  0  0  0  0  0  0  0
  1  2  3  0
  2  3  1  0
  3  4  1  0
  4  5  1  0
  4  6  1  0
  4  7  1  0
  7  8  1  0
  8  9  1  0
  9 10  1  0
 10 11  1  0
 11 12  1  0
 12 13  1  0
 13 14  1  0
 14 15  1  0
 15 16  1  0
 16 17  1  0
 17 18  1  0
  1 19  1  0
  3 20  1  0
  3 21  1  0
  5 22  1  0
  5 23  1  0
  5 24  1  0
  6 25  1  0
  6 26  1  0
  6 27  1  0
  7 28  1  0
  7 29  1  0
  8 30  1  0
  8 31  1  0
  9 32  1  0
  9 33  1  0
 10 34  1  0
 10 35  1  0
 11 36  1  0
 11 37  1  0
 12 38  1  0
 12 39  1  0
 13 40  1  0
 13 41  1  0
 14 42  1  0
 14 43  1  0
 15 44  1  0
 15 45  1  0
 16 46  1  0
 16 47  1  0
 17 48  1  0
 17 49  1  0
 18 50  1  0
 18 51  1  0
 18 52  1  0
M  CHG  1   4   1
M  END
$$$$
