
     RDKit          3D

 50 53  0  0  0  0  0  0  0  0999 V2000
    7.0551    3.4033    0.3046 C   0  0  0  0  0  0  0  0  0  0  0  0
    7.0579    2.0207   -0.0267 O   0  0  0  0  0  0  0  0  0  0  0  0
    5.8515    1.3789   -0.0158 C   0  0  0  0  0  0  0  0  0  0  0  0
    5.9034    0.0280   -0.3528 C   0  0  0  0  0  0  0  0  0  0  0  0
    4.7380   -0.7464   -0.3805 C   0  0  0  0  0  0  0  0  0  0  0  0
    3.4813   -0.1944   -0.0767 C   0  0  0  0  0  0  0  0  0  0  0  0
    2.2610   -1.0299   -0.1175 C   0  0  0  0  0  0  0  0  0  0  0  0
    1.0045   -0.5243   -0.4032 C   0  0  0  0  0  0  0  0  0  0  0  0
   -0.0781   -1.4059   -0.4182 C   0  0  0  0  0  0  0  0  0  0  0  0
   -1.4123   -0.8378   -0.7082 C   0  0  0  0  0  0  0  0  0  0  0  0
   -1.9609   -1.1488   -1.7551 O   0  0  0  0  0  0  0  0  0  0  0  0
   -1.8736    0.0036    0.2855 N   0  0  0  0  0  0  0  0  0  0  0  0
   -3.0953    0.7092    0.3106 C   0  0  0  0  0  0  0  0  0  0  0  0
   -3.3531    1.4979    1.4339 C   0  0  0  0  0  0  0  0  0  0  0  0
   -4.5504    2.2082    1.5410 C   0  0  0  0  0  0  0  0  0  0  0  0
   -5.5085    2.1559    0.5184 C   0  0  0  0  0  0  0  0  0  0  0  0
   -6.8034    2.9013    0.6883 C   0  0  0  0  0  0  0  0  0  0  0  0
   -5.2324    1.4145   -0.6430 C   0  0  0  0  0  0  0  0  0  0  0  0
   -6.2022    1.2378   -1.6448 N   0  0  0  0  0  0  0  0  0  0  0  0
   -4.0491    0.6589   -0.7082 C   0  0  0  0  0  0  0  0  0  0  0  0
    0.0886   -2.7816   -0.1704 C   0  0  0  0  0  0  0  0  0  0  0  0
   -0.9567   -3.7389   -0.1771 C   0  0  0  0  0  0  0  0  0  0  0  0
   -0.6992   -5.0816    0.0903 C   0  0  0  0  0  0  0  0  0  0  0  0
    0.5991   -5.4846    0.3682 C   0  0  0  0  0  0  0  0  0  0  0  0
    1.6302   -4.5419    0.3746 C   0  0  0  0  0  0  0  0  0  0  0  0
    1.4004   -3.1980    0.1102 C   0  0  0  0  0  0  0  0  0  0  0  0
    2.4438   -2.3496    0.1395 N   0  0  0  0  0  0  0  0  0  0  0  0
    3.4522    1.1691    0.2691 C   0  0  0  0  0  0  0  0  0  0  0  0
    4.6200    1.9476    0.2982 C   0  0  0  0  0  0  0  0  0  0  0  0
    8.0865    3.7638    0.2444 H   0  0  0  0  0  0  0  0  0  0  0  0
    6.4586    3.9796   -0.4104 H   0  0  0  0  0  0  0  0  0  0  0  0
    6.7061    3.5625    1.3303 H   0  0  0  0  0  0  0  0  0  0  0  0
    6.8579   -0.4322   -0.5964 H   0  0  0  0  0  0  0  0  0  0  0  0
    4.8187   -1.7992   -0.6484 H   0  0  0  0  0  0  0  0  0  0  0  0
    0.8569    0.5227   -0.6451 H   0  0  0  0  0  0  0  0  0  0  0  0
   -1.2896    0.1061    1.1065 H   0  0  0  0  0  0  0  0  0  0  0  0
   -2.6388    1.5605    2.2502 H   0  0  0  0  0  0  0  0  0  0  0  0
   -4.7374    2.7938    2.4384 H   0  0  0  0  0  0  0  0  0  0  0  0
   -6.8890    3.6881   -0.0679 H   0  0  0  0  0  0  0  0  0  0  0  0
   -7.6528    2.2160    0.6013 H   0  0  0  0  0  0  0  0  0  0  0  0
   -6.8678    3.3783    1.6722 H   0  0  0  0  0  0  0  0  0  0  0  0
   -5.8130    0.9335   -2.5329 H   0  0  0  0  0  0  0  0  0  0  0  0
   -6.8338    2.0232   -1.7541 H   0  0  0  0  0  0  0  0  0  0  0  0
   -3.8926    0.0318   -1.5798 H   0  0  0  0  0  0  0  0  0  0  0  0
   -1.9802   -3.4427   -0.4035 H   0  0  0  0  0  0  0  0  0  0  0  0
   -1.5091   -5.8066    0.0760 H   0  0  0  0  0  0  0  0  0  0  0  0
    0.8167   -6.5289    0.5767 H   0  0  0  0  0  0  0  0  0  0  0  0
    2.6456   -4.8666    0.5921 H   0  0  0  0  0  0  0  0  0  0  0  0
    2.5171    1.6529    0.5412 H   0  0  0  0  0  0  0  0  0  0  0  0
    4.5283    2.9925    0.5751 H   0  0  0  0  0  0  0  0  0  0  0  0
  1  2  1  0
  2  3  1  0
  3  4  2  0
  4  5  1  0
  5  6  2  0
  6  7  1  0
  7  8  2  0
  8  9  1  0
  9 10  1  0
 10 11  2  0
 10 12  1  0
 12 13  1  0
 13 14  2  0
 14 15  1  0
 15 16  2  0
 16 17  1  0
 16 18  1  0
 18 19  1  0
 18 20  2  0
  9 21  2  0
 21 22  1  0
 22 23  2  0
 23 24  1  0
 24 25  2  0
 25 26  1  0
 26 27  2  0
  6 28  1  0
 28 29  2  0
 29  3  1  0
 27  7  1  0
 20 13  1  0
 26 21  1  0
  1 30  1  0
  1 31  1  0
  1 32  1  0
  4 33  1  0
  5 34  1  0
  8 35  1  0
 12 36  1  0
 14 37  1  0
 15 38  1  0
 17 39  1  0
 17 40  1  0
 17 41  1  0
 19 42  1  0
 19 43  1  0
 20 44  1  0
 22 45  1  0
 23 46  1  0
 24 47  1  0
 25 48  1  0
 28 49  1  0
 29 50  1  0
M  END
$$$$
