
     RDKit          3D

 45 44  0  0  0  0  0  0  0  0999 V2000
    6.0613   -2.8369    1.7318 C   0  0  0  0  0  0  0  0  0  0  0  0
    4.6990   -3.2852    2.2379 C   0  0  0  0  0  0  0  0  0  0  0  0
    3.5341   -2.5210    1.6072 C   0  0  0  0  0  0  0  0  0  0  0  0
    3.3862   -2.7751    0.1082 C   0  0  0  0  0  0  0  0  0  0  0  0
    2.2024   -2.1382   -0.4204 N   0  0  0  0  0  0  0  0  0  0  0  0
    2.1678   -0.8291   -0.7881 C   0  0  0  0  0  0  0  0  0  0  0  0
    3.1167   -0.0608   -0.7823 O   0  0  0  0  0  0  0  0  0  0  0  0
    0.9047   -0.5089   -1.1546 O   0  0  0  0  0  0  0  0  0  0  0  0
    0.7408    0.8584   -1.5682 C   0  0  0  0  0  0  0  0  0  0  0  0
   -0.7421    1.1029   -1.8929 C   0  0  0  0  0  0  0  0  0  0  0  0
   -0.9711    2.4543   -2.5941 C   0  0  0  0  0  0  0  0  0  0  0  0
   -0.5565    3.6708   -1.7759 C   0  0  0  0  0  0  0  0  0  0  0  0
   -1.5659    0.9858   -0.6944 N   0  0  0  0  0  0  0  0  0  0  0  0
   -2.8933    0.6915   -0.7299 C   0  0  0  0  0  0  0  0  0  0  0  0
   -3.5320    0.4157   -1.7330 O   0  0  0  0  0  0  0  0  0  0  0  0
   -3.3904    0.7679    0.5279 O   0  0  0  0  0  0  0  0  0  0  0  0
   -4.7965    0.4937    0.6685 C   0  0  0  0  0  0  0  0  0  0  0  0
   -5.5952    1.7594    0.3773 C   0  0  0  0  0  0  0  0  0  0  0  0
   -5.0226    0.0323    2.1032 C   0  0  0  0  0  0  0  0  0  0  0  0
    6.8546   -3.3504    2.2845 H   0  0  0  0  0  0  0  0  0  0  0  0
    6.1923   -3.0711    0.6713 H   0  0  0  0  0  0  0  0  0  0  0  0
    6.1964   -1.7593    1.8682 H   0  0  0  0  0  0  0  0  0  0  0  0
    4.6647   -3.1369    3.3238 H   0  0  0  0  0  0  0  0  0  0  0  0
    4.5797   -4.3604    2.0610 H   0  0  0  0  0  0  0  0  0  0  0  0
    3.6513   -1.4465    1.7955 H   0  0  0  0  0  0  0  0  0  0  0  0
    2.6079   -2.8212    2.1140 H   0  0  0  0  0  0  0  0  0  0  0  0
    3.2909   -3.8470   -0.0934 H   0  0  0  0  0  0  0  0  0  0  0  0
    4.2562   -2.3969   -0.4383 H   0  0  0  0  0  0  0  0  0  0  0  0
    1.3139   -2.6196   -0.4136 H   0  0  0  0  0  0  0  0  0  0  0  0
    1.3528    1.0319   -2.4612 H   0  0  0  0  0  0  0  0  0  0  0  0
    1.0725    1.5192   -0.7584 H   0  0  0  0  0  0  0  0  0  0  0  0
   -1.0775    0.3115   -2.5763 H   0  0  0  0  0  0  0  0  0  0  0  0
   -2.0324    2.5575   -2.8514 H   0  0  0  0  0  0  0  0  0  0  0  0
   -0.4191    2.4648   -3.5419 H   0  0  0  0  0  0  0  0  0  0  0  0
    0.5189    3.6724   -1.5761 H   0  0  0  0  0  0  0  0  0  0  0  0
   -1.0878    3.7107   -0.8202 H   0  0  0  0  0  0  0  0  0  0  0  0
   -0.7909    4.5876   -2.3269 H   0  0  0  0  0  0  0  0  0  0  0  0
   -1.2085    1.2757    0.2052 H   0  0  0  0  0  0  0  0  0  0  0  0
   -5.1006   -0.3150   -0.0072 H   0  0  0  0  0  0  0  0  0  0  0  0
   -5.4372    2.0926   -0.6535 H   0  0  0  0  0  0  0  0  0  0  0  0
   -5.2740    2.5825    1.0251 H   0  0  0  0  0  0  0  0  0  0  0  0
   -6.6669    1.5939    0.5246 H   0  0  0  0  0  0  0  0  0  0  0  0
   -4.6984    0.7964    2.8185 H   0  0  0  0  0  0  0  0  0  0  0  0
   -6.0768   -0.1963    2.2866 H   0  0  0  0  0  0  0  0  0  0  0  0
   -4.4297   -0.8648    2.3120 H   0  0  0  0  0  0  0  0  0  0  0  0
  1  2  1  0
  2  3  1  0
  3  4  1  0
  4  5  1  0
  5  6  1  0
  6  7  2  0
  6  8  1  0
  8  9  1  0
  9 10  1  0
 10 11  1  0
 11 12  1  0
 10 13  1  0
 13 14  1  0
 14 15  2  0
 14 16  1  0
 16 17  1  0
 17 18  1  0
 17 19  1  0
  1 20  1  0
  1 21  1  0
  1 22  1  0
  2 23  1  0
  2 24  1  0
  3 25  1  0
  3 26  1  0
  4 27  1  0
  4 28  1  0
  5 29  1  0
  9 30  1  0
  9 31  1  0
 10 32  1  0
 11 33  1  0
 11 34  1  0
 12 35  1  0
 12 36  1  0
 12 37  1  0
 13 38  1  0
 17 39  1  0
 18 40  1  0
 18 41  1  0
 18 42  1  0
 19 43  1  0
 19 44  1  0
 19 45  1  0
M  END
$$$$
