
     RDKit          3D

 32 34  0  0  0  0  0  0  0  0999 V2000
   -0.3127    1.3440    0.4577 O   0  0  0  0  0  0  0  0  0  0  0  0
   -0.2695    0.2014    0.0312 C   0  0  0  0  0  0  0  0  0  0  0  0
   -1.4765   -0.6375   -0.2830 C   0  0  0  0  0  0  0  0  0  0  0  0
   -2.8875   -0.2645   -0.1612 C   0  0  0  0  0  0  0  0  0  0  0  0
   -3.8662   -0.8565   -0.9771 C   0  0  0  0  0  0  0  0  0  0  0  0
   -5.2135   -0.4996   -0.8619 C   0  0  0  0  0  0  0  0  0  0  0  0
   -5.6045    0.4571    0.0699 C   0  0  0  0  0  0  0  0  0  0  0  0
   -4.6491    1.0577    0.8843 C   0  0  0  0  0  0  0  0  0  0  0  0
   -3.3023    0.6999    0.7683 C   0  0  0  0  0  0  0  0  0  0  0  0
   -0.9543   -1.7931   -0.7220 C   0  0  0  0  0  0  0  0  0  0  0  0
    0.4210   -1.8511   -0.7064 N   0  0  0  0  0  0  0  0  0  0  0  0
    0.8494   -0.5883   -0.2699 N   0  0  0  0  0  0  0  0  0  0  0  0
    2.2237   -0.3118   -0.0957 C   0  0  0  0  0  0  0  0  0  0  0  0
    3.1830   -1.3227   -0.2897 C   0  0  0  0  0  0  0  0  0  0  0  0
    4.5495   -1.0737   -0.1240 C   0  0  0  0  0  0  0  0  0  0  0  0
    4.9861    0.1963    0.2396 C   0  0  0  0  0  0  0  0  0  0  0  0
    4.0435    1.2116    0.4371 C   0  0  0  0  0  0  0  0  0  0  0  0
    4.5019    2.5540    0.8172 N   0  0  0  0  0  4  0  0  0  0  0  0
    3.6724    3.4732    0.8135 O   0  0  0  0  0  0  0  0  0  0  0  0
    5.6982    2.6891    1.1135 O   0  0  0  0  0  1  0  0  0  0  0  0
    2.6708    0.9641    0.2731 C   0  0  0  0  0  0  0  0  0  0  0  0
   -3.5962   -1.5976   -1.7252 H   0  0  0  0  0  0  0  0  0  0  0  0
   -5.9561   -0.9667   -1.5037 H   0  0  0  0  0  0  0  0  0  0  0  0
   -6.6506    0.7376    0.1596 H   0  0  0  0  0  0  0  0  0  0  0  0
   -4.9469    1.8087    1.6119 H   0  0  0  0  0  0  0  0  0  0  0  0
   -2.5836    1.1886    1.4238 H   0  0  0  0  0  0  0  0  0  0  0  0
   -1.4907   -2.6607   -1.0824 H   0  0  0  0  0  0  0  0  0  0  0  0
    0.7962   -2.1015   -1.6233 H   0  0  0  0  0  0  0  0  0  0  0  0
    2.8809   -2.3343   -0.5507 H   0  0  0  0  0  0  0  0  0  0  0  0
    5.2694   -1.8757   -0.2725 H   0  0  0  0  0  0  0  0  0  0  0  0
    6.0515    0.3780    0.3662 H   0  0  0  0  0  0  0  0  0  0  0  0
    1.9627    1.7742    0.4297 H   0  0  0  0  0  0  0  0  0  0  0  0
  1  2  2  0
  2  3  1  0
  3  4  1  0
  4  5  2  0
  5  6  1  0
  6  7  2  0
  7  8  1  0
  8  9  2  0
  3 10  2  0
 10 11  1  0
 11 12  1  0
 12 13  1  0
 13 14  2  0
 14 15  1  0
 15 16  2  0
 16 17  1  0
 17 18  1  0
 18 19  2  0
 18 20  1  0
 17 21  2  0
 12  2  1  0
 21 13  1  0
  9  4  1  0
  5 22  1  0
  6 23  1  0
  7 24  1  0
  8 25  1  0
  9 26  1  0
 10 27  1  0
 11 28  1  0
 14 29  1  0
 15 30  1  0
 16 31  1  0
 21 32  1  0
M  CHG  2  18   1  20  -1
M  END
$$$$
