
     RDKit          3D

 57 59  0  0  0  0  0  0  0  0999 V2000
   -4.5477   -2.5674   -2.7626 C   0  0  0  0  0  0  0  0  0  0  0  0
   -3.6482   -1.5642   -2.0469 C   0  0  0  0  0  0  0  0  0  0  0  0
   -3.7527   -1.6505   -0.5903 N   0  0  0  0  0  0  0  0  0  0  0  0
   -5.0649   -1.3409   -0.0125 C   0  0  0  0  0  0  0  0  0  0  0  0
   -5.7733   -0.0801   -0.5032 C   0  0  0  0  0  0  0  0  0  0  0  0
   -2.6137   -1.0465    0.1165 C   0  0  0  0  0  0  0  0  0  0  0  0
   -2.3377    0.4504   -0.0957 C   0  0  0  0  0  0  0  0  0  0  0  0
   -1.1289    0.7787    0.6015 O   0  0  0  0  0  0  0  0  0  0  0  0
   -0.6870    2.0760    0.5547 C   0  0  0  0  0  0  0  0  0  0  0  0
   -1.2032    3.0824   -0.1885 C   0  0  0  0  0  0  0  0  0  0  0  0
   -0.5815    4.4476   -0.0648 C   0  0  2  0  0  0  0  0  0  0  0  0
   -0.7882    5.2963   -1.1840 O   0  0  0  0  0  0  0  0  0  0  0  0
    0.1194    6.3250   -1.0478 C   0  0  0  0  0  0  0  0  0  0  0  0
    0.0815    7.3492   -1.7112 O   0  0  0  0  0  0  0  0  0  0  0  0
    1.4018    6.0183    0.1479 S   0  0  0  0  0  0  0  0  0  0  0  0
    0.9354    4.2988    0.0953 C   0  0  1  0  0  0  0  0  0  0  0  0
    1.2577    3.4204    1.2518 C   0  0  0  0  0  0  0  0  0  0  0  0
    0.4644    2.3396    1.4334 C   0  0  0  0  0  0  0  0  0  0  0  0
    0.7748    1.4417    2.5766 C   0  0  0  0  0  0  0  0  0  0  0  0
    0.2543    1.6161    3.6770 O   0  0  0  0  0  0  0  0  0  0  0  0
    1.7464    0.3322    2.3724 C   0  0  0  0  0  0  0  0  0  0  0  0
    2.3186    0.0083    1.2026 C   0  0  0  0  0  0  0  0  0  0  0  0
    3.2798   -1.0929    1.0539 C   0  0  0  0  0  0  0  0  0  0  0  0
    3.1103   -2.3253    1.6946 C   0  0  0  0  0  0  0  0  0  0  0  0
    4.0357   -3.3566    1.5016 C   0  0  0  0  0  0  0  0  0  0  0  0
    5.1395   -3.1781    0.6647 C   0  0  0  0  0  0  0  0  0  0  0  0
    5.9679   -4.2619    0.5687 O   0  0  0  0  0  0  0  0  0  0  0  0
    7.1363   -4.1079   -0.2273 C   0  0  0  0  0  0  0  0  0  0  0  0
    5.3046   -1.9581    0.0099 C   0  0  0  0  0  0  0  0  0  0  0  0
    4.3767   -0.9249    0.1992 C   0  0  0  0  0  0  0  0  0  0  0  0
   -4.3757   -2.5162   -3.8424 H   0  0  0  0  0  0  0  0  0  0  0  0
   -4.3278   -3.5910   -2.4397 H   0  0  0  0  0  0  0  0  0  0  0  0
   -5.6105   -2.3699   -2.5869 H   0  0  0  0  0  0  0  0  0  0  0  0
   -3.8614   -0.5511   -2.4072 H   0  0  0  0  0  0  0  0  0  0  0  0
   -2.6166   -1.7895   -2.3510 H   0  0  0  0  0  0  0  0  0  0  0  0
   -5.7289   -2.1939   -0.2058 H   0  0  0  0  0  0  0  0  0  0  0  0
   -4.9876   -1.2972    1.0821 H   0  0  0  0  0  0  0  0  0  0  0  0
   -6.7267    0.0327    0.0243 H   0  0  0  0  0  0  0  0  0  0  0  0
   -6.0013   -0.1274   -1.5714 H   0  0  0  0  0  0  0  0  0  0  0  0
   -5.1891    0.8212   -0.3162 H   0  0  0  0  0  0  0  0  0  0  0  0
   -2.7027   -1.2405    1.1936 H   0  0  0  0  0  0  0  0  0  0  0  0
   -1.7073   -1.5979   -0.1675 H   0  0  0  0  0  0  0  0  0  0  0  0
   -3.1541    1.0488    0.3175 H   0  0  0  0  0  0  0  0  0  0  0  0
   -2.2108    0.6606   -1.1634 H   0  0  0  0  0  0  0  0  0  0  0  0
   -2.0652    2.9695   -0.8330 H   0  0  0  0  0  0  0  0  0  0  0  0
   -1.0653    4.9255    0.8029 H   0  0  0  0  0  0  0  0  0  0  0  0
    1.3973    3.8784   -0.8096 H   0  0  0  0  0  0  0  0  0  0  0  0
    2.1090    3.6295    1.8922 H   0  0  0  0  0  0  0  0  0  0  0  0
    1.9617   -0.2190    3.2836 H   0  0  0  0  0  0  0  0  0  0  0  0
    2.1137    0.5654    0.2924 H   0  0  0  0  0  0  0  0  0  0  0  0
    2.2546   -2.5071    2.3421 H   0  0  0  0  0  0  0  0  0  0  0  0
    3.8934   -4.3098    2.0070 H   0  0  0  0  0  0  0  0  0  0  0  0
    6.8764   -3.9244   -1.2753 H   0  0  0  0  0  0  0  0  0  0  0  0
    7.7818   -3.3152    0.1656 H   0  0  0  0  0  0  0  0  0  0  0  0
    7.6965   -5.0466   -0.1829 H   0  0  0  0  0  0  0  0  0  0  0  0
    6.1399   -1.7775   -0.6584 H   0  0  0  0  0  0  0  0  0  0  0  0
    4.5285    0.0168   -0.3244 H   0  0  0  0  0  0  0  0  0  0  0  0
  1  2  1  0
  2  3  1  0
  3  4  1  0
  4  5  1  0
  3  6  1  0
  6  7  1  0
  7  8  1  0
  8  9  1  0
  9 10  2  0
 10 11  1  0
 11 12  1  0
 12 13  1  0
 13 14  2  0
 13 15  1  0
 15 16  1  0
 16 17  1  0
 17 18  2  0
 18 19  1  0
 19 20  2  0
 19 21  1  0
 21 22  2  0
 22 23  1  0
 23 24  2  0
 24 25  1  0
 25 26  2  0
 26 27  1  0
 27 28  1  0
 26 29  1  0
 29 30  2  0
 18  9  1  0
 30 23  1  0
 16 11  1  0
  1 31  1  0
  1 32  1  0
  1 33  1  0
  2 34  1  0
  2 35  1  0
  4 36  1  0
  4 37  1  0
  5 38  1  0
  5 39  1  0
  5 40  1  0
  6 41  1  0
  6 42  1  0
  7 43  1  0
  7 44  1  0
 10 45  1  0
 11 46  1  1
 16 47  1  6
 17 48  1  0
 21 49  1  0
 22 50  1  0
 24 51  1  0
 25 52  1  0
 28 53  1  0
 28 54  1  0
 28 55  1  0
 29 56  1  0
 30 57  1  0
M  END
$$$$
