
     RDKit          3D

 34 36  0  0  0  0  0  0  0  0999 V2000
    0.2078    1.6180    1.6622 O   0  0  0  0  0  0  0  0  0  0  0  0
    0.4776    0.7309    0.8639 C   0  0  0  0  0  0  0  0  0  0  0  0
    1.8498    0.1861    0.8425 C   0  0  0  0  0  0  0  0  0  0  0  0
    2.9191    1.0651    0.6421 C   0  0  0  0  0  0  0  0  0  0  0  0
    4.2260    0.5732    0.6341 C   0  0  0  0  0  0  0  0  0  0  0  0
    4.4553   -0.7877    0.8417 C   0  0  0  0  0  0  0  0  0  0  0  0
    6.0657   -1.3928    0.8300 Cl  0  0  0  0  0  0  0  0  0  0  0  0
    3.3904   -1.6619    1.0668 C   0  0  0  0  0  0  0  0  0  0  0  0
    2.0817   -1.1741    1.0751 C   0  0  0  0  0  0  0  0  0  0  0  0
   -0.4410    0.2384   -0.0266 N   0  0  0  0  0  0  0  0  0  0  0  0
   -0.2156   -0.6669   -1.1628 C   0  0  0  0  0  0  0  0  0  0  0  0
   -0.9734   -1.9284   -0.8307 C   0  0  0  0  0  0  0  0  0  0  0  0
   -2.2863   -1.6564   -0.9282 C   0  0  0  0  0  0  0  0  0  0  0  0
   -2.3976   -0.1758   -1.2574 C   0  0  0  0  0  0  0  0  0  0  0  0
   -1.1843   -0.1108   -2.2072 C   0  0  0  0  0  0  0  0  0  0  0  0
   -1.8968    0.6859   -0.0348 C   0  0  0  0  0  0  0  0  0  0  0  0
   -2.6989    0.3877    1.2315 C   0  0  0  0  0  0  0  0  0  0  0  0
   -2.4298    1.2064    2.2664 F   0  0  0  0  0  0  0  0  0  0  0  0
   -2.4918   -0.8743    1.6855 F   0  0  0  0  0  0  0  0  0  0  0  0
   -4.0309    0.4860    0.9891 F   0  0  0  0  0  0  0  0  0  0  0  0
   -2.1450    2.1723   -0.3023 C   0  0  0  0  0  0  0  0  0  0  0  0
   -1.8807    2.9883    0.7335 F   0  0  0  0  0  0  0  0  0  0  0  0
   -3.4398    2.3859   -0.6491 F   0  0  0  0  0  0  0  0  0  0  0  0
   -1.4045    2.6255   -1.3450 F   0  0  0  0  0  0  0  0  0  0  0  0
    2.7354    2.1280    0.4992 H   0  0  0  0  0  0  0  0  0  0  0  0
    5.0580    1.2547    0.4753 H   0  0  0  0  0  0  0  0  0  0  0  0
    3.5753   -2.7178    1.2480 H   0  0  0  0  0  0  0  0  0  0  0  0
    1.2551   -1.8486    1.2829 H   0  0  0  0  0  0  0  0  0  0  0  0
    0.8162   -0.7900   -1.4903 H   0  0  0  0  0  0  0  0  0  0  0  0
   -0.5320   -2.8755   -0.5594 H   0  0  0  0  0  0  0  0  0  0  0  0
   -3.1055   -2.3323   -0.7283 H   0  0  0  0  0  0  0  0  0  0  0  0
   -3.3478    0.1146   -1.7088 H   0  0  0  0  0  0  0  0  0  0  0  0
   -0.9251    0.8950   -2.5432 H   0  0  0  0  0  0  0  0  0  0  0  0
   -1.2867   -0.7485   -3.0959 H   0  0  0  0  0  0  0  0  0  0  0  0
  1  2  2  0
  2  3  1  0
  3  4  2  0
  4  5  1  0
  5  6  2  0
  6  7  1  0
  6  8  1  0
  8  9  2  0
  2 10  1  0
 10 11  1  0
 11 12  1  0
 12 13  2  0
 13 14  1  0
 14 15  1  0
 14 16  1  0
 16 17  1  0
 17 18  1  0
 17 19  1  0
 17 20  1  0
 16 21  1  0
 21 22  1  0
 21 23  1  0
 21 24  1  0
  9  3  1  0
 16 10  1  0
 15 11  1  0
  4 25  1  0
  5 26  1  0
  8 27  1  0
  9 28  1  0
 11 29  1  0
 12 30  1  0
 13 31  1  0
 14 32  1  0
 15 33  1  0
 15 34  1  0
M  END
$$$$
