
     RDKit          3D

 54 58  0  0  0  0  0  0  0  0999 V2000
    3.3185   -1.8811   -0.0178 O   0  0  0  0  0  0  0  0  0  0  0  0
    3.2083   -0.6830   -0.2711 C   0  0  0  0  0  0  0  0  0  0  0  0
    1.9398   -0.0650   -0.8373 C   0  0  0  0  0  0  0  0  0  0  0  0
    0.4979   -0.5857    0.1350 S   0  0  0  0  0  0  0  0  0  0  0  0
   -0.7833    0.1466   -0.8214 C   0  0  0  0  0  0  0  0  0  0  0  0
   -0.5080    1.2967   -1.3560 N   0  0  0  0  0  0  0  0  0  0  0  0
   -1.5455    1.8731   -2.0932 C   0  0  0  0  0  0  0  0  0  0  0  0
   -2.7684    1.2910   -2.1961 C   0  0  0  0  0  0  0  0  0  0  0  0
   -3.8390    2.2074   -3.1290 S   0  0  0  0  0  0  0  0  0  0  0  0
   -2.6396    3.4182   -3.4291 C   0  0  0  0  0  0  0  0  0  0  0  0
   -2.7891    4.5900   -4.1961 C   0  0  0  0  0  0  0  0  0  0  0  0
   -1.7004    5.4530   -4.3298 C   0  0  0  0  0  0  0  0  0  0  0  0
   -0.4881    5.1642   -3.7167 C   0  0  0  0  0  0  0  0  0  0  0  0
   -0.3428    4.0023   -2.9538 C   0  0  0  0  0  0  0  0  0  0  0  0
   -1.4277    3.1057   -2.7998 C   0  0  0  0  0  0  0  0  0  0  0  0
   -3.0880    0.0425   -1.5732 C   0  0  0  0  0  0  0  0  0  0  0  0
   -4.2049   -0.4696   -1.5916 O   0  0  0  0  0  0  0  0  0  0  0  0
   -1.9945   -0.5398   -0.9164 N   0  0  0  0  0  0  0  0  0  0  0  0
   -2.2441   -1.8526   -0.3036 C   0  0  0  0  0  0  0  0  0  0  0  0
   -2.7960   -1.7311    1.1226 C   0  0  0  0  0  0  0  0  0  0  0  0
   -2.9897   -3.0906    1.7463 C   0  0  0  0  0  0  0  0  0  0  0  0
   -1.9253   -3.7282    2.3984 C   0  0  0  0  0  0  0  0  0  0  0  0
   -2.0927   -5.0035    2.9393 C   0  0  0  0  0  0  0  0  0  0  0  0
   -3.3227   -5.6530    2.8312 C   0  0  0  0  0  0  0  0  0  0  0  0
   -4.3865   -5.0274    2.1837 C   0  0  0  0  0  0  0  0  0  0  0  0
   -4.2229   -3.7521    1.6421 C   0  0  0  0  0  0  0  0  0  0  0  0
    4.2418    0.2156   -0.1007 N   0  0  0  0  0  0  0  0  0  0  0  0
    5.4732   -0.1456    0.5653 C   0  0  0  0  0  0  0  0  0  0  0  0
    5.5326    0.6191    1.8359 C   0  0  0  0  0  0  0  0  0  0  0  0
    5.2738    0.2971    3.1526 C   0  0  0  0  0  0  0  0  0  0  0  0
    5.4821    1.4796    3.9035 C   0  0  0  0  0  0  0  0  0  0  0  0
    5.8555    2.4463    2.9988 C   0  0  0  0  0  0  0  0  0  0  0  0
    5.8838    1.9366    1.7392 O   0  0  0  0  0  0  0  0  0  0  0  0
    1.8398   -0.3913   -1.8767 H   0  0  0  0  0  0  0  0  0  0  0  0
    2.0134    1.0262   -0.8158 H   0  0  0  0  0  0  0  0  0  0  0  0
   -3.7345    4.8194   -4.6782 H   0  0  0  0  0  0  0  0  0  0  0  0
   -1.8043    6.3602   -4.9211 H   0  0  0  0  0  0  0  0  0  0  0  0
    0.3510    5.8435   -3.8274 H   0  0  0  0  0  0  0  0  0  0  0  0
    0.6074    3.7827   -2.4740 H   0  0  0  0  0  0  0  0  0  0  0  0
   -1.3307   -2.4545   -0.3203 H   0  0  0  0  0  0  0  0  0  0  0  0
   -2.9604   -2.4060   -0.9260 H   0  0  0  0  0  0  0  0  0  0  0  0
   -2.1257   -1.1336    1.7532 H   0  0  0  0  0  0  0  0  0  0  0  0
   -3.7506   -1.1871    1.1177 H   0  0  0  0  0  0  0  0  0  0  0  0
   -0.9574   -3.2379    2.4844 H   0  0  0  0  0  0  0  0  0  0  0  0
   -1.2611   -5.4921    3.4401 H   0  0  0  0  0  0  0  0  0  0  0  0
   -3.4496   -6.6480    3.2486 H   0  0  0  0  0  0  0  0  0  0  0  0
   -5.3431   -5.5348    2.0949 H   0  0  0  0  0  0  0  0  0  0  0  0
   -5.0617   -3.2796    1.1335 H   0  0  0  0  0  0  0  0  0  0  0  0
    4.0782    1.2077   -0.2281 H   0  0  0  0  0  0  0  0  0  0  0  0
    5.5272   -1.2241    0.7503 H   0  0  0  0  0  0  0  0  0  0  0  0
    6.3018    0.1400   -0.0934 H   0  0  0  0  0  0  0  0  0  0  0  0
    4.9623   -0.6728    3.5199 H   0  0  0  0  0  0  0  0  0  0  0  0
    5.3717    1.6121    4.9719 H   0  0  0  0  0  0  0  0  0  0  0  0
    6.1184    3.4931    3.0852 H   0  0  0  0  0  0  0  0  0  0  0  0
  1  2  2  0
  2  3  1  0
  3  4  1  0
  4  5  1  0
  5  6  2  0
  6  7  1  0
  7  8  2  0
  8  9  1  0
  9 10  1  0
 10 11  2  0
 11 12  1  0
 12 13  2  0
 13 14  1  0
 14 15  2  0
  8 16  1  0
 16 17  2  0
 16 18  1  0
 18 19  1  0
 19 20  1  0
 20 21  1  0
 21 22  2  0
 22 23  1  0
 23 24  2  0
 24 25  1  0
 25 26  2  0
  2 27  1  0
 27 28  1  0
 28 29  1  0
 29 30  2  0
 30 31  1  0
 31 32  2  0
 32 33  1  0
 18  5  1  0
 26 21  1  0
 33 29  1  0
 15  7  1  0
 15 10  1  0
  3 34  1  0
  3 35  1  0
 11 36  1  0
 12 37  1  0
 13 38  1  0
 14 39  1  0
 19 40  1  0
 19 41  1  0
 20 42  1  0
 20 43  1  0
 22 44  1  0
 23 45  1  0
 24 46  1  0
 25 47  1  0
 26 48  1  0
 27 49  1  0
 28 50  1  0
 28 51  1  0
 30 52  1  0
 31 53  1  0
 32 54  1  0
M  END
$$$$
