
     RDKit          3D

 47 49  0  0  0  0  0  0  0  0999 V2000
    8.4719   -0.4518   -0.2193 C   0  0  0  0  0  0  0  0  0  0  0  0
    7.4844    0.1134    0.7901 C   0  0  0  0  0  0  0  0  0  0  0  0
    6.0571   -0.0584    0.3356 C   0  0  0  0  0  0  0  0  0  0  0  0
    5.4386    0.9227   -0.4499 C   0  0  0  0  0  0  0  0  0  0  0  0
    4.1233    0.7518   -0.8879 C   0  0  0  0  0  0  0  0  0  0  0  0
    3.4065   -0.3953   -0.5424 C   0  0  0  0  0  0  0  0  0  0  0  0
    2.0834   -0.5584   -0.9703 N   0  0  0  0  0  0  0  0  0  0  0  0
    1.1297   -0.1290   -0.2184 C   0  0  0  0  0  0  0  0  0  0  0  0
    1.2389    0.4915    0.9858 N   0  0  0  0  0  0  0  0  0  0  0  0
    0.0856    0.8682    1.6092 C   0  0  0  0  0  0  0  0  0  0  0  0
    0.0304    1.4310    2.6909 O   0  0  0  0  0  0  0  0  0  0  0  0
   -1.0870    0.4908    0.7733 C   0  0  0  0  0  0  0  0  0  0  0  0
   -2.3424    0.7377    1.1705 C   0  0  0  0  0  0  0  0  0  0  0  0
   -3.5719    0.3957    0.4428 C   0  0  0  0  0  0  0  0  0  0  0  0
   -4.5109   -0.4454    1.0616 C   0  0  0  0  0  0  0  0  0  0  0  0
   -5.7044   -0.7768    0.4157 C   0  0  0  0  0  0  0  0  0  0  0  0
   -6.6807   -1.5880    0.9292 O   0  0  0  0  0  0  0  0  0  0  0  0
   -6.4514   -2.1668    2.2053 C   0  0  0  0  0  0  0  0  0  0  0  0
   -5.9426   -0.2455   -0.8570 C   0  0  0  0  0  0  0  0  0  0  0  0
   -7.1097   -0.5555   -1.5149 O   0  0  0  0  0  0  0  0  0  0  0  0
   -5.0202    0.6015   -1.4887 C   0  0  0  0  0  0  0  0  0  0  0  0
   -5.3967    1.0432   -2.7328 O   0  0  0  0  0  0  0  0  0  0  0  0
   -4.4427    1.8167   -3.4519 C   0  0  0  0  0  0  0  0  0  0  0  0
   -3.8374    0.9277   -0.8276 C   0  0  0  0  0  0  0  0  0  0  0  0
   -0.5490   -0.2892   -0.6682 S   0  0  0  0  0  0  0  0  0  0  0  0
    4.0290   -1.3872    0.2175 C   0  0  0  0  0  0  0  0  0  0  0  0
    5.3441   -1.2203    0.6577 C   0  0  0  0  0  0  0  0  0  0  0  0
    9.4977   -0.3132    0.1365 H   0  0  0  0  0  0  0  0  0  0  0  0
    8.3787    0.0483   -1.1893 H   0  0  0  0  0  0  0  0  0  0  0  0
    8.3093   -1.5234   -0.3771 H   0  0  0  0  0  0  0  0  0  0  0  0
    7.6238   -0.3783    1.7606 H   0  0  0  0  0  0  0  0  0  0  0  0
    7.6925    1.1774    0.9567 H   0  0  0  0  0  0  0  0  0  0  0  0
    5.9810    1.8219   -0.7342 H   0  0  0  0  0  0  0  0  0  0  0  0
    3.6577    1.5131   -1.5080 H   0  0  0  0  0  0  0  0  0  0  0  0
    2.1303    0.6739    1.4184 H   0  0  0  0  0  0  0  0  0  0  0  0
   -2.5097    1.2169    2.1350 H   0  0  0  0  0  0  0  0  0  0  0  0
   -4.2864   -0.8339    2.0500 H   0  0  0  0  0  0  0  0  0  0  0  0
   -6.3678   -1.3962    2.9787 H   0  0  0  0  0  0  0  0  0  0  0  0
   -7.3163   -2.7907    2.4504 H   0  0  0  0  0  0  0  0  0  0  0  0
   -5.5678   -2.8134    2.1935 H   0  0  0  0  0  0  0  0  0  0  0  0
   -7.0565   -0.0829   -2.3665 H   0  0  0  0  0  0  0  0  0  0  0  0
   -4.2491    2.7688   -2.9473 H   0  0  0  0  0  0  0  0  0  0  0  0
   -4.8682    2.0415   -4.4346 H   0  0  0  0  0  0  0  0  0  0  0  0
   -3.5157    1.2556   -3.6105 H   0  0  0  0  0  0  0  0  0  0  0  0
   -3.1111    1.5965   -1.2772 H   0  0  0  0  0  0  0  0  0  0  0  0
    3.4895   -2.2985    0.4619 H   0  0  0  0  0  0  0  0  0  0  0  0
    5.8120   -2.0077    1.2449 H   0  0  0  0  0  0  0  0  0  0  0  0
  1  2  1  0
  2  3  1  0
  3  4  2  0
  4  5  1  0
  5  6  2  0
  6  7  1  0
  7  8  2  3
  8  9  1  0
  9 10  1  0
 10 11  2  0
 10 12  1  0
 12 13  2  3
 13 14  1  0
 14 15  2  0
 15 16  1  0
 16 17  1  0
 17 18  1  0
 16 19  2  0
 19 20  1  0
 19 21  1  0
 21 22  1  0
 22 23  1  0
 21 24  2  0
 12 25  1  0
  6 26  1  0
 26 27  2  0
 27  3  1  0
 25  8  1  0
 24 14  1  0
  1 28  1  0
  1 29  1  0
  1 30  1  0
  2 31  1  0
  2 32  1  0
  4 33  1  0
  5 34  1  0
  9 35  1  0
 13 36  1  0
 15 37  1  0
 18 38  1  0
 18 39  1  0
 18 40  1  0
 20 41  1  0
 23 42  1  0
 23 43  1  0
 23 44  1  0
 24 45  1  0
 26 46  1  0
 27 47  1  0
M  END
$$$$
