
     RDKit          3D

 48 51  0  0  0  0  0  0  0  0999 V2000
   -0.6042    1.0532   -2.5343 C   0  0  0  0  0  0  0  0  0  0  0  0
   -0.3192    1.0446   -1.0433 C   0  0  0  0  0  0  0  0  0  0  0  0
   -0.5541   -0.2323   -0.4031 N   0  0  0  0  0  0  0  0  0  0  0  0
   -1.7889   -0.7370   -0.0566 C   0  0  0  0  0  0  0  0  0  0  0  0
   -3.3005   -0.0108   -0.4847 S   0  0  0  0  0  0  0  0  0  0  0  0
   -4.4341   -0.9627    0.5676 C   0  0  0  0  0  0  0  0  0  0  0  0
   -5.8568   -0.4640    0.4463 C   0  0  0  0  0  0  0  0  0  0  0  0
   -6.2344    0.7614    1.0253 C   0  0  0  0  0  0  0  0  0  0  0  0
   -7.5512    1.2136    0.9162 C   0  0  0  0  0  0  0  0  0  0  0  0
   -8.4965    0.4361    0.2416 C   0  0  0  0  0  0  0  0  0  0  0  0
   -9.7627    0.8703    0.1486 F   0  0  0  0  0  0  0  0  0  0  0  0
   -8.1443   -0.7681   -0.3395 C   0  0  0  0  0  0  0  0  0  0  0  0
   -6.8237   -1.2187   -0.2453 C   0  0  0  0  0  0  0  0  0  0  0  0
   -1.6474   -1.8170    0.6691 N   0  0  0  0  0  0  0  0  0  0  0  0
   -0.3106   -2.0110    0.8582 N   0  0  0  0  0  0  0  0  0  0  0  0
    0.3590   -1.0711    0.2111 C   0  0  0  0  0  0  0  0  0  0  0  0
    1.9230   -1.0604    0.3176 C   0  0  0  0  0  0  0  0  0  0  0  0
    2.6088   -1.8887    1.2335 C   0  0  0  0  0  0  0  0  0  0  0  0
    3.9271   -1.7140    1.1864 N   0  0  0  0  0  0  0  0  0  0  0  0
    4.1046   -0.6820    0.3265 N   0  0  0  0  0  0  0  0  0  0  0  0
    5.3808   -0.0404    0.2818 C   0  0  0  0  0  0  0  0  0  0  0  0
    6.5051   -0.7352    0.7586 C   0  0  0  0  0  0  0  0  0  0  0  0
    7.7669   -0.1360    0.7425 C   0  0  0  0  0  0  0  0  0  0  0  0
    7.9150    1.1632    0.2767 C   0  0  0  0  0  0  0  0  0  0  0  0
    6.8029    1.8676   -0.1710 C   0  0  0  0  0  0  0  0  0  0  0  0
    5.5376    1.2726   -0.1684 C   0  0  0  0  0  0  0  0  0  0  0  0
    2.9366   -0.4264   -0.3805 C   0  0  0  0  0  0  0  0  0  0  0  0
    2.9718    0.2181   -1.6939 C   0  0  0  0  0  0  0  0  0  0  0  0
    4.1245    0.0094   -2.3641 F   0  0  0  0  0  0  0  0  0  0  0  0
    1.9865   -0.2560   -2.4982 F   0  0  0  0  0  0  0  0  0  0  0  0
    2.7886    1.5568   -1.6195 F   0  0  0  0  0  0  0  0  0  0  0  0
   -0.2121    1.9620   -2.9944 H   0  0  0  0  0  0  0  0  0  0  0  0
   -0.1641    0.1912   -3.0450 H   0  0  0  0  0  0  0  0  0  0  0  0
   -1.6775    1.0259   -2.7355 H   0  0  0  0  0  0  0  0  0  0  0  0
   -0.9331    1.7977   -0.5403 H   0  0  0  0  0  0  0  0  0  0  0  0
    0.7072    1.3342   -0.8430 H   0  0  0  0  0  0  0  0  0  0  0  0
   -4.3799   -2.0199    0.2897 H   0  0  0  0  0  0  0  0  0  0  0  0
   -4.1174   -0.8874    1.6152 H   0  0  0  0  0  0  0  0  0  0  0  0
   -5.5012    1.3670    1.5596 H   0  0  0  0  0  0  0  0  0  0  0  0
   -7.8473    2.1566    1.3559 H   0  0  0  0  0  0  0  0  0  0  0  0
   -8.8930   -1.3536   -0.8497 H   0  0  0  0  0  0  0  0  0  0  0  0
   -6.5561   -2.1685   -0.7038 H   0  0  0  0  0  0  0  0  0  0  0  0
    2.1944   -2.6086    1.9354 H   0  0  0  0  0  0  0  0  0  0  0  0
    6.4152   -1.7520    1.1255 H   0  0  0  0  0  0  0  0  0  0  0  0
    8.6377   -0.6909    1.0868 H   0  0  0  0  0  0  0  0  0  0  0  0
    8.8969    1.6299    0.2720 H   0  0  0  0  0  0  0  0  0  0  0  0
    6.9189    2.8950   -0.5058 H   0  0  0  0  0  0  0  0  0  0  0  0
    4.7011    1.8864   -0.4799 H   0  0  0  0  0  0  0  0  0  0  0  0
  1  2  1  0
  2  3  1  0
  3  4  1  0
  4  5  1  0
  5  6  1  0
  6  7  1  0
  7  8  2  0
  8  9  1  0
  9 10  2  0
 10 11  1  0
 10 12  1  0
 12 13  2  0
  4 14  2  0
 14 15  1  0
 15 16  2  0
 16 17  1  0
 17 18  1  0
 18 19  2  0
 19 20  1  0
 20 21  1  0
 21 22  2  0
 22 23  1  0
 23 24  2  0
 24 25  1  0
 25 26  2  0
 20 27  1  0
 27 28  1  0
 28 29  1  0
 28 30  1  0
 28 31  1  0
 16  3  1  0
 27 17  2  0
 13  7  1  0
 26 21  1  0
  1 32  1  0
  1 33  1  0
  1 34  1  0
  2 35  1  0
  2 36  1  0
  6 37  1  0
  6 38  1  0
  8 39  1  0
  9 40  1  0
 12 41  1  0
 13 42  1  0
 18 43  1  0
 22 44  1  0
 23 45  1  0
 24 46  1  0
 25 47  1  0
 26 48  1  0
M  END
$$$$
