
     RDKit          3D

 48 50  0  0  0  0  0  0  0  0999 V2000
    7.5416    0.4911    2.3087 C   0  0  0  0  0  0  0  0  0  0  0  0
    7.3372    0.9013    0.9620 O   0  0  0  0  0  0  0  0  0  0  0  0
    6.3527    0.2632    0.2609 C   0  0  0  0  0  0  0  0  0  0  0  0
    5.5298   -0.7538    0.7419 C   0  0  0  0  0  0  0  0  0  0  0  0
    4.5525   -1.3285   -0.0833 C   0  0  0  0  0  0  0  0  0  0  0  0
    4.3904   -0.8964   -1.4026 C   0  0  0  0  0  0  0  0  0  0  0  0
    3.4528   -1.3848   -2.2748 O   0  0  0  0  0  0  0  0  0  0  0  0
    2.8027   -2.6210   -1.9728 C   0  0  0  0  0  0  0  0  0  0  0  0
    1.5748   -2.3368   -1.1976 C   0  0  0  0  0  0  0  0  0  0  0  0
    0.6616   -1.3105   -1.1731 C   0  0  0  0  0  0  0  0  0  0  0  0
   -0.2705   -1.6733   -0.1619 C   0  0  0  0  0  0  0  0  0  0  0  0
   -1.4572   -0.9483    0.3146 C   0  0  0  0  0  0  0  0  0  0  0  0
   -2.0963   -1.2820    1.3103 O   0  0  0  0  0  0  0  0  0  0  0  0
   -1.8296    0.1466   -0.4522 N   0  0  0  0  0  0  0  0  0  0  0  0
   -3.0505    0.8974   -0.1536 C   0  0  0  0  0  0  0  0  0  0  0  0
   -2.9407    2.2953   -0.7637 C   0  0  0  0  0  0  0  0  0  0  0  0
   -4.2931    0.1379   -0.6553 C   0  0  0  0  0  0  0  0  0  0  0  0
   -5.5785    0.7058   -0.1127 C   0  0  0  0  0  0  0  0  0  0  0  0
   -6.0129    0.3670    1.1670 C   0  0  0  0  0  0  0  0  0  0  0  0
   -7.1964    0.9230    1.6427 C   0  0  0  0  0  0  0  0  0  0  0  0
   -7.9101    1.7988    0.8342 C   0  0  0  0  0  0  0  0  0  0  0  0
   -7.4062    2.0848   -0.4231 C   0  0  0  0  0  0  0  0  0  0  0  0
   -6.2592    1.5629   -0.9116 N   0  0  0  0  0  0  0  0  0  0  0  0
    0.0766   -2.8559    0.3769 N   0  0  0  0  0  0  0  0  0  0  0  0
    1.2196   -3.2658   -0.2750 O   0  0  0  0  0  0  0  0  0  0  0  0
    5.2144    0.1368   -1.8743 C   0  0  0  0  0  0  0  0  0  0  0  0
    5.0605    0.7418   -3.4882 Cl  0  0  0  0  0  0  0  0  0  0  0  0
    6.1888    0.7068   -1.0511 C   0  0  0  0  0  0  0  0  0  0  0  0
    7.8449   -0.5599    2.3592 H   0  0  0  0  0  0  0  0  0  0  0  0
    6.6498    0.6758    2.9168 H   0  0  0  0  0  0  0  0  0  0  0  0
    8.3568    1.0933    2.7215 H   0  0  0  0  0  0  0  0  0  0  0  0
    5.6146   -1.1231    1.7596 H   0  0  0  0  0  0  0  0  0  0  0  0
    3.9258   -2.1013    0.3518 H   0  0  0  0  0  0  0  0  0  0  0  0
    2.5164   -3.0718   -2.9296 H   0  0  0  0  0  0  0  0  0  0  0  0
    3.4733   -3.3345   -1.4809 H   0  0  0  0  0  0  0  0  0  0  0  0
    0.6906   -0.4209   -1.7840 H   0  0  0  0  0  0  0  0  0  0  0  0
   -1.4131    0.2707   -1.3639 H   0  0  0  0  0  0  0  0  0  0  0  0
   -3.1023    1.0043    0.9375 H   0  0  0  0  0  0  0  0  0  0  0  0
   -2.8969    2.2484   -1.8574 H   0  0  0  0  0  0  0  0  0  0  0  0
   -2.0277    2.7946   -0.4203 H   0  0  0  0  0  0  0  0  0  0  0  0
   -3.7889    2.9254   -0.4802 H   0  0  0  0  0  0  0  0  0  0  0  0
   -4.2406   -0.9224   -0.3769 H   0  0  0  0  0  0  0  0  0  0  0  0
   -4.3215    0.1499   -1.7528 H   0  0  0  0  0  0  0  0  0  0  0  0
   -5.4405   -0.3189    1.7855 H   0  0  0  0  0  0  0  0  0  0  0  0
   -7.5575    0.6731    2.6363 H   0  0  0  0  0  0  0  0  0  0  0  0
   -8.8362    2.2472    1.1750 H   0  0  0  0  0  0  0  0  0  0  0  0
   -7.9271    2.7632   -1.0926 H   0  0  0  0  0  0  0  0  0  0  0  0
    6.8253    1.5034   -1.4285 H   0  0  0  0  0  0  0  0  0  0  0  0
  1  2  1  0
  2  3  1  0
  3  4  2  0
  4  5  1  0
  5  6  2  0
  6  7  1  0
  7  8  1  0
  8  9  1  0
  9 10  2  0
 10 11  1  0
 11 12  1  0
 12 13  2  0
 12 14  1  0
 14 15  1  0
 15 16  1  0
 15 17  1  0
 17 18  1  0
 18 19  2  0
 19 20  1  0
 20 21  2  0
 21 22  1  0
 22 23  2  0
 11 24  2  0
 24 25  1  0
  6 26  1  0
 26 27  1  0
 26 28  2  0
 28  3  1  0
 25  9  1  0
 23 18  1  0
  1 29  1  0
  1 30  1  0
  1 31  1  0
  4 32  1  0
  5 33  1  0
  8 34  1  0
  8 35  1  0
 10 36  1  0
 14 37  1  0
 15 38  1  0
 16 39  1  0
 16 40  1  0
 16 41  1  0
 17 42  1  0
 17 43  1  0
 19 44  1  0
 20 45  1  0
 21 46  1  0
 22 47  1  0
 28 48  1  0
M  END
$$$$
