
     RDKit          3D

 62 66  0  0  0  0  0  0  0  0999 V2000
   -3.8907    6.2462   -1.4654 C   0  0  0  0  0  0  0  0  0  0  0  0
   -3.0849    5.1130   -1.1681 O   0  0  0  0  0  0  0  0  0  0  0  0
   -3.7382    3.9501   -0.8622 C   0  0  0  0  0  0  0  0  0  0  0  0
   -5.1146    3.7772   -0.8082 C   0  0  0  0  0  0  0  0  0  0  0  0
   -5.6652    2.5327   -0.4804 C   0  0  0  0  0  0  0  0  0  0  0  0
   -4.8072    1.4506   -0.2046 C   0  0  0  0  0  0  0  0  0  0  0  0
   -5.2682   -0.1498    0.2183 S   0  0  0  0  0  0  0  0  0  0  0  0
   -3.6466   -0.6780    0.3381 C   0  0  0  0  0  0  0  0  0  0  0  0
   -3.3912   -2.0836    0.6839 C   0  0  0  0  0  0  0  0  0  0  0  0
   -3.5218   -2.4874    2.0235 C   0  0  0  0  0  0  0  0  0  0  0  0
   -3.2652   -3.8059    2.3954 C   0  0  0  0  0  0  0  0  0  0  0  0
   -2.8749   -4.7315    1.4328 C   0  0  0  0  0  0  0  0  0  0  0  0
   -2.7415   -4.3440    0.0963 C   0  0  0  0  0  0  0  0  0  0  0  0
   -2.9940   -3.0222   -0.2906 C   0  0  0  0  0  0  0  0  0  0  0  0
   -2.8969   -2.5611   -1.5801 O   0  0  0  0  0  0  0  0  0  0  0  0
   -2.3774   -3.4501   -2.5586 C   0  0  0  0  0  0  0  0  0  0  0  0
   -2.7545    0.3468    0.0684 C   0  0  0  0  0  0  0  0  0  0  0  0
   -1.3133    0.1340    0.1069 C   0  0  0  0  0  0  0  0  0  0  0  0
   -0.6429    0.0523    1.3295 C   0  0  0  0  0  0  0  0  0  0  0  0
    0.7392   -0.1465    1.3530 C   0  0  0  0  0  0  0  0  0  0  0  0
    1.4643   -0.2605    0.1635 C   0  0  0  0  0  0  0  0  0  0  0  0
    2.8070   -0.4519    0.3333 O   0  0  0  0  0  0  0  0  0  0  0  0
    3.6119   -0.5244   -0.8462 C   0  0  0  0  0  0  0  0  0  0  0  0
    5.0899   -0.6890   -0.4409 C   0  0  0  0  0  0  0  0  0  0  0  0
    5.8284    0.5870   -0.2982 N   0  0  0  0  0  0  0  0  0  0  0  0
    7.2381    0.3380    0.0491 C   0  0  0  0  0  0  0  0  0  0  0  0
    7.2864    0.2077    1.5661 C   0  0  0  0  0  0  0  0  0  0  0  0
    6.0039    0.8602    2.0645 C   0  0  0  0  0  0  0  0  0  0  0  0
    5.3439    1.4186    0.8147 C   0  0  0  0  0  0  0  0  0  0  0  0
    0.7939   -0.1761   -1.0572 C   0  0  0  0  0  0  0  0  0  0  0  0
   -0.5909    0.0230   -1.0853 C   0  0  0  0  0  0  0  0  0  0  0  0
   -3.4196    1.5892   -0.2520 C   0  0  0  0  0  0  0  0  0  0  0  0
   -2.8962    2.8661   -0.5857 C   0  0  0  0  0  0  0  0  0  0  0  0
   -3.2218    7.0825   -1.6912 H   0  0  0  0  0  0  0  0  0  0  0  0
   -4.5025    6.5325   -0.6035 H   0  0  0  0  0  0  0  0  0  0  0  0
   -4.5113    6.0681   -2.3496 H   0  0  0  0  0  0  0  0  0  0  0  0
   -5.8011    4.5920   -1.0148 H   0  0  0  0  0  0  0  0  0  0  0  0
   -6.7435    2.4049   -0.4397 H   0  0  0  0  0  0  0  0  0  0  0  0
   -3.8210   -1.7695    2.7825 H   0  0  0  0  0  0  0  0  0  0  0  0
   -3.3691   -4.1083    3.4342 H   0  0  0  0  0  0  0  0  0  0  0  0
   -2.6750   -5.7608    1.7208 H   0  0  0  0  0  0  0  0  0  0  0  0
   -2.4404   -5.1008   -0.6199 H   0  0  0  0  0  0  0  0  0  0  0  0
   -2.3007   -2.9007   -3.5023 H   0  0  0  0  0  0  0  0  0  0  0  0
   -1.3712   -3.7927   -2.2929 H   0  0  0  0  0  0  0  0  0  0  0  0
   -3.0546   -4.2953   -2.7215 H   0  0  0  0  0  0  0  0  0  0  0  0
   -1.1872    0.1417    2.2657 H   0  0  0  0  0  0  0  0  0  0  0  0
    1.2558   -0.2114    2.3073 H   0  0  0  0  0  0  0  0  0  0  0  0
    3.3143   -1.4089   -1.4224 H   0  0  0  0  0  0  0  0  0  0  0  0
    3.4865    0.3713   -1.4670 H   0  0  0  0  0  0  0  0  0  0  0  0
    5.5762   -1.2455   -1.2525 H   0  0  0  0  0  0  0  0  0  0  0  0
    5.1610   -1.3024    0.4659 H   0  0  0  0  0  0  0  0  0  0  0  0
    7.8303    1.2082   -0.2604 H   0  0  0  0  0  0  0  0  0  0  0  0
    7.6693   -0.5310   -0.4594 H   0  0  0  0  0  0  0  0  0  0  0  0
    8.1742    0.6997    1.9775 H   0  0  0  0  0  0  0  0  0  0  0  0
    7.3129   -0.8449    1.8701 H   0  0  0  0  0  0  0  0  0  0  0  0
    6.2058    1.6444    2.8010 H   0  0  0  0  0  0  0  0  0  0  0  0
    5.3624    0.1084    2.5396 H   0  0  0  0  0  0  0  0  0  0  0  0
    5.6929    2.4467    0.6509 H   0  0  0  0  0  0  0  0  0  0  0  0
    4.2566    1.4812    0.9022 H   0  0  0  0  0  0  0  0  0  0  0  0
    1.3142   -0.2613   -2.0050 H   0  0  0  0  0  0  0  0  0  0  0  0
   -1.1057    0.0812   -2.0419 H   0  0  0  0  0  0  0  0  0  0  0  0
   -1.8184    3.0082   -0.6272 H   0  0  0  0  0  0  0  0  0  0  0  0
  1  2  1  0
  2  3  1  0
  3  4  2  0
  4  5  1  0
  5  6  2  0
  6  7  1  0
  7  8  1  0
  8  9  1  0
  9 10  2  0
 10 11  1  0
 11 12  2  0
 12 13  1  0
 13 14  2  0
 14 15  1  0
 15 16  1  0
  8 17  2  0
 17 18  1  0
 18 19  2  0
 19 20  1  0
 20 21  2  0
 21 22  1  0
 22 23  1  0
 23 24  1  0
 24 25  1  0
 25 26  1  0
 26 27  1  0
 27 28  1  0
 28 29  1  0
 21 30  1  0
 30 31  2  0
 17 32  1  0
 32 33  2  0
 33  3  1  0
 32  6  1  0
 14  9  1  0
 31 18  1  0
 29 25  1  0
  1 34  1  0
  1 35  1  0
  1 36  1  0
  4 37  1  0
  5 38  1  0
 10 39  1  0
 11 40  1  0
 12 41  1  0
 13 42  1  0
 16 43  1  0
 16 44  1  0
 16 45  1  0
 19 46  1  0
 20 47  1  0
 23 48  1  0
 23 49  1  0
 24 50  1  0
 24 51  1  0
 26 52  1  0
 26 53  1  0
 27 54  1  0
 27 55  1  0
 28 56  1  0
 28 57  1  0
 29 58  1  0
 29 59  1  0
 30 60  1  0
 31 61  1  0
 33 62  1  0
M  END
$$$$
