
     RDKit          3D

 59 64  0  0  0  0  0  0  0  0999 V2000
    4.6897   -1.3497   -0.7304 O   0  0  0  0  0  0  0  0  0  0  0  0
    4.0206   -1.1212    0.2730 C   0  0  0  0  0  0  0  0  0  0  0  0
    4.7046   -0.8387    1.5534 C   0  0  0  0  0  0  0  0  0  0  0  0
    5.4386    0.2517    1.8293 C   0  0  0  0  0  0  0  0  0  0  0  0
    5.6215    1.3836    0.9793 C   0  0  0  0  0  0  0  0  0  0  0  0
    4.8636    1.8942   -0.0624 C   0  0  0  0  0  0  0  0  0  0  0  0
    5.4371    3.0574   -0.6606 C   0  0  0  0  0  0  0  0  0  0  0  0
    6.6076    3.4315   -0.0427 C   0  0  0  0  0  0  0  0  0  0  0  0
    7.0041    2.3937    1.2509 S   0  0  0  0  0  0  0  0  0  0  0  0
    2.6287   -1.1315    0.2978 N   0  0  0  0  0  0  0  0  0  0  0  0
    1.8447   -1.1136    1.5334 C   0  0  0  0  0  0  0  0  0  0  0  0
    0.4546   -0.5109    1.3277 C   0  0  0  0  0  0  0  0  0  0  0  0
   -0.3069   -1.1757    0.1536 C   0  0  0  0  0  0  0  0  0  0  0  0
    0.5857   -1.0795   -1.1037 C   0  0  0  0  0  0  0  0  0  0  0  0
    1.9650   -1.6891   -0.8754 C   0  0  0  0  0  0  0  0  0  0  0  0
   -0.4234   -2.5659    0.5538 O   0  0  0  0  0  0  0  0  0  0  0  0
   -1.3501   -3.3355   -0.0840 C   0  0  0  0  0  0  0  0  0  0  0  0
   -1.2398   -4.7148    0.1106 C   0  0  0  0  0  0  0  0  0  0  0  0
   -2.1338   -5.5845   -0.5190 C   0  0  0  0  0  0  0  0  0  0  0  0
   -3.1346   -5.0680   -1.3357 C   0  0  0  0  0  0  0  0  0  0  0  0
   -3.9881   -5.9062   -1.9402 F   0  0  0  0  0  0  0  0  0  0  0  0
   -3.2625   -3.6980   -1.5317 C   0  0  0  0  0  0  0  0  0  0  0  0
   -2.3679   -2.8351   -0.8902 C   0  0  0  0  0  0  0  0  0  0  0  0
   -2.4781   -1.3805   -1.0641 C   0  0  0  0  0  0  0  0  0  0  0  0
   -3.1552   -0.9288   -1.9846 O   0  0  0  0  0  0  0  0  0  0  0  0
   -1.7022   -0.5252   -0.0650 C   0  0  0  0  0  0  0  0  0  0  0  0
   -1.6879    0.9348   -0.4957 C   0  0  0  0  0  0  0  0  0  0  0  0
   -2.8919    1.3979    0.2539 C   0  0  0  0  0  0  0  0  0  0  0  0
   -3.5571    2.6858   -0.0482 C   0  0  0  0  0  0  0  0  0  0  0  0
   -2.9650    3.6340   -0.8910 C   0  0  0  0  0  0  0  0  0  0  0  0
   -3.6242    4.8364   -1.1615 C   0  0  0  0  0  0  0  0  0  0  0  0
   -4.8728    5.0943   -0.5949 C   0  0  0  0  0  0  0  0  0  0  0  0
   -5.4648    4.1542    0.2474 C   0  0  0  0  0  0  0  0  0  0  0  0
   -4.8079    2.9533    0.5232 C   0  0  0  0  0  0  0  0  0  0  0  0
   -3.2848    0.5968    1.1939 N   0  0  0  0  0  0  0  0  0  0  0  0
   -2.4386   -0.5335    1.1699 O   0  0  0  0  0  0  0  0  0  0  0  0
    4.6316   -1.6383    2.2829 H   0  0  0  0  0  0  0  0  0  0  0  0
    5.9455    0.2715    2.7917 H   0  0  0  0  0  0  0  0  0  0  0  0
    3.9406    1.4480   -0.4173 H   0  0  0  0  0  0  0  0  0  0  0  0
    5.0195    3.5807   -1.5125 H   0  0  0  0  0  0  0  0  0  0  0  0
    7.2525    4.2668   -0.2912 H   0  0  0  0  0  0  0  0  0  0  0  0
    1.7780   -2.1467    1.8952 H   0  0  0  0  0  0  0  0  0  0  0  0
    2.3601   -0.5356    2.3066 H   0  0  0  0  0  0  0  0  0  0  0  0
    0.5732    0.5639    1.1538 H   0  0  0  0  0  0  0  0  0  0  0  0
   -0.1037   -0.6307    2.2642 H   0  0  0  0  0  0  0  0  0  0  0  0
    0.7101   -0.0289   -1.3933 H   0  0  0  0  0  0  0  0  0  0  0  0
    0.1273   -1.5963   -1.9543 H   0  0  0  0  0  0  0  0  0  0  0  0
    2.5740   -1.5265   -1.7726 H   0  0  0  0  0  0  0  0  0  0  0  0
    1.8968   -2.7748   -0.7301 H   0  0  0  0  0  0  0  0  0  0  0  0
   -0.4542   -5.1156    0.7469 H   0  0  0  0  0  0  0  0  0  0  0  0
   -2.0558   -6.6596   -0.3784 H   0  0  0  0  0  0  0  0  0  0  0  0
   -4.0557   -3.3168   -2.1683 H   0  0  0  0  0  0  0  0  0  0  0  0
   -0.8279    1.4971   -0.1249 H   0  0  0  0  0  0  0  0  0  0  0  0
   -1.7760    1.0847   -1.5748 H   0  0  0  0  0  0  0  0  0  0  0  0
   -1.9920    3.4650   -1.3439 H   0  0  0  0  0  0  0  0  0  0  0  0
   -3.1636    5.5725   -1.8165 H   0  0  0  0  0  0  0  0  0  0  0  0
   -5.3857    6.0286   -0.8102 H   0  0  0  0  0  0  0  0  0  0  0  0
   -6.4397    4.3519    0.6884 H   0  0  0  0  0  0  0  0  0  0  0  0
   -5.2831    2.2257    1.1785 H   0  0  0  0  0  0  0  0  0  0  0  0
  1  2  2  0
  2  3  1  0
  3  4  2  3
  4  5  1  0
  5  6  2  0
  6  7  1  0
  7  8  2  0
  8  9  1  0
  2 10  1  0
 10 11  1  0
 11 12  1  0
 12 13  1  0
 13 14  1  0
 14 15  1  0
 13 16  1  0
 16 17  1  0
 17 18  2  0
 18 19  1  0
 19 20  2  0
 20 21  1  0
 20 22  1  0
 22 23  2  0
 23 24  1  0
 24 25  2  0
 24 26  1  0
 26 27  1  0
 27 28  1  0
 28 29  1  0
 29 30  2  0
 30 31  1  0
 31 32  2  0
 32 33  1  0
 33 34  2  0
 28 35  2  0
 35 36  1  0
  9  5  1  0
 15 10  1  0
 23 17  1  0
 36 26  1  0
 26 13  1  0
 34 29  1  0
  3 37  1  0
  4 38  1  0
  6 39  1  0
  7 40  1  0
  8 41  1  0
 11 42  1  0
 11 43  1  0
 12 44  1  0
 12 45  1  0
 14 46  1  0
 14 47  1  0
 15 48  1  0
 15 49  1  0
 18 50  1  0
 19 51  1  0
 22 52  1  0
 27 53  1  0
 27 54  1  0
 30 55  1  0
 31 56  1  0
 32 57  1  0
 33 58  1  0
 34 59  1  0
M  END
$$$$
