
     RDKit          3D

 40 41  0  0  0  0  0  0  0  0999 V2000
    7.7120   -0.6736    1.1129 C   0  0  0  0  0  0  0  0  0  0  0  0
    6.8816   -0.2383    0.0434 O   0  0  0  0  0  0  0  0  0  0  0  0
    5.5369   -0.1920    0.2843 C   0  0  0  0  0  0  0  0  0  0  0  0
    4.9037   -0.5239    1.4807 C   0  0  0  0  0  0  0  0  0  0  0  0
    3.5098   -0.4304    1.5910 C   0  0  0  0  0  0  0  0  0  0  0  0
    2.7297   -0.0146    0.5046 C   0  0  0  0  0  0  0  0  0  0  0  0
    1.2691    0.1230    0.5892 C   0  0  0  0  0  0  0  0  0  0  0  0
    0.4828   -0.7182    1.2795 C   0  0  0  0  0  0  0  0  0  0  0  0
   -0.9905   -0.5495    1.3876 C   0  0  0  0  0  0  0  0  0  0  0  0
   -1.5283   -0.7740    2.4635 O   0  0  0  0  0  0  0  0  0  0  0  0
   -1.6040   -0.2165    0.1977 N   0  0  0  0  0  0  0  0  0  0  0  0
   -2.9440    0.0311   -0.0493 C   0  0  0  0  0  0  0  0  0  0  0  0
   -3.8519    0.0654    0.9325 C   0  0  0  0  0  0  0  0  0  0  0  0
   -5.2649    0.3407    0.6528 C   0  0  0  0  0  0  0  0  0  0  0  0
   -6.0513    0.4329    1.5922 O   0  0  0  0  0  0  0  0  0  0  0  0
   -5.6037    0.4840   -0.6710 N   0  0  0  0  0  0  0  0  0  0  0  0
   -6.9918    0.7446   -1.0018 C   0  0  0  0  0  0  0  0  0  0  0  0
   -4.6825    0.5143   -1.7051 C   0  0  0  0  0  0  0  0  0  0  0  0
   -5.0283    0.7513   -2.8653 O   0  0  0  0  0  0  0  0  0  0  0  0
   -3.3482    0.2699   -1.3605 N   0  0  0  0  0  0  0  0  0  0  0  0
   -2.3840    0.2744   -2.4570 C   0  0  0  0  0  0  0  0  0  0  0  0
    3.3739    0.3344   -0.6872 C   0  0  0  0  0  0  0  0  0  0  0  0
    4.7647    0.2395   -0.7955 C   0  0  0  0  0  0  0  0  0  0  0  0
    7.6415    0.0059    1.9689 H   0  0  0  0  0  0  0  0  0  0  0  0
    7.4749   -1.7025    1.4034 H   0  0  0  0  0  0  0  0  0  0  0  0
    8.7476   -0.6576    0.7598 H   0  0  0  0  0  0  0  0  0  0  0  0
    5.4615   -0.8528    2.3513 H   0  0  0  0  0  0  0  0  0  0  0  0
    3.0492   -0.6756    2.5456 H   0  0  0  0  0  0  0  0  0  0  0  0
    0.8516    0.9731    0.0551 H   0  0  0  0  0  0  0  0  0  0  0  0
    0.8766   -1.5425    1.8649 H   0  0  0  0  0  0  0  0  0  0  0  0
   -0.9946   -0.2074   -0.6047 H   0  0  0  0  0  0  0  0  0  0  0  0
   -3.6310   -0.0872    1.9801 H   0  0  0  0  0  0  0  0  0  0  0  0
   -7.1051    1.8158   -1.1984 H   0  0  0  0  0  0  0  0  0  0  0  0
   -7.2722    0.1922   -1.9045 H   0  0  0  0  0  0  0  0  0  0  0  0
   -7.6661    0.4569   -0.1903 H   0  0  0  0  0  0  0  0  0  0  0  0
   -2.8433    0.4810   -3.4274 H   0  0  0  0  0  0  0  0  0  0  0  0
   -1.6331    1.0501   -2.2737 H   0  0  0  0  0  0  0  0  0  0  0  0
   -1.9060   -0.7087   -2.5201 H   0  0  0  0  0  0  0  0  0  0  0  0
    2.8064    0.6776   -1.5488 H   0  0  0  0  0  0  0  0  0  0  0  0
    5.2516    0.5071   -1.7305 H   0  0  0  0  0  0  0  0  0  0  0  0
  1  2  1  0
  2  3  1  0
  3  4  2  0
  4  5  1  0
  5  6  2  0
  6  7  1  0
  7  8  2  3
  8  9  1  0
  9 10  2  0
  9 11  1  0
 11 12  1  0
 12 13  2  0
 13 14  1  0
 14 15  2  0
 14 16  1  0
 16 17  1  0
 16 18  1  0
 18 19  2  0
 18 20  1  0
 20 21  1  0
  6 22  1  0
 22 23  2  0
 23  3  1  0
 20 12  1  0
  1 24  1  0
  1 25  1  0
  1 26  1  0
  4 27  1  0
  5 28  1  0
  7 29  1  0
  8 30  1  0
 11 31  1  0
 13 32  1  0
 17 33  1  0
 17 34  1  0
 17 35  1  0
 21 36  1  0
 21 37  1  0
 21 38  1  0
 22 39  1  0
 23 40  1  0
M  END
$$$$
