
     RDKit          3D

 42 45  0  0  0  0  0  0  0  0999 V2000
    3.3292   -0.6051    1.7924 C   0  0  0  0  0  0  0  0  0  0  0  0
    3.4285   -0.4533    0.3185 C   0  0  0  0  0  0  0  0  0  0  0  0
    2.4800   -0.0994   -0.6332 C   0  0  0  0  0  0  0  0  0  0  0  0
    1.0507    0.1631   -0.4744 C   0  0  0  0  0  0  0  0  0  0  0  0
    0.5140    1.1211   -1.0219 O   0  0  0  0  0  0  0  0  0  0  0  0
    0.3995   -0.7782    0.3248 N   0  0  0  0  0  0  0  0  0  0  0  0
   -0.8996   -0.7221    0.7677 N   0  0  0  0  0  0  0  0  0  0  0  0
   -1.7895   -0.1395    0.0190 C   0  0  0  0  0  0  0  0  0  0  0  0
   -3.2030    0.0050    0.4607 C   0  0  0  0  0  0  0  0  0  0  0  0
   -3.6533   -0.7186    1.5797 C   0  0  0  0  0  0  0  0  0  0  0  0
   -2.8483   -1.5344    2.3310 O   0  0  0  0  0  0  0  0  0  0  0  0
   -4.9779   -0.6482    1.9857 C   0  0  0  0  0  0  0  0  0  0  0  0
   -5.8728    0.1517    1.2823 C   0  0  0  0  0  0  0  0  0  0  0  0
   -5.4548    0.9013    0.1729 C   0  0  0  0  0  0  0  0  0  0  0  0
   -6.3863    1.7070   -0.5026 C   0  0  0  0  0  0  0  0  0  0  0  0
   -6.0098    2.4799   -1.5979 C   0  0  0  0  0  0  0  0  0  0  0  0
   -4.6923    2.4612   -2.0292 C   0  0  0  0  0  0  0  0  0  0  0  0
   -3.7530    1.6625   -1.3705 C   0  0  0  0  0  0  0  0  0  0  0  0
   -4.1020    0.8498   -0.2589 C   0  0  0  0  0  0  0  0  0  0  0  0
    3.0930    0.0255   -1.8489 N   0  0  0  0  0  0  0  0  0  0  0  0
    4.3680   -0.2897   -1.7098 N   0  0  0  0  0  0  0  0  0  0  0  0
    4.6129   -0.6047   -0.4083 N   0  0  0  0  0  0  0  0  0  0  0  0
    5.9004   -1.0058    0.0294 C   0  0  0  0  0  0  0  0  0  0  0  0
    6.1283   -1.3192    1.3060 N   0  0  0  0  0  0  0  0  0  0  0  0
    7.4842   -1.6447    1.3368 O   0  0  0  0  0  0  0  0  0  0  0  0
    8.0603   -1.5296    0.0765 N   0  0  0  0  0  0  0  0  0  0  0  0
    7.0753   -1.1437   -0.7335 C   0  0  0  0  0  0  0  0  0  0  0  0
    7.2163   -0.9325   -2.0551 N   0  0  0  0  0  0  0  0  0  0  0  0
    3.4450   -1.6537    2.0832 H   0  0  0  0  0  0  0  0  0  0  0  0
    4.0851   -0.0014    2.3043 H   0  0  0  0  0  0  0  0  0  0  0  0
    2.3599   -0.2612    2.1658 H   0  0  0  0  0  0  0  0  0  0  0  0
    0.9634   -1.4738    0.8016 H   0  0  0  0  0  0  0  0  0  0  0  0
   -1.5451    0.2219   -0.9882 H   0  0  0  0  0  0  0  0  0  0  0  0
   -1.9351   -1.4385    1.9853 H   0  0  0  0  0  0  0  0  0  0  0  0
   -5.3141   -1.2179    2.8479 H   0  0  0  0  0  0  0  0  0  0  0  0
   -6.9079    0.1900    1.6169 H   0  0  0  0  0  0  0  0  0  0  0  0
   -7.4236    1.7432   -0.1745 H   0  0  0  0  0  0  0  0  0  0  0  0
   -6.7432    3.1002   -2.1062 H   0  0  0  0  0  0  0  0  0  0  0  0
   -4.3866    3.0709   -2.8760 H   0  0  0  0  0  0  0  0  0  0  0  0
   -2.7323    1.7075   -1.7430 H   0  0  0  0  0  0  0  0  0  0  0  0
    6.4896   -0.4719   -2.6017 H   0  0  0  0  0  0  0  0  0  0  0  0
    8.1472   -0.8745   -2.4545 H   0  0  0  0  0  0  0  0  0  0  0  0
  1  2  1  0
  2  3  2  0
  3  4  1  0
  4  5  2  0
  4  6  1  0
  6  7  1  0
  7  8  2  3
  8  9  1  0
  9 10  2  0
 10 11  1  0
 10 12  1  0
 12 13  2  0
 13 14  1  0
 14 15  2  0
 15 16  1  0
 16 17  2  0
 17 18  1  0
 18 19  2  0
  3 20  1  0
 20 21  2  0
 21 22  1  0
 22 23  1  0
 23 24  2  0
 24 25  1  0
 25 26  1  0
 26 27  2  0
 27 28  1  0
 22  2  1  0
 27 23  1  0
 19  9  1  0
 19 14  1  0
  1 29  1  0
  1 30  1  0
  1 31  1  0
  6 32  1  0
  8 33  1  0
 11 34  1  0
 12 35  1  0
 13 36  1  0
 15 37  1  0
 16 38  1  0
 17 39  1  0
 18 40  1  0
 28 41  1  0
 28 42  1  0
M  END
$$$$
