
     RDKit          3D

 49 52  0  0  0  0  0  0  0  0999 V2000
   -1.8825    3.7246   -0.2970 O   0  0  0  0  0  0  0  0  0  0  0  0
   -1.7649    3.2240    0.8040 C   0  0  0  0  0  0  0  0  0  0  0  0
   -1.1557    3.8876    1.8060 O   0  0  0  0  0  0  0  0  0  0  0  0
   -2.2041    1.8730    1.2344 C   0  0  0  0  0  0  0  0  0  0  0  0
   -2.7515    1.7705    2.5311 C   0  0  0  0  0  0  0  0  0  0  0  0
   -3.3492    0.5907    2.9631 C   0  0  0  0  0  0  0  0  0  0  0  0
   -3.4437   -0.4825    2.0885 C   0  0  0  0  0  0  0  0  0  0  0  0
   -2.9021   -0.3856    0.7975 C   0  0  0  0  0  0  0  0  0  0  0  0
   -3.0837   -1.5280   -0.1262 C   0  0  0  0  0  0  0  0  0  0  0  0
   -3.5633   -2.5858    0.2684 O   0  0  0  0  0  0  0  0  0  0  0  0
   -2.6975   -1.3601   -1.5399 C   0  0  0  0  0  0  0  0  0  0  0  0
   -3.0426   -2.3452   -2.4746 C   0  0  0  0  0  0  0  0  0  0  0  0
   -2.6781   -2.1897   -3.8088 C   0  0  0  0  0  0  0  0  0  0  0  0
   -1.9799   -1.0520   -4.2038 C   0  0  0  0  0  0  0  0  0  0  0  0
   -1.6308   -0.0764   -3.2632 C   0  0  0  0  0  0  0  0  0  0  0  0
   -1.9629   -0.2226   -1.9075 C   0  0  0  0  0  0  0  0  0  0  0  0
   -1.6041    0.7457   -0.9339 N   0  0  0  0  0  0  0  0  0  0  0  0
   -0.1550    1.1345   -0.9599 C   0  0  0  0  0  0  0  0  0  0  0  0
    0.7779    0.0717   -0.3188 C   0  0  0  0  0  0  0  0  0  0  0  0
    0.9887   -1.0105   -1.2395 O   0  0  0  0  0  0  0  0  0  0  0  0
    2.1489    0.7132    0.0186 C   0  0  0  0  0  0  0  0  0  0  0  0
    2.9567   -0.0667    0.9728 N   0  0  0  0  0  0  0  0  0  0  0  0
    3.3693   -1.3775    0.4606 C   0  0  0  0  0  0  0  0  0  0  0  0
    4.5483   -1.7668    1.3464 C   0  0  0  0  0  0  0  0  0  0  0  0
    4.9951   -0.4740    2.0168 C   0  0  0  0  0  0  0  0  0  0  0  0
    4.2080    0.6156    1.3112 C   0  0  0  0  0  0  0  0  0  0  0  0
   -2.2129    0.7651    0.3551 C   0  0  0  0  0  0  0  0  0  0  0  0
   -0.9258    4.7546    1.4099 H   0  0  0  0  0  0  0  0  0  0  0  0
   -2.7409    2.6276    3.2028 H   0  0  0  0  0  0  0  0  0  0  0  0
   -3.7731    0.5223    3.9621 H   0  0  0  0  0  0  0  0  0  0  0  0
   -3.9493   -1.3935    2.4046 H   0  0  0  0  0  0  0  0  0  0  0  0
   -3.5984   -3.2269   -2.1630 H   0  0  0  0  0  0  0  0  0  0  0  0
   -2.9487   -2.9475   -4.5398 H   0  0  0  0  0  0  0  0  0  0  0  0
   -1.7109   -0.9157   -5.2486 H   0  0  0  0  0  0  0  0  0  0  0  0
   -1.1167    0.8138   -3.6160 H   0  0  0  0  0  0  0  0  0  0  0  0
   -0.0129    2.0826   -0.4398 H   0  0  0  0  0  0  0  0  0  0  0  0
    0.1750    1.3334   -1.9860 H   0  0  0  0  0  0  0  0  0  0  0  0
    0.3349   -0.3373    0.5969 H   0  0  0  0  0  0  0  0  0  0  0  0
    0.1700   -1.5360   -1.2538 H   0  0  0  0  0  0  0  0  0  0  0  0
    2.7123    0.8805   -0.9092 H   0  0  0  0  0  0  0  0  0  0  0  0
    1.9694    1.6928    0.4791 H   0  0  0  0  0  0  0  0  0  0  0  0
    2.5688   -2.1203    0.5344 H   0  0  0  0  0  0  0  0  0  0  0  0
    3.7035   -1.3197   -0.5833 H   0  0  0  0  0  0  0  0  0  0  0  0
    5.3556   -2.2034    0.7489 H   0  0  0  0  0  0  0  0  0  0  0  0
    4.2537   -2.5024    2.1034 H   0  0  0  0  0  0  0  0  0  0  0  0
    4.7380   -0.5036    3.0826 H   0  0  0  0  0  0  0  0  0  0  0  0
    6.0754   -0.3202    1.9357 H   0  0  0  0  0  0  0  0  0  0  0  0
    4.0449    1.4794    1.9633 H   0  0  0  0  0  0  0  0  0  0  0  0
    4.7468    0.9468    0.4142 H   0  0  0  0  0  0  0  0  0  0  0  0
  1  2  2  0
  2  3  1  0
  2  4  1  0
  4  5  2  0
  5  6  1  0
  6  7  2  0
  7  8  1  0
  8  9  1  0
  9 10  2  0
  9 11  1  0
 11 12  2  0
 12 13  1  0
 13 14  2  0
 14 15  1  0
 15 16  2  0
 16 17  1  0
 17 18  1  0
 18 19  1  0
 19 20  1  0
 19 21  1  0
 21 22  1  0
 22 23  1  0
 23 24  1  0
 24 25  1  0
 25 26  1  0
 17 27  1  0
 27  4  1  0
 27  8  2  0
 16 11  1  0
 26 22  1  0
  3 28  1  0
  5 29  1  0
  6 30  1  0
  7 31  1  0
 12 32  1  0
 13 33  1  0
 14 34  1  0
 15 35  1  0
 18 36  1  0
 18 37  1  0
 19 38  1  0
 20 39  1  0
 21 40  1  0
 21 41  1  0
 23 42  1  0
 23 43  1  0
 24 44  1  0
 24 45  1  0
 25 46  1  0
 25 47  1  0
 26 48  1  0
 26 49  1  0
M  END
$$$$
