
     RDKit          3D

 43 45  0  0  0  0  0  0  0  0999 V2000
    5.8242    0.3769    3.2378 C   0  0  0  0  0  0  0  0  0  0  0  0
    5.2957    0.2797    1.8372 C   0  0  0  0  0  0  0  0  0  0  0  0
    6.1750    0.1681    0.7554 C   0  0  0  0  0  0  0  0  0  0  0  0
    5.6862    0.0365   -0.5492 C   0  0  0  0  0  0  0  0  0  0  0  0
    6.6321   -0.0439   -1.7116 C   0  0  0  0  0  0  0  0  0  0  0  0
    4.2999    0.0337   -0.7690 C   0  0  0  0  0  0  0  0  0  0  0  0
    3.4060    0.1325    0.2983 C   0  0  0  0  0  0  0  0  0  0  0  0
    2.0018    0.1152    0.1563 N   0  0  0  0  0  0  0  0  0  0  0  0
    1.2754    0.0865   -1.0202 C   0  0  0  0  0  0  0  0  0  0  0  0
    1.7158    0.1418   -2.1620 O   0  0  0  0  0  0  0  0  0  0  0  0
   -0.2037    0.0251   -0.8416 C   0  0  0  0  0  0  0  0  0  0  0  0
   -0.7955   -0.6954    0.2013 C   0  0  0  0  0  0  0  0  0  0  0  0
   -2.1900   -0.7266    0.3338 C   0  0  0  0  0  0  0  0  0  0  0  0
   -3.0063   -0.0506   -0.5757 C   0  0  0  0  0  0  0  0  0  0  0  0
   -4.4109   -0.0329   -0.5106 N   0  0  0  0  0  0  0  0  0  0  0  0
   -5.2378   -0.6237    0.4289 C   0  0  0  0  0  0  0  0  0  0  0  0
   -4.8625   -1.2755    1.3979 O   0  0  0  0  0  0  0  0  0  0  0  0
   -6.6454   -0.3892    0.1563 C   0  0  0  0  0  0  0  0  0  0  0  0
   -7.7830   -0.7942    0.8288 C   0  0  0  0  0  0  0  0  0  0  0  0
   -8.8879   -0.2756    0.1124 C   0  0  0  0  0  0  0  0  0  0  0  0
   -8.3627    0.4150   -0.9537 C   0  0  0  0  0  0  0  0  0  0  0  0
   -7.0058    0.3553   -0.9399 O   0  0  0  0  0  0  0  0  0  0  0  0
   -2.4086    0.6513   -1.6302 C   0  0  0  0  0  0  0  0  0  0  0  0
   -1.0173    0.6863   -1.7665 C   0  0  0  0  0  0  0  0  0  0  0  0
    3.9145    0.2443    1.5997 C   0  0  0  0  0  0  0  0  0  0  0  0
    5.9394   -0.6242    3.6643 H   0  0  0  0  0  0  0  0  0  0  0  0
    6.7951    0.8832    3.2554 H   0  0  0  0  0  0  0  0  0  0  0  0
    5.1452    0.9565    3.8720 H   0  0  0  0  0  0  0  0  0  0  0  0
    7.2495    0.1826    0.9286 H   0  0  0  0  0  0  0  0  0  0  0  0
    6.8247    0.9583   -2.1066 H   0  0  0  0  0  0  0  0  0  0  0  0
    7.5841   -0.4944   -1.4118 H   0  0  0  0  0  0  0  0  0  0  0  0
    6.2164   -0.6670   -2.5104 H   0  0  0  0  0  0  0  0  0  0  0  0
    3.9425   -0.0559   -1.7905 H   0  0  0  0  0  0  0  0  0  0  0  0
    1.4784    0.1987    1.0174 H   0  0  0  0  0  0  0  0  0  0  0  0
   -0.1944   -1.2663    0.9041 H   0  0  0  0  0  0  0  0  0  0  0  0
   -2.6063   -1.3026    1.1549 H   0  0  0  0  0  0  0  0  0  0  0  0
   -4.9017    0.4774   -1.2379 H   0  0  0  0  0  0  0  0  0  0  0  0
   -7.7979   -1.3940    1.7292 H   0  0  0  0  0  0  0  0  0  0  0  0
   -9.9376   -0.3911    0.3442 H   0  0  0  0  0  0  0  0  0  0  0  0
   -8.7990    0.9747   -1.7698 H   0  0  0  0  0  0  0  0  0  0  0  0
   -3.0140    1.1792   -2.3632 H   0  0  0  0  0  0  0  0  0  0  0  0
   -0.5695    1.2319   -2.5951 H   0  0  0  0  0  0  0  0  0  0  0  0
    3.2360    0.3123    2.4467 H   0  0  0  0  0  0  0  0  0  0  0  0
  1  2  1  0
  2  3  2  0
  3  4  1  0
  4  5  1  0
  4  6  2  0
  6  7  1  0
  7  8  1  0
  8  9  1  0
  9 10  2  0
  9 11  1  0
 11 12  2  0
 12 13  1  0
 13 14  2  0
 14 15  1  0
 15 16  1  0
 16 17  2  0
 16 18  1  0
 18 19  2  0
 19 20  1  0
 20 21  2  0
 21 22  1  0
 14 23  1  0
 23 24  2  0
  7 25  2  0
 25  2  1  0
 24 11  1  0
 22 18  1  0
  1 26  1  0
  1 27  1  0
  1 28  1  0
  3 29  1  0
  5 30  1  0
  5 31  1  0
  5 32  1  0
  6 33  1  0
  8 34  1  0
 12 35  1  0
 13 36  1  0
 15 37  1  0
 19 38  1  0
 20 39  1  0
 21 40  1  0
 23 41  1  0
 24 42  1  0
 25 43  1  0
M  END
$$$$
