
     RDKit          3D

 58 62  0  0  0  0  0  0  0  0999 V2000
    6.8209    4.2666    2.2991 C   0  0  0  0  0  0  0  0  0  0  0  0
    6.6262    2.8778    2.0620 O   0  0  0  0  0  0  0  0  0  0  0  0
    5.4515    2.4952    1.4631 C   0  0  0  0  0  0  0  0  0  0  0  0
    4.3469    3.3350    1.2817 C   0  0  0  0  0  0  0  0  0  0  0  0
    3.1826    2.8525    0.6708 C   0  0  0  0  0  0  0  0  0  0  0  0
    3.1035    1.5261    0.2281 C   0  0  0  0  0  0  0  0  0  0  0  0
    1.9133    0.9941   -0.4312 C   0  0  0  0  0  0  0  0  0  0  0  0
    1.7530   -0.1713   -1.0329 N   0  0  0  0  0  0  0  0  0  0  0  0
    0.4419   -0.1570   -1.4636 C   0  0  0  0  0  0  0  0  0  0  0  0
   -0.1169   -1.3215   -2.1946 C   0  0  0  0  0  0  0  0  0  0  0  0
   -1.0802   -2.0412   -1.3807 N   0  0  0  0  0  0  0  0  0  0  0  0
   -2.4328   -2.1633   -1.5868 C   0  0  0  0  0  0  0  0  0  0  0  0
   -3.2609   -1.4180   -2.9143 S   0  0  0  0  0  0  0  0  0  0  0  0
   -4.9986   -1.6799   -2.4724 C   0  0  0  0  0  0  0  0  0  0  0  0
   -5.5449   -0.5780   -1.5991 C   0  0  0  0  0  0  0  0  0  0  0  0
   -6.0613    0.5983   -2.1679 C   0  0  0  0  0  0  0  0  0  0  0  0
   -6.6017    1.6054   -1.3537 C   0  0  0  0  0  0  0  0  0  0  0  0
   -6.6218    1.4490    0.0347 C   0  0  0  0  0  0  0  0  0  0  0  0
   -6.0899    0.2939    0.5955 C   0  0  0  0  0  0  0  0  0  0  0  0
   -6.1065    0.1464    1.9273 F   0  0  0  0  0  0  0  0  0  0  0  0
   -5.5500   -0.7141   -0.2043 C   0  0  0  0  0  0  0  0  0  0  0  0
   -3.0020   -2.9246   -0.6795 N   0  0  0  0  0  0  0  0  0  0  0  0
   -1.9817   -3.3353    0.1418 C   0  0  0  0  0  0  0  0  0  0  0  0
   -2.0262   -4.1638    1.2609 C   0  0  0  0  0  0  0  0  0  0  0  0
   -0.8095   -4.4108    1.8747 C   0  0  0  0  0  0  0  0  0  0  0  0
    0.3775   -3.9087    1.4689 N   0  0  0  0  0  0  0  0  0  0  0  0
    0.4207   -3.0925    0.3884 C   0  0  0  0  0  0  0  0  0  0  0  0
   -0.7651   -2.8087   -0.2761 C   0  0  0  0  0  0  0  0  0  0  0  0
   -0.1442    1.0402   -1.1059 C   0  0  0  0  0  0  0  0  0  0  0  0
   -1.4869    1.6316   -1.2544 C   0  0  0  0  0  0  0  0  0  0  0  0
    0.7950    1.7873   -0.4485 O   0  0  0  0  0  0  0  0  0  0  0  0
    4.2135    0.6850    0.4188 C   0  0  0  0  0  0  0  0  0  0  0  0
    5.3812    1.1543    1.0349 C   0  0  0  0  0  0  0  0  0  0  0  0
    6.5075    0.3942    1.2361 O   0  0  0  0  0  0  0  0  0  0  0  0
    6.3918   -1.0051    1.0176 C   0  0  0  0  0  0  0  0  0  0  0  0
    6.1035    4.6503    3.0309 H   0  0  0  0  0  0  0  0  0  0  0  0
    6.7773    4.8347    1.3645 H   0  0  0  0  0  0  0  0  0  0  0  0
    7.8238    4.3945    2.7216 H   0  0  0  0  0  0  0  0  0  0  0  0
    4.3577    4.3729    1.6056 H   0  0  0  0  0  0  0  0  0  0  0  0
    2.3388    3.5277    0.5430 H   0  0  0  0  0  0  0  0  0  0  0  0
   -0.5727   -0.9990   -3.1330 H   0  0  0  0  0  0  0  0  0  0  0  0
    0.6722   -2.0350   -2.4539 H   0  0  0  0  0  0  0  0  0  0  0  0
   -5.1591   -2.6614   -2.0123 H   0  0  0  0  0  0  0  0  0  0  0  0
   -5.5737   -1.7042   -3.4047 H   0  0  0  0  0  0  0  0  0  0  0  0
   -6.0612    0.7311   -3.2510 H   0  0  0  0  0  0  0  0  0  0  0  0
   -7.0168    2.5055   -1.8000 H   0  0  0  0  0  0  0  0  0  0  0  0
   -7.0556    2.2049    0.6777 H   0  0  0  0  0  0  0  0  0  0  0  0
   -5.1527   -1.6065    0.2722 H   0  0  0  0  0  0  0  0  0  0  0  0
   -2.9512   -4.5906    1.6215 H   0  0  0  0  0  0  0  0  0  0  0  0
   -0.7580   -5.0500    2.7530 H   0  0  0  0  0  0  0  0  0  0  0  0
    1.3905   -2.7020    0.1019 H   0  0  0  0  0  0  0  0  0  0  0  0
   -1.4804    2.6974   -1.0041 H   0  0  0  0  0  0  0  0  0  0  0  0
   -1.8373    1.5342   -2.2856 H   0  0  0  0  0  0  0  0  0  0  0  0
   -2.2002    1.1309   -0.5929 H   0  0  0  0  0  0  0  0  0  0  0  0
    4.1401   -0.3414    0.0682 H   0  0  0  0  0  0  0  0  0  0  0  0
    6.2225   -1.2244   -0.0435 H   0  0  0  0  0  0  0  0  0  0  0  0
    7.3410   -1.4662    1.3042 H   0  0  0  0  0  0  0  0  0  0  0  0
    5.6054   -1.4422    1.6400 H   0  0  0  0  0  0  0  0  0  0  0  0
  1  2  1  0
  2  3  1  0
  3  4  2  0
  4  5  1  0
  5  6  2  0
  6  7  1  0
  7  8  2  0
  8  9  1  0
  9 10  1  0
 10 11  1  0
 11 12  1  0
 12 13  1  0
 13 14  1  0
 14 15  1  0
 15 16  2  0
 16 17  1  0
 17 18  2  0
 18 19  1  0
 19 20  1  0
 19 21  2  0
 12 22  2  0
 22 23  1  0
 23 24  2  0
 24 25  1  0
 25 26  2  0
 26 27  1  0
 27 28  2  0
  9 29  2  0
 29 30  1  0
 29 31  1  0
  6 32  1  0
 32 33  2  0
 33 34  1  0
 34 35  1  0
 33  3  1  0
 31  7  1  0
 28 11  1  0
 21 15  1  0
 28 23  1  0
  1 36  1  0
  1 37  1  0
  1 38  1  0
  4 39  1  0
  5 40  1  0
 10 41  1  0
 10 42  1  0
 14 43  1  0
 14 44  1  0
 16 45  1  0
 17 46  1  0
 18 47  1  0
 21 48  1  0
 24 49  1  0
 25 50  1  0
 27 51  1  0
 30 52  1  0
 30 53  1  0
 30 54  1  0
 32 55  1  0
 35 56  1  0
 35 57  1  0
 35 58  1  0
M  END
$$$$
