
     RDKit          3D

 57 60  0  0  0  0  0  0  0  0999 V2000
   -7.4743   -0.0025    3.5167 C   0  0  0  0  0  0  0  0  0  0  0  0
   -6.3796    0.8763    3.2879 O   0  0  0  0  0  0  0  0  0  0  0  0
   -5.4974    0.5228    2.3032 C   0  0  0  0  0  0  0  0  0  0  0  0
   -5.5840   -0.6105    1.4959 C   0  0  0  0  0  0  0  0  0  0  0  0
   -4.6139   -0.8580    0.5176 C   0  0  0  0  0  0  0  0  0  0  0  0
   -3.5506    0.0261    0.3421 C   0  0  0  0  0  0  0  0  0  0  0  0
   -2.5290   -0.1482   -0.6165 N   0  0  0  0  0  0  0  0  0  0  0  0
   -2.3316   -1.2010   -1.4860 C   0  0  0  0  0  0  0  0  0  0  0  0
   -3.0656   -2.1807   -1.6076 O   0  0  0  0  0  0  0  0  0  0  0  0
   -1.1292   -1.0419   -2.4017 C   0  0  0  0  0  0  0  0  0  0  0  0
    0.0667   -0.5611   -1.7215 N   0  0  0  0  0  0  0  0  0  0  0  0
    0.6219    0.6750   -1.9161 C   0  0  0  0  0  0  0  0  0  0  0  0
    1.6913    0.7989   -1.0501 C   0  0  0  0  0  0  0  0  0  0  0  0
    2.6970    2.2011   -0.9162 S   0  0  0  0  0  6  0  0  0  0  0  0
    3.2060    2.2073    0.4406 O   0  0  0  0  0  0  0  0  0  0  0  0
    1.8468    3.2790   -1.3928 O   0  0  0  0  0  0  0  0  0  0  0  0
    4.0110    1.9712   -2.1002 C   0  0  0  0  0  0  0  0  0  0  0  0
    4.8505    0.7628   -1.7875 C   0  0  0  0  0  0  0  0  0  0  0  0
    4.6585   -0.4381   -2.4864 C   0  0  0  0  0  0  0  0  0  0  0  0
    5.4315   -1.5615   -2.1894 C   0  0  0  0  0  0  0  0  0  0  0  0
    6.4085   -1.4957   -1.1988 C   0  0  0  0  0  0  0  0  0  0  0  0
    6.6150   -0.3064   -0.5039 C   0  0  0  0  0  0  0  0  0  0  0  0
    5.8421    0.8179   -0.7969 C   0  0  0  0  0  0  0  0  0  0  0  0
    1.8104   -0.4212   -0.3229 C   0  0  0  0  0  0  0  0  0  0  0  0
    2.6817   -0.9087    0.6756 C   0  0  0  0  0  0  0  0  0  0  0  0
    2.5179   -2.2042    1.1762 C   0  0  0  0  0  0  0  0  0  0  0  0
    1.4971   -3.0199    0.7040 C   0  0  0  0  0  0  0  0  0  0  0  0
    0.6136   -2.5663   -0.2778 C   0  0  0  0  0  0  0  0  0  0  0  0
    0.7884   -1.2655   -0.7791 C   0  0  0  0  0  0  0  0  0  0  0  0
   -3.4581    1.1724    1.1580 C   0  0  0  0  0  0  0  0  0  0  0  0
   -2.3764    1.9849    0.9043 O   0  0  0  0  0  0  0  0  0  0  0  0
   -2.1491    3.0597    1.8086 C   0  0  0  0  0  0  0  0  0  0  0  0
   -4.4326    1.4129    2.1295 C   0  0  0  0  0  0  0  0  0  0  0  0
   -8.0739    0.4158    4.3309 H   0  0  0  0  0  0  0  0  0  0  0  0
   -8.1162   -0.0717    2.6323 H   0  0  0  0  0  0  0  0  0  0  0  0
   -7.1274   -0.9917    3.8330 H   0  0  0  0  0  0  0  0  0  0  0  0
   -6.3932   -1.3264    1.5963 H   0  0  0  0  0  0  0  0  0  0  0  0
   -4.7195   -1.7504   -0.0907 H   0  0  0  0  0  0  0  0  0  0  0  0
   -1.8303    0.5916   -0.5769 H   0  0  0  0  0  0  0  0  0  0  0  0
   -1.3833   -0.3408   -3.2036 H   0  0  0  0  0  0  0  0  0  0  0  0
   -0.8740   -2.0077   -2.8512 H   0  0  0  0  0  0  0  0  0  0  0  0
    0.2071    1.3828   -2.6243 H   0  0  0  0  0  0  0  0  0  0  0  0
    4.6256    2.8777   -2.0823 H   0  0  0  0  0  0  0  0  0  0  0  0
    3.5585    1.9021   -3.0952 H   0  0  0  0  0  0  0  0  0  0  0  0
    3.8977   -0.5172   -3.2601 H   0  0  0  0  0  0  0  0  0  0  0  0
    5.2668   -2.4919   -2.7271 H   0  0  0  0  0  0  0  0  0  0  0  0
    7.0067   -2.3728   -0.9658 H   0  0  0  0  0  0  0  0  0  0  0  0
    7.3747   -0.2553    0.2720 H   0  0  0  0  0  0  0  0  0  0  0  0
    6.0121    1.7342   -0.2334 H   0  0  0  0  0  0  0  0  0  0  0  0
    3.4852   -0.2879    1.0641 H   0  0  0  0  0  0  0  0  0  0  0  0
    3.1950   -2.5706    1.9438 H   0  0  0  0  0  0  0  0  0  0  0  0
    1.3790   -4.0227    1.1083 H   0  0  0  0  0  0  0  0  0  0  0  0
   -0.1864   -3.2121   -0.6287 H   0  0  0  0  0  0  0  0  0  0  0  0
   -1.2180    3.5527    1.5127 H   0  0  0  0  0  0  0  0  0  0  0  0
   -2.0225    2.6960    2.8336 H   0  0  0  0  0  0  0  0  0  0  0  0
   -2.9525    3.8007    1.7462 H   0  0  0  0  0  0  0  0  0  0  0  0
   -4.3956    2.2886    2.7687 H   0  0  0  0  0  0  0  0  0  0  0  0
  1  2  1  0
  2  3  1  0
  3  4  2  0
  4  5  1  0
  5  6  2  0
  6  7  1  0
  7  8  1  0
  8  9  2  0
  8 10  1  0
 10 11  1  0
 11 12  1  0
 12 13  2  0
 13 14  1  0
 14 15  2  0
 14 16  2  0
 14 17  1  0
 17 18  1  0
 18 19  2  0
 19 20  1  0
 20 21  2  0
 21 22  1  0
 22 23  2  0
 13 24  1  0
 24 25  2  0
 25 26  1  0
 26 27  2  0
 27 28  1  0
 28 29  2  0
  6 30  1  0
 30 31  1  0
 31 32  1  0
 30 33  2  0
 33  3  1  0
 29 11  1  0
 23 18  1  0
 29 24  1  0
  1 34  1  0
  1 35  1  0
  1 36  1  0
  4 37  1  0
  5 38  1  0
  7 39  1  0
 10 40  1  0
 10 41  1  0
 12 42  1  0
 17 43  1  0
 17 44  1  0
 19 45  1  0
 20 46  1  0
 21 47  1  0
 22 48  1  0
 23 49  1  0
 25 50  1  0
 26 51  1  0
 27 52  1  0
 28 53  1  0
 32 54  1  0
 32 55  1  0
 32 56  1  0
 33 57  1  0
M  END
$$$$
