
     RDKit          3D

 49 52  0  0  0  0  0  0  0  0999 V2000
   -2.3188    3.7671   -0.0524 O   0  0  0  0  0  0  0  0  0  0  0  0
   -2.0773    3.2501    1.0207 C   0  0  0  0  0  0  0  0  0  0  0  0
   -1.5930    3.9765    2.0471 O   0  0  0  0  0  0  0  0  0  0  0  0
   -2.2218    1.8182    1.3886 C   0  0  0  0  0  0  0  0  0  0  0  0
   -2.6935    1.5441    2.6905 C   0  0  0  0  0  0  0  0  0  0  0  0
   -3.0251    0.2475    3.0729 C   0  0  0  0  0  0  0  0  0  0  0  0
   -2.9252   -0.7800    2.1455 C   0  0  0  0  0  0  0  0  0  0  0  0
   -2.4604   -0.5117    0.8487 C   0  0  0  0  0  0  0  0  0  0  0  0
   -2.4369   -1.6225   -0.1312 C   0  0  0  0  0  0  0  0  0  0  0  0
   -2.6539   -2.7766    0.2239 O   0  0  0  0  0  0  0  0  0  0  0  0
   -2.1707   -1.3063   -1.5482 C   0  0  0  0  0  0  0  0  0  0  0  0
   -2.3614   -2.2892   -2.5283 C   0  0  0  0  0  0  0  0  0  0  0  0
   -2.1094   -1.9901   -3.8646 C   0  0  0  0  0  0  0  0  0  0  0  0
   -1.6731   -0.7151   -4.2150 C   0  0  0  0  0  0  0  0  0  0  0  0
   -1.4757    0.2592   -3.2298 C   0  0  0  0  0  0  0  0  0  0  0  0
   -1.7037   -0.0241   -1.8739 C   0  0  0  0  0  0  0  0  0  0  0  0
   -1.4984    0.9395   -0.8533 N   0  0  0  0  0  0  0  0  0  0  0  0
   -0.2286    1.7134   -0.9720 C   0  0  0  0  0  0  0  0  0  0  0  0
    1.0530    0.8480   -1.0036 C   0  0  0  0  0  0  0  0  0  0  0  0
    2.1720    1.7007   -1.3037 O   0  0  0  0  0  0  0  0  0  0  0  0
    1.3132    0.1251    0.3358 C   0  0  0  0  0  0  0  0  0  0  0  0
    2.6488   -0.5070    0.3283 N   0  0  0  0  0  0  0  0  0  0  0  0
    2.6047   -1.8855    0.8311 C   0  0  0  0  0  0  0  0  0  0  0  0
    4.0701   -2.2042    1.0769 C   0  0  0  0  0  0  0  0  0  0  0  0
    4.7203   -0.8580    1.3724 C   0  0  0  0  0  0  0  0  0  0  0  0
    3.6035    0.1647    1.2201 C   0  0  0  0  0  0  0  0  0  0  0  0
   -2.0361    0.7759    0.4505 C   0  0  0  0  0  0  0  0  0  0  0  0
   -1.5353    4.8849    1.6829 H   0  0  0  0  0  0  0  0  0  0  0  0
   -2.8390    2.3529    3.4055 H   0  0  0  0  0  0  0  0  0  0  0  0
   -3.3978    0.0473    4.0747 H   0  0  0  0  0  0  0  0  0  0  0  0
   -3.2245   -1.7892    2.4230 H   0  0  0  0  0  0  0  0  0  0  0  0
   -2.7097   -3.2816   -2.2495 H   0  0  0  0  0  0  0  0  0  0  0  0
   -2.2615   -2.7465   -4.6308 H   0  0  0  0  0  0  0  0  0  0  0  0
   -1.4913   -0.4721   -5.2590 H   0  0  0  0  0  0  0  0  0  0  0  0
   -1.1608    1.2505   -3.5460 H   0  0  0  0  0  0  0  0  0  0  0  0
   -0.0976    2.4362   -0.1610 H   0  0  0  0  0  0  0  0  0  0  0  0
   -0.2642    2.3436   -1.8695 H   0  0  0  0  0  0  0  0  0  0  0  0
    1.0072    0.1098   -1.8118 H   0  0  0  0  0  0  0  0  0  0  0  0
    2.9460    1.1110   -1.1921 H   0  0  0  0  0  0  0  0  0  0  0  0
    1.2216    0.8354    1.1682 H   0  0  0  0  0  0  0  0  0  0  0  0
    0.5326   -0.6316    0.4776 H   0  0  0  0  0  0  0  0  0  0  0  0
    2.0462   -1.9564    1.7730 H   0  0  0  0  0  0  0  0  0  0  0  0
    2.1594   -2.5751    0.1056 H   0  0  0  0  0  0  0  0  0  0  0  0
    4.5264   -2.6481    0.1840 H   0  0  0  0  0  0  0  0  0  0  0  0
    4.1967   -2.9093    1.9047 H   0  0  0  0  0  0  0  0  0  0  0  0
    5.5333   -0.6747    0.6564 H   0  0  0  0  0  0  0  0  0  0  0  0
    5.1478   -0.8286    2.3803 H   0  0  0  0  0  0  0  0  0  0  0  0
    3.1651    0.3760    2.2058 H   0  0  0  0  0  0  0  0  0  0  0  0
    3.9773    1.1056    0.8013 H   0  0  0  0  0  0  0  0  0  0  0  0
  1  2  2  0
  2  3  1  0
  2  4  1  0
  4  5  2  0
  5  6  1  0
  6  7  2  0
  7  8  1  0
  8  9  1  0
  9 10  2  0
  9 11  1  0
 11 12  2  0
 12 13  1  0
 13 14  2  0
 14 15  1  0
 15 16  2  0
 16 17  1  0
 17 18  1  0
 18 19  1  0
 19 20  1  0
 19 21  1  0
 21 22  1  0
 22 23  1  0
 23 24  1  0
 24 25  1  0
 25 26  1  0
 17 27  1  0
 27  4  1  0
 27  8  2  0
 16 11  1  0
 26 22  1  0
  3 28  1  0
  5 29  1  0
  6 30  1  0
  7 31  1  0
 12 32  1  0
 13 33  1  0
 14 34  1  0
 15 35  1  0
 18 36  1  0
 18 37  1  0
 19 38  1  0
 20 39  1  0
 21 40  1  0
 21 41  1  0
 23 42  1  0
 23 43  1  0
 24 44  1  0
 24 45  1  0
 25 46  1  0
 25 47  1  0
 26 48  1  0
 26 49  1  0
M  END
$$$$
