
     RDKit          3D

 64 67  0  0  0  0  0  0  0  0999 V2000
    1.1317   -2.9599   -7.0157 C   0  0  0  0  0  0  0  0  0  0  0  0
    0.7146   -3.6197   -5.8276 O   0  0  0  0  0  0  0  0  0  0  0  0
    1.2300   -3.1575   -4.6492 C   0  0  0  0  0  0  0  0  0  0  0  0
    0.7571   -3.8071   -3.5083 C   0  0  0  0  0  0  0  0  0  0  0  0
    1.2014   -3.4373   -2.2334 C   0  0  0  0  0  0  0  0  0  0  0  0
    2.1311   -2.4100   -2.0849 C   0  0  0  0  0  0  0  0  0  0  0  0
    2.6318   -1.9740   -0.8446 N   0  0  0  0  0  0  0  0  0  0  0  0
    2.2783   -2.4122    0.4184 C   0  0  0  0  0  0  0  0  0  0  0  0
    1.4851   -3.3097    0.6893 O   0  0  0  0  0  0  0  0  0  0  0  0
    3.0510   -1.7058    1.5423 C   0  0  0  0  0  0  0  0  0  0  0  0
    3.7421   -0.4672    1.1426 N   0  0  0  0  0  0  0  0  0  0  0  0
    5.1964   -0.4949    1.1886 C   0  0  0  0  0  0  0  0  0  0  0  0
    3.1145    0.7634    0.9946 C   0  0  0  0  0  0  0  0  0  0  0  0
    3.7134    1.8225    0.8329 O   0  0  0  0  0  0  0  0  0  0  0  0
    1.6398    0.7625    0.9143 C   0  0  0  0  0  0  0  0  0  0  0  0
    0.8883    0.7023    2.0225 C   0  0  0  0  0  0  0  0  0  0  0  0
   -0.5313    0.6615    1.9887 C   0  0  0  0  0  0  0  0  0  0  0  0
   -1.2561   -0.4813    2.2237 C   0  0  0  0  0  0  0  0  0  0  0  0
   -2.5793   -0.1571    2.0330 N   0  0  0  0  0  0  0  0  0  0  0  0
   -3.7128   -1.0147    2.1302 C   0  0  0  0  0  0  0  0  0  0  0  0
   -3.5745   -2.3724    2.4486 C   0  0  0  0  0  0  0  0  0  0  0  0
   -4.7059   -3.1886    2.5419 C   0  0  0  0  0  0  0  0  0  0  0  0
   -5.9758   -2.6590    2.3197 C   0  0  0  0  0  0  0  0  0  0  0  0
   -6.1205   -1.3118    1.9934 C   0  0  0  0  0  0  0  0  0  0  0  0
   -4.9946   -0.4909    1.9002 C   0  0  0  0  0  0  0  0  0  0  0  0
   -2.7256    1.1532    1.7132 N   0  0  0  0  0  0  0  0  0  0  0  0
   -1.4861    1.6699    1.6827 C   0  0  0  0  0  0  0  0  0  0  0  0
   -1.2809    3.0845    1.3514 C   0  0  0  0  0  0  0  0  0  0  0  0
   -2.1546    3.7299    0.4642 C   0  0  0  0  0  0  0  0  0  0  0  0
   -1.9763    5.0768    0.1332 C   0  0  0  0  0  0  0  0  0  0  0  0
   -0.9160    5.8063    0.6803 C   0  0  0  0  0  0  0  0  0  0  0  0
   -0.7448    7.2594    0.3514 C   0  0  0  0  0  0  0  0  0  0  0  0
   -0.0558    5.1755    1.5846 C   0  0  0  0  0  0  0  0  0  0  0  0
   -0.2354    3.8273    1.9155 C   0  0  0  0  0  0  0  0  0  0  0  0
    2.6077   -1.7607   -3.2300 C   0  0  0  0  0  0  0  0  0  0  0  0
    2.1594   -2.1298   -4.5050 C   0  0  0  0  0  0  0  0  0  0  0  0
    0.6251   -3.4388   -7.8594 H   0  0  0  0  0  0  0  0  0  0  0  0
    2.2110   -3.0673   -7.1707 H   0  0  0  0  0  0  0  0  0  0  0  0
    0.8367   -1.9045   -7.0061 H   0  0  0  0  0  0  0  0  0  0  0  0
    0.0329   -4.6134   -3.6085 H   0  0  0  0  0  0  0  0  0  0  0  0
    0.8008   -3.9776   -1.3821 H   0  0  0  0  0  0  0  0  0  0  0  0
    3.3131   -1.2222   -0.8655 H   0  0  0  0  0  0  0  0  0  0  0  0
    2.3579   -1.4867    2.3584 H   0  0  0  0  0  0  0  0  0  0  0  0
    3.7934   -2.4181    1.9212 H   0  0  0  0  0  0  0  0  0  0  0  0
    5.6342    0.4022    0.7427 H   0  0  0  0  0  0  0  0  0  0  0  0
    5.5525   -1.3682    0.6350 H   0  0  0  0  0  0  0  0  0  0  0  0
    5.5107   -0.5634    2.2339 H   0  0  0  0  0  0  0  0  0  0  0  0
    1.2154    0.8458   -0.0795 H   0  0  0  0  0  0  0  0  0  0  0  0
    1.3625    0.6378    2.9993 H   0  0  0  0  0  0  0  0  0  0  0  0
   -0.9378   -1.4832    2.4699 H   0  0  0  0  0  0  0  0  0  0  0  0
   -2.6068   -2.8274    2.6376 H   0  0  0  0  0  0  0  0  0  0  0  0
   -4.5955   -4.2409    2.7924 H   0  0  0  0  0  0  0  0  0  0  0  0
   -6.8534   -3.2956    2.3960 H   0  0  0  0  0  0  0  0  0  0  0  0
   -7.1081   -0.8954    1.8217 H   0  0  0  0  0  0  0  0  0  0  0  0
   -5.1322    0.5588    1.6449 H   0  0  0  0  0  0  0  0  0  0  0  0
   -2.9869    3.1829    0.0241 H   0  0  0  0  0  0  0  0  0  0  0  0
   -2.6743    5.5488   -0.5542 H   0  0  0  0  0  0  0  0  0  0  0  0
    0.3049    7.5592    0.4359 H   0  0  0  0  0  0  0  0  0  0  0  0
   -1.0582    7.4652   -0.6783 H   0  0  0  0  0  0  0  0  0  0  0  0
   -1.3433    7.8710    1.0341 H   0  0  0  0  0  0  0  0  0  0  0  0
    0.7618    5.7281    2.0426 H   0  0  0  0  0  0  0  0  0  0  0  0
    0.4458    3.3790    2.6327 H   0  0  0  0  0  0  0  0  0  0  0  0
    3.3328   -0.9547   -3.1505 H   0  0  0  0  0  0  0  0  0  0  0  0
    2.5576   -1.5946   -5.3601 H   0  0  0  0  0  0  0  0  0  0  0  0
  1  2  1  0
  2  3  1  0
  3  4  2  0
  4  5  1  0
  5  6  2  0
  6  7  1  0
  7  8  1  0
  8  9  2  0
  8 10  1  0
 10 11  1  0
 11 12  1  0
 11 13  1  0
 13 14  2  0
 13 15  1  0
 15 16  2  3
 16 17  1  0
 17 18  2  0
 18 19  1  0
 19 20  1  0
 20 21  2  0
 21 22  1  0
 22 23  2  0
 23 24  1  0
 24 25  2  0
 19 26  1  0
 26 27  2  0
 27 28  1  0
 28 29  2  0
 29 30  1  0
 30 31  2  0
 31 32  1  0
 31 33  1  0
 33 34  2  0
  6 35  1  0
 35 36  2  0
 36  3  1  0
 27 17  1  0
 34 28  1  0
 25 20  1  0
  1 37  1  0
  1 38  1  0
  1 39  1  0
  4 40  1  0
  5 41  1  0
  7 42  1  0
 10 43  1  0
 10 44  1  0
 12 45  1  0
 12 46  1  0
 12 47  1  0
 15 48  1  0
 16 49  1  0
 18 50  1  0
 21 51  1  0
 22 52  1  0
 23 53  1  0
 24 54  1  0
 25 55  1  0
 29 56  1  0
 30 57  1  0
 32 58  1  0
 32 59  1  0
 32 60  1  0
 33 61  1  0
 34 62  1  0
 35 63  1  0
 36 64  1  0
M  END
$$$$
