
     RDKit          3D

 65 68  0  0  0  0  0  0  0  0999 V2000
    8.0584   -0.5351    0.9832 C   0  0  0  0  0  0  0  0  0  0  0  0
    6.8904    0.0905    1.6257 C   0  0  0  0  0  0  0  0  0  0  0  0
    5.5429   -0.1722    1.6222 C   0  0  0  0  0  0  0  0  0  0  0  0
    4.9850    0.8201    2.4567 C   0  0  0  0  0  0  0  0  0  0  0  0
    3.6700    1.0362    2.8035 N   0  0  0  0  0  0  0  0  0  0  0  0
    2.6038    0.2717    2.3891 C   0  0  0  0  0  0  0  0  0  0  0  0
    2.6708   -0.7341    1.6892 O   0  0  0  0  0  0  0  0  0  0  0  0
    1.2856    0.7907    2.9386 C   0  0  0  0  0  0  0  0  0  0  0  0
    0.0918    0.0584    2.3307 C   0  0  0  0  0  0  0  0  0  0  0  0
   -0.0869    0.4101    0.8601 C   0  0  0  0  0  0  0  0  0  0  0  0
    0.3873    1.4561    0.4062 O   0  0  0  0  0  0  0  0  0  0  0  0
   -0.8533   -0.4350    0.0702 N   0  0  0  0  0  0  0  0  0  0  0  0
   -1.7802   -1.4190    0.6354 C   0  0  0  0  0  0  0  0  0  0  0  0
   -1.1906   -2.7990    0.6931 C   0  0  0  0  0  0  0  0  0  0  0  0
    0.1250   -3.2205    0.6283 C   0  0  0  0  0  0  0  0  0  0  0  0
    0.2565   -4.6347    0.7385 C   0  0  0  0  0  0  0  0  0  0  0  0
   -0.9633   -5.2541    0.8826 C   0  0  0  0  0  0  0  0  0  0  0  0
   -2.2536   -4.1351    0.8927 S   0  0  0  0  0  0  0  0  0  0  0  0
   -0.9821   -0.1148   -1.3772 C   0  0  0  0  0  0  0  0  0  0  0  0
   -2.1950    0.8368   -1.6264 C   0  0  0  0  0  0  0  0  0  0  0  0
   -3.0612    0.6652   -2.4800 O   0  0  0  0  0  0  0  0  0  0  0  0
   -2.1727    1.9779   -0.8340 N   0  0  0  0  0  0  0  0  0  0  0  0
   -3.1218    3.0516   -1.0223 C   0  0  0  0  0  0  0  0  0  0  0  0
   -2.7976    4.2672   -0.1613 C   0  0  0  0  0  0  0  0  0  0  0  0
   -4.0910    5.0685   -0.1733 C   0  0  0  0  0  0  0  0  0  0  0  0
   -5.2125    4.0368   -0.2918 C   0  0  0  0  0  0  0  0  0  0  0  0
   -4.5347    2.6949   -0.5610 C   0  0  0  0  0  0  0  0  0  0  0  0
   -0.8753   -1.3455   -2.2728 C   0  0  0  0  0  0  0  0  0  0  0  0
   -1.9861   -2.0867   -2.7039 C   0  0  0  0  0  0  0  0  0  0  0  0
   -1.8234   -3.2293   -3.4910 C   0  0  0  0  0  0  0  0  0  0  0  0
   -0.5485   -3.6560   -3.8529 C   0  0  0  0  0  0  0  0  0  0  0  0
    0.5665   -2.9400   -3.4294 C   0  0  0  0  0  0  0  0  0  0  0  0
    0.4052   -1.7974   -2.6439 C   0  0  0  0  0  0  0  0  0  0  0  0
    5.9334    1.6347    2.9322 N   0  0  0  0  0  0  0  0  0  0  0  0
    7.1297    1.1732    2.4109 O   0  0  0  0  0  0  0  0  0  0  0  0
    8.4325   -1.3642    1.5921 H   0  0  0  0  0  0  0  0  0  0  0  0
    8.8697    0.1857    0.8476 H   0  0  0  0  0  0  0  0  0  0  0  0
    7.7909   -0.9288   -0.0025 H   0  0  0  0  0  0  0  0  0  0  0  0
    5.0421   -0.9677    1.0917 H   0  0  0  0  0  0  0  0  0  0  0  0
    3.5340    1.8339    3.4108 H   0  0  0  0  0  0  0  0  0  0  0  0
    1.2189    1.8699    2.7592 H   0  0  0  0  0  0  0  0  0  0  0  0
    1.2917    0.6274    4.0223 H   0  0  0  0  0  0  0  0  0  0  0  0
    0.2155   -1.0191    2.4598 H   0  0  0  0  0  0  0  0  0  0  0  0
   -0.8178    0.3682    2.8570 H   0  0  0  0  0  0  0  0  0  0  0  0
   -2.7063   -1.4047    0.0504 H   0  0  0  0  0  0  0  0  0  0  0  0
   -2.0628   -1.1148    1.6495 H   0  0  0  0  0  0  0  0  0  0  0  0
    0.9663   -2.5483    0.5028 H   0  0  0  0  0  0  0  0  0  0  0  0
    1.1984   -5.1677    0.7050 H   0  0  0  0  0  0  0  0  0  0  0  0
   -1.1593   -6.3125    0.9826 H   0  0  0  0  0  0  0  0  0  0  0  0
   -0.1233    0.5124   -1.6602 H   0  0  0  0  0  0  0  0  0  0  0  0
   -1.2771    2.1963   -0.3963 H   0  0  0  0  0  0  0  0  0  0  0  0
   -3.1305    3.3291   -2.0840 H   0  0  0  0  0  0  0  0  0  0  0  0
   -1.9496    4.8388   -0.5498 H   0  0  0  0  0  0  0  0  0  0  0  0
   -2.5529    3.9647    0.8648 H   0  0  0  0  0  0  0  0  0  0  0  0
   -4.1114    5.7353   -1.0436 H   0  0  0  0  0  0  0  0  0  0  0  0
   -4.1961    5.6908    0.7207 H   0  0  0  0  0  0  0  0  0  0  0  0
   -5.8867    4.3062   -1.1124 H   0  0  0  0  0  0  0  0  0  0  0  0
   -5.8132    3.9909    0.6229 H   0  0  0  0  0  0  0  0  0  0  0  0
   -5.0806    2.1023   -1.3023 H   0  0  0  0  0  0  0  0  0  0  0  0
   -4.5028    2.1062    0.3654 H   0  0  0  0  0  0  0  0  0  0  0  0
   -2.9970   -1.7877   -2.4358 H   0  0  0  0  0  0  0  0  0  0  0  0
   -2.6958   -3.7888   -3.8174 H   0  0  0  0  0  0  0  0  0  0  0  0
   -0.4248   -4.5479   -4.4607 H   0  0  0  0  0  0  0  0  0  0  0  0
    1.5638   -3.2758   -3.7008 H   0  0  0  0  0  0  0  0  0  0  0  0
    1.2922   -1.2625   -2.3085 H   0  0  0  0  0  0  0  0  0  0  0  0
  1  2  1  0
  2  3  2  0
  3  4  1  0
  4  5  1  0
  5  6  1  0
  6  7  2  0
  6  8  1  0
  8  9  1  0
  9 10  1  0
 10 11  2  0
 10 12  1  0
 12 13  1  0
 13 14  1  0
 14 15  2  0
 15 16  1  0
 16 17  2  0
 17 18  1  0
 12 19  1  0
 19 20  1  0
 20 21  2  0
 20 22  1  0
 22 23  1  0
 23 24  1  0
 24 25  1  0
 25 26  1  0
 26 27  1  0
 19 28  1  0
 28 29  2  0
 29 30  1  0
 30 31  2  0
 31 32  1  0
 32 33  2  0
  4 34  2  0
 34 35  1  0
 35  2  1  0
 18 14  1  0
 27 23  1  0
 33 28  1  0
  1 36  1  0
  1 37  1  0
  1 38  1  0
  3 39  1  0
  5 40  1  0
  8 41  1  0
  8 42  1  0
  9 43  1  0
  9 44  1  0
 13 45  1  0
 13 46  1  0
 15 47  1  0
 16 48  1  0
 17 49  1  0
 19 50  1  0
 22 51  1  0
 23 52  1  0
 24 53  1  0
 24 54  1  0
 25 55  1  0
 25 56  1  0
 26 57  1  0
 26 58  1  0
 27 59  1  0
 27 60  1  0
 29 61  1  0
 30 62  1  0
 31 63  1  0
 32 64  1  0
 33 65  1  0
M  END
$$$$
