
     RDKit          3D

 40 42  0  0  0  0  0  0  0  0999 V2000
   -6.1571   -0.2651   -0.9759 C   0  0  0  0  0  0  0  0  0  0  0  0
   -5.6727   -0.2750    0.4856 C   0  0  0  0  0  0  0  0  0  0  0  0
   -6.0449    1.0555    1.1651 C   0  0  0  0  0  0  0  0  0  0  0  0
   -6.4126   -1.4107    1.2249 C   0  0  0  0  0  0  0  0  0  0  0  0
   -4.1704   -0.5089    0.5511 C   0  0  0  0  0  0  0  0  0  0  0  0
   -3.5964   -1.5334    1.1529 N   0  0  0  0  0  0  0  0  0  0  0  0
   -2.2181   -1.5034    1.0622 N   0  0  0  0  0  0  0  0  0  0  0  0
   -1.7981   -0.4596    0.3963 C   0  0  0  0  0  0  0  0  0  0  0  0
   -0.5315   -0.0521    0.0785 N   0  0  0  0  0  0  0  0  0  0  0  0
    0.5876   -0.7692    0.4622 C   0  0  0  0  0  0  0  0  0  0  0  0
    0.5880   -1.8122    1.1055 O   0  0  0  0  0  0  0  0  0  0  0  0
    1.8780   -0.0939   -0.0220 C   0  0  0  0  0  0  0  0  0  0  0  0
    3.0316   -0.8220    0.3666 O   0  0  0  0  0  0  0  0  0  0  0  0
    4.2473   -0.3187   -0.0076 C   0  0  0  0  0  0  0  0  0  0  0  0
    5.3479   -1.0932    0.4125 C   0  0  0  0  0  0  0  0  0  0  0  0
    6.6591   -0.7134    0.1095 C   0  0  0  0  0  0  0  0  0  0  0  0
    6.8332    0.4441   -0.6136 C   0  0  0  0  0  0  0  0  0  0  0  0
    5.7636    1.2033   -1.0259 C   0  0  0  0  0  0  0  0  0  0  0  0
    4.4586    0.8520   -0.7407 C   0  0  0  0  0  0  0  0  0  0  0  0
    6.1497    2.3051   -1.7257 O   0  0  0  0  0  0  0  0  0  0  0  0
    7.5849    2.1499   -1.7052 C   0  0  0  0  0  0  0  0  0  0  0  0
    8.0246    0.9707   -1.0009 O   0  0  0  0  0  0  0  0  0  0  0  0
   -3.0309    0.5718   -0.1753 S   0  0  0  0  0  0  0  0  0  0  0  0
   -7.2476   -0.1667   -1.0295 H   0  0  0  0  0  0  0  0  0  0  0  0
   -5.7291    0.5689   -1.5432 H   0  0  0  0  0  0  0  0  0  0  0  0
   -5.8795   -1.1915   -1.4926 H   0  0  0  0  0  0  0  0  0  0  0  0
   -5.6859    1.0867    2.2007 H   0  0  0  0  0  0  0  0  0  0  0  0
   -5.6146    1.9167    0.6418 H   0  0  0  0  0  0  0  0  0  0  0  0
   -7.1315    1.1986    1.1839 H   0  0  0  0  0  0  0  0  0  0  0  0
   -6.1968   -2.3876    0.7759 H   0  0  0  0  0  0  0  0  0  0  0  0
   -6.1179   -1.4598    2.2800 H   0  0  0  0  0  0  0  0  0  0  0  0
   -7.4986   -1.2649    1.1919 H   0  0  0  0  0  0  0  0  0  0  0  0
   -0.4517    0.8013   -0.4521 H   0  0  0  0  0  0  0  0  0  0  0  0
    1.9036    0.9110    0.4173 H   0  0  0  0  0  0  0  0  0  0  0  0
    1.8232   -0.0348   -1.1161 H   0  0  0  0  0  0  0  0  0  0  0  0
    5.1714   -2.0034    0.9832 H   0  0  0  0  0  0  0  0  0  0  0  0
    7.5054   -1.3085    0.4322 H   0  0  0  0  0  0  0  0  0  0  0  0
    3.6571    1.4876   -1.0908 H   0  0  0  0  0  0  0  0  0  0  0  0
    8.0254    3.0308   -1.2240 H   0  0  0  0  0  0  0  0  0  0  0  0
    7.9460    2.0964   -2.7388 H   0  0  0  0  0  0  0  0  0  0  0  0
  1  2  1  0
  2  3  1  0
  2  4  1  0
  2  5  1  0
  5  6  2  0
  6  7  1  0
  7  8  2  0
  8  9  1  0
  9 10  1  0
 10 11  2  0
 10 12  1  0
 12 13  1  0
 13 14  1  0
 14 15  2  0
 15 16  1  0
 16 17  2  0
 17 18  1  0
 18 19  2  0
 18 20  1  0
 20 21  1  0
 21 22  1  0
  8 23  1  0
 23  5  1  0
 19 14  1  0
 22 17  1  0
  1 24  1  0
  1 25  1  0
  1 26  1  0
  3 27  1  0
  3 28  1  0
  3 29  1  0
  4 30  1  0
  4 31  1  0
  4 32  1  0
  9 33  1  0
 12 34  1  0
 12 35  1  0
 15 36  1  0
 16 37  1  0
 19 38  1  0
 21 39  1  0
 21 40  1  0
M  END
$$$$
