
     RDKit          3D

 42 44  0  0  0  0  0  0  0  0999 V2000
   -2.0210    3.8081    1.2454 C   0  0  0  0  0  0  0  0  0  0  0  0
   -2.2519    3.1865   -0.1191 C   0  0  0  0  0  0  0  0  0  0  0  0
   -2.4775    1.7763    0.0117 O   0  0  0  0  0  0  0  0  0  0  0  0
   -1.3606    0.9912    0.0298 C   0  0  0  0  0  0  0  0  0  0  0  0
   -0.2159    1.4231   -0.0535 O   0  0  0  0  0  0  0  0  0  0  0  0
   -1.6720   -0.4293    0.1677 C   0  0  0  0  0  0  0  0  0  0  0  0
   -0.6948   -1.4272    0.2389 C   0  0  0  0  0  0  0  0  0  0  0  0
    0.6752   -1.2398    0.1863 N   0  0  0  0  0  0  0  0  0  0  0  0
    1.6763   -2.1899    0.2513 C   0  0  0  0  0  0  0  0  0  0  0  0
    1.5549   -3.4035    0.3698 O   0  0  0  0  0  0  0  0  0  0  0  0
    3.0128   -1.5695    0.1576 C   0  0  0  0  0  0  0  0  0  0  0  0
    4.2687   -2.2300    0.1850 C   0  0  0  0  0  0  0  0  0  0  0  0
    5.2087   -1.2349    0.0663 C   0  0  0  0  0  0  0  0  0  0  0  0
    4.5089   -0.0689   -0.0258 N   0  0  0  0  0  0  0  0  0  0  0  0
    5.0615    1.2652   -0.1631 C   0  0  0  0  0  0  0  0  0  0  0  0
    5.0604    1.7398   -1.6050 C   0  0  0  0  0  0  0  0  0  0  0  0
    3.1742   -0.2355    0.0298 N   0  0  0  0  0  0  0  0  0  0  0  0
   -1.3612   -2.9997    0.4120 S   0  0  0  0  0  0  0  0  0  0  0  0
   -2.9077   -2.3841    0.3902 C   0  0  0  0  0  0  0  0  0  0  0  0
   -2.9638   -1.0264    0.2536 C   0  0  0  0  0  0  0  0  0  0  0  0
   -4.3746   -0.5568    0.2441 C   0  0  0  0  0  0  0  0  0  0  0  0
   -5.1709   -1.8859    0.0529 C   0  0  0  0  0  0  0  0  0  0  0  0
   -4.2281   -3.0446    0.4960 C   0  0  0  0  0  0  0  0  0  0  0  0
   -1.1228    3.3980    1.7176 H   0  0  0  0  0  0  0  0  0  0  0  0
   -2.8601    3.5898    1.9141 H   0  0  0  0  0  0  0  0  0  0  0  0
   -1.9079    4.8928    1.1633 H   0  0  0  0  0  0  0  0  0  0  0  0
   -1.4220    3.3973   -0.8032 H   0  0  0  0  0  0  0  0  0  0  0  0
   -3.1542    3.6135   -0.5691 H   0  0  0  0  0  0  0  0  0  0  0  0
    1.0124   -0.2788    0.0843 H   0  0  0  0  0  0  0  0  0  0  0  0
    4.4430   -3.2931    0.2793 H   0  0  0  0  0  0  0  0  0  0  0  0
    6.2889   -1.2621    0.0384 H   0  0  0  0  0  0  0  0  0  0  0  0
    4.4684    1.9354    0.4689 H   0  0  0  0  0  0  0  0  0  0  0  0
    6.0826    1.2463    0.2330 H   0  0  0  0  0  0  0  0  0  0  0  0
    5.6494    1.0701   -2.2406 H   0  0  0  0  0  0  0  0  0  0  0  0
    5.4899    2.7439   -1.6751 H   0  0  0  0  0  0  0  0  0  0  0  0
    4.0433    1.7745   -2.0095 H   0  0  0  0  0  0  0  0  0  0  0  0
   -4.6297   -0.0919    1.2021 H   0  0  0  0  0  0  0  0  0  0  0  0
   -4.5863    0.1427   -0.5692 H   0  0  0  0  0  0  0  0  0  0  0  0
   -6.1174   -1.8858    0.6024 H   0  0  0  0  0  0  0  0  0  0  0  0
   -5.4091   -2.0076   -1.0122 H   0  0  0  0  0  0  0  0  0  0  0  0
   -4.4367   -3.3352    1.5307 H   0  0  0  0  0  0  0  0  0  0  0  0
   -4.3332   -3.9138   -0.1589 H   0  0  0  0  0  0  0  0  0  0  0  0
  1  2  1  0
  2  3  1  0
  3  4  1  0
  4  5  2  0
  4  6  1  0
  6  7  2  0
  7  8  1  0
  8  9  1  0
  9 10  2  0
  9 11  1  0
 11 12  1  0
 12 13  2  0
 13 14  1  0
 14 15  1  0
 15 16  1  0
 14 17  1  0
  7 18  1  0
 18 19  1  0
 19 20  2  0
 20 21  1  0
 21 22  1  0
 22 23  1  0
 20  6  1  0
 17 11  2  0
 23 19  1  0
  1 24  1  0
  1 25  1  0
  1 26  1  0
  2 27  1  0
  2 28  1  0
  8 29  1  0
 12 30  1  0
 13 31  1  0
 15 32  1  0
 15 33  1  0
 16 34  1  0
 16 35  1  0
 16 36  1  0
 21 37  1  0
 21 38  1  0
 22 39  1  0
 22 40  1  0
 23 41  1  0
 23 42  1  0
M  END
$$$$
