
     RDKit          3D

 34 36  0  0  0  0  0  0  0  0999 V2000
    0.2108   -1.3714   -1.8705 O   0  0  0  0  0  0  0  0  0  0  0  0
    0.4737   -0.7491   -0.8503 C   0  0  0  0  0  0  0  0  0  0  0  0
    1.8618   -0.7613   -0.3472 C   0  0  0  0  0  0  0  0  0  0  0  0
    2.4683   -1.9923   -0.0773 C   0  0  0  0  0  0  0  0  0  0  0  0
    3.7858   -2.0273    0.3842 C   0  0  0  0  0  0  0  0  0  0  0  0
    4.4912   -0.8355    0.5572 C   0  0  0  0  0  0  0  0  0  0  0  0
    6.1136   -0.8797    1.1273 Cl  0  0  0  0  0  0  0  0  0  0  0  0
    3.8950    0.3924    0.2642 C   0  0  0  0  0  0  0  0  0  0  0  0
    2.5773    0.4318   -0.1971 C   0  0  0  0  0  0  0  0  0  0  0  0
   -0.4771   -0.0583   -0.1446 N   0  0  0  0  0  0  0  0  0  0  0  0
   -0.3581    0.5575    1.1850 C   0  0  0  0  0  0  0  0  0  0  0  0
   -0.5227    2.0402    0.9597 C   0  0  0  0  0  0  0  0  0  0  0  0
   -1.8098    2.2673    0.6453 C   0  0  0  0  0  0  0  0  0  0  0  0
   -2.4878    0.9071    0.5904 C   0  0  0  0  0  0  0  0  0  0  0  0
   -1.7378    0.2836    1.7850 C   0  0  0  0  0  0  0  0  0  0  0  0
   -1.9184    0.0710   -0.6199 C   0  0  0  0  0  0  0  0  0  0  0  0
   -2.6999   -1.2362   -0.7700 C   0  0  0  0  0  0  0  0  0  0  0  0
   -2.5248   -2.0519    0.3000 F   0  0  0  0  0  0  0  0  0  0  0  0
   -4.0336   -0.9914   -0.8326 F   0  0  0  0  0  0  0  0  0  0  0  0
   -2.3874   -1.9641   -1.8568 F   0  0  0  0  0  0  0  0  0  0  0  0
   -2.1250    0.7932   -1.9510 C   0  0  0  0  0  0  0  0  0  0  0  0
   -1.3906    1.9312   -2.0374 F   0  0  0  0  0  0  0  0  0  0  0  0
   -1.8092    0.0610   -3.0363 F   0  0  0  0  0  0  0  0  0  0  0  0
   -3.4209    1.1703   -2.0952 F   0  0  0  0  0  0  0  0  0  0  0  0
    1.9196   -2.9191   -0.2316 H   0  0  0  0  0  0  0  0  0  0  0  0
    4.2576   -2.9832    0.5974 H   0  0  0  0  0  0  0  0  0  0  0  0
    4.4550    1.3168    0.3812 H   0  0  0  0  0  0  0  0  0  0  0  0
    2.1241    1.3851   -0.4565 H   0  0  0  0  0  0  0  0  0  0  0  0
    0.4930    0.2480    1.7908 H   0  0  0  0  0  0  0  0  0  0  0  0
    0.2604    2.7795    1.0351 H   0  0  0  0  0  0  0  0  0  0  0  0
   -2.2586    3.2181    0.3956 H   0  0  0  0  0  0  0  0  0  0  0  0
   -3.5732    0.9407    0.6990 H   0  0  0  0  0  0  0  0  0  0  0  0
   -1.9152    0.8044    2.7360 H   0  0  0  0  0  0  0  0  0  0  0  0
   -1.9369   -0.7783    1.9410 H   0  0  0  0  0  0  0  0  0  0  0  0
  1  2  2  0
  2  3  1  0
  3  4  2  0
  4  5  1  0
  5  6  2  0
  6  7  1  0
  6  8  1  0
  8  9  2  0
  2 10  1  0
 10 11  1  0
 11 12  1  0
 12 13  2  0
 13 14  1  0
 14 15  1  0
 14 16  1  0
 16 17  1  0
 17 18  1  0
 17 19  1  0
 17 20  1  0
 16 21  1  0
 21 22  1  0
 21 23  1  0
 21 24  1  0
  9  3  1  0
 16 10  1  0
 15 11  1  0
  4 25  1  0
  5 26  1  0
  8 27  1  0
  9 28  1  0
 11 29  1  0
 12 30  1  0
 13 31  1  0
 14 32  1  0
 15 33  1  0
 15 34  1  0
M  END
$$$$
