
     RDKit          3D

 37 37  0  0  0  0  0  0  0  0999 V2000
   -1.3758   -3.8748   -0.6711 C   0  0  0  0  0  0  0  0  0  0  0  0
   -1.0926   -2.5164   -0.3322 O   0  0  0  0  0  0  0  0  0  0  0  0
   -2.1086   -1.6490   -0.6218 C   0  0  0  0  0  0  0  0  0  0  0  0
   -3.1992   -1.9870   -1.0665 O   0  0  0  0  0  0  0  0  0  0  0  0
   -1.7522   -0.2024   -0.2300 C   0  0  0  0  0  0  0  0  0  0  0  0
   -2.5200    0.2205    1.0301 C   0  0  0  0  0  0  0  0  0  0  0  0
   -4.0121    0.4258    0.7689 C   0  0  0  0  0  0  0  0  0  0  0  0
   -4.8661    1.0559    2.2546 S   0  0  0  0  0  0  0  0  0  0  0  0
   -4.3858    2.7992    2.1616 C   0  0  0  0  0  0  0  0  0  0  0  0
   -0.3114   -0.0585    0.0228 N   0  0  0  0  0  0  0  0  0  0  0  0
    0.5363    0.1811   -1.0276 C   0  0  0  0  0  0  0  0  0  0  0  0
    0.1604    0.4237   -2.1658 O   0  0  0  0  0  0  0  0  0  0  0  0
    1.8466    0.1634   -0.6427 N   0  0  0  0  0  0  0  0  0  0  0  0
    2.8880    0.2931   -1.6343 C   0  0  0  0  0  0  0  0  0  0  0  0
    4.1954    0.4392   -0.9266 C   0  0  0  0  0  0  0  0  0  0  0  0
    4.7963    1.5975   -0.4724 C   0  0  0  0  0  0  0  0  0  0  0  0
    6.0467    1.3472    0.1627 C   0  0  0  0  0  0  0  0  0  0  0  0
    6.3589    0.0065    0.1744 C   0  0  0  0  0  0  0  0  0  0  0  0
    5.1488   -0.9414   -0.5740 S   0  0  0  0  0  0  0  0  0  0  0  0
   -1.5828   -3.9695   -1.7417 H   0  0  0  0  0  0  0  0  0  0  0  0
   -0.4914   -4.4733   -0.4360 H   0  0  0  0  0  0  0  0  0  0  0  0
   -2.2155   -4.2491   -0.0775 H   0  0  0  0  0  0  0  0  0  0  0  0
   -2.0168    0.4420   -1.0765 H   0  0  0  0  0  0  0  0  0  0  0  0
   -2.3797   -0.5311    1.8186 H   0  0  0  0  0  0  0  0  0  0  0  0
   -2.0796    1.1536    1.4034 H   0  0  0  0  0  0  0  0  0  0  0  0
   -4.4910   -0.5242    0.5174 H   0  0  0  0  0  0  0  0  0  0  0  0
   -4.1830    1.1128   -0.0662 H   0  0  0  0  0  0  0  0  0  0  0  0
   -4.8907    3.3501    2.9598 H   0  0  0  0  0  0  0  0  0  0  0  0
   -3.3079    2.9141    2.2960 H   0  0  0  0  0  0  0  0  0  0  0  0
   -4.6873    3.2283    1.2026 H   0  0  0  0  0  0  0  0  0  0  0  0
    0.0622   -0.6698    0.7340 H   0  0  0  0  0  0  0  0  0  0  0  0
    2.0832   -0.3139    0.2126 H   0  0  0  0  0  0  0  0  0  0  0  0
    2.8637   -0.5913   -2.2810 H   0  0  0  0  0  0  0  0  0  0  0  0
    2.6818    1.1692   -2.2598 H   0  0  0  0  0  0  0  0  0  0  0  0
    4.3557    2.5808   -0.5907 H   0  0  0  0  0  0  0  0  0  0  0  0
    6.6848    2.1120    0.5884 H   0  0  0  0  0  0  0  0  0  0  0  0
    7.2409   -0.4644    0.5868 H   0  0  0  0  0  0  0  0  0  0  0  0
  1  2  1  0
  2  3  1  0
  3  4  2  0
  3  5  1  0
  5  6  1  0
  6  7  1  0
  7  8  1  0
  8  9  1  0
  5 10  1  0
 10 11  1  0
 11 12  2  0
 11 13  1  0
 13 14  1  0
 14 15  1  0
 15 16  2  0
 16 17  1  0
 17 18  2  0
 18 19  1  0
 19 15  1  0
  1 20  1  0
  1 21  1  0
  1 22  1  0
  5 23  1  0
  6 24  1  0
  6 25  1  0
  7 26  1  0
  7 27  1  0
  9 28  1  0
  9 29  1  0
  9 30  1  0
 10 31  1  0
 13 32  1  0
 14 33  1  0
 14 34  1  0
 16 35  1  0
 17 36  1  0
 18 37  1  0
M  END
$$$$
