
     RDKit          3D

 46 48  0  0  0  0  0  0  0  0999 V2000
   -4.7845   -1.1752   -2.1357 C   0  0  0  0  0  0  0  0  0  0  0  0
   -3.4639   -1.3675   -2.0160 C   0  0  0  0  0  0  0  0  0  0  0  0
   -2.4579   -0.2784   -1.7635 C   0  0  0  0  0  0  0  0  0  0  0  0
   -1.8002   -0.4451   -0.4786 N   0  0  0  0  0  0  0  0  0  0  0  0
   -0.6493   -1.1467   -0.2253 C   0  0  0  0  0  0  0  0  0  0  0  0
    0.3254   -1.8905   -1.4470 S   0  0  0  0  0  0  0  0  0  0  0  0
    1.7121   -2.5453   -0.4688 C   0  0  0  0  0  0  0  0  0  0  0  0
    2.8242   -1.5381   -0.2900 C   0  0  0  0  0  0  0  0  0  0  0  0
    3.8125   -1.3834   -1.2742 C   0  0  0  0  0  0  0  0  0  0  0  0
    4.8463   -0.4538   -1.1066 C   0  0  0  0  0  0  0  0  0  0  0  0
    4.9032    0.3415    0.0466 C   0  0  0  0  0  0  0  0  0  0  0  0
    5.9880    1.3309    0.2834 C   0  0  0  0  0  0  0  0  0  0  0  0
    6.1232    1.9438    1.3305 O   0  0  0  0  0  0  0  0  0  0  0  0
    6.7837    1.4451   -0.8118 O   0  0  0  0  0  0  0  0  0  0  0  0
    7.8632    2.3648   -0.6433 C   0  0  0  0  0  0  0  0  0  0  0  0
    3.9145    0.1953    1.0263 C   0  0  0  0  0  0  0  0  0  0  0  0
    2.8832   -0.7350    0.8579 C   0  0  0  0  0  0  0  0  0  0  0  0
   -0.4475   -1.2160    1.0678 N   0  0  0  0  0  0  0  0  0  0  0  0
   -1.4622   -0.5358    1.6866 N   0  0  0  0  0  0  0  0  0  0  0  0
   -2.2665   -0.0518    0.7585 C   0  0  0  0  0  0  0  0  0  0  0  0
   -3.4650    0.6631    1.0765 C   0  0  0  0  0  0  0  0  0  0  0  0
   -3.8930    2.1625    0.3670 S   0  0  0  0  0  0  0  0  0  0  0  0
   -5.2971    2.2296    1.3432 C   0  0  0  0  0  0  0  0  0  0  0  0
   -6.1720    3.2476    1.2590 N   0  0  0  0  0  0  0  0  0  0  0  0
   -5.4650    1.2192    2.1561 N   0  0  0  0  0  0  0  0  0  0  0  0
   -4.4110    0.3254    2.0352 C   0  0  0  0  0  0  0  0  0  0  0  0
   -4.4074   -0.8715    2.9203 C   0  0  0  0  0  0  0  0  0  0  0  0
   -5.4483   -2.0160   -2.3143 H   0  0  0  0  0  0  0  0  0  0  0  0
   -5.2386   -0.1911   -2.0487 H   0  0  0  0  0  0  0  0  0  0  0  0
   -3.0709   -2.3787   -2.1127 H   0  0  0  0  0  0  0  0  0  0  0  0
   -1.7013   -0.2841   -2.5544 H   0  0  0  0  0  0  0  0  0  0  0  0
   -2.9103    0.7156   -1.8029 H   0  0  0  0  0  0  0  0  0  0  0  0
    1.3753   -2.9345    0.4998 H   0  0  0  0  0  0  0  0  0  0  0  0
    2.1100   -3.4146   -1.0062 H   0  0  0  0  0  0  0  0  0  0  0  0
    3.7848   -1.9885   -2.1757 H   0  0  0  0  0  0  0  0  0  0  0  0
    5.6023   -0.3639   -1.8818 H   0  0  0  0  0  0  0  0  0  0  0  0
    8.4063    2.4300   -1.5916 H   0  0  0  0  0  0  0  0  0  0  0  0
    7.4880    3.3634   -0.3912 H   0  0  0  0  0  0  0  0  0  0  0  0
    8.5521    2.0025    0.1272 H   0  0  0  0  0  0  0  0  0  0  0  0
    3.9393    0.8057    1.9268 H   0  0  0  0  0  0  0  0  0  0  0  0
    2.1243   -0.8270    1.6338 H   0  0  0  0  0  0  0  0  0  0  0  0
   -6.2454    3.7323    0.3735 H   0  0  0  0  0  0  0  0  0  0  0  0
   -7.0714    3.0594    1.6940 H   0  0  0  0  0  0  0  0  0  0  0  0
   -4.0645   -1.7607    2.3833 H   0  0  0  0  0  0  0  0  0  0  0  0
   -5.4170   -1.0786    3.2907 H   0  0  0  0  0  0  0  0  0  0  0  0
   -3.7516   -0.7057    3.7797 H   0  0  0  0  0  0  0  0  0  0  0  0
  1  2  2  0
  2  3  1  0
  3  4  1  0
  4  5  1  0
  5  6  1  0
  6  7  1  0
  7  8  1  0
  8  9  2  0
  9 10  1  0
 10 11  2  0
 11 12  1  0
 12 13  2  0
 12 14  1  0
 14 15  1  0
 11 16  1  0
 16 17  2  0
  5 18  2  0
 18 19  1  0
 19 20  2  0
 20 21  1  0
 21 22  1  0
 22 23  1  0
 23 24  1  0
 23 25  2  0
 25 26  1  0
 26 27  1  0
 20  4  1  0
 26 21  2  0
 17  8  1  0
  1 28  1  0
  1 29  1  0
  2 30  1  0
  3 31  1  0
  3 32  1  0
  7 33  1  0
  7 34  1  0
  9 35  1  0
 10 36  1  0
 15 37  1  0
 15 38  1  0
 15 39  1  0
 16 40  1  0
 17 41  1  0
 24 42  1  0
 24 43  1  0
 27 44  1  0
 27 45  1  0
 27 46  1  0
M  END
$$$$
