
     RDKit          3D

 33 34  0  0  0  0  0  0  0  0999 V2000
   -2.5220   -1.6695   -1.2834 C   0  0  0  0  0  0  0  0  0  0  0  0
   -2.4312   -0.9808    0.0728 C   0  0  0  0  0  0  0  0  0  0  0  0
   -1.7950    0.3520   -0.0288 N   0  0  0  0  0  0  0  0  0  0  0  0
   -2.0218    1.1922    1.1688 C   0  0  0  0  0  0  0  0  0  0  0  0
   -1.7087    2.6588    0.8992 C   0  0  0  0  0  0  0  0  0  0  0  0
   -0.4085    0.2696   -0.3833 C   0  0  0  0  0  0  0  0  0  0  0  0
   -0.0907    0.8468   -1.6301 C   0  0  0  0  0  0  0  0  0  0  0  0
    1.2082    0.8404   -2.1064 C   0  0  0  0  0  0  0  0  0  0  0  0
    2.1959    0.2446   -1.3226 C   0  0  0  0  0  0  0  0  0  0  0  0
    3.5412    0.2499   -1.8670 N   0  0  0  0  0  4  0  0  0  0  0  0
    4.0593   -0.8470   -2.1142 O   0  0  0  0  0  0  0  0  0  0  0  0
    4.0642    1.3551   -2.0608 O   0  0  0  0  0  1  0  0  0  0  0  0
    1.9338   -0.3415   -0.0569 C   0  0  0  0  0  0  0  0  0  0  0  0
    2.9207   -0.9311    0.7740 C   0  0  0  0  0  0  0  0  0  0  0  0
    2.5858   -1.4837    2.0013 C   0  0  0  0  0  0  0  0  0  0  0  0
    1.2667   -1.4339    2.3795 C   0  0  0  0  0  0  0  0  0  0  0  0
    0.2976   -0.8775    1.6250 N   0  0  0  0  0  0  0  0  0  0  0  0
    0.6013   -0.3305    0.4218 C   0  0  0  0  0  0  0  0  0  0  0  0
   -3.0077   -1.0223   -2.0213 H   0  0  0  0  0  0  0  0  0  0  0  0
   -1.5334   -1.9400   -1.6674 H   0  0  0  0  0  0  0  0  0  0  0  0
   -3.1078   -2.5904   -1.1990 H   0  0  0  0  0  0  0  0  0  0  0  0
   -1.9339   -1.6320    0.7989 H   0  0  0  0  0  0  0  0  0  0  0  0
   -3.4591   -0.8490    0.4337 H   0  0  0  0  0  0  0  0  0  0  0  0
   -1.4673    0.8383    2.0440 H   0  0  0  0  0  0  0  0  0  0  0  0
   -3.0845    1.1363    1.4368 H   0  0  0  0  0  0  0  0  0  0  0  0
   -0.6392    2.8207    0.7324 H   0  0  0  0  0  0  0  0  0  0  0  0
   -2.0063    3.2706    1.7569 H   0  0  0  0  0  0  0  0  0  0  0  0
   -2.2488    3.0206    0.0180 H   0  0  0  0  0  0  0  0  0  0  0  0
   -0.8838    1.3019   -2.2208 H   0  0  0  0  0  0  0  0  0  0  0  0
    1.4382    1.2900   -3.0691 H   0  0  0  0  0  0  0  0  0  0  0  0
    3.9663   -0.9701    0.4731 H   0  0  0  0  0  0  0  0  0  0  0  0
    3.3348   -1.9394    2.6386 H   0  0  0  0  0  0  0  0  0  0  0  0
    0.9358   -1.8492    3.3270 H   0  0  0  0  0  0  0  0  0  0  0  0
  1  2  1  0
  2  3  1  0
  3  4  1  0
  4  5  1  0
  3  6  1  0
  6  7  2  0
  7  8  1  0
  8  9  2  0
  9 10  1  0
 10 11  2  0
 10 12  1  0
  9 13  1  0
 13 14  2  0
 14 15  1  0
 15 16  2  0
 16 17  1  0
 17 18  2  0
 18  6  1  0
 18 13  1  0
  1 19  1  0
  1 20  1  0
  1 21  1  0
  2 22  1  0
  2 23  1  0
  4 24  1  0
  4 25  1  0
  5 26  1  0
  5 27  1  0
  5 28  1  0
  7 29  1  0
  8 30  1  0
 14 31  1  0
 15 32  1  0
 16 33  1  0
M  CHG  2  10   1  12  -1
M  END
$$$$
