
     RDKit          3D

 40 42  0  0  0  0  0  0  0  0999 V2000
    2.2121    4.2251    0.4204 C   0  0  0  0  0  0  0  0  0  0  0  0
    2.3097    3.7624   -1.0234 C   0  0  0  0  0  0  0  0  0  0  0  0
    0.6678    3.4013   -1.7327 S   0  0  0  0  0  0  0  0  0  0  0  0
    0.2835    1.8286   -0.9723 C   0  0  0  0  0  0  0  0  0  0  0  0
   -1.0101    1.3603   -1.0538 C   0  0  0  0  0  0  0  0  0  0  0  0
   -1.2844    0.1384   -0.4739 C   0  0  0  0  0  0  0  0  0  0  0  0
   -2.5700   -0.3926   -0.4941 N   0  0  0  0  0  0  0  0  0  0  0  0
   -2.7826   -1.6241    0.2855 C   0  0  0  0  0  0  0  0  0  0  0  0
   -4.2652   -2.0211    0.2137 C   0  0  0  0  0  0  0  0  0  0  0  0
   -4.7357   -2.2810   -1.1188 O   0  0  0  0  0  0  0  0  0  0  0  0
   -3.9414   -1.6531   -2.1341 C   0  0  0  0  0  0  0  0  0  0  0  0
   -3.3801   -0.2813   -1.7211 C   0  0  0  0  0  0  0  0  0  0  0  0
   -0.3167   -0.5383    0.1663 N   0  0  0  0  0  0  0  0  0  0  0  0
    0.9245   -0.0172    0.1938 C   0  0  0  0  0  0  0  0  0  0  0  0
    1.9790   -0.7838    0.8900 C   0  0  0  0  0  0  0  0  0  0  0  0
    1.7032   -2.0168    1.5134 C   0  0  0  0  0  0  0  0  0  0  0  0
    2.6996   -2.7444    2.1725 C   0  0  0  0  0  0  0  0  0  0  0  0
    4.0007   -2.2546    2.2243 C   0  0  0  0  0  0  0  0  0  0  0  0
    4.3054   -1.0398    1.6185 C   0  0  0  0  0  0  0  0  0  0  0  0
    3.3060   -0.3153    0.9604 C   0  0  0  0  0  0  0  0  0  0  0  0
    1.2670    1.1514   -0.3675 N   0  0  0  0  0  0  0  0  0  0  0  0
    1.8024    3.4504    1.0756 H   0  0  0  0  0  0  0  0  0  0  0  0
    3.2091    4.4782    0.7961 H   0  0  0  0  0  0  0  0  0  0  0  0
    1.5886    5.1210    0.5115 H   0  0  0  0  0  0  0  0  0  0  0  0
    2.9760    2.8996   -1.1200 H   0  0  0  0  0  0  0  0  0  0  0  0
    2.7479    4.5674   -1.6229 H   0  0  0  0  0  0  0  0  0  0  0  0
   -1.7831    1.9462   -1.5325 H   0  0  0  0  0  0  0  0  0  0  0  0
   -2.1682   -2.4384   -0.1193 H   0  0  0  0  0  0  0  0  0  0  0  0
   -2.5108   -1.4644    1.3357 H   0  0  0  0  0  0  0  0  0  0  0  0
   -4.4446   -2.9234    0.8069 H   0  0  0  0  0  0  0  0  0  0  0  0
   -4.8917   -1.2242    0.6309 H   0  0  0  0  0  0  0  0  0  0  0  0
   -3.1255   -2.3378   -2.3942 H   0  0  0  0  0  0  0  0  0  0  0  0
   -4.5708   -1.5471   -3.0235 H   0  0  0  0  0  0  0  0  0  0  0  0
   -4.2095    0.4044   -1.5135 H   0  0  0  0  0  0  0  0  0  0  0  0
   -2.8102    0.1200   -2.5666 H   0  0  0  0  0  0  0  0  0  0  0  0
    0.6935   -2.4239    1.4881 H   0  0  0  0  0  0  0  0  0  0  0  0
    2.4552   -3.6930    2.6435 H   0  0  0  0  0  0  0  0  0  0  0  0
    4.7760   -2.8188    2.7356 H   0  0  0  0  0  0  0  0  0  0  0  0
    5.3201   -0.6520    1.6550 H   0  0  0  0  0  0  0  0  0  0  0  0
    3.5735    0.6318    0.4946 H   0  0  0  0  0  0  0  0  0  0  0  0
  1  2  1  0
  2  3  1  0
  3  4  1  0
  4  5  2  0
  5  6  1  0
  6  7  1  0
  7  8  1  0
  8  9  1  0
  9 10  1  0
 10 11  1  0
 11 12  1  0
  6 13  2  0
 13 14  1  0
 14 15  1  0
 15 16  2  0
 16 17  1  0
 17 18  2  0
 18 19  1  0
 19 20  2  0
 14 21  2  0
 21  4  1  0
 12  7  1  0
 20 15  1  0
  1 22  1  0
  1 23  1  0
  1 24  1  0
  2 25  1  0
  2 26  1  0
  5 27  1  0
  8 28  1  0
  8 29  1  0
  9 30  1  0
  9 31  1  0
 11 32  1  0
 11 33  1  0
 12 34  1  0
 12 35  1  0
 16 36  1  0
 17 37  1  0
 18 38  1  0
 19 39  1  0
 20 40  1  0
M  END
$$$$
