
     RDKit          3D

 39 41  0  0  0  0  0  0  0  0999 V2000
    5.4089   -0.8616   -1.5000 C   0  0  0  0  0  0  0  0  0  0  0  0
    4.5035    0.2862   -1.9104 C   0  0  0  0  0  0  0  0  0  0  0  0
    4.0693    1.0797   -0.7716 N   0  0  0  0  0  0  0  0  0  0  0  0
    4.8437    2.1247   -0.3960 N   0  0  0  0  0  0  0  0  0  0  0  0
    4.1959    2.6437    0.6458 C   0  0  0  0  0  0  0  0  0  0  0  0
    3.0096    1.9526    0.9143 C   0  0  0  0  0  0  0  0  0  0  0  0
    1.8841    2.3816    2.3483 Br  0  0  0  0  0  0  0  0  0  0  0  0
    2.9140    0.9447   -0.0256 C   0  0  0  0  0  0  0  0  0  0  0  0
    1.9188   -0.0890   -0.2421 C   0  0  0  0  0  0  0  0  0  0  0  0
    2.2291   -1.1618   -0.7457 O   0  0  0  0  0  0  0  0  0  0  0  0
    0.6396    0.2867    0.1217 N   0  0  0  0  0  0  0  0  0  0  0  0
   -0.5215   -0.4744    0.0686 C   0  0  0  0  0  0  0  0  0  0  0  0
   -0.4763   -2.1420   -0.3348 S   0  0  0  0  0  0  0  0  0  0  0  0
   -2.1256   -2.2683   -0.1478 C   0  0  0  0  0  0  0  0  0  0  0  0
   -2.7353   -1.1016    0.2156 C   0  0  0  0  0  0  0  0  0  0  0  0
   -1.8161   -0.0208    0.3450 C   0  0  0  0  0  0  0  0  0  0  0  0
   -2.1172    1.3639    0.6968 C   0  0  0  0  0  0  0  0  0  0  0  0
   -1.2557    2.2352    0.7675 O   0  0  0  0  0  0  0  0  0  0  0  0
   -3.4440    1.5792    0.9299 O   0  0  0  0  0  0  0  0  0  0  0  0
   -3.7653    2.9264    1.2756 C   0  0  0  0  0  0  0  0  0  0  0  0
   -4.2022   -1.2974    0.3604 C   0  0  0  0  0  0  0  0  0  0  0  0
   -4.3359   -2.8528    0.3602 C   0  0  0  0  0  0  0  0  0  0  0  0
   -3.0461   -3.4167   -0.3080 C   0  0  0  0  0  0  0  0  0  0  0  0
    6.3126   -0.4912   -1.0043 H   0  0  0  0  0  0  0  0  0  0  0  0
    5.7147   -1.4365   -2.3795 H   0  0  0  0  0  0  0  0  0  0  0  0
    4.9059   -1.5413   -0.8050 H   0  0  0  0  0  0  0  0  0  0  0  0
    3.6202   -0.0697   -2.4480 H   0  0  0  0  0  0  0  0  0  0  0  0
    5.0366    0.9596   -2.5922 H   0  0  0  0  0  0  0  0  0  0  0  0
    4.6238    3.4949    1.1596 H   0  0  0  0  0  0  0  0  0  0  0  0
    0.5041    1.2494    0.4254 H   0  0  0  0  0  0  0  0  0  0  0  0
   -3.5047    3.6050    0.4573 H   0  0  0  0  0  0  0  0  0  0  0  0
   -3.2559    3.2175    2.1995 H   0  0  0  0  0  0  0  0  0  0  0  0
   -4.8444    2.9848    1.4427 H   0  0  0  0  0  0  0  0  0  0  0  0
   -4.7321   -0.8673   -0.4959 H   0  0  0  0  0  0  0  0  0  0  0  0
   -4.6001   -0.8738    1.2866 H   0  0  0  0  0  0  0  0  0  0  0  0
   -4.3828   -3.2058    1.3990 H   0  0  0  0  0  0  0  0  0  0  0  0
   -5.2474   -3.1913   -0.1423 H   0  0  0  0  0  0  0  0  0  0  0  0
   -2.7020   -4.3234    0.1968 H   0  0  0  0  0  0  0  0  0  0  0  0
   -3.2236   -3.6289   -1.3672 H   0  0  0  0  0  0  0  0  0  0  0  0
  1  2  1  0
  2  3  1  0
  3  4  1  0
  4  5  2  0
  5  6  1  0
  6  7  1  0
  6  8  2  0
  8  9  1  0
  9 10  2  0
  9 11  1  0
 11 12  1  0
 12 13  1  0
 13 14  1  0
 14 15  2  0
 15 16  1  0
 16 17  1  0
 17 18  2  0
 17 19  1  0
 19 20  1  0
 15 21  1  0
 21 22  1  0
 22 23  1  0
  8  3  1  0
 16 12  2  0
 23 14  1  0
  1 24  1  0
  1 25  1  0
  1 26  1  0
  2 27  1  0
  2 28  1  0
  5 29  1  0
 11 30  1  0
 20 31  1  0
 20 32  1  0
 20 33  1  0
 21 34  1  0
 21 35  1  0
 22 36  1  0
 22 37  1  0
 23 38  1  0
 23 39  1  0
M  END
$$$$
