
     RDKit          3D

 93 97  0  0  0  0  0  0  0  0999 V2000
   -4.5916    2.1203   -5.5590 C   0  0  0  0  0  0  0  0  0  0  0  0
   -5.6977    1.2105   -5.0420 C   0  0  0  0  0  0  0  0  0  0  0  0
   -5.1585    0.0111   -4.2647 C   0  0  0  0  0  0  0  0  0  0  0  0
   -4.5933    0.3835   -2.9131 C   0  0  0  0  0  0  0  0  0  0  0  0
   -4.7469    1.4553   -2.3450 O   0  0  0  0  0  0  0  0  0  0  0  0
   -3.8955   -0.6751   -2.4072 O   0  0  0  0  0  0  0  0  0  0  0  0
   -3.2889   -0.4210   -1.1315 C   0  0  0  0  0  0  0  0  0  0  0  0
   -2.3797   -1.5969   -0.7759 C   0  0  1  0  0  0  0  0  0  0  0  0
   -1.2067   -1.7877   -1.7910 C   0  0  0  0  0  0  0  0  0  0  0  0
    0.0627   -1.3869   -1.0043 C   0  0  2  0  0  0  0  0  0  0  0  0
   -0.0410    0.0645   -1.0665 O   0  0  0  0  0  0  0  0  0  0  0  0
    0.9357    0.8981   -0.6601 C   0  0  0  0  0  0  0  0  0  0  0  0
    1.9880    0.6118   -0.1229 O   0  0  0  0  0  0  0  0  0  0  0  0
    0.4688    2.2711   -0.9462 C   0  0  0  0  0  0  0  0  0  0  0  0
    1.1621    3.3286   -0.4986 C   0  0  0  0  0  0  0  0  0  0  0  0
    0.7811    4.7278   -0.7424 C   0  0  0  0  0  0  0  0  0  0  0  0
   -0.5527    5.1379   -0.8830 C   0  0  0  0  0  0  0  0  0  0  0  0
   -0.8660    6.4839   -1.0956 C   0  0  0  0  0  0  0  0  0  0  0  0
    0.1484    7.4366   -1.1593 C   0  0  0  0  0  0  0  0  0  0  0  0
    1.4762    7.0454   -1.0026 C   0  0  0  0  0  0  0  0  0  0  0  0
    1.7896    5.7000   -0.7901 C   0  0  0  0  0  0  0  0  0  0  0  0
    1.3503   -1.9007   -1.7076 C   0  0  0  0  0  0  0  0  0  0  0  0
    1.8769   -1.2592   -2.6205 O   0  0  0  0  0  0  0  0  0  0  0  0
    1.9324   -3.2393   -1.3693 C   0  0  0  0  0  0  0  0  0  0  0  0
    1.3172   -4.3953   -2.0948 C   0  0  0  0  0  0  0  0  0  0  0  0
    2.9966   -3.3755   -0.5482 C   0  0  0  0  0  0  0  0  0  0  0  0
    3.6884   -2.3511    0.2604 C   0  0  0  0  0  0  0  0  0  0  0  0
    3.8205   -2.6409    1.7586 C   0  0  2  0  0  0  0  0  0  0  0  0
    3.4110   -1.5970    2.7748 C   0  0  0  0  0  0  0  0  0  0  0  0
    2.1737   -1.9766    3.6284 C   0  0  0  0  0  0  0  0  0  0  0  0
    0.8677   -2.2607    2.8927 C   0  0  2  0  0  0  0  0  0  0  0  0
   -0.3234   -2.5552    3.7445 C   0  0  0  0  0  0  0  0  0  0  0  0
    1.0688   -3.1955    1.8569 O   0  0  0  0  0  0  0  0  0  0  0  0
    0.7114   -1.8523    1.4238 C   0  0  1  0  0  0  0  0  0  0  0  0
   -0.3184   -2.0182    0.3625 C   0  0  1  0  0  0  0  0  0  0  0  0
   -1.7209   -1.4819    0.6283 C   0  0  1  0  0  0  0  0  0  0  0  0
   -1.6449   -0.1127    1.0624 O   0  0  0  0  0  0  0  0  0  0  0  0
   -2.3349    0.2405    2.1814 C   0  0  0  0  0  0  0  0  0  0  0  0
   -3.0169   -0.5161    2.8550 O   0  0  0  0  0  0  0  0  0  0  0  0
   -2.1675    1.7243    2.4198 C   0  0  0  0  0  0  0  0  0  0  0  0
   -2.4466    2.1353    3.8634 C   0  0  0  0  0  0  0  0  0  0  0  0
   -1.3350    1.7138    4.8138 C   0  0  0  0  0  0  0  0  0  0  0  0
    5.0617   -2.5308    0.8840 C   0  0  0  0  0  0  0  0  0  0  0  0
    5.9297   -1.2975    0.9820 C   0  0  0  0  0  0  0  0  0  0  0  0
    5.8571   -3.7895    0.6323 C   0  0  0  0  0  0  0  0  0  0  0  0
   -4.0231    2.5655   -4.7379 H   0  0  0  0  0  0  0  0  0  0  0  0
   -5.0191    2.9363   -6.1496 H   0  0  0  0  0  0  0  0  0  0  0  0
   -3.8964    1.5687   -6.1996 H   0  0  0  0  0  0  0  0  0  0  0  0
   -6.3876    1.7925   -4.4199 H   0  0  0  0  0  0  0  0  0  0  0  0
   -6.2721    0.8430   -5.9005 H   0  0  0  0  0  0  0  0  0  0  0  0
   -5.9737   -0.7004   -4.0907 H   0  0  0  0  0  0  0  0  0  0  0  0
   -4.3805   -0.4903   -4.8520 H   0  0  0  0  0  0  0  0  0  0  0  0
   -2.7153    0.5117   -1.1812 H   0  0  0  0  0  0  0  0  0  0  0  0
   -4.0823   -0.3223   -0.3816 H   0  0  0  0  0  0  0  0  0  0  0  0
   -2.9731   -2.5204   -0.8200 H   0  0  0  0  0  0  0  0  0  0  0  0
   -1.3428   -1.1830   -2.6951 H   0  0  0  0  0  0  0  0  0  0  0  0
   -1.1655   -2.8373   -2.1043 H   0  0  0  0  0  0  0  0  0  0  0  0
   -0.4363    2.3668   -1.5338 H   0  0  0  0  0  0  0  0  0  0  0  0
    2.0819    3.1767    0.0638 H   0  0  0  0  0  0  0  0  0  0  0  0
   -1.3689    4.4227   -0.8238 H   0  0  0  0  0  0  0  0  0  0  0  0
   -1.9041    6.7875   -1.2104 H   0  0  0  0  0  0  0  0  0  0  0  0
   -0.0953    8.4825   -1.3273 H   0  0  0  0  0  0  0  0  0  0  0  0
    2.2703    7.7868   -1.0481 H   0  0  0  0  0  0  0  0  0  0  0  0
    2.8343    5.4175   -0.6731 H   0  0  0  0  0  0  0  0  0  0  0  0
    0.3502   -4.6505   -1.6538 H   0  0  0  0  0  0  0  0  0  0  0  0
    1.1635   -4.1548   -3.1511 H   0  0  0  0  0  0  0  0  0  0  0  0
    1.9489   -5.2891   -2.0520 H   0  0  0  0  0  0  0  0  0  0  0  0
    3.3658   -4.3904   -0.4143 H   0  0  0  0  0  0  0  0  0  0  0  0
    3.4833   -1.3340   -0.0619 H   0  0  0  0  0  0  0  0  0  0  0  0
    3.6011   -3.6400    2.1267 H   0  0  0  0  0  0  0  0  0  0  0  0
    4.2510   -1.4533    3.4655 H   0  0  0  0  0  0  0  0  0  0  0  0
    3.2420   -0.6275    2.2925 H   0  0  0  0  0  0  0  0  0  0  0  0
    2.4233   -2.8629    4.2268 H   0  0  0  0  0  0  0  0  0  0  0  0
    1.9931   -1.1596    4.3376 H   0  0  0  0  0  0  0  0  0  0  0  0
   -0.6720   -1.6431    4.2351 H   0  0  0  0  0  0  0  0  0  0  0  0
   -0.0694   -3.2834    4.5217 H   0  0  0  0  0  0  0  0  0  0  0  0
   -1.1525   -2.9732    3.1673 H   0  0  0  0  0  0  0  0  0  0  0  0
    1.4755   -1.1703    1.1012 H   0  0  0  0  0  0  0  0  0  0  0  0
   -0.4333   -3.1015    0.1934 H   0  0  0  0  0  0  0  0  0  0  0  0
   -2.2544   -2.1097    1.3480 H   0  0  0  0  0  0  0  0  0  0  0  0
   -2.8694    2.2375    1.7525 H   0  0  0  0  0  0  0  0  0  0  0  0
   -1.1501    2.0233    2.1434 H   0  0  0  0  0  0  0  0  0  0  0  0
   -2.5426    3.2267    3.9066 H   0  0  0  0  0  0  0  0  0  0  0  0
   -3.3984    1.7165    4.2076 H   0  0  0  0  0  0  0  0  0  0  0  0
   -1.5576    2.0552    5.8299 H   0  0  0  0  0  0  0  0  0  0  0  0
   -0.3772    2.1496    4.5136 H   0  0  0  0  0  0  0  0  0  0  0  0
   -1.2242    0.6269    4.8416 H   0  0  0  0  0  0  0  0  0  0  0  0
    6.5425   -1.1937    0.0801 H   0  0  0  0  0  0  0  0  0  0  0  0
    5.3439   -0.3785    1.0889 H   0  0  0  0  0  0  0  0  0  0  0  0
    6.5966   -1.3718    1.8473 H   0  0  0  0  0  0  0  0  0  0  0  0
    5.2666   -4.7002    0.7770 H   0  0  0  0  0  0  0  0  0  0  0  0
    6.7067   -3.8467    1.3212 H   0  0  0  0  0  0  0  0  0  0  0  0
    6.2478   -3.7927   -0.3908 H   0  0  0  0  0  0  0  0  0  0  0  0
  1  2  1  0
  2  3  1  0
  3  4  1  0
  4  5  2  0
  4  6  1  0
  6  7  1  0
  7  8  1  0
  8  9  1  0
  9 10  1  0
 10 11  1  1
 11 12  1  0
 12 13  2  0
 12 14  1  0
 14 15  2  0
 15 16  1  0
 16 17  2  0
 17 18  1  0
 18 19  2  0
 19 20  1  0
 20 21  2  0
 10 22  1  0
 22 23  2  0
 22 24  1  0
 24 25  1  0
 24 26  2  3
 26 27  1  0
 27 28  1  0
 28 29  1  0
 29 30  1  0
 30 31  1  0
 31 32  1  1
 31 33  1  0
 33 34  1  0
 34 35  1  0
 35 36  1  0
 36 37  1  0
 37 38  1  0
 38 39  2  0
 38 40  1  0
 40 41  1  0
 41 42  1  0
 28 43  1  0
 43 44  1  0
 43 45  1  0
 36  8  1  0
 35 10  1  0
 21 16  1  0
 43 27  1  0
 34 31  1  0
  1 46  1  0
  1 47  1  0
  1 48  1  0
  2 49  1  0
  2 50  1  0
  3 51  1  0
  3 52  1  0
  7 53  1  0
  7 54  1  0
  8 55  1  1
  9 56  1  0
  9 57  1  0
 14 58  1  0
 15 59  1  0
 17 60  1  0
 18 61  1  0
 19 62  1  0
 20 63  1  0
 21 64  1  0
 25 65  1  0
 25 66  1  0
 25 67  1  0
 26 68  1  0
 27 69  1  0
 28 70  1  1
 29 71  1  0
 29 72  1  0
 30 73  1  0
 30 74  1  0
 32 75  1  0
 32 76  1  0
 32 77  1  0
 34 78  1  6
 35 79  1  6
 36 80  1  1
 40 81  1  0
 40 82  1  0
 41 83  1  0
 41 84  1  0
 42 85  1  0
 42 86  1  0
 42 87  1  0
 44 88  1  0
 44 89  1  0
 44 90  1  0
 45 91  1  0
 45 92  1  0
 45 93  1  0
M  END
$$$$
