
     RDKit          3D

 47 50  0  0  0  0  0  0  0  0999 V2000
   -6.9032    0.2674   -1.1771 C   0  0  0  0  0  0  0  0  0  0  0  0
   -5.9658    1.4488   -0.9716 C   0  0  0  0  0  0  0  0  0  0  0  0
   -4.5257    1.1238   -1.3639 C   0  0  0  0  0  0  0  0  0  0  0  0
   -4.0376    0.0953   -0.5058 O   0  0  0  0  0  0  0  0  0  0  0  0
   -2.7638   -0.3592   -0.7146 C   0  0  0  0  0  0  0  0  0  0  0  0
   -1.8825    0.1445   -1.6745 C   0  0  0  0  0  0  0  0  0  0  0  0
   -0.6069   -0.4135   -1.8327 C   0  0  0  0  0  0  0  0  0  0  0  0
   -0.1920   -1.4811   -1.0311 C   0  0  0  0  0  0  0  0  0  0  0  0
    1.1222   -2.1043   -1.2047 C   0  0  0  0  0  0  0  0  0  0  0  0
    2.3109   -1.5278   -0.9717 C   0  0  0  0  0  0  0  0  0  0  0  0
    3.8205   -2.4122   -1.2115 S   0  0  0  0  0  0  0  0  0  0  0  0
    4.7034   -1.0368   -0.7000 C   0  0  0  0  0  0  0  0  0  0  0  0
    5.9629   -0.7487   -0.5498 N   0  0  0  0  0  0  0  0  0  0  0  0
    5.8955    0.5630   -0.1052 C   0  0  0  0  0  0  0  0  0  0  0  0
    7.1758    1.3959    0.2316 C   0  0  0  0  0  0  0  0  0  0  0  0
    7.1950    2.7058    0.6731 C   0  0  0  0  0  0  0  0  0  0  0  0
    8.5552    3.0570    0.8499 C   0  0  0  0  0  0  0  0  0  0  0  0
    9.2832    1.9424    0.5073 C   0  0  0  0  0  0  0  0  0  0  0  0
    8.4586    0.9318    0.1317 O   0  0  0  0  0  0  0  0  0  0  0  0
    4.6484    1.0666    0.0134 N   0  0  0  0  0  0  0  0  0  0  0  0
    3.9174    0.0063   -0.3742 N   0  0  0  0  0  0  0  0  0  0  0  0
    2.5489   -0.1299   -0.4783 C   0  0  0  0  0  0  0  0  0  0  0  0
    1.7684    0.7621   -0.2061 O   0  0  0  0  0  0  0  0  0  0  0  0
   -1.0708   -1.9946   -0.0756 C   0  0  0  0  0  0  0  0  0  0  0  0
   -2.3333   -1.4195    0.0973 C   0  0  0  0  0  0  0  0  0  0  0  0
   -3.1402   -1.9982    1.0469 O   0  0  0  0  0  0  0  0  0  0  0  0
   -3.2945   -1.1387    2.1826 C   0  0  0  0  0  0  0  0  0  0  0  0
   -3.8815   -1.9651    3.3129 C   0  0  0  0  0  0  0  0  0  0  0  0
   -7.9282    0.5499   -0.9155 H   0  0  0  0  0  0  0  0  0  0  0  0
   -6.8971   -0.0600   -2.2217 H   0  0  0  0  0  0  0  0  0  0  0  0
   -6.6173   -0.5823   -0.5490 H   0  0  0  0  0  0  0  0  0  0  0  0
   -6.0017    1.7402    0.0846 H   0  0  0  0  0  0  0  0  0  0  0  0
   -6.3203    2.2986   -1.5650 H   0  0  0  0  0  0  0  0  0  0  0  0
   -4.4967    0.7958   -2.4102 H   0  0  0  0  0  0  0  0  0  0  0  0
   -3.9191    2.0291   -1.2416 H   0  0  0  0  0  0  0  0  0  0  0  0
   -2.1532    0.9727   -2.3209 H   0  0  0  0  0  0  0  0  0  0  0  0
    0.0542    0.0018   -2.5898 H   0  0  0  0  0  0  0  0  0  0  0  0
    1.0745   -3.1410   -1.5352 H   0  0  0  0  0  0  0  0  0  0  0  0
    6.3250    3.3258    0.8424 H   0  0  0  0  0  0  0  0  0  0  0  0
    8.9549    4.0036    1.1849 H   0  0  0  0  0  0  0  0  0  0  0  0
   10.3406    1.7170    0.4768 H   0  0  0  0  0  0  0  0  0  0  0  0
   -0.7858   -2.8363    0.5508 H   0  0  0  0  0  0  0  0  0  0  0  0
   -3.9765   -0.3143    1.9514 H   0  0  0  0  0  0  0  0  0  0  0  0
   -2.3265   -0.7309    2.4996 H   0  0  0  0  0  0  0  0  0  0  0  0
   -4.8529   -2.3796    3.0228 H   0  0  0  0  0  0  0  0  0  0  0  0
   -3.2299   -2.8135    3.5489 H   0  0  0  0  0  0  0  0  0  0  0  0
   -4.0120   -1.3576    4.2128 H   0  0  0  0  0  0  0  0  0  0  0  0
  1  2  1  0
  2  3  1  0
  3  4  1  0
  4  5  1  0
  5  6  2  0
  6  7  1  0
  7  8  2  0
  8  9  1  0
  9 10  2  3
 10 11  1  0
 11 12  1  0
 12 13  2  0
 13 14  1  0
 14 15  1  0
 15 16  2  0
 16 17  1  0
 17 18  2  0
 18 19  1  0
 14 20  2  0
 20 21  1  0
 21 22  1  0
 22 23  2  0
  8 24  1  0
 24 25  2  0
 25 26  1  0
 26 27  1  0
 27 28  1  0
 25  5  1  0
 22 10  1  0
 21 12  1  0
 19 15  1  0
  1 29  1  0
  1 30  1  0
  1 31  1  0
  2 32  1  0
  2 33  1  0
  3 34  1  0
  3 35  1  0
  6 36  1  0
  7 37  1  0
  9 38  1  0
 16 39  1  0
 17 40  1  0
 18 41  1  0
 24 42  1  0
 27 43  1  0
 27 44  1  0
 28 45  1  0
 28 46  1  0
 28 47  1  0
M  END
$$$$
