
     RDKit          3D

 38 40  0  0  0  0  0  0  0  0999 V2000
   -7.9032    0.5544    0.7531 C   0  0  0  0  0  0  0  0  0  0  0  0
   -7.2880   -0.4728   -0.1761 C   0  0  0  0  0  0  0  0  0  0  0  0
   -5.8719   -0.4152   -0.0360 O   0  0  0  0  0  0  0  0  0  0  0  0
   -5.2198   -1.3646   -0.8820 C   0  0  0  0  0  0  0  0  0  0  0  0
   -3.7524   -1.2691   -0.6339 C   0  0  0  0  0  0  0  0  0  0  0  0
   -3.0224   -2.1982   -0.0484 N   0  0  0  0  0  0  0  0  0  0  0  0
   -1.6927   -1.8353    0.0304 N   0  0  0  0  0  0  0  0  0  0  0  0
   -1.4667   -0.6562   -0.5051 C   0  0  0  0  0  0  0  0  0  0  0  0
   -0.2175   -0.0958   -0.5318 N   0  0  0  0  0  0  0  0  0  0  0  0
    0.1533    1.1055   -1.0882 C   0  0  0  0  0  0  0  0  0  0  0  0
   -0.5687    1.9001   -1.6836 O   0  0  0  0  0  0  0  0  0  0  0  0
    1.6445    1.4079   -0.9074 C   0  0  0  0  0  0  0  0  0  0  0  0
    2.3031    0.3576   -0.2041 O   0  0  0  0  0  0  0  0  0  0  0  0
    3.6424    0.5119    0.0332 C   0  0  0  0  0  0  0  0  0  0  0  0
    4.4301    1.6019   -0.3839 C   0  0  0  0  0  0  0  0  0  0  0  0
    5.7976    1.6504   -0.0832 C   0  0  0  0  0  0  0  0  0  0  0  0
    6.3389    0.6035    0.6291 C   0  0  0  0  0  0  0  0  0  0  0  0
    5.5735   -0.4609    1.0378 C   0  0  0  0  0  0  0  0  0  0  0  0
    4.2263   -0.5357    0.7555 C   0  0  0  0  0  0  0  0  0  0  0  0
    6.2956   -1.3854    1.7253 O   0  0  0  0  0  0  0  0  0  0  0  0
    7.6039   -0.7771    1.7064 C   0  0  0  0  0  0  0  0  0  0  0  0
    7.6391    0.4846    1.0066 O   0  0  0  0  0  0  0  0  0  0  0  0
   -2.8483    0.0981   -1.1534 S   0  0  0  0  0  0  0  0  0  0  0  0
   -7.5441    1.5595    0.5090 H   0  0  0  0  0  0  0  0  0  0  0  0
   -7.6158    0.3562    1.7909 H   0  0  0  0  0  0  0  0  0  0  0  0
   -8.9942    0.5421    0.6803 H   0  0  0  0  0  0  0  0  0  0  0  0
   -7.5668   -0.2517   -1.2121 H   0  0  0  0  0  0  0  0  0  0  0  0
   -7.6470   -1.4740    0.0868 H   0  0  0  0  0  0  0  0  0  0  0  0
   -5.4496   -1.1516   -1.9324 H   0  0  0  0  0  0  0  0  0  0  0  0
   -5.5708   -2.3746   -0.6408 H   0  0  0  0  0  0  0  0  0  0  0  0
    0.5053   -0.6542   -0.0912 H   0  0  0  0  0  0  0  0  0  0  0  0
    2.0724    1.5162   -1.9108 H   0  0  0  0  0  0  0  0  0  0  0  0
    1.7154    2.3442   -0.3418 H   0  0  0  0  0  0  0  0  0  0  0  0
    4.0107    2.4298   -0.9470 H   0  0  0  0  0  0  0  0  0  0  0  0
    6.4136    2.4842   -0.4008 H   0  0  0  0  0  0  0  0  0  0  0  0
    3.6407   -1.3855    1.0875 H   0  0  0  0  0  0  0  0  0  0  0  0
    7.9293   -0.6135    2.7402 H   0  0  0  0  0  0  0  0  0  0  0  0
    8.3044   -1.4667    1.2220 H   0  0  0  0  0  0  0  0  0  0  0  0
  1  2  1  0
  2  3  1  0
  3  4  1  0
  4  5  1  0
  5  6  2  0
  6  7  1  0
  7  8  2  0
  8  9  1  0
  9 10  1  0
 10 11  2  0
 10 12  1  0
 12 13  1  0
 13 14  1  0
 14 15  2  0
 15 16  1  0
 16 17  2  0
 17 18  1  0
 18 19  2  0
 18 20  1  0
 20 21  1  0
 21 22  1  0
  8 23  1  0
 23  5  1  0
 19 14  1  0
 22 17  1  0
  1 24  1  0
  1 25  1  0
  1 26  1  0
  2 27  1  0
  2 28  1  0
  4 29  1  0
  4 30  1  0
  9 31  1  0
 12 32  1  0
 12 33  1  0
 15 34  1  0
 16 35  1  0
 19 36  1  0
 21 37  1  0
 21 38  1  0
M  END
$$$$
