
     RDKit          3D

 53 54  0  0  0  0  0  0  0  0999 V2000
   -5.5843   -1.9506   -0.0173 C   0  0  0  0  0  0  0  0  0  0  0  0
   -4.3109   -2.0901    0.8053 C   0  0  0  0  0  0  0  0  0  0  0  0
   -4.1948   -0.9361    1.7399 N   0  0  0  0  0  0  0  0  0  0  0  0
   -5.0590   -1.0595    2.9506 C   0  0  0  0  0  0  0  0  0  0  0  0
   -5.9392    0.1760    3.0622 C   0  0  0  0  0  0  0  0  0  0  0  0
   -2.5992   -0.4162    2.0716 S   0  0  0  0  0  6  0  0  0  0  0  0
   -2.6518    0.6606    3.0357 O   0  0  0  0  0  0  0  0  0  0  0  0
   -1.7923   -1.5990    2.3003 O   0  0  0  0  0  0  0  0  0  0  0  0
   -2.1220    0.3114    0.5235 C   0  0  0  0  0  0  0  0  0  0  0  0
   -2.8422    1.4157    0.0565 C   0  0  0  0  0  0  0  0  0  0  0  0
   -2.4823    2.0079   -1.1495 C   0  0  0  0  0  0  0  0  0  0  0  0
   -1.4028    1.5045   -1.8795 C   0  0  0  0  0  0  0  0  0  0  0  0
   -0.6764    0.4008   -1.4074 C   0  0  0  0  0  0  0  0  0  0  0  0
    0.5010   -0.1410   -2.1365 C   0  0  0  0  0  0  0  0  0  0  0  0
    1.1991   -1.0514   -1.7163 O   0  0  0  0  0  0  0  0  0  0  0  0
    0.6943    0.5259   -3.2986 O   0  0  0  0  0  0  0  0  0  0  0  0
    1.8991    0.1898   -3.9856 C   0  0  0  0  0  0  0  0  0  0  0  0
    3.1254    0.7310   -3.2501 C   0  0  0  0  0  0  0  0  0  0  0  0
    3.4393    1.9189   -3.2777 O   0  0  0  0  0  0  0  0  0  0  0  0
    3.8030   -0.2208   -2.5150 N   0  0  0  0  0  0  0  0  0  0  0  0
    4.8646    0.1690   -1.5999 C   0  0  0  0  0  0  0  0  0  0  0  0
    4.3142    0.6831   -0.2589 C   0  0  0  0  0  0  0  0  0  0  0  0
    5.3644    0.9402    0.7120 N   0  0  0  0  0  0  0  0  0  0  0  0
    5.9707   -0.0522    1.4494 C   0  0  0  0  0  0  0  0  0  0  0  0
    5.5696   -1.3437    1.2778 O   0  0  0  0  0  0  0  0  0  0  0  0
    6.9326    0.3784    2.2700 C   0  0  0  0  0  0  0  0  0  0  0  0
    7.1404    2.1034    2.1498 S   0  0  0  0  0  0  0  0  0  0  0  0
    5.8612    2.2168    0.9247 C   0  0  0  0  0  0  0  0  0  0  0  0
    5.5270    3.2644    0.4022 O   0  0  0  0  0  0  0  0  0  0  0  0
   -1.0397   -0.2003   -0.1960 C   0  0  0  0  0  0  0  0  0  0  0  0
   -6.4823   -1.9394    0.6164 H   0  0  0  0  0  0  0  0  0  0  0  0
   -5.5751   -1.0179   -0.6042 H   0  0  0  0  0  0  0  0  0  0  0  0
   -5.6843   -2.7852   -0.7178 H   0  0  0  0  0  0  0  0  0  0  0  0
   -4.3150   -3.0333    1.3704 H   0  0  0  0  0  0  0  0  0  0  0  0
   -3.4603   -2.1228    0.1155 H   0  0  0  0  0  0  0  0  0  0  0  0
   -5.6955   -1.9449    2.8863 H   0  0  0  0  0  0  0  0  0  0  0  0
   -4.4591   -1.1826    3.8581 H   0  0  0  0  0  0  0  0  0  0  0  0
   -5.3411    1.0643    3.2522 H   0  0  0  0  0  0  0  0  0  0  0  0
   -6.6539    0.0721    3.8859 H   0  0  0  0  0  0  0  0  0  0  0  0
   -6.5021    0.3409    2.1390 H   0  0  0  0  0  0  0  0  0  0  0  0
   -3.6744    1.8146    0.6344 H   0  0  0  0  0  0  0  0  0  0  0  0
   -3.0334    2.8683   -1.5191 H   0  0  0  0  0  0  0  0  0  0  0  0
   -1.1311    1.9938   -2.8109 H   0  0  0  0  0  0  0  0  0  0  0  0
    1.9695   -0.8929   -4.1424 H   0  0  0  0  0  0  0  0  0  0  0  0
    1.8678    0.6543   -4.9759 H   0  0  0  0  0  0  0  0  0  0  0  0
    3.2445   -1.0256   -2.2355 H   0  0  0  0  0  0  0  0  0  0  0  0
    5.4856    0.9407   -2.0748 H   0  0  0  0  0  0  0  0  0  0  0  0
    5.4905   -0.7206   -1.4490 H   0  0  0  0  0  0  0  0  0  0  0  0
    3.7416    1.6024   -0.4224 H   0  0  0  0  0  0  0  0  0  0  0  0
    3.6146   -0.0437    0.1664 H   0  0  0  0  0  0  0  0  0  0  0  0
    6.0204   -1.8932    1.9391 H   0  0  0  0  0  0  0  0  0  0  0  0
    7.5412   -0.2352    2.9162 H   0  0  0  0  0  0  0  0  0  0  0  0
   -0.4774   -1.0512    0.1852 H   0  0  0  0  0  0  0  0  0  0  0  0
  1  2  1  0
  2  3  1  0
  3  4  1  0
  4  5  1  0
  3  6  1  0
  6  7  2  0
  6  8  2  0
  6  9  1  0
  9 10  2  0
 10 11  1  0
 11 12  2  0
 12 13  1  0
 13 14  1  0
 14 15  2  0
 14 16  1  0
 16 17  1  0
 17 18  1  0
 18 19  2  0
 18 20  1  0
 20 21  1  0
 21 22  1  0
 22 23  1  0
 23 24  1  0
 24 25  1  0
 24 26  2  0
 26 27  1  0
 27 28  1  0
 28 29  2  0
 13 30  2  0
 30  9  1  0
 28 23  1  0
  1 31  1  0
  1 32  1  0
  1 33  1  0
  2 34  1  0
  2 35  1  0
  4 36  1  0
  4 37  1  0
  5 38  1  0
  5 39  1  0
  5 40  1  0
 10 41  1  0
 11 42  1  0
 12 43  1  0
 17 44  1  0
 17 45  1  0
 20 46  1  0
 21 47  1  0
 21 48  1  0
 22 49  1  0
 22 50  1  0
 25 51  1  0
 26 52  1  0
 30 53  1  0
M  END
$$$$
