
     RDKit          3D

 55 59  0  0  0  0  0  0  0  0999 V2000
    4.3528    4.7966    1.2419 C   0  0  0  0  0  0  0  0  0  0  0  0
    3.4166    3.7437    1.4302 O   0  0  0  0  0  0  0  0  0  0  0  0
    3.7847    2.5017    0.9903 C   0  0  0  0  0  0  0  0  0  0  0  0
    4.9942    2.1733    0.3776 C   0  0  0  0  0  0  0  0  0  0  0  0
    5.2452    0.8571   -0.0208 C   0  0  0  0  0  0  0  0  0  0  0  0
    4.2854   -0.1350    0.1840 C   0  0  0  0  0  0  0  0  0  0  0  0
    3.0632    0.1835    0.7855 C   0  0  0  0  0  0  0  0  0  0  0  0
    2.0371   -0.8296    1.0049 C   0  0  0  0  0  0  0  0  0  0  0  0
    1.4820   -1.1230    2.1681 N   0  0  0  0  0  0  0  0  0  0  0  0
    0.5347   -2.0966    1.9672 N   0  0  0  0  0  0  0  0  0  0  0  0
    0.5166   -2.3675    0.6854 C   0  0  0  0  0  0  0  0  0  0  0  0
   -0.6209   -3.4180   -0.0834 S   0  0  0  0  0  0  0  0  0  0  0  0
   -2.1514   -2.4294    0.2427 C   0  0  0  0  0  0  0  0  0  0  0  0
   -2.0242   -1.0871   -0.5055 C   0  0  0  0  0  0  0  0  0  0  0  0
   -2.0125   -1.0454   -1.7400 O   0  0  0  0  0  0  0  0  0  0  0  0
   -1.7997    0.1453    0.2672 C   0  0  0  0  0  0  0  0  0  0  0  0
   -1.9759    0.3222    1.6285 C   0  0  0  0  0  0  0  0  0  0  0  0
   -1.5716    1.5882    1.9620 N   0  0  0  0  0  0  0  0  0  0  0  0
   -1.1529    2.2637    0.8426 C   0  0  0  0  0  0  0  0  0  0  0  0
   -0.6467    3.5627    0.7144 C   0  0  0  0  0  0  0  0  0  0  0  0
   -0.2750    3.9916   -0.5621 C   0  0  0  0  0  0  0  0  0  0  0  0
   -0.4099    3.1545   -1.6654 C   0  0  0  0  0  0  0  0  0  0  0  0
   -0.9169    1.8584   -1.5179 C   0  0  0  0  0  0  0  0  0  0  0  0
   -1.2976    1.3948   -0.2395 C   0  0  0  0  0  0  0  0  0  0  0  0
   -3.4067   -3.2098   -0.1229 C   0  0  0  0  0  0  0  0  0  0  0  0
   -3.6920   -3.5972   -1.4428 C   0  0  0  0  0  0  0  0  0  0  0  0
   -4.8542   -4.3103   -1.7438 C   0  0  0  0  0  0  0  0  0  0  0  0
   -5.7475   -4.6508   -0.7316 C   0  0  0  0  0  0  0  0  0  0  0  0
   -5.4795   -4.2798    0.5834 C   0  0  0  0  0  0  0  0  0  0  0  0
   -4.3184   -3.5656    0.8866 C   0  0  0  0  0  0  0  0  0  0  0  0
    1.4382   -1.6013    0.0294 N   0  0  0  0  0  0  0  0  0  0  0  0
    1.6754   -1.5172   -1.3893 C   0  0  0  0  0  0  0  0  0  0  0  0
    2.8294    1.5022    1.1954 C   0  0  0  0  0  0  0  0  0  0  0  0
    3.9090    5.7138    1.6410 H   0  0  0  0  0  0  0  0  0  0  0  0
    5.2781    4.6062    1.7957 H   0  0  0  0  0  0  0  0  0  0  0  0
    4.5544    4.9603    0.1781 H   0  0  0  0  0  0  0  0  0  0  0  0
    5.7662    2.9151    0.2022 H   0  0  0  0  0  0  0  0  0  0  0  0
    6.1956    0.6046   -0.4848 H   0  0  0  0  0  0  0  0  0  0  0  0
    4.5075   -1.1572   -0.1128 H   0  0  0  0  0  0  0  0  0  0  0  0
   -2.1715   -2.2577    1.3217 H   0  0  0  0  0  0  0  0  0  0  0  0
   -2.3173   -0.3431    2.4101 H   0  0  0  0  0  0  0  0  0  0  0  0
   -1.5563    1.9670    2.8994 H   0  0  0  0  0  0  0  0  0  0  0  0
   -0.5320    4.2155    1.5737 H   0  0  0  0  0  0  0  0  0  0  0  0
    0.1281    4.9931   -0.6926 H   0  0  0  0  0  0  0  0  0  0  0  0
   -0.1175    3.5068   -2.6513 H   0  0  0  0  0  0  0  0  0  0  0  0
   -1.0154    1.2156   -2.3887 H   0  0  0  0  0  0  0  0  0  0  0  0
   -3.0111   -3.3454   -2.2545 H   0  0  0  0  0  0  0  0  0  0  0  0
   -5.0602   -4.5995   -2.7712 H   0  0  0  0  0  0  0  0  0  0  0  0
   -6.6509   -5.2067   -0.9677 H   0  0  0  0  0  0  0  0  0  0  0  0
   -6.1742   -4.5488    1.3751 H   0  0  0  0  0  0  0  0  0  0  0  0
   -4.1312   -3.2942    1.9239 H   0  0  0  0  0  0  0  0  0  0  0  0
    1.9104   -0.4850   -1.6611 H   0  0  0  0  0  0  0  0  0  0  0  0
    0.7871   -1.8189   -1.9465 H   0  0  0  0  0  0  0  0  0  0  0  0
    2.5118   -2.1764   -1.6343 H   0  0  0  0  0  0  0  0  0  0  0  0
    1.8870    1.7591    1.6754 H   0  0  0  0  0  0  0  0  0  0  0  0
  1  2  1  0
  2  3  1  0
  3  4  2  0
  4  5  1  0
  5  6  2  0
  6  7  1  0
  7  8  1  0
  8  9  2  0
  9 10  1  0
 10 11  2  0
 11 12  1  0
 12 13  1  0
 13 14  1  0
 14 15  2  0
 14 16  1  0
 16 17  2  0
 17 18  1  0
 18 19  1  0
 19 20  2  0
 20 21  1  0
 21 22  2  0
 22 23  1  0
 23 24  2  0
 13 25  1  0
 25 26  2  0
 26 27  1  0
 27 28  2  0
 28 29  1  0
 29 30  2  0
 11 31  1  0
 31 32  1  0
  7 33  2  0
 33  3  1  0
 31  8  1  0
 24 16  1  0
 30 25  1  0
 24 19  1  0
  1 34  1  0
  1 35  1  0
  1 36  1  0
  4 37  1  0
  5 38  1  0
  6 39  1  0
 13 40  1  0
 17 41  1  0
 18 42  1  0
 20 43  1  0
 21 44  1  0
 22 45  1  0
 23 46  1  0
 26 47  1  0
 27 48  1  0
 28 49  1  0
 29 50  1  0
 30 51  1  0
 32 52  1  0
 32 53  1  0
 32 54  1  0
 33 55  1  0
M  END
$$$$
