
     RDKit          3D

 57 60  0  0  0  0  0  0  0  0999 V2000
    5.6598    1.0475   -2.5535 C   0  0  0  0  0  0  0  0  0  0  0  0
    4.5314    0.6237   -1.6729 C   0  0  0  0  0  0  0  0  0  0  0  0
    3.2310    0.3632   -2.0554 C   0  0  0  0  0  0  0  0  0  0  0  0
    2.5302   -0.0931   -0.9235 C   0  0  0  0  0  0  0  0  0  0  0  0
    1.1552   -0.4677   -0.9261 C   0  0  0  0  0  0  0  0  0  0  0  0
    0.2263    0.0616   -0.1126 C   0  0  0  0  0  0  0  0  0  0  0  0
   -1.1875   -0.3156   -0.1737 C   0  0  0  0  0  0  0  0  0  0  0  0
   -1.5420   -1.6210    0.1691 C   0  0  0  0  0  0  0  0  0  0  0  0
   -2.8718   -2.0009    0.1690 C   0  0  0  0  0  0  0  0  0  0  0  0
   -3.8519   -1.0710   -0.1623 C   0  0  0  0  0  0  0  0  0  0  0  0
   -5.2120   -1.4433   -0.1528 C   0  0  0  0  0  0  0  0  0  0  0  0
   -6.2518   -0.5513   -0.4628 C   0  0  0  0  0  0  0  0  0  0  0  0
   -7.5871   -0.9437   -0.4690 N   0  0  0  0  0  0  0  0  0  0  0  0
   -8.6508    0.0522   -0.6171 C   0  0  0  0  0  0  0  0  0  0  0  0
   -7.9868   -2.1968    0.1763 C   0  0  0  0  0  0  0  0  0  0  0  0
   -5.8529    0.7474   -0.8048 C   0  0  0  0  0  0  0  0  0  0  0  0
   -4.5052    1.1433   -0.8248 C   0  0  0  0  0  0  0  0  0  0  0  0
   -3.4755    0.2471   -0.5069 C   0  0  0  0  0  0  0  0  0  0  0  0
   -2.1455    0.5933   -0.5174 N   0  0  0  0  0  4  0  0  0  0  0  0
   -1.7603    1.9620   -0.9415 C   0  0  0  0  0  0  0  0  0  0  0  0
    3.4121   -0.1282    0.1453 C   0  0  0  0  0  0  0  0  0  0  0  0
    3.1701   -0.5166    1.5698 C   0  0  0  0  0  0  0  0  0  0  0  0
    4.6566    0.3206   -0.3191 N   0  0  0  0  0  0  0  0  0  0  0  0
    5.8495    0.4417    0.4511 C   0  0  0  0  0  0  0  0  0  0  0  0
    6.6122    1.6144    0.3799 C   0  0  0  0  0  0  0  0  0  0  0  0
    7.7803    1.7331    1.1355 C   0  0  0  0  0  0  0  0  0  0  0  0
    8.1914    0.6853    1.9577 C   0  0  0  0  0  0  0  0  0  0  0  0
    7.4376   -0.4855    2.0258 C   0  0  0  0  0  0  0  0  0  0  0  0
    6.2668   -0.6103    1.2750 C   0  0  0  0  0  0  0  0  0  0  0  0
    5.4194    0.8463   -3.6040 H   0  0  0  0  0  0  0  0  0  0  0  0
    6.5804    0.5014   -2.3249 H   0  0  0  0  0  0  0  0  0  0  0  0
    5.8423    2.1225   -2.4611 H   0  0  0  0  0  0  0  0  0  0  0  0
    2.8472    0.4837   -3.0613 H   0  0  0  0  0  0  0  0  0  0  0  0
    0.8666   -1.1884   -1.6912 H   0  0  0  0  0  0  0  0  0  0  0  0
    0.4960    0.8161    0.6228 H   0  0  0  0  0  0  0  0  0  0  0  0
   -0.7805   -2.3485    0.4506 H   0  0  0  0  0  0  0  0  0  0  0  0
   -3.1347   -3.0234    0.4414 H   0  0  0  0  0  0  0  0  0  0  0  0
   -5.4527   -2.4735    0.1035 H   0  0  0  0  0  0  0  0  0  0  0  0
   -9.6388   -0.4194   -0.6586 H   0  0  0  0  0  0  0  0  0  0  0  0
   -8.6506    0.7501    0.2271 H   0  0  0  0  0  0  0  0  0  0  0  0
   -8.5446    0.6081   -1.5547 H   0  0  0  0  0  0  0  0  0  0  0  0
   -7.5282   -3.0580   -0.3210 H   0  0  0  0  0  0  0  0  0  0  0  0
   -7.7122   -2.1948    1.2368 H   0  0  0  0  0  0  0  0  0  0  0  0
   -9.0697   -2.3545    0.1182 H   0  0  0  0  0  0  0  0  0  0  0  0
   -6.5916    1.5013   -1.0688 H   0  0  0  0  0  0  0  0  0  0  0  0
   -4.3144    2.1774   -1.0963 H   0  0  0  0  0  0  0  0  0  0  0  0
   -2.1778    2.1371   -1.9382 H   0  0  0  0  0  0  0  0  0  0  0  0
   -0.6809    2.0929   -1.0077 H   0  0  0  0  0  0  0  0  0  0  0  0
   -2.1604    2.6651   -0.2044 H   0  0  0  0  0  0  0  0  0  0  0  0
    3.4577   -1.5591    1.7354 H   0  0  0  0  0  0  0  0  0  0  0  0
    2.1163   -0.4273    1.8428 H   0  0  0  0  0  0  0  0  0  0  0  0
    3.7197    0.1253    2.2646 H   0  0  0  0  0  0  0  0  0  0  0  0
    6.2963    2.4594   -0.2253 H   0  0  0  0  0  0  0  0  0  0  0  0
    8.3685    2.6466    1.0876 H   0  0  0  0  0  0  0  0  0  0  0  0
    9.1034    0.7792    2.5426 H   0  0  0  0  0  0  0  0  0  0  0  0
    7.7701   -1.3069    2.6562 H   0  0  0  0  0  0  0  0  0  0  0  0
    5.7236   -1.5502    1.3122 H   0  0  0  0  0  0  0  0  0  0  0  0
  1  2  1  0
  2  3  2  0
  3  4  1  0
  4  5  1  0
  5  6  2  3
  6  7  1  0
  7  8  2  0
  8  9  1  0
  9 10  2  0
 10 11  1  0
 11 12  2  0
 12 13  1  0
 13 14  1  0
 13 15  1  0
 12 16  1  0
 16 17  2  0
 17 18  1  0
 18 19  2  0
 19 20  1  0
  4 21  2  0
 21 22  1  0
 21 23  1  0
 23 24  1  0
 24 25  2  0
 25 26  1  0
 26 27  2  0
 27 28  1  0
 28 29  2  0
 23  2  1  0
 29 24  1  0
 19  7  1  0
 18 10  1  0
  1 30  1  0
  1 31  1  0
  1 32  1  0
  3 33  1  0
  5 34  1  0
  6 35  1  0
  8 36  1  0
  9 37  1  0
 11 38  1  0
 14 39  1  0
 14 40  1  0
 14 41  1  0
 15 42  1  0
 15 43  1  0
 15 44  1  0
 16 45  1  0
 17 46  1  0
 20 47  1  0
 20 48  1  0
 20 49  1  0
 22 50  1  0
 22 51  1  0
 22 52  1  0
 25 53  1  0
 26 54  1  0
 27 55  1  0
 28 56  1  0
 29 57  1  0
M  CHG  1  19   1
M  END
$$$$
