
     RDKit          3D

 32 33  0  0  0  0  0  0  0  0999 V2000
   -5.1474   -1.2706    0.4590 C   0  0  0  0  0  0  0  0  0  0  0  0
   -3.8833   -0.5370    0.1189 C   0  0  0  0  0  0  0  0  0  0  0  0
   -3.0352   -0.0772    1.1340 C   0  0  0  0  0  0  0  0  0  0  0  0
   -1.8734    0.6339    0.8193 C   0  0  0  0  0  0  0  0  0  0  0  0
   -0.8829    1.1958    2.1195 Cl  0  0  0  0  0  0  0  0  0  0  0  0
   -1.5388    0.8862   -0.5173 C   0  0  0  0  0  0  0  0  0  0  0  0
   -0.4105    1.6069   -0.8217 O   0  0  0  0  0  0  0  0  0  0  0  0
    0.7245    0.7390   -0.9587 C   0  0  0  0  0  0  0  0  0  0  0  0
    1.9761    1.6106   -0.8958 C   0  0  0  0  0  0  0  0  0  0  0  0
    3.2605    0.8348   -1.1697 C   0  0  0  0  0  0  0  0  0  0  0  0
    3.5221   -0.2198   -0.2139 N   0  0  0  0  0  0  0  0  0  0  0  0
    3.8695   -0.0568    1.0971 C   0  0  0  0  0  0  0  0  0  0  0  0
    4.0015   -1.3345    1.5887 C   0  0  0  0  0  0  0  0  0  0  0  0
    3.7545   -2.2607    0.6082 N   0  0  0  0  0  0  0  0  0  0  0  0
    3.4786   -1.5603   -0.4684 C   0  0  0  0  0  0  0  0  0  0  0  0
   -2.4083    0.4696   -1.5308 C   0  0  0  0  0  0  0  0  0  0  0  0
   -2.0730    0.8602   -3.3584 Br  0  0  0  0  0  0  0  0  0  0  0  0
   -3.5709   -0.2416   -1.2144 C   0  0  0  0  0  0  0  0  0  0  0  0
   -5.0295   -1.8430    1.3852 H   0  0  0  0  0  0  0  0  0  0  0  0
   -5.4100   -1.9821   -0.3310 H   0  0  0  0  0  0  0  0  0  0  0  0
   -5.9700   -0.5599    0.5841 H   0  0  0  0  0  0  0  0  0  0  0  0
   -3.2828   -0.2693    2.1762 H   0  0  0  0  0  0  0  0  0  0  0  0
    0.6741    0.2255   -1.9257 H   0  0  0  0  0  0  0  0  0  0  0  0
    0.7479   -0.0140   -0.1617 H   0  0  0  0  0  0  0  0  0  0  0  0
    1.8861    2.4234   -1.6274 H   0  0  0  0  0  0  0  0  0  0  0  0
    2.0228    2.1003    0.0851 H   0  0  0  0  0  0  0  0  0  0  0  0
    3.2322    0.3874   -2.1701 H   0  0  0  0  0  0  0  0  0  0  0  0
    4.1224    1.5114   -1.1386 H   0  0  0  0  0  0  0  0  0  0  0  0
    3.9839    0.9132    1.5603 H   0  0  0  0  0  0  0  0  0  0  0  0
    4.2623   -1.6363    2.5949 H   0  0  0  0  0  0  0  0  0  0  0  0
    3.2402   -1.9723   -1.4404 H   0  0  0  0  0  0  0  0  0  0  0  0
   -4.2431   -0.5626   -2.0082 H   0  0  0  0  0  0  0  0  0  0  0  0
  1  2  1  0
  2  3  2  0
  3  4  1  0
  4  5  1  0
  4  6  2  0
  6  7  1  0
  7  8  1  0
  8  9  1  0
  9 10  1  0
 10 11  1  0
 11 12  1  0
 12 13  2  0
 13 14  1  0
 14 15  2  0
  6 16  1  0
 16 17  1  0
 16 18  2  0
 18  2  1  0
 15 11  1  0
  1 19  1  0
  1 20  1  0
  1 21  1  0
  3 22  1  0
  8 23  1  0
  8 24  1  0
  9 25  1  0
  9 26  1  0
 10 27  1  0
 10 28  1  0
 12 29  1  0
 13 30  1  0
 15 31  1  0
 18 32  1  0
M  END
$$$$
