
     RDKit          3D

 37 39  0  0  0  0  0  0  0  0999 V2000
    7.9416    0.8283   -0.7795 C   0  0  0  0  0  0  0  0  0  0  0  0
    6.5820    0.8304   -0.0988 C   0  0  0  0  0  0  0  0  0  0  0  0
    5.9615   -0.5667   -0.0844 C   0  0  0  0  0  0  0  0  0  0  0  0
    4.6373   -0.5664    0.6063 C   0  0  0  0  0  0  0  0  0  0  0  0
    4.4685   -0.6936    1.9066 N   0  0  0  0  0  0  0  0  0  0  0  0
    3.1343   -0.6551    2.2582 N   0  0  0  0  0  0  0  0  0  0  0  0
    2.3495   -0.5020    1.2146 C   0  0  0  0  0  0  0  0  0  0  0  0
    0.9845   -0.4383    1.3429 N   0  0  0  0  0  0  0  0  0  0  0  0
    0.0608   -0.2796    0.3269 C   0  0  0  0  0  0  0  0  0  0  0  0
    0.3100   -0.1683   -0.8682 O   0  0  0  0  0  0  0  0  0  0  0  0
   -1.3733   -0.2562    0.8761 C   0  0  0  0  0  0  0  0  0  0  0  0
   -2.3256   -0.0933   -0.1625 O   0  0  0  0  0  0  0  0  0  0  0  0
   -3.6464   -0.0560    0.1921 C   0  0  0  0  0  0  0  0  0  0  0  0
   -4.1506   -0.1650    1.5022 C   0  0  0  0  0  0  0  0  0  0  0  0
   -5.5300   -0.1124    1.7423 C   0  0  0  0  0  0  0  0  0  0  0  0
   -6.3672    0.0484    0.6604 C   0  0  0  0  0  0  0  0  0  0  0  0
   -5.8790    0.1551   -0.6188 C   0  0  0  0  0  0  0  0  0  0  0  0
   -4.5272    0.1066   -0.8838 C   0  0  0  0  0  0  0  0  0  0  0  0
   -6.8675    0.3076   -1.5400 O   0  0  0  0  0  0  0  0  0  0  0  0
   -8.0344    0.2844   -0.6925 C   0  0  0  0  0  0  0  0  0  0  0  0
   -7.7237    0.1200    0.7074 O   0  0  0  0  0  0  0  0  0  0  0  0
    3.1715   -0.3939   -0.2715 S   0  0  0  0  0  0  0  0  0  0  0  0
    7.8592    0.4955   -1.8191 H   0  0  0  0  0  0  0  0  0  0  0  0
    8.6395    0.1641   -0.2597 H   0  0  0  0  0  0  0  0  0  0  0  0
    8.3676    1.8365   -0.7784 H   0  0  0  0  0  0  0  0  0  0  0  0
    6.6938    1.2034    0.9267 H   0  0  0  0  0  0  0  0  0  0  0  0
    5.9206    1.5328   -0.6205 H   0  0  0  0  0  0  0  0  0  0  0  0
    6.6296   -1.2611    0.4400 H   0  0  0  0  0  0  0  0  0  0  0  0
    5.8612   -0.9447   -1.1092 H   0  0  0  0  0  0  0  0  0  0  0  0
    0.6763   -0.5209    2.3019 H   0  0  0  0  0  0  0  0  0  0  0  0
   -1.5405   -1.2096    1.3923 H   0  0  0  0  0  0  0  0  0  0  0  0
   -1.4392    0.5822    1.5804 H   0  0  0  0  0  0  0  0  0  0  0  0
   -3.4964   -0.2918    2.3581 H   0  0  0  0  0  0  0  0  0  0  0  0
   -5.9301   -0.1953    2.7467 H   0  0  0  0  0  0  0  0  0  0  0  0
   -4.1567    0.1923   -1.8997 H   0  0  0  0  0  0  0  0  0  0  0  0
   -8.5807    1.2259   -0.8219 H   0  0  0  0  0  0  0  0  0  0  0  0
   -8.6805   -0.5431   -1.0075 H   0  0  0  0  0  0  0  0  0  0  0  0
  1  2  1  0
  2  3  1  0
  3  4  1  0
  4  5  2  0
  5  6  1  0
  6  7  2  0
  7  8  1  0
  8  9  1  0
  9 10  2  0
  9 11  1  0
 11 12  1  0
 12 13  1  0
 13 14  2  0
 14 15  1  0
 15 16  2  0
 16 17  1  0
 17 18  2  0
 17 19  1  0
 19 20  1  0
 20 21  1  0
  7 22  1  0
 22  4  1  0
 18 13  1  0
 21 16  1  0
  1 23  1  0
  1 24  1  0
  1 25  1  0
  2 26  1  0
  2 27  1  0
  3 28  1  0
  3 29  1  0
  8 30  1  0
 11 31  1  0
 11 32  1  0
 14 33  1  0
 15 34  1  0
 18 35  1  0
 20 36  1  0
 20 37  1  0
M  END
$$$$
