
     RDKit          3D

 57 60  0  0  0  0  0  0  0  0999 V2000
   -5.2415   -2.4176   -0.5328 C   0  0  0  0  0  0  0  0  0  0  0  0
   -4.6892   -2.1404    0.8627 C   0  0  0  0  0  0  0  0  0  0  0  0
   -3.5683   -3.0931    1.2667 C   0  0  0  0  0  0  0  0  0  0  0  0
   -4.3823   -0.6564    1.1028 C   0  0  0  0  0  0  0  0  0  0  0  0
   -5.1631   -0.0140    1.8162 O   0  0  0  0  0  0  0  0  0  0  0  0
   -3.2875   -0.0361    0.5272 N   0  0  0  0  0  0  0  0  0  0  0  0
   -3.0568    1.3847    0.8431 C   0  0  0  0  0  0  0  0  0  0  0  0
   -1.5705    1.7828    0.8008 C   0  0  0  0  0  0  0  0  0  0  0  0
   -0.9004    1.4067   -0.4712 N   0  0  0  0  0  0  0  0  0  0  0  0
   -0.5175    2.5350   -1.2492 C   0  0  0  0  0  0  0  0  0  0  0  0
   -1.4524    3.4204   -1.8064 C   0  0  0  0  0  0  0  0  0  0  0  0
   -1.0295    4.5104   -2.5695 C   0  0  0  0  0  0  0  0  0  0  0  0
    0.3304    4.7284   -2.7821 C   0  0  0  0  0  0  0  0  0  0  0  0
    1.2763    3.8616   -2.2313 C   0  0  0  0  0  0  0  0  0  0  0  0
    0.8625    2.7715   -1.4644 C   0  0  0  0  0  0  0  0  0  0  0  0
    1.7415    1.8470   -0.8599 N   0  0  0  0  0  0  0  0  0  0  0  0
    3.1195    1.8530   -0.8542 C   0  0  0  0  0  0  0  0  0  0  0  0
    3.8473    2.7020   -1.3578 O   0  0  0  0  0  0  0  0  0  0  0  0
    3.7582    0.7129   -0.1314 C   0  0  0  0  0  0  0  0  0  0  0  0
    5.0280    0.9124    0.4317 C   0  0  0  0  0  0  0  0  0  0  0  0
    5.6710   -0.1244    1.1124 C   0  0  0  0  0  0  0  0  0  0  0  0
    5.0495   -1.3654    1.2297 C   0  0  0  0  0  0  0  0  0  0  0  0
    3.7996   -1.5819    0.6380 C   0  0  0  0  0  0  0  0  0  0  0  0
    3.1491   -0.5458   -0.0343 C   0  0  0  0  0  0  0  0  0  0  0  0
    3.1473   -2.7894    0.6812 O   0  0  0  0  0  0  0  0  0  0  0  0
    4.0317   -3.8468    1.0734 C   0  0  0  0  0  0  0  0  0  0  0  0
    4.8747   -3.4297    2.2674 C   0  0  0  0  0  0  0  0  0  0  0  0
    5.7286   -2.3316    1.9268 O   0  0  0  0  0  0  0  0  0  0  0  0
   -1.6160    0.3953   -1.2846 C   0  0  0  0  0  0  0  0  0  0  0  0
   -2.3084   -0.6440   -0.3827 C   0  0  0  0  0  0  0  0  0  0  0  0
   -4.4561   -2.6219   -1.2645 H   0  0  0  0  0  0  0  0  0  0  0  0
   -5.8398   -1.5771   -0.9017 H   0  0  0  0  0  0  0  0  0  0  0  0
   -5.8902   -3.3032   -0.5100 H   0  0  0  0  0  0  0  0  0  0  0  0
   -5.5163   -2.3549    1.5586 H   0  0  0  0  0  0  0  0  0  0  0  0
   -3.9536   -4.1181    1.3535 H   0  0  0  0  0  0  0  0  0  0  0  0
   -3.1430   -2.8112    2.2381 H   0  0  0  0  0  0  0  0  0  0  0  0
   -2.7526   -3.1165    0.5404 H   0  0  0  0  0  0  0  0  0  0  0  0
   -3.4627    1.6257    1.8322 H   0  0  0  0  0  0  0  0  0  0  0  0
   -3.6272    1.9639    0.1072 H   0  0  0  0  0  0  0  0  0  0  0  0
   -1.4624    2.8521    1.0282 H   0  0  0  0  0  0  0  0  0  0  0  0
   -1.0456    1.2434    1.6012 H   0  0  0  0  0  0  0  0  0  0  0  0
   -2.5173    3.2707   -1.6559 H   0  0  0  0  0  0  0  0  0  0  0  0
   -1.7610    5.1906   -2.9991 H   0  0  0  0  0  0  0  0  0  0  0  0
    0.6598    5.5777   -3.3766 H   0  0  0  0  0  0  0  0  0  0  0  0
    2.3268    4.0617   -2.4137 H   0  0  0  0  0  0  0  0  0  0  0  0
    1.2338    1.1541   -0.3177 H   0  0  0  0  0  0  0  0  0  0  0  0
    5.5170    1.8820    0.3443 H   0  0  0  0  0  0  0  0  0  0  0  0
    6.6507    0.0389    1.5532 H   0  0  0  0  0  0  0  0  0  0  0  0
    2.1927   -0.7496   -0.5037 H   0  0  0  0  0  0  0  0  0  0  0  0
    3.4156   -4.7133    1.3310 H   0  0  0  0  0  0  0  0  0  0  0  0
    4.6561   -4.1142    0.2131 H   0  0  0  0  0  0  0  0  0  0  0  0
    5.5141   -4.2587    2.5895 H   0  0  0  0  0  0  0  0  0  0  0  0
    4.2478   -3.1337    3.1169 H   0  0  0  0  0  0  0  0  0  0  0  0
   -0.8946   -0.1176   -1.9328 H   0  0  0  0  0  0  0  0  0  0  0  0
   -2.3758    0.8584   -1.9270 H   0  0  0  0  0  0  0  0  0  0  0  0
   -2.7876   -1.3934   -1.0097 H   0  0  0  0  0  0  0  0  0  0  0  0
   -1.5603   -1.1435    0.2437 H   0  0  0  0  0  0  0  0  0  0  0  0
  1  2  1  0
  2  3  1  0
  2  4  1  0
  4  5  2  0
  4  6  1  0
  6  7  1  0
  7  8  1  0
  8  9  1  0
  9 10  1  0
 10 11  2  0
 11 12  1  0
 12 13  2  0
 13 14  1  0
 14 15  2  0
 15 16  1  0
 16 17  1  0
 17 18  2  0
 17 19  1  0
 19 20  2  0
 20 21  1  0
 21 22  2  0
 22 23  1  0
 23 24  2  0
 23 25  1  0
 25 26  1  0
 26 27  1  0
 27 28  1  0
  9 29  1  0
 29 30  1  0
 30  6  1  0
 15 10  1  0
 24 19  1  0
 28 22  1  0
  1 31  1  0
  1 32  1  0
  1 33  1  0
  2 34  1  0
  3 35  1  0
  3 36  1  0
  3 37  1  0
  7 38  1  0
  7 39  1  0
  8 40  1  0
  8 41  1  0
 11 42  1  0
 12 43  1  0
 13 44  1  0
 14 45  1  0
 16 46  1  0
 20 47  1  0
 21 48  1  0
 24 49  1  0
 26 50  1  0
 26 51  1  0
 27 52  1  0
 27 53  1  0
 29 54  1  0
 29 55  1  0
 30 56  1  0
 30 57  1  0
M  END
$$$$
