
     RDKit          3D

 48 51  0  0  0  0  0  0  0  0999 V2000
   -0.5529    1.6331    2.7267 C   0  0  0  0  0  0  0  0  0  0  0  0
   -0.6096    1.9567    1.2435 C   0  0  0  0  0  0  0  0  0  0  0  0
   -0.6549    0.7717    0.4164 N   0  0  0  0  0  0  0  0  0  0  0  0
   -1.7783    0.1571   -0.0749 C   0  0  0  0  0  0  0  0  0  0  0  0
   -3.3952    0.6541    0.2801 S   0  0  0  0  0  0  0  0  0  0  0  0
   -4.3333   -0.6037   -0.6410 C   0  0  0  0  0  0  0  0  0  0  0  0
   -5.8210   -0.3939   -0.4861 C   0  0  0  0  0  0  0  0  0  0  0  0
   -6.5208    0.4312   -1.3824 C   0  0  0  0  0  0  0  0  0  0  0  0
   -7.8927    0.6364   -1.2287 C   0  0  0  0  0  0  0  0  0  0  0  0
   -8.5645    0.0225   -0.1786 C   0  0  0  0  0  0  0  0  0  0  0  0
   -9.8810    0.2217   -0.0316 F   0  0  0  0  0  0  0  0  0  0  0  0
   -7.8909   -0.7924    0.7230 C   0  0  0  0  0  0  0  0  0  0  0  0
   -6.5189   -0.9996    0.5721 C   0  0  0  0  0  0  0  0  0  0  0  0
   -1.4372   -0.8533   -0.8351 N   0  0  0  0  0  0  0  0  0  0  0  0
   -0.0703   -0.9252   -0.8354 N   0  0  0  0  0  0  0  0  0  0  0  0
    0.4055    0.0332   -0.0644 C   0  0  0  0  0  0  0  0  0  0  0  0
    1.9385    0.2150    0.1636 C   0  0  0  0  0  0  0  0  0  0  0  0
    2.6360    1.1688    0.9099 C   0  0  0  0  0  0  0  0  0  0  0  0
    3.9536    0.9991    0.8406 N   0  0  0  0  0  0  0  0  0  0  0  0
    4.1276    0.0071   -0.0801 N   0  0  0  0  0  0  0  0  0  0  0  0
    5.4275   -0.1717   -0.6445 C   0  0  0  0  0  0  0  0  0  0  0  0
    5.6235   -0.7883   -1.8866 C   0  0  0  0  0  0  0  0  0  0  0  0
    6.9139   -0.9216   -2.4107 C   0  0  0  0  0  0  0  0  0  0  0  0
    8.0132   -0.4290   -1.7112 C   0  0  0  0  0  0  0  0  0  0  0  0
    7.8269    0.2104   -0.4891 C   0  0  0  0  0  0  0  0  0  0  0  0
    6.5410    0.3471    0.0391 C   0  0  0  0  0  0  0  0  0  0  0  0
    2.9240   -0.6244   -0.3333 C   0  0  0  0  0  0  0  0  0  0  0  0
    2.8222   -1.9551   -0.9521 C   0  0  0  0  0  0  0  0  0  0  0  0
    3.9514   -2.6938   -0.7926 F   0  0  0  0  0  0  0  0  0  0  0  0
    1.8366   -2.7089   -0.4044 F   0  0  0  0  0  0  0  0  0  0  0  0
    2.5880   -1.8804   -2.2847 F   0  0  0  0  0  0  0  0  0  0  0  0
   -0.4996    2.5551    3.3136 H   0  0  0  0  0  0  0  0  0  0  0  0
    0.3213    1.0217    2.9718 H   0  0  0  0  0  0  0  0  0  0  0  0
   -1.4425    1.0792    3.0442 H   0  0  0  0  0  0  0  0  0  0  0  0
    0.2481    2.5580    0.9328 H   0  0  0  0  0  0  0  0  0  0  0  0
   -1.4872    2.5742    1.0273 H   0  0  0  0  0  0  0  0  0  0  0  0
   -4.0659   -0.5611   -1.7033 H   0  0  0  0  0  0  0  0  0  0  0  0
   -4.0650   -1.6038   -0.2809 H   0  0  0  0  0  0  0  0  0  0  0  0
   -5.9988    0.9188   -2.2032 H   0  0  0  0  0  0  0  0  0  0  0  0
   -8.4398    1.2711   -1.9183 H   0  0  0  0  0  0  0  0  0  0  0  0
   -8.4364   -1.2586    1.5370 H   0  0  0  0  0  0  0  0  0  0  0  0
   -5.9955   -1.6343    1.2843 H   0  0  0  0  0  0  0  0  0  0  0  0
    2.2724    1.9817    1.5214 H   0  0  0  0  0  0  0  0  0  0  0  0
    4.8028   -1.1455   -2.4993 H   0  0  0  0  0  0  0  0  0  0  0  0
    7.0587   -1.4037   -3.3749 H   0  0  0  0  0  0  0  0  0  0  0  0
    9.0133   -0.5346   -2.1237 H   0  0  0  0  0  0  0  0  0  0  0  0
    8.6810    0.6057    0.0550 H   0  0  0  0  0  0  0  0  0  0  0  0
    6.4251    0.8520    0.9969 H   0  0  0  0  0  0  0  0  0  0  0  0
  1  2  1  0
  2  3  1  0
  3  4  1  0
  4  5  1  0
  5  6  1  0
  6  7  1  0
  7  8  2  0
  8  9  1  0
  9 10  2  0
 10 11  1  0
 10 12  1  0
 12 13  2  0
  4 14  2  0
 14 15  1  0
 15 16  2  0
 16 17  1  0
 17 18  1  0
 18 19  2  0
 19 20  1  0
 20 21  1  0
 21 22  2  0
 22 23  1  0
 23 24  2  0
 24 25  1  0
 25 26  2  0
 20 27  1  0
 27 28  1  0
 28 29  1  0
 28 30  1  0
 28 31  1  0
 16  3  1  0
 27 17  2  0
 13  7  1  0
 26 21  1  0
  1 32  1  0
  1 33  1  0
  1 34  1  0
  2 35  1  0
  2 36  1  0
  6 37  1  0
  6 38  1  0
  8 39  1  0
  9 40  1  0
 12 41  1  0
 13 42  1  0
 18 43  1  0
 22 44  1  0
 23 45  1  0
 24 46  1  0
 25 47  1  0
 26 48  1  0
M  END
$$$$
