
     RDKit          3D

 58 61  0  0  0  0  0  0  0  0999 V2000
   -4.1409    5.4213   -0.4958 C   0  0  0  0  0  0  0  0  0  0  0  0
   -4.1077    4.0334   -0.8026 O   0  0  0  0  0  0  0  0  0  0  0  0
   -3.5663    3.2037    0.1411 C   0  0  0  0  0  0  0  0  0  0  0  0
   -3.0196    3.5981    1.3625 C   0  0  0  0  0  0  0  0  0  0  0  0
   -2.4928    2.6432    2.2356 C   0  0  0  0  0  0  0  0  0  0  0  0
   -2.5111    1.2911    1.8922 C   0  0  0  0  0  0  0  0  0  0  0  0
   -3.0576    0.8790    0.6714 C   0  0  0  0  0  0  0  0  0  0  0  0
   -3.0601   -0.5424    0.3029 C   0  0  0  0  0  0  0  0  0  0  0  0
   -4.5678   -1.3311    0.1194 S   0  0  0  0  0  0  0  0  0  0  0  0
   -3.8380   -2.8402   -0.2488 C   0  0  0  0  0  0  0  0  0  0  0  0
   -4.4991   -4.0491   -0.5397 C   0  0  0  0  0  0  0  0  0  0  0  0
   -3.7433   -5.1920   -0.8247 C   0  0  0  0  0  0  0  0  0  0  0  0
   -2.3563   -5.1402   -0.8250 C   0  0  0  0  0  0  0  0  0  0  0  0
   -1.5118   -6.1838   -1.0890 O   0  0  0  0  0  0  0  0  0  0  0  0
   -2.1106   -7.4333   -1.4085 C   0  0  0  0  0  0  0  0  0  0  0  0
   -1.7121   -3.9317   -0.5337 C   0  0  0  0  0  0  0  0  0  0  0  0
   -2.4460   -2.7535   -0.2336 C   0  0  0  0  0  0  0  0  0  0  0  0
   -2.0020   -1.4147    0.0927 C   0  0  0  0  0  0  0  0  0  0  0  0
   -0.6120   -0.9798    0.1985 C   0  0  0  0  0  0  0  0  0  0  0  0
    0.2044   -1.4880    1.2130 C   0  0  0  0  0  0  0  0  0  0  0  0
    1.5338   -1.0711    1.3147 C   0  0  0  0  0  0  0  0  0  0  0  0
    2.0634   -0.1478    0.4093 C   0  0  0  0  0  0  0  0  0  0  0  0
    3.3746    0.1749    0.6256 O   0  0  0  0  0  0  0  0  0  0  0  0
    3.9630    1.1337   -0.2602 C   0  0  0  0  0  0  0  0  0  0  0  0
    5.4271    1.3357    0.1640 C   0  0  0  0  0  0  0  0  0  0  0  0
    6.1957    2.2340   -0.7198 N   0  0  0  0  0  0  0  0  0  0  0  0
    5.7427    3.6224   -0.6117 C   0  0  0  0  0  0  0  0  0  0  0  0
    7.6217    2.1543   -0.3897 C   0  0  0  0  0  0  0  0  0  0  0  0
    1.2507    0.3549   -0.6072 C   0  0  0  0  0  0  0  0  0  0  0  0
   -0.0815   -0.0611   -0.7136 C   0  0  0  0  0  0  0  0  0  0  0  0
   -3.5814    1.8468   -0.1976 C   0  0  0  0  0  0  0  0  0  0  0  0
   -3.1292    5.8241   -0.3808 H   0  0  0  0  0  0  0  0  0  0  0  0
   -4.7481    5.6150    0.3946 H   0  0  0  0  0  0  0  0  0  0  0  0
   -4.6109    5.9386   -1.3378 H   0  0  0  0  0  0  0  0  0  0  0  0
   -2.9852    4.6391    1.6653 H   0  0  0  0  0  0  0  0  0  0  0  0
   -2.0650    2.9531    3.1857 H   0  0  0  0  0  0  0  0  0  0  0  0
   -2.0959    0.5606    2.5829 H   0  0  0  0  0  0  0  0  0  0  0  0
   -5.5848   -4.0959   -0.5447 H   0  0  0  0  0  0  0  0  0  0  0  0
   -4.2811   -6.1085   -1.0446 H   0  0  0  0  0  0  0  0  0  0  0  0
   -2.7040   -7.8122   -0.5699 H   0  0  0  0  0  0  0  0  0  0  0  0
   -1.3062   -8.1507   -1.5977 H   0  0  0  0  0  0  0  0  0  0  0  0
   -2.7134   -7.3610   -2.3197 H   0  0  0  0  0  0  0  0  0  0  0  0
   -0.6246   -3.8987   -0.5425 H   0  0  0  0  0  0  0  0  0  0  0  0
   -0.1863   -2.2054    1.9306 H   0  0  0  0  0  0  0  0  0  0  0  0
    2.1626   -1.4697    2.1070 H   0  0  0  0  0  0  0  0  0  0  0  0
    3.9337    0.7585   -1.2905 H   0  0  0  0  0  0  0  0  0  0  0  0
    3.4147    2.0791   -0.1857 H   0  0  0  0  0  0  0  0  0  0  0  0
    5.4632    1.6793    1.2069 H   0  0  0  0  0  0  0  0  0  0  0  0
    5.8964    0.3421    0.1669 H   0  0  0  0  0  0  0  0  0  0  0  0
    4.7107    3.7303   -0.9595 H   0  0  0  0  0  0  0  0  0  0  0  0
    5.8059    3.9996    0.4154 H   0  0  0  0  0  0  0  0  0  0  0  0
    6.3466    4.2744   -1.2533 H   0  0  0  0  0  0  0  0  0  0  0  0
    7.8258    2.4664    0.6411 H   0  0  0  0  0  0  0  0  0  0  0  0
    8.2096    2.7860   -1.0651 H   0  0  0  0  0  0  0  0  0  0  0  0
    7.9916    1.1313   -0.5212 H   0  0  0  0  0  0  0  0  0  0  0  0
    1.6181    1.0699   -1.3357 H   0  0  0  0  0  0  0  0  0  0  0  0
   -0.7005    0.3390   -1.5137 H   0  0  0  0  0  0  0  0  0  0  0  0
   -4.0029    1.5488   -1.1553 H   0  0  0  0  0  0  0  0  0  0  0  0
  1  2  1  0
  2  3  1  0
  3  4  2  0
  4  5  1  0
  5  6  2  0
  6  7  1  0
  7  8  1  0
  8  9  1  0
  9 10  1  0
 10 11  2  0
 11 12  1  0
 12 13  2  0
 13 14  1  0
 14 15  1  0
 13 16  1  0
 16 17  2  0
 17 18  1  0
 18 19  1  0
 19 20  2  0
 20 21  1  0
 21 22  2  0
 22 23  1  0
 23 24  1  0
 24 25  1  0
 25 26  1  0
 26 27  1  0
 26 28  1  0
 22 29  1  0
 29 30  2  0
  7 31  2  0
 31  3  1  0
 18  8  2  0
 30 19  1  0
 17 10  1  0
  1 32  1  0
  1 33  1  0
  1 34  1  0
  4 35  1  0
  5 36  1  0
  6 37  1  0
 11 38  1  0
 12 39  1  0
 15 40  1  0
 15 41  1  0
 15 42  1  0
 16 43  1  0
 20 44  1  0
 21 45  1  0
 24 46  1  0
 24 47  1  0
 25 48  1  0
 25 49  1  0
 27 50  1  0
 27 51  1  0
 27 52  1  0
 28 53  1  0
 28 54  1  0
 28 55  1  0
 29 56  1  0
 30 57  1  0
 31 58  1  0
M  END
$$$$
