
     RDKit          3D

 34 36  0  0  0  0  0  0  0  0999 V2000
    3.6521   -1.7361    0.4553 N   0  0  0  0  0  0  0  0  0  0  0  0
    3.1310   -0.5668    1.1538 C   0  0  0  0  0  0  0  0  0  0  0  0
    1.6332   -0.3823    0.9192 C   0  0  0  0  0  0  0  0  0  0  0  0
    1.2982   -0.1099   -0.5558 C   0  0  0  0  0  0  0  0  0  0  0  0
   -0.1514    0.1838   -0.7444 N   0  0  0  0  0  0  0  0  0  0  0  0
   -0.9945   -0.9570   -0.6211 C   0  0  0  0  0  0  0  0  0  0  0  0
   -0.7290   -2.1216   -1.3697 C   0  0  0  0  0  0  0  0  0  0  0  0
   -1.5444   -3.2534   -1.2831 C   0  0  0  0  0  0  0  0  0  0  0  0
   -2.6557   -3.2436   -0.4515 C   0  0  0  0  0  0  0  0  0  0  0  0
   -2.9542   -2.0978    0.2823 C   0  0  0  0  0  0  0  0  0  0  0  0
   -2.1411   -0.9547    0.1956 C   0  0  0  0  0  0  0  0  0  0  0  0
   -2.6071    0.4420    1.1980 S   0  0  0  0  0  0  0  0  0  0  0  0
   -1.6391    1.7478    0.4713 C   0  0  0  0  0  0  0  0  0  0  0  0
   -1.9980    3.0646    0.8078 C   0  0  0  0  0  0  0  0  0  0  0  0
   -1.2876    4.1492    0.2976 C   0  0  0  0  0  0  0  0  0  0  0  0
   -0.2200    3.9188   -0.5588 C   0  0  0  0  0  0  0  0  0  0  0  0
    0.6499    5.2505   -1.2158 Cl  0  0  0  0  0  0  0  0  0  0  0  0
    0.1485    2.6157   -0.8962 C   0  0  0  0  0  0  0  0  0  0  0  0
   -0.5373    1.5017   -0.3718 C   0  0  0  0  0  0  0  0  0  0  0  0
    3.1945   -2.5768    0.8103 H   0  0  0  0  0  0  0  0  0  0  0  0
    4.6423   -1.8461    0.6763 H   0  0  0  0  0  0  0  0  0  0  0  0
    3.3177   -0.6801    2.2274 H   0  0  0  0  0  0  0  0  0  0  0  0
    3.6748    0.3238    0.8206 H   0  0  0  0  0  0  0  0  0  0  0  0
    1.2915    0.4559    1.5386 H   0  0  0  0  0  0  0  0  0  0  0  0
    1.0928   -1.2686    1.2744 H   0  0  0  0  0  0  0  0  0  0  0  0
    1.9206    0.7162   -0.9175 H   0  0  0  0  0  0  0  0  0  0  0  0
    1.6084   -0.9589   -1.1739 H   0  0  0  0  0  0  0  0  0  0  0  0
    0.1060   -2.1513   -2.0646 H   0  0  0  0  0  0  0  0  0  0  0  0
   -1.3135   -4.1344   -1.8763 H   0  0  0  0  0  0  0  0  0  0  0  0
   -3.2954   -4.1191   -0.3804 H   0  0  0  0  0  0  0  0  0  0  0  0
   -3.8319   -2.0991    0.9251 H   0  0  0  0  0  0  0  0  0  0  0  0
   -2.8401    3.2517    1.4711 H   0  0  0  0  0  0  0  0  0  0  0  0
   -1.5790    5.1615    0.5631 H   0  0  0  0  0  0  0  0  0  0  0  0
    0.9577    2.4744   -1.6070 H   0  0  0  0  0  0  0  0  0  0  0  0
  1  2  1  0
  2  3  1  0
  3  4  1  0
  4  5  1  0
  5  6  1  0
  6  7  2  0
  7  8  1  0
  8  9  2  0
  9 10  1  0
 10 11  2  0
 11 12  1  0
 12 13  1  0
 13 14  2  0
 14 15  1  0
 15 16  2  0
 16 17  1  0
 16 18  1  0
 18 19  2  0
 19  5  1  0
 11  6  1  0
 19 13  1  0
  1 20  1  0
  1 21  1  0
  2 22  1  0
  2 23  1  0
  3 24  1  0
  3 25  1  0
  4 26  1  0
  4 27  1  0
  7 28  1  0
  8 29  1  0
  9 30  1  0
 10 31  1  0
 14 32  1  0
 15 33  1  0
 18 34  1  0
M  END
$$$$
