
     RDKit          3D

 37 39  0  0  0  0  0  0  0  0999 V2000
    3.6088   -1.1768    1.3887 N   0  0  0  0  0  0  0  0  0  0  0  0
    3.0296   -0.7958    0.1050 C   0  0  0  0  0  0  0  0  0  0  0  0
    2.2574    0.5180    0.2212 C   0  0  0  0  0  0  0  0  0  0  0  0
    1.6475    0.9821   -1.1065 C   0  0  0  0  0  0  0  0  0  0  0  0
    0.5497    0.0729   -1.6881 C   0  0  0  0  0  0  0  0  0  0  0  0
   -0.6505   -0.0262   -0.8204 N   0  0  0  0  0  0  0  0  0  0  0  0
   -0.7742   -1.2037   -0.0370 C   0  0  0  0  0  0  0  0  0  0  0  0
   -0.4880   -2.4725   -0.5805 C   0  0  0  0  0  0  0  0  0  0  0  0
   -0.6076   -3.6440    0.1735 C   0  0  0  0  0  0  0  0  0  0  0  0
   -1.0382   -3.5793    1.4907 C   0  0  0  0  0  0  0  0  0  0  0  0
   -1.3658   -2.3447    2.0438 C   0  0  0  0  0  0  0  0  0  0  0  0
   -1.2521   -1.1651    1.2880 C   0  0  0  0  0  0  0  0  0  0  0  0
   -1.7002    0.3548    2.1029 S   0  0  0  0  0  0  0  0  0  0  0  0
   -1.8977    1.4549    0.7152 C   0  0  0  0  0  0  0  0  0  0  0  0
   -2.5946    2.6523    0.9541 C   0  0  0  0  0  0  0  0  0  0  0  0
   -2.7727    3.5866   -0.0629 C   0  0  0  0  0  0  0  0  0  0  0  0
   -2.2562    3.3222   -1.3231 C   0  0  0  0  0  0  0  0  0  0  0  0
   -2.4828    4.4608   -2.5939 Cl  0  0  0  0  0  0  0  0  0  0  0  0
   -1.5585    2.1380   -1.5706 C   0  0  0  0  0  0  0  0  0  0  0  0
   -1.3480    1.1832   -0.5552 C   0  0  0  0  0  0  0  0  0  0  0  0
    4.1744   -0.4103    1.7517 H   0  0  0  0  0  0  0  0  0  0  0  0
    2.8573   -1.3095    2.0669 H   0  0  0  0  0  0  0  0  0  0  0  0
    2.3821   -1.6086   -0.2332 H   0  0  0  0  0  0  0  0  0  0  0  0
    3.8348   -0.6941   -0.6304 H   0  0  0  0  0  0  0  0  0  0  0  0
    2.9431    1.3028    0.5671 H   0  0  0  0  0  0  0  0  0  0  0  0
    1.4789    0.4365    0.9870 H   0  0  0  0  0  0  0  0  0  0  0  0
    2.4500    1.0669   -1.8504 H   0  0  0  0  0  0  0  0  0  0  0  0
    1.2608    1.9983   -0.9683 H   0  0  0  0  0  0  0  0  0  0  0  0
    0.2624    0.4485   -2.6771 H   0  0  0  0  0  0  0  0  0  0  0  0
    0.9991   -0.8998   -1.9071 H   0  0  0  0  0  0  0  0  0  0  0  0
   -0.1984   -2.5781   -1.6223 H   0  0  0  0  0  0  0  0  0  0  0  0
   -0.3740   -4.6054   -0.2772 H   0  0  0  0  0  0  0  0  0  0  0  0
   -1.1339   -4.4858    2.0822 H   0  0  0  0  0  0  0  0  0  0  0  0
   -1.7180   -2.3062    3.0724 H   0  0  0  0  0  0  0  0  0  0  0  0
   -3.0040    2.8624    1.9403 H   0  0  0  0  0  0  0  0  0  0  0  0
   -3.3158    4.5066    0.1344 H   0  0  0  0  0  0  0  0  0  0  0  0
   -1.2050    1.9579   -2.5806 H   0  0  0  0  0  0  0  0  0  0  0  0
  1  2  1  0
  2  3  1  0
  3  4  1  0
  4  5  1  0
  5  6  1  0
  6  7  1  0
  7  8  2  0
  8  9  1  0
  9 10  2  0
 10 11  1  0
 11 12  2  0
 12 13  1  0
 13 14  1  0
 14 15  2  0
 15 16  1  0
 16 17  2  0
 17 18  1  0
 17 19  1  0
 19 20  2  0
 20  6  1  0
 12  7  1  0
 20 14  1  0
  1 21  1  0
  1 22  1  0
  2 23  1  0
  2 24  1  0
  3 25  1  0
  3 26  1  0
  4 27  1  0
  4 28  1  0
  5 29  1  0
  5 30  1  0
  8 31  1  0
  9 32  1  0
 10 33  1  0
 11 34  1  0
 15 35  1  0
 16 36  1  0
 19 37  1  0
M  END
$$$$
