
     RDKit          3D

 37 40  0  0  0  0  0  0  0  0999 V2000
   -2.2605    2.3309    0.7994 C   0  0  0  0  0  0  0  0  0  0  0  0
   -3.2271    1.2166    1.1626 C   0  0  0  0  0  0  0  0  0  0  0  0
   -2.8510   -0.0167    0.5523 O   0  0  0  0  0  0  0  0  0  0  0  0
   -3.1629   -0.2369   -0.7658 C   0  0  0  0  0  0  0  0  0  0  0  0
   -4.0285    0.5507   -1.5297 C   0  0  0  0  0  0  0  0  0  0  0  0
   -4.2922    0.2246   -2.8639 C   0  0  0  0  0  0  0  0  0  0  0  0
   -3.6979   -0.8916   -3.4460 C   0  0  0  0  0  0  0  0  0  0  0  0
   -2.8333   -1.6864   -2.6963 C   0  0  0  0  0  0  0  0  0  0  0  0
   -2.5576   -1.3634   -1.3606 C   0  0  0  0  0  0  0  0  0  0  0  0
   -1.6405   -2.2327   -0.6118 C   0  0  0  0  0  0  0  0  0  0  0  0
   -0.4036   -1.8917   -0.2219 C   0  0  0  0  0  0  0  0  0  0  0  0
    0.5845   -2.9794    0.7546 S   0  0  0  0  0  0  0  0  0  0  0  0
    1.8080   -1.7840    0.8353 C   0  0  0  0  0  0  0  0  0  0  0  0
    2.9802   -1.6993    1.3947 N   0  0  0  0  0  0  0  0  0  0  0  0
    3.3818   -0.4313    0.9958 C   0  0  0  0  0  0  0  0  0  0  0  0
    4.7621    0.1702    1.4179 C   0  0  0  0  0  0  0  0  0  0  0  0
    5.7033   -0.4653    2.2053 C   0  0  0  0  0  0  0  0  0  0  0  0
    6.7939    0.4280    2.3389 C   0  0  0  0  0  0  0  0  0  0  0  0
    6.4530    1.5528    1.6262 C   0  0  0  0  0  0  0  0  0  0  0  0
    5.2257    1.4074    1.0652 O   0  0  0  0  0  0  0  0  0  0  0  0
    2.5003    0.2345    0.2230 N   0  0  0  0  0  0  0  0  0  0  0  0
    1.5045   -0.6655    0.1484 N   0  0  0  0  0  0  0  0  0  0  0  0
    0.2980   -0.5959   -0.5164 C   0  0  0  0  0  0  0  0  0  0  0  0
   -0.0305    0.3542   -1.2010 O   0  0  0  0  0  0  0  0  0  0  0  0
   -2.5088    3.2483    1.3408 H   0  0  0  0  0  0  0  0  0  0  0  0
   -1.2335    2.0433    1.0480 H   0  0  0  0  0  0  0  0  0  0  0  0
   -2.2799    2.5459   -0.2731 H   0  0  0  0  0  0  0  0  0  0  0  0
   -4.2705    1.4809    0.9632 H   0  0  0  0  0  0  0  0  0  0  0  0
   -3.1663    1.0520    2.2446 H   0  0  0  0  0  0  0  0  0  0  0  0
   -4.5166    1.4295   -1.1244 H   0  0  0  0  0  0  0  0  0  0  0  0
   -4.9631    0.8482   -3.4499 H   0  0  0  0  0  0  0  0  0  0  0  0
   -3.9038   -1.1391   -4.4842 H   0  0  0  0  0  0  0  0  0  0  0  0
   -2.3711   -2.5526   -3.1637 H   0  0  0  0  0  0  0  0  0  0  0  0
   -2.0603   -3.2012   -0.3504 H   0  0  0  0  0  0  0  0  0  0  0  0
    5.6048   -1.4559    2.6279 H   0  0  0  0  0  0  0  0  0  0  0  0
    7.7132    0.2723    2.8855 H   0  0  0  0  0  0  0  0  0  0  0  0
    6.9461    2.4947    1.4293 H   0  0  0  0  0  0  0  0  0  0  0  0
  1  2  1  0
  2  3  1  0
  3  4  1  0
  4  5  2  0
  5  6  1  0
  6  7  2  0
  7  8  1  0
  8  9  2  0
  9 10  1  0
 10 11  2  3
 11 12  1  0
 12 13  1  0
 13 14  2  0
 14 15  1  0
 15 16  1  0
 16 17  2  0
 17 18  1  0
 18 19  2  0
 19 20  1  0
 15 21  2  0
 21 22  1  0
 22 23  1  0
 23 24  2  0
  9  4  1  0
 23 11  1  0
 22 13  1  0
 20 16  1  0
  1 25  1  0
  1 26  1  0
  1 27  1  0
  2 28  1  0
  2 29  1  0
  5 30  1  0
  6 31  1  0
  7 32  1  0
  8 33  1  0
 10 34  1  0
 17 35  1  0
 18 36  1  0
 19 37  1  0
M  END
$$$$
