
     RDKit          3D

 65 68  0  0  0  0  0  0  0  0999 V2000
    8.0038    0.8400   -1.3777 C   0  0  0  0  0  0  0  0  0  0  0  0
    6.9791    0.0085   -0.7251 C   0  0  0  0  0  0  0  0  0  0  0  0
    5.9706    0.2626    0.1704 C   0  0  0  0  0  0  0  0  0  0  0  0
    5.3605   -0.9921    0.3840 C   0  0  0  0  0  0  0  0  0  0  0  0
    4.3017   -1.3248    1.1985 N   0  0  0  0  0  0  0  0  0  0  0  0
    3.5948   -0.4448    1.9837 C   0  0  0  0  0  0  0  0  0  0  0  0
    3.8109    0.7603    2.0868 O   0  0  0  0  0  0  0  0  0  0  0  0
    2.5286   -1.1323    2.8201 C   0  0  0  0  0  0  0  0  0  0  0  0
    1.2683   -0.2781    2.9366 C   0  0  0  0  0  0  0  0  0  0  0  0
    0.4130   -0.3836    1.6812 C   0  0  0  0  0  0  0  0  0  0  0  0
    0.8646   -0.9400    0.6796 O   0  0  0  0  0  0  0  0  0  0  0  0
   -0.8709    0.1468    1.7356 N   0  0  0  0  0  0  0  0  0  0  0  0
   -1.3121    1.0708    2.7813 C   0  0  0  0  0  0  0  0  0  0  0  0
   -2.4208    0.4508    3.5830 C   0  0  0  0  0  0  0  0  0  0  0  0
   -2.4782   -0.8016    4.1669 C   0  0  0  0  0  0  0  0  0  0  0  0
   -3.6993   -1.0225    4.8667 C   0  0  0  0  0  0  0  0  0  0  0  0
   -4.5347    0.0693    4.8000 C   0  0  0  0  0  0  0  0  0  0  0  0
   -3.8513    1.3464    3.8933 S   0  0  0  0  0  0  0  0  0  0  0  0
   -1.7334    0.0684    0.5361 C   0  0  0  0  0  0  0  0  0  0  0  0
   -1.2318    0.9969   -0.6074 C   0  0  0  0  0  0  0  0  0  0  0  0
   -0.4138    1.8975   -0.4148 O   0  0  0  0  0  0  0  0  0  0  0  0
   -1.8786    0.8482   -1.8240 N   0  0  0  0  0  0  0  0  0  0  0  0
   -1.4868    1.6153   -2.9858 C   0  0  0  0  0  0  0  0  0  0  0  0
   -1.9008    3.0839   -2.9103 C   0  0  0  0  0  0  0  0  0  0  0  0
   -1.9232    3.5583   -4.3613 C   0  0  0  0  0  0  0  0  0  0  0  0
   -1.9943    2.2996   -5.2254 C   0  0  0  0  0  0  0  0  0  0  0  0
   -2.1911    1.1448   -4.2541 C   0  0  0  0  0  0  0  0  0  0  0  0
   -2.1275   -1.3586    0.1503 C   0  0  0  0  0  0  0  0  0  0  0  0
   -3.2737   -1.9362    0.7253 C   0  0  0  0  0  0  0  0  0  0  0  0
   -3.6721   -3.2316    0.3892 C   0  0  0  0  0  0  0  0  0  0  0  0
   -2.9298   -3.9741   -0.5246 C   0  0  0  0  0  0  0  0  0  0  0  0
   -1.7874   -3.4234   -1.0993 C   0  0  0  0  0  0  0  0  0  0  0  0
   -1.3881   -2.1282   -0.7626 C   0  0  0  0  0  0  0  0  0  0  0  0
    5.9628   -1.9450   -0.3379 N   0  0  0  0  0  0  0  0  0  0  0  0
    6.9818   -1.3161   -1.0280 O   0  0  0  0  0  0  0  0  0  0  0  0
    7.5982    1.8245   -1.6311 H   0  0  0  0  0  0  0  0  0  0  0  0
    8.3623    0.3751   -2.3020 H   0  0  0  0  0  0  0  0  0  0  0  0
    8.8603    0.9826   -0.7110 H   0  0  0  0  0  0  0  0  0  0  0  0
    5.7140    1.2178    0.6030 H   0  0  0  0  0  0  0  0  0  0  0  0
    4.0197   -2.2914    1.1255 H   0  0  0  0  0  0  0  0  0  0  0  0
    2.9628   -1.2764    3.8170 H   0  0  0  0  0  0  0  0  0  0  0  0
    2.2941   -2.1264    2.4233 H   0  0  0  0  0  0  0  0  0  0  0  0
    1.5242    0.7719    3.1097 H   0  0  0  0  0  0  0  0  0  0  0  0
    0.6829   -0.6498    3.7839 H   0  0  0  0  0  0  0  0  0  0  0  0
   -0.5022    1.3369    3.4637 H   0  0  0  0  0  0  0  0  0  0  0  0
   -1.6215    2.0049    2.2969 H   0  0  0  0  0  0  0  0  0  0  0  0
   -1.6830   -1.5332    4.0895 H   0  0  0  0  0  0  0  0  0  0  0  0
   -3.9498   -1.9344    5.3962 H   0  0  0  0  0  0  0  0  0  0  0  0
   -5.5152    0.1808    5.2422 H   0  0  0  0  0  0  0  0  0  0  0  0
   -2.6841    0.5531    0.8078 H   0  0  0  0  0  0  0  0  0  0  0  0
   -2.4437    0.0187   -1.9665 H   0  0  0  0  0  0  0  0  0  0  0  0
   -0.3981    1.5380   -3.1040 H   0  0  0  0  0  0  0  0  0  0  0  0
   -2.9029    3.1816   -2.4732 H   0  0  0  0  0  0  0  0  0  0  0  0
   -1.2193    3.6830   -2.2973 H   0  0  0  0  0  0  0  0  0  0  0  0
   -2.7786    4.2183   -4.5399 H   0  0  0  0  0  0  0  0  0  0  0  0
   -1.0161    4.1254   -4.6000 H   0  0  0  0  0  0  0  0  0  0  0  0
   -2.8003    2.3525   -5.9638 H   0  0  0  0  0  0  0  0  0  0  0  0
   -1.0531    2.1739   -5.7734 H   0  0  0  0  0  0  0  0  0  0  0  0
   -3.2623    0.9881   -4.0724 H   0  0  0  0  0  0  0  0  0  0  0  0
   -1.7789    0.2050   -4.6358 H   0  0  0  0  0  0  0  0  0  0  0  0
   -3.8718   -1.3780    1.4427 H   0  0  0  0  0  0  0  0  0  0  0  0
   -4.5620   -3.6596    0.8424 H   0  0  0  0  0  0  0  0  0  0  0  0
   -3.2365   -4.9836   -0.7849 H   0  0  0  0  0  0  0  0  0  0  0  0
   -1.1985   -4.0041   -1.8058 H   0  0  0  0  0  0  0  0  0  0  0  0
   -0.4808   -1.7303   -1.2150 H   0  0  0  0  0  0  0  0  0  0  0  0
  1  2  1  0
  2  3  2  0
  3  4  1  0
  4  5  1  0
  5  6  1  0
  6  7  2  0
  6  8  1  0
  8  9  1  0
  9 10  1  0
 10 11  2  0
 10 12  1  0
 12 13  1  0
 13 14  1  0
 14 15  2  0
 15 16  1  0
 16 17  2  0
 17 18  1  0
 12 19  1  0
 19 20  1  0
 20 21  2  0
 20 22  1  0
 22 23  1  0
 23 24  1  0
 24 25  1  0
 25 26  1  0
 26 27  1  0
 19 28  1  0
 28 29  2  0
 29 30  1  0
 30 31  2  0
 31 32  1  0
 32 33  2  0
  4 34  2  0
 34 35  1  0
 35  2  1  0
 18 14  1  0
 27 23  1  0
 33 28  1  0
  1 36  1  0
  1 37  1  0
  1 38  1  0
  3 39  1  0
  5 40  1  0
  8 41  1  0
  8 42  1  0
  9 43  1  0
  9 44  1  0
 13 45  1  0
 13 46  1  0
 15 47  1  0
 16 48  1  0
 17 49  1  0
 19 50  1  0
 22 51  1  0
 23 52  1  0
 24 53  1  0
 24 54  1  0
 25 55  1  0
 25 56  1  0
 26 57  1  0
 26 58  1  0
 27 59  1  0
 27 60  1  0
 29 61  1  0
 30 62  1  0
 31 63  1  0
 32 64  1  0
 33 65  1  0
M  END
$$$$
