
     RDKit          3D

 47 49  0  0  0  0  0  0  0  0999 V2000
   -2.5794   -1.9649   -1.1736 C   0  0  0  0  0  0  0  0  0  0  0  0
   -3.1811   -0.6185   -1.5385 C   0  0  0  0  0  0  0  0  0  0  0  0
   -3.5929    0.1496   -0.3555 N   0  0  0  0  0  4  0  0  0  0  0  0
   -2.8500    1.1128    0.1725 C   0  0  0  0  0  0  0  0  0  0  0  0
   -1.5859    1.5572   -0.2785 C   0  0  0  0  0  0  0  0  0  0  0  0
   -0.4196    1.0480    0.1487 C   0  0  0  0  0  0  0  0  0  0  0  0
   -0.2168    0.0125    1.1451 C   0  0  0  0  0  0  0  0  0  0  0  0
    0.9663   -0.5388    1.4647 C   0  0  0  0  0  0  0  0  0  0  0  0
    2.2526   -0.2025    0.8526 C   0  0  0  0  0  0  0  0  0  0  0  0
    2.7490   -0.9613   -0.2030 C   0  0  0  0  0  0  0  0  0  0  0  0
    3.9667   -0.6176   -0.8086 C   0  0  0  0  0  0  0  0  0  0  0  0
    4.7378    0.4794   -0.3827 C   0  0  0  0  0  0  0  0  0  0  0  0
    5.9382    0.8288   -1.0128 N   0  0  0  0  0  0  0  0  0  0  0  0
    6.7953    1.8463   -0.4030 C   0  0  0  0  0  0  0  0  0  0  0  0
    6.6432   -0.1912   -1.7916 C   0  0  0  0  0  0  0  0  0  0  0  0
    4.2021    1.2273    0.6811 C   0  0  0  0  0  0  0  0  0  0  0  0
    2.9859    0.8943    1.2958 C   0  0  0  0  0  0  0  0  0  0  0  0
   -3.6416    1.8470    1.5037 S   0  0  0  0  0  0  0  0  0  0  0  0
   -4.9997    0.8013    1.3597 C   0  0  0  0  0  0  0  0  0  0  0  0
   -6.1605    0.7583    2.1473 C   0  0  0  0  0  0  0  0  0  0  0  0
   -7.1394   -0.1850    1.8262 C   0  0  0  0  0  0  0  0  0  0  0  0
   -6.9684   -1.0565    0.7554 C   0  0  0  0  0  0  0  0  0  0  0  0
   -5.8083   -1.0091   -0.0274 C   0  0  0  0  0  0  0  0  0  0  0  0
   -4.8092   -0.0640    0.2846 C   0  0  0  0  0  0  0  0  0  0  0  0
   -3.2827   -2.5742   -0.5987 H   0  0  0  0  0  0  0  0  0  0  0  0
   -1.6773   -1.8435   -0.5692 H   0  0  0  0  0  0  0  0  0  0  0  0
   -2.3100   -2.5177   -2.0786 H   0  0  0  0  0  0  0  0  0  0  0  0
   -4.0522   -0.7595   -2.1886 H   0  0  0  0  0  0  0  0  0  0  0  0
   -2.4646   -0.0430   -2.1348 H   0  0  0  0  0  0  0  0  0  0  0  0
   -1.5663    2.3613   -1.0121 H   0  0  0  0  0  0  0  0  0  0  0  0
    0.4872    1.4726   -0.2883 H   0  0  0  0  0  0  0  0  0  0  0  0
   -1.0821   -0.3477    1.6974 H   0  0  0  0  0  0  0  0  0  0  0  0
    1.0189   -1.3075    2.2340 H   0  0  0  0  0  0  0  0  0  0  0  0
    2.2009   -1.8232   -0.5739 H   0  0  0  0  0  0  0  0  0  0  0  0
    4.2934   -1.2377   -1.6380 H   0  0  0  0  0  0  0  0  0  0  0  0
    6.2720    2.8044   -0.3133 H   0  0  0  0  0  0  0  0  0  0  0  0
    7.1483    1.5246    0.5830 H   0  0  0  0  0  0  0  0  0  0  0  0
    7.6761    2.0449   -1.0239 H   0  0  0  0  0  0  0  0  0  0  0  0
    6.8702   -1.0694   -1.1768 H   0  0  0  0  0  0  0  0  0  0  0  0
    7.5927    0.1917   -2.1828 H   0  0  0  0  0  0  0  0  0  0  0  0
    6.0592   -0.4939   -2.6669 H   0  0  0  0  0  0  0  0  0  0  0  0
    4.7222    2.0977    1.0698 H   0  0  0  0  0  0  0  0  0  0  0  0
    2.6247    1.5079    2.1179 H   0  0  0  0  0  0  0  0  0  0  0  0
   -6.3021    1.4381    2.9849 H   0  0  0  0  0  0  0  0  0  0  0  0
   -8.0501   -0.2364    2.4236 H   0  0  0  0  0  0  0  0  0  0  0  0
   -7.7487   -1.7826    0.5265 H   0  0  0  0  0  0  0  0  0  0  0  0
   -5.7138   -1.7083   -0.8533 H   0  0  0  0  0  0  0  0  0  0  0  0
  1  2  1  0
  2  3  1  0
  3  4  2  0
  4  5  1  0
  5  6  2  3
  6  7  1  0
  7  8  2  3
  8  9  1  0
  9 10  2  0
 10 11  1  0
 11 12  2  0
 12 13  1  0
 13 14  1  0
 13 15  1  0
 12 16  1  0
 16 17  2  0
  4 18  1  0
 18 19  1  0
 19 20  2  0
 20 21  1  0
 21 22  2  0
 22 23  1  0
 23 24  2  0
 24  3  1  0
 17  9  1  0
 24 19  1  0
  1 25  1  0
  1 26  1  0
  1 27  1  0
  2 28  1  0
  2 29  1  0
  5 30  1  0
  6 31  1  0
  7 32  1  0
  8 33  1  0
 10 34  1  0
 11 35  1  0
 14 36  1  0
 14 37  1  0
 14 38  1  0
 15 39  1  0
 15 40  1  0
 15 41  1  0
 16 42  1  0
 17 43  1  0
 20 44  1  0
 21 45  1  0
 22 46  1  0
 23 47  1  0
M  CHG  1   3   1
M  END
$$$$
