
     RDKit          3D

 40 42  0  0  0  0  0  0  0  0999 V2000
   -5.9533    1.0592   -0.0185 C   0  0  0  0  0  0  0  0  0  0  0  0
   -5.3485   -0.0800    0.8227 C   0  0  0  0  0  0  0  0  0  0  0  0
   -5.8399    0.0891    2.2768 C   0  0  0  0  0  0  0  0  0  0  0  0
   -5.8599   -1.4366    0.3038 C   0  0  0  0  0  0  0  0  0  0  0  0
   -3.8286   -0.0263    0.7824 C   0  0  0  0  0  0  0  0  0  0  0  0
   -3.0544    0.1582    1.8354 N   0  0  0  0  0  0  0  0  0  0  0  0
   -1.7142    0.1662    1.5110 N   0  0  0  0  0  0  0  0  0  0  0  0
   -1.5134   -0.0133    0.2257 C   0  0  0  0  0  0  0  0  0  0  0  0
   -0.2578   -0.0395   -0.3196 N   0  0  0  0  0  0  0  0  0  0  0  0
    0.0821   -0.2253   -1.6388 C   0  0  0  0  0  0  0  0  0  0  0  0
   -0.6833   -0.4067   -2.5816 O   0  0  0  0  0  0  0  0  0  0  0  0
    1.5957   -0.1867   -1.8726 C   0  0  0  0  0  0  0  0  0  0  0  0
    2.3012    0.0206   -0.6512 O   0  0  0  0  0  0  0  0  0  0  0  0
    3.6671    0.0760   -0.7233 C   0  0  0  0  0  0  0  0  0  0  0  0
    4.4342   -0.0621   -1.8956 C   0  0  0  0  0  0  0  0  0  0  0  0
    5.8325    0.0112   -1.8466 C   0  0  0  0  0  0  0  0  0  0  0  0
    6.4245    0.2216   -0.6214 C   0  0  0  0  0  0  0  0  0  0  0  0
    5.6793    0.3582    0.5241 C   0  0  0  0  0  0  0  0  0  0  0  0
    4.3027    0.2894    0.5059 C   0  0  0  0  0  0  0  0  0  0  0  0
    6.4519    0.5613    1.6245 O   0  0  0  0  0  0  0  0  0  0  0  0
    7.7700    0.5430    1.0378 C   0  0  0  0  0  0  0  0  0  0  0  0
    7.7597    0.3187   -0.3881 O   0  0  0  0  0  0  0  0  0  0  0  0
   -2.9368   -0.2019   -0.6853 S   0  0  0  0  0  0  0  0  0  0  0  0
   -7.0468    1.0694    0.0581 H   0  0  0  0  0  0  0  0  0  0  0  0
   -5.7050    0.9597   -1.0811 H   0  0  0  0  0  0  0  0  0  0  0  0
   -5.5863    2.0371    0.3148 H   0  0  0  0  0  0  0  0  0  0  0  0
   -5.4505   -0.7047    2.9254 H   0  0  0  0  0  0  0  0  0  0  0  0
   -5.5174    1.0486    2.6988 H   0  0  0  0  0  0  0  0  0  0  0  0
   -6.9341    0.0551    2.3332 H   0  0  0  0  0  0  0  0  0  0  0  0
   -6.9496   -1.5098    0.3982 H   0  0  0  0  0  0  0  0  0  0  0  0
   -5.4189   -2.2686    0.8650 H   0  0  0  0  0  0  0  0  0  0  0  0
   -5.6171   -1.5876   -0.7539 H   0  0  0  0  0  0  0  0  0  0  0  0
    0.4952    0.0911    0.3472 H   0  0  0  0  0  0  0  0  0  0  0  0
    1.8764   -1.1504   -2.3128 H   0  0  0  0  0  0  0  0  0  0  0  0
    1.7913    0.6393   -2.5662 H   0  0  0  0  0  0  0  0  0  0  0  0
    3.9743   -0.2286   -2.8647 H   0  0  0  0  0  0  0  0  0  0  0  0
    6.4327   -0.0946   -2.7437 H   0  0  0  0  0  0  0  0  0  0  0  0
    3.7340    0.3980    1.4225 H   0  0  0  0  0  0  0  0  0  0  0  0
    8.2558    1.5056    1.2373 H   0  0  0  0  0  0  0  0  0  0  0  0
    8.3553   -0.2518    1.5146 H   0  0  0  0  0  0  0  0  0  0  0  0
  1  2  1  0
  2  3  1  0
  2  4  1  0
  2  5  1  0
  5  6  2  0
  6  7  1  0
  7  8  2  0
  8  9  1  0
  9 10  1  0
 10 11  2  0
 10 12  1  0
 12 13  1  0
 13 14  1  0
 14 15  2  0
 15 16  1  0
 16 17  2  0
 17 18  1  0
 18 19  2  0
 18 20  1  0
 20 21  1  0
 21 22  1  0
  8 23  1  0
 23  5  1  0
 19 14  1  0
 22 17  1  0
  1 24  1  0
  1 25  1  0
  1 26  1  0
  3 27  1  0
  3 28  1  0
  3 29  1  0
  4 30  1  0
  4 31  1  0
  4 32  1  0
  9 33  1  0
 12 34  1  0
 12 35  1  0
 15 36  1  0
 16 37  1  0
 19 38  1  0
 21 39  1  0
 21 40  1  0
M  END
$$$$
