
     RDKit          3D

 27 27  0  0  0  0  0  0  0  0999 V2000
    3.4740   -0.4502    1.3707 C   0  0  0  0  0  0  0  0  0  0  0  0
    2.2650   -0.0941    0.5924 C   0  0  0  0  0  0  0  0  0  0  0  0
    2.1861    0.5476   -0.6513 C   0  0  0  0  0  0  0  0  0  0  0  0
    0.8351    0.6950   -0.9257 C   0  0  0  0  0  0  0  0  0  0  0  0
    0.3099    1.3799   -2.0677 C   0  0  0  0  0  0  0  0  0  0  0  0
    0.8366    1.5034   -3.1628 O   0  0  0  0  0  0  0  0  0  0  0  0
   -0.8468    2.0131   -1.8067 O   0  0  0  0  0  0  0  0  0  0  0  0
    0.1861    0.0314    0.1001 N   0  0  0  0  0  0  0  0  0  0  0  0
   -1.2364   -0.3499    0.2607 C   0  0  0  0  0  0  0  0  0  0  0  0
   -2.0350    0.8185    0.8640 C   0  0  0  0  0  0  0  0  0  0  0  0
   -1.8682   -0.8319   -1.0625 C   0  0  0  0  0  0  0  0  0  0  0  0
   -1.3790   -1.5490    1.2441 C   0  0  0  0  0  0  0  0  0  0  0  0
    1.0521   -0.3714    1.0675 N   0  0  0  0  0  0  0  0  0  0  0  0
    3.4826    0.0780    2.3296 H   0  0  0  0  0  0  0  0  0  0  0  0
    4.3861   -0.1820    0.8280 H   0  0  0  0  0  0  0  0  0  0  0  0
    3.5019   -1.5268    1.5673 H   0  0  0  0  0  0  0  0  0  0  0  0
    3.0019    0.9089   -1.2635 H   0  0  0  0  0  0  0  0  0  0  0  0
   -1.0298    2.4868   -2.6445 H   0  0  0  0  0  0  0  0  0  0  0  0
   -3.0791    0.5335    1.0378 H   0  0  0  0  0  0  0  0  0  0  0  0
   -2.0456    1.7002    0.2205 H   0  0  0  0  0  0  0  0  0  0  0  0
   -1.6106    1.1298    1.8260 H   0  0  0  0  0  0  0  0  0  0  0  0
   -2.0257   -0.0284   -1.7831 H   0  0  0  0  0  0  0  0  0  0  0  0
   -1.2432   -1.5935   -1.5434 H   0  0  0  0  0  0  0  0  0  0  0  0
   -2.8560   -1.2756   -0.8883 H   0  0  0  0  0  0  0  0  0  0  0  0
   -2.4258   -1.8616    1.3395 H   0  0  0  0  0  0  0  0  0  0  0  0
   -0.8045   -2.4169    0.8988 H   0  0  0  0  0  0  0  0  0  0  0  0
   -1.0317   -1.2947    2.2526 H   0  0  0  0  0  0  0  0  0  0  0  0
  1  2  1  0
  2  3  1  0
  3  4  2  0
  4  5  1  0
  5  6  2  0
  5  7  1  0
  4  8  1  0
  8  9  1  0
  9 10  1  0
  9 11  1  0
  9 12  1  0
  8 13  1  0
 13  2  2  0
  1 14  1  0
  1 15  1  0
  1 16  1  0
  3 17  1  0
  7 18  1  0
 10 19  1  0
 10 20  1  0
 10 21  1  0
 11 22  1  0
 11 23  1  0
 11 24  1  0
 12 25  1  0
 12 26  1  0
 12 27  1  0
M  END
$$$$
