
     RDKit          3D

 38 40  0  0  0  0  0  0  0  0999 V2000
   -7.9855   -0.3295   -1.7382 C   0  0  0  0  0  0  0  0  0  0  0  0
   -7.2113    0.7375   -0.9852 C   0  0  0  0  0  0  0  0  0  0  0  0
   -5.8143    0.4575   -0.9675 O   0  0  0  0  0  0  0  0  0  0  0  0
   -5.4469   -0.5193    0.0086 C   0  0  0  0  0  0  0  0  0  0  0  0
   -3.9627   -0.6701   -0.0317 C   0  0  0  0  0  0  0  0  0  0  0  0
   -3.3226   -1.7448   -0.4495 N   0  0  0  0  0  0  0  0  0  0  0  0
   -1.9530   -1.5981   -0.3558 N   0  0  0  0  0  0  0  0  0  0  0  0
   -1.6112   -0.4281    0.1370 C   0  0  0  0  0  0  0  0  0  0  0  0
   -0.3022   -0.0666    0.3128 N   0  0  0  0  0  0  0  0  0  0  0  0
    0.1830    1.1064    0.8412 C   0  0  0  0  0  0  0  0  0  0  0  0
   -0.4722    2.0516    1.2705 O   0  0  0  0  0  0  0  0  0  0  0  0
    1.7143    1.1584    0.8612 C   0  0  0  0  0  0  0  0  0  0  0  0
    2.2783   -0.0521    0.3605 O   0  0  0  0  0  0  0  0  0  0  0  0
    3.6448   -0.1290    0.3249 C   0  0  0  0  0  0  0  0  0  0  0  0
    4.1449   -1.3459   -0.1825 C   0  0  0  0  0  0  0  0  0  0  0  0
    5.5205   -1.5771   -0.2823 C   0  0  0  0  0  0  0  0  0  0  0  0
    6.3653   -0.5735    0.1329 C   0  0  0  0  0  0  0  0  0  0  0  0
    5.8829    0.6145    0.6284 C   0  0  0  0  0  0  0  0  0  0  0  0
    4.5301    0.8703    0.7383 C   0  0  0  0  0  0  0  0  0  0  0  0
    6.8801    1.4705    0.9819 O   0  0  0  0  0  0  0  0  0  0  0  0
    8.0441    0.6839    0.6507 C   0  0  0  0  0  0  0  0  0  0  0  0
    7.7234   -0.6154    0.1120 O   0  0  0  0  0  0  0  0  0  0  0  0
   -2.9247    0.5799    0.5315 S   0  0  0  0  0  0  0  0  0  0  0  0
   -7.5556   -0.4889   -2.7324 H   0  0  0  0  0  0  0  0  0  0  0  0
   -9.0343   -0.0385   -1.8484 H   0  0  0  0  0  0  0  0  0  0  0  0
   -7.9519   -1.2898   -1.2153 H   0  0  0  0  0  0  0  0  0  0  0  0
   -7.5945    0.8648    0.0335 H   0  0  0  0  0  0  0  0  0  0  0  0
   -7.3363    1.6946   -1.5022 H   0  0  0  0  0  0  0  0  0  0  0  0
   -5.9174   -1.4797   -0.2250 H   0  0  0  0  0  0  0  0  0  0  0  0
   -5.7711   -0.1987    1.0054 H   0  0  0  0  0  0  0  0  0  0  0  0
    0.3721   -0.7647    0.0190 H   0  0  0  0  0  0  0  0  0  0  0  0
    2.0161    1.3117    1.9038 H   0  0  0  0  0  0  0  0  0  0  0  0
    2.0143    2.0044    0.2321 H   0  0  0  0  0  0  0  0  0  0  0  0
    3.4517   -2.1207   -0.5032 H   0  0  0  0  0  0  0  0  0  0  0  0
    5.9080   -2.5114   -0.6721 H   0  0  0  0  0  0  0  0  0  0  0  0
    4.2089    1.8243    1.1360 H   0  0  0  0  0  0  0  0  0  0  0  0
    8.6453    0.5491    1.5573 H   0  0  0  0  0  0  0  0  0  0  0  0
    8.6395    1.2328   -0.0879 H   0  0  0  0  0  0  0  0  0  0  0  0
  1  2  1  0
  2  3  1  0
  3  4  1  0
  4  5  1  0
  5  6  2  0
  6  7  1  0
  7  8  2  0
  8  9  1  0
  9 10  1  0
 10 11  2  0
 10 12  1  0
 12 13  1  0
 13 14  1  0
 14 15  2  0
 15 16  1  0
 16 17  2  0
 17 18  1  0
 18 19  2  0
 18 20  1  0
 20 21  1  0
 21 22  1  0
  8 23  1  0
 23  5  1  0
 19 14  1  0
 22 17  1  0
  1 24  1  0
  1 25  1  0
  1 26  1  0
  2 27  1  0
  2 28  1  0
  4 29  1  0
  4 30  1  0
  9 31  1  0
 12 32  1  0
 12 33  1  0
 15 34  1  0
 16 35  1  0
 19 36  1  0
 21 37  1  0
 21 38  1  0
M  END
$$$$
