
     RDKit          3D

 45 47  0  0  0  0  0  0  0  0999 V2000
    7.1794   -1.5075   -0.8133 C   0  0  0  0  0  0  0  0  0  0  0  0
    6.7636   -0.0693   -0.5404 C   0  0  0  0  0  0  0  0  0  0  0  0
    6.3197    0.1791    0.9069 C   0  0  0  0  0  0  0  0  0  0  0  0
    5.0806   -0.6052    1.3517 C   0  0  0  0  0  0  0  0  0  0  0  0
    3.8348   -0.1483    0.6652 C   0  0  0  0  0  0  0  0  0  0  0  0
    3.4202   -0.5756   -0.5110 N   0  0  0  0  0  0  0  0  0  0  0  0
    2.2471    0.0404   -0.8984 N   0  0  0  0  0  0  0  0  0  0  0  0
    1.8018    0.8792    0.0093 C   0  0  0  0  0  0  0  0  0  0  0  0
    0.6488    1.5998   -0.1651 N   0  0  0  0  0  0  0  0  0  0  0  0
    0.0616    2.4625    0.7325 C   0  0  0  0  0  0  0  0  0  0  0  0
    0.4592    2.7486    1.8581 O   0  0  0  0  0  0  0  0  0  0  0  0
   -1.2037    3.1167    0.1691 C   0  0  0  0  0  0  0  0  0  0  0  0
   -1.8193    2.3905   -0.8879 O   0  0  0  0  0  0  0  0  0  0  0  0
   -2.7328    1.4326   -0.5471 C   0  0  0  0  0  0  0  0  0  0  0  0
   -2.8663    0.8371    0.7066 C   0  0  0  0  0  0  0  0  0  0  0  0
   -3.8401   -0.1525    0.9239 C   0  0  0  0  0  0  0  0  0  0  0  0
   -4.6896   -0.5652   -0.1083 C   0  0  0  0  0  0  0  0  0  0  0  0
   -5.7260   -1.5939    0.0508 C   0  0  0  0  0  0  0  0  0  0  0  0
   -5.9186   -2.2754    1.3729 C   0  0  0  0  0  0  0  0  0  0  0  0
   -6.4860   -1.8987   -1.0113 C   0  0  0  0  0  0  0  0  0  0  0  0
   -6.3371   -1.2585   -2.3274 C   0  0  0  0  0  0  0  0  0  0  0  0
   -7.0703   -1.5689   -3.2595 O   0  0  0  0  0  0  0  0  0  0  0  0
   -5.3390   -0.3092   -2.4525 O   0  0  0  0  0  0  0  0  0  0  0  0
   -4.5289    0.0393   -1.3553 C   0  0  0  0  0  0  0  0  0  0  0  0
   -3.5638    1.0205   -1.5863 C   0  0  0  0  0  0  0  0  0  0  0  0
    2.7910    1.0073    1.3903 S   0  0  0  0  0  0  0  0  0  0  0  0
    7.9490   -1.8337   -0.1067 H   0  0  0  0  0  0  0  0  0  0  0  0
    6.3300   -2.1932   -0.7478 H   0  0  0  0  0  0  0  0  0  0  0  0
    7.5933   -1.5915   -1.8233 H   0  0  0  0  0  0  0  0  0  0  0  0
    7.6200    0.5828   -0.7536 H   0  0  0  0  0  0  0  0  0  0  0  0
    5.9742    0.2235   -1.2412 H   0  0  0  0  0  0  0  0  0  0  0  0
    6.1390    1.2559    1.0296 H   0  0  0  0  0  0  0  0  0  0  0  0
    7.1509   -0.0769    1.5766 H   0  0  0  0  0  0  0  0  0  0  0  0
    5.2166   -1.6782    1.1761 H   0  0  0  0  0  0  0  0  0  0  0  0
    4.9659   -0.4952    2.4387 H   0  0  0  0  0  0  0  0  0  0  0  0
    0.1701    1.4182   -1.0416 H   0  0  0  0  0  0  0  0  0  0  0  0
   -1.9102    3.3326    0.9795 H   0  0  0  0  0  0  0  0  0  0  0  0
   -0.8947    4.0834   -0.2468 H   0  0  0  0  0  0  0  0  0  0  0  0
   -2.2276    1.1018    1.5448 H   0  0  0  0  0  0  0  0  0  0  0  0
   -3.9091   -0.5903    1.9166 H   0  0  0  0  0  0  0  0  0  0  0  0
   -6.7197   -3.0220    1.3341 H   0  0  0  0  0  0  0  0  0  0  0  0
   -6.1894   -1.5512    2.1486 H   0  0  0  0  0  0  0  0  0  0  0  0
   -5.0050   -2.7974    1.6765 H   0  0  0  0  0  0  0  0  0  0  0  0
   -7.2694   -2.6470   -0.9626 H   0  0  0  0  0  0  0  0  0  0  0  0
   -3.4700    1.4669   -2.5713 H   0  0  0  0  0  0  0  0  0  0  0  0
  1  2  1  0
  2  3  1  0
  3  4  1  0
  4  5  1  0
  5  6  2  0
  6  7  1  0
  7  8  2  0
  8  9  1  0
  9 10  1  0
 10 11  2  0
 10 12  1  0
 12 13  1  0
 13 14  1  0
 14 15  2  0
 15 16  1  0
 16 17  2  0
 17 18  1  0
 18 19  1  0
 18 20  2  0
 20 21  1  0
 21 22  2  0
 21 23  1  0
 23 24  1  0
 24 25  2  0
  8 26  1  0
 26  5  1  0
 25 14  1  0
 24 17  1  0
  1 27  1  0
  1 28  1  0
  1 29  1  0
  2 30  1  0
  2 31  1  0
  3 32  1  0
  3 33  1  0
  4 34  1  0
  4 35  1  0
  9 36  1  0
 12 37  1  0
 12 38  1  0
 15 39  1  0
 16 40  1  0
 19 41  1  0
 19 42  1  0
 19 43  1  0
 20 44  1  0
 25 45  1  0
M  END
$$$$
