
     RDKit          3D

 36 38  0  0  0  0  0  0  0  0999 V2000
   -2.1369    3.4573    0.8565 C   0  0  0  0  0  0  0  0  0  0  0  0
   -2.2822    2.2620    0.0867 O   0  0  0  0  0  0  0  0  0  0  0  0
   -1.1377    1.5285   -0.0350 C   0  0  0  0  0  0  0  0  0  0  0  0
   -0.0188    1.9554    0.2309 O   0  0  0  0  0  0  0  0  0  0  0  0
   -1.3778    0.1600   -0.4958 C   0  0  0  0  0  0  0  0  0  0  0  0
   -0.3813   -0.8085   -0.6245 C   0  0  0  0  0  0  0  0  0  0  0  0
    0.9462   -0.6927   -0.2063 N   0  0  0  0  0  0  0  0  0  0  0  0
    2.0009   -1.5386   -0.4954 C   0  0  0  0  0  0  0  0  0  0  0  0
    1.9784   -2.5585   -1.1896 O   0  0  0  0  0  0  0  0  0  0  0  0
    3.2843   -1.0489    0.0684 C   0  0  0  0  0  0  0  0  0  0  0  0
    4.5763   -1.6166   -0.1369 C   0  0  0  0  0  0  0  0  0  0  0  0
    5.4453   -0.8137    0.5542 C   0  0  0  0  0  0  0  0  0  0  0  0
    4.6803    0.1577    1.1284 N   0  0  0  0  0  0  0  0  0  0  0  0
    5.1425    1.2382    1.9726 C   0  0  0  0  0  0  0  0  0  0  0  0
    3.3545    0.0460    0.8625 N   0  0  0  0  0  0  0  0  0  0  0  0
   -0.9806   -2.2855   -1.2791 S   0  0  0  0  0  0  0  0  0  0  0  0
   -2.5209   -1.6599   -1.3934 C   0  0  0  0  0  0  0  0  0  0  0  0
   -2.6293   -0.3651   -0.9855 C   0  0  0  0  0  0  0  0  0  0  0  0
   -4.0076    0.1447   -1.1658 C   0  0  0  0  0  0  0  0  0  0  0  0
   -4.8239   -1.1853   -1.2855 C   0  0  0  0  0  0  0  0  0  0  0  0
   -3.8174   -2.2884   -1.7642 C   0  0  0  0  0  0  0  0  0  0  0  0
   -1.3628    3.3853    1.6293 H   0  0  0  0  0  0  0  0  0  0  0  0
   -1.9352    4.2907    0.1806 H   0  0  0  0  0  0  0  0  0  0  0  0
   -3.0900    3.6492    1.3602 H   0  0  0  0  0  0  0  0  0  0  0  0
    1.2223    0.1805    0.2434 H   0  0  0  0  0  0  0  0  0  0  0  0
    4.8137   -2.4950   -0.7192 H   0  0  0  0  0  0  0  0  0  0  0  0
    6.5121   -0.8529    0.6887 H   0  0  0  0  0  0  0  0  0  0  0  0
    4.6348    2.1578    1.6831 H   0  0  0  0  0  0  0  0  0  0  0  0
    6.2220    1.3680    1.8316 H   0  0  0  0  0  0  0  0  0  0  0  0
    4.9347    0.9777    3.0160 H   0  0  0  0  0  0  0  0  0  0  0  0
   -4.0688    0.7142   -2.1055 H   0  0  0  0  0  0  0  0  0  0  0  0
   -4.3733    0.7730   -0.3491 H   0  0  0  0  0  0  0  0  0  0  0  0
   -5.1835   -1.4630   -0.2862 H   0  0  0  0  0  0  0  0  0  0  0  0
   -5.6888   -1.0934   -1.9468 H   0  0  0  0  0  0  0  0  0  0  0  0
   -4.0032   -3.2257   -1.2231 H   0  0  0  0  0  0  0  0  0  0  0  0
   -3.9283   -2.4541   -2.8371 H   0  0  0  0  0  0  0  0  0  0  0  0
  1  2  1  0
  2  3  1  0
  3  4  2  0
  3  5  1  0
  5  6  2  0
  6  7  1  0
  7  8  1  0
  8  9  2  0
  8 10  1  0
 10 11  1  0
 11 12  2  0
 12 13  1  0
 13 14  1  0
 13 15  1  0
  6 16  1  0
 16 17  1  0
 17 18  2  0
 18 19  1  0
 19 20  1  0
 20 21  1  0
 18  5  1  0
 15 10  2  0
 21 17  1  0
  1 22  1  0
  1 23  1  0
  1 24  1  0
  7 25  1  0
 11 26  1  0
 12 27  1  0
 14 28  1  0
 14 29  1  0
 14 30  1  0
 19 31  1  0
 19 32  1  0
 20 33  1  0
 20 34  1  0
 21 35  1  0
 21 36  1  0
M  END
$$$$
