
     RDKit          3D

 60 62  0  0  0  0  0  0  0  0999 V2000
   -5.8075   -1.5580    0.2897 C   0  0  0  0  0  0  0  0  0  0  0  0
   -4.7746   -0.5682    0.7441 C   0  0  0  0  0  0  0  0  0  0  0  0
   -3.6003   -1.0148    1.3506 C   0  0  0  0  0  0  0  0  0  0  0  0
   -2.6346   -0.0989    1.7634 C   0  0  0  0  0  0  0  0  0  0  0  0
   -2.8187    1.2786    1.5538 C   0  0  0  0  0  0  0  0  0  0  0  0
   -1.5216    2.3618    2.1438 S   0  0  0  0  0  6  0  0  0  0  0  0
   -0.7330    1.6320    3.1138 O   0  0  0  0  0  0  0  0  0  0  0  0
   -2.1026    3.6411    2.4977 O   0  0  0  0  0  0  0  0  0  0  0  0
   -0.5734    2.6389    0.7693 N   0  0  0  0  0  0  0  0  0  0  0  0
   -0.1203    1.5223   -0.0025 C   0  0  0  0  0  0  0  0  0  0  0  0
    0.7918    0.6481    0.5966 C   0  0  0  0  0  0  0  0  0  0  0  0
    1.2199   -0.5030   -0.0652 C   0  0  0  0  0  0  0  0  0  0  0  0
    2.1772   -1.4674    0.6276 C   0  0  0  0  0  0  0  0  0  0  0  0
    3.4685   -1.6293   -0.1476 C   0  0  0  0  0  0  0  0  0  0  0  0
    3.8669   -2.6765   -0.6363 O   0  0  0  0  0  0  0  0  0  0  0  0
    4.1515   -0.4484   -0.1935 O   0  0  0  0  0  0  0  0  0  0  0  0
    5.3878   -0.4534   -0.9303 C   0  0  0  0  0  0  0  0  0  0  0  0
    5.6807    0.9887   -1.3233 C   0  0  0  0  0  0  0  0  0  0  0  0
    6.5083   -1.0144   -0.0641 C   0  0  0  0  0  0  0  0  0  0  0  0
    1.5203   -2.7949    0.9915 C   0  0  0  0  0  0  0  0  0  0  0  0
    0.2981   -2.9747    0.9038 O   0  0  0  0  0  0  0  0  0  0  0  0
    2.4433   -3.8511    1.5766 C   0  0  0  0  0  0  0  0  0  0  0  0
    3.5498   -3.3037    2.1566 F   0  0  0  0  0  0  0  0  0  0  0  0
    2.8778   -4.7632    0.6688 F   0  0  0  0  0  0  0  0  0  0  0  0
    1.8355   -4.5690    2.5648 F   0  0  0  0  0  0  0  0  0  0  0  0
    0.7312   -0.7483   -1.3559 C   0  0  0  0  0  0  0  0  0  0  0  0
    1.2292   -1.8732   -1.9626 O   0  0  0  0  0  0  0  0  0  0  0  0
   -0.2035    0.1074   -1.9939 C   0  0  0  0  0  0  0  0  0  0  0  0
   -0.7528   -0.1543   -3.2745 C   0  0  0  0  0  0  0  0  0  0  0  0
   -1.6714    0.7068   -3.8750 C   0  0  0  0  0  0  0  0  0  0  0  0
   -2.0694    1.8538   -3.2139 C   0  0  0  0  0  0  0  0  0  0  0  0
   -1.5577    2.1301   -1.9467 C   0  0  0  0  0  0  0  0  0  0  0  0
   -0.6300    1.2731   -1.3045 C   0  0  0  0  0  0  0  0  0  0  0  0
   -3.9893    1.7509    0.9311 C   0  0  0  0  0  0  0  0  0  0  0  0
   -4.2914    3.2040    0.7007 C   0  0  0  0  0  0  0  0  0  0  0  0
   -4.9560    0.8069    0.5329 C   0  0  0  0  0  0  0  0  0  0  0  0
   -5.9075   -2.3721    1.0150 H   0  0  0  0  0  0  0  0  0  0  0  0
   -5.5245   -1.9790   -0.6811 H   0  0  0  0  0  0  0  0  0  0  0  0
   -6.7917   -1.0866    0.1947 H   0  0  0  0  0  0  0  0  0  0  0  0
   -3.4281   -2.0783    1.5147 H   0  0  0  0  0  0  0  0  0  0  0  0
   -1.7342   -0.4779    2.2450 H   0  0  0  0  0  0  0  0  0  0  0  0
   -0.8324    3.4964    0.2888 H   0  0  0  0  0  0  0  0  0  0  0  0
    1.1684    0.8703    1.5929 H   0  0  0  0  0  0  0  0  0  0  0  0
    2.4672   -1.0372    1.5979 H   0  0  0  0  0  0  0  0  0  0  0  0
    5.2772   -1.0473   -1.8457 H   0  0  0  0  0  0  0  0  0  0  0  0
    5.7789    1.6235   -0.4356 H   0  0  0  0  0  0  0  0  0  0  0  0
    6.6005    1.0622   -1.9119 H   0  0  0  0  0  0  0  0  0  0  0  0
    4.8551    1.4010   -1.9121 H   0  0  0  0  0  0  0  0  0  0  0  0
    7.4604   -1.0155   -0.6029 H   0  0  0  0  0  0  0  0  0  0  0  0
    6.6242   -0.4306    0.8543 H   0  0  0  0  0  0  0  0  0  0  0  0
    6.2900   -2.0406    0.2489 H   0  0  0  0  0  0  0  0  0  0  0  0
    1.0617   -1.8431   -2.9167 H   0  0  0  0  0  0  0  0  0  0  0  0
   -0.4973   -1.0539   -3.8273 H   0  0  0  0  0  0  0  0  0  0  0  0
   -2.0779    0.4722   -4.8553 H   0  0  0  0  0  0  0  0  0  0  0  0
   -2.7861    2.5302   -3.6742 H   0  0  0  0  0  0  0  0  0  0  0  0
   -1.9101    3.0370   -1.4652 H   0  0  0  0  0  0  0  0  0  0  0  0
   -5.0992    3.3300   -0.0291 H   0  0  0  0  0  0  0  0  0  0  0  0
   -4.6216    3.6758    1.6332 H   0  0  0  0  0  0  0  0  0  0  0  0
   -3.4284    3.7375    0.2931 H   0  0  0  0  0  0  0  0  0  0  0  0
   -5.8746    1.1464    0.0546 H   0  0  0  0  0  0  0  0  0  0  0  0
  1  2  1  0
  2  3  2  0
  3  4  1  0
  4  5  2  0
  5  6  1  0
  6  7  2  0
  6  8  2  0
  6  9  1  0
  9 10  1  0
 10 11  2  0
 11 12  1  0
 12 13  1  0
 13 14  1  0
 14 15  2  0
 14 16  1  0
 16 17  1  0
 17 18  1  0
 17 19  1  0
 13 20  1  0
 20 21  2  0
 20 22  1  0
 22 23  1  0
 22 24  1  0
 22 25  1  0
 12 26  2  0
 26 27  1  0
 26 28  1  0
 28 29  2  0
 29 30  1  0
 30 31  2  0
 31 32  1  0
 32 33  2  0
  5 34  1  0
 34 35  1  0
 34 36  2  0
 36  2  1  0
 33 10  1  0
 33 28  1  0
  1 37  1  0
  1 38  1  0
  1 39  1  0
  3 40  1  0
  4 41  1  0
  9 42  1  0
 11 43  1  0
 13 44  1  0
 17 45  1  0
 18 46  1  0
 18 47  1  0
 18 48  1  0
 19 49  1  0
 19 50  1  0
 19 51  1  0
 27 52  1  0
 29 53  1  0
 30 54  1  0
 31 55  1  0
 32 56  1  0
 35 57  1  0
 35 58  1  0
 35 59  1  0
 36 60  1  0
M  END
$$$$
