
     RDKit          3D

 57 59  0  0  0  0  0  0  0  0999 V2000
   -3.3336   -2.8404   -2.4044 C   0  0  0  0  0  0  0  0  0  0  0  0
   -2.0550   -2.2384   -1.8248 C   0  0  0  0  0  0  0  0  0  0  0  0
   -2.2333   -1.1042   -0.8995 N   0  0  0  0  0  0  0  0  0  0  0  0
   -3.0245   -1.4268    0.3047 C   0  0  0  0  0  0  0  0  0  0  0  0
   -2.4603   -2.5791    1.1378 C   0  0  0  0  0  0  0  0  0  0  0  0
   -2.7766    0.0807   -1.6086 C   0  0  0  0  0  0  0  0  0  0  0  0
   -2.5397    1.4255   -0.8928 C   0  0  0  0  0  0  0  0  0  0  0  0
   -1.1311    1.7133   -0.8656 O   0  0  0  0  0  0  0  0  0  0  0  0
   -0.8555    2.8093   -0.0838 C   0  0  0  0  0  0  0  0  0  0  0  0
   -1.0228    4.0737   -0.5242 C   0  0  0  0  0  0  0  0  0  0  0  0
   -0.7376    5.1904    0.4375 C   0  0  2  0  0  0  0  0  0  0  0  0
   -0.4653    6.4484   -0.1645 O   0  0  0  0  0  0  0  0  0  0  0  0
    0.0935    7.2227    0.8295 C   0  0  0  0  0  0  0  0  0  0  0  0
    0.2709    8.4255    0.7240 O   0  0  0  0  0  0  0  0  0  0  0  0
    0.6156    6.3070    2.2641 S   0  0  0  0  0  0  0  0  0  0  0  0
    0.4907    4.8286    1.2803 C   0  0  1  0  0  0  0  0  0  0  0  0
    0.3118    3.5137    1.9566 C   0  0  0  0  0  0  0  0  0  0  0  0
   -0.3144    2.5414    1.2527 C   0  0  0  0  0  0  0  0  0  0  0  0
   -0.4644    1.2156    1.9078 C   0  0  0  0  0  0  0  0  0  0  0  0
   -1.3502    1.0268    2.7379 O   0  0  0  0  0  0  0  0  0  0  0  0
    0.5105    0.1380    1.5942 C   0  0  0  0  0  0  0  0  0  0  0  0
    1.4906    0.2143    0.6794 C   0  0  0  0  0  0  0  0  0  0  0  0
    2.4559   -0.8669    0.4079 C   0  0  0  0  0  0  0  0  0  0  0  0
    2.1311   -2.2258    0.5333 C   0  0  0  0  0  0  0  0  0  0  0  0
    3.0792   -3.2221    0.2697 C   0  0  0  0  0  0  0  0  0  0  0  0
    4.3663   -2.8726   -0.1436 C   0  0  0  0  0  0  0  0  0  0  0  0
    5.3822   -3.7420   -0.4268 O   0  0  0  0  0  0  0  0  0  0  0  0
    5.1682   -5.1088   -0.0977 C   0  0  0  0  0  0  0  0  0  0  0  0
    4.6849   -1.5231   -0.3042 C   0  0  0  0  0  0  0  0  0  0  0  0
    3.7383   -0.5282   -0.0336 C   0  0  0  0  0  0  0  0  0  0  0  0
   -3.9210   -2.0998   -2.9618 H   0  0  0  0  0  0  0  0  0  0  0  0
   -3.9678   -3.2747   -1.6180 H   0  0  0  0  0  0  0  0  0  0  0  0
   -3.0740   -3.6438   -3.1038 H   0  0  0  0  0  0  0  0  0  0  0  0
   -1.4789   -3.0298   -1.3223 H   0  0  0  0  0  0  0  0  0  0  0  0
   -1.4051   -1.9241   -2.6595 H   0  0  0  0  0  0  0  0  0  0  0  0
   -3.0474   -0.5564    0.9711 H   0  0  0  0  0  0  0  0  0  0  0  0
   -4.0709   -1.6431    0.0459 H   0  0  0  0  0  0  0  0  0  0  0  0
   -2.5264   -3.5396    0.6146 H   0  0  0  0  0  0  0  0  0  0  0  0
   -3.0345   -2.6725    2.0681 H   0  0  0  0  0  0  0  0  0  0  0  0
   -1.4155   -2.4002    1.4109 H   0  0  0  0  0  0  0  0  0  0  0  0
   -2.2919    0.1609   -2.5940 H   0  0  0  0  0  0  0  0  0  0  0  0
   -3.8551   -0.0392   -1.7826 H   0  0  0  0  0  0  0  0  0  0  0  0
   -3.0523    2.2148   -1.4571 H   0  0  0  0  0  0  0  0  0  0  0  0
   -2.9590    1.4126    0.1207 H   0  0  0  0  0  0  0  0  0  0  0  0
   -1.4202    4.2910   -1.5097 H   0  0  0  0  0  0  0  0  0  0  0  0
   -1.6531    5.3095    1.0419 H   0  0  0  0  0  0  0  0  0  0  0  0
    1.3994    4.7874    0.6683 H   0  0  0  0  0  0  0  0  0  0  0  0
    0.7127    3.3373    2.9475 H   0  0  0  0  0  0  0  0  0  0  0  0
    0.3607   -0.7545    2.1950 H   0  0  0  0  0  0  0  0  0  0  0  0
    1.6395    1.1166    0.0882 H   0  0  0  0  0  0  0  0  0  0  0  0
    1.1322   -2.5313    0.8366 H   0  0  0  0  0  0  0  0  0  0  0  0
    2.7782   -4.2598    0.3814 H   0  0  0  0  0  0  0  0  0  0  0  0
    4.4337   -5.5623   -0.7726 H   0  0  0  0  0  0  0  0  0  0  0  0
    4.8725   -5.2260    0.9492 H   0  0  0  0  0  0  0  0  0  0  0  0
    6.1193   -5.6366   -0.2290 H   0  0  0  0  0  0  0  0  0  0  0  0
    5.6759   -1.2446   -0.6447 H   0  0  0  0  0  0  0  0  0  0  0  0
    4.0238    0.5115   -0.1727 H   0  0  0  0  0  0  0  0  0  0  0  0
  1  2  1  0
  2  3  1  0
  3  4  1  0
  4  5  1  0
  3  6  1  0
  6  7  1  0
  7  8  1  0
  8  9  1  0
  9 10  2  0
 10 11  1  0
 11 12  1  0
 12 13  1  0
 13 14  2  0
 13 15  1  0
 15 16  1  0
 16 17  1  0
 17 18  2  0
 18 19  1  0
 19 20  2  0
 19 21  1  0
 21 22  2  0
 22 23  1  0
 23 24  2  0
 24 25  1  0
 25 26  2  0
 26 27  1  0
 27 28  1  0
 26 29  1  0
 29 30  2  0
 18  9  1  0
 30 23  1  0
 16 11  1  0
  1 31  1  0
  1 32  1  0
  1 33  1  0
  2 34  1  0
  2 35  1  0
  4 36  1  0
  4 37  1  0
  5 38  1  0
  5 39  1  0
  5 40  1  0
  6 41  1  0
  6 42  1  0
  7 43  1  0
  7 44  1  0
 10 45  1  0
 11 46  1  1
 16 47  1  6
 17 48  1  0
 21 49  1  0
 22 50  1  0
 24 51  1  0
 25 52  1  0
 28 53  1  0
 28 54  1  0
 28 55  1  0
 29 56  1  0
 30 57  1  0
M  END
$$$$
