
     RDKit          3D

 33 35  0  0  0  0  0  0  0  0999 V2000
    6.0126   -0.4918    0.4086 C   0  0  0  0  0  0  0  0  0  0  0  0
    4.9350    0.2622   -0.1332 O   0  0  0  0  0  0  0  0  0  0  0  0
    3.6708   -0.1371    0.2018 C   0  0  0  0  0  0  0  0  0  0  0  0
    3.3412   -1.2188    1.0175 C   0  0  0  0  0  0  0  0  0  0  0  0
    1.9999   -1.5117    1.2847 C   0  0  0  0  0  0  0  0  0  0  0  0
    0.9789   -0.7302    0.7307 C   0  0  0  0  0  0  0  0  0  0  0  0
    1.2994    0.3527   -0.0980 C   0  0  0  0  0  0  0  0  0  0  0  0
    2.6488    0.6456   -0.3462 C   0  0  0  0  0  0  0  0  0  0  0  0
    0.2172    1.2289   -0.6624 C   0  0  0  0  0  0  0  0  0  0  0  0
   -1.0573    0.4311   -0.9273 C   0  0  0  0  0  0  0  0  0  0  0  0
   -1.5052   -0.3189    0.2958 C   0  0  0  0  0  0  0  0  0  0  0  0
   -2.7472   -0.4045    0.8078 C   0  0  0  0  0  0  0  0  0  0  0  0
   -3.9084    0.1769    0.2307 C   0  0  0  0  0  0  0  0  0  0  0  0
   -4.3466    0.2320   -1.0891 C   0  0  0  0  0  0  0  0  0  0  0  0
   -5.5920    0.9036   -1.1115 C   0  0  0  0  0  0  0  0  0  0  0  0
   -5.8713    1.2123    0.1940 C   0  0  0  0  0  0  0  0  0  0  0  0
   -4.8802    0.7728    1.0052 O   0  0  0  0  0  0  0  0  0  0  0  0
   -0.4366   -1.0552    1.0517 C   0  0  0  0  0  0  0  0  0  0  0  0
   -0.6989   -1.9077    1.8937 O   0  0  0  0  0  0  0  0  0  0  0  0
    5.9842   -1.5287    0.0578 H   0  0  0  0  0  0  0  0  0  0  0  0
    6.0174   -0.4435    1.5026 H   0  0  0  0  0  0  0  0  0  0  0  0
    6.9456   -0.0451    0.0516 H   0  0  0  0  0  0  0  0  0  0  0  0
    4.0993   -1.8515    1.4672 H   0  0  0  0  0  0  0  0  0  0  0  0
    1.7547   -2.3523    1.9317 H   0  0  0  0  0  0  0  0  0  0  0  0
    2.9172    1.4945   -0.9726 H   0  0  0  0  0  0  0  0  0  0  0  0
    0.5496    1.6819   -1.6041 H   0  0  0  0  0  0  0  0  0  0  0  0
    0.0187    2.0435    0.0453 H   0  0  0  0  0  0  0  0  0  0  0  0
   -1.8158    1.1345   -1.2826 H   0  0  0  0  0  0  0  0  0  0  0  0
   -0.8841   -0.2911   -1.7358 H   0  0  0  0  0  0  0  0  0  0  0  0
   -2.9145   -0.9311    1.7461 H   0  0  0  0  0  0  0  0  0  0  0  0
   -3.8258   -0.1836   -1.9407 H   0  0  0  0  0  0  0  0  0  0  0  0
   -6.2125    1.1214   -1.9689 H   0  0  0  0  0  0  0  0  0  0  0  0
   -6.6941    1.7088    0.6890 H   0  0  0  0  0  0  0  0  0  0  0  0
  1  2  1  0
  2  3  1  0
  3  4  2  0
  4  5  1  0
  5  6  2  0
  6  7  1  0
  7  8  2  0
  7  9  1  0
  9 10  1  0
 10 11  1  0
 11 12  2  3
 12 13  1  0
 13 14  2  0
 14 15  1  0
 15 16  2  0
 16 17  1  0
 11 18  1  0
 18 19  2  0
  8  3  1  0
 17 13  1  0
 18  6  1  0
  1 20  1  0
  1 21  1  0
  1 22  1  0
  4 23  1  0
  5 24  1  0
  8 25  1  0
  9 26  1  0
  9 27  1  0
 10 28  1  0
 10 29  1  0
 12 30  1  0
 14 31  1  0
 15 32  1  0
 16 33  1  0
M  END
$$$$
