
     RDKit          3D

 51 55  0  0  0  0  0  0  0  0999 V2000
    8.8905    2.5032    0.6589 Cl  0  0  0  0  0  0  0  0  0  0  0  0
    7.2734    1.9064    0.5480 C   0  0  0  0  0  0  0  0  0  0  0  0
    6.5208    1.8439    1.7242 C   0  0  0  0  0  0  0  0  0  0  0  0
    5.2065    1.3713    1.6957 C   0  0  0  0  0  0  0  0  0  0  0  0
    4.6276    0.9604    0.4885 C   0  0  0  0  0  0  0  0  0  0  0  0
    3.2090    0.4390    0.4557 C   0  0  0  0  0  0  0  0  0  0  0  0
    3.1657   -1.0947    0.5932 C   0  0  0  0  0  0  0  0  0  0  0  0
    1.8387   -1.7198    0.6167 N   0  0  0  0  0  0  0  0  0  0  0  0
    1.1286   -1.6487   -0.6710 C   0  0  0  0  0  0  0  0  0  0  0  0
   -0.3614   -2.0430   -0.5620 C   0  0  0  0  0  0  0  0  0  0  0  0
   -1.0891   -1.1694    0.3726 N   0  0  0  0  0  0  0  0  0  0  0  0
   -2.3361   -0.6397    0.0525 C   0  0  0  0  0  0  0  0  0  0  0  0
   -2.5835    0.5996    0.4029 N   0  0  0  0  0  0  0  0  0  0  0  0
   -3.8054    1.2146    0.0726 C   0  0  0  0  0  0  0  0  0  0  0  0
   -4.0050    2.5416    0.4579 C   0  0  0  0  0  0  0  0  0  0  0  0
   -5.1935    3.2052    0.1435 C   0  0  0  0  0  0  0  0  0  0  0  0
   -6.1980    2.5438   -0.5633 C   0  0  0  0  0  0  0  0  0  0  0  0
   -6.0203    1.2174   -0.9577 C   0  0  0  0  0  0  0  0  0  0  0  0
   -4.8253    0.5670   -0.6360 C   0  0  0  0  0  0  0  0  0  0  0  0
   -4.5693   -0.7700   -0.9796 N   0  0  0  0  0  0  0  0  0  0  0  0
   -5.3723   -1.6681   -1.6420 C   0  0  0  0  0  0  0  0  0  0  0  0
   -4.7235   -2.8826   -1.6745 C   0  0  0  0  0  0  0  0  0  0  0  0
   -3.4795   -2.7092   -1.0250 C   0  0  0  0  0  0  0  0  0  0  0  0
   -3.3821   -1.3829   -0.6388 C   0  0  0  0  0  0  0  0  0  0  0  0
   -0.2481   -0.4694    1.3600 C   0  0  0  0  0  0  0  0  0  0  0  0
    0.9873   -1.3083    1.7481 C   0  0  0  0  0  0  0  0  0  0  0  0
    5.3899    1.0194   -0.6880 C   0  0  0  0  0  0  0  0  0  0  0  0
    6.7069    1.4921   -0.6616 C   0  0  0  0  0  0  0  0  0  0  0  0
    7.5747    1.5344   -2.1557 Cl  0  0  0  0  0  0  0  0  0  0  0  0
    6.9532    2.1632    2.6693 H   0  0  0  0  0  0  0  0  0  0  0  0
    4.6379    1.3288    2.6233 H   0  0  0  0  0  0  0  0  0  0  0  0
    2.7415    0.7632   -0.4809 H   0  0  0  0  0  0  0  0  0  0  0  0
    2.6368    0.9181    1.2591 H   0  0  0  0  0  0  0  0  0  0  0  0
    3.6933   -1.3874    1.5109 H   0  0  0  0  0  0  0  0  0  0  0  0
    3.7483   -1.5492   -0.2194 H   0  0  0  0  0  0  0  0  0  0  0  0
    1.6201   -2.3190   -1.3854 H   0  0  0  0  0  0  0  0  0  0  0  0
    1.1740   -0.6375   -1.0917 H   0  0  0  0  0  0  0  0  0  0  0  0
   -0.4448   -3.0809   -0.2200 H   0  0  0  0  0  0  0  0  0  0  0  0
   -0.7920   -1.9846   -1.5678 H   0  0  0  0  0  0  0  0  0  0  0  0
   -3.2228    3.0607    1.0056 H   0  0  0  0  0  0  0  0  0  0  0  0
   -5.3331    4.2382    0.4508 H   0  0  0  0  0  0  0  0  0  0  0  0
   -7.1218    3.0636   -0.8054 H   0  0  0  0  0  0  0  0  0  0  0  0
   -6.8170    0.7235   -1.5036 H   0  0  0  0  0  0  0  0  0  0  0  0
   -6.3441   -1.3909   -2.0226 H   0  0  0  0  0  0  0  0  0  0  0  0
   -5.1105   -3.7957   -2.1079 H   0  0  0  0  0  0  0  0  0  0  0  0
   -2.7375   -3.4775   -0.8584 H   0  0  0  0  0  0  0  0  0  0  0  0
    0.0747    0.4977    0.9546 H   0  0  0  0  0  0  0  0  0  0  0  0
   -0.8327   -0.2755    2.2675 H   0  0  0  0  0  0  0  0  0  0  0  0
    1.5629   -0.7804    2.5184 H   0  0  0  0  0  0  0  0  0  0  0  0
    0.6329   -2.2304    2.2280 H   0  0  0  0  0  0  0  0  0  0  0  0
    4.9539    0.6984   -1.6326 H   0  0  0  0  0  0  0  0  0  0  0  0
  1  2  1  0
  2  3  2  0
  3  4  1  0
  4  5  2  0
  5  6  1  0
  6  7  1  0
  7  8  1  0
  8  9  1  0
  9 10  1  0
 10 11  1  0
 11 12  1  0
 12 13  2  0
 13 14  1  0
 14 15  2  0
 15 16  1  0
 16 17  2  0
 17 18  1  0
 18 19  2  0
 19 20  1  0
 20 21  1  0
 21 22  2  0
 22 23  1  0
 23 24  2  0
 11 25  1  0
 25 26  1  0
  5 27  1  0
 27 28  2  0
 28 29  1  0
 28  2  1  0
 26  8  1  0
 24 12  1  0
 19 14  1  0
 24 20  1  0
  3 30  1  0
  4 31  1  0
  6 32  1  0
  6 33  1  0
  7 34  1  0
  7 35  1  0
  9 36  1  0
  9 37  1  0
 10 38  1  0
 10 39  1  0
 15 40  1  0
 16 41  1  0
 17 42  1  0
 18 43  1  0
 21 44  1  0
 22 45  1  0
 23 46  1  0
 25 47  1  0
 25 48  1  0
 26 49  1  0
 26 50  1  0
 27 51  1  0
M  END
$$$$
