
     RDKit          3D

 54 57  0  0  0  0  0  0  0  0999 V2000
    5.9702    0.7438    3.4908 C   0  0  0  0  0  0  0  0  0  0  0  0
    6.6047    0.3726    2.1481 C   0  0  0  0  0  0  0  0  0  0  0  0
    7.5228    1.4919    1.6507 C   0  0  0  0  0  0  0  0  0  0  0  0
    5.5520    0.0130    1.1154 C   0  0  0  0  0  0  0  0  0  0  0  0
    5.5159   -1.2797    0.5760 C   0  0  0  0  0  0  0  0  0  0  0  0
    4.5548   -1.6375   -0.3779 C   0  0  0  0  0  0  0  0  0  0  0  0
    3.6097   -0.7098   -0.8111 C   0  0  0  0  0  0  0  0  0  0  0  0
    2.6127   -0.9841   -1.7667 N   0  0  0  0  0  0  0  0  0  0  0  0
    2.3368   -2.1892   -2.3880 C   0  0  0  0  0  0  0  0  0  0  0  0
    2.9165   -3.2564   -2.2071 O   0  0  0  0  0  0  0  0  0  0  0  0
    1.1829   -2.0894   -3.3936 C   0  0  0  0  0  0  0  0  0  0  0  0
   -0.1109   -2.0338   -2.7886 O   0  0  0  0  0  0  0  0  0  0  0  0
   -0.4798   -0.8207   -2.3171 C   0  0  0  0  0  0  0  0  0  0  0  0
    0.2075    0.1891   -2.3504 O   0  0  0  0  0  0  0  0  0  0  0  0
   -1.8460   -0.8683   -1.7312 C   0  0  0  0  0  0  0  0  0  0  0  0
   -2.5885   -2.0516   -1.6475 C   0  0  0  0  0  0  0  0  0  0  0  0
   -3.8713   -2.0406   -1.0841 C   0  0  0  0  0  0  0  0  0  0  0  0
   -4.4364   -0.8517   -0.5941 C   0  0  0  0  0  0  0  0  0  0  0  0
   -3.6886    0.3130   -0.6834 C   0  0  0  0  0  0  0  0  0  0  0  0
   -2.4016    0.3193   -1.2441 C   0  0  0  0  0  0  0  0  0  0  0  0
   -4.3339    1.8285   -0.0965 S   0  0  0  0  0  6  0  0  0  0  0  0
   -4.5298    2.6622   -1.2652 O   0  0  0  0  0  0  0  0  0  0  0  0
   -3.4775    2.2338    0.9997 O   0  0  0  0  0  0  0  0  0  0  0  0
   -5.9171    1.5447    0.5856 C   0  0  0  0  0  0  0  0  0  0  0  0
   -6.5983    2.6342    1.1462 C   0  0  0  0  0  0  0  0  0  0  0  0
   -7.8636    2.4473    1.6971 C   0  0  0  0  0  0  0  0  0  0  0  0
   -8.4413    1.1801    1.6862 C   0  0  0  0  0  0  0  0  0  0  0  0
   -7.7523    0.1007    1.1250 C   0  0  0  0  0  0  0  0  0  0  0  0
   -6.4752    0.2740    0.5666 C   0  0  0  0  0  0  0  0  0  0  0  0
   -5.7975   -0.9104   -0.0109 C   0  0  0  0  0  0  0  0  0  0  0  0
   -6.3851   -1.9890   -0.0057 O   0  0  0  0  0  0  0  0  0  0  0  0
    3.6411    0.5830   -0.2773 C   0  0  0  0  0  0  0  0  0  0  0  0
    4.6000    0.9413    0.6758 C   0  0  0  0  0  0  0  0  0  0  0  0
    5.3263   -0.0642    3.8554 H   0  0  0  0  0  0  0  0  0  0  0  0
    6.7435    0.9224    4.2457 H   0  0  0  0  0  0  0  0  0  0  0  0
    5.3598    1.6505    3.4191 H   0  0  0  0  0  0  0  0  0  0  0  0
    7.2372   -0.5079    2.3231 H   0  0  0  0  0  0  0  0  0  0  0  0
    7.9864    1.2222    0.6952 H   0  0  0  0  0  0  0  0  0  0  0  0
    6.9810    2.4327    1.5050 H   0  0  0  0  0  0  0  0  0  0  0  0
    8.3260    1.6796    2.3716 H   0  0  0  0  0  0  0  0  0  0  0  0
    6.2384   -2.0295    0.8918 H   0  0  0  0  0  0  0  0  0  0  0  0
    4.5773   -2.6519   -0.7629 H   0  0  0  0  0  0  0  0  0  0  0  0
    1.9809   -0.2121   -1.9847 H   0  0  0  0  0  0  0  0  0  0  0  0
    1.3438   -1.2390   -4.0682 H   0  0  0  0  0  0  0  0  0  0  0  0
    1.2077   -2.9870   -4.0217 H   0  0  0  0  0  0  0  0  0  0  0  0
   -2.1864   -2.9953   -2.0121 H   0  0  0  0  0  0  0  0  0  0  0  0
   -4.4278   -2.9771   -1.0303 H   0  0  0  0  0  0  0  0  0  0  0  0
   -1.8386    1.2517   -1.2993 H   0  0  0  0  0  0  0  0  0  0  0  0
   -6.1463    3.6250    1.1539 H   0  0  0  0  0  0  0  0  0  0  0  0
   -8.3994    3.2873    2.1339 H   0  0  0  0  0  0  0  0  0  0  0  0
   -9.4298    1.0281    2.1147 H   0  0  0  0  0  0  0  0  0  0  0  0
   -8.2241   -0.8818    1.1281 H   0  0  0  0  0  0  0  0  0  0  0  0
    2.9179    1.3313   -0.5929 H   0  0  0  0  0  0  0  0  0  0  0  0
    4.5932    1.9547    1.0703 H   0  0  0  0  0  0  0  0  0  0  0  0
  1  2  1  0
  2  3  1  0
  2  4  1  0
  4  5  2  0
  5  6  1  0
  6  7  2  0
  7  8  1  0
  8  9  1  0
  9 10  2  0
  9 11  1  0
 11 12  1  0
 12 13  1  0
 13 14  2  0
 13 15  1  0
 15 16  2  0
 16 17  1  0
 17 18  2  0
 18 19  1  0
 19 20  2  0
 19 21  1  0
 21 22  2  0
 21 23  2  0
 21 24  1  0
 24 25  2  0
 25 26  1  0
 26 27  2  0
 27 28  1  0
 28 29  2  0
 29 30  1  0
 30 31  2  0
  7 32  1  0
 32 33  2  0
 33  4  1  0
 20 15  1  0
 29 24  1  0
 30 18  1  0
  1 34  1  0
  1 35  1  0
  1 36  1  0
  2 37  1  0
  3 38  1  0
  3 39  1  0
  3 40  1  0
  5 41  1  0
  6 42  1  0
  8 43  1  0
 11 44  1  0
 11 45  1  0
 16 46  1  0
 17 47  1  0
 20 48  1  0
 25 49  1  0
 26 50  1  0
 27 51  1  0
 28 52  1  0
 32 53  1  0
 33 54  1  0
M  END
$$$$
