
     RDKit          3D

 46 48  0  0  0  0  0  0  0  0999 V2000
    0.9979    3.1014   -0.2699 C   0  0  0  0  0  0  0  0  0  0  0  0
    1.4002    1.7101   -0.7149 C   0  0  0  0  0  0  0  0  0  0  0  0
    2.8114    1.5743   -1.1933 C   0  0  0  0  0  0  0  0  0  0  0  0
    3.4273    0.3824   -1.1804 C   0  0  0  0  0  0  0  0  0  0  0  0
    4.8096    0.1756   -1.6304 C   0  0  0  0  0  0  0  0  0  0  0  0
    5.1226   -0.9931   -2.3380 C   0  0  0  0  0  0  0  0  0  0  0  0
    6.4309   -1.2386   -2.7626 C   0  0  0  0  0  0  0  0  0  0  0  0
    7.4416   -0.3231   -2.4731 C   0  0  0  0  0  0  0  0  0  0  0  0
    7.1459    0.8347   -1.7550 C   0  0  0  0  0  0  0  0  0  0  0  0
    5.8373    1.0810   -1.3312 C   0  0  0  0  0  0  0  0  0  0  0  0
    0.6054    0.6748   -0.7434 N   0  0  0  0  0  0  0  0  0  0  0  0
   -0.6535    0.7897   -0.2169 N   0  0  0  0  0  0  0  0  0  0  0  0
   -0.8437    0.9648    1.1485 C   0  0  0  0  0  0  0  0  0  0  0  0
   -0.0090    1.3247    1.9673 O   0  0  0  0  0  0  0  0  0  0  0  0
   -2.2378    0.6734    1.5776 C   0  0  0  0  0  0  0  0  0  0  0  0
   -2.5106    0.0600    2.9265 C   0  0  0  0  0  0  0  0  0  0  0  0
   -2.7520   -0.7661    1.6793 C   0  0  0  0  0  0  0  0  0  0  0  0
   -1.8069   -1.9220    1.4369 C   0  0  0  0  0  0  0  0  0  0  0  0
   -4.1887   -1.0321    1.2472 C   0  0  0  0  0  0  0  0  0  0  0  0
   -5.1188   -1.6132    2.1268 C   0  0  0  0  0  0  0  0  0  0  0  0
   -6.4344   -1.8711    1.7331 C   0  0  0  0  0  0  0  0  0  0  0  0
   -6.8483   -1.5562    0.4424 C   0  0  0  0  0  0  0  0  0  0  0  0
   -5.9469   -0.9872   -0.4524 C   0  0  0  0  0  0  0  0  0  0  0  0
   -4.6323   -0.7312   -0.0527 C   0  0  0  0  0  0  0  0  0  0  0  0
   -0.0590    3.2909   -0.4736 H   0  0  0  0  0  0  0  0  0  0  0  0
    1.5761    3.8573   -0.8101 H   0  0  0  0  0  0  0  0  0  0  0  0
    1.1978    3.2193    0.7978 H   0  0  0  0  0  0  0  0  0  0  0  0
    3.3040    2.4789   -1.5300 H   0  0  0  0  0  0  0  0  0  0  0  0
    2.8988   -0.5082   -0.8449 H   0  0  0  0  0  0  0  0  0  0  0  0
    4.3467   -1.7199   -2.5719 H   0  0  0  0  0  0  0  0  0  0  0  0
    6.6596   -2.1459   -3.3168 H   0  0  0  0  0  0  0  0  0  0  0  0
    8.4598   -0.5152   -2.8010 H   0  0  0  0  0  0  0  0  0  0  0  0
    7.9352    1.5442   -1.5174 H   0  0  0  0  0  0  0  0  0  0  0  0
    5.6352    1.9800   -0.7530 H   0  0  0  0  0  0  0  0  0  0  0  0
   -1.3212    0.1623   -0.6539 H   0  0  0  0  0  0  0  0  0  0  0  0
   -2.9388    1.4475    1.2786 H   0  0  0  0  0  0  0  0  0  0  0  0
   -1.6609   -0.1804    3.5580 H   0  0  0  0  0  0  0  0  0  0  0  0
   -3.3590    0.4423    3.4834 H   0  0  0  0  0  0  0  0  0  0  0  0
   -2.1684   -2.8240    1.9428 H   0  0  0  0  0  0  0  0  0  0  0  0
   -0.7980   -1.7201    1.8116 H   0  0  0  0  0  0  0  0  0  0  0  0
   -1.7316   -2.1370    0.3659 H   0  0  0  0  0  0  0  0  0  0  0  0
   -4.8108   -1.8719    3.1382 H   0  0  0  0  0  0  0  0  0  0  0  0
   -7.1324   -2.3198    2.4351 H   0  0  0  0  0  0  0  0  0  0  0  0
   -7.8706   -1.7573    0.1335 H   0  0  0  0  0  0  0  0  0  0  0  0
   -6.2645   -0.7444   -1.4632 H   0  0  0  0  0  0  0  0  0  0  0  0
   -3.9449   -0.2917   -0.7709 H   0  0  0  0  0  0  0  0  0  0  0  0
  1  2  1  0
  2  3  1  0
  3  4  2  3
  4  5  1  0
  5  6  2  0
  6  7  1  0
  7  8  2  0
  8  9  1  0
  9 10  2  0
  2 11  2  3
 11 12  1  0
 12 13  1  0
 13 14  2  0
 13 15  1  0
 15 16  1  0
 16 17  1  0
 17 18  1  0
 17 19  1  0
 19 20  2  0
 20 21  1  0
 21 22  2  0
 22 23  1  0
 23 24  2  0
 10  5  1  0
 17 15  1  0
 24 19  1  0
  1 25  1  0
  1 26  1  0
  1 27  1  0
  3 28  1  0
  4 29  1  0
  6 30  1  0
  7 31  1  0
  8 32  1  0
  9 33  1  0
 10 34  1  0
 12 35  1  0
 15 36  1  0
 16 37  1  0
 16 38  1  0
 18 39  1  0
 18 40  1  0
 18 41  1  0
 20 42  1  0
 21 43  1  0
 22 44  1  0
 23 45  1  0
 24 46  1  0
M  END
$$$$
