
     RDKit          3D

 57 60  0  0  0  0  0  0  0  0999 V2000
    0.0970    1.1433   -4.8627 C   0  0  0  0  0  0  0  0  0  0  0  0
    1.1748    0.3634   -4.1189 C   0  0  0  0  0  0  0  0  0  0  0  0
    1.1387    0.5615   -2.5928 C   0  0  0  0  0  0  0  0  0  0  0  0
   -0.3700   -0.2245   -1.8903 S   0  0  0  0  0  0  0  0  0  0  0  0
   -0.9006    1.0173   -0.7654 C   0  0  0  0  0  0  0  0  0  0  0  0
    0.0532    1.6205   -0.1169 N   0  0  0  0  0  0  0  0  0  0  0  0
   -0.3734    2.6263    0.7462 C   0  0  0  0  0  0  0  0  0  0  0  0
    0.4958    3.4060    1.5391 C   0  0  0  0  0  0  0  0  0  0  0  0
   -0.2151    4.3316    2.2794 C   0  0  0  0  0  0  0  0  0  0  0  0
   -1.9083    4.2331    1.9857 S   0  0  0  0  0  0  0  0  0  0  0  0
   -1.6851    2.9651    0.8830 C   0  0  0  0  0  0  0  0  0  0  0  0
   -2.7345    2.3099    0.1617 C   0  0  0  0  0  0  0  0  0  0  0  0
   -3.9169    2.6390    0.2305 O   0  0  0  0  0  0  0  0  0  0  0  0
   -2.2711    1.2640   -0.6531 N   0  0  0  0  0  0  0  0  0  0  0  0
   -3.3111    0.4887   -1.3427 C   0  0  0  0  0  0  0  0  0  0  0  0
   -3.8225   -0.6695   -0.5042 C   0  0  0  0  0  0  0  0  0  0  0  0
   -3.3231   -1.9687   -0.6801 C   0  0  0  0  0  0  0  0  0  0  0  0
   -3.7815   -3.0241    0.1153 C   0  0  0  0  0  0  0  0  0  0  0  0
   -4.7532   -2.7991    1.0952 C   0  0  0  0  0  0  0  0  0  0  0  0
   -5.2007   -3.9462    1.9212 C   0  0  0  0  0  0  0  0  0  0  0  0
   -4.7567   -5.0786    1.8714 O   0  0  0  0  0  0  0  0  0  0  0  0
   -6.1852   -3.6197    2.7784 O   0  0  0  0  0  0  0  0  0  0  0  0
   -5.2668   -1.5102    1.2714 C   0  0  0  0  0  0  0  0  0  0  0  0
   -4.8042   -0.4564    0.4770 C   0  0  0  0  0  0  0  0  0  0  0  0
    2.3830   -0.0585   -1.9271 C   0  0  0  0  0  0  0  0  0  0  0  0
    3.1858   -0.7347   -2.5654 O   0  0  0  0  0  0  0  0  0  0  0  0
    2.4903    0.2524   -0.5805 N   0  0  0  0  0  0  0  0  0  0  0  0
    3.5053   -0.1268    0.3204 C   0  0  0  0  0  0  0  0  0  0  0  0
    3.3229    0.2174    1.6643 C   0  0  0  0  0  0  0  0  0  0  0  0
    4.2811   -0.1166    2.6274 C   0  0  0  0  0  0  0  0  0  0  0  0
    5.4453   -0.8056    2.2657 C   0  0  0  0  0  0  0  0  0  0  0  0
    6.4631   -1.1458    3.3173 C   0  0  0  0  0  0  0  0  0  0  0  0
    5.6284   -1.1408    0.9159 C   0  0  0  0  0  0  0  0  0  0  0  0
    7.0487   -1.9723    0.3828 Cl  0  0  0  0  0  0  0  0  0  0  0  0
    4.6661   -0.8067   -0.0467 C   0  0  0  0  0  0  0  0  0  0  0  0
    0.1426    2.2082   -4.6110 H   0  0  0  0  0  0  0  0  0  0  0  0
    0.2441    1.0447   -5.9430 H   0  0  0  0  0  0  0  0  0  0  0  0
   -0.9066    0.7758   -4.6308 H   0  0  0  0  0  0  0  0  0  0  0  0
    2.1482    0.7041   -4.4965 H   0  0  0  0  0  0  0  0  0  0  0  0
    1.1065   -0.7009   -4.3783 H   0  0  0  0  0  0  0  0  0  0  0  0
    1.1509    1.6399   -2.3952 H   0  0  0  0  0  0  0  0  0  0  0  0
    1.5737    3.3116    1.5725 H   0  0  0  0  0  0  0  0  0  0  0  0
    0.1712    5.0643    2.9756 H   0  0  0  0  0  0  0  0  0  0  0  0
   -2.9569    0.1225   -2.3103 H   0  0  0  0  0  0  0  0  0  0  0  0
   -4.1577    1.1411   -1.5902 H   0  0  0  0  0  0  0  0  0  0  0  0
   -2.5754   -2.1825   -1.4392 H   0  0  0  0  0  0  0  0  0  0  0  0
   -3.3768   -4.0231   -0.0350 H   0  0  0  0  0  0  0  0  0  0  0  0
   -6.3735   -4.4579    3.2501 H   0  0  0  0  0  0  0  0  0  0  0  0
   -6.0257   -1.3113    2.0246 H   0  0  0  0  0  0  0  0  0  0  0  0
   -5.2257    0.5359    0.6332 H   0  0  0  0  0  0  0  0  0  0  0  0
    1.7055    0.7675   -0.1823 H   0  0  0  0  0  0  0  0  0  0  0  0
    2.4272    0.7436    1.9866 H   0  0  0  0  0  0  0  0  0  0  0  0
    4.1067    0.1634    3.6648 H   0  0  0  0  0  0  0  0  0  0  0  0
    6.6771   -2.2195    3.3162 H   0  0  0  0  0  0  0  0  0  0  0  0
    6.1027   -0.8909    4.3198 H   0  0  0  0  0  0  0  0  0  0  0  0
    7.3877   -0.5866    3.1447 H   0  0  0  0  0  0  0  0  0  0  0  0
    4.8545   -1.0848   -1.0790 H   0  0  0  0  0  0  0  0  0  0  0  0
  1  2  1  0
  2  3  1  0
  3  4  1  0
  4  5  1  0
  5  6  2  0
  6  7  1  0
  7  8  1  0
  8  9  2  0
  9 10  1  0
 10 11  1  0
 11 12  1  0
 12 13  2  0
 12 14  1  0
 14 15  1  0
 15 16  1  0
 16 17  2  0
 17 18  1  0
 18 19  2  0
 19 20  1  0
 20 21  2  0
 20 22  1  0
 19 23  1  0
 23 24  2  0
  3 25  1  0
 25 26  2  0
 25 27  1  0
 27 28  1  0
 28 29  2  0
 29 30  1  0
 30 31  2  0
 31 32  1  0
 31 33  1  0
 33 34  1  0
 33 35  2  0
 14  5  1  0
 24 16  1  0
 35 28  1  0
 11  7  2  0
  1 36  1  0
  1 37  1  0
  1 38  1  0
  2 39  1  0
  2 40  1  0
  3 41  1  0
  8 42  1  0
  9 43  1  0
 15 44  1  0
 15 45  1  0
 17 46  1  0
 18 47  1  0
 22 48  1  0
 23 49  1  0
 24 50  1  0
 27 51  1  0
 29 52  1  0
 30 53  1  0
 32 54  1  0
 32 55  1  0
 32 56  1  0
 35 57  1  0
M  END
$$$$
