
     RDKit          3D

 38 41  0  0  0  0  0  0  0  0999 V2000
   -4.8245    2.3141   -1.7606 O   0  0  0  0  0  0  0  0  0  0  0  0
   -4.2619    1.2597   -2.0339 C   0  0  0  0  0  0  0  0  0  0  0  0
   -3.4936    0.4719   -1.0851 C   0  0  0  0  0  0  0  0  0  0  0  0
   -2.8652   -0.7245   -1.3800 C   0  0  0  0  0  0  0  0  0  0  0  0
   -2.2388   -1.1746   -0.2437 N   0  0  0  0  0  0  0  0  0  0  0  0
   -1.4524   -2.4012   -0.1733 C   0  0  0  0  0  0  0  0  0  0  0  0
   -0.0045   -2.1826    0.2320 C   0  0  0  0  0  0  0  0  0  0  0  0
    0.5219   -2.9436    1.0402 O   0  0  0  0  0  0  0  0  0  0  0  0
    0.6288   -1.1498   -0.4408 N   0  0  0  0  0  0  0  0  0  0  0  0
    1.9624   -0.7133   -0.2883 C   0  0  0  0  0  0  0  0  0  0  0  0
    2.8480   -1.2217    0.6812 C   0  0  0  0  0  0  0  0  0  0  0  0
    4.1634   -0.7478    0.7781 C   0  0  0  0  0  0  0  0  0  0  0  0
    4.5644    0.2231   -0.1086 C   0  0  0  0  0  0  0  0  0  0  0  0
    3.7072    0.7280   -1.0546 C   0  0  0  0  0  0  0  0  0  0  0  0
    2.4031    0.2902   -1.1648 C   0  0  0  0  0  0  0  0  0  0  0  0
    4.2961    1.6735   -1.8389 O   0  0  0  0  0  0  0  0  0  0  0  0
    5.6281    1.6936   -1.2833 C   0  0  0  0  0  0  0  0  0  0  0  0
    5.7983    0.7907   -0.1700 O   0  0  0  0  0  0  0  0  0  0  0  0
   -2.4683   -0.3064    0.8021 C   0  0  0  0  0  0  0  0  0  0  0  0
   -2.0560   -0.3488    2.1430 C   0  0  0  0  0  0  0  0  0  0  0  0
   -2.4281    0.7072    2.9804 C   0  0  0  0  0  0  0  0  0  0  0  0
   -3.1916    1.7657    2.5002 C   0  0  0  0  0  0  0  0  0  0  0  0
   -3.6059    1.7938    1.1660 C   0  0  0  0  0  0  0  0  0  0  0  0
   -3.2411    0.7448    0.2959 C   0  0  0  0  0  0  0  0  0  0  0  0
   -4.3133    0.8490   -3.0577 H   0  0  0  0  0  0  0  0  0  0  0  0
   -2.8235   -1.2909   -2.2999 H   0  0  0  0  0  0  0  0  0  0  0  0
   -1.9488   -3.0571    0.5513 H   0  0  0  0  0  0  0  0  0  0  0  0
   -1.4707   -2.8848   -1.1560 H   0  0  0  0  0  0  0  0  0  0  0  0
    0.0759   -0.6271   -1.1099 H   0  0  0  0  0  0  0  0  0  0  0  0
    2.5378   -1.9818    1.3901 H   0  0  0  0  0  0  0  0  0  0  0  0
    4.8430   -1.1357    1.5274 H   0  0  0  0  0  0  0  0  0  0  0  0
    1.7600    0.7158   -1.9274 H   0  0  0  0  0  0  0  0  0  0  0  0
    5.8540    2.7128   -0.9496 H   0  0  0  0  0  0  0  0  0  0  0  0
    6.3397    1.4158   -2.0698 H   0  0  0  0  0  0  0  0  0  0  0  0
   -1.4575   -1.1668    2.5378 H   0  0  0  0  0  0  0  0  0  0  0  0
   -2.1124    0.7013    4.0204 H   0  0  0  0  0  0  0  0  0  0  0  0
   -3.4682    2.5817    3.1637 H   0  0  0  0  0  0  0  0  0  0  0  0
   -4.2055    2.6253    0.8018 H   0  0  0  0  0  0  0  0  0  0  0  0
  1  2  2  0
  2  3  1  0
  3  4  2  0
  4  5  1  0
  5  6  1  0
  6  7  1  0
  7  8  2  0
  7  9  1  0
  9 10  1  0
 10 11  2  0
 11 12  1  0
 12 13  2  0
 13 14  1  0
 14 15  2  0
 14 16  1  0
 16 17  1  0
 17 18  1  0
  5 19  1  0
 19 20  2  0
 20 21  1  0
 21 22  2  0
 22 23  1  0
 23 24  2  0
 24  3  1  0
 15 10  1  0
 24 19  1  0
 18 13  1  0
  2 25  1  0
  4 26  1  0
  6 27  1  0
  6 28  1  0
  9 29  1  0
 11 30  1  0
 12 31  1  0
 15 32  1  0
 17 33  1  0
 17 34  1  0
 20 35  1  0
 21 36  1  0
 22 37  1  0
 23 38  1  0
M  END
$$$$
