
     RDKit          3D

 38 40  0  0  0  0  0  0  0  0999 V2000
   -4.3530    1.3854    0.3512 C   0  0  0  0  0  0  0  0  0  0  0  0
   -3.0871    0.8105    0.9158 C   0  0  0  0  0  0  0  0  0  0  0  0
   -1.8423    1.2421    0.4384 C   0  0  0  0  0  0  0  0  0  0  0  0
   -0.6621    0.7361    0.9840 C   0  0  0  0  0  0  0  0  0  0  0  0
   -0.7257   -0.2154    2.0045 C   0  0  0  0  0  0  0  0  0  0  0  0
    0.7781   -0.8674    2.6957 S   0  0  0  0  0  6  0  0  0  0  0  0
    1.8249    0.1143    2.5140 O   0  0  0  0  0  0  0  0  0  0  0  0
    0.4628   -1.3867    4.0112 O   0  0  0  0  0  0  0  0  0  0  0  0
    1.0886   -2.2226    1.7321 N   0  0  0  0  0  0  0  0  0  0  0  0
    1.1602   -2.0734    0.3189 C   0  0  0  0  0  0  0  0  0  0  0  0
    0.1746   -2.6661   -0.4711 C   0  0  0  0  0  0  0  0  0  0  0  0
    0.1978   -2.5004   -1.8563 C   0  0  0  0  0  0  0  0  0  0  0  0
    1.2090   -1.7403   -2.4458 C   0  0  0  0  0  0  0  0  0  0  0  0
    1.2281   -1.5875   -3.8056 O   0  0  0  0  0  0  0  0  0  0  0  0
    2.2029   -1.1372   -1.6619 C   0  0  0  0  0  0  0  0  0  0  0  0
    3.5207   -0.1791   -2.3916 S   0  0  0  0  0  0  0  0  0  0  0  0
    3.0400    1.4573   -2.0233 C   0  0  0  0  0  0  0  0  0  0  0  0
    1.8343    1.8124   -1.4697 N   0  0  0  0  0  0  0  0  0  0  0  0
    1.9342    3.1141   -1.3456 C   0  0  0  0  0  0  0  0  0  0  0  0
    3.1404    3.5216   -1.8159 N   0  0  0  0  0  0  0  0  0  0  0  0
    3.8645    2.4856   -2.2602 N   0  0  0  0  0  0  0  0  0  0  0  0
    2.1734   -1.3183   -0.2721 C   0  0  0  0  0  0  0  0  0  0  0  0
   -1.9586   -0.6299    2.5136 C   0  0  0  0  0  0  0  0  0  0  0  0
   -3.1361   -0.1136    1.9688 C   0  0  0  0  0  0  0  0  0  0  0  0
   -4.2322    1.6263   -0.7102 H   0  0  0  0  0  0  0  0  0  0  0  0
   -5.1773    0.6679    0.4299 H   0  0  0  0  0  0  0  0  0  0  0  0
   -4.6240    2.2966    0.8928 H   0  0  0  0  0  0  0  0  0  0  0  0
   -1.7819    1.9763   -0.3631 H   0  0  0  0  0  0  0  0  0  0  0  0
    0.2973    1.0790    0.6016 H   0  0  0  0  0  0  0  0  0  0  0  0
    0.6392   -3.0570    2.1040 H   0  0  0  0  0  0  0  0  0  0  0  0
   -0.6236   -3.2495   -0.0205 H   0  0  0  0  0  0  0  0  0  0  0  0
   -0.5767   -2.9667   -2.4575 H   0  0  0  0  0  0  0  0  0  0  0  0
    0.4485   -2.0169   -4.1919 H   0  0  0  0  0  0  0  0  0  0  0  0
    1.1956    3.7868   -0.9353 H   0  0  0  0  0  0  0  0  0  0  0  0
    3.5303    4.4562   -1.8620 H   0  0  0  0  0  0  0  0  0  0  0  0
    2.9429   -0.8647    0.3489 H   0  0  0  0  0  0  0  0  0  0  0  0
   -2.0131   -1.3422    3.3333 H   0  0  0  0  0  0  0  0  0  0  0  0
   -4.0944   -0.4335    2.3734 H   0  0  0  0  0  0  0  0  0  0  0  0
  1  2  1  0
  2  3  2  0
  3  4  1  0
  4  5  2  0
  5  6  1  0
  6  7  2  0
  6  8  2  0
  6  9  1  0
  9 10  1  0
 10 11  2  0
 11 12  1  0
 12 13  2  0
 13 14  1  0
 13 15  1  0
 15 16  1  0
 16 17  1  0
 17 18  1  0
 18 19  2  0
 19 20  1  0
 20 21  1  0
 15 22  2  0
  5 23  1  0
 23 24  2  0
 24  2  1  0
 22 10  1  0
 21 17  2  0
  1 25  1  0
  1 26  1  0
  1 27  1  0
  3 28  1  0
  4 29  1  0
  9 30  1  0
 11 31  1  0
 12 32  1  0
 14 33  1  0
 19 34  1  0
 20 35  1  0
 22 36  1  0
 23 37  1  0
 24 38  1  0
M  END
$$$$
