
     RDKit          3D

 62 66  0  0  0  0  0  0  0  0999 V2000
   -3.4019    6.2863   -1.0958 C   0  0  0  0  0  0  0  0  0  0  0  0
   -2.6643    5.1177   -0.7618 O   0  0  0  0  0  0  0  0  0  0  0  0
   -3.3625    3.9434   -0.6860 C   0  0  0  0  0  0  0  0  0  0  0  0
   -4.7258    3.7890   -0.8966 C   0  0  0  0  0  0  0  0  0  0  0  0
   -5.3256    2.5289   -0.7899 C   0  0  0  0  0  0  0  0  0  0  0  0
   -4.5315    1.4129   -0.4632 C   0  0  0  0  0  0  0  0  0  0  0  0
   -5.0612   -0.2110   -0.2819 S   0  0  0  0  0  0  0  0  0  0  0  0
   -3.4898   -0.7733    0.0878 C   0  0  0  0  0  0  0  0  0  0  0  0
   -3.3153   -2.2002    0.3909 C   0  0  0  0  0  0  0  0  0  0  0  0
   -3.3017   -2.6032    1.7363 C   0  0  0  0  0  0  0  0  0  0  0  0
   -3.1350   -3.9451    2.0728 C   0  0  0  0  0  0  0  0  0  0  0  0
   -2.9776   -4.8946    1.0680 C   0  0  0  0  0  0  0  0  0  0  0  0
   -2.9829   -4.5070   -0.2752 C   0  0  0  0  0  0  0  0  0  0  0  0
   -3.1503   -3.1622   -0.6271 C   0  0  0  0  0  0  0  0  0  0  0  0
   -3.1470   -2.6934   -1.9171 O   0  0  0  0  0  0  0  0  0  0  0  0
   -3.1003   -3.6523   -2.9644 C   0  0  0  0  0  0  0  0  0  0  0  0
   -2.5615    0.2550    0.0787 C   0  0  0  0  0  0  0  0  0  0  0  0
   -1.1543    0.0189    0.3813 C   0  0  0  0  0  0  0  0  0  0  0  0
   -0.3449   -0.6873   -0.5142 C   0  0  0  0  0  0  0  0  0  0  0  0
    1.0067   -0.9097   -0.2258 C   0  0  0  0  0  0  0  0  0  0  0  0
    1.5605   -0.4231    0.9579 C   0  0  0  0  0  0  0  0  0  0  0  0
    2.8573   -0.5584    1.3647 O   0  0  0  0  0  0  0  0  0  0  0  0
    3.7580   -1.3334    0.5721 C   0  0  0  0  0  0  0  0  0  0  0  0
    4.4010   -0.5248   -0.5746 C   0  0  0  0  0  0  0  0  0  0  0  0
    5.4286    0.4724   -0.2607 N   0  0  0  0  0  0  0  0  0  0  0  0
    4.9992    1.5518    0.6219 C   0  0  0  0  0  0  0  0  0  0  0  0
    6.3065    2.2882    0.8698 C   0  0  0  0  0  0  0  0  0  0  0  0
    7.3852    1.2122    0.7754 C   0  0  0  0  0  0  0  0  0  0  0  0
    6.6575   -0.0494    0.3244 C   0  0  0  0  0  0  0  0  0  0  0  0
    0.7504    0.2906    1.8464 C   0  0  0  0  0  0  0  0  0  0  0  0
   -0.5996    0.5124    1.5643 C   0  0  0  0  0  0  0  0  0  0  0  0
   -3.1590    1.5327   -0.2417 C   0  0  0  0  0  0  0  0  0  0  0  0
   -2.5842    2.8254   -0.3630 C   0  0  0  0  0  0  0  0  0  0  0  0
   -3.8506    6.1991   -2.0908 H   0  0  0  0  0  0  0  0  0  0  0  0
   -2.7027    7.1278   -1.1185 H   0  0  0  0  0  0  0  0  0  0  0  0
   -4.1605    6.5045   -0.3368 H   0  0  0  0  0  0  0  0  0  0  0  0
   -5.3640    4.6295   -1.1491 H   0  0  0  0  0  0  0  0  0  0  0  0
   -6.3930    2.4145   -0.9582 H   0  0  0  0  0  0  0  0  0  0  0  0
   -3.4212   -1.8658    2.5269 H   0  0  0  0  0  0  0  0  0  0  0  0
   -3.1265   -4.2467    3.1167 H   0  0  0  0  0  0  0  0  0  0  0  0
   -2.8458   -5.9419    1.3287 H   0  0  0  0  0  0  0  0  0  0  0  0
   -2.8475   -5.2810   -1.0228 H   0  0  0  0  0  0  0  0  0  0  0  0
   -3.1656   -3.1128   -3.9140 H   0  0  0  0  0  0  0  0  0  0  0  0
   -3.9517   -4.3391   -2.9128 H   0  0  0  0  0  0  0  0  0  0  0  0
   -2.1501   -4.1963   -2.9568 H   0  0  0  0  0  0  0  0  0  0  0  0
   -0.7622   -1.0680   -1.4442 H   0  0  0  0  0  0  0  0  0  0  0  0
    1.5912   -1.4593   -0.9545 H   0  0  0  0  0  0  0  0  0  0  0  0
    3.2684   -2.2358    0.1865 H   0  0  0  0  0  0  0  0  0  0  0  0
    4.5323   -1.7072    1.2498 H   0  0  0  0  0  0  0  0  0  0  0  0
    4.8481   -1.2416   -1.2747 H   0  0  0  0  0  0  0  0  0  0  0  0
    3.6151   -0.0111   -1.1400 H   0  0  0  0  0  0  0  0  0  0  0  0
    4.2523    2.2026    0.1573 H   0  0  0  0  0  0  0  0  0  0  0  0
    4.6096    1.1845    1.5772 H   0  0  0  0  0  0  0  0  0  0  0  0
    6.4740    3.0473    0.0960 H   0  0  0  0  0  0  0  0  0  0  0  0
    6.3144    2.7916    1.8415 H   0  0  0  0  0  0  0  0  0  0  0  0
    7.8806    1.0574    1.7395 H   0  0  0  0  0  0  0  0  0  0  0  0
    8.1489    1.5105    0.0480 H   0  0  0  0  0  0  0  0  0  0  0  0
    6.4701   -0.6870    1.1951 H   0  0  0  0  0  0  0  0  0  0  0  0
    7.2516   -0.6160   -0.3994 H   0  0  0  0  0  0  0  0  0  0  0  0
    1.1755    0.6774    2.7694 H   0  0  0  0  0  0  0  0  0  0  0  0
   -1.2101    1.0681    2.2717 H   0  0  0  0  0  0  0  0  0  0  0  0
   -1.5154    2.9532   -0.2055 H   0  0  0  0  0  0  0  0  0  0  0  0
  1  2  1  0
  2  3  1  0
  3  4  2  0
  4  5  1  0
  5  6  2  0
  6  7  1  0
  7  8  1  0
  8  9  1  0
  9 10  2  0
 10 11  1  0
 11 12  2  0
 12 13  1  0
 13 14  2  0
 14 15  1  0
 15 16  1  0
  8 17  2  0
 17 18  1  0
 18 19  2  0
 19 20  1  0
 20 21  2  0
 21 22  1  0
 22 23  1  0
 23 24  1  0
 24 25  1  0
 25 26  1  0
 26 27  1  0
 27 28  1  0
 28 29  1  0
 21 30  1  0
 30 31  2  0
 17 32  1  0
 32 33  2  0
 33  3  1  0
 32  6  1  0
 14  9  1  0
 31 18  1  0
 29 25  1  0
  1 34  1  0
  1 35  1  0
  1 36  1  0
  4 37  1  0
  5 38  1  0
 10 39  1  0
 11 40  1  0
 12 41  1  0
 13 42  1  0
 16 43  1  0
 16 44  1  0
 16 45  1  0
 19 46  1  0
 20 47  1  0
 23 48  1  0
 23 49  1  0
 24 50  1  0
 24 51  1  0
 26 52  1  0
 26 53  1  0
 27 54  1  0
 27 55  1  0
 28 56  1  0
 28 57  1  0
 29 58  1  0
 29 59  1  0
 30 60  1  0
 31 61  1  0
 33 62  1  0
M  END
$$$$
