
     RDKit          3D

 39 42  0  0  0  0  0  0  0  0999 V2000
   -4.6603   -0.2757    2.3052 C   0  0  0  0  0  0  0  0  0  0  0  0
   -4.5722    1.1443    1.1830 S   0  0  0  0  0  0  0  0  0  0  0  0
   -4.8676    0.2785   -0.3630 C   0  0  0  0  0  0  0  0  0  0  0  0
   -6.1930    0.1329   -0.7935 C   0  0  0  0  0  0  0  0  0  0  0  0
   -6.4754   -0.5385   -1.9814 C   0  0  0  0  0  0  0  0  0  0  0  0
   -5.4355   -1.0631   -2.7437 C   0  0  0  0  0  0  0  0  0  0  0  0
   -4.1090   -0.9153   -2.3263 C   0  0  0  0  0  0  0  0  0  0  0  0
   -3.8087   -0.2418   -1.1388 C   0  0  0  0  0  0  0  0  0  0  0  0
   -2.4905   -0.0528   -0.6727 N   0  0  0  0  0  0  0  0  0  0  0  0
   -1.3003   -0.4696   -1.2323 C   0  0  0  0  0  0  0  0  0  0  0  0
   -1.1691   -1.1057   -2.2723 O   0  0  0  0  0  0  0  0  0  0  0  0
   -0.1301   -0.0762   -0.4379 C   0  0  0  0  0  0  0  0  0  0  0  0
    1.2337   -0.3234   -0.7365 C   0  0  0  0  0  0  0  0  0  0  0  0
    1.9360    0.2354    0.3052 C   0  0  0  0  0  0  0  0  0  0  0  0
    3.3497    0.3550    0.6493 C   0  0  0  0  0  0  0  0  0  0  0  0
    3.7626    1.0247    1.8274 C   0  0  0  0  0  0  0  0  0  0  0  0
    5.1169    1.1439    2.1649 C   0  0  0  0  0  0  0  0  0  0  0  0
    6.0399    0.5866    1.3106 C   0  0  0  0  0  0  0  0  0  0  0  0
    5.6566   -0.0657    0.1646 C   0  0  0  0  0  0  0  0  0  0  0  0
    4.3295   -0.1982   -0.1929 C   0  0  0  0  0  0  0  0  0  0  0  0
    6.7180   -0.5429   -0.5399 O   0  0  0  0  0  0  0  0  0  0  0  0
    7.8137   -0.1138    0.2958 C   0  0  0  0  0  0  0  0  0  0  0  0
    7.3889    0.6034    1.4735 O   0  0  0  0  0  0  0  0  0  0  0  0
    1.0432    0.7841    1.1790 O   0  0  0  0  0  0  0  0  0  0  0  0
   -0.2476    0.5925    0.7227 N   0  0  0  0  0  0  0  0  0  0  0  0
   -4.4968    0.0666    3.3305 H   0  0  0  0  0  0  0  0  0  0  0  0
   -3.8895   -1.0105    2.0569 H   0  0  0  0  0  0  0  0  0  0  0  0
   -5.6442   -0.7494    2.2491 H   0  0  0  0  0  0  0  0  0  0  0  0
   -7.0126    0.5424   -0.2078 H   0  0  0  0  0  0  0  0  0  0  0  0
   -7.5046   -0.6502   -2.3132 H   0  0  0  0  0  0  0  0  0  0  0  0
   -5.6521   -1.5866   -3.6722 H   0  0  0  0  0  0  0  0  0  0  0  0
   -3.3326   -1.3352   -2.9581 H   0  0  0  0  0  0  0  0  0  0  0  0
   -2.4036    0.4804    0.1917 H   0  0  0  0  0  0  0  0  0  0  0  0
    1.6264   -0.8396   -1.6000 H   0  0  0  0  0  0  0  0  0  0  0  0
    3.0254    1.4639    2.4981 H   0  0  0  0  0  0  0  0  0  0  0  0
    5.4278    1.6577    3.0676 H   0  0  0  0  0  0  0  0  0  0  0  0
    4.0747   -0.7220   -1.1077 H   0  0  0  0  0  0  0  0  0  0  0  0
    8.4701    0.5368   -0.2935 H   0  0  0  0  0  0  0  0  0  0  0  0
    8.3823   -0.9970    0.6090 H   0  0  0  0  0  0  0  0  0  0  0  0
  1  2  1  0
  2  3  1  0
  3  4  2  0
  4  5  1  0
  5  6  2  0
  6  7  1  0
  7  8  2  0
  8  9  1  0
  9 10  1  0
 10 11  2  0
 10 12  1  0
 12 13  1  0
 13 14  2  0
 14 15  1  0
 15 16  2  0
 16 17  1  0
 17 18  2  0
 18 19  1  0
 19 20  2  0
 19 21  1  0
 21 22  1  0
 22 23  1  0
 14 24  1  0
 24 25  1  0
  8  3  1  0
 25 12  2  0
 20 15  1  0
 23 18  1  0
  1 26  1  0
  1 27  1  0
  1 28  1  0
  4 29  1  0
  5 30  1  0
  6 31  1  0
  7 32  1  0
  9 33  1  0
 13 34  1  0
 16 35  1  0
 17 36  1  0
 20 37  1  0
 22 38  1  0
 22 39  1  0
M  END
$$$$
