
     RDKit          3D

 56 60  0  0  0  0  0  0  0  0999 V2000
   -4.6857   -0.9170   -2.7231 C   0  0  0  0  0  0  0  0  0  0  0  0
   -4.9294    0.3327   -2.0521 N   0  0  0  0  0  0  0  0  0  0  0  0
   -4.2857    1.5178   -2.2611 C   0  0  0  0  0  0  0  0  0  0  0  0
   -3.1502    1.7965   -3.5303 S   0  0  0  0  0  0  0  0  0  0  0  0
   -1.7964    2.5155   -2.5626 C   0  0  0  0  0  0  0  0  0  0  0  0
   -1.0617    1.4752   -1.7173 C   0  0  0  0  0  0  0  0  0  0  0  0
   -1.4543    0.3232   -1.5689 O   0  0  0  0  0  0  0  0  0  0  0  0
    0.0944    2.0097   -1.1566 N   0  0  0  0  0  0  0  0  0  0  0  0
    1.0383    1.3525   -0.3361 C   0  0  0  0  0  0  0  0  0  0  0  0
    2.1270    2.1131    0.1061 C   0  0  0  0  0  0  0  0  0  0  0  0
    3.1281    1.5538    0.9145 C   0  0  0  0  0  0  0  0  0  0  0  0
    3.0390    0.2027    1.2958 C   0  0  0  0  0  0  0  0  0  0  0  0
    3.9542   -0.4811    2.0828 N   0  0  0  0  0  0  0  0  0  0  0  0
    3.5553   -1.7245    2.2391 C   0  0  0  0  0  0  0  0  0  0  0  0
    4.4667   -2.8804    3.1874 S   0  0  0  0  0  0  0  0  0  0  0  0
    5.8314   -1.8610    3.8129 C   0  0  0  0  0  0  0  0  0  0  0  0
    6.9115   -1.6987    2.7581 C   0  0  0  0  0  0  0  0  0  0  0  0
    7.8609   -2.4738    2.6692 O   0  0  0  0  0  0  0  0  0  0  0  0
    6.7315   -0.6102    1.9252 N   0  0  0  0  0  0  0  0  0  0  0  0
    7.5790   -0.3627    0.7996 C   0  0  0  0  0  0  0  0  0  0  0  0
    8.4549    0.8607    0.7683 C   0  0  0  0  0  0  0  0  0  0  0  0
    7.2763    0.7590   -0.1553 C   0  0  0  0  0  0  0  0  0  0  0  0
    2.0923   -2.1498    1.4607 S   0  0  0  0  0  0  0  0  0  0  0  0
    1.9480   -0.5453    0.8528 C   0  0  0  0  0  0  0  0  0  0  0  0
    0.9378    0.0080    0.0384 C   0  0  0  0  0  0  0  0  0  0  0  0
   -4.6509    2.3938   -1.3594 N   0  0  0  0  0  0  0  0  0  0  0  0
   -5.5886    1.7896   -0.5592 N   0  0  0  0  0  0  0  0  0  0  0  0
   -5.7970    0.5621   -1.0050 C   0  0  0  0  0  0  0  0  0  0  0  0
   -6.7612   -0.3858   -0.4511 C   0  0  0  0  0  0  0  0  0  0  0  0
   -7.6450   -1.1033   -1.2719 C   0  0  0  0  0  0  0  0  0  0  0  0
   -8.5598   -2.0048   -0.7171 C   0  0  0  0  0  0  0  0  0  0  0  0
   -8.6126   -2.1856    0.6642 C   0  0  0  0  0  0  0  0  0  0  0  0
   -7.7572   -1.4607    1.4923 C   0  0  0  0  0  0  0  0  0  0  0  0
   -6.8383   -0.5612    0.9360 C   0  0  0  0  0  0  0  0  0  0  0  0
   -3.6192   -1.0229   -2.9345 H   0  0  0  0  0  0  0  0  0  0  0  0
   -5.2638   -0.9267   -3.6520 H   0  0  0  0  0  0  0  0  0  0  0  0
   -4.9854   -1.7494   -2.0840 H   0  0  0  0  0  0  0  0  0  0  0  0
   -2.1658    3.3208   -1.9123 H   0  0  0  0  0  0  0  0  0  0  0  0
   -1.0828    2.9528   -3.2719 H   0  0  0  0  0  0  0  0  0  0  0  0
    0.2796    2.9880   -1.3437 H   0  0  0  0  0  0  0  0  0  0  0  0
    2.2252    3.1600   -0.1733 H   0  0  0  0  0  0  0  0  0  0  0  0
    3.9686    2.1540    1.2455 H   0  0  0  0  0  0  0  0  0  0  0  0
    6.2784   -2.3672    4.6751 H   0  0  0  0  0  0  0  0  0  0  0  0
    5.4817   -0.8878    4.1686 H   0  0  0  0  0  0  0  0  0  0  0  0
    5.7922   -0.2089    1.9111 H   0  0  0  0  0  0  0  0  0  0  0  0
    7.9898   -1.2711    0.3613 H   0  0  0  0  0  0  0  0  0  0  0  0
    8.3978    1.5586    1.5987 H   0  0  0  0  0  0  0  0  0  0  0  0
    9.4476    0.7548    0.3451 H   0  0  0  0  0  0  0  0  0  0  0  0
    7.4681    0.5863   -1.2088 H   0  0  0  0  0  0  0  0  0  0  0  0
    6.4225    1.3945    0.0413 H   0  0  0  0  0  0  0  0  0  0  0  0
    0.1141   -0.6240   -0.2765 H   0  0  0  0  0  0  0  0  0  0  0  0
   -7.6457   -0.9540   -2.3491 H   0  0  0  0  0  0  0  0  0  0  0  0
   -9.2410   -2.5571   -1.3610 H   0  0  0  0  0  0  0  0  0  0  0  0
   -9.3268   -2.8814    1.0948 H   0  0  0  0  0  0  0  0  0  0  0  0
   -7.8074   -1.5853    2.5696 H   0  0  0  0  0  0  0  0  0  0  0  0
   -6.1804    0.0063    1.5933 H   0  0  0  0  0  0  0  0  0  0  0  0
  1  2  1  0
  2  3  1  0
  3  4  1  0
  4  5  1  0
  5  6  1  0
  6  7  2  0
  6  8  1  0
  8  9  1  0
  9 10  2  0
 10 11  1  0
 11 12  2  0
 12 13  1  0
 13 14  2  0
 14 15  1  0
 15 16  1  0
 16 17  1  0
 17 18  2  0
 17 19  1  0
 19 20  1  0
 20 21  1  0
 21 22  1  0
 14 23  1  0
 23 24  1  0
 24 25  2  0
  3 26  2  0
 26 27  1  0
 27 28  2  0
 28 29  1  0
 29 30  2  0
 30 31  1  0
 31 32  2  0
 32 33  1  0
 33 34  2  0
 28  2  1  0
 34 29  1  0
 25  9  1  0
 24 12  1  0
 22 20  1  0
  1 35  1  0
  1 36  1  0
  1 37  1  0
  5 38  1  0
  5 39  1  0
  8 40  1  0
 10 41  1  0
 11 42  1  0
 16 43  1  0
 16 44  1  0
 19 45  1  0
 20 46  1  0
 21 47  1  0
 21 48  1  0
 22 49  1  0
 22 50  1  0
 25 51  1  0
 30 52  1  0
 31 53  1  0
 32 54  1  0
 33 55  1  0
 34 56  1  0
M  END
$$$$
