
     RDKit          3D

 52 54  0  0  0  0  0  0  0  0999 V2000
    8.4424   -0.3163   -1.7288 C   0  0  0  0  0  0  0  0  0  0  0  0
    7.1763   -0.7660   -1.0625 C   0  0  0  0  0  0  0  0  0  0  0  0
    6.6938   -2.0653   -1.2474 C   0  0  0  0  0  0  0  0  0  0  0  0
    5.4991   -2.4705   -0.6459 C   0  0  0  0  0  0  0  0  0  0  0  0
    4.7646   -1.5809    0.1488 C   0  0  0  0  0  0  0  0  0  0  0  0
    3.4649   -2.0030    0.7808 C   0  0  0  0  0  0  0  0  0  0  0  0
    2.3511   -1.6912   -0.0753 N   0  0  0  0  0  0  0  0  0  0  0  0
    1.6181   -0.5356    0.0629 C   0  0  0  0  0  0  0  0  0  0  0  0
    1.7195    0.2822    0.9651 O   0  0  0  0  0  0  0  0  0  0  0  0
    0.5917   -0.3265   -1.0785 C   0  0  0  0  0  0  0  0  0  0  0  0
    0.5401   -1.1162   -2.0126 O   0  0  0  0  0  0  0  0  0  0  0  0
   -0.2258    0.7679   -0.9134 N   0  0  0  0  0  0  0  0  0  0  0  0
   -1.3510    1.0085   -1.7967 C   0  0  0  0  0  0  0  0  0  0  0  0
   -2.5732    0.0886   -1.5430 C   0  0  0  0  0  0  0  0  0  0  0  0
   -3.3540    0.0160   -2.7563 O   0  0  0  0  0  0  0  0  0  0  0  0
   -4.3725    1.0091   -2.6235 C   0  0  0  0  0  0  0  0  0  0  0  0
   -4.7750    0.9146   -1.1705 C   0  0  0  0  0  0  0  0  0  0  0  0
   -3.5297    0.5132   -0.4884 N   0  0  0  0  0  0  0  0  0  0  0  0
   -2.9950    1.4439    0.7969 S   0  0  0  0  0  6  0  0  0  0  0  0
   -1.8125    0.8298    1.3583 O   0  0  0  0  0  0  0  0  0  0  0  0
   -2.9855    2.8226    0.3542 O   0  0  0  0  0  0  0  0  0  0  0  0
   -4.3015    1.2462    1.9838 C   0  0  0  0  0  0  0  0  0  0  0  0
   -5.0900    2.3395    2.3517 C   0  0  0  0  0  0  0  0  0  0  0  0
   -6.1083    2.1652    3.2913 C   0  0  0  0  0  0  0  0  0  0  0  0
   -6.3254    0.9066    3.8546 C   0  0  0  0  0  0  0  0  0  0  0  0
   -7.7059    0.6750    5.1265 Br  0  0  0  0  0  0  0  0  0  0  0  0
   -5.5344   -0.1835    3.4893 C   0  0  0  0  0  0  0  0  0  0  0  0
   -4.5139   -0.0153    2.5518 C   0  0  0  0  0  0  0  0  0  0  0  0
    5.2376   -0.2735    0.3130 C   0  0  0  0  0  0  0  0  0  0  0  0
    6.4321    0.1304   -0.2876 C   0  0  0  0  0  0  0  0  0  0  0  0
    9.0753   -1.1693   -1.9911 H   0  0  0  0  0  0  0  0  0  0  0  0
    8.2080    0.2385   -2.6423 H   0  0  0  0  0  0  0  0  0  0  0  0
    9.0235    0.3269   -1.0590 H   0  0  0  0  0  0  0  0  0  0  0  0
    7.2450   -2.7722   -1.8630 H   0  0  0  0  0  0  0  0  0  0  0  0
    5.1459   -3.4855   -0.8042 H   0  0  0  0  0  0  0  0  0  0  0  0
    3.3428   -1.5222    1.7587 H   0  0  0  0  0  0  0  0  0  0  0  0
    3.4566   -3.0856    0.9485 H   0  0  0  0  0  0  0  0  0  0  0  0
    2.2392   -2.1897   -0.9538 H   0  0  0  0  0  0  0  0  0  0  0  0
   -0.2146    1.1795    0.0227 H   0  0  0  0  0  0  0  0  0  0  0  0
   -1.6148    2.0675   -1.7262 H   0  0  0  0  0  0  0  0  0  0  0  0
   -0.9976    0.8482   -2.8232 H   0  0  0  0  0  0  0  0  0  0  0  0
   -2.2409   -0.9313   -1.3205 H   0  0  0  0  0  0  0  0  0  0  0  0
   -5.1986    0.7984   -3.3075 H   0  0  0  0  0  0  0  0  0  0  0  0
   -3.9480    1.9896   -2.8675 H   0  0  0  0  0  0  0  0  0  0  0  0
   -5.5066    0.1137   -1.0221 H   0  0  0  0  0  0  0  0  0  0  0  0
   -5.2113    1.8513   -0.8136 H   0  0  0  0  0  0  0  0  0  0  0  0
   -4.9177    3.3228    1.9211 H   0  0  0  0  0  0  0  0  0  0  0  0
   -6.7206    3.0152    3.5831 H   0  0  0  0  0  0  0  0  0  0  0  0
   -5.7016   -1.1623    3.9317 H   0  0  0  0  0  0  0  0  0  0  0  0
   -3.8882   -0.8613    2.2712 H   0  0  0  0  0  0  0  0  0  0  0  0
    4.6701    0.4419    0.9069 H   0  0  0  0  0  0  0  0  0  0  0  0
    6.7761    1.1527   -0.1482 H   0  0  0  0  0  0  0  0  0  0  0  0
  1  2  1  0
  2  3  2  0
  3  4  1  0
  4  5  2  0
  5  6  1  0
  6  7  1  0
  7  8  1  0
  8  9  2  0
  8 10  1  0
 10 11  2  0
 10 12  1  0
 12 13  1  0
 13 14  1  0
 14 15  1  0
 15 16  1  0
 16 17  1  0
 17 18  1  0
 18 19  1  0
 19 20  2  0
 19 21  2  0
 19 22  1  0
 22 23  2  0
 23 24  1  0
 24 25  2  0
 25 26  1  0
 25 27  1  0
 27 28  2  0
  5 29  1  0
 29 30  2  0
 30  2  1  0
 18 14  1  0
 28 22  1  0
  1 31  1  0
  1 32  1  0
  1 33  1  0
  3 34  1  0
  4 35  1  0
  6 36  1  0
  6 37  1  0
  7 38  1  0
 12 39  1  0
 13 40  1  0
 13 41  1  0
 14 42  1  0
 16 43  1  0
 16 44  1  0
 17 45  1  0
 17 46  1  0
 23 47  1  0
 24 48  1  0
 27 49  1  0
 28 50  1  0
 29 51  1  0
 30 52  1  0
M  END
$$$$
