
     RDKit          3D

 44 46  0  0  0  0  0  0  0  0999 V2000
   -4.9881    0.3664    2.4402 C   0  0  0  0  0  0  0  0  0  0  0  0
   -4.4149    0.0414    1.0918 C   0  0  0  0  0  0  0  0  0  0  0  0
   -3.7274   -1.1639    0.8898 C   0  0  0  0  0  0  0  0  0  0  0  0
   -3.1631   -1.4574   -0.3526 C   0  0  0  0  0  0  0  0  0  0  0  0
   -3.2649   -0.5293   -1.3906 C   0  0  0  0  0  0  0  0  0  0  0  0
   -2.5505   -0.8960   -2.9779 S   0  0  0  0  0  6  0  0  0  0  0  0
   -2.3264   -2.3241   -3.0582 O   0  0  0  0  0  0  0  0  0  0  0  0
   -3.3374   -0.2068   -3.9809 O   0  0  0  0  0  0  0  0  0  0  0  0
   -1.0616   -0.0940   -2.9250 N   0  0  0  0  0  0  0  0  0  0  0  0
   -0.1802   -0.3233   -1.8305 C   0  0  0  0  0  0  0  0  0  0  0  0
    0.3428   -1.5912   -1.5791 C   0  0  0  0  0  0  0  0  0  0  0  0
    1.1762   -1.8115   -0.4737 C   0  0  0  0  0  0  0  0  0  0  0  0
    1.6890   -3.1947   -0.1875 C   0  0  0  0  0  0  0  0  0  0  0  0
    1.4762   -0.7355    0.3749 C   0  0  0  0  0  0  0  0  0  0  0  0
    2.2786   -0.9999    1.4539 O   0  0  0  0  0  0  0  0  0  0  0  0
    0.9635    0.5489    0.1262 C   0  0  0  0  0  0  0  0  0  0  0  0
    1.2335    1.9566    1.1965 S   0  0  0  0  0  0  0  0  0  0  0  0
    2.9473    2.1960    1.0330 C   0  0  0  0  0  0  0  0  0  0  0  0
    3.4779    3.2794    0.4644 N   0  0  0  0  0  0  0  0  0  0  0  0
    4.7913    3.0270    0.5839 N   0  0  0  0  0  0  0  0  0  0  0  0
    5.0141    1.8231    1.1944 C   0  0  0  0  0  0  0  0  0  0  0  0
    6.3671    1.2862    1.4480 C   0  0  0  0  0  0  0  0  0  0  0  0
    3.8545    1.2759    1.4945 N   0  0  0  0  0  0  0  0  0  0  0  0
    0.1302    0.7418   -0.9846 C   0  0  0  0  0  0  0  0  0  0  0  0
   -3.9508    0.6747   -1.2069 C   0  0  0  0  0  0  0  0  0  0  0  0
   -4.5163    0.9599    0.0374 C   0  0  0  0  0  0  0  0  0  0  0  0
   -4.2208    0.8283    3.0694 H   0  0  0  0  0  0  0  0  0  0  0  0
   -5.3569   -0.5401    2.9317 H   0  0  0  0  0  0  0  0  0  0  0  0
   -5.8347    1.0570    2.3510 H   0  0  0  0  0  0  0  0  0  0  0  0
   -3.6301   -1.8836    1.7006 H   0  0  0  0  0  0  0  0  0  0  0  0
   -2.6405   -2.4009   -0.4969 H   0  0  0  0  0  0  0  0  0  0  0  0
   -1.1328    0.8537   -3.2916 H   0  0  0  0  0  0  0  0  0  0  0  0
    0.1043   -2.4177   -2.2457 H   0  0  0  0  0  0  0  0  0  0  0  0
    1.1083   -3.6436    0.6234 H   0  0  0  0  0  0  0  0  0  0  0  0
    2.7452   -3.1710    0.0940 H   0  0  0  0  0  0  0  0  0  0  0  0
    1.6037   -3.8392   -1.0688 H   0  0  0  0  0  0  0  0  0  0  0  0
    2.7584   -0.1759    1.6821 H   0  0  0  0  0  0  0  0  0  0  0  0
    5.4628    3.7054    0.2406 H   0  0  0  0  0  0  0  0  0  0  0  0
    7.0261    2.0613    1.8520 H   0  0  0  0  0  0  0  0  0  0  0  0
    6.8064    0.9026    0.5208 H   0  0  0  0  0  0  0  0  0  0  0  0
    6.3253    0.4645    2.1721 H   0  0  0  0  0  0  0  0  0  0  0  0
   -0.2927    1.7254   -1.1757 H   0  0  0  0  0  0  0  0  0  0  0  0
   -4.0512    1.3909   -2.0206 H   0  0  0  0  0  0  0  0  0  0  0  0
   -5.0417    1.9030    0.1795 H   0  0  0  0  0  0  0  0  0  0  0  0
  1  2  1  0
  2  3  2  0
  3  4  1  0
  4  5  2  0
  5  6  1  0
  6  7  2  0
  6  8  2  0
  6  9  1  0
  9 10  1  0
 10 11  2  0
 11 12  1  0
 12 13  1  0
 12 14  2  0
 14 15  1  0
 14 16  1  0
 16 17  1  0
 17 18  1  0
 18 19  2  0
 19 20  1  0
 20 21  1  0
 21 22  1  0
 21 23  2  0
 16 24  2  0
  5 25  1  0
 25 26  2  0
 26  2  1  0
 24 10  1  0
 23 18  1  0
  1 27  1  0
  1 28  1  0
  1 29  1  0
  3 30  1  0
  4 31  1  0
  9 32  1  0
 11 33  1  0
 13 34  1  0
 13 35  1  0
 13 36  1  0
 15 37  1  0
 20 38  1  0
 22 39  1  0
 22 40  1  0
 22 41  1  0
 24 42  1  0
 25 43  1  0
 26 44  1  0
M  END
$$$$
