
     RDKit          3D

 39 41  0  0  0  0  0  0  0  0999 V2000
    5.4149   -0.8672   -1.4758 C   0  0  0  0  0  0  0  0  0  0  0  0
    4.8892   -0.2810   -0.1775 C   0  0  0  0  0  0  0  0  0  0  0  0
    4.1539    0.9557   -0.3893 N   0  0  0  0  0  0  0  0  0  0  0  0
    4.8492    2.1172   -0.3672 N   0  0  0  0  0  0  0  0  0  0  0  0
    3.9215    3.0486   -0.5822 C   0  0  0  0  0  0  0  0  0  0  0  0
    2.6464    2.4884   -0.7140 C   0  0  0  0  0  0  0  0  0  0  0  0
    1.1197    3.5085   -1.0822 Br  0  0  0  0  0  0  0  0  0  0  0  0
    2.7935    1.1229   -0.5650 C   0  0  0  0  0  0  0  0  0  0  0  0
    1.8367    0.0330   -0.6115 C   0  0  0  0  0  0  0  0  0  0  0  0
    2.1790   -1.0864   -0.9731 O   0  0  0  0  0  0  0  0  0  0  0  0
    0.5743    0.3832   -0.1713 N   0  0  0  0  0  0  0  0  0  0  0  0
   -0.5630   -0.4133   -0.1184 C   0  0  0  0  0  0  0  0  0  0  0  0
   -0.5764   -1.9933   -0.7883 S   0  0  0  0  0  0  0  0  0  0  0  0
   -2.1726   -2.1986   -0.3627 C   0  0  0  0  0  0  0  0  0  0  0  0
   -2.7231   -1.1202    0.2690 C   0  0  0  0  0  0  0  0  0  0  0  0
   -1.7960   -0.0512    0.4351 C   0  0  0  0  0  0  0  0  0  0  0  0
   -2.0324    1.2370    1.0806 C   0  0  0  0  0  0  0  0  0  0  0  0
   -1.1621    2.0951    1.1926 O   0  0  0  0  0  0  0  0  0  0  0  0
   -3.3082    1.3765    1.5430 O   0  0  0  0  0  0  0  0  0  0  0  0
   -3.5654    2.6279    2.1797 C   0  0  0  0  0  0  0  0  0  0  0  0
   -4.1451   -1.3829    0.6157 C   0  0  0  0  0  0  0  0  0  0  0  0
   -4.4629   -2.6654   -0.2157 C   0  0  0  0  0  0  0  0  0  0  0  0
   -3.0974   -3.3403   -0.5443 C   0  0  0  0  0  0  0  0  0  0  0  0
    6.0974   -0.1699   -1.9736 H   0  0  0  0  0  0  0  0  0  0  0  0
    4.6023   -1.0895   -2.1744 H   0  0  0  0  0  0  0  0  0  0  0  0
    5.9605   -1.7952   -1.2794 H   0  0  0  0  0  0  0  0  0  0  0  0
    5.7235   -0.0527    0.4964 H   0  0  0  0  0  0  0  0  0  0  0  0
    4.2434   -0.9877    0.3512 H   0  0  0  0  0  0  0  0  0  0  0  0
    4.2223    4.0869   -0.6376 H   0  0  0  0  0  0  0  0  0  0  0  0
    0.4547    1.3216    0.2059 H   0  0  0  0  0  0  0  0  0  0  0  0
   -4.6089    2.6334    2.5063 H   0  0  0  0  0  0  0  0  0  0  0  0
   -3.4187    3.4537    1.4765 H   0  0  0  0  0  0  0  0  0  0  0  0
   -2.9266    2.7487    3.0602 H   0  0  0  0  0  0  0  0  0  0  0  0
   -4.8115   -0.5630    0.3345 H   0  0  0  0  0  0  0  0  0  0  0  0
   -4.2465   -1.5858    1.6869 H   0  0  0  0  0  0  0  0  0  0  0  0
   -4.9492   -2.3690   -1.1547 H   0  0  0  0  0  0  0  0  0  0  0  0
   -5.1462   -3.3412    0.3080 H   0  0  0  0  0  0  0  0  0  0  0  0
   -2.8795   -4.1364    0.1750 H   0  0  0  0  0  0  0  0  0  0  0  0
   -3.0906   -3.7482   -1.5586 H   0  0  0  0  0  0  0  0  0  0  0  0
  1  2  1  0
  2  3  1  0
  3  4  1  0
  4  5  2  0
  5  6  1  0
  6  7  1  0
  6  8  2  0
  8  9  1  0
  9 10  2  0
  9 11  1  0
 11 12  1  0
 12 13  1  0
 13 14  1  0
 14 15  2  0
 15 16  1  0
 16 17  1  0
 17 18  2  0
 17 19  1  0
 19 20  1  0
 15 21  1  0
 21 22  1  0
 22 23  1  0
  8  3  1  0
 16 12  2  0
 23 14  1  0
  1 24  1  0
  1 25  1  0
  1 26  1  0
  2 27  1  0
  2 28  1  0
  5 29  1  0
 11 30  1  0
 20 31  1  0
 20 32  1  0
 20 33  1  0
 21 34  1  0
 21 35  1  0
 22 36  1  0
 22 37  1  0
 23 38  1  0
 23 39  1  0
M  END
$$$$
