
     RDKit          3D

 46 49  0  0  0  0  0  0  0  0999 V2000
   -2.0673   -3.7773   -2.2931 C   0  0  0  0  0  0  0  0  0  0  0  0
   -1.7110   -2.4178   -2.0751 O   0  0  0  0  0  0  0  0  0  0  0  0
   -1.8379   -1.9472   -0.7967 C   0  0  0  0  0  0  0  0  0  0  0  0
   -2.3965   -2.6340    0.2810 C   0  0  0  0  0  0  0  0  0  0  0  0
   -2.4566   -2.0325    1.5418 C   0  0  0  0  0  0  0  0  0  0  0  0
   -1.9604   -0.7425    1.7325 C   0  0  0  0  0  0  0  0  0  0  0  0
   -1.4103   -0.0420    0.6565 C   0  0  0  0  0  0  0  0  0  0  0  0
   -0.8495    1.2900    0.8397 C   0  0  0  0  0  0  0  0  0  0  0  0
    0.4787    1.6712    0.9659 C   0  0  0  0  0  0  0  0  0  0  0  0
    1.6556    0.8129    1.0224 C   0  0  0  0  0  0  0  0  0  0  0  0
    1.5988   -0.3703    1.3424 O   0  0  0  0  0  0  0  0  0  0  0  0
    2.8253    1.4898    0.6705 N   0  0  0  0  0  0  0  0  0  0  0  0
    4.0654    0.9202    0.8218 N   0  0  0  0  0  0  0  0  0  0  0  0
    4.3534   -0.1910    0.1963 C   0  0  0  0  0  0  0  0  0  0  0  0
    5.6642   -0.8505    0.5777 C   0  0  0  0  0  0  0  0  0  0  0  0
    3.5617   -0.8153   -0.8593 C   0  0  0  0  0  0  0  0  0  0  0  0
    2.8653   -0.2117   -1.8956 C   0  0  0  0  0  0  0  0  0  0  0  0
    2.1683   -1.1537   -2.7105 C   0  0  0  0  0  0  0  0  0  0  0  0
    2.3818   -2.4336   -2.2725 C   0  0  0  0  0  0  0  0  0  0  0  0
    1.7440   -3.8718   -2.9605 Cl  0  0  0  0  0  0  0  0  0  0  0  0
    3.3994   -2.5258   -0.9271 S   0  0  0  0  0  0  0  0  0  0  0  0
    0.5620    3.0369    0.9986 N   0  0  0  0  0  0  0  0  0  0  0  0
   -0.6634    3.5261    0.9313 N   0  0  0  0  0  0  0  0  0  0  0  0
   -1.5568    2.4936    0.8318 N   0  0  0  0  0  0  0  0  0  0  0  0
   -2.9496    2.7305    0.7120 C   0  0  0  0  0  0  0  0  0  0  0  0
   -3.8132    1.7270    0.5559 N   0  0  0  0  0  0  0  0  0  0  0  0
   -5.0529    2.3552    0.4600 O   0  0  0  0  0  0  0  0  0  0  0  0
   -4.9273    3.7369    0.5592 N   0  0  0  0  0  0  0  0  0  0  0  0
   -3.6250    3.9655    0.7226 C   0  0  0  0  0  0  0  0  0  0  0  0
   -3.0836    5.1892    0.8724 N   0  0  0  0  0  0  0  0  0  0  0  0
   -1.3512   -0.6519   -0.6035 C   0  0  0  0  0  0  0  0  0  0  0  0
   -1.8517   -4.0155   -3.3391 H   0  0  0  0  0  0  0  0  0  0  0  0
   -1.4702   -4.4499   -1.6682 H   0  0  0  0  0  0  0  0  0  0  0  0
   -3.1388   -3.9329   -2.1305 H   0  0  0  0  0  0  0  0  0  0  0  0
   -2.7917   -3.6388    0.1762 H   0  0  0  0  0  0  0  0  0  0  0  0
   -2.8854   -2.5759    2.3802 H   0  0  0  0  0  0  0  0  0  0  0  0
   -2.0010   -0.2987    2.7240 H   0  0  0  0  0  0  0  0  0  0  0  0
    2.7998    2.4959    0.8246 H   0  0  0  0  0  0  0  0  0  0  0  0
    6.3008   -0.1443    1.1196 H   0  0  0  0  0  0  0  0  0  0  0  0
    6.1991   -1.1840   -0.3162 H   0  0  0  0  0  0  0  0  0  0  0  0
    5.4680   -1.7076    1.2283 H   0  0  0  0  0  0  0  0  0  0  0  0
    2.8491    0.8597   -2.0559 H   0  0  0  0  0  0  0  0  0  0  0  0
    1.5497   -0.9018   -3.5625 H   0  0  0  0  0  0  0  0  0  0  0  0
   -2.0783    5.3381    0.8065 H   0  0  0  0  0  0  0  0  0  0  0  0
   -3.6479    6.0075    0.6686 H   0  0  0  0  0  0  0  0  0  0  0  0
   -0.9130   -0.1278   -1.4492 H   0  0  0  0  0  0  0  0  0  0  0  0
  1  2  1  0
  2  3  1  0
  3  4  2  0
  4  5  1  0
  5  6  2  0
  6  7  1  0
  7  8  1  0
  8  9  2  0
  9 10  1  0
 10 11  2  0
 10 12  1  0
 12 13  1  0
 13 14  2  3
 14 15  1  0
 14 16  1  0
 16 17  2  0
 17 18  1  0
 18 19  2  0
 19 20  1  0
 19 21  1  0
  9 22  1  0
 22 23  2  0
 23 24  1  0
 24 25  1  0
 25 26  2  0
 26 27  1  0
 27 28  1  0
 28 29  2  0
 29 30  1  0
  7 31  2  0
 31  3  1  0
 24  8  1  0
 29 25  1  0
 21 16  1  0
  1 32  1  0
  1 33  1  0
  1 34  1  0
  4 35  1  0
  5 36  1  0
  6 37  1  0
 12 38  1  0
 15 39  1  0
 15 40  1  0
 15 41  1  0
 17 42  1  0
 18 43  1  0
 30 44  1  0
 30 45  1  0
 31 46  1  0
M  END
$$$$
