
     RDKit          3D

 33 33  0  0  0  0  0  0  0  0999 V2000
   -3.9606    3.3478   -0.9193 C   0  0  0  0  0  0  0  0  0  0  0  0
   -3.6805    2.5399    0.3233 C   0  0  0  0  0  0  0  0  0  0  0  0
   -4.4028    2.6389    1.3093 O   0  0  0  0  0  0  0  0  0  0  0  0
   -2.5915    1.7080    0.1734 N   0  0  0  0  0  0  0  0  0  0  0  0
   -2.0211    0.8304    1.1227 C   0  0  0  0  0  0  0  0  0  0  0  0
   -2.4853    0.7055    2.4336 C   0  0  0  0  0  0  0  0  0  0  0  0
   -1.8566   -0.1692    3.3218 C   0  0  0  0  0  0  0  0  0  0  0  0
   -0.7585   -0.9180    2.9072 C   0  0  0  0  0  0  0  0  0  0  0  0
   -0.2867   -0.8056    1.5978 C   0  0  0  0  0  0  0  0  0  0  0  0
   -0.9195    0.0552    0.6959 C   0  0  0  0  0  0  0  0  0  0  0  0
   -0.5467    0.2354   -0.6166 O   0  0  0  0  0  0  0  0  0  0  0  0
    0.3400   -0.7105   -1.1921 C   0  0  0  0  0  0  0  0  0  0  0  0
    1.8330   -0.4299   -0.9745 C   0  0  0  0  0  0  0  0  0  0  0  0
    2.2715    0.6042   -0.4815 O   0  0  0  0  0  0  0  0  0  0  0  0
    2.6608   -1.4529   -1.3980 N   0  0  0  0  0  0  0  0  0  0  0  0
    4.1084   -1.3751   -1.1700 C   0  0  0  0  0  0  0  0  0  0  0  0
    4.9315   -2.3943   -1.9526 C   0  0  0  0  0  0  0  0  0  0  0  0
    4.4990   -3.6517   -1.6917 F   0  0  0  0  0  0  0  0  0  0  0  0
    4.8260   -2.1968   -3.2846 F   0  0  0  0  0  0  0  0  0  0  0  0
    6.2387   -2.3308   -1.6228 F   0  0  0  0  0  0  0  0  0  0  0  0
   -3.0363    3.5839   -1.4549 H   0  0  0  0  0  0  0  0  0  0  0  0
   -4.6285    2.7820   -1.5742 H   0  0  0  0  0  0  0  0  0  0  0  0
   -4.4376    4.2913   -0.6374 H   0  0  0  0  0  0  0  0  0  0  0  0
   -2.1071    1.7066   -0.7187 H   0  0  0  0  0  0  0  0  0  0  0  0
   -3.3295    1.2829    2.7971 H   0  0  0  0  0  0  0  0  0  0  0  0
   -2.2222   -0.2541    4.3423 H   0  0  0  0  0  0  0  0  0  0  0  0
   -0.2633   -1.5847    3.6091 H   0  0  0  0  0  0  0  0  0  0  0  0
    0.5852   -1.3894    1.3266 H   0  0  0  0  0  0  0  0  0  0  0  0
    0.0907   -1.7358   -0.8910 H   0  0  0  0  0  0  0  0  0  0  0  0
    0.1775   -0.6630   -2.2757 H   0  0  0  0  0  0  0  0  0  0  0  0
    2.2589   -2.3646   -1.5924 H   0  0  0  0  0  0  0  0  0  0  0  0
    4.4462   -0.3620   -1.4159 H   0  0  0  0  0  0  0  0  0  0  0  0
    4.2669   -1.5235   -0.0963 H   0  0  0  0  0  0  0  0  0  0  0  0
  1  2  1  0
  2  3  2  0
  2  4  1  0
  4  5  1  0
  5  6  2  0
  6  7  1  0
  7  8  2  0
  8  9  1  0
  9 10  2  0
 10 11  1  0
 11 12  1  0
 12 13  1  0
 13 14  2  0
 13 15  1  0
 15 16  1  0
 16 17  1  0
 17 18  1  0
 17 19  1  0
 17 20  1  0
 10  5  1  0
  1 21  1  0
  1 22  1  0
  1 23  1  0
  4 24  1  0
  6 25  1  0
  7 26  1  0
  8 27  1  0
  9 28  1  0
 12 29  1  0
 12 30  1  0
 15 31  1  0
 16 32  1  0
 16 33  1  0
M  END
$$$$
