
     RDKit          3D

 32 32  0  0  0  0  0  0  0  0999 V2000
    2.4819    0.1227   -1.9226 C   0  0  0  0  0  0  0  0  0  0  0  0
    1.5417    0.8581   -2.0589 C   0  0  0  0  0  0  0  0  0  0  0  0
    0.3859    1.7560   -2.2196 C   0  0  0  0  0  0  0  0  0  0  0  0
   -0.8380    1.0402   -2.6055 N   0  0  0  0  0  0  0  0  0  0  0  0
   -1.9082    1.9847   -2.9159 C   0  0  0  0  0  0  0  0  0  0  0  0
   -1.2682    0.0049   -1.6491 C   0  0  0  0  0  0  0  0  0  0  0  0
   -1.5928    0.4808   -0.2244 C   0  0  0  0  0  0  0  0  0  0  0  0
   -2.0058   -0.6822    0.6828 C   0  0  0  0  0  0  0  0  0  0  0  0
   -1.0187   -1.7113    0.7493 O   0  0  0  0  0  0  0  0  0  0  0  0
    0.1516   -1.4783    1.4219 C   0  0  0  0  0  0  0  0  0  0  0  0
    0.3131   -0.5031    2.4106 C   0  0  0  0  0  0  0  0  0  0  0  0
    1.5490   -0.3455    3.0435 C   0  0  0  0  0  0  0  0  0  0  0  0
    1.7363    0.8664    4.2520 Cl  0  0  0  0  0  0  0  0  0  0  0  0
    2.6309   -1.1572    2.7116 C   0  0  0  0  0  0  0  0  0  0  0  0
    2.4762   -2.1422    1.7378 C   0  0  0  0  0  0  0  0  0  0  0  0
    1.2429   -2.3040    1.0992 C   0  0  0  0  0  0  0  0  0  0  0  0
    1.1144   -3.5373   -0.1062 Cl  0  0  0  0  0  0  0  0  0  0  0  0
    3.3057   -0.5429   -1.8087 H   0  0  0  0  0  0  0  0  0  0  0  0
    0.6408    2.4755   -3.0086 H   0  0  0  0  0  0  0  0  0  0  0  0
    0.2367    2.3428   -1.3056 H   0  0  0  0  0  0  0  0  0  0  0  0
   -2.1650    2.6242   -2.0647 H   0  0  0  0  0  0  0  0  0  0  0  0
   -2.8127    1.4570   -3.2383 H   0  0  0  0  0  0  0  0  0  0  0  0
   -1.6156    2.6333   -3.7495 H   0  0  0  0  0  0  0  0  0  0  0  0
   -0.5027   -0.7787   -1.6129 H   0  0  0  0  0  0  0  0  0  0  0  0
   -2.1522   -0.4993   -2.0622 H   0  0  0  0  0  0  0  0  0  0  0  0
   -0.7206    0.9814    0.2065 H   0  0  0  0  0  0  0  0  0  0  0  0
   -2.4101    1.2099   -0.2429 H   0  0  0  0  0  0  0  0  0  0  0  0
   -2.9062   -1.1485    0.2652 H   0  0  0  0  0  0  0  0  0  0  0  0
   -2.2931   -0.3371    1.6818 H   0  0  0  0  0  0  0  0  0  0  0  0
   -0.5045    0.1412    2.7128 H   0  0  0  0  0  0  0  0  0  0  0  0
    3.5901   -1.0313    3.2069 H   0  0  0  0  0  0  0  0  0  0  0  0
    3.3172   -2.7805    1.4786 H   0  0  0  0  0  0  0  0  0  0  0  0
  1  2  3  0
  2  3  1  0
  3  4  1  0
  4  5  1  0
  4  6  1  0
  6  7  1  0
  7  8  1  0
  8  9  1  0
  9 10  1  0
 10 11  2  0
 11 12  1  0
 12 13  1  0
 12 14  2  0
 14 15  1  0
 15 16  2  0
 16 17  1  0
 16 10  1  0
  1 18  1  0
  3 19  1  0
  3 20  1  0
  5 21  1  0
  5 22  1  0
  5 23  1  0
  6 24  1  0
  6 25  1  0
  7 26  1  0
  7 27  1  0
  8 28  1  0
  8 29  1  0
 11 30  1  0
 14 31  1  0
 15 32  1  0
M  END
$$$$
