
     RDKit          3D

 87 91  0  0  0  0  0  0  0  0999 V2000
    2.8381    6.7943    1.3954 C   0  0  0  0  0  0  0  0  0  0  0  0
    1.7171    6.2970    0.4985 C   0  0  0  0  0  0  0  0  0  0  0  0
    2.0511    4.9670   -0.1297 C   0  0  0  0  0  0  0  0  0  0  0  0
    2.9642    4.2324    0.2173 O   0  0  0  0  0  0  0  0  0  0  0  0
    1.1505    4.6938   -1.1121 O   0  0  0  0  0  0  0  0  0  0  0  0
    1.3329    3.4496   -1.8083 C   0  0  0  0  0  0  0  0  0  0  0  0
   -0.0398    2.8747   -2.1431 C   0  0  1  0  0  0  0  0  0  0  0  0
    0.0531    1.5880   -3.0078 C   0  0  0  0  0  0  0  0  0  0  0  0
   -0.5938    0.4570   -2.1806 C   0  0  2  0  0  0  0  0  0  0  0  0
    0.3556   -0.0426   -1.2230 O   0  0  0  0  0  0  0  0  0  0  0  0
    1.4497   -0.7140   -1.6599 C   0  0  0  0  0  0  0  0  0  0  0  0
    1.7698   -0.9290   -2.8139 O   0  0  0  0  0  0  0  0  0  0  0  0
    2.1532   -1.2114   -0.4665 C   0  0  0  0  0  0  0  0  0  0  0  0
    2.9556   -2.2819   -0.5386 C   0  0  0  0  0  0  0  0  0  0  0  0
    3.5899   -2.8453    0.6581 C   0  0  0  0  0  0  0  0  0  0  0  0
    2.8564   -3.0912    1.8269 C   0  0  0  0  0  0  0  0  0  0  0  0
    3.4765   -3.6386    2.9500 C   0  0  0  0  0  0  0  0  0  0  0  0
    4.8320   -3.9588    2.9126 C   0  0  0  0  0  0  0  0  0  0  0  0
    5.5672   -3.7300    1.7480 C   0  0  0  0  0  0  0  0  0  0  0  0
    4.9475   -3.1810    0.6234 C   0  0  0  0  0  0  0  0  0  0  0  0
   -1.3209   -0.6023   -3.0559 C   0  0  0  0  0  0  0  0  0  0  0  0
   -2.1004   -0.2517   -3.9484 O   0  0  0  0  0  0  0  0  0  0  0  0
   -1.0872   -2.0882   -2.8881 C   0  0  0  0  0  0  0  0  0  0  0  0
   -0.7700   -2.7219   -4.2245 C   0  0  0  0  0  0  0  0  0  0  0  0
   -1.1560   -2.8630   -1.7835 C   0  0  0  0  0  0  0  0  0  0  0  0
   -1.4365   -2.6051   -0.3563 C   0  0  0  0  0  0  0  0  0  0  0  0
   -2.8303   -2.6788    0.2537 C   0  0  2  0  0  0  0  0  0  0  0  0
   -3.2788   -1.7771    1.3914 C   0  0  0  0  0  0  0  0  0  0  0  0
   -4.3066   -0.6848    1.0200 C   0  0  0  0  0  0  0  0  0  0  0  0
   -3.8426    0.3588    0.0237 C   0  0  2  0  0  0  0  0  0  0  0  0
   -4.7997    1.4593   -0.3209 C   0  0  0  0  0  0  0  0  0  0  0  0
   -3.3375   -0.3157   -1.1148 O   0  0  0  0  0  0  0  0  0  0  0  0
   -2.3715    0.4761   -0.4032 C   0  0  1  0  0  0  0  0  0  0  0  0
   -1.6837    1.2993   -1.4325 C   0  0  1  0  0  0  0  0  0  0  0  0
   -0.9175    2.5179   -0.9183 C   0  0  1  0  0  0  0  0  0  0  0  0
   -0.1060    2.1382    0.2088 O   0  0  0  0  0  0  0  0  0  0  0  0
   -0.1356    2.9192    1.3254 C   0  0  0  0  0  0  0  0  0  0  0  0
   -0.7918    3.9340    1.4696 O   0  0  0  0  0  0  0  0  0  0  0  0
    0.7709    2.3128    2.3678 C   0  0  0  0  0  0  0  0  0  0  0  0
    1.0284    3.2434    3.5385 C   0  0  0  0  0  0  0  0  0  0  0  0
   -1.8358   -3.7895    0.5354 C   0  0  0  0  0  0  0  0  0  0  0  0
   -2.1650   -5.1434   -0.0409 C   0  0  0  0  0  0  0  0  0  0  0  0
   -1.1597   -3.8858    1.8826 C   0  0  0  0  0  0  0  0  0  0  0  0
    3.0287    6.0893    2.2106 H   0  0  0  0  0  0  0  0  0  0  0  0
    2.5759    7.7647    1.8305 H   0  0  0  0  0  0  0  0  0  0  0  0
    3.7706    6.9036    0.8319 H   0  0  0  0  0  0  0  0  0  0  0  0
    0.7988    6.1872    1.0833 H   0  0  0  0  0  0  0  0  0  0  0  0
    1.5488    7.0257   -0.3015 H   0  0  0  0  0  0  0  0  0  0  0  0
    1.8785    3.6760   -2.7309 H   0  0  0  0  0  0  0  0  0  0  0  0
    1.9265    2.7365   -1.2337 H   0  0  0  0  0  0  0  0  0  0  0  0
   -0.5906    3.6258   -2.7268 H   0  0  0  0  0  0  0  0  0  0  0  0
   -0.5148    1.7552   -3.9317 H   0  0  0  0  0  0  0  0  0  0  0  0
    1.0871    1.3801   -3.2941 H   0  0  0  0  0  0  0  0  0  0  0  0
    1.9538   -0.7003    0.4646 H   0  0  0  0  0  0  0  0  0  0  0  0
    3.1470   -2.7796   -1.4827 H   0  0  0  0  0  0  0  0  0  0  0  0
    1.7924   -2.8643    1.8662 H   0  0  0  0  0  0  0  0  0  0  0  0
    2.9036   -3.8191    3.8558 H   0  0  0  0  0  0  0  0  0  0  0  0
    5.3105   -4.3914    3.7851 H   0  0  0  0  0  0  0  0  0  0  0  0
    6.6205   -3.9803    1.7135 H   0  0  0  0  0  0  0  0  0  0  0  0
    5.5351   -3.0062   -0.2738 H   0  0  0  0  0  0  0  0  0  0  0  0
   -1.6299   -2.6416   -4.9050 H   0  0  0  0  0  0  0  0  0  0  0  0
   -0.5190   -3.7827   -4.1383 H   0  0  0  0  0  0  0  0  0  0  0  0
    0.0876   -2.2272   -4.6912 H   0  0  0  0  0  0  0  0  0  0  0  0
   -0.9155   -3.9098   -1.9712 H   0  0  0  0  0  0  0  0  0  0  0  0
   -0.7188   -1.9267    0.0930 H   0  0  0  0  0  0  0  0  0  0  0  0
   -3.6531   -2.9128   -0.4079 H   0  0  0  0  0  0  0  0  0  0  0  0
   -2.4144   -1.3089    1.8789 H   0  0  0  0  0  0  0  0  0  0  0  0
   -3.7458   -2.4258    2.1459 H   0  0  0  0  0  0  0  0  0  0  0  0
   -5.2038   -1.1617    0.6181 H   0  0  0  0  0  0  0  0  0  0  0  0
   -4.6044   -0.1746    1.9416 H   0  0  0  0  0  0  0  0  0  0  0  0
   -5.4173    1.1833   -1.1870 H   0  0  0  0  0  0  0  0  0  0  0  0
   -4.2794    2.3957   -0.5533 H   0  0  0  0  0  0  0  0  0  0  0  0
   -5.4783    1.6626    0.5138 H   0  0  0  0  0  0  0  0  0  0  0  0
   -1.6612    0.0241    0.2660 H   0  0  0  0  0  0  0  0  0  0  0  0
   -2.4262    1.6646   -2.1587 H   0  0  0  0  0  0  0  0  0  0  0  0
   -1.6014    3.3364   -0.6604 H   0  0  0  0  0  0  0  0  0  0  0  0
    1.7248    2.0761    1.8937 H   0  0  0  0  0  0  0  0  0  0  0  0
    0.3051    1.3838    2.7195 H   0  0  0  0  0  0  0  0  0  0  0  0
    1.5219    4.1568    3.2077 H   0  0  0  0  0  0  0  0  0  0  0  0
    1.6689    2.7472    4.2695 H   0  0  0  0  0  0  0  0  0  0  0  0
    0.0955    3.5264    4.0309 H   0  0  0  0  0  0  0  0  0  0  0  0
   -1.2488   -5.6672   -0.3295 H   0  0  0  0  0  0  0  0  0  0  0  0
   -2.6832   -5.7529    0.7062 H   0  0  0  0  0  0  0  0  0  0  0  0
   -2.8121   -5.0831   -0.9224 H   0  0  0  0  0  0  0  0  0  0  0  0
   -0.7810   -2.9206    2.2378 H   0  0  0  0  0  0  0  0  0  0  0  0
   -1.8643   -4.2731    2.6296 H   0  0  0  0  0  0  0  0  0  0  0  0
   -0.3111   -4.5729    1.8304 H   0  0  0  0  0  0  0  0  0  0  0  0
  1  2  1  0
  2  3  1  0
  3  4  2  0
  3  5  1  0
  5  6  1  0
  6  7  1  0
  7  8  1  0
  8  9  1  0
  9 10  1  1
 10 11  1  0
 11 12  2  0
 11 13  1  0
 13 14  2  0
 14 15  1  0
 15 16  2  0
 16 17  1  0
 17 18  2  0
 18 19  1  0
 19 20  2  0
  9 21  1  0
 21 22  2  0
 21 23  1  0
 23 24  1  0
 23 25  2  3
 25 26  1  0
 26 27  1  0
 27 28  1  0
 28 29  1  0
 29 30  1  0
 30 31  1  6
 30 32  1  0
 32 33  1  0
 33 34  1  0
 34 35  1  0
 35 36  1  0
 36 37  1  0
 37 38  2  0
 37 39  1  0
 39 40  1  0
 27 41  1  0
 41 42  1  0
 41 43  1  0
 35  7  1  0
 34  9  1  0
 20 15  1  0
 41 26  1  0
 33 30  1  0
  1 44  1  0
  1 45  1  0
  1 46  1  0
  2 47  1  0
  2 48  1  0
  6 49  1  0
  6 50  1  0
  7 51  1  6
  8 52  1  0
  8 53  1  0
 13 54  1  0
 14 55  1  0
 16 56  1  0
 17 57  1  0
 18 58  1  0
 19 59  1  0
 20 60  1  0
 24 61  1  0
 24 62  1  0
 24 63  1  0
 25 64  1  0
 26 65  1  0
 27 66  1  6
 28 67  1  0
 28 68  1  0
 29 69  1  0
 29 70  1  0
 31 71  1  0
 31 72  1  0
 31 73  1  0
 33 74  1  1
 34 75  1  6
 35 76  1  1
 39 77  1  0
 39 78  1  0
 40 79  1  0
 40 80  1  0
 40 81  1  0
 42 82  1  0
 42 83  1  0
 42 84  1  0
 43 85  1  0
 43 86  1  0
 43 87  1  0
M  END
$$$$
