
     RDKit          3D

 33 35  0  0  0  0  0  0  0  0999 V2000
   -1.4573    0.9673    0.9707 O   0  0  0  0  0  0  0  0  0  0  0  0
   -2.2770    0.5069    0.1806 C   0  0  0  0  0  0  0  0  0  0  0  0
   -1.9213   -0.1861   -0.9700 N   0  0  0  0  0  0  0  0  0  0  0  0
   -0.6586   -0.5743   -1.4048 C   0  0  0  0  0  0  0  0  0  0  0  0
   -0.6303   -1.3704   -2.8710 S   0  0  0  0  0  0  0  0  0  0  0  0
    0.3663   -0.2343   -0.5545 N   0  0  0  0  0  0  0  0  0  0  0  0
    1.7631   -0.4527   -0.5578 C   0  0  0  0  0  0  0  0  0  0  0  0
    2.4669   -1.2343   -1.5015 C   0  0  0  0  0  0  0  0  0  0  0  0
    3.8604   -1.4053   -1.4323 C   0  0  0  0  0  0  0  0  0  0  0  0
    4.5133   -0.7815   -0.4011 C   0  0  0  0  0  0  0  0  0  0  0  0
    5.8642   -0.7670   -0.0760 N   0  0  0  0  0  0  0  0  0  0  0  0
    6.0408    0.0135    1.0759 C   0  0  0  0  0  0  0  0  0  0  0  0
    7.0926    0.2456    1.6438 O   0  0  0  0  0  0  0  0  0  0  0  0
    4.7687    0.4742    1.4464 N   0  0  0  0  0  0  0  0  0  0  0  0
    3.8356   -0.0154    0.5384 C   0  0  0  0  0  0  0  0  0  0  0  0
    2.4726    0.1657    0.4905 C   0  0  0  0  0  0  0  0  0  0  0  0
   -3.7243    0.7163    0.4131 C   0  0  0  0  0  0  0  0  0  0  0  0
   -4.1195    1.8074    1.1813 C   0  0  0  0  0  0  0  0  0  0  0  0
   -5.4128    2.1054    1.4608 N   0  0  0  0  0  0  0  0  0  0  0  0
   -6.3518    1.2658    0.9657 C   0  0  0  0  0  0  0  0  0  0  0  0
   -6.0501    0.1443    0.2077 C   0  0  0  0  0  0  0  0  0  0  0  0
   -7.4207   -0.9838   -0.4281 Br  0  0  0  0  0  0  0  0  0  0  0  0
   -4.7154   -0.1411   -0.0733 C   0  0  0  0  0  0  0  0  0  0  0  0
   -2.6437   -0.4347   -1.6320 H   0  0  0  0  0  0  0  0  0  0  0  0
    0.0420    0.3231    0.2389 H   0  0  0  0  0  0  0  0  0  0  0  0
    1.9626   -1.7452   -2.3115 H   0  0  0  0  0  0  0  0  0  0  0  0
    4.3849   -2.0080   -2.1639 H   0  0  0  0  0  0  0  0  0  0  0  0
    6.6160   -1.2271   -0.5621 H   0  0  0  0  0  0  0  0  0  0  0  0
    4.5969    1.0620    2.2453 H   0  0  0  0  0  0  0  0  0  0  0  0
    1.9735    0.7703    1.2395 H   0  0  0  0  0  0  0  0  0  0  0  0
   -3.3924    2.4986    1.6030 H   0  0  0  0  0  0  0  0  0  0  0  0
   -7.3769    1.5304    1.2108 H   0  0  0  0  0  0  0  0  0  0  0  0
   -4.4684   -1.0353   -0.6365 H   0  0  0  0  0  0  0  0  0  0  0  0
  1  2  2  0
  2  3  1  0
  3  4  1  0
  4  5  2  0
  4  6  1  0
  6  7  1  0
  7  8  2  0
  8  9  1  0
  9 10  2  0
 10 11  1  0
 11 12  1  0
 12 13  2  0
 12 14  1  0
 14 15  1  0
 15 16  2  0
  2 17  1  0
 17 18  2  0
 18 19  1  0
 19 20  2  0
 20 21  1  0
 21 22  1  0
 21 23  2  0
 16  7  1  0
 23 17  1  0
 15 10  1  0
  3 24  1  0
  6 25  1  0
  8 26  1  0
  9 27  1  0
 11 28  1  0
 14 29  1  0
 16 30  1  0
 18 31  1  0
 20 32  1  0
 23 33  1  0
M  END
$$$$
