
     RDKit          3D

 34 34  0  0  0  0  0  0  0  0999 V2000
    4.6917    0.9326   -1.5916 C   0  0  0  0  0  0  0  0  0  0  0  0
    4.2829   -0.5009   -1.2912 C   0  0  0  0  0  0  0  0  0  0  0  0
    4.3733   -0.8625    0.1946 C   0  0  0  0  0  0  0  0  0  0  0  0
    3.4486   -0.0523    1.1001 C   0  0  0  0  0  0  0  0  0  0  0  0
    2.0955   -0.2210    0.6600 O   0  0  0  0  0  0  0  0  0  0  0  0
    1.1838    0.4813    1.3776 C   0  0  0  0  0  0  0  0  0  0  0  0
    1.4281    1.2024    2.3316 O   0  0  0  0  0  0  0  0  0  0  0  0
   -0.1864    0.2565    0.8414 C   0  0  0  0  0  0  0  0  0  0  0  0
   -0.4377   -0.5618   -0.2654 C   0  0  0  0  0  0  0  0  0  0  0  0
   -1.7476   -0.7368   -0.7282 C   0  0  0  0  0  0  0  0  0  0  0  0
   -2.8241   -0.1005   -0.0962 C   0  0  0  0  0  0  0  0  0  0  0  0
   -4.1093   -0.3309   -0.6280 N   0  0  0  0  0  0  0  0  0  0  0  0
   -5.3131    0.1751   -0.1706 C   0  0  0  0  0  0  0  0  0  0  0  0
   -6.4822   -0.2988   -0.9981 C   0  0  0  0  0  0  0  0  0  0  0  0
   -5.4869    0.9040    0.7990 O   0  0  0  0  0  0  0  0  0  0  0  0
   -2.5690    0.7158    1.0068 C   0  0  0  0  0  0  0  0  0  0  0  0
   -1.2599    0.8936    1.4730 C   0  0  0  0  0  0  0  0  0  0  0  0
    3.9901    1.6492   -1.1544 H   0  0  0  0  0  0  0  0  0  0  0  0
    4.7047    1.1005   -2.6733 H   0  0  0  0  0  0  0  0  0  0  0  0
    5.6928    1.1456   -1.2037 H   0  0  0  0  0  0  0  0  0  0  0  0
    4.9406   -1.1762   -1.8516 H   0  0  0  0  0  0  0  0  0  0  0  0
    3.2667   -0.6748   -1.6631 H   0  0  0  0  0  0  0  0  0  0  0  0
    4.1144   -1.9243    0.2919 H   0  0  0  0  0  0  0  0  0  0  0  0
    5.4074   -0.7495    0.5404 H   0  0  0  0  0  0  0  0  0  0  0  0
    3.7204    1.0090    1.0789 H   0  0  0  0  0  0  0  0  0  0  0  0
    3.5414   -0.4205    2.1287 H   0  0  0  0  0  0  0  0  0  0  0  0
    0.3738   -1.0706   -0.7801 H   0  0  0  0  0  0  0  0  0  0  0  0
   -1.9088   -1.3791   -1.5905 H   0  0  0  0  0  0  0  0  0  0  0  0
   -4.1527   -0.9441   -1.4320 H   0  0  0  0  0  0  0  0  0  0  0  0
   -6.2173   -0.3470   -2.0583 H   0  0  0  0  0  0  0  0  0  0  0  0
   -7.3132    0.4039   -0.8885 H   0  0  0  0  0  0  0  0  0  0  0  0
   -6.7943   -1.2874   -0.6512 H   0  0  0  0  0  0  0  0  0  0  0  0
   -3.3658    1.2336    1.5324 H   0  0  0  0  0  0  0  0  0  0  0  0
   -1.0881    1.5359    2.3355 H   0  0  0  0  0  0  0  0  0  0  0  0
  1  2  1  0
  2  3  1  0
  3  4  1  0
  4  5  1  0
  5  6  1  0
  6  7  2  0
  6  8  1  0
  8  9  2  0
  9 10  1  0
 10 11  2  0
 11 12  1  0
 12 13  1  0
 13 14  1  0
 13 15  2  0
 11 16  1  0
 16 17  2  0
 17  8  1  0
  1 18  1  0
  1 19  1  0
  1 20  1  0
  2 21  1  0
  2 22  1  0
  3 23  1  0
  3 24  1  0
  4 25  1  0
  4 26  1  0
  9 27  1  0
 10 28  1  0
 12 29  1  0
 14 30  1  0
 14 31  1  0
 14 32  1  0
 16 33  1  0
 17 34  1  0
M  END
$$$$
