
     RDKit          3D

 51 55  0  0  0  0  0  0  0  0999 V2000
    8.6601   -0.6365    0.1833 F   0  0  0  0  0  0  0  0  0  0  0  0
    7.4211   -0.3162    0.5795 C   0  0  0  0  0  0  0  0  0  0  0  0
    6.9520   -0.7818    1.8017 C   0  0  0  0  0  0  0  0  0  0  0  0
    5.6609   -0.4507    2.2156 C   0  0  0  0  0  0  0  0  0  0  0  0
    4.8402    0.3507    1.4065 C   0  0  0  0  0  0  0  0  0  0  0  0
    3.4387    0.7047    1.8500 C   0  0  0  0  0  0  0  0  0  0  0  0
    2.3497   -0.2113    1.2558 C   0  0  0  0  0  0  0  0  0  0  0  0
    2.1126   -0.0196   -0.1882 N   0  0  0  0  0  0  0  0  0  0  0  0
    1.3507   -1.1518   -0.7646 C   0  0  0  0  0  0  0  0  0  0  0  0
   -0.1416   -1.2036   -0.3729 C   0  0  0  0  0  0  0  0  0  0  0  0
   -0.8169    0.0684   -0.6986 N   0  0  0  0  0  0  0  0  0  0  0  0
   -2.2106    0.0779   -0.6678 C   0  0  0  0  0  0  0  0  0  0  0  0
   -2.8245    0.8202    0.2194 N   0  0  0  0  0  0  0  0  0  0  0  0
   -4.2318    0.8268    0.2961 C   0  0  0  0  0  0  0  0  0  0  0  0
   -4.8388    1.6239    1.2685 C   0  0  0  0  0  0  0  0  0  0  0  0
   -6.2302    1.6604    1.3950 C   0  0  0  0  0  0  0  0  0  0  0  0
   -7.0310    0.8957    0.5458 C   0  0  0  0  0  0  0  0  0  0  0  0
   -6.4466    0.0919   -0.4337 C   0  0  0  0  0  0  0  0  0  0  0  0
   -5.0536    0.0654   -0.5477 C   0  0  0  0  0  0  0  0  0  0  0  0
   -4.3843   -0.7051   -1.5122 N   0  0  0  0  0  0  0  0  0  0  0  0
   -4.8961   -1.5278   -2.4877 C   0  0  0  0  0  0  0  0  0  0  0  0
   -3.8449   -2.0161   -3.2340 C   0  0  0  0  0  0  0  0  0  0  0  0
   -2.6567   -1.4821   -2.6837 C   0  0  0  0  0  0  0  0  0  0  0  0
   -3.0105   -0.7018   -1.5975 C   0  0  0  0  0  0  0  0  0  0  0  0
   -0.1186    1.2337   -0.1178 C   0  0  0  0  0  0  0  0  0  0  0  0
    1.3793    1.2308   -0.4971 C   0  0  0  0  0  0  0  0  0  0  0  0
    5.3328    0.8069    0.1744 C   0  0  0  0  0  0  0  0  0  0  0  0
    6.6234    0.4738   -0.2384 C   0  0  0  0  0  0  0  0  0  0  0  0
    7.5927   -1.3995    2.4223 H   0  0  0  0  0  0  0  0  0  0  0  0
    5.2998   -0.8212    3.1722 H   0  0  0  0  0  0  0  0  0  0  0  0
    3.3894    0.6275    2.9445 H   0  0  0  0  0  0  0  0  0  0  0  0
    3.2428    1.7610    1.6336 H   0  0  0  0  0  0  0  0  0  0  0  0
    2.6628   -1.2487    1.4351 H   0  0  0  0  0  0  0  0  0  0  0  0
    1.4247   -0.0693    1.8263 H   0  0  0  0  0  0  0  0  0  0  0  0
    1.4204   -1.0778   -1.8583 H   0  0  0  0  0  0  0  0  0  0  0  0
    1.8333   -2.1021   -0.5054 H   0  0  0  0  0  0  0  0  0  0  0  0
   -0.2474   -1.4083    0.6997 H   0  0  0  0  0  0  0  0  0  0  0  0
   -0.6035   -2.0426   -0.9022 H   0  0  0  0  0  0  0  0  0  0  0  0
   -4.2181    2.2198    1.9323 H   0  0  0  0  0  0  0  0  0  0  0  0
   -6.6869    2.2866    2.1571 H   0  0  0  0  0  0  0  0  0  0  0  0
   -8.1132    0.9282    0.6476 H   0  0  0  0  0  0  0  0  0  0  0  0
   -7.0895   -0.4914   -1.0842 H   0  0  0  0  0  0  0  0  0  0  0  0
   -5.9582   -1.6933   -2.5943 H   0  0  0  0  0  0  0  0  0  0  0  0
   -3.9283   -2.6754   -4.0884 H   0  0  0  0  0  0  0  0  0  0  0  0
   -1.6488   -1.6453   -3.0418 H   0  0  0  0  0  0  0  0  0  0  0  0
   -0.5646    2.1588   -0.5035 H   0  0  0  0  0  0  0  0  0  0  0  0
   -0.2352    1.2389    0.9725 H   0  0  0  0  0  0  0  0  0  0  0  0
    1.8722    2.0956   -0.0409 H   0  0  0  0  0  0  0  0  0  0  0  0
    1.4581    1.3954   -1.5804 H   0  0  0  0  0  0  0  0  0  0  0  0
    4.7057    1.4149   -0.4742 H   0  0  0  0  0  0  0  0  0  0  0  0
    7.0068    0.8212   -1.1919 H   0  0  0  0  0  0  0  0  0  0  0  0
  1  2  1  0
  2  3  2  0
  3  4  1  0
  4  5  2  0
  5  6  1  0
  6  7  1  0
  7  8  1  0
  8  9  1  0
  9 10  1  0
 10 11  1  0
 11 12  1  0
 12 13  2  0
 13 14  1  0
 14 15  2  0
 15 16  1  0
 16 17  2  0
 17 18  1  0
 18 19  2  0
 19 20  1  0
 20 21  1  0
 21 22  2  0
 22 23  1  0
 23 24  2  0
 11 25  1  0
 25 26  1  0
  5 27  1  0
 27 28  2  0
 28  2  1  0
 26  8  1  0
 24 12  1  0
 19 14  1  0
 24 20  1  0
  3 29  1  0
  4 30  1  0
  6 31  1  0
  6 32  1  0
  7 33  1  0
  7 34  1  0
  9 35  1  0
  9 36  1  0
 10 37  1  0
 10 38  1  0
 15 39  1  0
 16 40  1  0
 17 41  1  0
 18 42  1  0
 21 43  1  0
 22 44  1  0
 23 45  1  0
 25 46  1  0
 25 47  1  0
 26 48  1  0
 26 49  1  0
 27 50  1  0
 28 51  1  0
M  END
$$$$
