
     RDKit          3D

 40 41  0  0  0  0  0  0  0  0999 V2000
    3.6168   -2.6053   -1.6890 C   0  0  0  0  0  0  0  0  0  0  0  0
    3.5365   -2.3214   -0.2967 O   0  0  0  0  0  0  0  0  0  0  0  0
    3.1358   -1.0634    0.0565 C   0  0  0  0  0  0  0  0  0  0  0  0
    2.7386   -0.0511   -0.8161 C   0  0  0  0  0  0  0  0  0  0  0  0
    2.3390    1.1928   -0.3154 C   0  0  0  0  0  0  0  0  0  0  0  0
    2.3248    1.4312    1.0620 C   0  0  0  0  0  0  0  0  0  0  0  0
    1.8909    2.7202    1.6090 C   0  0  0  0  0  0  0  0  0  0  0  0
    0.7101    3.3297    1.4141 C   0  0  0  0  0  0  0  0  0  0  0  0
   -0.4569    2.8693    0.6089 C   0  0  0  0  0  0  0  0  0  0  0  0
   -1.0988    3.7107   -0.0075 O   0  0  0  0  0  0  0  0  0  0  0  0
   -0.7421    1.5271    0.7254 N   0  0  0  0  0  0  0  0  0  0  0  0
   -1.7285    0.7870    0.0978 C   0  0  0  0  0  0  0  0  0  0  0  0
   -2.5007    1.3075   -0.8641 C   0  0  0  0  0  0  0  0  0  0  0  0
   -3.5244    0.4987   -1.5321 C   0  0  0  0  0  0  0  0  0  0  0  0
   -4.2408    1.0217   -2.3841 O   0  0  0  0  0  0  0  0  0  0  0  0
   -3.6049   -0.8218   -1.1489 N   0  0  0  0  0  0  0  0  0  0  0  0
   -4.6100   -1.6396   -1.7987 C   0  0  0  0  0  0  0  0  0  0  0  0
   -2.8540   -1.3801   -0.1252 C   0  0  0  0  0  0  0  0  0  0  0  0
   -3.0177   -2.5504    0.2346 O   0  0  0  0  0  0  0  0  0  0  0  0
   -1.9078   -0.5436    0.4780 N   0  0  0  0  0  0  0  0  0  0  0  0
   -1.1030   -1.1404    1.5440 C   0  0  0  0  0  0  0  0  0  0  0  0
    2.7414    0.4210    1.9345 C   0  0  0  0  0  0  0  0  0  0  0  0
    3.1362   -0.8204    1.4319 C   0  0  0  0  0  0  0  0  0  0  0  0
    3.9590   -3.6410   -1.7960 H   0  0  0  0  0  0  0  0  0  0  0  0
    4.3498   -1.9582   -2.1819 H   0  0  0  0  0  0  0  0  0  0  0  0
    2.6363   -2.5231   -2.1650 H   0  0  0  0  0  0  0  0  0  0  0  0
    2.7247   -0.1946   -1.8924 H   0  0  0  0  0  0  0  0  0  0  0  0
    2.0359    1.9697   -1.0159 H   0  0  0  0  0  0  0  0  0  0  0  0
    2.6343    3.2221    2.2279 H   0  0  0  0  0  0  0  0  0  0  0  0
    0.5564    4.3222    1.8337 H   0  0  0  0  0  0  0  0  0  0  0  0
   -0.1463    1.0205    1.3625 H   0  0  0  0  0  0  0  0  0  0  0  0
   -2.4314    2.3258   -1.2264 H   0  0  0  0  0  0  0  0  0  0  0  0
   -4.4203   -2.7085   -1.6650 H   0  0  0  0  0  0  0  0  0  0  0  0
   -4.6387   -1.4202   -2.8711 H   0  0  0  0  0  0  0  0  0  0  0  0
   -5.5847   -1.3937   -1.3674 H   0  0  0  0  0  0  0  0  0  0  0  0
   -1.4582   -2.1293    1.8438 H   0  0  0  0  0  0  0  0  0  0  0  0
   -1.1382   -0.5014    2.4346 H   0  0  0  0  0  0  0  0  0  0  0  0
   -0.0733   -1.2469    1.1882 H   0  0  0  0  0  0  0  0  0  0  0  0
    2.7653    0.5871    3.0080 H   0  0  0  0  0  0  0  0  0  0  0  0
    3.4490   -1.6100    2.1135 H   0  0  0  0  0  0  0  0  0  0  0  0
  1  2  1  0
  2  3  1  0
  3  4  2  0
  4  5  1  0
  5  6  2  0
  6  7  1  0
  7  8  2  3
  8  9  1  0
  9 10  2  0
  9 11  1  0
 11 12  1  0
 12 13  2  0
 13 14  1  0
 14 15  2  0
 14 16  1  0
 16 17  1  0
 16 18  1  0
 18 19  2  0
 18 20  1  0
 20 21  1  0
  6 22  1  0
 22 23  2  0
 23  3  1  0
 20 12  1  0
  1 24  1  0
  1 25  1  0
  1 26  1  0
  4 27  1  0
  5 28  1  0
  7 29  1  0
  8 30  1  0
 11 31  1  0
 13 32  1  0
 17 33  1  0
 17 34  1  0
 17 35  1  0
 21 36  1  0
 21 37  1  0
 21 38  1  0
 22 39  1  0
 23 40  1  0
M  END
$$$$
