
     RDKit          3D

 46 49  0  0  0  0  0  0  0  0999 V2000
   -5.3274   -3.2481   -1.7533 C   0  0  0  0  0  0  0  0  0  0  0  0
   -4.5566   -2.0569   -1.6585 O   0  0  0  0  0  0  0  0  0  0  0  0
   -3.8137   -1.8921   -0.5213 C   0  0  0  0  0  0  0  0  0  0  0  0
   -3.7944   -2.7509    0.5778 C   0  0  0  0  0  0  0  0  0  0  0  0
   -2.9809   -2.4645    1.6775 C   0  0  0  0  0  0  0  0  0  0  0  0
   -2.1879   -1.3169    1.6868 C   0  0  0  0  0  0  0  0  0  0  0  0
   -2.2080   -0.4434    0.5957 C   0  0  0  0  0  0  0  0  0  0  0  0
   -1.3748    0.7528    0.5934 C   0  0  0  0  0  0  0  0  0  0  0  0
   -0.0147    0.8919    0.3501 C   0  0  0  0  0  0  0  0  0  0  0  0
    0.9770   -0.1399    0.0536 C   0  0  0  0  0  0  0  0  0  0  0  0
    0.7148   -1.3376    0.0453 O   0  0  0  0  0  0  0  0  0  0  0  0
    2.2294    0.4050   -0.2045 N   0  0  0  0  0  0  0  0  0  0  0  0
    3.2804   -0.3977   -0.5374 N   0  0  0  0  0  0  0  0  0  0  0  0
    4.4491    0.1267   -0.7721 C   0  0  0  0  0  0  0  0  0  0  0  0
    4.7257    1.6144   -0.6691 C   0  0  0  0  0  0  0  0  0  0  0  0
    5.5459   -0.7460   -1.1864 C   0  0  0  0  0  0  0  0  0  0  0  0
    6.7445   -0.4210   -1.8047 C   0  0  0  0  0  0  0  0  0  0  0  0
    7.5680   -1.5626   -2.0495 C   0  0  0  0  0  0  0  0  0  0  0  0
    6.9628   -2.7091   -1.6105 C   0  0  0  0  0  0  0  0  0  0  0  0
    7.5975   -4.3014   -1.7058 Cl  0  0  0  0  0  0  0  0  0  0  0  0
    5.4429   -2.4475   -0.9250 S   0  0  0  0  0  0  0  0  0  0  0  0
    0.3245    2.2201    0.4100 N   0  0  0  0  0  0  0  0  0  0  0  0
   -0.7629    2.9141    0.6888 N   0  0  0  0  0  0  0  0  0  0  0  0
   -1.8199    2.0565    0.8303 N   0  0  0  0  0  0  0  0  0  0  0  0
   -3.1075    2.5298    1.1914 C   0  0  0  0  0  0  0  0  0  0  0  0
   -4.1170    1.6903    1.4213 N   0  0  0  0  0  0  0  0  0  0  0  0
   -5.1820    2.5209    1.7620 O   0  0  0  0  0  0  0  0  0  0  0  0
   -4.8026    3.8591    1.7474 N   0  0  0  0  0  0  0  0  0  0  0  0
   -3.5201    3.8616    1.3867 C   0  0  0  0  0  0  0  0  0  0  0  0
   -2.7763    4.9751    1.2428 N   0  0  0  0  0  0  0  0  0  0  0  0
   -3.0189   -0.7417   -0.5069 C   0  0  0  0  0  0  0  0  0  0  0  0
   -4.6896   -4.1375   -1.7103 H   0  0  0  0  0  0  0  0  0  0  0  0
   -5.8272   -3.2450   -2.7265 H   0  0  0  0  0  0  0  0  0  0  0  0
   -6.1025   -3.2782   -0.9805 H   0  0  0  0  0  0  0  0  0  0  0  0
   -4.3944   -3.6538    0.6099 H   0  0  0  0  0  0  0  0  0  0  0  0
   -2.9592   -3.1431    2.5265 H   0  0  0  0  0  0  0  0  0  0  0  0
   -1.5506   -1.1198    2.5453 H   0  0  0  0  0  0  0  0  0  0  0  0
    2.3210    1.4150   -0.1940 H   0  0  0  0  0  0  0  0  0  0  0  0
    5.7944    1.8367   -0.6517 H   0  0  0  0  0  0  0  0  0  0  0  0
    4.3014    2.0138    0.2568 H   0  0  0  0  0  0  0  0  0  0  0  0
    4.2709    2.1243   -1.5234 H   0  0  0  0  0  0  0  0  0  0  0  0
    7.0296    0.5851   -2.0867 H   0  0  0  0  0  0  0  0  0  0  0  0
    8.5419   -1.5354   -2.5221 H   0  0  0  0  0  0  0  0  0  0  0  0
   -3.1317    5.8523    1.6087 H   0  0  0  0  0  0  0  0  0  0  0  0
   -1.7619    4.9268    1.1684 H   0  0  0  0  0  0  0  0  0  0  0  0
   -3.0390   -0.0824   -1.3716 H   0  0  0  0  0  0  0  0  0  0  0  0
  1  2  1  0
  2  3  1  0
  3  4  2  0
  4  5  1  0
  5  6  2  0
  6  7  1  0
  7  8  1  0
  8  9  2  0
  9 10  1  0
 10 11  2  0
 10 12  1  0
 12 13  1  0
 13 14  2  3
 14 15  1  0
 14 16  1  0
 16 17  2  0
 17 18  1  0
 18 19  2  0
 19 20  1  0
 19 21  1  0
  9 22  1  0
 22 23  2  0
 23 24  1  0
 24 25  1  0
 25 26  2  0
 26 27  1  0
 27 28  1  0
 28 29  2  0
 29 30  1  0
  7 31  2  0
 31  3  1  0
 24  8  1  0
 29 25  1  0
 21 16  1  0
  1 32  1  0
  1 33  1  0
  1 34  1  0
  4 35  1  0
  5 36  1  0
  6 37  1  0
 12 38  1  0
 15 39  1  0
 15 40  1  0
 15 41  1  0
 17 42  1  0
 18 43  1  0
 30 44  1  0
 30 45  1  0
 31 46  1  0
M  END
$$$$
