
     RDKit          3D

 46 49  0  0  0  0  0  0  0  0999 V2000
    3.1652    0.4963   -2.9257 O   0  0  0  0  0  0  0  0  0  0  0  0
    2.8609    1.0411   -1.8683 C   0  0  0  0  0  0  0  0  0  0  0  0
    1.4151    1.3875   -1.5551 C   0  0  0  0  0  0  0  0  0  0  0  0
    0.7017    0.0740   -0.5201 S   0  0  0  0  0  0  0  0  0  0  0  0
   -0.8498    0.7597   -0.1929 C   0  0  0  0  0  0  0  0  0  0  0  0
   -1.1815    2.0129   -0.3842 N   0  0  0  0  0  0  0  0  0  0  0  0
   -2.4909    2.1585   -0.0096 N   0  0  0  0  0  0  0  0  0  0  0  0
   -2.9382    0.9887    0.4098 C   0  0  0  0  0  0  0  0  0  0  0  0
   -4.3371    0.7180    0.8641 C   0  0  0  0  0  0  0  0  0  0  0  0
   -4.4625    0.3543    2.3184 C   0  0  0  0  0  0  0  0  0  0  0  0
   -4.9966   -0.8000    2.8616 C   0  0  0  0  0  0  0  0  0  0  0  0
   -4.9591   -0.7997    4.2853 C   0  0  0  0  0  0  0  0  0  0  0  0
   -4.4110    0.3593    4.7853 C   0  0  0  0  0  0  0  0  0  0  0  0
   -3.9536    1.4415    3.5439 S   0  0  0  0  0  0  0  0  0  0  0  0
   -1.9167    0.0648    0.3107 N   0  0  0  0  0  0  0  0  0  0  0  0
   -1.9627   -1.3374    0.6745 C   0  0  0  0  0  0  0  0  0  0  0  0
   -2.5982   -2.1398   -0.3985 C   0  0  0  0  0  0  0  0  0  0  0  0
   -2.1796   -2.5702   -1.6413 C   0  0  0  0  0  0  0  0  0  0  0  0
   -3.2550   -3.3089   -2.1905 C   0  0  0  0  0  0  0  0  0  0  0  0
   -4.2565   -3.2877   -1.2492 C   0  0  0  0  0  0  0  0  0  0  0  0
   -3.8666   -2.5828   -0.1564 O   0  0  0  0  0  0  0  0  0  0  0  0
    3.7293    1.3991   -0.8464 N   0  0  0  0  0  0  0  0  0  0  0  0
    5.1291    1.2402   -0.8102 C   0  0  0  0  0  0  0  0  0  0  0  0
    5.8852    0.7213   -1.8639 C   0  0  0  0  0  0  0  0  0  0  0  0
    7.2746    0.5976   -1.7487 C   0  0  0  0  0  0  0  0  0  0  0  0
    7.9126    0.9954   -0.5772 C   0  0  0  0  0  0  0  0  0  0  0  0
    9.7886    0.8291   -0.4226 Br  0  0  0  0  0  0  0  0  0  0  0  0
    7.1741    1.5166    0.4808 C   0  0  0  0  0  0  0  0  0  0  0  0
    5.7862    1.6384    0.3623 C   0  0  0  0  0  0  0  0  0  0  0  0
    0.8605    1.4740   -2.4953 H   0  0  0  0  0  0  0  0  0  0  0  0
    1.3768    2.3562   -1.0452 H   0  0  0  0  0  0  0  0  0  0  0  0
   -4.7710   -0.0730    0.2420 H   0  0  0  0  0  0  0  0  0  0  0  0
   -4.9496    1.6101    0.6753 H   0  0  0  0  0  0  0  0  0  0  0  0
   -5.3936   -1.6124    2.2631 H   0  0  0  0  0  0  0  0  0  0  0  0
   -5.3210   -1.6062    4.9115 H   0  0  0  0  0  0  0  0  0  0  0  0
   -4.2625    0.6286    5.8221 H   0  0  0  0  0  0  0  0  0  0  0  0
   -2.5001   -1.4304    1.6205 H   0  0  0  0  0  0  0  0  0  0  0  0
   -0.9484   -1.6972    0.8703 H   0  0  0  0  0  0  0  0  0  0  0  0
   -1.2188   -2.3733   -2.0987 H   0  0  0  0  0  0  0  0  0  0  0  0
   -3.2955   -3.7977   -3.1543 H   0  0  0  0  0  0  0  0  0  0  0  0
   -5.2532   -3.7051   -1.2077 H   0  0  0  0  0  0  0  0  0  0  0  0
    3.3049    1.7826   -0.0095 H   0  0  0  0  0  0  0  0  0  0  0  0
    5.4264    0.4031   -2.7953 H   0  0  0  0  0  0  0  0  0  0  0  0
    7.8432    0.1929   -2.5822 H   0  0  0  0  0  0  0  0  0  0  0  0
    7.6648    1.8303    1.3985 H   0  0  0  0  0  0  0  0  0  0  0  0
    5.2300    2.0494    1.2008 H   0  0  0  0  0  0  0  0  0  0  0  0
  1  2  2  0
  2  3  1  0
  3  4  1  0
  4  5  1  0
  5  6  2  0
  6  7  1  0
  7  8  2  0
  8  9  1  0
  9 10  1  0
 10 11  2  0
 11 12  1  0
 12 13  2  0
 13 14  1  0
  8 15  1  0
 15 16  1  0
 16 17  1  0
 17 18  2  0
 18 19  1  0
 19 20  2  0
 20 21  1  0
  2 22  1  0
 22 23  1  0
 23 24  2  0
 24 25  1  0
 25 26  2  0
 26 27  1  0
 26 28  1  0
 28 29  2  0
 15  5  1  0
 21 17  1  0
 29 23  1  0
 14 10  1  0
  3 30  1  0
  3 31  1  0
  9 32  1  0
  9 33  1  0
 11 34  1  0
 12 35  1  0
 13 36  1  0
 16 37  1  0
 16 38  1  0
 18 39  1  0
 19 40  1  0
 20 41  1  0
 22 42  1  0
 24 43  1  0
 25 44  1  0
 28 45  1  0
 29 46  1  0
M  END
$$$$
