
     RDKit          3D

 48 49  0  0  0  0  0  0  0  0999 V2000
   -5.2788   -1.6785   -0.9870 C   0  0  0  0  0  0  0  0  0  0  0  0
   -4.8510   -0.2427   -1.2503 C   0  0  0  0  0  0  0  0  0  0  0  0
   -5.0940    0.6195   -0.0897 N   0  0  0  0  0  0  0  0  0  0  0  0
   -6.4179    1.2315    0.0184 C   0  0  0  0  0  0  0  0  0  0  0  0
   -6.4479    2.6072   -0.6285 C   0  0  0  0  0  0  0  0  0  0  0  0
   -4.1979    0.8187    0.9612 C   0  0  0  0  0  0  0  0  0  0  0  0
   -4.4639    1.4478    1.9825 O   0  0  0  0  0  0  0  0  0  0  0  0
   -2.8471    0.2340    0.8699 C   0  0  0  0  0  0  0  0  0  0  0  0
   -2.5116   -0.8321    1.7037 C   0  0  0  0  0  0  0  0  0  0  0  0
   -1.2230   -1.3701    1.6487 C   0  0  0  0  0  0  0  0  0  0  0  0
   -0.2613   -0.8408    0.7741 C   0  0  0  0  0  0  0  0  0  0  0  0
    1.0150   -1.4421    0.7883 N   0  0  0  0  0  0  0  0  0  0  0  0
    2.1098   -1.1214   -0.0057 C   0  0  0  0  0  0  0  0  0  0  0  0
    2.1412   -0.2594   -0.8776 O   0  0  0  0  0  0  0  0  0  0  0  0
    3.3423   -1.9714    0.3504 C   0  0  0  0  0  0  0  0  0  0  0  0
    4.4384   -1.8935   -0.5444 O   0  0  0  0  0  0  0  0  0  0  0  0
    5.3688   -0.9050   -0.3680 C   0  0  0  0  0  0  0  0  0  0  0  0
    5.1458    0.2714    0.3560 C   0  0  0  0  0  0  0  0  0  0  0  0
    6.1507    1.2397    0.4654 C   0  0  0  0  0  0  0  0  0  0  0  0
    7.3868    1.0331   -0.1584 C   0  0  0  0  0  0  0  0  0  0  0  0
    8.4400    2.0486   -0.0414 N   0  0  0  0  0  4  0  0  0  0  0  0
    9.5027    1.8480   -0.6453 O   0  0  0  0  0  0  0  0  0  0  0  0
    8.2050    3.0430    0.6595 O   0  0  0  0  0  1  0  0  0  0  0  0
    7.6250   -0.1308   -0.8942 C   0  0  0  0  0  0  0  0  0  0  0  0
    6.6140   -1.0896   -0.9976 C   0  0  0  0  0  0  0  0  0  0  0  0
    6.9523   -2.5201   -1.9105 Cl  0  0  0  0  0  0  0  0  0  0  0  0
   -0.6071    0.2434   -0.0386 C   0  0  0  0  0  0  0  0  0  0  0  0
   -1.8948    0.7885    0.0139 C   0  0  0  0  0  0  0  0  0  0  0  0
   -6.3460   -1.7368   -0.7504 H   0  0  0  0  0  0  0  0  0  0  0  0
   -5.0917   -2.2979   -1.8696 H   0  0  0  0  0  0  0  0  0  0  0  0
   -4.7284   -2.1092   -0.1452 H   0  0  0  0  0  0  0  0  0  0  0  0
   -5.3991    0.1648   -2.1071 H   0  0  0  0  0  0  0  0  0  0  0  0
   -3.7933   -0.2303   -1.5211 H   0  0  0  0  0  0  0  0  0  0  0  0
   -7.1576    0.5728   -0.4500 H   0  0  0  0  0  0  0  0  0  0  0  0
   -6.6967    1.3261    1.0741 H   0  0  0  0  0  0  0  0  0  0  0  0
   -6.1900    2.5498   -1.6905 H   0  0  0  0  0  0  0  0  0  0  0  0
   -7.4461    3.0469   -0.5418 H   0  0  0  0  0  0  0  0  0  0  0  0
   -5.7328    3.2828   -0.1478 H   0  0  0  0  0  0  0  0  0  0  0  0
   -3.2468   -1.2355    2.3958 H   0  0  0  0  0  0  0  0  0  0  0  0
   -0.9847   -2.2031    2.3055 H   0  0  0  0  0  0  0  0  0  0  0  0
    1.1290   -2.2096    1.4395 H   0  0  0  0  0  0  0  0  0  0  0  0
    3.6497   -1.7576    1.3822 H   0  0  0  0  0  0  0  0  0  0  0  0
    3.0188   -3.0198    0.3352 H   0  0  0  0  0  0  0  0  0  0  0  0
    4.1894    0.4844    0.8240 H   0  0  0  0  0  0  0  0  0  0  0  0
    5.9467    2.1501    1.0271 H   0  0  0  0  0  0  0  0  0  0  0  0
    8.5801   -0.2996   -1.3871 H   0  0  0  0  0  0  0  0  0  0  0  0
    0.1045    0.6999   -0.7198 H   0  0  0  0  0  0  0  0  0  0  0  0
   -2.1467    1.6443   -0.6076 H   0  0  0  0  0  0  0  0  0  0  0  0
  1  2  1  0
  2  3  1  0
  3  4  1  0
  4  5  1  0
  3  6  1  0
  6  7  2  0
  6  8  1  0
  8  9  2  0
  9 10  1  0
 10 11  2  0
 11 12  1  0
 12 13  1  0
 13 14  2  0
 13 15  1  0
 15 16  1  0
 16 17  1  0
 17 18  2  0
 18 19  1  0
 19 20  2  0
 20 21  1  0
 21 22  2  0
 21 23  1  0
 20 24  1  0
 24 25  2  0
 25 26  1  0
 11 27  1  0
 27 28  2  0
 28  8  1  0
 25 17  1  0
  1 29  1  0
  1 30  1  0
  1 31  1  0
  2 32  1  0
  2 33  1  0
  4 34  1  0
  4 35  1  0
  5 36  1  0
  5 37  1  0
  5 38  1  0
  9 39  1  0
 10 40  1  0
 12 41  1  0
 15 42  1  0
 15 43  1  0
 18 44  1  0
 19 45  1  0
 24 46  1  0
 27 47  1  0
 28 48  1  0
M  CHG  2  21   1  23  -1
M  END
$$$$
