
     RDKit          3D

 40 42  0  0  0  0  0  0  0  0999 V2000
   -5.9309    1.3014    0.2340 C   0  0  0  0  0  0  0  0  0  0  0  0
   -5.4266   -0.0727    0.7117 C   0  0  0  0  0  0  0  0  0  0  0  0
   -5.9452   -1.1732   -0.2322 C   0  0  0  0  0  0  0  0  0  0  0  0
   -6.0144   -0.3338    2.1155 C   0  0  0  0  0  0  0  0  0  0  0  0
   -3.9065   -0.0938    0.7770 C   0  0  0  0  0  0  0  0  0  0  0  0
   -3.2036   -0.3046    1.8741 N   0  0  0  0  0  0  0  0  0  0  0  0
   -1.8441   -0.2693    1.6455 N   0  0  0  0  0  0  0  0  0  0  0  0
   -1.5584   -0.0336    0.3855 C   0  0  0  0  0  0  0  0  0  0  0  0
   -0.2688    0.0443   -0.0678 N   0  0  0  0  0  0  0  0  0  0  0  0
    0.1578    0.2839   -1.3527 C   0  0  0  0  0  0  0  0  0  0  0  0
   -0.5444    0.4741   -2.3416 O   0  0  0  0  0  0  0  0  0  0  0  0
    1.6849    0.2986   -1.4774 C   0  0  0  0  0  0  0  0  0  0  0  0
    2.3074    0.0576   -0.2170 O   0  0  0  0  0  0  0  0  0  0  0  0
    3.6763    0.0458   -0.1960 C   0  0  0  0  0  0  0  0  0  0  0  0
    4.2354   -0.1970    1.0756 C   0  0  0  0  0  0  0  0  0  0  0  0
    5.6210   -0.2398    1.2603 C   0  0  0  0  0  0  0  0  0  0  0  0
    6.4159   -0.0362    0.1558 C   0  0  0  0  0  0  0  0  0  0  0  0
    5.8759    0.2008   -1.0859 C   0  0  0  0  0  0  0  0  0  0  0  0
    4.5119    0.2486   -1.2977 C   0  0  0  0  0  0  0  0  0  0  0  0
    6.8302    0.3751   -2.0403 O   0  0  0  0  0  0  0  0  0  0  0  0
    8.0316    0.2203   -1.2553 C   0  0  0  0  0  0  0  0  0  0  0  0
    7.7747   -0.0411    0.1400 O   0  0  0  0  0  0  0  0  0  0  0  0
   -2.9188    0.1628   -0.6154 S   0  0  0  0  0  0  0  0  0  0  0  0
   -7.0260    1.3477    0.2514 H   0  0  0  0  0  0  0  0  0  0  0  0
   -5.6146    1.5193   -0.7922 H   0  0  0  0  0  0  0  0  0  0  0  0
   -5.5523    2.1077    0.8734 H   0  0  0  0  0  0  0  0  0  0  0  0
   -7.0407   -1.2105   -0.2305 H   0  0  0  0  0  0  0  0  0  0  0  0
   -5.6292   -1.0062   -1.2680 H   0  0  0  0  0  0  0  0  0  0  0  0
   -5.5768   -2.1610    0.0691 H   0  0  0  0  0  0  0  0  0  0  0  0
   -7.1103   -0.3237    2.0955 H   0  0  0  0  0  0  0  0  0  0  0  0
   -5.7001   -1.3092    2.5057 H   0  0  0  0  0  0  0  0  0  0  0  0
   -5.6901    0.4292    2.8332 H   0  0  0  0  0  0  0  0  0  0  0  0
    0.4390   -0.0940    0.6452 H   0  0  0  0  0  0  0  0  0  0  0  0
    1.9559   -0.4896   -2.1894 H   0  0  0  0  0  0  0  0  0  0  0  0
    1.9661    1.2887   -1.8544 H   0  0  0  0  0  0  0  0  0  0  0  0
    3.5809   -0.3542    1.9304 H   0  0  0  0  0  0  0  0  0  0  0  0
    6.0538   -0.4262    2.2365 H   0  0  0  0  0  0  0  0  0  0  0  0
    4.1445    0.4391   -2.2978 H   0  0  0  0  0  0  0  0  0  0  0  0
    8.6242    1.1388   -1.3369 H   0  0  0  0  0  0  0  0  0  0  0  0
    8.6141   -0.6121   -1.6668 H   0  0  0  0  0  0  0  0  0  0  0  0
  1  2  1  0
  2  3  1  0
  2  4  1  0
  2  5  1  0
  5  6  2  0
  6  7  1  0
  7  8  2  0
  8  9  1  0
  9 10  1  0
 10 11  2  0
 10 12  1  0
 12 13  1  0
 13 14  1  0
 14 15  2  0
 15 16  1  0
 16 17  2  0
 17 18  1  0
 18 19  2  0
 18 20  1  0
 20 21  1  0
 21 22  1  0
  8 23  1  0
 23  5  1  0
 19 14  1  0
 22 17  1  0
  1 24  1  0
  1 25  1  0
  1 26  1  0
  3 27  1  0
  3 28  1  0
  3 29  1  0
  4 30  1  0
  4 31  1  0
  4 32  1  0
  9 33  1  0
 12 34  1  0
 12 35  1  0
 15 36  1  0
 16 37  1  0
 19 38  1  0
 21 39  1  0
 21 40  1  0
M  END
$$$$
