
     RDKit          3D

 57 60  0  0  0  0  0  0  0  0999 V2000
   -4.2252   -4.1218   -0.4148 C   0  0  0  0  0  0  0  0  0  0  0  0
   -3.8618   -2.6614   -0.6943 C   0  0  0  0  0  0  0  0  0  0  0  0
   -5.1100   -1.8944   -1.1295 C   0  0  0  0  0  0  0  0  0  0  0  0
   -3.2461   -2.0049    0.5456 C   0  0  0  0  0  0  0  0  0  0  0  0
   -3.3552   -2.5310    1.6553 O   0  0  0  0  0  0  0  0  0  0  0  0
   -2.6119   -0.7731    0.3867 N   0  0  0  0  0  0  0  0  0  0  0  0
   -1.9673   -0.2086    1.5847 C   0  0  0  0  0  0  0  0  0  0  0  0
   -1.7534    1.3131    1.4952 C   0  0  0  0  0  0  0  0  0  0  0  0
   -1.0454    1.6444    0.2346 N   0  0  0  0  0  0  0  0  0  0  0  0
   -0.7056    3.0261    0.1625 C   0  0  0  0  0  0  0  0  0  0  0  0
   -1.6640    4.0483    0.1254 C   0  0  0  0  0  0  0  0  0  0  0  0
   -1.2683    5.3847    0.0456 C   0  0  0  0  0  0  0  0  0  0  0  0
    0.0859    5.7123    0.0009 C   0  0  0  0  0  0  0  0  0  0  0  0
    1.0557    4.7082    0.0384 C   0  0  0  0  0  0  0  0  0  0  0  0
    0.6685    3.3719    0.1226 C   0  0  0  0  0  0  0  0  0  0  0  0
    1.5655    2.2853    0.1699 N   0  0  0  0  0  0  0  0  0  0  0  0
    2.9409    2.3040    0.1821 C   0  0  0  0  0  0  0  0  0  0  0  0
    3.6586    3.2973    0.1911 O   0  0  0  0  0  0  0  0  0  0  0  0
    3.5871    0.9590    0.2217 C   0  0  0  0  0  0  0  0  0  0  0  0
    4.8294    0.8348    0.8609 C   0  0  0  0  0  0  0  0  0  0  0  0
    5.4692   -0.4053    0.9242 C   0  0  0  0  0  0  0  0  0  0  0  0
    4.8750   -1.5213    0.3400 C   0  0  0  0  0  0  0  0  0  0  0  0
    3.6313   -1.4043   -0.2901 C   0  0  0  0  0  0  0  0  0  0  0  0
    2.9961   -0.1655   -0.3699 C   0  0  0  0  0  0  0  0  0  0  0  0
    2.9774   -2.4654   -0.8643 O   0  0  0  0  0  0  0  0  0  0  0  0
    3.5315   -3.7142   -0.4314 C   0  0  0  0  0  0  0  0  0  0  0  0
    5.0497   -3.6768   -0.4895 C   0  0  0  0  0  0  0  0  0  0  0  0
    5.5663   -2.7022    0.4238 O   0  0  0  0  0  0  0  0  0  0  0  0
   -1.8166    1.2011   -0.9489 C   0  0  0  0  0  0  0  0  0  0  0  0
   -2.0300   -0.3243   -0.8908 C   0  0  0  0  0  0  0  0  0  0  0  0
   -3.3447   -4.6848   -0.0862 H   0  0  0  0  0  0  0  0  0  0  0  0
   -4.9850   -4.2053    0.3703 H   0  0  0  0  0  0  0  0  0  0  0  0
   -4.6162   -4.6042   -1.3170 H   0  0  0  0  0  0  0  0  0  0  0  0
   -3.1208   -2.6698   -1.5001 H   0  0  0  0  0  0  0  0  0  0  0  0
   -5.8726   -1.9073   -0.3424 H   0  0  0  0  0  0  0  0  0  0  0  0
   -5.5446   -2.3391   -2.0308 H   0  0  0  0  0  0  0  0  0  0  0  0
   -4.8919   -0.8445   -1.3465 H   0  0  0  0  0  0  0  0  0  0  0  0
   -2.5642   -0.4344    2.4752 H   0  0  0  0  0  0  0  0  0  0  0  0
   -1.0014   -0.7175    1.6953 H   0  0  0  0  0  0  0  0  0  0  0  0
   -2.7295    1.8136    1.5362 H   0  0  0  0  0  0  0  0  0  0  0  0
   -1.1637    1.6402    2.3603 H   0  0  0  0  0  0  0  0  0  0  0  0
   -2.7243    3.8178    0.1587 H   0  0  0  0  0  0  0  0  0  0  0  0
   -2.0167    6.1725    0.0181 H   0  0  0  0  0  0  0  0  0  0  0  0
    0.3932    6.7533   -0.0620 H   0  0  0  0  0  0  0  0  0  0  0  0
    2.1017    4.9947    0.0023 H   0  0  0  0  0  0  0  0  0  0  0  0
    1.0696    1.4039    0.2644 H   0  0  0  0  0  0  0  0  0  0  0  0
    5.3009    1.7066    1.3113 H   0  0  0  0  0  0  0  0  0  0  0  0
    6.4332   -0.4960    1.4173 H   0  0  0  0  0  0  0  0  0  0  0  0
    2.0547   -0.0949   -0.9056 H   0  0  0  0  0  0  0  0  0  0  0  0
    3.1733   -3.9204    0.5847 H   0  0  0  0  0  0  0  0  0  0  0  0
    3.1461   -4.4950   -1.0944 H   0  0  0  0  0  0  0  0  0  0  0  0
    5.4636   -4.6494   -0.2057 H   0  0  0  0  0  0  0  0  0  0  0  0
    5.4072   -3.4338   -1.4978 H   0  0  0  0  0  0  0  0  0  0  0  0
   -2.7963    1.6950   -0.9848 H   0  0  0  0  0  0  0  0  0  0  0  0
   -1.2749    1.4472   -1.8705 H   0  0  0  0  0  0  0  0  0  0  0  0
   -2.6550   -0.6211   -1.7348 H   0  0  0  0  0  0  0  0  0  0  0  0
   -1.0689   -0.8428   -0.9967 H   0  0  0  0  0  0  0  0  0  0  0  0
  1  2  1  0
  2  3  1  0
  2  4  1  0
  4  5  2  0
  4  6  1  0
  6  7  1  0
  7  8  1  0
  8  9  1  0
  9 10  1  0
 10 11  2  0
 11 12  1  0
 12 13  2  0
 13 14  1  0
 14 15  2  0
 15 16  1  0
 16 17  1  0
 17 18  2  0
 17 19  1  0
 19 20  2  0
 20 21  1  0
 21 22  2  0
 22 23  1  0
 23 24  2  0
 23 25  1  0
 25 26  1  0
 26 27  1  0
 27 28  1  0
  9 29  1  0
 29 30  1  0
 30  6  1  0
 15 10  1  0
 24 19  1  0
 28 22  1  0
  1 31  1  0
  1 32  1  0
  1 33  1  0
  2 34  1  0
  3 35  1  0
  3 36  1  0
  3 37  1  0
  7 38  1  0
  7 39  1  0
  8 40  1  0
  8 41  1  0
 11 42  1  0
 12 43  1  0
 13 44  1  0
 14 45  1  0
 16 46  1  0
 20 47  1  0
 21 48  1  0
 24 49  1  0
 26 50  1  0
 26 51  1  0
 27 52  1  0
 27 53  1  0
 29 54  1  0
 29 55  1  0
 30 56  1  0
 30 57  1  0
M  END
$$$$
