
     RDKit          3D

 44 46  0  0  0  0  0  0  0  0999 V2000
    7.8210    4.5766    1.7265 C   0  0  0  0  0  0  0  0  0  0  0  0
    6.6646    4.3230    2.5145 O   0  0  0  0  0  0  0  0  0  0  0  0
    5.6620    3.6036    1.9273 C   0  0  0  0  0  0  0  0  0  0  0  0
    5.6652    3.0951    0.6306 C   0  0  0  0  0  0  0  0  0  0  0  0
    4.5632    2.3708    0.1541 C   0  0  0  0  0  0  0  0  0  0  0  0
    3.4392    2.1409    0.9619 C   0  0  0  0  0  0  0  0  0  0  0  0
    2.2891    1.3881    0.4723 C   0  0  0  0  0  0  0  0  0  0  0  0
    1.0794    1.0076    1.0038 C   0  0  0  0  0  0  0  0  0  0  0  0
    0.4320    0.2859   -0.0302 C   0  0  0  0  0  0  0  0  0  0  0  0
   -0.8942   -0.3421    0.0158 C   0  0  0  0  0  0  0  0  0  0  0  0
   -1.5848   -0.2813    1.0270 O   0  0  0  0  0  0  0  0  0  0  0  0
   -1.2269   -0.9704   -1.1709 N   0  0  0  0  0  0  0  0  0  0  0  0
   -2.4044   -1.6703   -1.4930 C   0  0  0  0  0  0  0  0  0  0  0  0
   -2.4858   -2.2145   -2.7777 C   0  0  0  0  0  0  0  0  0  0  0  0
   -3.6192   -2.9257   -3.1833 C   0  0  0  0  0  0  0  0  0  0  0  0
   -4.6910   -3.1031   -2.3060 C   0  0  0  0  0  0  0  0  0  0  0  0
   -5.8420   -3.7844   -2.6137 O   0  0  0  0  0  0  0  0  0  0  0  0
   -5.9495   -4.3464   -3.9132 C   0  0  0  0  0  0  0  0  0  0  0  0
   -4.6184   -2.5584   -1.0089 C   0  0  0  0  0  0  0  0  0  0  0  0
   -5.7125   -2.7756   -0.2055 O   0  0  0  0  0  0  0  0  0  0  0  0
   -5.6808   -2.2433    1.1115 C   0  0  0  0  0  0  0  0  0  0  0  0
   -3.4754   -1.8465   -0.6136 C   0  0  0  0  0  0  0  0  0  0  0  0
    1.2062    0.2313   -1.1286 N   0  0  0  0  0  0  0  0  0  0  0  0
    2.3617    0.9203   -0.8078 O   0  0  0  0  0  0  0  0  0  0  0  0
    3.4492    2.6580    2.2641 C   0  0  0  0  0  0  0  0  0  0  0  0
    4.5495    3.3808    2.7389 C   0  0  0  0  0  0  0  0  0  0  0  0
    8.3197    3.6431    1.4456 H   0  0  0  0  0  0  0  0  0  0  0  0
    7.5734    5.1747    0.8432 H   0  0  0  0  0  0  0  0  0  0  0  0
    8.5202    5.1571    2.3361 H   0  0  0  0  0  0  0  0  0  0  0  0
    6.5057    3.2410   -0.0398 H   0  0  0  0  0  0  0  0  0  0  0  0
    4.6004    1.9884   -0.8644 H   0  0  0  0  0  0  0  0  0  0  0  0
    0.6969    1.2101    1.9932 H   0  0  0  0  0  0  0  0  0  0  0  0
   -0.5124   -0.9053   -1.8913 H   0  0  0  0  0  0  0  0  0  0  0  0
   -1.6689   -2.0946   -3.4854 H   0  0  0  0  0  0  0  0  0  0  0  0
   -3.6318   -3.3275   -4.1906 H   0  0  0  0  0  0  0  0  0  0  0  0
   -6.9205   -4.8462   -3.9824 H   0  0  0  0  0  0  0  0  0  0  0  0
   -5.1748   -5.1014   -4.0826 H   0  0  0  0  0  0  0  0  0  0  0  0
   -5.9207   -3.5689   -4.6837 H   0  0  0  0  0  0  0  0  0  0  0  0
   -4.8669   -2.6837    1.6966 H   0  0  0  0  0  0  0  0  0  0  0  0
   -6.6224   -2.5094    1.6016 H   0  0  0  0  0  0  0  0  0  0  0  0
   -5.6135   -1.1505    1.0948 H   0  0  0  0  0  0  0  0  0  0  0  0
   -3.4238   -1.4299    0.3833 H   0  0  0  0  0  0  0  0  0  0  0  0
    2.6048    2.5095    2.9325 H   0  0  0  0  0  0  0  0  0  0  0  0
    4.5373    3.7737    3.7531 H   0  0  0  0  0  0  0  0  0  0  0  0
  1  2  1  0
  2  3  1  0
  3  4  2  0
  4  5  1  0
  5  6  2  0
  6  7  1  0
  7  8  2  0
  8  9  1  0
  9 10  1  0
 10 11  2  0
 10 12  1  0
 12 13  1  0
 13 14  2  0
 14 15  1  0
 15 16  2  0
 16 17  1  0
 17 18  1  0
 16 19  1  0
 19 20  1  0
 20 21  1  0
 19 22  2  0
  9 23  2  0
 23 24  1  0
  6 25  1  0
 25 26  2  0
 26  3  1  0
 24  7  1  0
 22 13  1  0
  1 27  1  0
  1 28  1  0
  1 29  1  0
  4 30  1  0
  5 31  1  0
  8 32  1  0
 12 33  1  0
 14 34  1  0
 15 35  1  0
 18 36  1  0
 18 37  1  0
 18 38  1  0
 21 39  1  0
 21 40  1  0
 21 41  1  0
 22 42  1  0
 25 43  1  0
 26 44  1  0
M  END
$$$$
