
     RDKit          3D

 39 40  0  0  0  0  0  0  0  0999 V2000
   -0.9812    1.7723    1.9353 O   0  0  0  0  0  0  0  0  0  0  0  0
   -0.9508    0.6898    1.3514 C   0  0  0  0  0  0  0  0  0  0  0  0
   -2.0981    0.2121    0.5283 C   0  0  0  0  0  0  0  0  0  0  0  0
   -3.2173    0.9460    0.4455 C   0  0  0  0  0  0  0  0  0  0  0  0
   -4.3776    0.5449   -0.3557 C   0  0  0  0  0  0  0  0  0  0  0  0
   -4.9614    1.4786   -1.2227 C   0  0  0  0  0  0  0  0  0  0  0  0
   -6.0867    1.1348   -1.9786 C   0  0  0  0  0  0  0  0  0  0  0  0
   -6.6343   -0.1366   -1.8584 C   0  0  0  0  0  0  0  0  0  0  0  0
   -7.7334   -0.4269   -2.6115 O   0  0  0  0  0  0  0  0  0  0  0  0
   -6.0750   -1.0750   -0.9950 C   0  0  0  0  0  0  0  0  0  0  0  0
   -4.9475   -0.7328   -0.2437 C   0  0  0  0  0  0  0  0  0  0  0  0
    0.2558   -0.2019    1.4374 C   0  0  0  0  0  0  0  0  0  0  0  0
    1.4251    0.3765    0.6900 C   0  0  0  0  0  0  0  0  0  0  0  0
    1.5899    0.1495   -0.5063 O   0  0  0  0  0  0  0  0  0  0  0  0
    2.3302    1.2826    1.4541 C   0  0  0  0  0  0  0  0  0  0  0  0
    3.6713    1.2425    1.4423 C   0  0  0  0  0  0  0  0  0  0  0  0
    4.5221    0.3110    0.6950 C   0  0  0  0  0  0  0  0  0  0  0  0
    5.3149   -0.6082    1.3961 C   0  0  0  0  0  0  0  0  0  0  0  0
    6.1484   -1.4901    0.7055 C   0  0  0  0  0  0  0  0  0  0  0  0
    6.1914   -1.4517   -0.6831 C   0  0  0  0  0  0  0  0  0  0  0  0
    7.0014   -2.3452   -1.3178 O   0  0  0  0  0  0  0  0  0  0  0  0
    5.4258   -0.5343   -1.3948 C   0  0  0  0  0  0  0  0  0  0  0  0
    4.5941    0.3495   -0.7022 C   0  0  0  0  0  0  0  0  0  0  0  0
   -1.9783   -0.7255   -0.0042 H   0  0  0  0  0  0  0  0  0  0  0  0
   -3.3011    1.9025    0.9604 H   0  0  0  0  0  0  0  0  0  0  0  0
   -4.5415    2.4779   -1.3236 H   0  0  0  0  0  0  0  0  0  0  0  0
   -6.5320    1.8574   -2.6565 H   0  0  0  0  0  0  0  0  0  0  0  0
   -8.0093   -1.3386   -2.4174 H   0  0  0  0  0  0  0  0  0  0  0  0
   -6.5012   -2.0680   -0.8903 H   0  0  0  0  0  0  0  0  0  0  0  0
   -4.5269   -1.4681    0.4400 H   0  0  0  0  0  0  0  0  0  0  0  0
    0.0437   -1.2003    1.0387 H   0  0  0  0  0  0  0  0  0  0  0  0
    0.5105   -0.3482    2.4929 H   0  0  0  0  0  0  0  0  0  0  0  0
    1.8213    1.9924    2.1021 H   0  0  0  0  0  0  0  0  0  0  0  0
    4.2179    1.9378    2.0764 H   0  0  0  0  0  0  0  0  0  0  0  0
    5.2884   -0.6476    2.4823 H   0  0  0  0  0  0  0  0  0  0  0  0
    6.7619   -2.2044    1.2487 H   0  0  0  0  0  0  0  0  0  0  0  0
    6.9008   -2.2209   -2.2761 H   0  0  0  0  0  0  0  0  0  0  0  0
    5.4507   -0.4941   -2.4790 H   0  0  0  0  0  0  0  0  0  0  0  0
    3.9881    1.0605   -1.2632 H   0  0  0  0  0  0  0  0  0  0  0  0
  1  2  2  0
  2  3  1  0
  3  4  2  3
  4  5  1  0
  5  6  2  0
  6  7  1  0
  7  8  2  0
  8  9  1  0
  8 10  1  0
 10 11  2  0
  2 12  1  0
 12 13  1  0
 13 14  2  0
 13 15  1  0
 15 16  2  3
 16 17  1  0
 17 18  2  0
 18 19  1  0
 19 20  2  0
 20 21  1  0
 20 22  1  0
 22 23  2  0
 11  5  1  0
 23 17  1  0
  3 24  1  0
  4 25  1  0
  6 26  1  0
  7 27  1  0
  9 28  1  0
 10 29  1  0
 11 30  1  0
 12 31  1  0
 12 32  1  0
 15 33  1  0
 16 34  1  0
 18 35  1  0
 19 36  1  0
 21 37  1  0
 22 38  1  0
 23 39  1  0
M  END
$$$$
