
     RDKit          3D

 68 70  0  0  0  0  0  0  0  0999 V2000
    0.2541    3.0630    5.5635 C   0  0  0  0  0  0  0  0  0  0  0  0
    0.7781    3.2631    4.2584 O   0  0  0  0  0  0  0  0  0  0  0  0
    0.1544    2.5774    3.2537 C   0  0  0  0  0  0  0  0  0  0  0  0
    0.9158    2.3733    2.1060 C   0  0  0  0  0  0  0  0  0  0  0  0
    0.3886    1.6842    1.0092 C   0  0  0  0  0  0  0  0  0  0  0  0
   -0.9190    1.1668    1.0373 C   0  0  0  0  0  0  0  0  0  0  0  0
   -1.5305    0.4414   -0.1622 C   0  0  0  0  0  0  0  0  0  0  0  0
   -2.4998   -0.7477    0.1147 C   0  0  0  0  0  0  0  0  0  0  0  0
   -2.8088   -1.1417    1.2337 O   0  0  0  0  0  0  0  0  0  0  0  0
   -3.0490   -1.2800   -1.0462 N   0  0  0  0  0  0  0  0  0  0  0  0
   -3.9685   -2.4278   -1.1046 C   0  0  0  0  0  0  0  0  0  0  0  0
   -5.2320   -2.1810   -0.2637 C   0  0  0  0  0  0  0  0  0  0  0  0
   -3.2627   -3.7082   -0.6363 C   0  0  0  0  0  0  0  0  0  0  0  0
   -4.3996   -2.6123   -2.5714 C   0  0  0  0  0  0  0  0  0  0  0  0
   -0.5548    0.0027   -1.2100 N   0  0  0  0  0  0  0  0  0  0  0  0
    0.4019   -1.0025   -0.9757 C   0  0  0  0  0  0  0  0  0  0  0  0
    1.3176   -1.2605   -1.7650 O   0  0  0  0  0  0  0  0  0  0  0  0
    0.3228   -1.8156    0.3178 C   0  0  0  0  0  0  0  0  0  0  0  0
    1.5944   -2.6256    0.5772 C   0  0  0  0  0  0  0  0  0  0  0  0
    2.7344   -1.7337    1.0377 C   0  0  0  0  0  0  0  0  0  0  0  0
    3.0112   -1.6264    2.2300 O   0  0  0  0  0  0  0  0  0  0  0  0
    3.3650   -1.0846    0.0031 N   0  0  0  0  0  0  0  0  0  0  0  0
    4.4280   -0.2170    0.1298 C   0  0  0  0  0  0  0  0  0  0  0  0
    5.1239    0.1872    1.2914 C   0  0  0  0  0  0  0  0  0  0  0  0
    6.0826    1.0583    0.8335 C   0  0  0  0  0  0  0  0  0  0  0  0
    7.1557    1.8369    1.4759 C   0  0  0  0  0  0  0  0  0  0  0  0
    5.9815    1.1587   -0.5189 O   0  0  0  0  0  0  0  0  0  0  0  0
    4.9379    0.3694   -0.9598 N   0  0  0  0  0  0  0  0  0  0  0  0
   -0.5322    0.7445   -2.4542 C   0  0  0  0  0  0  0  0  0  0  0  0
   -0.1724    0.1210   -3.6628 C   0  0  0  0  0  0  0  0  0  0  0  0
   -0.1546    0.8251   -4.8726 C   0  0  0  0  0  0  0  0  0  0  0  0
   -0.5074    2.1666   -4.9023 C   0  0  0  0  0  0  0  0  0  0  0  0
   -0.8673    2.7922   -3.7194 C   0  0  0  0  0  0  0  0  0  0  0  0
   -1.1897    4.0960   -3.7305 F   0  0  0  0  0  0  0  0  0  0  0  0
   -0.8834    2.1009   -2.5077 C   0  0  0  0  0  0  0  0  0  0  0  0
   -1.6910    1.4330    2.1819 C   0  0  0  0  0  0  0  0  0  0  0  0
   -1.1607    2.1218    3.2811 C   0  0  0  0  0  0  0  0  0  0  0  0
   -0.6834    3.6088    5.6943 H   0  0  0  0  0  0  0  0  0  0  0  0
    0.1233    1.9985    5.7876 H   0  0  0  0  0  0  0  0  0  0  0  0
    0.9772    3.4662    6.2785 H   0  0  0  0  0  0  0  0  0  0  0  0
    1.9380    2.7441    2.0647 H   0  0  0  0  0  0  0  0  0  0  0  0
    1.0303    1.5655    0.1382 H   0  0  0  0  0  0  0  0  0  0  0  0
   -2.2136    1.1792   -0.6059 H   0  0  0  0  0  0  0  0  0  0  0  0
   -2.5997   -1.0097   -1.9137 H   0  0  0  0  0  0  0  0  0  0  0  0
   -5.0185   -2.1612    0.8110 H   0  0  0  0  0  0  0  0  0  0  0  0
   -5.6969   -1.2227   -0.5194 H   0  0  0  0  0  0  0  0  0  0  0  0
   -5.9778   -2.9677   -0.4255 H   0  0  0  0  0  0  0  0  0  0  0  0
   -3.9265   -4.5781   -0.7065 H   0  0  0  0  0  0  0  0  0  0  0  0
   -2.3726   -3.9119   -1.2442 H   0  0  0  0  0  0  0  0  0  0  0  0
   -2.9319   -3.6335    0.4041 H   0  0  0  0  0  0  0  0  0  0  0  0
   -4.8985   -1.7144   -2.9553 H   0  0  0  0  0  0  0  0  0  0  0  0
   -5.0915   -3.4554   -2.6801 H   0  0  0  0  0  0  0  0  0  0  0  0
   -3.5331   -2.7999   -3.2203 H   0  0  0  0  0  0  0  0  0  0  0  0
   -0.5068   -2.5229    0.2116 H   0  0  0  0  0  0  0  0  0  0  0  0
    0.1372   -1.1787    1.1832 H   0  0  0  0  0  0  0  0  0  0  0  0
    1.9095   -3.1991   -0.3008 H   0  0  0  0  0  0  0  0  0  0  0  0
    1.4048   -3.3539    1.3759 H   0  0  0  0  0  0  0  0  0  0  0  0
    3.0105   -1.1768   -0.9463 H   0  0  0  0  0  0  0  0  0  0  0  0
    4.9564   -0.1136    2.3145 H   0  0  0  0  0  0  0  0  0  0  0  0
    8.0398    1.2077    1.6356 H   0  0  0  0  0  0  0  0  0  0  0  0
    6.8263    2.2218    2.4472 H   0  0  0  0  0  0  0  0  0  0  0  0
    7.4488    2.6917    0.8576 H   0  0  0  0  0  0  0  0  0  0  0  0
    0.0933   -0.9326   -3.6957 H   0  0  0  0  0  0  0  0  0  0  0  0
    0.1423    0.3180   -5.7879 H   0  0  0  0  0  0  0  0  0  0  0  0
   -0.4913    2.7328   -5.8281 H   0  0  0  0  0  0  0  0  0  0  0  0
   -1.1269    2.6764   -1.6215 H   0  0  0  0  0  0  0  0  0  0  0  0
   -2.7283    1.1043    2.2394 H   0  0  0  0  0  0  0  0  0  0  0  0
   -1.8050    2.2982    4.1355 H   0  0  0  0  0  0  0  0  0  0  0  0
  1  2  1  0
  2  3  1  0
  3  4  2  0
  4  5  1  0
  5  6  2  0
  6  7  1  0
  7  8  1  0
  8  9  2  0
  8 10  1  0
 10 11  1  0
 11 12  1  0
 11 13  1  0
 11 14  1  0
  7 15  1  0
 15 16  1  0
 16 17  2  0
 16 18  1  0
 18 19  1  0
 19 20  1  0
 20 21  2  0
 20 22  1  0
 22 23  1  0
 23 24  1  0
 24 25  2  0
 25 26  1  0
 25 27  1  0
 27 28  1  0
 15 29  1  0
 29 30  2  0
 30 31  1  0
 31 32  2  0
 32 33  1  0
 33 34  1  0
 33 35  2  0
  6 36  1  0
 36 37  2  0
 37  3  1  0
 28 23  2  0
 35 29  1  0
  1 38  1  0
  1 39  1  0
  1 40  1  0
  4 41  1  0
  5 42  1  0
  7 43  1  0
 10 44  1  0
 12 45  1  0
 12 46  1  0
 12 47  1  0
 13 48  1  0
 13 49  1  0
 13 50  1  0
 14 51  1  0
 14 52  1  0
 14 53  1  0
 18 54  1  0
 18 55  1  0
 19 56  1  0
 19 57  1  0
 22 58  1  0
 24 59  1  0
 26 60  1  0
 26 61  1  0
 26 62  1  0
 30 63  1  0
 31 64  1  0
 32 65  1  0
 35 66  1  0
 36 67  1  0
 37 68  1  0
M  END
$$$$
