
     RDKit          3D

 52 55  0  0  0  0  0  0  0  0999 V2000
   -7.6302    2.0013    0.7297 C   0  0  0  0  0  0  0  0  0  0  0  0
   -6.5202    2.9299    0.2568 C   0  0  0  0  0  0  0  0  0  0  0  0
   -5.3208    2.1660   -0.3009 C   0  0  0  0  0  0  0  0  0  0  0  0
   -4.7438    1.3868    0.7460 O   0  0  0  0  0  0  0  0  0  0  0  0
   -3.6438    0.6376    0.4318 C   0  0  0  0  0  0  0  0  0  0  0  0
   -3.0378    0.5519   -0.8217 C   0  0  0  0  0  0  0  0  0  0  0  0
   -1.9112   -0.2588   -1.0054 C   0  0  0  0  0  0  0  0  0  0  0  0
   -1.3845   -0.9938    0.0621 C   0  0  0  0  0  0  0  0  0  0  0  0
   -0.2103   -1.8339   -0.1311 C   0  0  0  0  0  0  0  0  0  0  0  0
    1.1383   -1.5097   -0.0676 C   0  0  0  0  0  0  0  0  0  0  0  0
    1.7578   -0.2148    0.2060 C   0  0  0  0  0  0  0  0  0  0  0  0
    1.1093    0.8061    0.4099 O   0  0  0  0  0  0  0  0  0  0  0  0
    3.1449   -0.2909    0.1997 N   0  0  0  0  0  0  0  0  0  0  0  0
    3.9068    0.8156    0.4294 N   0  0  0  0  0  0  0  0  0  0  0  0
    5.1871    0.6260    0.3953 C   0  0  0  0  0  0  0  0  0  0  0  0
    6.1425    1.7278    0.6244 C   0  0  0  0  0  0  0  0  0  0  0  0
    5.6909    3.0241    0.8887 C   0  0  0  0  0  0  0  0  0  0  0  0
    6.6134    4.0492    1.1016 C   0  0  0  0  0  0  0  0  0  0  0  0
    7.9815    3.7793    1.0502 C   0  0  0  0  0  0  0  0  0  0  0  0
    8.4313    2.4846    0.7868 C   0  0  0  0  0  0  0  0  0  0  0  0
    7.5129    1.4549    0.5733 C   0  0  0  0  0  0  0  0  0  0  0  0
    1.8872   -2.6337   -0.3085 N   0  0  0  0  0  0  0  0  0  0  0  0
    1.0644   -3.6425   -0.5266 N   0  0  0  0  0  0  0  0  0  0  0  0
   -0.2262   -3.1964   -0.4416 N   0  0  0  0  0  0  0  0  0  0  0  0
   -1.3233   -4.0720   -0.6472 C   0  0  0  0  0  0  0  0  0  0  0  0
   -2.5819   -3.6475   -0.5341 N   0  0  0  0  0  0  0  0  0  0  0  0
   -3.3498   -4.7809   -0.7905 O   0  0  0  0  0  0  0  0  0  0  0  0
   -2.5464   -5.8847   -1.0572 N   0  0  0  0  0  0  0  0  0  0  0  0
   -1.2928   -5.4407   -0.9761 C   0  0  0  0  0  0  0  0  0  0  0  0
   -0.2041   -6.2055   -1.1832 N   0  0  0  0  0  0  0  0  0  0  0  0
   -1.9862   -0.8993    1.3203 C   0  0  0  0  0  0  0  0  0  0  0  0
   -3.1112   -0.0902    1.4985 C   0  0  0  0  0  0  0  0  0  0  0  0
   -8.4800    2.5857    1.0960 H   0  0  0  0  0  0  0  0  0  0  0  0
   -7.9835    1.3650   -0.0882 H   0  0  0  0  0  0  0  0  0  0  0  0
   -7.2897    1.3558    1.5455 H   0  0  0  0  0  0  0  0  0  0  0  0
   -6.2000    3.5478    1.1041 H   0  0  0  0  0  0  0  0  0  0  0  0
   -6.9145    3.5999   -0.5155 H   0  0  0  0  0  0  0  0  0  0  0  0
   -5.6503    1.5181   -1.1223 H   0  0  0  0  0  0  0  0  0  0  0  0
   -4.5876    2.8918   -0.6728 H   0  0  0  0  0  0  0  0  0  0  0  0
   -3.4106    1.1051   -1.6768 H   0  0  0  0  0  0  0  0  0  0  0  0
   -1.4492   -0.3028   -1.9888 H   0  0  0  0  0  0  0  0  0  0  0  0
    3.5855   -1.1872    0.0157 H   0  0  0  0  0  0  0  0  0  0  0  0
    5.6203   -0.3702    0.1924 H   0  0  0  0  0  0  0  0  0  0  0  0
    4.6252    3.2410    0.9302 H   0  0  0  0  0  0  0  0  0  0  0  0
    6.2635    5.0579    1.3076 H   0  0  0  0  0  0  0  0  0  0  0  0
    8.6979    4.5804    1.2164 H   0  0  0  0  0  0  0  0  0  0  0  0
    9.4984    2.2797    0.7485 H   0  0  0  0  0  0  0  0  0  0  0  0
    7.8769    0.4518    0.3699 H   0  0  0  0  0  0  0  0  0  0  0  0
    0.7280   -5.8831   -0.9300 H   0  0  0  0  0  0  0  0  0  0  0  0
   -0.3093   -7.2139   -1.2207 H   0  0  0  0  0  0  0  0  0  0  0  0
   -1.5900   -1.4468    2.1717 H   0  0  0  0  0  0  0  0  0  0  0  0
   -3.5746   -0.0220    2.4797 H   0  0  0  0  0  0  0  0  0  0  0  0
  1  2  1  0
  2  3  1  0
  3  4  1  0
  4  5  1  0
  5  6  2  0
  6  7  1  0
  7  8  2  0
  8  9  1  0
  9 10  2  0
 10 11  1  0
 11 12  2  0
 11 13  1  0
 13 14  1  0
 14 15  2  3
 15 16  1  0
 16 17  2  0
 17 18  1  0
 18 19  2  0
 19 20  1  0
 20 21  2  0
 10 22  1  0
 22 23  2  0
 23 24  1  0
 24 25  1  0
 25 26  2  0
 26 27  1  0
 27 28  1  0
 28 29  2  0
 29 30  1  0
  8 31  1  0
 31 32  2  0
 32  5  1  0
 24  9  1  0
 29 25  1  0
 21 16  1  0
  1 33  1  0
  1 34  1  0
  1 35  1  0
  2 36  1  0
  2 37  1  0
  3 38  1  0
  3 39  1  0
  6 40  1  0
  7 41  1  0
 13 42  1  0
 15 43  1  0
 17 44  1  0
 18 45  1  0
 19 46  1  0
 20 47  1  0
 21 48  1  0
 30 49  1  0
 30 50  1  0
 31 51  1  0
 32 52  1  0
M  END
$$$$
