
     RDKit          3D

 57 61  0  0  0  0  0  0  0  0999 V2000
    0.6171    4.6185    0.1137 O   0  0  0  0  0  0  0  0  0  0  0  0
    0.0217    3.5043    0.8132 C   0  0  0  0  0  0  0  0  0  0  0  0
    1.1508    2.5649    1.2633 C   0  0  0  0  0  0  0  0  0  0  0  0
    1.9338    2.1377    0.1106 N   0  0  0  0  0  0  0  0  0  0  0  0
    2.8278    1.0949    0.1734 C   0  0  0  0  0  0  0  0  0  0  0  0
    2.7333    0.2158    1.1353 N   0  0  0  0  0  0  0  0  0  0  0  0
    3.6418   -0.8598    1.2070 C   0  0  0  0  0  0  0  0  0  0  0  0
    3.5042   -1.7753    2.2519 C   0  0  0  0  0  0  0  0  0  0  0  0
    4.3783   -2.8594    2.3701 C   0  0  0  0  0  0  0  0  0  0  0  0
    5.4030   -3.0382    1.4395 C   0  0  0  0  0  0  0  0  0  0  0  0
    5.5597   -2.1361    0.3865 C   0  0  0  0  0  0  0  0  0  0  0  0
    4.6777   -1.0567    0.2811 C   0  0  0  0  0  0  0  0  0  0  0  0
    4.7609   -0.1045   -0.7481 N   0  0  0  0  0  0  0  0  0  0  0  0
    5.6457   -0.0182   -1.7967 C   0  0  0  0  0  0  0  0  0  0  0  0
    5.3148    1.0885   -2.5495 C   0  0  0  0  0  0  0  0  0  0  0  0
    4.1936    1.6957   -1.9356 C   0  0  0  0  0  0  0  0  0  0  0  0
    3.8719    0.9437   -0.8202 C   0  0  0  0  0  0  0  0  0  0  0  0
   -1.0559    2.8556   -0.0914 C   0  0  0  0  0  0  0  0  0  0  0  0
   -1.9128    1.8730    0.5899 N   0  0  0  0  0  0  0  0  0  0  0  0
   -1.3695    0.4917    0.5300 C   0  0  0  0  0  0  0  0  0  0  0  0
   -2.1220   -0.5173   -0.3740 C   0  0  0  0  0  0  0  0  0  0  0  0
   -3.5569   -0.5584   -0.0563 N   0  0  0  0  0  0  0  0  0  0  0  0
   -4.3446   -1.6570   -0.3593 C   0  0  0  0  0  0  0  0  0  0  0  0
   -5.6088   -1.8425    0.2259 C   0  0  0  0  0  0  0  0  0  0  0  0
   -6.4123   -2.9509   -0.0706 C   0  0  0  0  0  0  0  0  0  0  0  0
   -5.9676   -3.9131   -0.9680 C   0  0  0  0  0  0  0  0  0  0  0  0
   -4.7210   -3.7641   -1.5621 C   0  0  0  0  0  0  0  0  0  0  0  0
   -3.9247   -2.6523   -1.2573 C   0  0  0  0  0  0  0  0  0  0  0  0
   -4.1484    0.6870    0.4543 C   0  0  0  0  0  0  0  0  0  0  0  0
   -3.2909    1.9089    0.0539 C   0  0  0  0  0  0  0  0  0  0  0  0
   -0.0869    5.2784   -0.0154 H   0  0  0  0  0  0  0  0  0  0  0  0
   -0.4612    3.9170    1.7076 H   0  0  0  0  0  0  0  0  0  0  0  0
    1.8220    3.1134    1.9351 H   0  0  0  0  0  0  0  0  0  0  0  0
    0.7469    1.7179    1.8254 H   0  0  0  0  0  0  0  0  0  0  0  0
    2.2078    2.9246   -0.4702 H   0  0  0  0  0  0  0  0  0  0  0  0
    2.7073   -1.6388    2.9782 H   0  0  0  0  0  0  0  0  0  0  0  0
    4.2573   -3.5633    3.1895 H   0  0  0  0  0  0  0  0  0  0  0  0
    6.0801   -3.8834    1.5363 H   0  0  0  0  0  0  0  0  0  0  0  0
    6.3628   -2.2959   -0.3249 H   0  0  0  0  0  0  0  0  0  0  0  0
    6.4367   -0.7407   -1.9357 H   0  0  0  0  0  0  0  0  0  0  0  0
    5.8259    1.4197   -3.4446 H   0  0  0  0  0  0  0  0  0  0  0  0
    3.6785    2.5843   -2.2754 H   0  0  0  0  0  0  0  0  0  0  0  0
   -0.6115    2.4455   -1.0081 H   0  0  0  0  0  0  0  0  0  0  0  0
   -1.6798    3.6892   -0.4456 H   0  0  0  0  0  0  0  0  0  0  0  0
   -1.3984    0.1057    1.5573 H   0  0  0  0  0  0  0  0  0  0  0  0
   -0.3166    0.4782    0.2336 H   0  0  0  0  0  0  0  0  0  0  0  0
   -1.6606   -1.4996   -0.2156 H   0  0  0  0  0  0  0  0  0  0  0  0
   -1.9869   -0.2420   -1.4271 H   0  0  0  0  0  0  0  0  0  0  0  0
   -5.9870   -1.1304    0.9540 H   0  0  0  0  0  0  0  0  0  0  0  0
   -7.3812   -3.0590    0.4090 H   0  0  0  0  0  0  0  0  0  0  0  0
   -6.5866   -4.7747   -1.2003 H   0  0  0  0  0  0  0  0  0  0  0  0
   -4.3606   -4.5085   -2.2670 H   0  0  0  0  0  0  0  0  0  0  0  0
   -2.9659   -2.5732   -1.7614 H   0  0  0  0  0  0  0  0  0  0  0  0
   -5.1508    0.8442    0.0376 H   0  0  0  0  0  0  0  0  0  0  0  0
   -4.2373    0.6311    1.5460 H   0  0  0  0  0  0  0  0  0  0  0  0
   -3.2690    1.9669   -1.0434 H   0  0  0  0  0  0  0  0  0  0  0  0
   -3.7857    2.8172    0.4178 H   0  0  0  0  0  0  0  0  0  0  0  0
  1  2  1  0
  2  3  1  0
  3  4  1  0
  4  5  1  0
  5  6  2  0
  6  7  1  0
  7  8  2  0
  8  9  1  0
  9 10  2  0
 10 11  1  0
 11 12  2  0
 12 13  1  0
 13 14  1  0
 14 15  2  0
 15 16  1  0
 16 17  2  0
  2 18  1  0
 18 19  1  0
 19 20  1  0
 20 21  1  0
 21 22  1  0
 22 23  1  0
 23 24  2  0
 24 25  1  0
 25 26  2  0
 26 27  1  0
 27 28  2  0
 22 29  1  0
 29 30  1  0
 17  5  1  0
 30 19  1  0
 12  7  1  0
 17 13  1  0
 28 23  1  0
  1 31  1  0
  2 32  1  0
  3 33  1  0
  3 34  1  0
  4 35  1  0
  8 36  1  0
  9 37  1  0
 10 38  1  0
 11 39  1  0
 14 40  1  0
 15 41  1  0
 16 42  1  0
 18 43  1  0
 18 44  1  0
 20 45  1  0
 20 46  1  0
 21 47  1  0
 21 48  1  0
 24 49  1  0
 25 50  1  0
 26 51  1  0
 27 52  1  0
 28 53  1  0
 29 54  1  0
 29 55  1  0
 30 56  1  0
 30 57  1  0
M  END
$$$$
