
     RDKit          3D

 68 70  0  0  0  0  0  0  0  0999 V2000
   -5.2058    4.3486    2.7179 C   0  0  0  0  0  0  0  0  0  0  0  0
   -3.8499    4.1289    3.0862 O   0  0  0  0  0  0  0  0  0  0  0  0
   -3.1864    3.1310    2.4265 C   0  0  0  0  0  0  0  0  0  0  0  0
   -3.7527    2.2149    1.5416 C   0  0  0  0  0  0  0  0  0  0  0  0
   -2.9562    1.2444    0.9231 C   0  0  0  0  0  0  0  0  0  0  0  0
   -1.5800    1.1686    1.1897 C   0  0  0  0  0  0  0  0  0  0  0  0
   -0.6776    0.1421    0.4970 C   0  0  0  0  0  0  0  0  0  0  0  0
   -1.3462   -1.2612    0.3555 C   0  0  0  0  0  0  0  0  0  0  0  0
   -1.5298   -1.8309   -0.7163 O   0  0  0  0  0  0  0  0  0  0  0  0
   -1.7143   -1.8267    1.5722 N   0  0  0  0  0  0  0  0  0  0  0  0
   -2.4216   -3.1060    1.7277 C   0  0  0  0  0  0  0  0  0  0  0  0
   -2.5777   -3.3804    3.2359 C   0  0  0  0  0  0  0  0  0  0  0  0
   -3.8205   -3.0306    1.0971 C   0  0  0  0  0  0  0  0  0  0  0  0
   -1.6238   -4.2678    1.1124 C   0  0  0  0  0  0  0  0  0  0  0  0
   -0.0354    0.6814   -0.7280 N   0  0  0  0  0  0  0  0  0  0  0  0
    1.3063    1.0652   -0.6426 C   0  0  0  0  0  0  0  0  0  0  0  0
    1.9519    1.0020    0.4064 O   0  0  0  0  0  0  0  0  0  0  0  0
    1.9573    1.5749   -1.9265 C   0  0  0  0  0  0  0  0  0  0  0  0
    3.4679    1.7243   -1.7664 C   0  0  0  0  0  0  0  0  0  0  0  0
    4.1706    0.3795   -1.6818 C   0  0  0  0  0  0  0  0  0  0  0  0
    3.6353   -0.6634   -2.0445 O   0  0  0  0  0  0  0  0  0  0  0  0
    5.4584    0.5042   -1.2108 N   0  0  0  0  0  0  0  0  0  0  0  0
    6.3410   -0.5347   -1.0202 C   0  0  0  0  0  0  0  0  0  0  0  0
    6.1754   -1.9153   -1.2665 C   0  0  0  0  0  0  0  0  0  0  0  0
    7.3651   -2.4795   -0.8817 C   0  0  0  0  0  0  0  0  0  0  0  0
    7.8923   -3.8556   -0.8612 C   0  0  0  0  0  0  0  0  0  0  0  0
    8.1987   -1.5008   -0.4409 O   0  0  0  0  0  0  0  0  0  0  0  0
    7.5560   -0.2793   -0.5226 N   0  0  0  0  0  0  0  0  0  0  0  0
   -0.8740    1.1905   -1.7588 C   0  0  0  0  0  0  0  0  0  0  0  0
   -1.2040    2.5550   -1.7846 C   0  0  0  0  0  0  0  0  0  0  0  0
   -2.0160    3.0680   -2.7983 C   0  0  0  0  0  0  0  0  0  0  0  0
   -2.4891    2.2215   -3.7979 C   0  0  0  0  0  0  0  0  0  0  0  0
   -2.1452    0.8735   -3.7762 C   0  0  0  0  0  0  0  0  0  0  0  0
   -2.5871    0.0707   -4.7543 F   0  0  0  0  0  0  0  0  0  0  0  0
   -1.3422    0.3499   -2.7681 C   0  0  0  0  0  0  0  0  0  0  0  0
   -1.0179    2.0945    2.0819 C   0  0  0  0  0  0  0  0  0  0  0  0
   -1.8181    3.0607    2.6955 C   0  0  0  0  0  0  0  0  0  0  0  0
   -5.8323    3.4979    3.0041 H   0  0  0  0  0  0  0  0  0  0  0  0
   -5.5637    5.2269    3.2648 H   0  0  0  0  0  0  0  0  0  0  0  0
   -5.2964    4.5650    1.6483 H   0  0  0  0  0  0  0  0  0  0  0  0
   -4.8124    2.2285    1.3073 H   0  0  0  0  0  0  0  0  0  0  0  0
   -3.4243    0.5577    0.2177 H   0  0  0  0  0  0  0  0  0  0  0  0
    0.1288   -0.0770    1.2133 H   0  0  0  0  0  0  0  0  0  0  0  0
   -1.6821   -1.2196    2.3837 H   0  0  0  0  0  0  0  0  0  0  0  0
   -3.0974   -4.3271    3.4196 H   0  0  0  0  0  0  0  0  0  0  0  0
   -1.6008   -3.4312    3.7318 H   0  0  0  0  0  0  0  0  0  0  0  0
   -3.1499   -2.5828    3.7260 H   0  0  0  0  0  0  0  0  0  0  0  0
   -4.3935   -2.1931    1.5119 H   0  0  0  0  0  0  0  0  0  0  0  0
   -3.7724   -2.8883    0.0134 H   0  0  0  0  0  0  0  0  0  0  0  0
   -4.3876   -3.9489    1.2835 H   0  0  0  0  0  0  0  0  0  0  0  0
   -2.1030   -5.2310    1.3238 H   0  0  0  0  0  0  0  0  0  0  0  0
   -1.5427   -4.1821    0.0243 H   0  0  0  0  0  0  0  0  0  0  0  0
   -0.6052   -4.3024    1.5148 H   0  0  0  0  0  0  0  0  0  0  0  0
    1.7237    0.8946   -2.7526 H   0  0  0  0  0  0  0  0  0  0  0  0
    1.5460    2.5633   -2.1559 H   0  0  0  0  0  0  0  0  0  0  0  0
    3.7060    2.3226   -0.8793 H   0  0  0  0  0  0  0  0  0  0  0  0
    3.8721    2.2469   -2.6414 H   0  0  0  0  0  0  0  0  0  0  0  0
    5.8201    1.4035   -0.9242 H   0  0  0  0  0  0  0  0  0  0  0  0
    5.3107   -2.4297   -1.6594 H   0  0  0  0  0  0  0  0  0  0  0  0
    8.3902   -4.0808   -1.8090 H   0  0  0  0  0  0  0  0  0  0  0  0
    7.0869   -4.5815   -0.7133 H   0  0  0  0  0  0  0  0  0  0  0  0
    8.6187   -3.9847   -0.0514 H   0  0  0  0  0  0  0  0  0  0  0  0
   -0.8471    3.2211   -1.0011 H   0  0  0  0  0  0  0  0  0  0  0  0
   -2.2794    4.1229   -2.8054 H   0  0  0  0  0  0  0  0  0  0  0  0
   -3.1184    2.5998   -4.5974 H   0  0  0  0  0  0  0  0  0  0  0  0
   -1.0785   -0.7026   -2.7989 H   0  0  0  0  0  0  0  0  0  0  0  0
    0.0494    2.0757    2.2980 H   0  0  0  0  0  0  0  0  0  0  0  0
   -1.3704    3.7741    3.3842 H   0  0  0  0  0  0  0  0  0  0  0  0
  1  2  1  0
  2  3  1  0
  3  4  2  0
  4  5  1  0
  5  6  2  0
  6  7  1  0
  7  8  1  0
  8  9  2  0
  8 10  1  0
 10 11  1  0
 11 12  1  0
 11 13  1  0
 11 14  1  0
  7 15  1  0
 15 16  1  0
 16 17  2  0
 16 18  1  0
 18 19  1  0
 19 20  1  0
 20 21  2  0
 20 22  1  0
 22 23  1  0
 23 24  1  0
 24 25  2  0
 25 26  1  0
 25 27  1  0
 27 28  1  0
 15 29  1  0
 29 30  2  0
 30 31  1  0
 31 32  2  0
 32 33  1  0
 33 34  1  0
 33 35  2  0
  6 36  1  0
 36 37  2  0
 37  3  1  0
 28 23  2  0
 35 29  1  0
  1 38  1  0
  1 39  1  0
  1 40  1  0
  4 41  1  0
  5 42  1  0
  7 43  1  0
 10 44  1  0
 12 45  1  0
 12 46  1  0
 12 47  1  0
 13 48  1  0
 13 49  1  0
 13 50  1  0
 14 51  1  0
 14 52  1  0
 14 53  1  0
 18 54  1  0
 18 55  1  0
 19 56  1  0
 19 57  1  0
 22 58  1  0
 24 59  1  0
 26 60  1  0
 26 61  1  0
 26 62  1  0
 30 63  1  0
 31 64  1  0
 32 65  1  0
 35 66  1  0
 36 67  1  0
 37 68  1  0
M  END
$$$$
