
     RDKit          3D

 51 54  0  0  0  0  0  0  0  0999 V2000
   -6.5054   -1.3259   -0.6360 C   0  0  0  0  0  0  0  0  0  0  0  0
   -6.6748   -0.0617    0.1926 C   0  0  0  0  0  0  0  0  0  0  0  0
   -5.7599    0.9959   -0.2567 N   0  0  0  0  0  0  0  0  0  0  0  0
   -6.3766    2.1712   -0.8867 C   0  0  0  0  0  0  0  0  0  0  0  0
   -6.6326    1.9362   -2.3667 C   0  0  0  0  0  0  0  0  0  0  0  0
   -4.3889    0.9345   -0.0301 C   0  0  0  0  0  0  0  0  0  0  0  0
   -3.4734    1.7137   -0.7717 C   0  0  0  0  0  0  0  0  0  0  0  0
   -2.0848    1.6551   -0.5650 C   0  0  0  0  0  0  0  0  0  0  0  0
   -1.5636    0.8083    0.4049 C   0  0  0  0  0  0  0  0  0  0  0  0
   -0.1401    0.6948    0.6650 C   0  0  0  0  0  0  0  0  0  0  0  0
    0.3161   -0.1084    1.6386 C   0  0  0  0  0  0  0  0  0  0  0  0
    1.7277   -0.1975    1.8319 C   0  0  0  0  0  0  0  0  0  0  0  0
    2.6203   -0.3621    0.8721 N   0  0  0  0  0  0  0  0  0  0  0  0
    3.9080   -0.3947    1.3781 C   0  0  0  0  0  0  0  0  0  0  0  0
    5.0505   -0.6779    0.5181 C   0  0  0  0  0  0  0  0  0  0  0  0
    6.3174   -0.1299    0.7612 C   0  0  0  0  0  0  0  0  0  0  0  0
    7.4050   -0.4467   -0.0693 C   0  0  0  0  0  0  0  0  0  0  0  0
    7.2385   -1.3200   -1.1458 C   0  0  0  0  0  0  0  0  0  0  0  0
    8.2138   -1.7271   -2.0086 O   0  0  0  0  0  0  0  0  0  0  0  0
    9.5366   -1.2744   -1.7507 C   0  0  0  0  0  0  0  0  0  0  0  0
    5.9736   -1.8535   -1.3994 C   0  0  0  0  0  0  0  0  0  0  0  0
    4.8871   -1.5335   -0.5786 C   0  0  0  0  0  0  0  0  0  0  0  0
    3.9939   -0.1703    2.7389 C   0  0  0  0  0  0  0  0  0  0  0  0
    2.4294    0.0285    3.3988 S   0  0  0  0  0  0  0  0  0  0  0  0
   -0.6151   -0.9327    2.4544 C   0  0  0  0  0  0  0  0  0  0  0  0
   -0.2382   -1.6944    3.3380 O   0  0  0  0  0  0  0  0  0  0  0  0
   -1.9745   -0.8157    2.1641 O   0  0  0  0  0  0  0  0  0  0  0  0
   -2.4469    0.0427    1.1522 C   0  0  0  0  0  0  0  0  0  0  0  0
   -3.8288    0.0910    0.9430 C   0  0  0  0  0  0  0  0  0  0  0  0
   -7.2217   -2.0875   -0.3168 H   0  0  0  0  0  0  0  0  0  0  0  0
   -5.4987   -1.7490   -0.5405 H   0  0  0  0  0  0  0  0  0  0  0  0
   -6.6834   -1.1215   -1.6989 H   0  0  0  0  0  0  0  0  0  0  0  0
   -6.5524   -0.2692    1.2599 H   0  0  0  0  0  0  0  0  0  0  0  0
   -7.7160    0.2721    0.0859 H   0  0  0  0  0  0  0  0  0  0  0  0
   -5.7704    3.0749   -0.7449 H   0  0  0  0  0  0  0  0  0  0  0  0
   -7.3317    2.3957   -0.3926 H   0  0  0  0  0  0  0  0  0  0  0  0
   -7.3385    1.1110   -2.5196 H   0  0  0  0  0  0  0  0  0  0  0  0
   -7.0637    2.8337   -2.8198 H   0  0  0  0  0  0  0  0  0  0  0  0
   -5.7125    1.6939   -2.9045 H   0  0  0  0  0  0  0  0  0  0  0  0
   -3.8212    2.3756   -1.5615 H   0  0  0  0  0  0  0  0  0  0  0  0
   -1.4344    2.2782   -1.1704 H   0  0  0  0  0  0  0  0  0  0  0  0
    0.5379    1.2774    0.0486 H   0  0  0  0  0  0  0  0  0  0  0  0
    6.4789    0.5585    1.5888 H   0  0  0  0  0  0  0  0  0  0  0  0
    8.3653    0.0061    0.1576 H   0  0  0  0  0  0  0  0  0  0  0  0
    9.6131   -0.1898   -1.8916 H   0  0  0  0  0  0  0  0  0  0  0  0
   10.2026   -1.7556   -2.4762 H   0  0  0  0  0  0  0  0  0  0  0  0
    9.8712   -1.5687   -0.7477 H   0  0  0  0  0  0  0  0  0  0  0  0
    5.8316   -2.5325   -2.2353 H   0  0  0  0  0  0  0  0  0  0  0  0
    3.9132   -1.9697   -0.7930 H   0  0  0  0  0  0  0  0  0  0  0  0
    4.8678   -0.1430    3.3686 H   0  0  0  0  0  0  0  0  0  0  0  0
   -4.4511   -0.5363    1.5721 H   0  0  0  0  0  0  0  0  0  0  0  0
  1  2  1  0
  2  3  1  0
  3  4  1  0
  4  5  1  0
  3  6  1  0
  6  7  2  0
  7  8  1  0
  8  9  2  0
  9 10  1  0
 10 11  2  0
 11 12  1  0
 12 13  2  0
 13 14  1  0
 14 15  1  0
 15 16  2  0
 16 17  1  0
 17 18  2  0
 18 19  1  0
 19 20  1  0
 18 21  1  0
 21 22  2  0
 14 23  2  0
 23 24  1  0
 11 25  1  0
 25 26  2  0
 25 27  1  0
 27 28  1  0
 28 29  2  0
 29  6  1  0
 28  9  1  0
 24 12  1  0
 22 15  1  0
  1 30  1  0
  1 31  1  0
  1 32  1  0
  2 33  1  0
  2 34  1  0
  4 35  1  0
  4 36  1  0
  5 37  1  0
  5 38  1  0
  5 39  1  0
  7 40  1  0
  8 41  1  0
 10 42  1  0
 16 43  1  0
 17 44  1  0
 20 45  1  0
 20 46  1  0
 20 47  1  0
 21 48  1  0
 22 49  1  0
 23 50  1  0
 29 51  1  0
M  END
$$$$
