
     RDKit          3D

 59 62  0  0  0  0  0  0  0  0999 V2000
    7.6903    3.1272   -1.9752 C   0  0  0  0  0  0  0  0  0  0  0  0
    7.9812    2.6835   -0.6462 O   0  0  0  0  0  0  0  0  0  0  0  0
    7.0304    1.8973   -0.0491 C   0  0  0  0  0  0  0  0  0  0  0  0
    5.8280    1.4784   -0.6254 C   0  0  0  0  0  0  0  0  0  0  0  0
    4.9456    0.6601    0.0919 C   0  0  0  0  0  0  0  0  0  0  0  0
    5.2626    0.2478    1.3900 C   0  0  0  0  0  0  0  0  0  0  0  0
    4.3803   -0.6577    2.1794 C   0  0  0  0  0  0  0  0  0  0  0  0
    4.3724   -0.5388    3.4055 O   0  0  0  0  0  0  0  0  0  0  0  0
    3.6539   -1.7789    1.4540 C   0  0  0  0  0  0  0  0  0  0  0  0
    1.9595   -1.9942    2.0731 S   0  0  0  0  0  0  0  0  0  0  0  0
    1.1112   -0.8683    1.0768 C   0  0  0  0  0  0  0  0  0  0  0  0
    1.6234    0.1951    0.5057 N   0  0  0  0  0  0  0  0  0  0  0  0
    0.6363    0.7877   -0.2428 N   0  0  0  0  0  0  0  0  0  0  0  0
   -0.4627    0.0655   -0.1149 C   0  0  0  0  0  0  0  0  0  0  0  0
   -1.7743    0.3155   -0.7835 C   0  0  0  0  0  0  0  0  0  0  0  0
   -2.8223    0.7269    0.1531 N   0  0  0  0  0  0  0  0  0  0  0  0
   -4.1356    0.9248   -0.3006 C   0  0  0  0  0  0  0  0  0  0  0  0
   -4.6114    0.3806   -1.5016 C   0  0  0  0  0  0  0  0  0  0  0  0
   -5.9430    0.5390   -1.9065 C   0  0  0  0  0  0  0  0  0  0  0  0
   -6.8472    1.2363   -1.1078 C   0  0  0  0  0  0  0  0  0  0  0  0
   -8.2807    1.3800   -1.5286 C   0  0  0  0  0  0  0  0  0  0  0  0
   -6.4064    1.7347    0.1222 C   0  0  0  0  0  0  0  0  0  0  0  0
   -5.0706    1.5716    0.5406 C   0  0  0  0  0  0  0  0  0  0  0  0
   -4.6769    2.1050    1.8935 C   0  0  0  0  0  0  0  0  0  0  0  0
   -0.2118   -0.9842    0.7423 N   0  0  0  0  0  0  0  0  0  0  0  0
   -1.1579   -1.9831    1.1945 C   0  0  0  0  0  0  0  0  0  0  0  0
   -0.9910   -3.2565    0.4462 C   0  0  0  0  0  0  0  0  0  0  0  0
   -0.6882   -4.5446    0.8355 C   0  0  0  0  0  0  0  0  0  0  0  0
   -0.7079   -5.3356   -0.3441 C   0  0  0  0  0  0  0  0  0  0  0  0
   -1.0143   -4.4775   -1.3774 C   0  0  0  0  0  0  0  0  0  0  0  0
   -1.1888   -3.2142   -0.9073 O   0  0  0  0  0  0  0  0  0  0  0  0
    6.4558    0.6908    1.9771 C   0  0  0  0  0  0  0  0  0  0  0  0
    7.3346    1.5046    1.2578 C   0  0  0  0  0  0  0  0  0  0  0  0
    8.5251    3.7546   -2.3109 H   0  0  0  0  0  0  0  0  0  0  0  0
    7.6129    2.2747   -2.6724 H   0  0  0  0  0  0  0  0  0  0  0  0
    6.7767    3.7479   -2.0022 H   0  0  0  0  0  0  0  0  0  0  0  0
    5.5386    1.7759   -1.6290 H   0  0  0  0  0  0  0  0  0  0  0  0
    4.0056    0.3852   -0.3795 H   0  0  0  0  0  0  0  0  0  0  0  0
    4.2110   -2.7010    1.6572 H   0  0  0  0  0  0  0  0  0  0  0  0
    3.6532   -1.6546    0.3703 H   0  0  0  0  0  0  0  0  0  0  0  0
   -1.6362    1.1005   -1.5401 H   0  0  0  0  0  0  0  0  0  0  0  0
   -2.0524   -0.6074   -1.3089 H   0  0  0  0  0  0  0  0  0  0  0  0
   -2.5116    1.5350    0.6930 H   0  0  0  0  0  0  0  0  0  0  0  0
   -3.9625   -0.1829   -2.1639 H   0  0  0  0  0  0  0  0  0  0  0  0
   -6.2668    0.1045   -2.8509 H   0  0  0  0  0  0  0  0  0  0  0  0
   -8.3544    1.5271   -2.6120 H   0  0  0  0  0  0  0  0  0  0  0  0
   -8.7499    2.2478   -1.0527 H   0  0  0  0  0  0  0  0  0  0  0  0
   -8.8435    0.4813   -1.2531 H   0  0  0  0  0  0  0  0  0  0  0  0
   -7.1145    2.2472    0.7715 H   0  0  0  0  0  0  0  0  0  0  0  0
   -3.9832    2.9440    1.7840 H   0  0  0  0  0  0  0  0  0  0  0  0
   -4.2077    1.3175    2.4907 H   0  0  0  0  0  0  0  0  0  0  0  0
   -5.5483    2.4606    2.4566 H   0  0  0  0  0  0  0  0  0  0  0  0
   -1.0138   -2.1245    2.2720 H   0  0  0  0  0  0  0  0  0  0  0  0
   -2.1777   -1.6080    1.0608 H   0  0  0  0  0  0  0  0  0  0  0  0
   -0.4866   -4.8765    1.8483 H   0  0  0  0  0  0  0  0  0  0  0  0
   -0.5240   -6.3978   -0.4335 H   0  0  0  0  0  0  0  0  0  0  0  0
   -1.1364   -4.6045   -2.4488 H   0  0  0  0  0  0  0  0  0  0  0  0
    6.7105    0.3964    2.9943 H   0  0  0  0  0  0  0  0  0  0  0  0
    8.2613    1.8381    1.7193 H   0  0  0  0  0  0  0  0  0  0  0  0
  1  2  1  0
  2  3  1  0
  3  4  2  0
  4  5  1  0
  5  6  2  0
  6  7  1  0
  7  8  2  0
  7  9  1  0
  9 10  1  0
 10 11  1  0
 11 12  2  0
 12 13  1  0
 13 14  2  0
 14 15  1  0
 15 16  1  0
 16 17  1  0
 17 18  2  0
 18 19  1  0
 19 20  2  0
 20 21  1  0
 20 22  1  0
 22 23  2  0
 23 24  1  0
 14 25  1  0
 25 26  1  0
 26 27  1  0
 27 28  2  0
 28 29  1  0
 29 30  2  0
 30 31  1  0
  6 32  1  0
 32 33  2  0
 33  3  1  0
 25 11  1  0
 31 27  1  0
 23 17  1  0
  1 34  1  0
  1 35  1  0
  1 36  1  0
  4 37  1  0
  5 38  1  0
  9 39  1  0
  9 40  1  0
 15 41  1  0
 15 42  1  0
 16 43  1  0
 18 44  1  0
 19 45  1  0
 21 46  1  0
 21 47  1  0
 21 48  1  0
 22 49  1  0
 24 50  1  0
 24 51  1  0
 24 52  1  0
 26 53  1  0
 26 54  1  0
 28 55  1  0
 29 56  1  0
 30 57  1  0
 32 58  1  0
 33 59  1  0
M  END
$$$$
