
     RDKit          3D

 37 39  0  0  0  0  0  0  0  0999 V2000
   -6.6457    2.1539    0.0661 C   0  0  0  0  0  0  0  0  0  0  0  0
   -5.3635    2.3603   -0.7239 C   0  0  0  0  0  0  0  0  0  0  0  0
   -4.2137    1.6464   -0.0960 C   0  0  0  0  0  0  0  0  0  0  0  0
   -3.4856    2.1207    0.8937 N   0  0  0  0  0  0  0  0  0  0  0  0
   -2.4890    1.2410    1.2671 N   0  0  0  0  0  0  0  0  0  0  0  0
   -2.5005    0.1410    0.5469 C   0  0  0  0  0  0  0  0  0  0  0  0
   -1.5996   -0.8720    0.7451 N   0  0  0  0  0  0  0  0  0  0  0  0
   -1.4805   -2.0383    0.0248 C   0  0  0  0  0  0  0  0  0  0  0  0
   -2.1775   -2.4033   -0.9169 O   0  0  0  0  0  0  0  0  0  0  0  0
   -0.3545   -2.9373    0.5493 C   0  0  0  0  0  0  0  0  0  0  0  0
    0.6708   -2.2518    1.2564 O   0  0  0  0  0  0  0  0  0  0  0  0
    1.6424   -1.6191    0.5287 C   0  0  0  0  0  0  0  0  0  0  0  0
    1.6674   -1.4681   -0.8557 C   0  0  0  0  0  0  0  0  0  0  0  0
    2.7187   -0.7745   -1.4657 C   0  0  0  0  0  0  0  0  0  0  0  0
    3.7589   -0.2220   -0.7030 C   0  0  0  0  0  0  0  0  0  0  0  0
    4.8196    0.4762   -1.3033 C   0  0  0  0  0  0  0  0  0  0  0  0
    5.8449    1.0204   -0.5276 C   0  0  0  0  0  0  0  0  0  0  0  0
    5.8231    0.8741    0.8564 C   0  0  0  0  0  0  0  0  0  0  0  0
    4.7757    0.1818    1.4673 C   0  0  0  0  0  0  0  0  0  0  0  0
    3.7363   -0.3714    0.7004 C   0  0  0  0  0  0  0  0  0  0  0  0
    2.6733   -1.0690    1.2972 C   0  0  0  0  0  0  0  0  0  0  0  0
   -3.7269    0.0898   -0.6338 S   0  0  0  0  0  0  0  0  0  0  0  0
   -6.5409    2.5229    1.0925 H   0  0  0  0  0  0  0  0  0  0  0  0
   -7.4735    2.6935   -0.4051 H   0  0  0  0  0  0  0  0  0  0  0  0
   -6.9157    1.0933    0.1170 H   0  0  0  0  0  0  0  0  0  0  0  0
   -5.1358    3.4319   -0.7689 H   0  0  0  0  0  0  0  0  0  0  0  0
   -5.5113    2.0278   -1.7580 H   0  0  0  0  0  0  0  0  0  0  0  0
   -0.9131   -0.6831    1.4672 H   0  0  0  0  0  0  0  0  0  0  0  0
   -0.8193   -3.6301    1.2602 H   0  0  0  0  0  0  0  0  0  0  0  0
    0.0548   -3.5495   -0.2625 H   0  0  0  0  0  0  0  0  0  0  0  0
    0.8899   -1.8654   -1.5010 H   0  0  0  0  0  0  0  0  0  0  0  0
    2.7170   -0.6637   -2.5488 H   0  0  0  0  0  0  0  0  0  0  0  0
    4.8541    0.6005   -2.3830 H   0  0  0  0  0  0  0  0  0  0  0  0
    6.6588    1.5588   -1.0053 H   0  0  0  0  0  0  0  0  0  0  0  0
    6.6199    1.2993    1.4606 H   0  0  0  0  0  0  0  0  0  0  0  0
    4.7759    0.0749    2.5501 H   0  0  0  0  0  0  0  0  0  0  0  0
    2.6451   -1.1896    2.3785 H   0  0  0  0  0  0  0  0  0  0  0  0
  1  2  1  0
  2  3  1  0
  3  4  2  0
  4  5  1  0
  5  6  2  0
  6  7  1  0
  7  8  1  0
  8  9  2  0
  8 10  1  0
 10 11  1  0
 11 12  1  0
 12 13  2  0
 13 14  1  0
 14 15  2  0
 15 16  1  0
 16 17  2  0
 17 18  1  0
 18 19  2  0
 19 20  1  0
 20 21  2  0
  6 22  1  0
 22  3  1  0
 21 12  1  0
 20 15  1  0
  1 23  1  0
  1 24  1  0
  1 25  1  0
  2 26  1  0
  2 27  1  0
  7 28  1  0
 10 29  1  0
 10 30  1  0
 13 31  1  0
 14 32  1  0
 16 33  1  0
 17 34  1  0
 18 35  1  0
 19 36  1  0
 21 37  1  0
M  END
$$$$
