
     RDKit          3D

 40 42  0  0  0  0  0  0  0  0999 V2000
   -4.6577   -2.1163    0.7984 C   0  0  0  0  0  0  0  0  0  0  0  0
   -3.4757   -1.2635    0.7092 N   0  0  0  0  0  0  0  0  0  0  0  0
   -2.4539   -1.4973    1.6430 C   0  0  0  0  0  0  0  0  0  0  0  0
   -2.6245   -2.1264    2.6886 O   0  0  0  0  0  0  0  0  0  0  0  0
   -1.0573   -1.0782    1.3400 C   0  0  0  0  0  0  0  0  0  0  0  0
   -0.2506   -0.6229    2.3872 C   0  0  0  0  0  0  0  0  0  0  0  0
    1.0741   -0.2499    2.1400 C   0  0  0  0  0  0  0  0  0  0  0  0
    1.6143   -0.3410    0.8502 C   0  0  0  0  0  0  0  0  0  0  0  0
    2.9536    0.0570    0.6896 N   0  0  0  0  0  0  0  0  0  0  0  0
    3.7164    0.0712   -0.4651 C   0  0  0  0  0  0  0  0  0  0  0  0
    3.3317   -0.2698   -1.5786 O   0  0  0  0  0  0  0  0  0  0  0  0
    5.0687    0.5482   -0.2310 C   0  0  0  0  0  0  0  0  0  0  0  0
    6.1369    0.7152   -1.0921 C   0  0  0  0  0  0  0  0  0  0  0  0
    7.2124    1.2121   -0.3181 C   0  0  0  0  0  0  0  0  0  0  0  0
    6.7403    1.3200    0.9683 C   0  0  0  0  0  0  0  0  0  0  0  0
    5.4435    0.9219    1.0363 O   0  0  0  0  0  0  0  0  0  0  0  0
    0.8116   -0.8218   -0.1866 C   0  0  0  0  0  0  0  0  0  0  0  0
   -0.5150   -1.1993    0.0568 C   0  0  0  0  0  0  0  0  0  0  0  0
   -3.5427   -0.1397   -0.1803 C   0  0  0  0  0  0  0  0  0  0  0  0
   -4.3013   -0.2075   -1.3596 C   0  0  0  0  0  0  0  0  0  0  0  0
   -4.3835    0.8843   -2.2303 C   0  0  0  0  0  0  0  0  0  0  0  0
   -3.7203    2.0692   -1.9290 C   0  0  0  0  0  0  0  0  0  0  0  0
   -2.9836    2.1650   -0.7532 C   0  0  0  0  0  0  0  0  0  0  0  0
   -2.9018    1.0721    0.1163 C   0  0  0  0  0  0  0  0  0  0  0  0
   -4.7144   -2.7453   -0.0952 H   0  0  0  0  0  0  0  0  0  0  0  0
   -5.5574   -1.4983    0.8861 H   0  0  0  0  0  0  0  0  0  0  0  0
   -4.6193   -2.7824    1.6651 H   0  0  0  0  0  0  0  0  0  0  0  0
   -0.6516   -0.5608    3.3968 H   0  0  0  0  0  0  0  0  0  0  0  0
    1.6762    0.1056    2.9727 H   0  0  0  0  0  0  0  0  0  0  0  0
    3.4430    0.3790    1.5181 H   0  0  0  0  0  0  0  0  0  0  0  0
    6.1258    0.4988   -2.1522 H   0  0  0  0  0  0  0  0  0  0  0  0
    8.2090    1.4606   -0.6559 H   0  0  0  0  0  0  0  0  0  0  0  0
    7.1799    1.6465    1.9010 H   0  0  0  0  0  0  0  0  0  0  0  0
    1.1865   -0.9248   -1.2003 H   0  0  0  0  0  0  0  0  0  0  0  0
   -1.1111   -1.5910   -0.7636 H   0  0  0  0  0  0  0  0  0  0  0  0
   -4.8200   -1.1183   -1.6438 H   0  0  0  0  0  0  0  0  0  0  0  0
   -4.9641    0.8047   -3.1459 H   0  0  0  0  0  0  0  0  0  0  0  0
   -3.7834    2.9182   -2.6045 H   0  0  0  0  0  0  0  0  0  0  0  0
   -2.4772    3.0938   -0.5028 H   0  0  0  0  0  0  0  0  0  0  0  0
   -2.3579    1.2111    1.0458 H   0  0  0  0  0  0  0  0  0  0  0  0
  1  2  1  0
  2  3  1  0
  3  4  2  0
  3  5  1  0
  5  6  2  0
  6  7  1  0
  7  8  2  0
  8  9  1  0
  9 10  1  0
 10 11  2  0
 10 12  1  0
 12 13  2  0
 13 14  1  0
 14 15  2  0
 15 16  1  0
  8 17  1  0
 17 18  2  0
  2 19  1  0
 19 20  2  0
 20 21  1  0
 21 22  2  0
 22 23  1  0
 23 24  2  0
 18  5  1  0
 24 19  1  0
 16 12  1  0
  1 25  1  0
  1 26  1  0
  1 27  1  0
  6 28  1  0
  7 29  1  0
  9 30  1  0
 13 31  1  0
 14 32  1  0
 15 33  1  0
 17 34  1  0
 18 35  1  0
 20 36  1  0
 21 37  1  0
 22 38  1  0
 23 39  1  0
 24 40  1  0
M  END
$$$$
