
     RDKit          3D

 60 65  0  0  0  0  0  0  0  0999 V2000
   -1.8793    1.5057   -3.1355 O   0  0  0  0  0  0  0  0  0  0  0  0
   -2.1974    0.9591   -2.0845 C   0  0  0  0  0  0  0  0  0  0  0  0
   -1.2524    0.6205   -1.1220 N   0  0  0  0  0  0  0  0  0  0  0  0
   -1.5543    0.0054    0.0887 C   0  0  0  0  0  0  0  0  0  0  0  0
   -0.3815   -0.2871    1.0152 C   0  0  0  0  0  0  0  0  0  0  0  0
    0.3495    0.9994    1.4331 C   0  0  0  0  0  0  0  0  0  0  0  0
    1.8244    0.9957    1.0375 C   0  0  0  0  0  0  0  0  0  0  0  0
    2.4588   -0.2248    1.5632 N   0  0  0  0  0  0  0  0  0  0  0  0
    4.1482   -0.2271    1.7638 S   0  0  0  0  0  6  0  0  0  0  0  0
    4.5206   -1.4735    2.3984 O   0  0  0  0  0  0  0  0  0  0  0  0
    4.5384    1.0490    2.3248 O   0  0  0  0  0  0  0  0  0  0  0  0
    4.7432   -0.2730    0.0843 C   0  0  0  0  0  0  0  0  0  0  0  0
    4.9822    0.9268   -0.5962 C   0  0  0  0  0  0  0  0  0  0  0  0
    5.4681    0.8910   -1.9042 C   0  0  0  0  0  0  0  0  0  0  0  0
    5.7265   -0.3352   -2.5168 C   0  0  0  0  0  0  0  0  0  0  0  0
    5.4825   -1.5311   -1.8314 C   0  0  0  0  0  0  0  0  0  0  0  0
    5.0154   -1.5043   -0.5192 C   0  0  0  0  0  0  0  0  0  0  0  0
    5.6883   -2.7687   -2.3837 O   0  0  0  0  0  0  0  0  0  0  0  0
    5.8575   -2.6909   -3.8054 C   0  0  0  0  0  0  0  0  0  0  0  0
    6.7904   -1.5505   -4.1750 C   0  0  0  0  0  0  0  0  0  0  0  0
    6.2193   -0.2921   -3.7960 O   0  0  0  0  0  0  0  0  0  0  0  0
    1.8107   -1.5137    1.2316 C   0  0  0  0  0  0  0  0  0  0  0  0
    0.5584   -1.3190    0.3856 C   0  0  0  0  0  0  0  0  0  0  0  0
   -2.7603   -0.3300    0.4578 N   0  0  0  0  0  0  0  0  0  0  0  0
   -3.7024   -0.0101   -0.4644 C   0  0  0  0  0  0  0  0  0  0  0  0
   -3.5293    0.5938   -1.6866 C   0  0  0  0  0  0  0  0  0  0  0  0
   -4.7210    0.7301   -2.3273 N   0  0  0  0  0  0  0  0  0  0  0  0
   -5.6606    0.2230   -1.5285 N   0  0  0  0  0  0  0  0  0  0  0  0
   -5.0533   -0.2097   -0.3959 N   0  0  0  0  0  0  0  0  0  0  0  0
   -5.8088   -0.8518    0.6601 C   0  0  0  0  0  0  0  0  0  0  0  0
   -6.2906    0.1418    1.6812 C   0  0  0  0  0  0  0  0  0  0  0  0
   -5.4359    0.6285    2.6831 C   0  0  0  0  0  0  0  0  0  0  0  0
   -5.8977    1.5633    3.6147 C   0  0  0  0  0  0  0  0  0  0  0  0
   -7.2143    2.0221    3.5558 C   0  0  0  0  0  0  0  0  0  0  0  0
   -8.0706    1.5459    2.5648 C   0  0  0  0  0  0  0  0  0  0  0  0
   -7.6048    0.6157    1.6390 C   0  0  0  0  0  0  0  0  0  0  0  0
   -8.4480    0.1630    0.6986 F   0  0  0  0  0  0  0  0  0  0  0  0
   -0.3053    0.8657   -1.3704 H   0  0  0  0  0  0  0  0  0  0  0  0
   -0.8064   -0.7330    1.9273 H   0  0  0  0  0  0  0  0  0  0  0  0
   -0.1362    1.8967    1.0311 H   0  0  0  0  0  0  0  0  0  0  0  0
    0.2839    1.0887    2.5272 H   0  0  0  0  0  0  0  0  0  0  0  0
    1.9330    1.0443   -0.0518 H   0  0  0  0  0  0  0  0  0  0  0  0
    2.2933    1.8894    1.4613 H   0  0  0  0  0  0  0  0  0  0  0  0
    4.8071    1.8860   -0.1130 H   0  0  0  0  0  0  0  0  0  0  0  0
    5.6649    1.8158   -2.4398 H   0  0  0  0  0  0  0  0  0  0  0  0
    4.8635   -2.4382    0.0176 H   0  0  0  0  0  0  0  0  0  0  0  0
    6.2736   -3.6457   -4.1442 H   0  0  0  0  0  0  0  0  0  0  0  0
    4.8682   -2.5656   -4.2658 H   0  0  0  0  0  0  0  0  0  0  0  0
    7.7663   -1.6527   -3.6848 H   0  0  0  0  0  0  0  0  0  0  0  0
    6.9519   -1.5296   -5.2570 H   0  0  0  0  0  0  0  0  0  0  0  0
    2.4922   -2.1767    0.6915 H   0  0  0  0  0  0  0  0  0  0  0  0
    1.5475   -2.0086    2.1747 H   0  0  0  0  0  0  0  0  0  0  0  0
    0.8510   -1.0142   -0.6273 H   0  0  0  0  0  0  0  0  0  0  0  0
    0.0377   -2.2776    0.2703 H   0  0  0  0  0  0  0  0  0  0  0  0
   -5.1648   -1.6030    1.1326 H   0  0  0  0  0  0  0  0  0  0  0  0
   -6.6402   -1.3959    0.1972 H   0  0  0  0  0  0  0  0  0  0  0  0
   -4.4031    0.2862    2.7428 H   0  0  0  0  0  0  0  0  0  0  0  0
   -5.2277    1.9364    4.3865 H   0  0  0  0  0  0  0  0  0  0  0  0
   -7.5728    2.7502    4.2807 H   0  0  0  0  0  0  0  0  0  0  0  0
   -9.0973    1.8938    2.5050 H   0  0  0  0  0  0  0  0  0  0  0  0
  1  2  2  0
  2  3  1  0
  3  4  1  0
  4  5  1  0
  5  6  1  0
  6  7  1  0
  7  8  1  0
  8  9  1  0
  9 10  2  0
  9 11  2  0
  9 12  1  0
 12 13  2  0
 13 14  1  0
 14 15  2  0
 15 16  1  0
 16 17  2  0
 16 18  1  0
 18 19  1  0
 19 20  1  0
 20 21  1  0
  8 22  1  0
 22 23  1  0
  4 24  2  0
 24 25  1  0
 25 26  2  0
 26 27  1  0
 27 28  2  0
 28 29  1  0
 29 30  1  0
 30 31  1  0
 31 32  2  0
 32 33  1  0
 33 34  2  0
 34 35  1  0
 35 36  2  0
 36 37  1  0
 26  2  1  0
 36 31  1  0
 23  5  1  0
 29 25  1  0
 17 12  1  0
 21 15  1  0
  3 38  1  0
  5 39  1  0
  6 40  1  0
  6 41  1  0
  7 42  1  0
  7 43  1  0
 13 44  1  0
 14 45  1  0
 17 46  1  0
 19 47  1  0
 19 48  1  0
 20 49  1  0
 20 50  1  0
 22 51  1  0
 22 52  1  0
 23 53  1  0
 23 54  1  0
 30 55  1  0
 30 56  1  0
 32 57  1  0
 33 58  1  0
 34 59  1  0
 35 60  1  0
M  END
$$$$
