
     RDKit          3D

 49 51  0  0  0  0  0  0  0  0999 V2000
    5.1109   -1.2414   -0.7104 C   0  0  0  0  0  0  0  0  0  0  0  0
    4.0940   -0.6952   -1.5421 O   0  0  0  0  0  0  0  0  0  0  0  0
    3.3601    0.3448   -1.0277 C   0  0  0  0  0  0  0  0  0  0  0  0
    3.7266    1.0809    0.1071 C   0  0  0  0  0  0  0  0  0  0  0  0
    2.9189    2.1227    0.5665 C   0  0  0  0  0  0  0  0  0  0  0  0
    1.7466    2.4332   -0.1196 C   0  0  0  0  0  0  0  0  0  0  0  0
    0.7011    3.7398    0.4706 S   0  0  0  0  0  6  0  0  0  0  0  0
    1.5323    4.6784    1.1950 O   0  0  0  0  0  0  0  0  0  0  0  0
   -0.1473    4.1906   -0.6131 O   0  0  0  0  0  0  0  0  0  0  0  0
   -0.2491    2.9660    1.6345 N   0  0  0  0  0  0  0  0  0  0  0  0
   -1.2307    2.0403    1.1880 C   0  0  0  0  0  0  0  0  0  0  0  0
   -2.4666    2.4832    0.7504 C   0  0  0  0  0  0  0  0  0  0  0  0
   -3.3858    1.5532    0.2810 C   0  0  0  0  0  0  0  0  0  0  0  0
   -3.0691    0.1805    0.2424 C   0  0  0  0  0  0  0  0  0  0  0  0
   -1.7964   -0.2809    0.6491 C   0  0  0  0  0  0  0  0  0  0  0  0
   -0.9043    0.6804    1.1455 C   0  0  0  0  0  0  0  0  0  0  0  0
   -1.4575   -1.6875    0.5329 N   0  0  0  0  0  0  0  0  0  0  0  0
   -0.1531   -2.1811    0.7499 C   0  0  0  0  0  0  0  0  0  0  0  0
    0.0869   -3.6337    0.3942 C   0  0  0  0  0  0  0  0  0  0  0  0
    0.8027   -1.5442    1.1975 O   0  0  0  0  0  0  0  0  0  0  0  0
   -2.4948   -2.5839    0.0003 C   0  0  0  0  0  0  0  0  0  0  0  0
   -3.9124   -2.1375    0.2980 C   0  0  0  0  0  0  0  0  0  0  0  0
   -4.1209   -0.7585   -0.2846 C   0  0  0  0  0  0  0  0  0  0  0  0
    1.3835    1.7339   -1.2746 C   0  0  0  0  0  0  0  0  0  0  0  0
    2.1748    0.6711   -1.7181 C   0  0  0  0  0  0  0  0  0  0  0  0
    1.8723   -0.0949   -2.8193 O   0  0  0  0  0  0  0  0  0  0  0  0
    0.5113   -0.0990   -3.2337 C   0  0  0  0  0  0  0  0  0  0  0  0
    5.9399   -0.5350   -0.5939 H   0  0  0  0  0  0  0  0  0  0  0  0
    4.7118   -1.5512    0.2621 H   0  0  0  0  0  0  0  0  0  0  0  0
    5.5025   -2.1347   -1.2009 H   0  0  0  0  0  0  0  0  0  0  0  0
    4.6359    0.8649    0.6583 H   0  0  0  0  0  0  0  0  0  0  0  0
    3.2057    2.6770    1.4564 H   0  0  0  0  0  0  0  0  0  0  0  0
   -0.4926    3.5916    2.3996 H   0  0  0  0  0  0  0  0  0  0  0  0
   -2.7152    3.5401    0.7560 H   0  0  0  0  0  0  0  0  0  0  0  0
   -4.3568    1.9016   -0.0658 H   0  0  0  0  0  0  0  0  0  0  0  0
    0.0722    0.4134    1.5258 H   0  0  0  0  0  0  0  0  0  0  0  0
   -0.2405   -3.8471   -0.6275 H   0  0  0  0  0  0  0  0  0  0  0  0
    1.1630   -3.8413    0.4437 H   0  0  0  0  0  0  0  0  0  0  0  0
   -0.4162   -4.2867    1.1133 H   0  0  0  0  0  0  0  0  0  0  0  0
   -2.3736   -3.5852    0.4254 H   0  0  0  0  0  0  0  0  0  0  0  0
   -2.3311   -2.6657   -1.0814 H   0  0  0  0  0  0  0  0  0  0  0  0
   -4.0763   -2.1231    1.3830 H   0  0  0  0  0  0  0  0  0  0  0  0
   -4.6321   -2.8427   -0.1320 H   0  0  0  0  0  0  0  0  0  0  0  0
   -5.1233   -0.4062   -0.0147 H   0  0  0  0  0  0  0  0  0  0  0  0
   -4.0572   -0.7855   -1.3795 H   0  0  0  0  0  0  0  0  0  0  0  0
    0.4787    2.0209   -1.8000 H   0  0  0  0  0  0  0  0  0  0  0  0
   -0.1674   -0.2688   -2.3900 H   0  0  0  0  0  0  0  0  0  0  0  0
    0.2628    0.8282   -3.7591 H   0  0  0  0  0  0  0  0  0  0  0  0
    0.3759   -0.9258   -3.9354 H   0  0  0  0  0  0  0  0  0  0  0  0
  1  2  1  0
  2  3  1  0
  3  4  2  0
  4  5  1  0
  5  6  2  0
  6  7  1  0
  7  8  2  0
  7  9  2  0
  7 10  1  0
 10 11  1  0
 11 12  2  0
 12 13  1  0
 13 14  2  0
 14 15  1  0
 15 16  2  0
 15 17  1  0
 17 18  1  0
 18 19  1  0
 18 20  2  0
 17 21  1  0
 21 22  1  0
 22 23  1  0
  6 24  1  0
 24 25  2  0
 25 26  1  0
 26 27  1  0
 25  3  1  0
 16 11  1  0
 23 14  1  0
  1 28  1  0
  1 29  1  0
  1 30  1  0
  4 31  1  0
  5 32  1  0
 10 33  1  0
 12 34  1  0
 13 35  1  0
 16 36  1  0
 19 37  1  0
 19 38  1  0
 19 39  1  0
 21 40  1  0
 21 41  1  0
 22 42  1  0
 22 43  1  0
 23 44  1  0
 23 45  1  0
 24 46  1  0
 27 47  1  0
 27 48  1  0
 27 49  1  0
M  END
$$$$
