
     RDKit          3D

 47 48  0  0  0  0  0  0  0  0999 V2000
    5.5738   -2.0492    0.9533 C   0  0  0  0  0  0  0  0  0  0  0  0
    6.2039   -1.5599   -0.2251 O   0  0  0  0  0  0  0  0  0  0  0  0
    5.5083   -0.6296   -0.9547 C   0  0  0  0  0  0  0  0  0  0  0  0
    4.2427   -0.1213   -0.6534 C   0  0  0  0  0  0  0  0  0  0  0  0
    3.6436    0.8397   -1.4880 C   0  0  0  0  0  0  0  0  0  0  0  0
    2.3016    1.3812   -1.2196 C   0  0  0  0  0  0  0  0  0  0  0  0
    1.8746    1.7063    0.0092 C   0  0  0  0  0  0  0  0  0  0  0  0
    0.5348    2.2672    0.3346 C   0  0  0  0  0  0  0  0  0  0  0  0
    0.2631    2.4617    1.5212 O   0  0  0  0  0  0  0  0  0  0  0  0
   -0.4590    2.5895   -0.7469 C   0  0  0  0  0  0  0  0  0  0  0  0
   -1.1749    1.3810   -1.2842 C   0  0  0  0  0  0  0  0  0  0  0  0
   -0.8457    0.8781   -2.3602 O   0  0  0  0  0  0  0  0  0  0  0  0
   -2.3018    0.7567   -0.5381 C   0  0  0  0  0  0  0  0  0  0  0  0
   -2.7323    1.1344    0.6744 C   0  0  0  0  0  0  0  0  0  0  0  0
   -3.8590    0.4904    1.3694 C   0  0  0  0  0  0  0  0  0  0  0  0
   -4.7178    1.2895    2.1344 C   0  0  0  0  0  0  0  0  0  0  0  0
   -5.7848    0.7201    2.8306 C   0  0  0  0  0  0  0  0  0  0  0  0
   -5.9883   -0.6572    2.7715 C   0  0  0  0  0  0  0  0  0  0  0  0
   -7.0355   -1.2184    3.4528 O   0  0  0  0  0  0  0  0  0  0  0  0
   -5.1343   -1.4826    2.0279 C   0  0  0  0  0  0  0  0  0  0  0  0
   -5.4204   -2.8226    2.0490 O   0  0  0  0  0  0  0  0  0  0  0  0
   -4.5925   -3.6847    1.2826 C   0  0  0  0  0  0  0  0  0  0  0  0
   -4.0669   -0.8991    1.3352 C   0  0  0  0  0  0  0  0  0  0  0  0
    4.3165    1.2615   -2.6439 C   0  0  0  0  0  0  0  0  0  0  0  0
    5.5803    0.7583   -2.9508 C   0  0  0  0  0  0  0  0  0  0  0  0
    6.1618   -0.1757   -2.1053 C   0  0  0  0  0  0  0  0  0  0  0  0
    7.4024   -0.6546   -2.4277 O   0  0  0  0  0  0  0  0  0  0  0  0
    4.6429   -2.5737    0.7136 H   0  0  0  0  0  0  0  0  0  0  0  0
    6.2519   -2.7707    1.4191 H   0  0  0  0  0  0  0  0  0  0  0  0
    5.4008   -1.2420    1.6727 H   0  0  0  0  0  0  0  0  0  0  0  0
    3.7002   -0.4692    0.2189 H   0  0  0  0  0  0  0  0  0  0  0  0
    1.6812    1.5153   -2.1021 H   0  0  0  0  0  0  0  0  0  0  0  0
    2.5119    1.5862    0.8812 H   0  0  0  0  0  0  0  0  0  0  0  0
    0.0430    3.1108   -1.5698 H   0  0  0  0  0  0  0  0  0  0  0  0
   -1.1878    3.3144   -0.3667 H   0  0  0  0  0  0  0  0  0  0  0  0
   -2.7750   -0.0576   -1.0805 H   0  0  0  0  0  0  0  0  0  0  0  0
   -2.2764    1.9590    1.2165 H   0  0  0  0  0  0  0  0  0  0  0  0
   -4.5677    2.3657    2.1907 H   0  0  0  0  0  0  0  0  0  0  0  0
   -6.4410    1.3611    3.4107 H   0  0  0  0  0  0  0  0  0  0  0  0
   -7.5219   -0.5222    3.9198 H   0  0  0  0  0  0  0  0  0  0  0  0
   -4.6345   -3.4313    0.2182 H   0  0  0  0  0  0  0  0  0  0  0  0
   -3.5619   -3.6733    1.6524 H   0  0  0  0  0  0  0  0  0  0  0  0
   -4.9745   -4.7039    1.3964 H   0  0  0  0  0  0  0  0  0  0  0  0
   -3.3754   -1.5169    0.7726 H   0  0  0  0  0  0  0  0  0  0  0  0
    3.8662    1.9912   -3.3134 H   0  0  0  0  0  0  0  0  0  0  0  0
    6.1060    1.0890   -3.8414 H   0  0  0  0  0  0  0  0  0  0  0  0
    7.6177   -1.2925   -1.7198 H   0  0  0  0  0  0  0  0  0  0  0  0
  1  2  1  0
  2  3  1  0
  3  4  2  0
  4  5  1  0
  5  6  1  0
  6  7  2  3
  7  8  1  0
  8  9  2  0
  8 10  1  0
 10 11  1  0
 11 12  2  0
 11 13  1  0
 13 14  2  3
 14 15  1  0
 15 16  2  0
 16 17  1  0
 17 18  2  0
 18 19  1  0
 18 20  1  0
 20 21  1  0
 21 22  1  0
 20 23  2  0
  5 24  2  0
 24 25  1  0
 25 26  2  0
 26 27  1  0
 26  3  1  0
 23 15  1  0
  1 28  1  0
  1 29  1  0
  1 30  1  0
  4 31  1  0
  6 32  1  0
  7 33  1  0
 10 34  1  0
 10 35  1  0
 13 36  1  0
 14 37  1  0
 16 38  1  0
 17 39  1  0
 19 40  1  0
 22 41  1  0
 22 42  1  0
 22 43  1  0
 23 44  1  0
 24 45  1  0
 25 46  1  0
 27 47  1  0
M  END
$$$$
