
     RDKit          3D

 42 44  0  0  0  0  0  0  0  0999 V2000
   -0.1156   -2.3548    1.1865 C   0  0  0  0  0  0  0  0  0  0  0  0
   -0.7512   -1.1217    0.6292 C   0  0  0  0  0  0  0  0  0  0  0  0
   -0.1884    0.0698    0.3662 C   0  0  0  0  0  0  0  0  0  0  0  0
    1.0731    0.6032    0.4253 N   0  0  0  0  0  0  0  0  0  0  0  0
    2.2853   -0.0263    0.6271 C   0  0  0  0  0  0  0  0  0  0  0  0
    2.4392   -1.2319    0.8001 O   0  0  0  0  0  0  0  0  0  0  0  0
    3.4576    0.9336    0.6648 C   0  0  0  0  0  0  0  0  0  0  0  0
    4.5939    0.4191   -0.0787 N   0  0  0  0  0  0  0  0  0  0  0  0
    5.5594   -0.4356    0.3809 C   0  0  0  0  0  0  0  0  0  0  0  0
    6.4539   -0.6008   -0.6523 C   0  0  0  0  0  0  0  0  0  0  0  0
    5.9549    0.2203   -1.6895 C   0  0  0  0  0  0  0  0  0  0  0  0
    6.5045    0.4272   -3.0178 N   0  0  0  0  0  4  0  0  0  0  0  0
    7.5012   -0.2552   -3.3075 O   0  0  0  0  0  0  0  0  0  0  0  0
    5.9641    1.2577   -3.7668 O   0  0  0  0  0  1  0  0  0  0  0  0
    4.8276    0.8636   -1.3326 N   0  0  0  0  0  0  0  0  0  0  0  0
   -1.3158    0.9605   -0.0659 C   0  0  0  0  0  0  0  0  0  0  0  0
   -1.1351    2.1455   -0.3138 O   0  0  0  0  0  0  0  0  0  0  0  0
   -2.4764    0.1898   -0.0278 N   0  0  0  0  0  0  0  0  0  0  0  0
   -3.7969    0.6890    0.1148 C   0  0  0  0  0  0  0  0  0  0  0  0
   -4.7928   -0.0610    0.7616 C   0  0  0  0  0  0  0  0  0  0  0  0
   -6.0937    0.4338    0.9024 C   0  0  0  0  0  0  0  0  0  0  0  0
   -6.4209    1.6885    0.3955 C   0  0  0  0  0  0  0  0  0  0  0  0
   -5.4459    2.4487   -0.2461 C   0  0  0  0  0  0  0  0  0  0  0  0
   -4.1441    1.9535   -0.3827 C   0  0  0  0  0  0  0  0  0  0  0  0
   -2.1355   -1.1405    0.3524 N   0  0  0  0  0  0  0  0  0  0  0  0
   -2.6172   -2.1502   -0.6122 C   0  0  0  0  0  0  0  0  0  0  0  0
    0.5694   -2.1183    2.0058 H   0  0  0  0  0  0  0  0  0  0  0  0
   -0.8736   -3.0212    1.6175 H   0  0  0  0  0  0  0  0  0  0  0  0
    0.4091   -2.9095    0.4014 H   0  0  0  0  0  0  0  0  0  0  0  0
    1.0843    1.5893    0.1660 H   0  0  0  0  0  0  0  0  0  0  0  0
    3.7655    1.0869    1.7047 H   0  0  0  0  0  0  0  0  0  0  0  0
    3.1964    1.9101    0.2385 H   0  0  0  0  0  0  0  0  0  0  0  0
    5.5129   -0.8634    1.3767 H   0  0  0  0  0  0  0  0  0  0  0  0
    7.3367   -1.2211   -0.6607 H   0  0  0  0  0  0  0  0  0  0  0  0
   -4.5615   -1.0297    1.1983 H   0  0  0  0  0  0  0  0  0  0  0  0
   -6.8477   -0.1596    1.4147 H   0  0  0  0  0  0  0  0  0  0  0  0
   -7.4309    2.0759    0.5046 H   0  0  0  0  0  0  0  0  0  0  0  0
   -5.6960    3.4298   -0.6462 H   0  0  0  0  0  0  0  0  0  0  0  0
   -3.4154    2.5705   -0.9041 H   0  0  0  0  0  0  0  0  0  0  0  0
   -3.7017   -2.0917   -0.7528 H   0  0  0  0  0  0  0  0  0  0  0  0
   -2.1381   -2.0124   -1.5898 H   0  0  0  0  0  0  0  0  0  0  0  0
   -2.3948   -3.1617   -0.2552 H   0  0  0  0  0  0  0  0  0  0  0  0
  1  2  1  0
  2  3  2  0
  3  4  1  0
  4  5  1  0
  5  6  2  0
  5  7  1  0
  7  8  1  0
  8  9  1  0
  9 10  2  0
 10 11  1  0
 11 12  1  0
 12 13  2  0
 12 14  1  0
 11 15  2  0
  3 16  1  0
 16 17  2  0
 16 18  1  0
 18 19  1  0
 19 20  2  0
 20 21  1  0
 21 22  2  0
 22 23  1  0
 23 24  2  0
 18 25  1  0
 25 26  1  0
 25  2  1  0
 15  8  1  0
 24 19  1  0
  1 27  1  0
  1 28  1  0
  1 29  1  0
  4 30  1  0
  7 31  1  0
  7 32  1  0
  9 33  1  0
 10 34  1  0
 20 35  1  0
 21 36  1  0
 22 37  1  0
 23 38  1  0
 24 39  1  0
 26 40  1  0
 26 41  1  0
 26 42  1  0
M  CHG  2  12   1  14  -1
M  END
$$$$
