
     RDKit          3D

 40 42  0  0  0  0  0  0  0  0999 V2000
    4.5485    0.2672    1.3340 N   0  0  0  0  0  0  0  0  0  0  0  0
    4.1633   -0.9195    0.5823 C   0  0  0  0  0  0  0  0  0  0  0  0
    3.1103   -0.6345   -0.4908 C   0  0  0  0  0  0  0  0  0  0  0  0
    1.7666   -0.1743    0.0816 C   0  0  0  0  0  0  0  0  0  0  0  0
    0.7225   -0.0064   -1.0336 C   0  0  0  0  0  0  0  0  0  0  0  0
   -0.5755    0.4642   -0.4985 N   0  0  0  0  0  0  0  0  0  0  0  0
   -0.7963    1.8740   -0.4796 C   0  0  0  0  0  0  0  0  0  0  0  0
    0.2586    2.8057   -0.6197 C   0  0  0  0  0  0  0  0  0  0  0  0
    0.0539    4.1910   -0.5896 C   0  0  0  0  0  0  0  0  0  0  0  0
   -1.2216    4.6980   -0.4136 C   0  0  0  0  0  0  0  0  0  0  0  0
   -2.2844    3.8152   -0.2660 C   0  0  0  0  0  0  0  0  0  0  0  0
   -2.0826    2.4203   -0.2934 C   0  0  0  0  0  0  0  0  0  0  0  0
   -3.5519    1.4379   -0.1176 S   0  0  0  0  0  0  0  0  0  0  0  0
   -2.8920   -0.2000    0.0695 C   0  0  0  0  0  0  0  0  0  0  0  0
   -3.8307   -1.1886    0.4245 C   0  0  0  0  0  0  0  0  0  0  0  0
   -3.4527   -2.5174    0.5839 C   0  0  0  0  0  0  0  0  0  0  0  0
   -2.1218   -2.8800    0.3969 C   0  0  0  0  0  0  0  0  0  0  0  0
   -1.6814   -4.3150    0.5478 C   0  0  0  0  0  0  0  0  0  0  0  0
   -1.6613   -4.9760   -0.6421 F   0  0  0  0  0  0  0  0  0  0  0  0
   -2.4869   -5.0438    1.3692 F   0  0  0  0  0  0  0  0  0  0  0  0
   -0.4242   -4.4323    1.0602 F   0  0  0  0  0  0  0  0  0  0  0  0
   -1.1911   -1.8863    0.0299 C   0  0  0  0  0  0  0  0  0  0  0  0
   -1.5386   -0.5262   -0.1471 C   0  0  0  0  0  0  0  0  0  0  0  0
    4.8205    1.0141    0.6969 H   0  0  0  0  0  0  0  0  0  0  0  0
    3.7574    0.6185    1.8715 H   0  0  0  0  0  0  0  0  0  0  0  0
    5.0586   -1.3289    0.1018 H   0  0  0  0  0  0  0  0  0  0  0  0
    3.7978   -1.6834    1.2772 H   0  0  0  0  0  0  0  0  0  0  0  0
    3.4904    0.1199   -1.1911 H   0  0  0  0  0  0  0  0  0  0  0  0
    2.9574   -1.5530   -1.0711 H   0  0  0  0  0  0  0  0  0  0  0  0
    1.4204   -0.9007    0.8251 H   0  0  0  0  0  0  0  0  0  0  0  0
    1.8943    0.7694    0.6216 H   0  0  0  0  0  0  0  0  0  0  0  0
    0.6035   -0.9457   -1.5890 H   0  0  0  0  0  0  0  0  0  0  0  0
    1.0996    0.6720   -1.8099 H   0  0  0  0  0  0  0  0  0  0  0  0
    1.2881    2.4866   -0.7420 H   0  0  0  0  0  0  0  0  0  0  0  0
    0.8982    4.8668   -0.7001 H   0  0  0  0  0  0  0  0  0  0  0  0
   -1.3918    5.7706   -0.3888 H   0  0  0  0  0  0  0  0  0  0  0  0
   -3.2849    4.2216   -0.1289 H   0  0  0  0  0  0  0  0  0  0  0  0
   -4.8754   -0.9212    0.5776 H   0  0  0  0  0  0  0  0  0  0  0  0
   -4.2002   -3.2602    0.8570 H   0  0  0  0  0  0  0  0  0  0  0  0
   -0.1645   -2.2197   -0.0957 H   0  0  0  0  0  0  0  0  0  0  0  0
  1  2  1  0
  2  3  1  0
  3  4  1  0
  4  5  1  0
  5  6  1  0
  6  7  1  0
  7  8  2  0
  8  9  1  0
  9 10  2  0
 10 11  1  0
 11 12  2  0
 12 13  1  0
 13 14  1  0
 14 15  2  0
 15 16  1  0
 16 17  2  0
 17 18  1  0
 18 19  1  0
 18 20  1  0
 18 21  1  0
 17 22  1  0
 22 23  2  0
 23  6  1  0
 12  7  1  0
 23 14  1  0
  1 24  1  0
  1 25  1  0
  2 26  1  0
  2 27  1  0
  3 28  1  0
  3 29  1  0
  4 30  1  0
  4 31  1  0
  5 32  1  0
  5 33  1  0
  8 34  1  0
  9 35  1  0
 10 36  1  0
 11 37  1  0
 15 38  1  0
 16 39  1  0
 22 40  1  0
M  END
$$$$
