
     RDKit          3D

 34 36  0  0  0  0  0  0  0  0999 V2000
    4.7952    1.8719   -0.4764 C   0  0  0  0  0  0  0  0  0  0  0  0
    4.5523    0.5840    0.1375 N   0  0  0  0  0  0  0  0  0  0  0  0
    5.6108   -0.2066    0.4170 N   0  0  0  0  0  0  0  0  0  0  0  0
    5.0581   -1.2854    0.9694 C   0  0  0  0  0  0  0  0  0  0  0  0
    3.6574   -1.1954    1.0271 C   0  0  0  0  0  0  0  0  0  0  0  0
    2.6564   -2.3816    1.7099 Cl  0  0  0  0  0  0  0  0  0  0  0  0
    3.3320    0.0243    0.4594 C   0  0  0  0  0  0  0  0  0  0  0  0
    2.0593    0.6864    0.2376 C   0  0  0  0  0  0  0  0  0  0  0  0
    2.0100    1.9017    0.0826 O   0  0  0  0  0  0  0  0  0  0  0  0
    0.9775   -0.1707    0.1685 N   0  0  0  0  0  0  0  0  0  0  0  0
   -0.3638    0.1614    0.0153 C   0  0  0  0  0  0  0  0  0  0  0  0
   -0.8922    1.7882    0.1316 S   0  0  0  0  0  0  0  0  0  0  0  0
   -2.4766    1.3231   -0.0711 C   0  0  0  0  0  0  0  0  0  0  0  0
   -2.6498   -0.0231   -0.2361 C   0  0  0  0  0  0  0  0  0  0  0  0
   -1.4141   -0.7394   -0.2085 C   0  0  0  0  0  0  0  0  0  0  0  0
   -1.1829   -2.1736   -0.3675 C   0  0  0  0  0  0  0  0  0  0  0  0
   -2.2360   -2.9283   -0.7956 N   0  0  0  0  0  0  0  0  0  0  0  0
   -0.0918   -2.7025   -0.1725 O   0  0  0  0  0  0  0  0  0  0  0  0
   -4.0964   -0.3400   -0.3835 C   0  0  0  0  0  0  0  0  0  0  0  0
   -4.7858    0.9831    0.0724 C   0  0  0  0  0  0  0  0  0  0  0  0
   -3.7286    2.1136   -0.0870 C   0  0  0  0  0  0  0  0  0  0  0  0
    5.8541    1.9546   -0.7373 H   0  0  0  0  0  0  0  0  0  0  0  0
    4.5332    2.6514    0.2427 H   0  0  0  0  0  0  0  0  0  0  0  0
    4.1935    1.9475   -1.3852 H   0  0  0  0  0  0  0  0  0  0  0  0
    5.6983   -2.0882    1.3115 H   0  0  0  0  0  0  0  0  0  0  0  0
    1.1624   -1.1737    0.1859 H   0  0  0  0  0  0  0  0  0  0  0  0
   -2.0240   -3.8894   -1.0277 H   0  0  0  0  0  0  0  0  0  0  0  0
   -3.0448   -2.5109   -1.2267 H   0  0  0  0  0  0  0  0  0  0  0  0
   -4.4141   -1.1792    0.2413 H   0  0  0  0  0  0  0  0  0  0  0  0
   -4.3371   -0.5506   -1.4309 H   0  0  0  0  0  0  0  0  0  0  0  0
   -5.7040    1.1882   -0.4866 H   0  0  0  0  0  0  0  0  0  0  0  0
   -5.0582    0.8954    1.1326 H   0  0  0  0  0  0  0  0  0  0  0  0
   -3.7966    2.8386    0.7285 H   0  0  0  0  0  0  0  0  0  0  0  0
   -3.8536    2.6252   -1.0469 H   0  0  0  0  0  0  0  0  0  0  0  0
  1  2  1  0
  2  3  1  0
  3  4  2  0
  4  5  1  0
  5  6  1  0
  5  7  2  0
  7  8  1  0
  8  9  2  0
  8 10  1  0
 10 11  1  0
 11 12  1  0
 12 13  1  0
 13 14  2  0
 14 15  1  0
 15 16  1  0
 16 17  1  0
 16 18  2  0
 14 19  1  0
 19 20  1  0
 20 21  1  0
  7  2  1  0
 15 11  2  0
 21 13  1  0
  1 22  1  0
  1 23  1  0
  1 24  1  0
  4 25  1  0
 10 26  1  0
 17 27  1  0
 17 28  1  0
 19 29  1  0
 19 30  1  0
 20 31  1  0
 20 32  1  0
 21 33  1  0
 21 34  1  0
M  END
$$$$
