
     RDKit          3D

 57 59  0  0  0  0  0  0  0  0999 V2000
   -9.9546    0.5461   -0.8327 C   0  0  0  0  0  0  0  0  0  0  0  0
   -9.0885   -0.4218   -1.4120 O   0  0  0  0  0  0  0  0  0  0  0  0
   -7.7557   -0.1179   -1.4507 C   0  0  0  0  0  0  0  0  0  0  0  0
   -6.9562   -1.0873   -2.0664 C   0  0  0  0  0  0  0  0  0  0  0  0
   -5.5764   -0.9090   -2.1758 C   0  0  0  0  0  0  0  0  0  0  0  0
   -4.9946    0.2484   -1.6562 C   0  0  0  0  0  0  0  0  0  0  0  0
   -3.2405    0.4679   -1.7954 S   0  0  0  0  0  6  0  0  0  0  0  0
   -2.8861    1.7381   -1.1990 O   0  0  0  0  0  0  0  0  0  0  0  0
   -2.8634    0.1490   -3.1549 O   0  0  0  0  0  0  0  0  0  0  0  0
   -2.6433   -0.7352   -0.8014 N   0  0  0  0  0  0  0  0  0  0  0  0
   -2.9612   -0.7146    0.6351 C   0  0  0  0  0  0  0  0  0  0  0  0
   -1.6663   -1.1223    1.3093 C   0  0  0  0  0  0  0  0  0  0  0  0
   -0.9250   -1.8024    0.2925 O   0  0  0  0  0  0  0  0  0  0  0  0
   -1.2268   -1.1151   -0.9361 C   0  0  0  0  0  0  0  0  0  0  0  0
   -0.2392    0.0641   -1.1588 C   0  0  0  0  0  0  0  0  0  0  0  0
    1.1535   -0.3514   -1.1530 N   0  0  0  0  0  0  0  0  0  0  0  0
    1.9023   -0.3933    0.0018 C   0  0  0  0  0  0  0  0  0  0  0  0
    1.5726    0.0445    1.0953 O   0  0  0  0  0  0  0  0  0  0  0  0
    3.2810   -1.0683   -0.1860 C   0  0  0  0  0  0  0  0  0  0  0  0
    3.5997   -1.5089   -1.2824 O   0  0  0  0  0  0  0  0  0  0  0  0
    4.0398   -1.0945    0.9575 N   0  0  0  0  0  0  0  0  0  0  0  0
    5.4229   -1.4958    0.9608 C   0  0  0  0  0  0  0  0  0  0  0  0
    6.3332   -0.3042    0.7930 C   0  0  0  0  0  0  0  0  0  0  0  0
    6.7758    0.0408   -0.4960 C   0  0  0  0  0  0  0  0  0  0  0  0
    7.6025    1.1447   -0.6919 C   0  0  0  0  0  0  0  0  0  0  0  0
    7.9890    1.9198    0.3966 C   0  0  0  0  0  0  0  0  0  0  0  0
    7.5445    1.5981    1.6818 C   0  0  0  0  0  0  0  0  0  0  0  0
    6.7116    0.4932    1.8897 C   0  0  0  0  0  0  0  0  0  0  0  0
    6.2126    0.1100    3.1079 O   0  0  0  0  0  0  0  0  0  0  0  0
    6.5405    0.9175    4.2316 C   0  0  0  0  0  0  0  0  0  0  0  0
   -5.7804    1.2278   -1.0446 C   0  0  0  0  0  0  0  0  0  0  0  0
   -7.1630    1.0405   -0.9414 C   0  0  0  0  0  0  0  0  0  0  0  0
  -10.9764    0.1592   -0.8934 H   0  0  0  0  0  0  0  0  0  0  0  0
   -9.7199    0.7018    0.2254 H   0  0  0  0  0  0  0  0  0  0  0  0
   -9.9217    1.4889   -1.3886 H   0  0  0  0  0  0  0  0  0  0  0  0
   -7.4166   -1.9874   -2.4681 H   0  0  0  0  0  0  0  0  0  0  0  0
   -4.9672   -1.6673   -2.6624 H   0  0  0  0  0  0  0  0  0  0  0  0
   -3.3075    0.2547    1.0029 H   0  0  0  0  0  0  0  0  0  0  0  0
   -3.7434   -1.4572    0.8248 H   0  0  0  0  0  0  0  0  0  0  0  0
   -1.0978   -0.2500    1.6479 H   0  0  0  0  0  0  0  0  0  0  0  0
   -1.8262   -1.7854    2.1639 H   0  0  0  0  0  0  0  0  0  0  0  0
   -1.1164   -1.8459   -1.7446 H   0  0  0  0  0  0  0  0  0  0  0  0
   -0.3690    0.8256   -0.3821 H   0  0  0  0  0  0  0  0  0  0  0  0
   -0.4104    0.5376   -2.1297 H   0  0  0  0  0  0  0  0  0  0  0  0
    1.5510   -0.8264   -1.9600 H   0  0  0  0  0  0  0  0  0  0  0  0
    3.6828   -0.5749    1.7538 H   0  0  0  0  0  0  0  0  0  0  0  0
    5.6223   -2.0114    1.9063 H   0  0  0  0  0  0  0  0  0  0  0  0
    5.5997   -2.2259    0.1622 H   0  0  0  0  0  0  0  0  0  0  0  0
    6.4670   -0.5525   -1.3555 H   0  0  0  0  0  0  0  0  0  0  0  0
    7.9395    1.4007   -1.6930 H   0  0  0  0  0  0  0  0  0  0  0  0
    8.6334    2.7822    0.2458 H   0  0  0  0  0  0  0  0  0  0  0  0
    7.8655    2.2353    2.4990 H   0  0  0  0  0  0  0  0  0  0  0  0
    6.0501    0.4836    5.1084 H   0  0  0  0  0  0  0  0  0  0  0  0
    7.6193    0.9135    4.4186 H   0  0  0  0  0  0  0  0  0  0  0  0
    6.1614    1.9375    4.1099 H   0  0  0  0  0  0  0  0  0  0  0  0
   -5.3316    2.1370   -0.6502 H   0  0  0  0  0  0  0  0  0  0  0  0
   -7.7484    1.8182   -0.4615 H   0  0  0  0  0  0  0  0  0  0  0  0
  1  2  1  0
  2  3  1  0
  3  4  2  0
  4  5  1  0
  5  6  2  0
  6  7  1  0
  7  8  2  0
  7  9  2  0
  7 10  1  0
 10 11  1  0
 11 12  1  0
 12 13  1  0
 13 14  1  0
 14 15  1  0
 15 16  1  0
 16 17  1  0
 17 18  2  0
 17 19  1  0
 19 20  2  0
 19 21  1  0
 21 22  1  0
 22 23  1  0
 23 24  2  0
 24 25  1  0
 25 26  2  0
 26 27  1  0
 27 28  2  0
 28 29  1  0
 29 30  1  0
  6 31  1  0
 31 32  2  0
 32  3  1  0
 14 10  1  0
 28 23  1  0
  1 33  1  0
  1 34  1  0
  1 35  1  0
  4 36  1  0
  5 37  1  0
 11 38  1  0
 11 39  1  0
 12 40  1  0
 12 41  1  0
 14 42  1  0
 15 43  1  0
 15 44  1  0
 16 45  1  0
 21 46  1  0
 22 47  1  0
 22 48  1  0
 24 49  1  0
 25 50  1  0
 26 51  1  0
 27 52  1  0
 30 53  1  0
 30 54  1  0
 30 55  1  0
 31 56  1  0
 32 57  1  0
M  END
$$$$
