
     RDKit          3D

 55 58  0  0  0  0  0  0  0  0999 V2000
    7.6618    2.9754   -0.7255 C   0  0  0  0  0  0  0  0  0  0  0  0
    7.3664    1.6619   -0.2713 O   0  0  0  0  0  0  0  0  0  0  0  0
    6.0559    1.2557   -0.3055 C   0  0  0  0  0  0  0  0  0  0  0  0
    4.9833    2.0786   -0.6586 C   0  0  0  0  0  0  0  0  0  0  0  0
    3.6803    1.5764   -0.6600 C   0  0  0  0  0  0  0  0  0  0  0  0
    3.4336    0.2485   -0.2998 C   0  0  0  0  0  0  0  0  0  0  0  0
    2.0236   -0.2394   -0.3241 C   0  0  0  0  0  0  0  0  0  0  0  0
    1.6415   -1.2652    0.6995 C   0  0  0  0  0  0  0  0  0  0  0  0
    0.3668   -1.7007    0.6661 C   0  0  0  0  0  0  0  0  0  0  0  0
   -0.1887   -2.7009    1.6065 C   0  0  0  0  0  0  0  0  0  0  0  0
   -1.2133   -2.2119    2.3501 F   0  0  0  0  0  0  0  0  0  0  0  0
   -0.6263   -3.8244    0.9860 F   0  0  0  0  0  0  0  0  0  0  0  0
    0.7538   -3.1158    2.5004 F   0  0  0  0  0  0  0  0  0  0  0  0
   -0.5105   -1.1875   -0.2817 N   0  0  0  0  0  0  0  0  0  0  0  0
   -1.8161   -1.4907   -0.4683 N   0  0  0  0  0  0  0  0  0  0  0  0
   -2.2380   -0.7069   -1.4749 C   0  0  0  0  0  0  0  0  0  0  0  0
   -3.6044   -0.7238   -2.0415 C   0  0  0  0  0  0  0  0  0  0  0  0
   -3.7685   -0.3485   -3.2052 O   0  0  0  0  0  0  0  0  0  0  0  0
   -4.6951   -1.1652   -1.2721 N   0  0  0  0  0  0  0  0  0  0  0  0
   -5.9839   -1.1877   -1.9456 C   0  0  0  0  0  0  0  0  0  0  0  0
   -4.7330   -1.1562    0.1916 C   0  0  0  0  0  0  0  0  0  0  0  0
   -5.1272    0.1873    0.7642 C   0  0  0  0  0  0  0  0  0  0  0  0
   -4.1594    1.1713    1.0164 C   0  0  0  0  0  0  0  0  0  0  0  0
   -4.5262    2.4122    1.5424 C   0  0  0  0  0  0  0  0  0  0  0  0
   -5.8634    2.6842    1.8210 C   0  0  0  0  0  0  0  0  0  0  0  0
   -6.8357    1.7160    1.5737 C   0  0  0  0  0  0  0  0  0  0  0  0
   -6.4708    0.4752    1.0466 C   0  0  0  0  0  0  0  0  0  0  0  0
   -1.1698    0.0836   -1.9672 C   0  0  0  0  0  0  0  0  0  0  0  0
   -0.0816   -0.2175   -1.1871 C   0  0  0  0  0  0  0  0  0  0  0  0
    1.1966    0.2581   -1.2000 N   0  0  0  0  0  0  0  0  0  0  0  0
    4.5053   -0.5873    0.0394 C   0  0  0  0  0  0  0  0  0  0  0  0
    5.8137   -0.0863    0.0509 C   0  0  0  0  0  0  0  0  0  0  0  0
    6.9218   -0.8346    0.3627 O   0  0  0  0  0  0  0  0  0  0  0  0
    6.7126   -2.0918    0.9964 C   0  0  0  0  0  0  0  0  0  0  0  0
    7.3510    3.1159   -1.7657 H   0  0  0  0  0  0  0  0  0  0  0  0
    7.2087    3.7274   -0.0716 H   0  0  0  0  0  0  0  0  0  0  0  0
    8.7469    3.1096   -0.6831 H   0  0  0  0  0  0  0  0  0  0  0  0
    5.1257    3.1157   -0.9437 H   0  0  0  0  0  0  0  0  0  0  0  0
    2.8589    2.2311   -0.9516 H   0  0  0  0  0  0  0  0  0  0  0  0
    2.3551   -1.6032    1.4399 H   0  0  0  0  0  0  0  0  0  0  0  0
   -6.6572   -1.8807   -1.4340 H   0  0  0  0  0  0  0  0  0  0  0  0
   -6.4114   -0.1798   -1.9410 H   0  0  0  0  0  0  0  0  0  0  0  0
   -5.8742   -1.5173   -2.9833 H   0  0  0  0  0  0  0  0  0  0  0  0
   -3.7905   -1.4661    0.6372 H   0  0  0  0  0  0  0  0  0  0  0  0
   -5.4520   -1.9196    0.5138 H   0  0  0  0  0  0  0  0  0  0  0  0
   -3.1102    0.9750    0.8135 H   0  0  0  0  0  0  0  0  0  0  0  0
   -3.7674    3.1673    1.7343 H   0  0  0  0  0  0  0  0  0  0  0  0
   -6.1479    3.6498    2.2313 H   0  0  0  0  0  0  0  0  0  0  0  0
   -7.8790    1.9286    1.7899 H   0  0  0  0  0  0  0  0  0  0  0  0
   -7.2436   -0.2681    0.8594 H   0  0  0  0  0  0  0  0  0  0  0  0
   -1.2000    0.7873   -2.7874 H   0  0  0  0  0  0  0  0  0  0  0  0
    4.3213   -1.6326    0.2533 H   0  0  0  0  0  0  0  0  0  0  0  0
    6.2934   -2.8188    0.2916 H   0  0  0  0  0  0  0  0  0  0  0  0
    7.6867   -2.4700    1.3236 H   0  0  0  0  0  0  0  0  0  0  0  0
    6.0804   -1.9935    1.8870 H   0  0  0  0  0  0  0  0  0  0  0  0
  1  2  1  0
  2  3  1  0
  3  4  2  0
  4  5  1  0
  5  6  2  0
  6  7  1  0
  7  8  1  0
  8  9  2  0
  9 10  1  0
 10 11  1  0
 10 12  1  0
 10 13  1  0
  9 14  1  0
 14 15  1  0
 15 16  2  0
 16 17  1  0
 17 18  2  0
 17 19  1  0
 19 20  1  0
 19 21  1  0
 21 22  1  0
 22 23  2  0
 23 24  1  0
 24 25  2  0
 25 26  1  0
 26 27  2  0
 16 28  1  0
 28 29  2  0
 29 30  1  0
  6 31  1  0
 31 32  2  0
 32 33  1  0
 33 34  1  0
 32  3  1  0
 30  7  2  0
 29 14  1  0
 27 22  1  0
  1 35  1  0
  1 36  1  0
  1 37  1  0
  4 38  1  0
  5 39  1  0
  8 40  1  0
 20 41  1  0
 20 42  1  0
 20 43  1  0
 21 44  1  0
 21 45  1  0
 23 46  1  0
 24 47  1  0
 25 48  1  0
 26 49  1  0
 27 50  1  0
 28 51  1  0
 31 52  1  0
 34 53  1  0
 34 54  1  0
 34 55  1  0
M  END
$$$$
