
     RDKit          3D

 57 62  0  0  0  0  0  0  0  0999 V2000
    8.7702   -0.5387   -1.5744 C   0  0  0  0  0  0  0  0  0  0  0  0
    8.0127   -0.6206   -0.3724 O   0  0  0  0  0  0  0  0  0  0  0  0
    6.6524   -0.6456   -0.4912 C   0  0  0  0  0  0  0  0  0  0  0  0
    5.9255   -0.5658   -1.6772 C   0  0  0  0  0  0  0  0  0  0  0  0
    4.5235   -0.5991   -1.6526 C   0  0  0  0  0  0  0  0  0  0  0  0
    3.8401   -0.7110   -0.4412 C   0  0  0  0  0  0  0  0  0  0  0  0
    2.2694   -0.7454   -0.4019 C   0  0  0  0  0  0  0  0  0  0  0  0
    1.4766   -0.9219    0.7270 C   0  0  0  0  0  0  0  0  0  0  0  0
    0.1367   -0.9145    0.3429 N   0  0  0  0  0  4  0  0  0  0  0  0
   -1.0402   -0.9772    1.2287 C   0  0  0  0  0  0  0  0  0  0  0  0
   -1.5798    0.4487    1.4778 C   0  0  0  0  0  0  0  0  0  0  0  0
   -0.7603    1.3456    1.6947 O   0  0  0  0  0  0  0  0  0  0  0  0
   -2.9574    0.6256    1.2614 N   0  0  0  0  0  0  0  0  0  0  0  0
   -3.9112   -0.4189    1.5274 C   0  0  0  0  0  0  0  0  0  0  0  0
   -3.7148   -1.2684    2.6343 C   0  0  0  0  0  0  0  0  0  0  0  0
   -4.6113   -2.3008    2.9214 C   0  0  0  0  0  0  0  0  0  0  0  0
   -5.7244   -2.4969    2.1141 C   0  0  0  0  0  0  0  0  0  0  0  0
   -5.9562   -1.6437    1.0371 C   0  0  0  0  0  0  0  0  0  0  0  0
   -5.0670   -0.5986    0.7514 C   0  0  0  0  0  0  0  0  0  0  0  0
   -5.4208    0.4457   -0.6350 S   0  0  0  0  0  0  0  0  0  0  0  0
   -4.6244    1.9266   -0.0528 C   0  0  0  0  0  0  0  0  0  0  0  0
   -5.1218    3.1507   -0.5274 C   0  0  0  0  0  0  0  0  0  0  0  0
   -4.5070    4.3477   -0.1731 C   0  0  0  0  0  0  0  0  0  0  0  0
   -3.3930    4.3252    0.6554 C   0  0  0  0  0  0  0  0  0  0  0  0
   -2.8898    3.1066    1.1246 C   0  0  0  0  0  0  0  0  0  0  0  0
   -3.4912    1.8816    0.7857 C   0  0  0  0  0  0  0  0  0  0  0  0
    0.0998   -0.6929   -0.9655 C   0  0  0  0  0  0  0  0  0  0  0  0
    1.3438   -0.6055   -1.4228 N   0  0  0  0  0  0  0  0  0  0  0  0
    1.3805   -0.3310   -2.8506 C   0  0  0  0  0  0  0  0  0  0  0  0
   -0.0951    0.0127   -3.1994 C   0  0  0  0  0  0  0  0  0  0  0  0
   -0.9290   -0.5109   -2.0133 C   0  0  0  0  0  0  0  0  0  0  0  0
    4.5689   -0.7982    0.7489 C   0  0  0  0  0  0  0  0  0  0  0  0
    5.9664   -0.7619    0.7182 C   0  0  0  0  0  0  0  0  0  0  0  0
    9.8292   -0.5543   -1.3031 H   0  0  0  0  0  0  0  0  0  0  0  0
    8.5784   -1.3997   -2.2223 H   0  0  0  0  0  0  0  0  0  0  0  0
    8.5732    0.4017   -2.0992 H   0  0  0  0  0  0  0  0  0  0  0  0
    6.4206   -0.4766   -2.6395 H   0  0  0  0  0  0  0  0  0  0  0  0
    4.0050   -0.5470   -2.6014 H   0  0  0  0  0  0  0  0  0  0  0  0
    1.6986   -1.0502    1.7731 H   0  0  0  0  0  0  0  0  0  0  0  0
   -0.7473   -1.4257    2.1832 H   0  0  0  0  0  0  0  0  0  0  0  0
   -1.7645   -1.6240    0.7267 H   0  0  0  0  0  0  0  0  0  0  0  0
   -2.9001   -1.1050    3.3356 H   0  0  0  0  0  0  0  0  0  0  0  0
   -4.4557   -2.9374    3.7901 H   0  0  0  0  0  0  0  0  0  0  0  0
   -6.4305   -3.2942    2.3378 H   0  0  0  0  0  0  0  0  0  0  0  0
   -6.8477   -1.7930    0.4292 H   0  0  0  0  0  0  0  0  0  0  0  0
   -5.9920    3.1795   -1.1806 H   0  0  0  0  0  0  0  0  0  0  0  0
   -4.9017    5.2935   -0.5361 H   0  0  0  0  0  0  0  0  0  0  0  0
   -2.9169    5.2578    0.9512 H   0  0  0  0  0  0  0  0  0  0  0  0
   -2.0436    3.1614    1.8040 H   0  0  0  0  0  0  0  0  0  0  0  0
    1.7116   -1.2310   -3.3772 H   0  0  0  0  0  0  0  0  0  0  0  0
    2.0392    0.5134   -3.0695 H   0  0  0  0  0  0  0  0  0  0  0  0
   -0.4093   -0.4143   -4.1566 H   0  0  0  0  0  0  0  0  0  0  0  0
   -0.2042    1.1020   -3.2661 H   0  0  0  0  0  0  0  0  0  0  0  0
   -1.6749    0.2014   -1.6606 H   0  0  0  0  0  0  0  0  0  0  0  0
   -1.3611   -1.4955   -2.2034 H   0  0  0  0  0  0  0  0  0  0  0  0
    4.0903   -0.8868    1.7192 H   0  0  0  0  0  0  0  0  0  0  0  0
    6.5315   -0.8253    1.6469 H   0  0  0  0  0  0  0  0  0  0  0  0
  1  2  1  0
  2  3  1  0
  3  4  2  0
  4  5  1  0
  5  6  2  0
  6  7  1  0
  7  8  2  0
  8  9  1  0
  9 10  1  0
 10 11  1  0
 11 12  2  0
 11 13  1  0
 13 14  1  0
 14 15  2  0
 15 16  1  0
 16 17  2  0
 17 18  1  0
 18 19  2  0
 19 20  1  0
 20 21  1  0
 21 22  2  0
 22 23  1  0
 23 24  2  0
 24 25  1  0
 25 26  2  0
  9 27  2  0
 27 28  1  0
 28 29  1  0
 29 30  1  0
 30 31  1  0
  6 32  1  0
 32 33  2  0
 33  3  1  0
 28  7  1  0
 26 13  1  0
 31 27  1  0
 19 14  1  0
 26 21  1  0
  1 34  1  0
  1 35  1  0
  1 36  1  0
  4 37  1  0
  5 38  1  0
  8 39  1  0
 10 40  1  0
 10 41  1  0
 15 42  1  0
 16 43  1  0
 17 44  1  0
 18 45  1  0
 22 46  1  0
 23 47  1  0
 24 48  1  0
 25 49  1  0
 29 50  1  0
 29 51  1  0
 30 52  1  0
 30 53  1  0
 31 54  1  0
 31 55  1  0
 32 56  1  0
 33 57  1  0
M  CHG  1   9   1
M  END
$$$$
