
     RDKit          3D

 65 68  0  0  0  0  0  0  0  0999 V2000
    9.8882   -0.7068    3.4370 C   0  0  0  0  0  0  0  0  0  0  0  0
    8.8557   -0.3915    2.4352 C   0  0  0  0  0  0  0  0  0  0  0  0
    7.4975   -0.5768    2.3724 C   0  0  0  0  0  0  0  0  0  0  0  0
    7.1232   -0.0442    1.1199 C   0  0  0  0  0  0  0  0  0  0  0  0
    5.8814    0.0196    0.5285 N   0  0  0  0  0  0  0  0  0  0  0  0
    4.7095   -0.4421    1.0821 C   0  0  0  0  0  0  0  0  0  0  0  0
    4.5923   -0.9617    2.1876 O   0  0  0  0  0  0  0  0  0  0  0  0
    3.5346   -0.2518    0.1446 C   0  0  0  0  0  0  0  0  0  0  0  0
    2.2159   -0.6691    0.7900 C   0  0  0  0  0  0  0  0  0  0  0  0
    1.0612   -0.5624   -0.1906 C   0  0  0  0  0  0  0  0  0  0  0  0
    1.2761   -0.2734   -1.3700 O   0  0  0  0  0  0  0  0  0  0  0  0
   -0.2195   -0.8615    0.2660 N   0  0  0  0  0  0  0  0  0  0  0  0
   -0.5461   -1.1085    1.6795 C   0  0  0  0  0  0  0  0  0  0  0  0
   -1.1858    0.0667    2.3576 C   0  0  0  0  0  0  0  0  0  0  0  0
   -2.4786    0.1709    2.8404 C   0  0  0  0  0  0  0  0  0  0  0  0
   -2.7413    1.4346    3.4432 C   0  0  0  0  0  0  0  0  0  0  0  0
   -1.6309    2.2470    3.4341 C   0  0  0  0  0  0  0  0  0  0  0  0
   -0.2809    1.4789    2.7234 S   0  0  0  0  0  0  0  0  0  0  0  0
   -1.2928   -0.8142   -0.7561 C   0  0  0  0  0  0  0  0  0  0  0  0
   -1.7883    0.6268   -1.0915 C   0  0  0  0  0  0  0  0  0  0  0  0
   -1.5784    1.6139   -0.3920 O   0  0  0  0  0  0  0  0  0  0  0  0
   -2.5126    0.7098   -2.2754 N   0  0  0  0  0  0  0  0  0  0  0  0
   -3.1268    1.9505   -2.6925 C   0  0  0  0  0  0  0  0  0  0  0  0
   -4.4415    2.2376   -1.9652 C   0  0  0  0  0  0  0  0  0  0  0  0
   -5.2674    3.0895   -2.9303 C   0  0  0  0  0  0  0  0  0  0  0  0
   -4.5034    3.1053   -4.2526 C   0  0  0  0  0  0  0  0  0  0  0  0
   -3.5357    1.9362   -4.1601 C   0  0  0  0  0  0  0  0  0  0  0  0
   -2.4224   -1.8184   -0.5214 C   0  0  0  0  0  0  0  0  0  0  0  0
   -3.6852   -1.4390   -0.0401 C   0  0  0  0  0  0  0  0  0  0  0  0
   -4.6844   -2.3928    0.1678 C   0  0  0  0  0  0  0  0  0  0  0  0
   -4.4350   -3.7368   -0.0993 C   0  0  0  0  0  0  0  0  0  0  0  0
   -3.1869   -4.1317   -0.5731 C   0  0  0  0  0  0  0  0  0  0  0  0
   -2.1868   -3.1806   -0.7820 C   0  0  0  0  0  0  0  0  0  0  0  0
    8.1865    0.4474    0.4727 N   0  0  0  0  0  0  0  0  0  0  0  0
    9.2720    0.2256    1.2987 O   0  0  0  0  0  0  0  0  0  0  0  0
   10.8844   -0.7392    2.9828 H   0  0  0  0  0  0  0  0  0  0  0  0
    9.6948   -1.6827    3.8964 H   0  0  0  0  0  0  0  0  0  0  0  0
    9.8958    0.0507    4.2283 H   0  0  0  0  0  0  0  0  0  0  0  0
    6.8725   -1.0393    3.1214 H   0  0  0  0  0  0  0  0  0  0  0  0
    5.8839    0.4510   -0.3861 H   0  0  0  0  0  0  0  0  0  0  0  0
    3.7241   -0.8510   -0.7544 H   0  0  0  0  0  0  0  0  0  0  0  0
    3.4880    0.8026   -0.1540 H   0  0  0  0  0  0  0  0  0  0  0  0
    2.2832   -1.7107    1.1247 H   0  0  0  0  0  0  0  0  0  0  0  0
    2.0324   -0.0311    1.6571 H   0  0  0  0  0  0  0  0  0  0  0  0
    0.3513   -1.3890    2.2384 H   0  0  0  0  0  0  0  0  0  0  0  0
   -1.1963   -1.9870    1.7450 H   0  0  0  0  0  0  0  0  0  0  0  0
   -3.2096   -0.6239    2.7598 H   0  0  0  0  0  0  0  0  0  0  0  0
   -3.6935    1.7325    3.8648 H   0  0  0  0  0  0  0  0  0  0  0  0
   -1.5429    3.2538    3.8178 H   0  0  0  0  0  0  0  0  0  0  0  0
   -0.8329   -1.1393   -1.7026 H   0  0  0  0  0  0  0  0  0  0  0  0
   -2.8254   -0.1535   -2.7035 H   0  0  0  0  0  0  0  0  0  0  0  0
   -2.4228    2.7732   -2.5107 H   0  0  0  0  0  0  0  0  0  0  0  0
   -4.9809    1.3083   -1.7419 H   0  0  0  0  0  0  0  0  0  0  0  0
   -4.2737    2.7504   -1.0124 H   0  0  0  0  0  0  0  0  0  0  0  0
   -6.2628    2.6500   -3.0612 H   0  0  0  0  0  0  0  0  0  0  0  0
   -5.4069    4.1065   -2.5487 H   0  0  0  0  0  0  0  0  0  0  0  0
   -5.1697    3.0257   -5.1165 H   0  0  0  0  0  0  0  0  0  0  0  0
   -3.9455    4.0453   -4.3462 H   0  0  0  0  0  0  0  0  0  0  0  0
   -2.6800    2.0488   -4.8330 H   0  0  0  0  0  0  0  0  0  0  0  0
   -4.0460    1.0001   -4.4197 H   0  0  0  0  0  0  0  0  0  0  0  0
   -3.9073   -0.3968    0.1860 H   0  0  0  0  0  0  0  0  0  0  0  0
   -5.6588   -2.0860    0.5406 H   0  0  0  0  0  0  0  0  0  0  0  0
   -5.2138   -4.4778    0.0643 H   0  0  0  0  0  0  0  0  0  0  0  0
   -2.9909   -5.1813   -0.7795 H   0  0  0  0  0  0  0  0  0  0  0  0
   -1.2140   -3.5069   -1.1475 H   0  0  0  0  0  0  0  0  0  0  0  0
  1  2  1  0
  2  3  2  0
  3  4  1  0
  4  5  1  0
  5  6  1  0
  6  7  2  0
  6  8  1  0
  8  9  1  0
  9 10  1  0
 10 11  2  0
 10 12  1  0
 12 13  1  0
 13 14  1  0
 14 15  2  0
 15 16  1  0
 16 17  2  0
 17 18  1  0
 12 19  1  0
 19 20  1  0
 20 21  2  0
 20 22  1  0
 22 23  1  0
 23 24  1  0
 24 25  1  0
 25 26  1  0
 26 27  1  0
 19 28  1  0
 28 29  2  0
 29 30  1  0
 30 31  2  0
 31 32  1  0
 32 33  2  0
  4 34  2  0
 34 35  1  0
 35  2  1  0
 18 14  1  0
 27 23  1  0
 33 28  1  0
  1 36  1  0
  1 37  1  0
  1 38  1  0
  3 39  1  0
  5 40  1  0
  8 41  1  0
  8 42  1  0
  9 43  1  0
  9 44  1  0
 13 45  1  0
 13 46  1  0
 15 47  1  0
 16 48  1  0
 17 49  1  0
 19 50  1  0
 22 51  1  0
 23 52  1  0
 24 53  1  0
 24 54  1  0
 25 55  1  0
 25 56  1  0
 26 57  1  0
 26 58  1  0
 27 59  1  0
 27 60  1  0
 29 61  1  0
 30 62  1  0
 31 63  1  0
 32 64  1  0
 33 65  1  0
M  END
$$$$
