
     RDKit          3D

 39 39  0  0  0  0  0  0  0  0999 V2000
   -0.5212   -3.6206    1.3343 C   0  0  0  0  0  0  0  0  0  0  0  0
   -1.6566   -2.7457    0.8378 C   0  0  0  0  0  0  0  0  0  0  0  0
   -1.1526   -1.7262   -0.0399 O   0  0  0  0  0  0  0  0  0  0  0  0
   -0.7381   -0.5710    0.5507 C   0  0  0  0  0  0  0  0  0  0  0  0
   -0.7138   -0.4034    1.7711 O   0  0  0  0  0  0  0  0  0  0  0  0
   -0.2836    0.5080   -0.4658 C   0  0  0  0  0  0  0  0  0  0  0  0
   -0.7460    1.7925    0.0966 N   0  0  0  0  0  0  0  0  0  0  0  0
   -2.0723    2.1413    0.1248 C   0  0  0  0  0  0  0  0  0  0  0  0
   -2.9392    1.4932   -0.4417 O   0  0  0  0  0  0  0  0  0  0  0  0
   -2.3387    3.3948    0.9339 C   0  0  0  0  0  0  0  0  0  0  0  0
   -3.8038    3.7919    0.9172 C   0  0  0  0  0  0  0  0  0  0  0  0
    1.1760    0.8097   -0.3575 N   0  0  0  0  0  0  0  0  0  0  0  0
    2.2384   -0.0554   -0.5792 C   0  0  0  0  0  0  0  0  0  0  0  0
    3.5301    0.5015   -0.5866 C   0  0  0  0  0  0  0  0  0  0  0  0
    4.6765   -0.2857   -0.7327 C   0  0  0  0  0  0  0  0  0  0  0  0
    4.5569   -1.6633   -0.8540 C   0  0  0  0  0  0  0  0  0  0  0  0
    3.2939   -2.2424   -0.8185 C   0  0  0  0  0  0  0  0  0  0  0  0
    2.1507   -1.4448   -0.6695 C   0  0  0  0  0  0  0  0  0  0  0  0
   -0.7578    0.1797   -1.9214 C   0  0  0  0  0  0  0  0  0  0  0  0
   -0.5895    1.2685   -2.7259 F   0  0  0  0  0  0  0  0  0  0  0  0
   -0.0231   -0.8131   -2.4886 F   0  0  0  0  0  0  0  0  0  0  0  0
   -2.0473   -0.1997   -2.0349 F   0  0  0  0  0  0  0  0  0  0  0  0
    0.2031   -3.0365    1.9106 H   0  0  0  0  0  0  0  0  0  0  0  0
    0.0222   -4.0600    0.4914 H   0  0  0  0  0  0  0  0  0  0  0  0
   -0.9018   -4.4278    1.9666 H   0  0  0  0  0  0  0  0  0  0  0  0
   -2.3587   -3.3501    0.2542 H   0  0  0  0  0  0  0  0  0  0  0  0
   -2.2221   -2.3105    1.6697 H   0  0  0  0  0  0  0  0  0  0  0  0
   -0.1976    2.0704    0.9000 H   0  0  0  0  0  0  0  0  0  0  0  0
   -1.7332    4.2100    0.5223 H   0  0  0  0  0  0  0  0  0  0  0  0
   -2.0205    3.2157    1.9669 H   0  0  0  0  0  0  0  0  0  0  0  0
   -4.1474    3.9835   -0.1048 H   0  0  0  0  0  0  0  0  0  0  0  0
   -3.9594    4.7006    1.5067 H   0  0  0  0  0  0  0  0  0  0  0  0
   -4.4309    2.9991    1.3384 H   0  0  0  0  0  0  0  0  0  0  0  0
    1.3552    1.7102   -0.7992 H   0  0  0  0  0  0  0  0  0  0  0  0
    3.6596    1.5756   -0.4691 H   0  0  0  0  0  0  0  0  0  0  0  0
    5.6581    0.1802   -0.7423 H   0  0  0  0  0  0  0  0  0  0  0  0
    5.4416   -2.2836   -0.9669 H   0  0  0  0  0  0  0  0  0  0  0  0
    3.1902   -3.3213   -0.9046 H   0  0  0  0  0  0  0  0  0  0  0  0
    1.2028   -1.9654   -0.6547 H   0  0  0  0  0  0  0  0  0  0  0  0
  1  2  1  0
  2  3  1  0
  3  4  1  0
  4  5  2  0
  4  6  1  0
  6  7  1  0
  7  8  1  0
  8  9  2  0
  8 10  1  0
 10 11  1  0
  6 12  1  0
 12 13  1  0
 13 14  2  0
 14 15  1  0
 15 16  2  0
 16 17  1  0
 17 18  2  0
  6 19  1  0
 19 20  1  0
 19 21  1  0
 19 22  1  0
 18 13  1  0
  1 23  1  0
  1 24  1  0
  1 25  1  0
  2 26  1  0
  2 27  1  0
  7 28  1  0
 10 29  1  0
 10 30  1  0
 11 31  1  0
 11 32  1  0
 11 33  1  0
 12 34  1  0
 14 35  1  0
 15 36  1  0
 16 37  1  0
 17 38  1  0
 18 39  1  0
M  END
$$$$
