
     RDKit          3D

 47 51  0  0  0  0  0  0  0  0999 V2000
   -2.3488   -2.6365   -3.1679 C   0  0  0  0  0  0  0  0  0  0  0  0
   -2.4035   -1.5183   -2.1763 C   0  0  0  0  0  0  0  0  0  0  0  0
   -3.5290   -0.8710   -2.0109 N   0  0  0  0  0  0  0  0  0  0  0  0
   -3.5497    0.1244   -1.0742 C   0  0  0  0  0  0  0  0  0  0  0  0
   -4.9462    1.0714   -0.7765 S   0  0  0  0  0  0  0  0  0  0  0  0
   -4.1521    1.9739    0.4385 C   0  0  0  0  0  0  0  0  0  0  0  0
   -2.8406    1.5718    0.6434 C   0  0  0  0  0  0  0  0  0  0  0  0
   -2.5192    0.5245   -0.2487 C   0  0  0  0  0  0  0  0  0  0  0  0
   -1.2218   -0.2558   -0.4852 C   0  0  0  0  0  0  0  0  0  0  0  0
   -0.0482   -0.1405    0.0882 N   0  0  0  0  0  0  0  0  0  0  0  0
    0.7788   -1.0459   -0.5237 N   0  0  0  0  0  0  0  0  0  0  0  0
    0.0823   -1.6785   -1.4491 C   0  0  0  0  0  0  0  0  0  0  0  0
    0.7854   -2.8297   -2.5235 S   0  0  0  0  0  0  0  0  0  0  0  0
    2.3351   -1.9810   -2.9391 C   0  0  0  0  0  0  0  0  0  0  0  0
    3.5061   -2.4854   -2.1130 C   0  0  0  0  0  0  0  0  0  0  0  0
    4.5177   -2.9445   -2.6483 O   0  0  0  0  0  0  0  0  0  0  0  0
    3.3732   -2.3261   -0.7531 N   0  0  0  0  0  0  0  0  0  0  0  0
    4.4850   -2.5105    0.1526 C   0  0  0  0  0  0  0  0  0  0  0  0
    4.6970   -1.2373    0.8918 C   0  0  0  0  0  0  0  0  0  0  0  0
    4.0035   -0.6056    1.9067 C   0  0  0  0  0  0  0  0  0  0  0  0
    4.6873    0.6100    2.1644 C   0  0  0  0  0  0  0  0  0  0  0  0
    5.7519    0.6438    1.2917 C   0  0  0  0  0  0  0  0  0  0  0  0
    5.7603   -0.4711    0.5131 O   0  0  0  0  0  0  0  0  0  0  0  0
   -1.2237   -1.2347   -1.4547 N   0  0  0  0  0  0  0  0  0  0  0  0
   -1.9521    2.2240    1.6533 C   0  0  0  0  0  0  0  0  0  0  0  0
   -2.7579    3.0633    2.6608 C   0  0  0  0  0  0  0  0  0  0  0  0
   -3.8329    3.9210    1.9687 C   0  0  0  0  0  0  0  0  0  0  0  0
   -4.8525    3.0580    1.2042 C   0  0  0  0  0  0  0  0  0  0  0  0
   -2.1103   -3.5725   -2.6624 H   0  0  0  0  0  0  0  0  0  0  0  0
   -1.6329   -2.4223   -3.9606 H   0  0  0  0  0  0  0  0  0  0  0  0
   -3.3293   -2.7583   -3.6407 H   0  0  0  0  0  0  0  0  0  0  0  0
    2.2543   -0.8986   -2.8187 H   0  0  0  0  0  0  0  0  0  0  0  0
    2.5503   -2.1772   -3.9923 H   0  0  0  0  0  0  0  0  0  0  0  0
    2.6181   -1.7194   -0.4336 H   0  0  0  0  0  0  0  0  0  0  0  0
    5.3957   -2.8156   -0.3838 H   0  0  0  0  0  0  0  0  0  0  0  0
    4.2149   -3.3119    0.8450 H   0  0  0  0  0  0  0  0  0  0  0  0
    3.0989   -0.9675    2.3884 H   0  0  0  0  0  0  0  0  0  0  0  0
    4.4309    1.3743    2.8850 H   0  0  0  0  0  0  0  0  0  0  0  0
    6.5388    1.3587    1.1022 H   0  0  0  0  0  0  0  0  0  0  0  0
   -1.3724    1.4699    2.1955 H   0  0  0  0  0  0  0  0  0  0  0  0
   -1.2396    2.8706    1.1289 H   0  0  0  0  0  0  0  0  0  0  0  0
   -2.0733    3.7086    3.2238 H   0  0  0  0  0  0  0  0  0  0  0  0
   -3.2437    2.3952    3.3883 H   0  0  0  0  0  0  0  0  0  0  0  0
   -3.3403    4.6163    1.2680 H   0  0  0  0  0  0  0  0  0  0  0  0
   -4.3600    4.5364    2.7109 H   0  0  0  0  0  0  0  0  0  0  0  0
   -5.5517    2.5986    1.9163 H   0  0  0  0  0  0  0  0  0  0  0  0
   -5.4335    3.7012    0.5311 H   0  0  0  0  0  0  0  0  0  0  0  0
  1  2  1  0
  2  3  2  0
  3  4  1  0
  4  5  1  0
  5  6  1  0
  6  7  2  0
  7  8  1  0
  8  9  1  0
  9 10  2  0
 10 11  1  0
 11 12  2  0
 12 13  1  0
 13 14  1  0
 14 15  1  0
 15 16  2  0
 15 17  1  0
 17 18  1  0
 18 19  1  0
 19 20  2  0
 20 21  1  0
 21 22  2  0
 22 23  1  0
 12 24  1  0
  7 25  1  0
 25 26  1  0
 26 27  1  0
 27 28  1  0
 24  2  1  0
  8  4  2  0
 24  9  1  0
 28  6  1  0
 23 19  1  0
  1 29  1  0
  1 30  1  0
  1 31  1  0
 14 32  1  0
 14 33  1  0
 17 34  1  0
 18 35  1  0
 18 36  1  0
 20 37  1  0
 21 38  1  0
 22 39  1  0
 25 40  1  0
 25 41  1  0
 26 42  1  0
 26 43  1  0
 27 44  1  0
 27 45  1  0
 28 46  1  0
 28 47  1  0
M  END
$$$$
