
     RDKit          3D

 58 61  0  0  0  0  0  0  0  0999 V2000
   -1.4287    4.8939    2.5446 C   0  0  0  0  0  0  0  0  0  0  0  0
   -1.4188    3.4749    2.4598 O   0  0  0  0  0  0  0  0  0  0  0  0
   -2.2395    2.9041    1.5258 C   0  0  0  0  0  0  0  0  0  0  0  0
   -3.0907    3.5862    0.6562 C   0  0  0  0  0  0  0  0  0  0  0  0
   -3.8792    2.8768   -0.2531 C   0  0  0  0  0  0  0  0  0  0  0  0
   -3.8203    1.4834   -0.2968 C   0  0  0  0  0  0  0  0  0  0  0  0
   -2.9725    0.7838    0.5708 C   0  0  0  0  0  0  0  0  0  0  0  0
   -2.8917   -0.6820    0.5240 C   0  0  0  0  0  0  0  0  0  0  0  0
   -4.2907   -1.5862    0.9183 S   0  0  0  0  0  0  0  0  0  0  0  0
   -3.4942   -3.0902    0.6967 C   0  0  0  0  0  0  0  0  0  0  0  0
   -4.0529   -4.3731    0.8547 C   0  0  0  0  0  0  0  0  0  0  0  0
   -3.2555   -5.5005    0.6270 C   0  0  0  0  0  0  0  0  0  0  0  0
   -1.9279   -5.3621    0.2467 C   0  0  0  0  0  0  0  0  0  0  0  0
   -1.0524   -6.3826   -0.0065 O   0  0  0  0  0  0  0  0  0  0  0  0
   -1.5475   -7.7079    0.1362 C   0  0  0  0  0  0  0  0  0  0  0  0
   -1.3852   -4.0806    0.0934 C   0  0  0  0  0  0  0  0  0  0  0  0
   -2.1623   -2.9142    0.3219 C   0  0  0  0  0  0  0  0  0  0  0  0
   -1.8195   -1.5110    0.2279 C   0  0  0  0  0  0  0  0  0  0  0  0
   -0.5100   -0.9774   -0.1353 C   0  0  0  0  0  0  0  0  0  0  0  0
   -0.3312   -0.2895   -1.3404 C   0  0  0  0  0  0  0  0  0  0  0  0
    0.9249    0.2235   -1.6837 C   0  0  0  0  0  0  0  0  0  0  0  0
    2.0112    0.0503   -0.8256 C   0  0  0  0  0  0  0  0  0  0  0  0
    3.2845    0.4998   -1.0380 O   0  0  0  0  0  0  0  0  0  0  0  0
    3.5058    1.3133   -2.1914 C   0  0  0  0  0  0  0  0  0  0  0  0
    4.9745    1.7837   -2.2247 C   0  0  0  0  0  0  0  0  0  0  0  0
    5.3909    2.8660   -1.3110 N   0  0  0  0  0  0  0  0  0  0  0  0
    4.7229    4.1330   -1.5921 C   0  0  0  0  0  0  0  0  0  0  0  0
    5.2390    2.5018    0.0960 C   0  0  0  0  0  0  0  0  0  0  0  0
    1.8328   -0.6470    0.3720 C   0  0  0  0  0  0  0  0  0  0  0  0
    0.5808   -1.1596    0.7192 C   0  0  0  0  0  0  0  0  0  0  0  0
   -2.1857    1.5074    1.4776 C   0  0  0  0  0  0  0  0  0  0  0  0
   -2.4179    5.2653    2.8320 H   0  0  0  0  0  0  0  0  0  0  0  0
   -0.7230    5.1870    3.3278 H   0  0  0  0  0  0  0  0  0  0  0  0
   -1.0923    5.3480    1.6067 H   0  0  0  0  0  0  0  0  0  0  0  0
   -3.1653    4.6684    0.6602 H   0  0  0  0  0  0  0  0  0  0  0  0
   -4.5412    3.4116   -0.9295 H   0  0  0  0  0  0  0  0  0  0  0  0
   -4.4365    0.9476   -1.0153 H   0  0  0  0  0  0  0  0  0  0  0  0
   -5.0923   -4.4888    1.1499 H   0  0  0  0  0  0  0  0  0  0  0  0
   -3.7141   -6.4753    0.7570 H   0  0  0  0  0  0  0  0  0  0  0  0
   -0.7305   -8.3970   -0.0985 H   0  0  0  0  0  0  0  0  0  0  0  0
   -1.8620   -7.9031    1.1668 H   0  0  0  0  0  0  0  0  0  0  0  0
   -2.3612   -7.9034   -0.5700 H   0  0  0  0  0  0  0  0  0  0  0  0
   -0.3450   -3.9812   -0.2098 H   0  0  0  0  0  0  0  0  0  0  0  0
   -1.1679   -0.1467   -2.0203 H   0  0  0  0  0  0  0  0  0  0  0  0
    1.0174    0.7492   -2.6277 H   0  0  0  0  0  0  0  0  0  0  0  0
    2.8264    2.1723   -2.2023 H   0  0  0  0  0  0  0  0  0  0  0  0
    3.3287    0.7082   -3.0894 H   0  0  0  0  0  0  0  0  0  0  0  0
    5.2016    2.1112   -3.2475 H   0  0  0  0  0  0  0  0  0  0  0  0
    5.6249    0.9189   -2.0398 H   0  0  0  0  0  0  0  0  0  0  0  0
    5.1687    4.9372   -0.9958 H   0  0  0  0  0  0  0  0  0  0  0  0
    3.6508    4.1057   -1.3708 H   0  0  0  0  0  0  0  0  0  0  0  0
    4.8527    4.4158   -2.6425 H   0  0  0  0  0  0  0  0  0  0  0  0
    5.7323    1.5469    0.3085 H   0  0  0  0  0  0  0  0  0  0  0  0
    5.7241    3.2506    0.7325 H   0  0  0  0  0  0  0  0  0  0  0  0
    4.1905    2.4321    0.4044 H   0  0  0  0  0  0  0  0  0  0  0  0
    2.6762   -0.7888    1.0434 H   0  0  0  0  0  0  0  0  0  0  0  0
    0.4643   -1.6928    1.6596 H   0  0  0  0  0  0  0  0  0  0  0  0
   -1.5202    0.9832    2.1602 H   0  0  0  0  0  0  0  0  0  0  0  0
  1  2  1  0
  2  3  1  0
  3  4  2  0
  4  5  1  0
  5  6  2  0
  6  7  1  0
  7  8  1  0
  8  9  1  0
  9 10  1  0
 10 11  2  0
 11 12  1  0
 12 13  2  0
 13 14  1  0
 14 15  1  0
 13 16  1  0
 16 17  2  0
 17 18  1  0
 18 19  1  0
 19 20  2  0
 20 21  1  0
 21 22  2  0
 22 23  1  0
 23 24  1  0
 24 25  1  0
 25 26  1  0
 26 27  1  0
 26 28  1  0
 22 29  1  0
 29 30  2  0
  7 31  2  0
 31  3  1  0
 18  8  2  0
 30 19  1  0
 17 10  1  0
  1 32  1  0
  1 33  1  0
  1 34  1  0
  4 35  1  0
  5 36  1  0
  6 37  1  0
 11 38  1  0
 12 39  1  0
 15 40  1  0
 15 41  1  0
 15 42  1  0
 16 43  1  0
 20 44  1  0
 21 45  1  0
 24 46  1  0
 24 47  1  0
 25 48  1  0
 25 49  1  0
 27 50  1  0
 27 51  1  0
 27 52  1  0
 28 53  1  0
 28 54  1  0
 28 55  1  0
 29 56  1  0
 30 57  1  0
 31 58  1  0
M  END
$$$$
