
     RDKit          3D

 55 59  0  0  0  0  0  0  0  0999 V2000
    6.4207    3.1768   -1.4690 C   0  0  0  0  0  0  0  0  0  0  0  0
    5.3201    2.2898   -1.3116 O   0  0  0  0  0  0  0  0  0  0  0  0
    5.1498    1.7299   -0.0750 C   0  0  0  0  0  0  0  0  0  0  0  0
    6.0125    1.8667    1.0126 C   0  0  0  0  0  0  0  0  0  0  0  0
    5.7113    1.2448    2.2262 C   0  0  0  0  0  0  0  0  0  0  0  0
    4.5536    0.4753    2.3525 C   0  0  0  0  0  0  0  0  0  0  0  0
    3.6887    0.3089    1.2645 C   0  0  0  0  0  0  0  0  0  0  0  0
    2.4793   -0.4963    1.4264 C   0  0  0  0  0  0  0  0  0  0  0  0
    1.6587   -0.4341    2.4632 N   0  0  0  0  0  0  0  0  0  0  0  0
    0.6135   -1.2972    2.2496 N   0  0  0  0  0  0  0  0  0  0  0  0
    0.8338   -1.9007    1.1078 C   0  0  0  0  0  0  0  0  0  0  0  0
   -0.2354   -3.0273    0.3516 S   0  0  0  0  0  0  0  0  0  0  0  0
   -1.8098   -2.0861    0.5480 C   0  0  0  0  0  0  0  0  0  0  0  0
   -1.7382   -0.7439   -0.2104 C   0  0  0  0  0  0  0  0  0  0  0  0
   -1.0304   -0.6082   -1.2146 O   0  0  0  0  0  0  0  0  0  0  0  0
   -2.5668    0.3755    0.2677 C   0  0  0  0  0  0  0  0  0  0  0  0
   -3.4422    0.3581    1.3418 C   0  0  0  0  0  0  0  0  0  0  0  0
   -4.0113    1.5979    1.4625 N   0  0  0  0  0  0  0  0  0  0  0  0
   -3.5403    2.4358    0.4815 C   0  0  0  0  0  0  0  0  0  0  0  0
   -3.8459    3.7776    0.2223 C   0  0  0  0  0  0  0  0  0  0  0  0
   -3.2056    4.3934   -0.8567 C   0  0  0  0  0  0  0  0  0  0  0  0
   -2.2958    3.6927   -1.6431 C   0  0  0  0  0  0  0  0  0  0  0  0
   -2.0022    2.3522   -1.3684 C   0  0  0  0  0  0  0  0  0  0  0  0
   -2.6332    1.7018   -0.2848 C   0  0  0  0  0  0  0  0  0  0  0  0
   -2.9874   -2.9455    0.1101 C   0  0  0  0  0  0  0  0  0  0  0  0
   -3.3216   -3.1088   -1.2446 C   0  0  0  0  0  0  0  0  0  0  0  0
   -4.4049   -3.9059   -1.6186 C   0  0  0  0  0  0  0  0  0  0  0  0
   -5.1616   -4.5581   -0.6479 C   0  0  0  0  0  0  0  0  0  0  0  0
   -4.8336   -4.4192    0.6985 C   0  0  0  0  0  0  0  0  0  0  0  0
   -3.7521   -3.6215    1.0761 C   0  0  0  0  0  0  0  0  0  0  0  0
    2.0082   -1.4654    0.5633 N   0  0  0  0  0  0  0  0  0  0  0  0
    2.6344   -1.9379   -0.6448 C   0  0  0  0  0  0  0  0  0  0  0  0
    3.9913    0.9562    0.0584 C   0  0  0  0  0  0  0  0  0  0  0  0
    7.3725    2.6490   -1.3465 H   0  0  0  0  0  0  0  0  0  0  0  0
    6.3886    3.5713   -2.4896 H   0  0  0  0  0  0  0  0  0  0  0  0
    6.3472    4.0254   -0.7811 H   0  0  0  0  0  0  0  0  0  0  0  0
    6.9219    2.4558    0.9528 H   0  0  0  0  0  0  0  0  0  0  0  0
    6.3761    1.3635    3.0782 H   0  0  0  0  0  0  0  0  0  0  0  0
    4.3242    0.0052    3.3078 H   0  0  0  0  0  0  0  0  0  0  0  0
   -1.9026   -1.8706    1.6185 H   0  0  0  0  0  0  0  0  0  0  0  0
   -3.7142   -0.4217    2.0408 H   0  0  0  0  0  0  0  0  0  0  0  0
   -4.6818    1.8670    2.1697 H   0  0  0  0  0  0  0  0  0  0  0  0
   -4.5527    4.3278    0.8349 H   0  0  0  0  0  0  0  0  0  0  0  0
   -3.4196    5.4352   -1.0832 H   0  0  0  0  0  0  0  0  0  0  0  0
   -1.8055    4.1878   -2.4779 H   0  0  0  0  0  0  0  0  0  0  0  0
   -1.2880    1.8179   -1.9896 H   0  0  0  0  0  0  0  0  0  0  0  0
   -2.7391   -2.6214   -2.0252 H   0  0  0  0  0  0  0  0  0  0  0  0
   -4.6545   -4.0209   -2.6704 H   0  0  0  0  0  0  0  0  0  0  0  0
   -6.0025   -5.1806   -0.9419 H   0  0  0  0  0  0  0  0  0  0  0  0
   -5.4172   -4.9371    1.4553 H   0  0  0  0  0  0  0  0  0  0  0  0
   -3.5069   -3.5363    2.1331 H   0  0  0  0  0  0  0  0  0  0  0  0
    2.2406   -1.3611   -1.4862 H   0  0  0  0  0  0  0  0  0  0  0  0
    3.7187   -1.8194   -0.5714 H   0  0  0  0  0  0  0  0  0  0  0  0
    2.4237   -3.0017   -0.7807 H   0  0  0  0  0  0  0  0  0  0  0  0
    3.3137    0.8877   -0.7899 H   0  0  0  0  0  0  0  0  0  0  0  0
  1  2  1  0
  2  3  1  0
  3  4  2  0
  4  5  1  0
  5  6  2  0
  6  7  1  0
  7  8  1  0
  8  9  2  0
  9 10  1  0
 10 11  2  0
 11 12  1  0
 12 13  1  0
 13 14  1  0
 14 15  2  0
 14 16  1  0
 16 17  2  0
 17 18  1  0
 18 19  1  0
 19 20  2  0
 20 21  1  0
 21 22  2  0
 22 23  1  0
 23 24  2  0
 13 25  1  0
 25 26  2  0
 26 27  1  0
 27 28  2  0
 28 29  1  0
 29 30  2  0
 11 31  1  0
 31 32  1  0
  7 33  2  0
 33  3  1  0
 31  8  1  0
 24 16  1  0
 30 25  1  0
 24 19  1  0
  1 34  1  0
  1 35  1  0
  1 36  1  0
  4 37  1  0
  5 38  1  0
  6 39  1  0
 13 40  1  0
 17 41  1  0
 18 42  1  0
 20 43  1  0
 21 44  1  0
 22 45  1  0
 23 46  1  0
 26 47  1  0
 27 48  1  0
 28 49  1  0
 29 50  1  0
 30 51  1  0
 32 52  1  0
 32 53  1  0
 32 54  1  0
 33 55  1  0
M  END
$$$$
