
     RDKit          3D

 58 62  0  0  0  0  0  0  0  0999 V2000
    8.7587   -1.3543   -1.2069 C   0  0  0  0  0  0  0  0  0  0  0  0
    7.9925   -1.1950   -0.0193 O   0  0  0  0  0  0  0  0  0  0  0  0
    6.6652   -0.9015   -0.1741 C   0  0  0  0  0  0  0  0  0  0  0  0
    5.9975   -0.7444   -1.3901 C   0  0  0  0  0  0  0  0  0  0  0  0
    4.6298   -0.4429   -1.4088 C   0  0  0  0  0  0  0  0  0  0  0  0
    3.9120   -0.2940   -0.2219 C   0  0  0  0  0  0  0  0  0  0  0  0
    2.5384   -0.0039   -0.3025 N   0  0  0  0  0  0  0  0  0  0  0  0
    1.8112    0.1292    0.7807 C   0  0  0  0  0  0  0  0  0  0  0  0
    0.4496    0.3751    0.6263 N   0  0  0  0  0  0  0  0  0  0  0  0
   -0.0627    0.7787   -0.6970 C   0  0  0  0  0  0  0  0  0  0  0  0
   -1.5108    1.2965   -0.5769 C   0  0  0  0  0  0  0  0  0  0  0  0
   -2.4759    0.2799   -0.0877 N   0  0  0  0  0  0  0  0  0  0  0  0
   -3.6064    0.8980    0.6217 C   0  0  0  0  0  0  0  0  0  0  0  0
   -4.5790    1.6516   -0.3088 C   0  0  0  0  0  0  0  0  0  0  0  0
   -5.5118    0.7360   -1.0822 C   0  0  0  0  0  0  0  0  0  0  0  0
   -6.6136    0.2030   -0.3787 C   0  0  0  0  0  0  0  0  0  0  0  0
   -7.5155   -0.6674   -0.9884 C   0  0  0  0  0  0  0  0  0  0  0  0
   -7.3346   -1.0286   -2.3153 C   0  0  0  0  0  0  0  0  0  0  0  0
   -6.2548   -0.5125   -3.0303 C   0  0  0  0  0  0  0  0  0  0  0  0
   -5.3335    0.3811   -2.4389 C   0  0  0  0  0  0  0  0  0  0  0  0
   -4.1945    0.8804   -3.3048 C   0  0  0  0  0  0  0  0  0  0  0  0
   -3.0351    0.1929   -3.1207 F   0  0  0  0  0  0  0  0  0  0  0  0
   -3.8933    2.1973   -3.1254 F   0  0  0  0  0  0  0  0  0  0  0  0
   -4.4631    0.7698   -4.6421 F   0  0  0  0  0  0  0  0  0  0  0  0
   -1.7877   -0.7382    0.7350 C   0  0  0  0  0  0  0  0  0  0  0  0
   -0.5504   -0.2386    1.5130 C   0  0  0  0  0  0  0  0  0  0  0  0
    2.4778    0.0246    2.0738 C   0  0  0  0  0  0  0  0  0  0  0  0
    2.0342    0.2294    3.3695 C   0  0  0  0  0  0  0  0  0  0  0  0
    3.1159   -0.0207    4.2455 C   0  0  0  0  0  0  0  0  0  0  0  0
    4.2044   -0.3417    3.4658 C   0  0  0  0  0  0  0  0  0  0  0  0
    3.8219   -0.2786    2.1468 N   0  0  0  0  0  0  0  0  0  0  0  0
    4.5939   -0.4546    0.9880 C   0  0  0  0  0  0  0  0  0  0  0  0
    5.9589   -0.7549    1.0229 C   0  0  0  0  0  0  0  0  0  0  0  0
    8.7775   -0.4288   -1.7917 H   0  0  0  0  0  0  0  0  0  0  0  0
    9.7876   -1.5828   -0.9125 H   0  0  0  0  0  0  0  0  0  0  0  0
    8.3894   -2.1938   -1.8052 H   0  0  0  0  0  0  0  0  0  0  0  0
    6.5056   -0.8494   -2.3427 H   0  0  0  0  0  0  0  0  0  0  0  0
    4.1144   -0.3244   -2.3586 H   0  0  0  0  0  0  0  0  0  0  0  0
    0.5581    1.5866   -1.1028 H   0  0  0  0  0  0  0  0  0  0  0  0
   -0.0168   -0.0655   -1.3962 H   0  0  0  0  0  0  0  0  0  0  0  0
   -1.4935    2.1634    0.0977 H   0  0  0  0  0  0  0  0  0  0  0  0
   -1.8365    1.6606   -1.5559 H   0  0  0  0  0  0  0  0  0  0  0  0
   -4.1766    0.1265    1.1548 H   0  0  0  0  0  0  0  0  0  0  0  0
   -3.2361    1.5867    1.3924 H   0  0  0  0  0  0  0  0  0  0  0  0
   -4.0458    2.3443   -0.9626 H   0  0  0  0  0  0  0  0  0  0  0  0
   -5.2048    2.3054    0.3152 H   0  0  0  0  0  0  0  0  0  0  0  0
   -6.7730    0.4655    0.6661 H   0  0  0  0  0  0  0  0  0  0  0  0
   -8.3547   -1.0655   -0.4240 H   0  0  0  0  0  0  0  0  0  0  0  0
   -8.0303   -1.7117   -2.7958 H   0  0  0  0  0  0  0  0  0  0  0  0
   -6.1309   -0.8128   -4.0710 H   0  0  0  0  0  0  0  0  0  0  0  0
   -1.4596   -1.5318    0.0501 H   0  0  0  0  0  0  0  0  0  0  0  0
   -2.4825   -1.2293    1.4272 H   0  0  0  0  0  0  0  0  0  0  0  0
   -0.8640    0.4989    2.2604 H   0  0  0  0  0  0  0  0  0  0  0  0
   -0.1236   -1.0985    2.0416 H   0  0  0  0  0  0  0  0  0  0  0  0
    1.0391    0.5311    3.6632 H   0  0  0  0  0  0  0  0  0  0  0  0
    3.1076    0.0389    5.3263 H   0  0  0  0  0  0  0  0  0  0  0  0
    5.2161   -0.5875    3.7547 H   0  0  0  0  0  0  0  0  0  0  0  0
    6.4943   -0.8778    1.9586 H   0  0  0  0  0  0  0  0  0  0  0  0
  1  2  1  0
  2  3  1  0
  3  4  2  0
  4  5  1  0
  5  6  2  0
  6  7  1  0
  7  8  2  0
  8  9  1  0
  9 10  1  0
 10 11  1  0
 11 12  1  0
 12 13  1  0
 13 14  1  0
 14 15  1  0
 15 16  2  0
 16 17  1  0
 17 18  2  0
 18 19  1  0
 19 20  2  0
 20 21  1  0
 21 22  1  0
 21 23  1  0
 21 24  1  0
 12 25  1  0
 25 26  1  0
  8 27  1  0
 27 28  2  0
 28 29  1  0
 29 30  2  0
 30 31  1  0
 31 32  1  0
 32 33  2  0
 33  3  1  0
 32  6  1  0
 26  9  1  0
 31 27  1  0
 20 15  1  0
  1 34  1  0
  1 35  1  0
  1 36  1  0
  4 37  1  0
  5 38  1  0
 10 39  1  0
 10 40  1  0
 11 41  1  0
 11 42  1  0
 13 43  1  0
 13 44  1  0
 14 45  1  0
 14 46  1  0
 16 47  1  0
 17 48  1  0
 18 49  1  0
 19 50  1  0
 25 51  1  0
 25 52  1  0
 26 53  1  0
 26 54  1  0
 28 55  1  0
 29 56  1  0
 30 57  1  0
 33 58  1  0
M  END
$$$$
