
     RDKit          3D

 36 38  0  0  0  0  0  0  0  0999 V2000
   -2.0970    3.4043    1.0435 C   0  0  0  0  0  0  0  0  0  0  0  0
   -2.3007    2.1295    0.4351 O   0  0  0  0  0  0  0  0  0  0  0  0
   -1.1623    1.3871    0.3012 C   0  0  0  0  0  0  0  0  0  0  0  0
   -0.0536    1.7645    0.6664 O   0  0  0  0  0  0  0  0  0  0  0  0
   -1.4025    0.0881   -0.3218 C   0  0  0  0  0  0  0  0  0  0  0  0
   -0.3960   -0.8580   -0.5396 C   0  0  0  0  0  0  0  0  0  0  0  0
    0.9432   -0.7212   -0.2188 N   0  0  0  0  0  0  0  0  0  0  0  0
    1.9705   -1.6247   -0.4132 C   0  0  0  0  0  0  0  0  0  0  0  0
    1.9050   -2.7416   -0.9129 O   0  0  0  0  0  0  0  0  0  0  0  0
    3.2579   -1.0879    0.0711 C   0  0  0  0  0  0  0  0  0  0  0  0
    4.5225   -1.7313    0.0359 C   0  0  0  0  0  0  0  0  0  0  0  0
    5.4036   -0.8382    0.5966 C   0  0  0  0  0  0  0  0  0  0  0  0
    4.6641    0.2557    0.9303 N   0  0  0  0  0  0  0  0  0  0  0  0
    5.1401    1.4681    1.5515 C   0  0  0  0  0  0  0  0  0  0  0  0
    3.3586    0.1387    0.6259 N   0  0  0  0  0  0  0  0  0  0  0  0
   -0.9811   -2.2937   -1.2769 S   0  0  0  0  0  0  0  0  0  0  0  0
   -2.5296   -1.6841   -1.3152 C   0  0  0  0  0  0  0  0  0  0  0  0
   -2.6450   -0.4265   -0.7953 C   0  0  0  0  0  0  0  0  0  0  0  0
   -4.0538    0.0442   -0.8659 C   0  0  0  0  0  0  0  0  0  0  0  0
   -4.7096   -0.9979   -1.8255 C   0  0  0  0  0  0  0  0  0  0  0  0
   -3.7998   -2.2627   -1.8080 C   0  0  0  0  0  0  0  0  0  0  0  0
   -3.0646    3.9106    1.1004 H   0  0  0  0  0  0  0  0  0  0  0  0
   -1.4221    4.0161    0.4367 H   0  0  0  0  0  0  0  0  0  0  0  0
   -1.7080    3.2871    2.0598 H   0  0  0  0  0  0  0  0  0  0  0  0
    1.2322    0.1575    0.2193 H   0  0  0  0  0  0  0  0  0  0  0  0
    4.7408   -2.7170   -0.3518 H   0  0  0  0  0  0  0  0  0  0  0  0
    6.4677   -0.8935    0.7790 H   0  0  0  0  0  0  0  0  0  0  0  0
    6.2160    1.3896    1.7260 H   0  0  0  0  0  0  0  0  0  0  0  0
    4.6160    1.5968    2.5018 H   0  0  0  0  0  0  0  0  0  0  0  0
    4.9307    2.3043    0.8798 H   0  0  0  0  0  0  0  0  0  0  0  0
   -4.1462    1.0558   -1.2702 H   0  0  0  0  0  0  0  0  0  0  0  0
   -4.5216    0.0013    0.1233 H   0  0  0  0  0  0  0  0  0  0  0  0
   -5.7437   -1.2249   -1.5483 H   0  0  0  0  0  0  0  0  0  0  0  0
   -4.7253   -0.5841   -2.8426 H   0  0  0  0  0  0  0  0  0  0  0  0
   -3.7180   -2.7062   -2.8040 H   0  0  0  0  0  0  0  0  0  0  0  0
   -4.1885   -3.0058   -1.1043 H   0  0  0  0  0  0  0  0  0  0  0  0
  1  2  1  0
  2  3  1  0
  3  4  2  0
  3  5  1  0
  5  6  2  0
  6  7  1  0
  7  8  1  0
  8  9  2  0
  8 10  1  0
 10 11  1  0
 11 12  2  0
 12 13  1  0
 13 14  1  0
 13 15  1  0
  6 16  1  0
 16 17  1  0
 17 18  2  0
 18 19  1  0
 19 20  1  0
 20 21  1  0
 18  5  1  0
 15 10  2  0
 21 17  1  0
  1 22  1  0
  1 23  1  0
  1 24  1  0
  7 25  1  0
 11 26  1  0
 12 27  1  0
 14 28  1  0
 14 29  1  0
 14 30  1  0
 19 31  1  0
 19 32  1  0
 20 33  1  0
 20 34  1  0
 21 35  1  0
 21 36  1  0
M  END
$$$$
