
     RDKit          3D

 43 46  0  0  0  0  0  0  0  0999 V2000
   -1.5943   -1.1805    2.1301 O   0  0  0  0  0  0  0  0  0  0  0  0
   -1.8977   -0.4834    1.1705 C   0  0  0  0  0  0  0  0  0  0  0  0
   -1.0358    0.1450    0.2894 N   0  0  0  0  0  0  0  0  0  0  0  0
    0.3711    0.0545    0.2594 C   0  0  0  0  0  0  0  0  0  0  0  0
    1.0450    0.8505   -0.6715 C   0  0  0  0  0  0  0  0  0  0  0  0
    2.4415    0.8125   -0.7664 C   0  0  0  0  0  0  0  0  0  0  0  0
    3.1935   -0.0225    0.0672 C   0  0  0  0  0  0  0  0  0  0  0  0
    4.5943   -0.0027   -0.0992 N   0  0  0  0  0  0  0  0  0  0  0  0
    5.5529   -0.6824    0.6422 C   0  0  0  0  0  0  0  0  0  0  0  0
    5.2976   -1.3813    1.6181 O   0  0  0  0  0  0  0  0  0  0  0  0
    6.9213   -0.4723    0.1616 C   0  0  0  0  0  0  0  0  0  0  0  0
    7.3861   -0.0636   -1.0787 C   0  0  0  0  0  0  0  0  0  0  0  0
    8.8096    0.0198   -1.1338 C   0  0  0  0  0  0  0  0  0  0  0  0
    9.3923   -0.3355    0.0602 C   0  0  0  0  0  0  0  0  0  0  0  0
    8.2319   -0.7743    1.2335 S   0  0  0  0  0  0  0  0  0  0  0  0
    2.5195   -0.8204    0.9900 C   0  0  0  0  0  0  0  0  0  0  0  0
    1.1195   -0.7821    1.0851 C   0  0  0  0  0  0  0  0  0  0  0  0
   -3.3424   -0.2240    0.9176 C   0  0  0  0  0  0  0  0  0  0  0  0
   -4.1945   -0.0706    2.0140 C   0  0  0  0  0  0  0  0  0  0  0  0
   -5.5531    0.1802    1.8136 C   0  0  0  0  0  0  0  0  0  0  0  0
   -6.0810    0.2687    0.5160 C   0  0  0  0  0  0  0  0  0  0  0  0
   -7.4449    0.5204    0.2998 C   0  0  0  0  0  0  0  0  0  0  0  0
   -7.9600    0.5951   -0.9952 C   0  0  0  0  0  0  0  0  0  0  0  0
   -7.1193    0.4170   -2.0898 C   0  0  0  0  0  0  0  0  0  0  0  0
   -5.7604    0.1660   -1.8929 C   0  0  0  0  0  0  0  0  0  0  0  0
   -5.2246    0.0921   -0.5968 C   0  0  0  0  0  0  0  0  0  0  0  0
   -3.8587   -0.1584   -0.3836 C   0  0  0  0  0  0  0  0  0  0  0  0
   -1.4476    0.7981   -0.3638 H   0  0  0  0  0  0  0  0  0  0  0  0
    0.4981    1.5147   -1.3353 H   0  0  0  0  0  0  0  0  0  0  0  0
    2.9264    1.4494   -1.5015 H   0  0  0  0  0  0  0  0  0  0  0  0
    4.9385    0.6282   -0.8074 H   0  0  0  0  0  0  0  0  0  0  0  0
    6.7495    0.1510   -1.9277 H   0  0  0  0  0  0  0  0  0  0  0  0
    9.3772    0.3161   -2.0077 H   0  0  0  0  0  0  0  0  0  0  0  0
   10.4463   -0.3687    0.3010 H   0  0  0  0  0  0  0  0  0  0  0  0
    3.0444   -1.4959    1.6587 H   0  0  0  0  0  0  0  0  0  0  0  0
    0.6491   -1.4292    1.8196 H   0  0  0  0  0  0  0  0  0  0  0  0
   -3.8017   -0.1442    3.0265 H   0  0  0  0  0  0  0  0  0  0  0  0
   -6.1983    0.3010    2.6815 H   0  0  0  0  0  0  0  0  0  0  0  0
   -8.1198    0.6572    1.1421 H   0  0  0  0  0  0  0  0  0  0  0  0
   -9.0188    0.7886   -1.1475 H   0  0  0  0  0  0  0  0  0  0  0  0
   -7.5216    0.4710   -3.0983 H   0  0  0  0  0  0  0  0  0  0  0  0
   -5.1232    0.0266   -2.7634 H   0  0  0  0  0  0  0  0  0  0  0  0
   -3.2079   -0.3317   -1.2371 H   0  0  0  0  0  0  0  0  0  0  0  0
  1  2  2  0
  2  3  1  0
  3  4  1  0
  4  5  2  0
  5  6  1  0
  6  7  2  0
  7  8  1  0
  8  9  1  0
  9 10  2  0
  9 11  1  0
 11 12  2  0
 12 13  1  0
 13 14  2  0
 14 15  1  0
  7 16  1  0
 16 17  2  0
  2 18  1  0
 18 19  2  0
 19 20  1  0
 20 21  2  0
 21 22  1  0
 22 23  2  0
 23 24  1  0
 24 25  2  0
 25 26  1  0
 26 27  2  0
 17  4  1  0
 27 18  1  0
 15 11  1  0
 26 21  1  0
  3 28  1  0
  5 29  1  0
  6 30  1  0
  8 31  1  0
 12 32  1  0
 13 33  1  0
 14 34  1  0
 16 35  1  0
 17 36  1  0
 19 37  1  0
 20 38  1  0
 22 39  1  0
 23 40  1  0
 24 41  1  0
 25 42  1  0
 27 43  1  0
M  END
$$$$
