
     RDKit          3D

 51 55  0  0  0  0  0  0  0  0999 V2000
    5.0754   -1.8020    1.0670 F   0  0  0  0  0  0  0  0  0  0  0  0
    5.6478   -1.0683    0.1016 C   0  0  0  0  0  0  0  0  0  0  0  0
    7.0092   -1.2221   -0.1413 C   0  0  0  0  0  0  0  0  0  0  0  0
    7.6218   -0.4614   -1.1351 C   0  0  0  0  0  0  0  0  0  0  0  0
    6.8678    0.4491   -1.8766 C   0  0  0  0  0  0  0  0  0  0  0  0
    5.5008    0.5993   -1.6279 C   0  0  0  0  0  0  0  0  0  0  0  0
    4.8745   -0.1659   -0.6351 C   0  0  0  0  0  0  0  0  0  0  0  0
    3.4039   -0.0039   -0.3416 C   0  0  0  0  0  0  0  0  0  0  0  0
    3.1650    0.9552    0.8391 C   0  0  0  0  0  0  0  0  0  0  0  0
    1.7700    1.1863    1.2310 N   0  0  0  0  0  0  0  0  0  0  0  0
    1.1564    0.0354    1.9174 C   0  0  0  0  0  0  0  0  0  0  0  0
   -0.3833    0.1113    1.9542 C   0  0  0  0  0  0  0  0  0  0  0  0
   -0.9404    0.0896    0.5884 N   0  0  0  0  0  0  0  0  0  0  0  0
   -2.3106   -0.0889    0.4183 C   0  0  0  0  0  0  0  0  0  0  0  0
   -3.0845    0.0667    1.4654 N   0  0  0  0  0  0  0  0  0  0  0  0
   -4.4820   -0.0566    1.3592 C   0  0  0  0  0  0  0  0  0  0  0  0
   -5.2538    0.1387    2.5064 C   0  0  0  0  0  0  0  0  0  0  0  0
   -6.6468    0.0406    2.4551 C   0  0  0  0  0  0  0  0  0  0  0  0
   -7.2833   -0.2546    1.2491 C   0  0  0  0  0  0  0  0  0  0  0  0
   -6.5316   -0.4539    0.0905 C   0  0  0  0  0  0  0  0  0  0  0  0
   -5.1386   -0.3518    0.1580 C   0  0  0  0  0  0  0  0  0  0  0  0
   -4.3050   -0.5515   -0.9540 N   0  0  0  0  0  0  0  0  0  0  0  0
   -4.6418   -0.8790   -2.2462 C   0  0  0  0  0  0  0  0  0  0  0  0
   -3.4792   -1.0493   -2.9642 C   0  0  0  0  0  0  0  0  0  0  0  0
   -2.4032   -0.8000   -2.0810 C   0  0  0  0  0  0  0  0  0  0  0  0
   -2.9330   -0.4508   -0.8500 C   0  0  0  0  0  0  0  0  0  0  0  0
   -0.1123    0.7442   -0.4350 C   0  0  0  0  0  0  0  0  0  0  0  0
    0.9060    1.7353    0.1743 C   0  0  0  0  0  0  0  0  0  0  0  0
    7.5820   -1.9319    0.4467 H   0  0  0  0  0  0  0  0  0  0  0  0
    8.6850   -0.5754   -1.3305 H   0  0  0  0  0  0  0  0  0  0  0  0
    7.3465    1.0454   -2.6501 H   0  0  0  0  0  0  0  0  0  0  0  0
    4.9305    1.3174   -2.2130 H   0  0  0  0  0  0  0  0  0  0  0  0
    2.9010    0.3637   -1.2440 H   0  0  0  0  0  0  0  0  0  0  0  0
    2.9755   -0.9927   -0.1415 H   0  0  0  0  0  0  0  0  0  0  0  0
    3.7203    0.6042    1.7193 H   0  0  0  0  0  0  0  0  0  0  0  0
    3.6119    1.9295    0.5987 H   0  0  0  0  0  0  0  0  0  0  0  0
    1.5373   -0.0071    2.9442 H   0  0  0  0  0  0  0  0  0  0  0  0
    1.4319   -0.9071    1.4298 H   0  0  0  0  0  0  0  0  0  0  0  0
   -0.7575   -0.7512    2.5188 H   0  0  0  0  0  0  0  0  0  0  0  0
   -0.7036    1.0213    2.4769 H   0  0  0  0  0  0  0  0  0  0  0  0
   -4.7602    0.3713    3.4463 H   0  0  0  0  0  0  0  0  0  0  0  0
   -7.2326    0.1957    3.3574 H   0  0  0  0  0  0  0  0  0  0  0  0
   -8.3674   -0.3306    1.2137 H   0  0  0  0  0  0  0  0  0  0  0  0
   -7.0488   -0.6854   -0.8344 H   0  0  0  0  0  0  0  0  0  0  0  0
   -5.6705   -0.9878   -2.5571 H   0  0  0  0  0  0  0  0  0  0  0  0
   -3.4149   -1.3351   -4.0062 H   0  0  0  0  0  0  0  0  0  0  0  0
   -1.3534   -0.8745   -2.3259 H   0  0  0  0  0  0  0  0  0  0  0  0
   -0.7370    1.3070   -1.1380 H   0  0  0  0  0  0  0  0  0  0  0  0
    0.4216   -0.0271   -1.0007 H   0  0  0  0  0  0  0  0  0  0  0  0
    1.4950    2.1997   -0.6260 H   0  0  0  0  0  0  0  0  0  0  0  0
    0.3381    2.5587    0.6278 H   0  0  0  0  0  0  0  0  0  0  0  0
  1  2  1  0
  2  3  2  0
  3  4  1  0
  4  5  2  0
  5  6  1  0
  6  7  2  0
  7  8  1  0
  8  9  1  0
  9 10  1  0
 10 11  1  0
 11 12  1  0
 12 13  1  0
 13 14  1  0
 14 15  2  0
 15 16  1  0
 16 17  2  0
 17 18  1  0
 18 19  2  0
 19 20  1  0
 20 21  2  0
 21 22  1  0
 22 23  1  0
 23 24  2  0
 24 25  1  0
 25 26  2  0
 13 27  1  0
 27 28  1  0
  7  2  1  0
 28 10  1  0
 26 14  1  0
 21 16  1  0
 26 22  1  0
  3 29  1  0
  4 30  1  0
  5 31  1  0
  6 32  1  0
  8 33  1  0
  8 34  1  0
  9 35  1  0
  9 36  1  0
 11 37  1  0
 11 38  1  0
 12 39  1  0
 12 40  1  0
 17 41  1  0
 18 42  1  0
 19 43  1  0
 20 44  1  0
 23 45  1  0
 24 46  1  0
 25 47  1  0
 27 48  1  0
 27 49  1  0
 28 50  1  0
 28 51  1  0
M  END
$$$$
