
     RDKit          3D

 53 55  0  0  0  0  0  0  0  0999 V2000
   -4.8390   -4.9355   -0.5516 C   0  0  0  0  0  0  0  0  0  0  0  0
   -3.4507   -4.8011   -0.2724 O   0  0  0  0  0  0  0  0  0  0  0  0
   -2.9774   -3.5335   -0.0728 C   0  0  0  0  0  0  0  0  0  0  0  0
   -1.6088   -3.4636    0.2122 C   0  0  0  0  0  0  0  0  0  0  0  0
   -0.9919   -2.2340    0.4455 C   0  0  0  0  0  0  0  0  0  0  0  0
   -1.7568   -1.0675    0.4017 C   0  0  0  0  0  0  0  0  0  0  0  0
   -0.9648    0.4908    0.7034 S   0  0  0  0  0  6  0  0  0  0  0  0
   -1.9327    1.5480    0.4949 O   0  0  0  0  0  0  0  0  0  0  0  0
    0.2918    0.4794   -0.0117 O   0  0  0  0  0  0  0  0  0  0  0  0
   -0.6459    0.4272    2.3394 N   0  0  0  0  0  0  0  0  0  0  0  0
   -1.7488    0.2654    3.2939 C   0  0  0  0  0  0  0  0  0  0  0  0
   -1.3022    1.0422    4.5174 C   0  0  0  0  0  0  0  0  0  0  0  0
    0.1009    1.2621    4.3447 O   0  0  0  0  0  0  0  0  0  0  0  0
    0.3193    1.3748    2.9236 C   0  0  0  0  0  0  0  0  0  0  0  0
    0.1394    2.8655    2.5177 C   0  0  0  0  0  0  0  0  0  0  0  0
    0.5322    3.2078    1.1678 N   0  0  0  0  0  0  0  0  0  0  0  0
    1.8357    3.0880    0.7405 C   0  0  0  0  0  0  0  0  0  0  0  0
    2.7971    2.8445    1.4564 O   0  0  0  0  0  0  0  0  0  0  0  0
    2.0081    3.2281   -0.7900 C   0  0  0  0  0  0  0  0  0  0  0  0
    1.0865    3.6455   -1.4768 O   0  0  0  0  0  0  0  0  0  0  0  0
    3.2393    2.8110   -1.2406 N   0  0  0  0  0  0  0  0  0  0  0  0
    3.4931    2.5688   -2.6365 C   0  0  0  0  0  0  0  0  0  0  0  0
    3.3059    1.1091   -2.9664 C   0  0  0  0  0  0  0  0  0  0  0  0
    2.0136    0.5844   -3.1372 C   0  0  0  0  0  0  0  0  0  0  0  0
    1.8293   -0.7723   -3.4036 C   0  0  0  0  0  0  0  0  0  0  0  0
    2.9355   -1.6062   -3.4966 C   0  0  0  0  0  0  0  0  0  0  0  0
    2.7611   -2.9095   -3.7514 F   0  0  0  0  0  0  0  0  0  0  0  0
    4.2228   -1.1090   -3.3310 C   0  0  0  0  0  0  0  0  0  0  0  0
    4.4101    0.2477   -3.0620 C   0  0  0  0  0  0  0  0  0  0  0  0
   -3.1208   -1.1197    0.1041 C   0  0  0  0  0  0  0  0  0  0  0  0
   -3.7291   -2.3572   -0.1321 C   0  0  0  0  0  0  0  0  0  0  0  0
   -5.4473   -4.5609    0.2792 H   0  0  0  0  0  0  0  0  0  0  0  0
   -5.0546   -6.0024   -0.6656 H   0  0  0  0  0  0  0  0  0  0  0  0
   -5.1017   -4.4385   -1.4912 H   0  0  0  0  0  0  0  0  0  0  0  0
   -1.0204   -4.3774    0.2536 H   0  0  0  0  0  0  0  0  0  0  0  0
    0.0749   -2.1930    0.6599 H   0  0  0  0  0  0  0  0  0  0  0  0
   -2.7073    0.6414    2.9263 H   0  0  0  0  0  0  0  0  0  0  0  0
   -1.8595   -0.7966    3.5332 H   0  0  0  0  0  0  0  0  0  0  0  0
   -1.4818    0.4978    5.4489 H   0  0  0  0  0  0  0  0  0  0  0  0
   -1.8060    2.0126    4.5826 H   0  0  0  0  0  0  0  0  0  0  0  0
    1.3385    1.0305    2.7245 H   0  0  0  0  0  0  0  0  0  0  0  0
   -0.9026    3.1821    2.6385 H   0  0  0  0  0  0  0  0  0  0  0  0
    0.7360    3.4856    3.1983 H   0  0  0  0  0  0  0  0  0  0  0  0
   -0.1741    3.2836    0.4353 H   0  0  0  0  0  0  0  0  0  0  0  0
    3.8361    2.3730   -0.5457 H   0  0  0  0  0  0  0  0  0  0  0  0
    4.5236    2.8793   -2.8402 H   0  0  0  0  0  0  0  0  0  0  0  0
    2.8355    3.1838   -3.2610 H   0  0  0  0  0  0  0  0  0  0  0  0
    1.1427    1.2324   -3.0469 H   0  0  0  0  0  0  0  0  0  0  0  0
    0.8324   -1.1809   -3.5289 H   0  0  0  0  0  0  0  0  0  0  0  0
    5.0708   -1.7818   -3.4056 H   0  0  0  0  0  0  0  0  0  0  0  0
    5.4196    0.6264   -2.9233 H   0  0  0  0  0  0  0  0  0  0  0  0
   -3.7175   -0.2105    0.0574 H   0  0  0  0  0  0  0  0  0  0  0  0
   -4.7902   -2.3691   -0.3599 H   0  0  0  0  0  0  0  0  0  0  0  0
  1  2  1  0
  2  3  1  0
  3  4  2  0
  4  5  1  0
  5  6  2  0
  6  7  1  0
  7  8  2  0
  7  9  2  0
  7 10  1  0
 10 11  1  0
 11 12  1  0
 12 13  1  0
 13 14  1  0
 14 15  1  0
 15 16  1  0
 16 17  1  0
 17 18  2  0
 17 19  1  0
 19 20  2  0
 19 21  1  0
 21 22  1  0
 22 23  1  0
 23 24  2  0
 24 25  1  0
 25 26  2  0
 26 27  1  0
 26 28  1  0
 28 29  2  0
  6 30  1  0
 30 31  2  0
 31  3  1  0
 14 10  1  0
 29 23  1  0
  1 32  1  0
  1 33  1  0
  1 34  1  0
  4 35  1  0
  5 36  1  0
 11 37  1  0
 11 38  1  0
 12 39  1  0
 12 40  1  0
 14 41  1  0
 15 42  1  0
 15 43  1  0
 16 44  1  0
 21 45  1  0
 22 46  1  0
 22 47  1  0
 24 48  1  0
 25 49  1  0
 28 50  1  0
 29 51  1  0
 30 52  1  0
 31 53  1  0
M  END
$$$$
