
     RDKit          3D

 51 54  0  0  0  0  0  0  0  0999 V2000
   -6.9370   -0.0203    1.8373 C   0  0  0  0  0  0  0  0  0  0  0  0
   -6.7953   -0.0811    0.3232 C   0  0  0  0  0  0  0  0  0  0  0  0
   -5.7417    0.8234   -0.1611 N   0  0  0  0  0  0  0  0  0  0  0  0
   -6.1344    2.2212   -0.3940 C   0  0  0  0  0  0  0  0  0  0  0  0
   -5.5381    3.1644    0.6454 C   0  0  0  0  0  0  0  0  0  0  0  0
   -4.4361    0.3846   -0.3574 C   0  0  0  0  0  0  0  0  0  0  0  0
   -3.9538   -0.8178    0.1973 C   0  0  0  0  0  0  0  0  0  0  0  0
   -2.6304   -1.2596    0.0242 C   0  0  0  0  0  0  0  0  0  0  0  0
   -1.7413   -0.5077   -0.7361 C   0  0  0  0  0  0  0  0  0  0  0  0
   -0.3591   -0.9025   -0.9490 C   0  0  0  0  0  0  0  0  0  0  0  0
    0.4342   -0.1736   -1.7501 C   0  0  0  0  0  0  0  0  0  0  0  0
    1.7882   -0.5763   -1.9228 C   0  0  0  0  0  0  0  0  0  0  0  0
    2.7002   -0.6509   -0.9659 N   0  0  0  0  0  0  0  0  0  0  0  0
    3.9188   -1.0788   -1.4747 C   0  0  0  0  0  0  0  0  0  0  0  0
    5.1063   -1.1380   -0.6246 C   0  0  0  0  0  0  0  0  0  0  0  0
    5.1825   -0.3085    0.5094 C   0  0  0  0  0  0  0  0  0  0  0  0
    6.3240   -0.2955    1.3239 C   0  0  0  0  0  0  0  0  0  0  0  0
    7.4066   -1.1201    1.0186 C   0  0  0  0  0  0  0  0  0  0  0  0
    8.5838   -1.1899    1.7114 O   0  0  0  0  0  0  0  0  0  0  0  0
    8.7200   -0.3208    2.8343 C   0  0  0  0  0  0  0  0  0  0  0  0
    7.3279   -1.9671   -0.0945 C   0  0  0  0  0  0  0  0  0  0  0  0
    6.1890   -1.9796   -0.9102 C   0  0  0  0  0  0  0  0  0  0  0  0
    3.9054   -1.3819   -2.8207 C   0  0  0  0  0  0  0  0  0  0  0  0
    2.3501   -1.0932   -3.4776 S   0  0  0  0  0  0  0  0  0  0  0  0
   -0.0483    1.0704   -2.4000 C   0  0  0  0  0  0  0  0  0  0  0  0
    0.6474    1.7414   -3.1518 O   0  0  0  0  0  0  0  0  0  0  0  0
   -1.3536    1.4595   -2.1052 O   0  0  0  0  0  0  0  0  0  0  0  0
   -2.2007    0.6670   -1.3047 C   0  0  0  0  0  0  0  0  0  0  0  0
   -3.5130    1.1144   -1.1210 C   0  0  0  0  0  0  0  0  0  0  0  0
   -7.2229    0.9816    2.1711 H   0  0  0  0  0  0  0  0  0  0  0  0
   -6.0065   -0.2886    2.3441 H   0  0  0  0  0  0  0  0  0  0  0  0
   -7.7151   -0.7138    2.1662 H   0  0  0  0  0  0  0  0  0  0  0  0
   -7.7558    0.1980   -0.1298 H   0  0  0  0  0  0  0  0  0  0  0  0
   -6.6240   -1.1112   -0.0081 H   0  0  0  0  0  0  0  0  0  0  0  0
   -5.8704    2.5417   -1.4052 H   0  0  0  0  0  0  0  0  0  0  0  0
   -7.2253    2.3204   -0.3411 H   0  0  0  0  0  0  0  0  0  0  0  0
   -5.7766    2.8412    1.6629 H   0  0  0  0  0  0  0  0  0  0  0  0
   -5.9367    4.1775    0.5012 H   0  0  0  0  0  0  0  0  0  0  0  0
   -4.4485    3.2255    0.5675 H   0  0  0  0  0  0  0  0  0  0  0  0
   -4.5976   -1.4436    0.8096 H   0  0  0  0  0  0  0  0  0  0  0  0
   -2.3191   -2.1885    0.4959 H   0  0  0  0  0  0  0  0  0  0  0  0
    0.0052   -1.7933   -0.4453 H   0  0  0  0  0  0  0  0  0  0  0  0
    4.3527    0.3526    0.7555 H   0  0  0  0  0  0  0  0  0  0  0  0
    6.3334    0.3799    2.1736 H   0  0  0  0  0  0  0  0  0  0  0  0
    8.0134   -0.5953    3.6277 H   0  0  0  0  0  0  0  0  0  0  0  0
    8.6031    0.7294    2.5380 H   0  0  0  0  0  0  0  0  0  0  0  0
    9.7351   -0.4403    3.2301 H   0  0  0  0  0  0  0  0  0  0  0  0
    8.1646   -2.6207   -0.3323 H   0  0  0  0  0  0  0  0  0  0  0  0
    6.1698   -2.6567   -1.7631 H   0  0  0  0  0  0  0  0  0  0  0  0
    4.7144   -1.7208   -3.4545 H   0  0  0  0  0  0  0  0  0  0  0  0
   -3.7947    2.0421   -1.6131 H   0  0  0  0  0  0  0  0  0  0  0  0
  1  2  1  0
  2  3  1  0
  3  4  1  0
  4  5  1  0
  3  6  1  0
  6  7  2  0
  7  8  1  0
  8  9  2  0
  9 10  1  0
 10 11  2  0
 11 12  1  0
 12 13  2  0
 13 14  1  0
 14 15  1  0
 15 16  2  0
 16 17  1  0
 17 18  2  0
 18 19  1  0
 19 20  1  0
 18 21  1  0
 21 22  2  0
 14 23  2  0
 23 24  1  0
 11 25  1  0
 25 26  2  0
 25 27  1  0
 27 28  1  0
 28 29  2  0
 29  6  1  0
 28  9  1  0
 24 12  1  0
 22 15  1  0
  1 30  1  0
  1 31  1  0
  1 32  1  0
  2 33  1  0
  2 34  1  0
  4 35  1  0
  4 36  1  0
  5 37  1  0
  5 38  1  0
  5 39  1  0
  7 40  1  0
  8 41  1  0
 10 42  1  0
 16 43  1  0
 17 44  1  0
 20 45  1  0
 20 46  1  0
 20 47  1  0
 21 48  1  0
 22 49  1  0
 23 50  1  0
 29 51  1  0
M  END
$$$$
