
     RDKit          3D

 46 48  0  0  0  0  0  0  0  0999 V2000
   -7.2557   -2.6629    0.7499 C   0  0  0  0  0  0  0  0  0  0  0  0
   -6.3133   -2.7279   -0.3126 O   0  0  0  0  0  0  0  0  0  0  0  0
   -5.4606   -1.6673   -0.4575 C   0  0  0  0  0  0  0  0  0  0  0  0
   -4.5650   -1.7893   -1.5203 C   0  0  0  0  0  0  0  0  0  0  0  0
   -3.6378   -0.7822   -1.7848 C   0  0  0  0  0  0  0  0  0  0  0  0
   -3.5927    0.3623   -0.9799 C   0  0  0  0  0  0  0  0  0  0  0  0
   -2.6144    1.4182   -1.2812 C   0  0  0  0  0  0  0  0  0  0  0  0
   -1.2895    1.3348   -1.1008 C   0  0  0  0  0  0  0  0  0  0  0  0
   -0.3895   -0.0113   -0.4752 S   0  0  0  0  0  0  0  0  0  0  0  0
    1.0969    0.8711   -0.6170 C   0  0  0  0  0  0  0  0  0  0  0  0
    2.2822    0.3599   -0.2670 C   0  0  0  0  0  0  0  0  0  0  0  0
    3.5450    1.1354   -0.3987 C   0  0  0  0  0  0  0  0  0  0  0  0
    3.5435    2.3276   -0.6925 O   0  0  0  0  0  0  0  0  0  0  0  0
    4.8295    0.4359   -0.1302 C   0  0  0  0  0  0  0  0  0  0  0  0
    5.0111   -0.9289   -0.3819 C   0  0  0  0  0  0  0  0  0  0  0  0
    6.2443   -1.5322   -0.1147 C   0  0  0  0  0  0  0  0  0  0  0  0
    7.3129   -0.7785    0.3859 C   0  0  0  0  0  0  0  0  0  0  0  0
    8.6248   -1.4355    0.7007 C   0  0  0  0  0  0  0  0  0  0  0  0
    7.1278    0.5863    0.6331 C   0  0  0  0  0  0  0  0  0  0  0  0
    5.8977    1.1923    0.3667 C   0  0  0  0  0  0  0  0  0  0  0  0
    0.8937    2.1190   -1.1229 N   0  0  0  0  0  0  0  0  0  0  0  0
   -0.3933    2.4820   -1.4219 C   0  0  0  0  0  0  0  0  0  0  0  0
   -0.7417    3.5583   -1.8781 O   0  0  0  0  0  0  0  0  0  0  0  0
   -4.4986    0.4978    0.0901 C   0  0  0  0  0  0  0  0  0  0  0  0
   -4.3938    1.6563    0.8203 O   0  0  0  0  0  0  0  0  0  0  0  0
   -5.2787    1.8304    1.9180 C   0  0  0  0  0  0  0  0  0  0  0  0
   -5.4266   -0.5228    0.3451 C   0  0  0  0  0  0  0  0  0  0  0  0
   -7.9384   -1.8166    0.6207 H   0  0  0  0  0  0  0  0  0  0  0  0
   -7.8532   -3.5793    0.7233 H   0  0  0  0  0  0  0  0  0  0  0  0
   -6.7526   -2.6217    1.7216 H   0  0  0  0  0  0  0  0  0  0  0  0
   -4.5908   -2.6760   -2.1491 H   0  0  0  0  0  0  0  0  0  0  0  0
   -2.9542   -0.8973   -2.6226 H   0  0  0  0  0  0  0  0  0  0  0  0
   -3.0518    2.3462   -1.6456 H   0  0  0  0  0  0  0  0  0  0  0  0
    2.3424   -0.6397    0.1455 H   0  0  0  0  0  0  0  0  0  0  0  0
    4.2197   -1.5402   -0.8058 H   0  0  0  0  0  0  0  0  0  0  0  0
    6.3702   -2.5956   -0.3101 H   0  0  0  0  0  0  0  0  0  0  0  0
    8.8107   -2.2791    0.0276 H   0  0  0  0  0  0  0  0  0  0  0  0
    8.6223   -1.7997    1.7326 H   0  0  0  0  0  0  0  0  0  0  0  0
    9.4544   -0.7317    0.5752 H   0  0  0  0  0  0  0  0  0  0  0  0
    7.9419    1.1897    1.0297 H   0  0  0  0  0  0  0  0  0  0  0  0
    5.7756    2.2580    0.5530 H   0  0  0  0  0  0  0  0  0  0  0  0
    1.6657    2.7697   -1.2502 H   0  0  0  0  0  0  0  0  0  0  0  0
   -6.3209    1.8601    1.5839 H   0  0  0  0  0  0  0  0  0  0  0  0
   -5.1261    1.0543    2.6752 H   0  0  0  0  0  0  0  0  0  0  0  0
   -5.0509    2.7953    2.3811 H   0  0  0  0  0  0  0  0  0  0  0  0
   -6.1225   -0.4252    1.1672 H   0  0  0  0  0  0  0  0  0  0  0  0
  1  2  1  0
  2  3  1  0
  3  4  2  0
  4  5  1  0
  5  6  2  0
  6  7  1  0
  7  8  2  3
  8  9  1  0
  9 10  1  0
 10 11  2  3
 11 12  1  0
 12 13  2  0
 12 14  1  0
 14 15  2  0
 15 16  1  0
 16 17  2  0
 17 18  1  0
 17 19  1  0
 19 20  2  0
 10 21  1  0
 21 22  1  0
 22 23  2  0
  6 24  1  0
 24 25  1  0
 25 26  1  0
 24 27  2  0
 27  3  1  0
 22  8  1  0
 20 14  1  0
  1 28  1  0
  1 29  1  0
  1 30  1  0
  4 31  1  0
  5 32  1  0
  7 33  1  0
 11 34  1  0
 15 35  1  0
 16 36  1  0
 18 37  1  0
 18 38  1  0
 18 39  1  0
 19 40  1  0
 20 41  1  0
 21 42  1  0
 26 43  1  0
 26 44  1  0
 26 45  1  0
 27 46  1  0
M  END
$$$$
