
     RDKit          3D

 56 58  0  0  0  0  0  0  0  0999 V2000
    9.4883   -1.1956   -0.3169 C   0  0  0  0  0  0  0  0  0  0  0  0
    9.2775    0.1337    0.3875 C   0  0  0  0  0  0  0  0  0  0  0  0
    8.2765    0.9037   -0.2766 O   0  0  0  0  0  0  0  0  0  0  0  0
    6.9760    0.7781    0.1178 C   0  0  0  0  0  0  0  0  0  0  0  0
    6.1008    1.6965   -0.4638 C   0  0  0  0  0  0  0  0  0  0  0  0
    4.7346    1.6864   -0.1579 C   0  0  0  0  0  0  0  0  0  0  0  0
    4.2207    0.7463    0.7328 C   0  0  0  0  0  0  0  0  0  0  0  0
    2.8610    0.6586    1.0952 N   0  0  0  0  0  0  0  0  0  0  0  0
    1.8157    1.4513    0.6490 C   0  0  0  0  0  0  0  0  0  0  0  0
    1.8895    2.3733   -0.1561 O   0  0  0  0  0  0  0  0  0  0  0  0
    0.4887    1.0230    1.2545 C   0  0  0  0  0  0  0  0  0  0  0  0
   -0.6362    2.0070    0.9543 C   0  0  0  0  0  0  0  0  0  0  0  0
   -0.9557    1.9928   -0.4837 N   0  0  0  0  0  0  0  0  0  0  0  0
   -2.4184    2.6606   -0.9732 S   0  0  0  0  0  6  0  0  0  0  0  0
   -2.2385    3.0945   -2.3402 O   0  0  0  0  0  0  0  0  0  0  0  0
   -2.9012    3.5508    0.0566 O   0  0  0  0  0  0  0  0  0  0  0  0
   -3.4606    1.2231   -1.0067 C   0  0  0  0  0  0  0  0  0  0  0  0
   -3.6089    0.4999   -2.1898 C   0  0  0  0  0  0  0  0  0  0  0  0
   -4.4545   -0.6146   -2.2208 C   0  0  0  0  0  0  0  0  0  0  0  0
   -5.1611   -1.0184   -1.0750 C   0  0  0  0  0  0  0  0  0  0  0  0
   -4.9996   -0.2762    0.0950 C   0  0  0  0  0  0  0  0  0  0  0  0
   -4.1630    0.8494    0.1371 C   0  0  0  0  0  0  0  0  0  0  0  0
   -5.7180   -0.6870    1.3106 C   0  0  0  0  0  0  0  0  0  0  0  0
   -5.4794   -0.1083    2.3677 O   0  0  0  0  0  0  0  0  0  0  0  0
   -6.6159   -1.7344    1.1815 N   0  0  0  0  0  0  0  0  0  0  0  0
   -7.3592   -2.1305    2.3637 C   0  0  0  0  0  0  0  0  0  0  0  0
   -6.7428   -2.5351    0.0531 C   0  0  0  0  0  0  0  0  0  0  0  0
   -7.4545   -3.5421    0.0570 O   0  0  0  0  0  0  0  0  0  0  0  0
   -6.0184   -2.1508   -1.0731 N   0  0  0  0  0  0  0  0  0  0  0  0
   -6.1592   -2.9506   -2.2847 C   0  0  0  0  0  0  0  0  0  0  0  0
    5.0987   -0.1788    1.3110 C   0  0  0  0  0  0  0  0  0  0  0  0
    6.4664   -0.1655    1.0056 C   0  0  0  0  0  0  0  0  0  0  0  0
    8.5844   -1.8116   -0.2901 H   0  0  0  0  0  0  0  0  0  0  0  0
   10.3046   -1.7555    0.1502 H   0  0  0  0  0  0  0  0  0  0  0  0
    9.7309   -1.0358   -1.3727 H   0  0  0  0  0  0  0  0  0  0  0  0
    9.0754    0.0131    1.4578 H   0  0  0  0  0  0  0  0  0  0  0  0
   10.2078    0.7109    0.3212 H   0  0  0  0  0  0  0  0  0  0  0  0
    6.4839    2.4361   -1.1640 H   0  0  0  0  0  0  0  0  0  0  0  0
    4.1063    2.4289   -0.6386 H   0  0  0  0  0  0  0  0  0  0  0  0
    2.6282   -0.0767    1.7512 H   0  0  0  0  0  0  0  0  0  0  0  0
    0.6137    0.9503    2.3413 H   0  0  0  0  0  0  0  0  0  0  0  0
    0.2408    0.0276    0.8668 H   0  0  0  0  0  0  0  0  0  0  0  0
   -1.5158    1.7109    1.5347 H   0  0  0  0  0  0  0  0  0  0  0  0
   -0.3452    3.0214    1.2478 H   0  0  0  0  0  0  0  0  0  0  0  0
   -0.1869    2.3076   -1.0898 H   0  0  0  0  0  0  0  0  0  0  0  0
   -3.0755    0.7962   -3.0913 H   0  0  0  0  0  0  0  0  0  0  0  0
   -4.5427   -1.1478   -3.1639 H   0  0  0  0  0  0  0  0  0  0  0  0
   -4.0665    1.4255    1.0559 H   0  0  0  0  0  0  0  0  0  0  0  0
   -7.4771   -1.2952    3.0599 H   0  0  0  0  0  0  0  0  0  0  0  0
   -8.3525   -2.4971    2.0880 H   0  0  0  0  0  0  0  0  0  0  0  0
   -6.8102   -2.9356    2.8628 H   0  0  0  0  0  0  0  0  0  0  0  0
   -6.5735   -2.3273   -3.0836 H   0  0  0  0  0  0  0  0  0  0  0  0
   -5.1801   -3.3449   -2.5770 H   0  0  0  0  0  0  0  0  0  0  0  0
   -6.8331   -3.8015   -2.1457 H   0  0  0  0  0  0  0  0  0  0  0  0
    4.7357   -0.9287    2.0096 H   0  0  0  0  0  0  0  0  0  0  0  0
    7.0980   -0.9120    1.4744 H   0  0  0  0  0  0  0  0  0  0  0  0
  1  2  1  0
  2  3  1  0
  3  4  1  0
  4  5  2  0
  5  6  1  0
  6  7  2  0
  7  8  1  0
  8  9  1  0
  9 10  2  0
  9 11  1  0
 11 12  1  0
 12 13  1  0
 13 14  1  0
 14 15  2  0
 14 16  2  0
 14 17  1  0
 17 18  2  0
 18 19  1  0
 19 20  2  0
 20 21  1  0
 21 22  2  0
 21 23  1  0
 23 24  2  0
 23 25  1  0
 25 26  1  0
 25 27  1  0
 27 28  2  0
 27 29  1  0
 29 30  1  0
  7 31  1  0
 31 32  2  0
 32  4  1  0
 22 17  1  0
 29 20  1  0
  1 33  1  0
  1 34  1  0
  1 35  1  0
  2 36  1  0
  2 37  1  0
  5 38  1  0
  6 39  1  0
  8 40  1  0
 11 41  1  0
 11 42  1  0
 12 43  1  0
 12 44  1  0
 13 45  1  0
 18 46  1  0
 19 47  1  0
 22 48  1  0
 26 49  1  0
 26 50  1  0
 26 51  1  0
 30 52  1  0
 30 53  1  0
 30 54  1  0
 31 55  1  0
 32 56  1  0
M  END
$$$$
