
     RDKit          3D

 59 62  0  0  0  0  0  0  0  0999 V2000
    7.8554   -0.2242    1.9974 C   0  0  0  0  0  0  0  0  0  0  0  0
    6.8443    0.4925    2.6974 O   0  0  0  0  0  0  0  0  0  0  0  0
    5.5911    0.4931    2.1486 C   0  0  0  0  0  0  0  0  0  0  0  0
    4.6464    1.2396    2.8598 C   0  0  0  0  0  0  0  0  0  0  0  0
    3.3246    1.3368    2.4155 C   0  0  0  0  0  0  0  0  0  0  0  0
    2.9375    0.6797    1.2479 C   0  0  0  0  0  0  0  0  0  0  0  0
    1.5691    0.7549    0.7386 C   0  0  0  0  0  0  0  0  0  0  0  0
    1.1781    0.0636   -0.3510 C   0  0  0  0  0  0  0  0  0  0  0  0
   -0.2138    0.1387   -0.9218 C   0  0  0  0  0  0  0  0  0  0  0  0
   -1.0736   -1.0231   -0.5454 N   0  0  0  0  0  0  0  0  0  0  0  0
   -2.1046   -1.3524   -1.5939 C   0  0  0  0  0  0  0  0  0  0  0  0
   -1.5892   -2.1591   -2.7872 C   0  0  0  0  0  0  0  0  0  0  0  0
   -0.6567   -3.3123   -2.4792 C   0  0  0  0  0  0  0  0  0  0  0  0
   -0.0351   -3.5609   -3.8309 C   0  0  0  0  0  0  0  0  0  0  0  0
   -0.0034   -2.1847   -4.4726 C   0  0  0  0  0  0  0  0  0  0  0  0
   -0.9126   -1.3389   -3.7512 O   0  0  0  0  0  0  0  0  0  0  0  0
   -1.6818   -1.0902    1.0556 S   0  0  0  0  0  6  0  0  0  0  0  0
   -0.6446   -0.7273    1.9957 O   0  0  0  0  0  0  0  0  0  0  0  0
   -2.4033   -2.3364    1.2081 O   0  0  0  0  0  0  0  0  0  0  0  0
   -2.8991    0.2211    1.1018 C   0  0  0  0  0  0  0  0  0  0  0  0
   -2.5330    1.4950    1.5470 C   0  0  0  0  0  0  0  0  0  0  0  0
   -3.4912    2.5121    1.6146 C   0  0  0  0  0  0  0  0  0  0  0  0
   -4.8214    2.2536    1.2579 C   0  0  0  0  0  0  0  0  0  0  0  0
   -5.8799    3.3067    1.3101 C   0  0  0  0  0  0  0  0  0  0  0  0
   -5.5181    4.6835    1.7960 C   0  0  0  0  0  0  0  0  0  0  0  0
   -7.0225    3.0423    0.9467 O   0  0  0  0  0  0  0  0  0  0  0  0
   -5.1839    0.9630    0.8439 C   0  0  0  0  0  0  0  0  0  0  0  0
   -4.2297   -0.0558    0.7758 C   0  0  0  0  0  0  0  0  0  0  0  0
    2.2044   -0.7125   -1.1165 C   0  0  0  0  0  0  0  0  0  0  0  0
    1.9496   -1.2854   -2.1731 O   0  0  0  0  0  0  0  0  0  0  0  0
    3.4799   -0.7413   -0.6165 N   0  0  0  0  0  0  0  0  0  0  0  0
    3.8799   -0.0761    0.5459 C   0  0  0  0  0  0  0  0  0  0  0  0
    5.2035   -0.1720    0.9845 C   0  0  0  0  0  0  0  0  0  0  0  0
    8.0104    0.1882    0.9917 H   0  0  0  0  0  0  0  0  0  0  0  0
    7.6228   -1.2959    1.9550 H   0  0  0  0  0  0  0  0  0  0  0  0
    8.7903   -0.1075    2.5536 H   0  0  0  0  0  0  0  0  0  0  0  0
    4.9442    1.7494    3.7725 H   0  0  0  0  0  0  0  0  0  0  0  0
    2.6107    1.9174    2.9939 H   0  0  0  0  0  0  0  0  0  0  0  0
    0.8681    1.3643    1.2998 H   0  0  0  0  0  0  0  0  0  0  0  0
   -0.1412    0.2275   -2.0101 H   0  0  0  0  0  0  0  0  0  0  0  0
   -0.7068    1.0668   -0.6108 H   0  0  0  0  0  0  0  0  0  0  0  0
   -2.5640   -0.4200   -1.9410 H   0  0  0  0  0  0  0  0  0  0  0  0
   -2.8959   -1.9625   -1.1470 H   0  0  0  0  0  0  0  0  0  0  0  0
   -2.4721   -2.5495   -3.3137 H   0  0  0  0  0  0  0  0  0  0  0  0
    0.1227   -3.0316   -1.7646 H   0  0  0  0  0  0  0  0  0  0  0  0
   -1.1840   -4.1849   -2.0813 H   0  0  0  0  0  0  0  0  0  0  0  0
    0.9555   -4.0178   -3.7751 H   0  0  0  0  0  0  0  0  0  0  0  0
   -0.6737   -4.2281   -4.4205 H   0  0  0  0  0  0  0  0  0  0  0  0
   -0.3155   -2.2266   -5.5187 H   0  0  0  0  0  0  0  0  0  0  0  0
    0.9913   -1.7344   -4.4389 H   0  0  0  0  0  0  0  0  0  0  0  0
   -1.5099    1.7042    1.8519 H   0  0  0  0  0  0  0  0  0  0  0  0
   -3.1755    3.4944    1.9559 H   0  0  0  0  0  0  0  0  0  0  0  0
   -4.8186    5.1524    1.1009 H   0  0  0  0  0  0  0  0  0  0  0  0
   -5.0968    4.6386    2.8032 H   0  0  0  0  0  0  0  0  0  0  0  0
   -6.4225    5.2982    1.8384 H   0  0  0  0  0  0  0  0  0  0  0  0
   -6.2181    0.7420    0.5813 H   0  0  0  0  0  0  0  0  0  0  0  0
   -4.5378   -1.0564    0.4783 H   0  0  0  0  0  0  0  0  0  0  0  0
    4.1439   -1.2849   -1.1536 H   0  0  0  0  0  0  0  0  0  0  0  0
    5.9063   -0.7668    0.4127 H   0  0  0  0  0  0  0  0  0  0  0  0
  1  2  1  0
  2  3  1  0
  3  4  2  0
  4  5  1  0
  5  6  2  0
  6  7  1  0
  7  8  2  0
  8  9  1  0
  9 10  1  0
 10 11  1  0
 11 12  1  0
 12 13  1  0
 13 14  1  0
 14 15  1  0
 15 16  1  0
 10 17  1  0
 17 18  2  0
 17 19  2  0
 17 20  1  0
 20 21  2  0
 21 22  1  0
 22 23  2  0
 23 24  1  0
 24 25  1  0
 24 26  2  0
 23 27  1  0
 27 28  2  0
  8 29  1  0
 29 30  2  0
 29 31  1  0
 31 32  1  0
 32 33  2  0
 33  3  1  0
 32  6  1  0
 16 12  1  0
 28 20  1  0
  1 34  1  0
  1 35  1  0
  1 36  1  0
  4 37  1  0
  5 38  1  0
  7 39  1  0
  9 40  1  0
  9 41  1  0
 11 42  1  0
 11 43  1  0
 12 44  1  0
 13 45  1  0
 13 46  1  0
 14 47  1  0
 14 48  1  0
 15 49  1  0
 15 50  1  0
 21 51  1  0
 22 52  1  0
 25 53  1  0
 25 54  1  0
 25 55  1  0
 27 56  1  0
 28 57  1  0
 31 58  1  0
 33 59  1  0
M  END
$$$$
