
     RDKit          3D

 46 49  0  0  0  0  0  0  0  0999 V2000
   -5.3066   -3.2705   -1.7518 C   0  0  0  0  0  0  0  0  0  0  0  0
   -4.5160   -2.0912   -1.6741 O   0  0  0  0  0  0  0  0  0  0  0  0
   -3.7955   -1.9062   -0.5256 C   0  0  0  0  0  0  0  0  0  0  0  0
   -3.8016   -2.7429    0.5907 C   0  0  0  0  0  0  0  0  0  0  0  0
   -3.0115   -2.4362    1.7019 C   0  0  0  0  0  0  0  0  0  0  0  0
   -2.2160   -1.2902    1.7055 C   0  0  0  0  0  0  0  0  0  0  0  0
   -2.2098   -0.4399    0.5963 C   0  0  0  0  0  0  0  0  0  0  0  0
   -1.3761    0.7553    0.5888 C   0  0  0  0  0  0  0  0  0  0  0  0
   -0.0209    0.8952    0.3209 C   0  0  0  0  0  0  0  0  0  0  0  0
    0.9618   -0.1347   -0.0092 C   0  0  0  0  0  0  0  0  0  0  0  0
    0.6887   -1.3290   -0.0582 O   0  0  0  0  0  0  0  0  0  0  0  0
    2.2196    0.4073   -0.2461 N   0  0  0  0  0  0  0  0  0  0  0  0
    3.2674   -0.3942   -0.5918 N   0  0  0  0  0  0  0  0  0  0  0  0
    4.4446    0.1260   -0.7922 C   0  0  0  0  0  0  0  0  0  0  0  0
    4.7324    1.6069   -0.6363 C   0  0  0  0  0  0  0  0  0  0  0  0
    5.5399   -0.7437   -1.2169 C   0  0  0  0  0  0  0  0  0  0  0  0
    6.7573   -0.4109   -1.7932 C   0  0  0  0  0  0  0  0  0  0  0  0
    7.5715   -1.5530   -2.0653 C   0  0  0  0  0  0  0  0  0  0  0  0
    6.9409   -2.7079   -1.6884 C   0  0  0  0  0  0  0  0  0  0  0  0
    7.5569   -4.3037   -1.8341 Cl  0  0  0  0  0  0  0  0  0  0  0  0
    5.4100   -2.4529   -1.0257 S   0  0  0  0  0  0  0  0  0  0  0  0
    0.3231    2.2212    0.3981 N   0  0  0  0  0  0  0  0  0  0  0  0
   -0.7562    2.9126    0.7129 N   0  0  0  0  0  0  0  0  0  0  0  0
   -1.8116    2.0545    0.8651 N   0  0  0  0  0  0  0  0  0  0  0  0
   -3.0952    2.5256    1.2436 C   0  0  0  0  0  0  0  0  0  0  0  0
   -4.1264    1.6933    1.3876 N   0  0  0  0  0  0  0  0  0  0  0  0
   -5.1873    2.5213    1.7462 O   0  0  0  0  0  0  0  0  0  0  0  0
   -4.7865    3.8512    1.8203 N   0  0  0  0  0  0  0  0  0  0  0  0
   -3.4890    3.8493    1.5177 C   0  0  0  0  0  0  0  0  0  0  0  0
   -2.7171    4.9524    1.4904 N   0  0  0  0  0  0  0  0  0  0  0  0
   -2.9965   -0.7587   -0.5178 C   0  0  0  0  0  0  0  0  0  0  0  0
   -5.7970   -3.2801   -2.7300 H   0  0  0  0  0  0  0  0  0  0  0  0
   -6.0902   -3.2709   -0.9870 H   0  0  0  0  0  0  0  0  0  0  0  0
   -4.6847   -4.1692   -1.6826 H   0  0  0  0  0  0  0  0  0  0  0  0
   -4.4045   -3.6438    0.6279 H   0  0  0  0  0  0  0  0  0  0  0  0
   -3.0111   -3.0970    2.5650 H   0  0  0  0  0  0  0  0  0  0  0  0
   -1.5993   -1.0757    2.5747 H   0  0  0  0  0  0  0  0  0  0  0  0
    2.3217    1.4151   -0.1960 H   0  0  0  0  0  0  0  0  0  0  0  0
    4.2900    2.1489   -1.4772 H   0  0  0  0  0  0  0  0  0  0  0  0
    4.3020    1.9776    0.2987 H   0  0  0  0  0  0  0  0  0  0  0  0
    5.8026    1.8200   -0.5998 H   0  0  0  0  0  0  0  0  0  0  0  0
    7.0627    0.6016   -2.0271 H   0  0  0  0  0  0  0  0  0  0  0  0
    8.5565   -1.5202   -2.5139 H   0  0  0  0  0  0  0  0  0  0  0  0
   -3.1607    5.8647    1.5118 H   0  0  0  0  0  0  0  0  0  0  0  0
   -1.7871    4.9398    1.0764 H   0  0  0  0  0  0  0  0  0  0  0  0
   -2.9950   -0.1171   -1.3956 H   0  0  0  0  0  0  0  0  0  0  0  0
  1  2  1  0
  2  3  1  0
  3  4  2  0
  4  5  1  0
  5  6  2  0
  6  7  1  0
  7  8  1  0
  8  9  2  0
  9 10  1  0
 10 11  2  0
 10 12  1  0
 12 13  1  0
 13 14  2  3
 14 15  1  0
 14 16  1  0
 16 17  2  0
 17 18  1  0
 18 19  2  0
 19 20  1  0
 19 21  1  0
  9 22  1  0
 22 23  2  0
 23 24  1  0
 24 25  1  0
 25 26  2  0
 26 27  1  0
 27 28  1  0
 28 29  2  0
 29 30  1  0
  7 31  2  0
 31  3  1  0
 24  8  1  0
 29 25  1  0
 21 16  1  0
  1 32  1  0
  1 33  1  0
  1 34  1  0
  4 35  1  0
  5 36  1  0
  6 37  1  0
 12 38  1  0
 15 39  1  0
 15 40  1  0
 15 41  1  0
 17 42  1  0
 18 43  1  0
 30 44  1  0
 30 45  1  0
 31 46  1  0
M  END
$$$$
