
     RDKit          3D

 68 71  0  0  0  0  0  0  0  0999 V2000
   -0.5460   -6.3464   -1.2748 C   0  0  0  0  0  0  0  0  0  0  0  0
   -0.8172   -4.8718   -1.2502 C   0  0  0  0  0  0  0  0  0  0  0  0
    0.1887   -3.9602   -1.5809 C   0  0  0  0  0  0  0  0  0  0  0  0
   -0.0568   -2.5859   -1.5288 C   0  0  0  0  0  0  0  0  0  0  0  0
   -1.3118   -2.0884   -1.1346 C   0  0  0  0  0  0  0  0  0  0  0  0
   -1.5131   -0.5793   -1.0741 C   0  0  0  0  0  0  0  0  0  0  0  0
   -2.9987   -0.0975   -1.1159 C   0  0  0  0  0  0  0  0  0  0  0  0
   -3.8213   -0.5353   -1.9188 O   0  0  0  0  0  0  0  0  0  0  0  0
   -3.3197    0.9077   -0.2196 N   0  0  0  0  0  0  0  0  0  0  0  0
   -4.6018    1.5919   -0.2559 C   0  0  0  0  0  0  0  0  0  0  0  0
   -4.8617    2.3471    1.0442 C   0  0  0  0  0  0  0  0  0  0  0  0
   -4.1288    3.6797    0.8873 C   0  0  0  0  0  0  0  0  0  0  0  0
   -3.8869    3.8645   -0.6106 C   0  0  0  0  0  0  0  0  0  0  0  0
   -4.6121    2.7102   -1.2957 C   0  0  0  0  0  0  0  0  0  0  0  0
   -0.7629    0.0563    0.0414 N   0  0  0  0  0  0  0  0  0  0  0  0
   -0.9580   -0.4702    1.3998 C   0  0  0  0  0  0  0  0  0  0  0  0
    0.1774   -1.3543    1.7829 C   0  0  0  0  0  0  0  0  0  0  0  0
    0.2832   -2.7067    2.0383 C   0  0  0  0  0  0  0  0  0  0  0  0
    1.6431   -2.9529    2.3448 C   0  0  0  0  0  0  0  0  0  0  0  0
    2.2781   -1.7363    2.2710 C   0  0  0  0  0  0  0  0  0  0  0  0
    1.3968   -0.7604    1.9404 O   0  0  0  0  0  0  0  0  0  0  0  0
   -0.0118    1.2154   -0.0986 C   0  0  0  0  0  0  0  0  0  0  0  0
    0.2683    1.9309    0.8649 O   0  0  0  0  0  0  0  0  0  0  0  0
    0.4140    1.6227   -1.4993 C   0  0  0  0  0  0  0  0  0  0  0  0
    1.5535    2.6375   -1.4441 C   0  0  0  0  0  0  0  0  0  0  0  0
    2.8359    1.9610   -0.9887 C   0  0  0  0  0  0  0  0  0  0  0  0
    3.1621    0.8611   -1.4295 O   0  0  0  0  0  0  0  0  0  0  0  0
    3.5651    2.7235   -0.1093 N   0  0  0  0  0  0  0  0  0  0  0  0
    4.7661    2.3537    0.4542 C   0  0  0  0  0  0  0  0  0  0  0  0
    5.5199    1.1738    0.2686 C   0  0  0  0  0  0  0  0  0  0  0  0
    6.6197    1.3363    1.0735 C   0  0  0  0  0  0  0  0  0  0  0  0
    7.8027    0.5149    1.3782 C   0  0  0  0  0  0  0  0  0  0  0  0
    6.5396    2.5397    1.6984 O   0  0  0  0  0  0  0  0  0  0  0  0
    5.3778    3.1808    1.3094 N   0  0  0  0  0  0  0  0  0  0  0  0
   -2.3086   -3.0102   -0.7835 C   0  0  0  0  0  0  0  0  0  0  0  0
   -2.0628   -4.3860   -0.8406 C   0  0  0  0  0  0  0  0  0  0  0  0
   -1.4510   -6.9049   -1.5355 H   0  0  0  0  0  0  0  0  0  0  0  0
   -0.1943   -6.6783   -0.2930 H   0  0  0  0  0  0  0  0  0  0  0  0
    0.2140   -6.5924   -2.0240 H   0  0  0  0  0  0  0  0  0  0  0  0
    1.1750   -4.3109   -1.8770 H   0  0  0  0  0  0  0  0  0  0  0  0
    0.7522   -1.9004   -1.7784 H   0  0  0  0  0  0  0  0  0  0  0  0
   -1.1304   -0.1937   -2.0248 H   0  0  0  0  0  0  0  0  0  0  0  0
   -2.5540    1.3513    0.2755 H   0  0  0  0  0  0  0  0  0  0  0  0
   -5.3847    0.8530   -0.4565 H   0  0  0  0  0  0  0  0  0  0  0  0
   -5.9366    2.5405    1.1486 H   0  0  0  0  0  0  0  0  0  0  0  0
   -4.5314    1.8026    1.9345 H   0  0  0  0  0  0  0  0  0  0  0  0
   -3.1728    3.6616    1.4222 H   0  0  0  0  0  0  0  0  0  0  0  0
   -4.7205    4.5012    1.3046 H   0  0  0  0  0  0  0  0  0  0  0  0
   -2.8121    3.8125   -0.8204 H   0  0  0  0  0  0  0  0  0  0  0  0
   -4.2442    4.8350   -0.9673 H   0  0  0  0  0  0  0  0  0  0  0  0
   -5.6459    3.0070   -1.5104 H   0  0  0  0  0  0  0  0  0  0  0  0
   -4.1353    2.4349   -2.2413 H   0  0  0  0  0  0  0  0  0  0  0  0
   -1.9094   -1.0096    1.4564 H   0  0  0  0  0  0  0  0  0  0  0  0
   -1.0228    0.3582    2.1144 H   0  0  0  0  0  0  0  0  0  0  0  0
   -0.5194   -3.4292    1.9864 H   0  0  0  0  0  0  0  0  0  0  0  0
    2.1041   -3.8999    2.5844 H   0  0  0  0  0  0  0  0  0  0  0  0
    3.2986   -1.4106    2.4162 H   0  0  0  0  0  0  0  0  0  0  0  0
    0.7321    0.7427   -2.0663 H   0  0  0  0  0  0  0  0  0  0  0  0
   -0.4515    2.0748   -1.9958 H   0  0  0  0  0  0  0  0  0  0  0  0
    1.7409    3.0381   -2.4471 H   0  0  0  0  0  0  0  0  0  0  0  0
    1.3008    3.4847   -0.7975 H   0  0  0  0  0  0  0  0  0  0  0  0
    3.2046    3.6010    0.2397 H   0  0  0  0  0  0  0  0  0  0  0  0
    5.2936    0.3210   -0.3526 H   0  0  0  0  0  0  0  0  0  0  0  0
    7.8742    0.3301    2.4545 H   0  0  0  0  0  0  0  0  0  0  0  0
    7.7505   -0.4528    0.8695 H   0  0  0  0  0  0  0  0  0  0  0  0
    8.7161    1.0222    1.0529 H   0  0  0  0  0  0  0  0  0  0  0  0
   -3.2956   -2.6789   -0.4673 H   0  0  0  0  0  0  0  0  0  0  0  0
   -2.8569   -5.0771   -0.5656 H   0  0  0  0  0  0  0  0  0  0  0  0
  1  2  1  0
  2  3  2  0
  3  4  1  0
  4  5  2  0
  5  6  1  0
  6  7  1  0
  7  8  2  0
  7  9  1  0
  9 10  1  0
 10 11  1  0
 11 12  1  0
 12 13  1  0
 13 14  1  0
  6 15  1  0
 15 16  1  0
 16 17  1  0
 17 18  2  0
 18 19  1  0
 19 20  2  0
 20 21  1  0
 15 22  1  0
 22 23  2  0
 22 24  1  0
 24 25  1  0
 25 26  1  0
 26 27  2  0
 26 28  1  0
 28 29  1  0
 29 30  1  0
 30 31  2  0
 31 32  1  0
 31 33  1  0
 33 34  1  0
  5 35  1  0
 35 36  2  0
 36  2  1  0
 14 10  1  0
 21 17  1  0
 34 29  2  0
  1 37  1  0
  1 38  1  0
  1 39  1  0
  3 40  1  0
  4 41  1  0
  6 42  1  0
  9 43  1  0
 10 44  1  0
 11 45  1  0
 11 46  1  0
 12 47  1  0
 12 48  1  0
 13 49  1  0
 13 50  1  0
 14 51  1  0
 14 52  1  0
 16 53  1  0
 16 54  1  0
 18 55  1  0
 19 56  1  0
 20 57  1  0
 24 58  1  0
 24 59  1  0
 25 60  1  0
 25 61  1  0
 28 62  1  0
 30 63  1  0
 32 64  1  0
 32 65  1  0
 32 66  1  0
 35 67  1  0
 36 68  1  0
M  END
$$$$
