
     RDKit          3D

 44 47  0  0  0  0  0  0  0  0999 V2000
   -4.1434   -3.6542    1.3125 C   0  0  0  0  0  0  0  0  0  0  0  0
   -4.8845   -2.7118    0.3801 C   0  0  0  0  0  0  0  0  0  0  0  0
   -4.5553   -1.3549    0.6620 O   0  0  0  0  0  0  0  0  0  0  0  0
   -3.4745   -0.7744    0.0494 C   0  0  0  0  0  0  0  0  0  0  0  0
   -2.5801   -1.4403   -0.7925 C   0  0  0  0  0  0  0  0  0  0  0  0
   -1.5039   -0.7577   -1.3677 C   0  0  0  0  0  0  0  0  0  0  0  0
   -1.2998    0.5963   -1.0977 C   0  0  0  0  0  0  0  0  0  0  0  0
   -0.2020    1.3439   -1.7191 C   0  0  0  0  0  0  0  0  0  0  0  0
    1.1116    1.1302   -1.5478 C   0  0  0  0  0  0  0  0  0  0  0  0
    2.3127    2.1353   -2.3654 S   0  0  0  0  0  0  0  0  0  0  0  0
    3.5659    1.2433   -1.6131 C   0  0  0  0  0  0  0  0  0  0  0  0
    4.8666    1.2803   -1.6337 N   0  0  0  0  0  0  0  0  0  0  0  0
    5.1831    0.2391   -0.7709 C   0  0  0  0  0  0  0  0  0  0  0  0
    6.6631   -0.1438   -0.4431 C   0  0  0  0  0  0  0  0  0  0  0  0
    7.7832    0.4849   -0.9528 C   0  0  0  0  0  0  0  0  0  0  0  0
    8.9081   -0.1741   -0.3999 C   0  0  0  0  0  0  0  0  0  0  0  0
    8.4075   -1.1635    0.4123 C   0  0  0  0  0  0  0  0  0  0  0  0
    7.0504   -1.1540    0.3932 O   0  0  0  0  0  0  0  0  0  0  0  0
    4.1259   -0.4109   -0.2436 N   0  0  0  0  0  0  0  0  0  0  0  0
    3.1110    0.2648   -0.8070 N   0  0  0  0  0  0  0  0  0  0  0  0
    1.7493    0.0875   -0.6749 C   0  0  0  0  0  0  0  0  0  0  0  0
    1.2522   -0.7713    0.0275 O   0  0  0  0  0  0  0  0  0  0  0  0
   -2.1960    1.2709   -0.2591 C   0  0  0  0  0  0  0  0  0  0  0  0
   -3.2758    0.5943    0.3230 C   0  0  0  0  0  0  0  0  0  0  0  0
   -4.1994    1.1822    1.1530 O   0  0  0  0  0  0  0  0  0  0  0  0
   -3.9314    2.5007    1.6201 C   0  0  0  0  0  0  0  0  0  0  0  0
   -5.0089    2.8693    2.6242 C   0  0  0  0  0  0  0  0  0  0  0  0
   -4.3430   -3.3939    2.3574 H   0  0  0  0  0  0  0  0  0  0  0  0
   -3.0605   -3.5889    1.1719 H   0  0  0  0  0  0  0  0  0  0  0  0
   -4.4543   -4.6890    1.1428 H   0  0  0  0  0  0  0  0  0  0  0  0
   -4.7456   -2.9687   -0.6755 H   0  0  0  0  0  0  0  0  0  0  0  0
   -5.9589   -2.8145    0.5716 H   0  0  0  0  0  0  0  0  0  0  0  0
   -2.6803   -2.4963   -1.0167 H   0  0  0  0  0  0  0  0  0  0  0  0
   -0.8263   -1.3048   -2.0192 H   0  0  0  0  0  0  0  0  0  0  0  0
   -0.5392    2.1561   -2.3623 H   0  0  0  0  0  0  0  0  0  0  0  0
    7.7785    1.3192   -1.6409 H   0  0  0  0  0  0  0  0  0  0  0  0
    9.9528    0.0441   -0.5712 H   0  0  0  0  0  0  0  0  0  0  0  0
    8.8590   -1.9195    1.0398 H   0  0  0  0  0  0  0  0  0  0  0  0
   -2.0373    2.3278   -0.0726 H   0  0  0  0  0  0  0  0  0  0  0  0
   -2.9536    2.5429    2.1139 H   0  0  0  0  0  0  0  0  0  0  0  0
   -3.9638    3.2104    0.7858 H   0  0  0  0  0  0  0  0  0  0  0  0
   -6.0002    2.8202    2.1615 H   0  0  0  0  0  0  0  0  0  0  0  0
   -4.8503    3.8789    3.0134 H   0  0  0  0  0  0  0  0  0  0  0  0
   -5.0128    2.1638    3.4617 H   0  0  0  0  0  0  0  0  0  0  0  0
  1  2  1  0
  2  3  1  0
  3  4  1  0
  4  5  2  0
  5  6  1  0
  6  7  2  0
  7  8  1  0
  8  9  2  3
  9 10  1  0
 10 11  1  0
 11 12  2  0
 12 13  1  0
 13 14  1  0
 14 15  2  0
 15 16  1  0
 16 17  2  0
 17 18  1  0
 13 19  2  0
 19 20  1  0
 20 21  1  0
 21 22  2  0
  7 23  1  0
 23 24  2  0
 24 25  1  0
 25 26  1  0
 26 27  1  0
 24  4  1  0
 21  9  1  0
 20 11  1  0
 18 14  1  0
  1 28  1  0
  1 29  1  0
  1 30  1  0
  2 31  1  0
  2 32  1  0
  5 33  1  0
  6 34  1  0
  8 35  1  0
 15 36  1  0
 16 37  1  0
 17 38  1  0
 23 39  1  0
 26 40  1  0
 26 41  1  0
 27 42  1  0
 27 43  1  0
 27 44  1  0
M  END
$$$$
