
     RDKit          3D

 32 34  0  0  0  0  0  0  0  0999 V2000
   -0.3081    1.3999    0.3013 O   0  0  0  0  0  0  0  0  0  0  0  0
   -0.2672    0.2218   -0.0144 C   0  0  0  0  0  0  0  0  0  0  0  0
   -1.4738   -0.6223   -0.3113 C   0  0  0  0  0  0  0  0  0  0  0  0
   -2.8847   -0.2424   -0.2252 C   0  0  0  0  0  0  0  0  0  0  0  0
   -3.3101    0.7799    0.6348 C   0  0  0  0  0  0  0  0  0  0  0  0
   -4.6591    1.1395    0.7140 C   0  0  0  0  0  0  0  0  0  0  0  0
   -5.6046    0.4839   -0.0692 C   0  0  0  0  0  0  0  0  0  0  0  0
   -5.2017   -0.5291   -0.9343 C   0  0  0  0  0  0  0  0  0  0  0  0
   -3.8525   -0.8880   -1.0127 C   0  0  0  0  0  0  0  0  0  0  0  0
   -0.9571   -1.8258   -0.6029 C   0  0  0  0  0  0  0  0  0  0  0  0
    0.4181   -1.8850   -0.5874 N   0  0  0  0  0  0  0  0  0  0  0  0
    0.8479   -0.6122   -0.1806 N   0  0  0  0  0  0  0  0  0  0  0  0
    2.2244   -0.3071   -0.0960 C   0  0  0  0  0  0  0  0  0  0  0  0
    3.1887   -1.2538   -0.4880 C   0  0  0  0  0  0  0  0  0  0  0  0
    4.5576   -0.9754   -0.4130 C   0  0  0  0  0  0  0  0  0  0  0  0
    4.9915    0.2594    0.0588 C   0  0  0  0  0  0  0  0  0  0  0  0
    4.0437    1.2108    0.4519 C   0  0  0  0  0  0  0  0  0  0  0  0
    4.4988    2.5124    0.9557 N   0  0  0  0  0  4  0  0  0  0  0  0
    3.6647    3.2462    1.5028 O   0  0  0  0  0  0  0  0  0  0  0  0
    5.6969    2.7964    0.8111 O   0  0  0  0  0  1  0  0  0  0  0  0
    2.6688    0.9353    0.3756 C   0  0  0  0  0  0  0  0  0  0  0  0
   -2.5986    1.3148    1.2613 H   0  0  0  0  0  0  0  0  0  0  0  0
   -4.9664    1.9364    1.3867 H   0  0  0  0  0  0  0  0  0  0  0  0
   -6.6522    0.7669   -0.0093 H   0  0  0  0  0  0  0  0  0  0  0  0
   -5.9358   -1.0371   -1.5544 H   0  0  0  0  0  0  0  0  0  0  0  0
   -3.5696   -1.6714   -1.7119 H   0  0  0  0  0  0  0  0  0  0  0  0
   -1.5009   -2.7384   -0.8089 H   0  0  0  0  0  0  0  0  0  0  0  0
    0.7538   -2.6309    0.0252 H   0  0  0  0  0  0  0  0  0  0  0  0
    2.8899   -2.2214   -0.8846 H   0  0  0  0  0  0  0  0  0  0  0  0
    5.2817   -1.7226   -0.7307 H   0  0  0  0  0  0  0  0  0  0  0  0
    6.0587    0.4652    0.1126 H   0  0  0  0  0  0  0  0  0  0  0  0
    1.9571    1.6943    0.6909 H   0  0  0  0  0  0  0  0  0  0  0  0
  1  2  2  0
  2  3  1  0
  3  4  1  0
  4  5  2  0
  5  6  1  0
  6  7  2  0
  7  8  1  0
  8  9  2  0
  3 10  2  0
 10 11  1  0
 11 12  1  0
 12 13  1  0
 13 14  2  0
 14 15  1  0
 15 16  2  0
 16 17  1  0
 17 18  1  0
 18 19  2  0
 18 20  1  0
 17 21  2  0
 12  2  1  0
 21 13  1  0
  9  4  1  0
  5 22  1  0
  6 23  1  0
  7 24  1  0
  8 25  1  0
  9 26  1  0
 10 27  1  0
 11 28  1  0
 14 29  1  0
 15 30  1  0
 16 31  1  0
 21 32  1  0
M  CHG  2  18   1  20  -1
M  END
$$$$
