
     RDKit          3D

 50 53  0  0  0  0  0  0  0  0999 V2000
    7.9406    2.3406    0.5125 C   0  0  0  0  0  0  0  0  0  0  0  0
    6.6255    2.8187    0.2579 O   0  0  0  0  0  0  0  0  0  0  0  0
    5.6262    1.8867    0.2283 C   0  0  0  0  0  0  0  0  0  0  0  0
    4.3546    2.3997   -0.0244 C   0  0  0  0  0  0  0  0  0  0  0  0
    3.2380    1.5560   -0.0821 C   0  0  0  0  0  0  0  0  0  0  0  0
    3.3602    0.1701    0.1160 C   0  0  0  0  0  0  0  0  0  0  0  0
    2.1989   -0.7450    0.0646 C   0  0  0  0  0  0  0  0  0  0  0  0
    0.9121   -0.3569    0.3959 C   0  0  0  0  0  0  0  0  0  0  0  0
   -0.1098   -1.3049    0.3134 C   0  0  0  0  0  0  0  0  0  0  0  0
   -1.4785   -0.8613    0.6589 C   0  0  0  0  0  0  0  0  0  0  0  0
   -2.0137   -1.3438    1.6463 O   0  0  0  0  0  0  0  0  0  0  0  0
   -1.9857    0.0783   -0.2177 N   0  0  0  0  0  0  0  0  0  0  0  0
   -3.2479    0.7067   -0.1628 C   0  0  0  0  0  0  0  0  0  0  0  0
   -3.5473    1.6248   -1.1717 C   0  0  0  0  0  0  0  0  0  0  0  0
   -4.7850    2.2706   -1.1973 C   0  0  0  0  0  0  0  0  0  0  0  0
   -5.7435    2.0223   -0.2043 C   0  0  0  0  0  0  0  0  0  0  0  0
   -7.0801    2.7060   -0.2885 C   0  0  0  0  0  0  0  0  0  0  0  0
   -5.4287    1.1472    0.8491 C   0  0  0  0  0  0  0  0  0  0  0  0
   -6.3911    0.7784    1.8050 N   0  0  0  0  0  0  0  0  0  0  0  0
   -4.2021    0.4613    0.8268 C   0  0  0  0  0  0  0  0  0  0  0  0
    0.1484   -2.6331   -0.0770 C   0  0  0  0  0  0  0  0  0  0  0  0
   -0.8301   -3.6538   -0.1780 C   0  0  0  0  0  0  0  0  0  0  0  0
   -0.4837   -4.9406   -0.5838 C   0  0  0  0  0  0  0  0  0  0  0  0
    0.8383   -5.2247   -0.8945 C   0  0  0  0  0  0  0  0  0  0  0  0
    1.8037   -4.2198   -0.7955 C   0  0  0  0  0  0  0  0  0  0  0  0
    1.4847   -2.9296   -0.3924 C   0  0  0  0  0  0  0  0  0  0  0  0
    2.4696   -2.0157   -0.3267 N   0  0  0  0  0  0  0  0  0  0  0  0
    4.6542   -0.3262    0.3616 C   0  0  0  0  0  0  0  0  0  0  0  0
    5.7734    0.5165    0.4200 C   0  0  0  0  0  0  0  0  0  0  0  0
    8.0066    1.8739    1.5009 H   0  0  0  0  0  0  0  0  0  0  0  0
    8.6162    3.2013    0.5053 H   0  0  0  0  0  0  0  0  0  0  0  0
    8.2695    1.6525   -0.2733 H   0  0  0  0  0  0  0  0  0  0  0  0
    4.2298    3.4683   -0.1833 H   0  0  0  0  0  0  0  0  0  0  0  0
    2.2743    2.0078   -0.3022 H   0  0  0  0  0  0  0  0  0  0  0  0
    0.6966    0.6470    0.7457 H   0  0  0  0  0  0  0  0  0  0  0  0
   -1.4053    0.3269   -1.0094 H   0  0  0  0  0  0  0  0  0  0  0  0
   -2.8337    1.8411   -1.9620 H   0  0  0  0  0  0  0  0  0  0  0  0
   -5.0023    2.9614   -2.0090 H   0  0  0  0  0  0  0  0  0  0  0  0
   -7.2164    3.3768    0.5658 H   0  0  0  0  0  0  0  0  0  0  0  0
   -7.1688    3.3070   -1.1998 H   0  0  0  0  0  0  0  0  0  0  0  0
   -7.8871    1.9663   -0.3053 H   0  0  0  0  0  0  0  0  0  0  0  0
   -7.0689    1.5034    2.0115 H   0  0  0  0  0  0  0  0  0  0  0  0
   -5.9879    0.3806    2.6487 H   0  0  0  0  0  0  0  0  0  0  0  0
   -4.0123   -0.2683    1.6072 H   0  0  0  0  0  0  0  0  0  0  0  0
   -1.8712   -3.4522    0.0713 H   0  0  0  0  0  0  0  0  0  0  0  0
   -1.2435   -5.7152   -0.6511 H   0  0  0  0  0  0  0  0  0  0  0  0
    1.1249   -6.2243   -1.2109 H   0  0  0  0  0  0  0  0  0  0  0  0
    2.8382   -4.4512   -1.0404 H   0  0  0  0  0  0  0  0  0  0  0  0
    4.8008   -1.3951    0.5153 H   0  0  0  0  0  0  0  0  0  0  0  0
    6.7393    0.0635    0.6157 H   0  0  0  0  0  0  0  0  0  0  0  0
  1  2  1  0
  2  3  1  0
  3  4  2  0
  4  5  1  0
  5  6  2  0
  6  7  1  0
  7  8  2  0
  8  9  1  0
  9 10  1  0
 10 11  2  0
 10 12  1  0
 12 13  1  0
 13 14  2  0
 14 15  1  0
 15 16  2  0
 16 17  1  0
 16 18  1  0
 18 19  1  0
 18 20  2  0
  9 21  2  0
 21 22  1  0
 22 23  2  0
 23 24  1  0
 24 25  2  0
 25 26  1  0
 26 27  2  0
  6 28  1  0
 28 29  2  0
 29  3  1  0
 27  7  1  0
 20 13  1  0
 26 21  1  0
  1 30  1  0
  1 31  1  0
  1 32  1  0
  4 33  1  0
  5 34  1  0
  8 35  1  0
 12 36  1  0
 14 37  1  0
 15 38  1  0
 17 39  1  0
 17 40  1  0
 17 41  1  0
 19 42  1  0
 19 43  1  0
 20 44  1  0
 22 45  1  0
 23 46  1  0
 24 47  1  0
 25 48  1  0
 28 49  1  0
 29 50  1  0
M  END
$$$$
