
     RDKit          3D

 39 41  0  0  0  0  0  0  0  0999 V2000
    2.8213    1.1283   -2.1496 O   0  0  0  0  0  0  0  0  0  0  0  0
    2.9379    0.2007   -1.3648 C   0  0  0  0  0  0  0  0  0  0  0  0
    2.1989   -0.9341   -1.3489 O   0  0  0  0  0  0  0  0  0  0  0  0
    1.1500   -1.0091   -2.3220 C   0  0  0  0  0  0  0  0  0  0  0  0
   -0.1608   -0.6843   -1.6555 C   0  0  0  0  0  0  0  0  0  0  0  0
   -0.9022   -1.6811   -1.0114 C   0  0  0  0  0  0  0  0  0  0  0  0
   -2.1070   -1.3682   -0.3734 C   0  0  0  0  0  0  0  0  0  0  0  0
   -2.5977   -0.0529   -0.3529 C   0  0  0  0  0  0  0  0  0  0  0  0
   -3.8645    0.2742    0.3225 C   0  0  0  0  0  0  0  0  0  0  0  0
   -3.9260    1.2854    1.2960 C   0  0  0  0  0  0  0  0  0  0  0  0
   -5.1278    1.5959    1.9385 C   0  0  0  0  0  0  0  0  0  0  0  0
   -6.2903    0.9001    1.6169 C   0  0  0  0  0  0  0  0  0  0  0  0
   -6.2519   -0.1054    0.6543 C   0  0  0  0  0  0  0  0  0  0  0  0
   -5.0491   -0.4153    0.0137 C   0  0  0  0  0  0  0  0  0  0  0  0
   -1.8397    0.9410   -0.9915 C   0  0  0  0  0  0  0  0  0  0  0  0
   -0.6357    0.6319   -1.6320 C   0  0  0  0  0  0  0  0  0  0  0  0
    3.9539    0.1715   -0.2782 C   0  0  0  0  0  0  0  0  0  0  0  0
    4.9227    1.1862   -0.2524 C   0  0  0  0  0  0  0  0  0  0  0  0
    5.8969    1.2048    0.7475 C   0  0  0  0  0  0  0  0  0  0  0  0
    5.9050    0.2131    1.7265 C   0  0  0  0  0  0  0  0  0  0  0  0
    4.9403   -0.7884    1.7033 C   0  0  0  0  0  0  0  0  0  0  0  0
    4.9868   -1.7325    2.6864 O   0  0  0  0  0  0  0  0  0  0  0  0
    3.9632   -0.8216    0.7119 C   0  0  0  0  0  0  0  0  0  0  0  0
    1.1297   -2.0363   -2.7040 H   0  0  0  0  0  0  0  0  0  0  0  0
    1.3248   -0.3669   -3.1938 H   0  0  0  0  0  0  0  0  0  0  0  0
   -0.5457   -2.7085   -0.9963 H   0  0  0  0  0  0  0  0  0  0  0  0
   -2.6584   -2.1625    0.1263 H   0  0  0  0  0  0  0  0  0  0  0  0
   -3.0271    1.8341    1.5700 H   0  0  0  0  0  0  0  0  0  0  0  0
   -5.1530    2.3798    2.6908 H   0  0  0  0  0  0  0  0  0  0  0  0
   -7.2252    1.1418    2.1154 H   0  0  0  0  0  0  0  0  0  0  0  0
   -7.1580   -0.6480    0.3978 H   0  0  0  0  0  0  0  0  0  0  0  0
   -5.0438   -1.1962   -0.7441 H   0  0  0  0  0  0  0  0  0  0  0  0
   -2.1887    1.9719   -1.0020 H   0  0  0  0  0  0  0  0  0  0  0  0
   -0.0681    1.4285   -2.1109 H   0  0  0  0  0  0  0  0  0  0  0  0
    4.9218    1.9659   -1.0123 H   0  0  0  0  0  0  0  0  0  0  0  0
    6.6468    1.9917    0.7638 H   0  0  0  0  0  0  0  0  0  0  0  0
    6.6596    0.2221    2.5086 H   0  0  0  0  0  0  0  0  0  0  0  0
    4.2477   -2.3515    2.5664 H   0  0  0  0  0  0  0  0  0  0  0  0
    3.2133   -1.6061    0.7103 H   0  0  0  0  0  0  0  0  0  0  0  0
  1  2  2  0
  2  3  1  0
  3  4  1  0
  4  5  1  0
  5  6  2  0
  6  7  1  0
  7  8  2  0
  8  9  1  0
  9 10  2  0
 10 11  1  0
 11 12  2  0
 12 13  1  0
 13 14  2  0
  8 15  1  0
 15 16  2  0
  2 17  1  0
 17 18  2  0
 18 19  1  0
 19 20  2  0
 20 21  1  0
 21 22  1  0
 21 23  2  0
 16  5  1  0
 23 17  1  0
 14  9  1  0
  4 24  1  0
  4 25  1  0
  6 26  1  0
  7 27  1  0
 10 28  1  0
 11 29  1  0
 12 30  1  0
 13 31  1  0
 14 32  1  0
 15 33  1  0
 16 34  1  0
 18 35  1  0
 19 36  1  0
 20 37  1  0
 22 38  1  0
 23 39  1  0
M  END
$$$$
