
     RDKit          3D

 60 65  0  0  0  0  0  0  0  0999 V2000
    1.3094   -3.4623   -1.7144 O   0  0  0  0  0  0  0  0  0  0  0  0
    1.8750   -2.4149   -1.4223 C   0  0  0  0  0  0  0  0  0  0  0  0
    1.2189   -1.3908   -0.7482 N   0  0  0  0  0  0  0  0  0  0  0  0
    1.8100   -0.1854   -0.3872 C   0  0  0  0  0  0  0  0  0  0  0  0
    0.9301    0.8242    0.3403 C   0  0  0  0  0  0  0  0  0  0  0  0
   -0.2069    1.3399   -0.5539 C   0  0  0  0  0  0  0  0  0  0  0  0
   -1.5485    0.6760   -0.2693 C   0  0  0  0  0  0  0  0  0  0  0  0
   -1.9350    0.7609    1.1645 N   0  0  0  0  0  0  0  0  0  0  0  0
   -3.3414    1.6814    1.5068 S   0  0  0  0  0  6  0  0  0  0  0  0
   -3.5992    1.6009    2.9279 O   0  0  0  0  0  0  0  0  0  0  0  0
   -3.1846    2.9551    0.8372 O   0  0  0  0  0  0  0  0  0  0  0  0
   -4.6106    0.7508    0.6884 C   0  0  0  0  0  0  0  0  0  0  0  0
   -4.9003   -0.5411    1.1442 C   0  0  0  0  0  0  0  0  0  0  0  0
   -5.8973   -1.2849    0.5123 C   0  0  0  0  0  0  0  0  0  0  0  0
   -6.5998   -0.7334   -0.5592 C   0  0  0  0  0  0  0  0  0  0  0  0
   -6.2900    0.5529   -1.0210 C   0  0  0  0  0  0  0  0  0  0  0  0
   -5.3053    1.3077   -0.3880 C   0  0  0  0  0  0  0  0  0  0  0  0
   -6.9213    1.1394   -2.0877 O   0  0  0  0  0  0  0  0  0  0  0  0
   -7.6704    0.1840   -2.8489 C   0  0  0  0  0  0  0  0  0  0  0  0
   -8.4621   -0.7358   -1.9343 C   0  0  0  0  0  0  0  0  0  0  0  0
   -7.5799   -1.5137   -1.1167 O   0  0  0  0  0  0  0  0  0  0  0  0
   -0.8251    1.0234    2.1178 C   0  0  0  0  0  0  0  0  0  0  0  0
    0.4246    0.2765    1.6772 C   0  0  0  0  0  0  0  0  0  0  0  0
    3.0512    0.1246   -0.6481 N   0  0  0  0  0  0  0  0  0  0  0  0
    3.7167   -0.8614   -1.2986 C   0  0  0  0  0  0  0  0  0  0  0  0
    3.2435   -2.0843   -1.7085 C   0  0  0  0  0  0  0  0  0  0  0  0
    4.2206   -2.7914   -2.3382 N   0  0  0  0  0  0  0  0  0  0  0  0
    5.3216   -2.0388   -2.3300 N   0  0  0  0  0  0  0  0  0  0  0  0
    5.0267   -0.8830   -1.6835 N   0  0  0  0  0  0  0  0  0  0  0  0
    6.0310    0.1430   -1.4974 C   0  0  0  0  0  0  0  0  0  0  0  0
    6.6414    0.0702   -0.1195 C   0  0  0  0  0  0  0  0  0  0  0  0
    7.6154   -0.8962    0.1807 C   0  0  0  0  0  0  0  0  0  0  0  0
    8.1662   -0.9778    1.4623 C   0  0  0  0  0  0  0  0  0  0  0  0
    7.7475   -0.0971    2.4574 C   0  0  0  0  0  0  0  0  0  0  0  0
    6.7801    0.8561    2.1642 C   0  0  0  0  0  0  0  0  0  0  0  0
    6.3726    1.6992    3.1225 F   0  0  0  0  0  0  0  0  0  0  0  0
    6.2235    0.9466    0.8924 C   0  0  0  0  0  0  0  0  0  0  0  0
    0.2669   -1.6101   -0.4983 H   0  0  0  0  0  0  0  0  0  0  0  0
    1.5743    1.6890    0.5575 H   0  0  0  0  0  0  0  0  0  0  0  0
   -0.3183    2.4194   -0.3831 H   0  0  0  0  0  0  0  0  0  0  0  0
    0.0441    1.2238   -1.6153 H   0  0  0  0  0  0  0  0  0  0  0  0
   -2.3067    1.1275   -0.9166 H   0  0  0  0  0  0  0  0  0  0  0  0
   -1.5195   -0.3849   -0.5385 H   0  0  0  0  0  0  0  0  0  0  0  0
   -4.3610   -0.9625    1.9900 H   0  0  0  0  0  0  0  0  0  0  0  0
   -6.1384   -2.2851    0.8625 H   0  0  0  0  0  0  0  0  0  0  0  0
   -5.0829    2.3122   -0.7411 H   0  0  0  0  0  0  0  0  0  0  0  0
   -6.9726   -0.3816   -3.4785 H   0  0  0  0  0  0  0  0  0  0  0  0
   -8.3483    0.7404   -3.5044 H   0  0  0  0  0  0  0  0  0  0  0  0
   -9.0649   -1.4317   -2.5262 H   0  0  0  0  0  0  0  0  0  0  0  0
   -9.1373   -0.1706   -1.2804 H   0  0  0  0  0  0  0  0  0  0  0  0
   -1.1165    0.6616    3.1102 H   0  0  0  0  0  0  0  0  0  0  0  0
   -0.6237    2.0990    2.1869 H   0  0  0  0  0  0  0  0  0  0  0  0
    0.2062   -0.7967    1.6200 H   0  0  0  0  0  0  0  0  0  0  0  0
    1.2111    0.3864    2.4335 H   0  0  0  0  0  0  0  0  0  0  0  0
    5.5549    1.1149   -1.6731 H   0  0  0  0  0  0  0  0  0  0  0  0
    6.8014    0.0187   -2.2677 H   0  0  0  0  0  0  0  0  0  0  0  0
    7.9431   -1.6025   -0.5825 H   0  0  0  0  0  0  0  0  0  0  0  0
    8.9156   -1.7331    1.6841 H   0  0  0  0  0  0  0  0  0  0  0  0
    8.1639   -0.1514    3.4582 H   0  0  0  0  0  0  0  0  0  0  0  0
    5.4602    1.6973    0.7077 H   0  0  0  0  0  0  0  0  0  0  0  0
  1  2  2  0
  2  3  1  0
  3  4  1  0
  4  5  1  0
  5  6  1  0
  6  7  1  0
  7  8  1  0
  8  9  1  0
  9 10  2  0
  9 11  2  0
  9 12  1  0
 12 13  2  0
 13 14  1  0
 14 15  2  0
 15 16  1  0
 16 17  2  0
 16 18  1  0
 18 19  1  0
 19 20  1  0
 20 21  1  0
  8 22  1  0
 22 23  1  0
  4 24  2  0
 24 25  1  0
 25 26  2  0
 26 27  1  0
 27 28  2  0
 28 29  1  0
 29 30  1  0
 30 31  1  0
 31 32  2  0
 32 33  1  0
 33 34  2  0
 34 35  1  0
 35 36  1  0
 35 37  2  0
 26  2  1  0
 37 31  1  0
 23  5  1  0
 29 25  1  0
 17 12  1  0
 21 15  1  0
  3 38  1  0
  5 39  1  0
  6 40  1  0
  6 41  1  0
  7 42  1  0
  7 43  1  0
 13 44  1  0
 14 45  1  0
 17 46  1  0
 19 47  1  0
 19 48  1  0
 20 49  1  0
 20 50  1  0
 22 51  1  0
 22 52  1  0
 23 53  1  0
 23 54  1  0
 30 55  1  0
 30 56  1  0
 32 57  1  0
 33 58  1  0
 34 59  1  0
 37 60  1  0
M  END
$$$$
