
     RDKit          3D

 54 57  0  0  0  0  0  0  0  0999 V2000
    6.2544    0.5778    2.2509 C   0  0  0  0  0  0  0  0  0  0  0  0
    5.0779    1.4772    2.5800 C   0  0  0  0  0  0  0  0  0  0  0  0
    3.8387    0.6835    2.9479 C   0  0  0  0  0  0  0  0  0  0  0  0
    3.4931    0.6095    4.1293 O   0  0  0  0  0  0  0  0  0  0  0  0
    3.1342    0.0408    1.9452 N   0  0  0  0  0  0  0  0  0  0  0  0
    1.9735   -0.7719    2.3331 C   0  0  0  0  0  0  0  0  0  0  0  0
    1.5807   -1.7920    1.2529 C   0  0  0  0  0  0  0  0  0  0  0  0
    1.2665   -1.1074   -0.0236 N   0  0  0  0  0  0  0  0  0  0  0  0
    1.1185   -1.9906   -1.1226 C   0  0  0  0  0  0  0  0  0  0  0  0
    2.1491   -2.8382   -1.5517 C   0  0  0  0  0  0  0  0  0  0  0  0
    1.9611   -3.6751   -2.6530 C   0  0  0  0  0  0  0  0  0  0  0  0
    0.7449   -3.6651   -3.3341 C   0  0  0  0  0  0  0  0  0  0  0  0
    0.5286   -4.7053   -4.6894 Cl  0  0  0  0  0  0  0  0  0  0  0  0
   -0.2921   -2.8249   -2.9322 C   0  0  0  0  0  0  0  0  0  0  0  0
   -0.1092   -1.9858   -1.8331 C   0  0  0  0  0  0  0  0  0  0  0  0
   -1.0922   -1.1023   -1.3388 N   0  0  0  0  0  0  0  0  0  0  0  0
   -2.3359   -0.8270   -1.8608 C   0  0  0  0  0  0  0  0  0  0  0  0
   -2.8015   -1.2676   -2.9047 O   0  0  0  0  0  0  0  0  0  0  0  0
   -3.1493    0.1379   -1.0671 C   0  0  0  0  0  0  0  0  0  0  0  0
   -3.0766    0.1897    0.3334 C   0  0  0  0  0  0  0  0  0  0  0  0
   -3.8599    1.1056    1.0407 C   0  0  0  0  0  0  0  0  0  0  0  0
   -4.7213    1.9593    0.3542 C   0  0  0  0  0  0  0  0  0  0  0  0
   -4.7870    1.9174   -1.0426 C   0  0  0  0  0  0  0  0  0  0  0  0
   -4.0196    0.9957   -1.7519 C   0  0  0  0  0  0  0  0  0  0  0  0
   -5.5909    2.7478   -1.7809 O   0  0  0  0  0  0  0  0  0  0  0  0
   -6.0662    3.8497   -0.9994 C   0  0  0  0  0  0  0  0  0  0  0  0
   -6.5540    3.3741    0.3590 C   0  0  0  0  0  0  0  0  0  0  0  0
   -5.4735    2.8159    1.1162 O   0  0  0  0  0  0  0  0  0  0  0  0
    2.1146    0.0692   -0.3448 C   0  0  0  0  0  0  0  0  0  0  0  0
    3.3999    0.1353    0.5023 C   0  0  0  0  0  0  0  0  0  0  0  0
    6.4580   -0.1140    3.0753 H   0  0  0  0  0  0  0  0  0  0  0  0
    7.1531    1.1780    2.0787 H   0  0  0  0  0  0  0  0  0  0  0  0
    6.0728   -0.0214    1.3546 H   0  0  0  0  0  0  0  0  0  0  0  0
    4.8615    2.1728    1.7648 H   0  0  0  0  0  0  0  0  0  0  0  0
    5.3370    2.1025    3.4434 H   0  0  0  0  0  0  0  0  0  0  0  0
    2.1864   -1.2907    3.2745 H   0  0  0  0  0  0  0  0  0  0  0  0
    1.1451   -0.0762    2.5154 H   0  0  0  0  0  0  0  0  0  0  0  0
    2.4055   -2.5053    1.1346 H   0  0  0  0  0  0  0  0  0  0  0  0
    0.6989   -2.3514    1.5866 H   0  0  0  0  0  0  0  0  0  0  0  0
    3.1075   -2.8513   -1.0418 H   0  0  0  0  0  0  0  0  0  0  0  0
    2.7655   -4.3305   -2.9765 H   0  0  0  0  0  0  0  0  0  0  0  0
   -1.2276   -2.8420   -3.4811 H   0  0  0  0  0  0  0  0  0  0  0  0
   -0.7611   -0.5842   -0.5297 H   0  0  0  0  0  0  0  0  0  0  0  0
   -2.4418   -0.4950    0.8896 H   0  0  0  0  0  0  0  0  0  0  0  0
   -3.8149    1.1401    2.1261 H   0  0  0  0  0  0  0  0  0  0  0  0
   -4.0898    0.9547   -2.8366 H   0  0  0  0  0  0  0  0  0  0  0  0
   -5.2552    4.5820   -0.9006 H   0  0  0  0  0  0  0  0  0  0  0  0
   -6.8852    4.3198   -1.5526 H   0  0  0  0  0  0  0  0  0  0  0  0
   -6.9601    4.2144    0.9309 H   0  0  0  0  0  0  0  0  0  0  0  0
   -7.3402    2.6152    0.2608 H   0  0  0  0  0  0  0  0  0  0  0  0
    2.3756    0.1147   -1.4100 H   0  0  0  0  0  0  0  0  0  0  0  0
    1.5119    0.9616   -0.1343 H   0  0  0  0  0  0  0  0  0  0  0  0
    3.9385    1.0547    0.2651 H   0  0  0  0  0  0  0  0  0  0  0  0
    4.0524   -0.7080    0.2484 H   0  0  0  0  0  0  0  0  0  0  0  0
  1  2  1  0
  2  3  1  0
  3  4  2  0
  3  5  1  0
  5  6  1  0
  6  7  1  0
  7  8  1  0
  8  9  1  0
  9 10  2  0
 10 11  1  0
 11 12  2  0
 12 13  1  0
 12 14  1  0
 14 15  2  0
 15 16  1  0
 16 17  1  0
 17 18  2  0
 17 19  1  0
 19 20  2  0
 20 21  1  0
 21 22  2  0
 22 23  1  0
 23 24  2  0
 23 25  1  0
 25 26  1  0
 26 27  1  0
 27 28  1  0
  8 29  1  0
 29 30  1  0
 30  5  1  0
 15  9  1  0
 24 19  1  0
 28 22  1  0
  1 31  1  0
  1 32  1  0
  1 33  1  0
  2 34  1  0
  2 35  1  0
  6 36  1  0
  6 37  1  0
  7 38  1  0
  7 39  1  0
 10 40  1  0
 11 41  1  0
 14 42  1  0
 16 43  1  0
 20 44  1  0
 21 45  1  0
 24 46  1  0
 26 47  1  0
 26 48  1  0
 27 49  1  0
 27 50  1  0
 29 51  1  0
 29 52  1  0
 30 53  1  0
 30 54  1  0
M  END
$$$$
