
     RDKit          3D

 60 63  0  0  0  0  0  0  0  0999 V2000
    9.2615   -2.9069    1.2972 C   0  0  0  0  0  0  0  0  0  0  0  0
    7.9648   -3.1415    0.7631 O   0  0  0  0  0  0  0  0  0  0  0  0
    7.2470   -2.0429    0.3767 C   0  0  0  0  0  0  0  0  0  0  0  0
    7.6397   -0.7119    0.5237 C   0  0  0  0  0  0  0  0  0  0  0  0
    6.8041    0.3224    0.0841 C   0  0  0  0  0  0  0  0  0  0  0  0
    5.5683    0.0390   -0.5124 C   0  0  0  0  0  0  0  0  0  0  0  0
    4.6525    1.1480   -0.9632 C   0  0  0  0  0  0  0  0  0  0  0  0
    3.6644    1.4340    0.0528 N   0  0  0  0  0  0  0  0  0  0  0  0
    2.3775    0.9323   -0.0255 C   0  0  0  0  0  0  0  0  0  0  0  0
    1.9964    0.2642   -0.9857 O   0  0  0  0  0  0  0  0  0  0  0  0
    1.5056    1.2026    1.2228 C   0  0  0  0  0  0  0  0  0  0  0  0
    1.5553    2.6518    1.7072 C   0  0  0  0  0  0  0  0  0  0  0  0
    0.1350    0.7264    0.9918 N   0  0  0  0  0  0  0  0  0  0  0  0
   -0.2317   -0.4233    1.7104 N   0  0  0  0  0  0  0  0  0  0  0  0
   -1.4031   -0.9725    1.5512 C   0  0  0  0  0  0  0  0  0  0  0  0
   -1.7235   -2.2067    2.3452 C   0  0  0  0  0  0  0  0  0  0  0  0
   -2.3444   -0.3832    0.6323 C   0  0  0  0  0  0  0  0  0  0  0  0
   -3.6134   -0.7276    0.1968 C   0  0  0  0  0  0  0  0  0  0  0  0
   -4.4020   -1.9625    0.4438 C   0  0  0  0  0  0  0  0  0  0  0  0
   -4.0245    0.3319   -0.6219 N   0  0  0  0  0  0  0  0  0  0  0  0
   -5.3054    0.6340   -1.1821 C   0  0  0  0  0  0  0  0  0  0  0  0
   -5.3821    1.5609   -2.2352 C   0  0  0  0  0  0  0  0  0  0  0  0
   -6.6136    1.8904   -2.8094 C   0  0  0  0  0  0  0  0  0  0  0  0
   -7.7928    1.3056   -2.3411 C   0  0  0  0  0  0  0  0  0  0  0  0
   -9.1192    1.6832   -2.9306 C   0  0  0  0  0  0  0  0  0  0  0  0
   -7.7238    0.4142   -1.2657 C   0  0  0  0  0  0  0  0  0  0  0  0
   -6.4915    0.0804   -0.6886 C   0  0  0  0  0  0  0  0  0  0  0  0
   -2.9912    1.1801   -0.8733 N   0  0  0  0  0  0  0  0  0  0  0  0
   -2.0025    0.7734   -0.0745 C   0  0  0  0  0  0  0  0  0  0  0  0
   -0.6971    1.4044    0.0737 C   0  0  0  0  0  0  0  0  0  0  0  0
   -0.3695    2.4284   -0.5219 O   0  0  0  0  0  0  0  0  0  0  0  0
    5.1764   -1.2988   -0.6485 C   0  0  0  0  0  0  0  0  0  0  0  0
    6.0116   -2.3283   -0.2084 C   0  0  0  0  0  0  0  0  0  0  0  0
    9.9042   -2.4049    0.5670 H   0  0  0  0  0  0  0  0  0  0  0  0
    9.7103   -3.8791    1.5235 H   0  0  0  0  0  0  0  0  0  0  0  0
    9.2065   -2.3394    2.2319 H   0  0  0  0  0  0  0  0  0  0  0  0
    8.5883   -0.4434    0.9767 H   0  0  0  0  0  0  0  0  0  0  0  0
    7.1295    1.3528    0.2084 H   0  0  0  0  0  0  0  0  0  0  0  0
    4.1764    0.8890   -1.9163 H   0  0  0  0  0  0  0  0  0  0  0  0
    5.2231    2.0691   -1.1264 H   0  0  0  0  0  0  0  0  0  0  0  0
    4.0085    1.7708    0.9408 H   0  0  0  0  0  0  0  0  0  0  0  0
    1.9272    0.5753    2.0203 H   0  0  0  0  0  0  0  0  0  0  0  0
    0.7845    2.8416    2.4614 H   0  0  0  0  0  0  0  0  0  0  0  0
    1.4199    3.3661    0.8896 H   0  0  0  0  0  0  0  0  0  0  0  0
    2.5250    2.8766    2.1635 H   0  0  0  0  0  0  0  0  0  0  0  0
   -2.7047   -2.1109    2.8176 H   0  0  0  0  0  0  0  0  0  0  0  0
   -1.7150   -3.0779    1.6846 H   0  0  0  0  0  0  0  0  0  0  0  0
   -0.9748   -2.3589    3.1286 H   0  0  0  0  0  0  0  0  0  0  0  0
   -5.0212   -1.8553    1.3392 H   0  0  0  0  0  0  0  0  0  0  0  0
   -5.0330   -2.2245   -0.4108 H   0  0  0  0  0  0  0  0  0  0  0  0
   -3.7438   -2.8230    0.5928 H   0  0  0  0  0  0  0  0  0  0  0  0
   -4.4831    2.0332   -2.6308 H   0  0  0  0  0  0  0  0  0  0  0  0
   -6.6395    2.6092   -3.6257 H   0  0  0  0  0  0  0  0  0  0  0  0
   -9.5639    2.5019   -2.3570 H   0  0  0  0  0  0  0  0  0  0  0  0
   -9.0101    2.0008   -3.9725 H   0  0  0  0  0  0  0  0  0  0  0  0
   -9.8046    0.8295   -2.9213 H   0  0  0  0  0  0  0  0  0  0  0  0
   -8.6350   -0.0193   -0.8585 H   0  0  0  0  0  0  0  0  0  0  0  0
   -6.5123   -0.5739    0.1743 H   0  0  0  0  0  0  0  0  0  0  0  0
    4.2141   -1.5441   -1.0970 H   0  0  0  0  0  0  0  0  0  0  0  0
    5.6946   -3.3627   -0.3257 H   0  0  0  0  0  0  0  0  0  0  0  0
  1  2  1  0
  2  3  1  0
  3  4  2  0
  4  5  1  0
  5  6  2  0
  6  7  1  0
  7  8  1  0
  8  9  1  0
  9 10  2  0
  9 11  1  0
 11 12  1  0
 11 13  1  0
 13 14  1  0
 14 15  2  0
 15 16  1  0
 15 17  1  0
 17 18  2  0
 18 19  1  0
 18 20  1  0
 20 21  1  0
 21 22  2  0
 22 23  1  0
 23 24  2  0
 24 25  1  0
 24 26  1  0
 26 27  2  0
 20 28  1  0
 28 29  2  0
 29 30  1  0
 30 31  2  0
  6 32  1  0
 32 33  2  0
 33  3  1  0
 30 13  1  0
 29 17  1  0
 27 21  1  0
  1 34  1  0
  1 35  1  0
  1 36  1  0
  4 37  1  0
  5 38  1  0
  7 39  1  0
  7 40  1  0
  8 41  1  0
 11 42  1  0
 12 43  1  0
 12 44  1  0
 12 45  1  0
 16 46  1  0
 16 47  1  0
 16 48  1  0
 19 49  1  0
 19 50  1  0
 19 51  1  0
 22 52  1  0
 23 53  1  0
 25 54  1  0
 25 55  1  0
 25 56  1  0
 26 57  1  0
 27 58  1  0
 32 59  1  0
 33 60  1  0
M  END
$$$$
