
     RDKit          3D

 44 47  0  0  0  0  0  0  0  0999 V2000
   -5.7545    0.2483    3.0320 C   0  0  0  0  0  0  0  0  0  0  0  0
   -4.5574    0.1773    2.0999 C   0  0  0  0  0  0  0  0  0  0  0  0
   -4.5573   -1.1177    1.4861 O   0  0  0  0  0  0  0  0  0  0  0  0
   -3.3418   -1.3731    0.8997 C   0  0  0  0  0  0  0  0  0  0  0  0
   -2.5178   -2.2942    1.5506 C   0  0  0  0  0  0  0  0  0  0  0  0
   -1.2784   -2.6221    1.0059 C   0  0  0  0  0  0  0  0  0  0  0  0
   -0.8748   -2.0430   -0.2010 C   0  0  0  0  0  0  0  0  0  0  0  0
    0.4219   -2.4052   -0.7761 C   0  0  0  0  0  0  0  0  0  0  0  0
    1.5446   -1.6806   -0.6627 C   0  0  0  0  0  0  0  0  0  0  0  0
    3.0634   -2.2153   -1.3837 S   0  0  0  0  0  0  0  0  0  0  0  0
    3.8429   -0.8240   -0.7575 C   0  0  0  0  0  0  0  0  0  0  0  0
    5.0545   -0.3503   -0.7929 N   0  0  0  0  0  0  0  0  0  0  0  0
    4.9113    0.8203   -0.0567 C   0  0  0  0  0  0  0  0  0  0  0  0
    6.1161    1.7820    0.2087 C   0  0  0  0  0  0  0  0  0  0  0  0
    7.4092    1.5827   -0.2367 C   0  0  0  0  0  0  0  0  0  0  0  0
    8.1731    2.6826    0.2252 C   0  0  0  0  0  0  0  0  0  0  0  0
    7.3005    3.4876    0.9189 C   0  0  0  0  0  0  0  0  0  0  0  0
    6.0552    2.9471    0.9252 O   0  0  0  0  0  0  0  0  0  0  0  0
    3.6669    1.0612    0.4056 N   0  0  0  0  0  0  0  0  0  0  0  0
    3.0154   -0.0168   -0.0631 N   0  0  0  0  0  0  0  0  0  0  0  0
    1.6896   -0.3751    0.0676 C   0  0  0  0  0  0  0  0  0  0  0  0
    0.8699    0.2934    0.6691 O   0  0  0  0  0  0  0  0  0  0  0  0
   -1.7208   -1.1405   -0.8672 C   0  0  0  0  0  0  0  0  0  0  0  0
   -2.9624   -0.7957   -0.3230 C   0  0  0  0  0  0  0  0  0  0  0  0
   -3.8745    0.0384   -0.9109 O   0  0  0  0  0  0  0  0  0  0  0  0
   -3.4582    0.8775   -1.9877 C   0  0  0  0  0  0  0  0  0  0  0  0
   -3.7414    0.2108   -3.3251 C   0  0  0  0  0  0  0  0  0  0  0  0
   -5.7888    1.2112    3.5502 H   0  0  0  0  0  0  0  0  0  0  0  0
   -5.7133   -0.5540    3.7775 H   0  0  0  0  0  0  0  0  0  0  0  0
   -6.6871    0.1175    2.4682 H   0  0  0  0  0  0  0  0  0  0  0  0
   -3.6386    0.3387    2.6785 H   0  0  0  0  0  0  0  0  0  0  0  0
   -4.6485    0.9607    1.3385 H   0  0  0  0  0  0  0  0  0  0  0  0
   -2.8431   -2.7472    2.4837 H   0  0  0  0  0  0  0  0  0  0  0  0
   -0.6398   -3.3314    1.5289 H   0  0  0  0  0  0  0  0  0  0  0  0
    0.4210   -3.3500   -1.3187 H   0  0  0  0  0  0  0  0  0  0  0  0
    7.7504    0.7406   -0.8225 H   0  0  0  0  0  0  0  0  0  0  0  0
    9.2267    2.8691    0.0678 H   0  0  0  0  0  0  0  0  0  0  0  0
    7.4040    4.4244    1.4508 H   0  0  0  0  0  0  0  0  0  0  0  0
   -1.3950   -0.7319   -1.8159 H   0  0  0  0  0  0  0  0  0  0  0  0
   -2.4165    1.2031   -1.8933 H   0  0  0  0  0  0  0  0  0  0  0  0
   -4.0651    1.7889   -1.9221 H   0  0  0  0  0  0  0  0  0  0  0  0
   -3.1626   -0.7113   -3.4429 H   0  0  0  0  0  0  0  0  0  0  0  0
   -4.7987   -0.0702   -3.3971 H   0  0  0  0  0  0  0  0  0  0  0  0
   -3.5000    0.8865   -4.1515 H   0  0  0  0  0  0  0  0  0  0  0  0
  1  2  1  0
  2  3  1  0
  3  4  1  0
  4  5  2  0
  5  6  1  0
  6  7  2  0
  7  8  1  0
  8  9  2  3
  9 10  1  0
 10 11  1  0
 11 12  2  0
 12 13  1  0
 13 14  1  0
 14 15  2  0
 15 16  1  0
 16 17  2  0
 17 18  1  0
 13 19  2  0
 19 20  1  0
 20 21  1  0
 21 22  2  0
  7 23  1  0
 23 24  2  0
 24 25  1  0
 25 26  1  0
 26 27  1  0
 24  4  1  0
 21  9  1  0
 20 11  1  0
 18 14  1  0
  1 28  1  0
  1 29  1  0
  1 30  1  0
  2 31  1  0
  2 32  1  0
  5 33  1  0
  6 34  1  0
  8 35  1  0
 15 36  1  0
 16 37  1  0
 17 38  1  0
 23 39  1  0
 26 40  1  0
 26 41  1  0
 27 42  1  0
 27 43  1  0
 27 44  1  0
M  END
$$$$
