
     RDKit          3D

 33 34  0  0  0  0  0  0  0  0999 V2000
   -5.8265   -0.6166   -0.3203 C   0  0  0  0  0  0  0  0  0  0  0  0
   -5.2489    0.7798   -0.4731 C   0  0  0  0  0  0  0  0  0  0  0  0
   -4.1049    0.9482    0.3628 O   0  0  0  0  0  0  0  0  0  0  0  0
   -2.8707    0.6499   -0.1406 C   0  0  0  0  0  0  0  0  0  0  0  0
   -1.8053    1.0163    0.6874 C   0  0  0  0  0  0  0  0  0  0  0  0
   -0.4818    0.7705    0.3084 C   0  0  0  0  0  0  0  0  0  0  0  0
   -0.2128    0.1376   -0.9089 C   0  0  0  0  0  0  0  0  0  0  0  0
    1.1754   -0.1490   -1.3691 C   0  0  0  0  0  0  0  0  0  0  0  0
    1.4112   -0.3107   -2.5612 O   0  0  0  0  0  0  0  0  0  0  0  0
    2.1392   -0.2492   -0.3918 N   0  0  0  0  0  0  0  0  0  0  0  0
    3.4765   -0.6766   -0.7305 C   0  0  0  0  0  0  0  0  0  0  0  0
    4.3605   -0.4182    0.4307 C   0  0  0  0  0  0  0  0  0  0  0  0
    5.4354    0.4217    0.6355 C   0  0  0  0  0  0  0  0  0  0  0  0
    5.8559    0.2151    1.9711 C   0  0  0  0  0  0  0  0  0  0  0  0
    5.0132   -0.7362    2.4957 C   0  0  0  0  0  0  0  0  0  0  0  0
    4.0985   -1.1247    1.5706 O   0  0  0  0  0  0  0  0  0  0  0  0
   -1.2783   -0.2232   -1.7426 C   0  0  0  0  0  0  0  0  0  0  0  0
   -2.6013    0.0267   -1.3580 C   0  0  0  0  0  0  0  0  0  0  0  0
   -6.7432   -0.7225   -0.9072 H   0  0  0  0  0  0  0  0  0  0  0  0
   -5.1150   -1.3821   -0.6439 H   0  0  0  0  0  0  0  0  0  0  0  0
   -6.0565   -0.8225    0.7303 H   0  0  0  0  0  0  0  0  0  0  0  0
   -5.0487    1.0381   -1.5189 H   0  0  0  0  0  0  0  0  0  0  0  0
   -5.9954    1.5019   -0.1232 H   0  0  0  0  0  0  0  0  0  0  0  0
   -2.0098    1.5099    1.6349 H   0  0  0  0  0  0  0  0  0  0  0  0
    0.3177    1.1025    0.9637 H   0  0  0  0  0  0  0  0  0  0  0  0
    1.8563   -0.3930    0.5683 H   0  0  0  0  0  0  0  0  0  0  0  0
    3.4460   -1.7456   -0.9663 H   0  0  0  0  0  0  0  0  0  0  0  0
    3.8186   -0.1374   -1.6200 H   0  0  0  0  0  0  0  0  0  0  0  0
    5.8591    1.1011   -0.0912 H   0  0  0  0  0  0  0  0  0  0  0  0
    6.6727    0.6983    2.4889 H   0  0  0  0  0  0  0  0  0  0  0  0
    4.9353   -1.2174    3.4607 H   0  0  0  0  0  0  0  0  0  0  0  0
   -1.0816   -0.7062   -2.6982 H   0  0  0  0  0  0  0  0  0  0  0  0
   -3.3910   -0.2863   -2.0323 H   0  0  0  0  0  0  0  0  0  0  0  0
  1  2  1  0
  2  3  1  0
  3  4  1  0
  4  5  2  0
  5  6  1  0
  6  7  2  0
  7  8  1  0
  8  9  2  0
  8 10  1  0
 10 11  1  0
 11 12  1  0
 12 13  2  0
 13 14  1  0
 14 15  2  0
 15 16  1  0
  7 17  1  0
 17 18  2  0
 18  4  1  0
 16 12  1  0
  1 19  1  0
  1 20  1  0
  1 21  1  0
  2 22  1  0
  2 23  1  0
  5 24  1  0
  6 25  1  0
 10 26  1  0
 11 27  1  0
 11 28  1  0
 13 29  1  0
 14 30  1  0
 15 31  1  0
 17 32  1  0
 18 33  1  0
M  END
$$$$
