
     RDKit          3D

 74 79  0  0  0  0  0  0  0  0999 V2000
    8.6628   -0.1213   -4.6921 C   0  0  0  0  0  0  0  0  0  0  0  0
    7.3886   -0.7526   -4.7230 O   0  0  0  0  0  0  0  0  0  0  0  0
    6.6357   -0.6753   -3.5850 C   0  0  0  0  0  0  0  0  0  0  0  0
    6.9507    0.0468   -2.4382 C   0  0  0  0  0  0  0  0  0  0  0  0
    6.0793    0.0362   -1.3394 C   0  0  0  0  0  0  0  0  0  0  0  0
    4.8711   -0.6865   -1.3525 C   0  0  0  0  0  0  0  0  0  0  0  0
    3.9690   -0.6750   -0.1787 C   0  0  0  0  0  0  0  0  0  0  0  0
    2.6027   -0.8755   -0.2687 C   0  0  0  0  0  0  0  0  0  0  0  0
    1.8409   -0.8460    0.9009 C   0  0  0  0  0  0  0  0  0  0  0  0
    0.3809   -1.0286    0.7275 C   0  0  0  0  0  0  0  0  0  0  0  0
   -0.0129   -2.0062    0.1037 O   0  0  0  0  0  0  0  0  0  0  0  0
   -0.3822   -0.0061    1.2392 N   0  0  0  0  0  0  0  0  0  0  0  0
   -1.7881    0.1034    1.2671 C   0  0  0  0  0  0  0  0  0  0  0  0
   -2.6492   -0.9278    0.8938 C   0  0  0  0  0  0  0  0  0  0  0  0
   -4.0293   -0.7238    0.9620 C   0  0  0  0  0  0  0  0  0  0  0  0
   -5.1482   -2.0326    0.5241 S   0  0  0  0  0  6  0  0  0  0  0  0
   -4.4148   -3.2766    0.4406 O   0  0  0  0  0  0  0  0  0  0  0  0
   -6.3097   -1.9058    1.3799 O   0  0  0  0  0  0  0  0  0  0  0  0
   -5.6197   -1.6043   -1.0582 N   0  0  0  0  0  0  0  0  0  0  0  0
   -4.5525   -1.7067   -2.1102 C   0  0  0  0  0  0  0  0  0  0  0  0
   -4.7784   -2.9252   -3.0102 C   0  0  0  0  0  0  0  0  0  0  0  0
   -6.0227   -2.8719   -3.7232 O   0  0  0  0  0  0  0  0  0  0  0  0
   -7.0582   -2.1873   -3.0049 C   0  0  0  0  0  0  0  0  0  0  0  0
   -6.8942   -2.2710   -1.4854 C   0  0  0  0  0  0  0  0  0  0  0  0
   -4.5544    0.4841    1.4277 C   0  0  0  0  0  0  0  0  0  0  0  0
   -3.6918    1.5105    1.8147 C   0  0  0  0  0  0  0  0  0  0  0  0
   -2.3018    1.3392    1.7418 C   0  0  0  0  0  0  0  0  0  0  0  0
   -1.3851    2.3637    2.0887 N   0  0  0  0  0  0  0  0  0  0  0  0
   -1.6372    3.0492    3.3822 C   0  0  0  0  0  0  0  0  0  0  0  0
   -2.1263    4.4908    3.1774 C   0  0  0  0  0  0  0  0  0  0  0  0
   -1.2143    5.3053    2.4227 O   0  0  0  0  0  0  0  0  0  0  0  0
   -0.4570    4.5650    1.4527 C   0  0  0  0  0  0  0  0  0  0  0  0
   -1.1769    3.3026    0.9543 C   0  0  0  0  0  0  0  0  0  0  0  0
    2.4447   -0.6555    2.1623 C   0  0  0  0  0  0  0  0  0  0  0  0
    1.7684   -0.6863    3.4101 C   0  0  0  0  0  0  0  0  0  0  0  0
    2.4534   -0.4805    4.6057 C   0  0  0  0  0  0  0  0  0  0  0  0
    3.8204   -0.2486    4.5767 C   0  0  0  0  0  0  0  0  0  0  0  0
    4.4930   -0.2350    3.3526 C   0  0  0  0  0  0  0  0  0  0  0  0
    3.8343   -0.4420    2.1477 C   0  0  0  0  0  0  0  0  0  0  0  0
    4.5619   -0.4355    1.0176 N   0  0  0  0  0  0  0  0  0  0  0  0
    4.5789   -1.4134   -2.5196 C   0  0  0  0  0  0  0  0  0  0  0  0
    5.4460   -1.4023   -3.6193 C   0  0  0  0  0  0  0  0  0  0  0  0
    8.5621    0.9637   -4.5807 H   0  0  0  0  0  0  0  0  0  0  0  0
    9.2955   -0.5431   -3.9043 H   0  0  0  0  0  0  0  0  0  0  0  0
    9.1542   -0.3129   -5.6504 H   0  0  0  0  0  0  0  0  0  0  0  0
    7.8607    0.6310   -2.3584 H   0  0  0  0  0  0  0  0  0  0  0  0
    6.3553    0.6085   -0.4542 H   0  0  0  0  0  0  0  0  0  0  0  0
    2.1139   -1.0358   -1.2241 H   0  0  0  0  0  0  0  0  0  0  0  0
    0.0778    0.8147    1.6280 H   0  0  0  0  0  0  0  0  0  0  0  0
   -2.2671   -1.8884    0.5633 H   0  0  0  0  0  0  0  0  0  0  0  0
   -3.5538   -1.7554   -1.6709 H   0  0  0  0  0  0  0  0  0  0  0  0
   -4.5986   -0.7858   -2.7027 H   0  0  0  0  0  0  0  0  0  0  0  0
   -3.9807   -2.9957   -3.7564 H   0  0  0  0  0  0  0  0  0  0  0  0
   -4.7635   -3.8510   -2.4249 H   0  0  0  0  0  0  0  0  0  0  0  0
   -8.0133   -2.6292   -3.3068 H   0  0  0  0  0  0  0  0  0  0  0  0
   -7.0609   -1.1428   -3.3376 H   0  0  0  0  0  0  0  0  0  0  0  0
   -6.8825   -3.3232   -1.1769 H   0  0  0  0  0  0  0  0  0  0  0  0
   -7.7340   -1.7641   -0.9994 H   0  0  0  0  0  0  0  0  0  0  0  0
   -5.6313    0.6290    1.4923 H   0  0  0  0  0  0  0  0  0  0  0  0
   -4.1222    2.4446    2.1608 H   0  0  0  0  0  0  0  0  0  0  0  0
   -2.3308    2.4892    4.0216 H   0  0  0  0  0  0  0  0  0  0  0  0
   -0.6750    3.0796    3.9102 H   0  0  0  0  0  0  0  0  0  0  0  0
   -3.0883    4.5075    2.6559 H   0  0  0  0  0  0  0  0  0  0  0  0
   -2.2744    4.9778    4.1450 H   0  0  0  0  0  0  0  0  0  0  0  0
   -0.2508    5.2387    0.6143 H   0  0  0  0  0  0  0  0  0  0  0  0
    0.5042    4.3032    1.9108 H   0  0  0  0  0  0  0  0  0  0  0  0
   -2.1375    3.5922    0.5081 H   0  0  0  0  0  0  0  0  0  0  0  0
   -0.5691    2.8163    0.1841 H   0  0  0  0  0  0  0  0  0  0  0  0
    0.7003   -0.8907    3.4630 H   0  0  0  0  0  0  0  0  0  0  0  0
    1.9207   -0.5112    5.5532 H   0  0  0  0  0  0  0  0  0  0  0  0
    4.3711   -0.0913    5.5006 H   0  0  0  0  0  0  0  0  0  0  0  0
    5.5686   -0.0696    3.3385 H   0  0  0  0  0  0  0  0  0  0  0  0
    3.6798   -2.0209   -2.5919 H   0  0  0  0  0  0  0  0  0  0  0  0
    5.1916   -1.9764   -4.5080 H   0  0  0  0  0  0  0  0  0  0  0  0
  1  2  1  0
  2  3  1  0
  3  4  2  0
  4  5  1  0
  5  6  2  0
  6  7  1  0
  7  8  2  0
  8  9  1  0
  9 10  1  0
 10 11  2  0
 10 12  1  0
 12 13  1  0
 13 14  2  0
 14 15  1  0
 15 16  1  0
 16 17  2  0
 16 18  2  0
 16 19  1  0
 19 20  1  0
 20 21  1  0
 21 22  1  0
 22 23  1  0
 23 24  1  0
 15 25  2  0
 25 26  1  0
 26 27  2  0
 27 28  1  0
 28 29  1  0
 29 30  1  0
 30 31  1  0
 31 32  1  0
 32 33  1  0
  9 34  2  0
 34 35  1  0
 35 36  2  0
 36 37  1  0
 37 38  2  0
 38 39  1  0
 39 40  2  0
  6 41  1  0
 41 42  2  0
 42  3  1  0
 40  7  1  0
 27 13  1  0
 33 28  1  0
 39 34  1  0
 24 19  1  0
  1 43  1  0
  1 44  1  0
  1 45  1  0
  4 46  1  0
  5 47  1  0
  8 48  1  0
 12 49  1  0
 14 50  1  0
 20 51  1  0
 20 52  1  0
 21 53  1  0
 21 54  1  0
 23 55  1  0
 23 56  1  0
 24 57  1  0
 24 58  1  0
 25 59  1  0
 26 60  1  0
 29 61  1  0
 29 62  1  0
 30 63  1  0
 30 64  1  0
 32 65  1  0
 32 66  1  0
 33 67  1  0
 33 68  1  0
 35 69  1  0
 36 70  1  0
 37 71  1  0
 38 72  1  0
 41 73  1  0
 42 74  1  0
M  END
$$$$
