
     RDKit          3D

 43 45  0  0  0  0  0  0  0  0999 V2000
   -5.4644   -2.2165   -1.2129 C   0  0  0  0  0  0  0  0  0  0  0  0
   -4.4959   -1.7962   -0.2603 O   0  0  0  0  0  0  0  0  0  0  0  0
   -3.9244   -0.5704   -0.4525 C   0  0  0  0  0  0  0  0  0  0  0  0
   -4.1859    0.3006   -1.5079 C   0  0  0  0  0  0  0  0  0  0  0  0
   -3.5263    1.5351   -1.5895 C   0  0  0  0  0  0  0  0  0  0  0  0
   -2.6005    1.9200   -0.6141 C   0  0  0  0  0  0  0  0  0  0  0  0
   -1.9006    3.0927   -0.6605 O   0  0  0  0  0  0  0  0  0  0  0  0
   -2.4769    4.1598   -1.4047 C   0  0  0  0  0  0  0  0  0  0  0  0
   -2.3355    1.0340    0.4360 C   0  0  0  0  0  0  0  0  0  0  0  0
   -1.1784    1.4563    1.7112 S   0  0  0  0  0  6  0  0  0  0  0  0
   -1.5233    2.7721    2.2096 O   0  0  0  0  0  0  0  0  0  0  0  0
   -1.0678    0.3399    2.6284 O   0  0  0  0  0  0  0  0  0  0  0  0
    0.2889    1.6149    0.8846 N   0  0  0  0  0  0  0  0  0  0  0  0
    1.0473    0.4434    0.6239 C   0  0  0  0  0  0  0  0  0  0  0  0
    0.7258   -0.3666   -0.4628 C   0  0  0  0  0  0  0  0  0  0  0  0
    1.4490   -1.5361   -0.6904 C   0  0  0  0  0  0  0  0  0  0  0  0
    2.4875   -1.8907    0.1695 C   0  0  0  0  0  0  0  0  0  0  0  0
    3.1477   -3.0491   -0.1389 O   0  0  0  0  0  0  0  0  0  0  0  0
    2.8109   -1.0930    1.2773 C   0  0  0  0  0  0  0  0  0  0  0  0
    4.0615   -1.5272    2.4771 S   0  0  0  0  0  0  0  0  0  0  0  0
    5.5132   -1.4631    1.5214 C   0  0  0  0  0  0  0  0  0  0  0  0
    6.4543   -0.4800    1.6349 N   0  0  0  0  0  0  0  0  0  0  0  0
    7.3586   -0.8340    0.7527 C   0  0  0  0  0  0  0  0  0  0  0  0
    6.9715   -1.9842    0.1414 N   0  0  0  0  0  0  0  0  0  0  0  0
    5.7886   -2.4124    0.6171 N   0  0  0  0  0  0  0  0  0  0  0  0
    2.0718    0.0777    1.4995 C   0  0  0  0  0  0  0  0  0  0  0  0
   -2.9965   -0.2000    0.5195 C   0  0  0  0  0  0  0  0  0  0  0  0
   -6.3225   -1.5365   -1.2299 H   0  0  0  0  0  0  0  0  0  0  0  0
   -5.0197   -2.3174   -2.2084 H   0  0  0  0  0  0  0  0  0  0  0  0
   -5.8269   -3.2030   -0.9084 H   0  0  0  0  0  0  0  0  0  0  0  0
   -4.8946    0.0506   -2.2910 H   0  0  0  0  0  0  0  0  0  0  0  0
   -3.7485    2.1702   -2.4418 H   0  0  0  0  0  0  0  0  0  0  0  0
   -2.3638    3.9873   -2.4796 H   0  0  0  0  0  0  0  0  0  0  0  0
   -1.9296    5.0740   -1.1553 H   0  0  0  0  0  0  0  0  0  0  0  0
   -3.5278    4.3161   -1.1382 H   0  0  0  0  0  0  0  0  0  0  0  0
    0.7786    2.4595    1.1747 H   0  0  0  0  0  0  0  0  0  0  0  0
   -0.0732   -0.0927   -1.1451 H   0  0  0  0  0  0  0  0  0  0  0  0
    1.2069   -2.1720   -1.5375 H   0  0  0  0  0  0  0  0  0  0  0  0
    4.0083   -3.0438    0.3326 H   0  0  0  0  0  0  0  0  0  0  0  0
    8.2795   -0.3168    0.5233 H   0  0  0  0  0  0  0  0  0  0  0  0
    7.4439   -2.5167   -0.5815 H   0  0  0  0  0  0  0  0  0  0  0  0
    2.2822    0.6971    2.3681 H   0  0  0  0  0  0  0  0  0  0  0  0
   -2.7929   -0.8827    1.3428 H   0  0  0  0  0  0  0  0  0  0  0  0
  1  2  1  0
  2  3  1  0
  3  4  2  0
  4  5  1  0
  5  6  2  0
  6  7  1  0
  7  8  1  0
  6  9  1  0
  9 10  1  0
 10 11  2  0
 10 12  2  0
 10 13  1  0
 13 14  1  0
 14 15  2  0
 15 16  1  0
 16 17  2  0
 17 18  1  0
 17 19  1  0
 19 20  1  0
 20 21  1  0
 21 22  1  0
 22 23  2  0
 23 24  1  0
 24 25  1  0
 19 26  2  0
  9 27  2  0
 27  3  1  0
 26 14  1  0
 25 21  2  0
  1 28  1  0
  1 29  1  0
  1 30  1  0
  4 31  1  0
  5 32  1  0
  8 33  1  0
  8 34  1  0
  8 35  1  0
 13 36  1  0
 15 37  1  0
 16 38  1  0
 18 39  1  0
 23 40  1  0
 24 41  1  0
 26 42  1  0
 27 43  1  0
M  END
$$$$
