
     RDKit          3D

 53 58  0  0  0  0  0  0  0  0999 V2000
   -1.7216   -1.4163    1.0470 O   0  0  0  0  0  0  0  0  0  0  0  0
   -1.8341   -0.2585    0.6390 C   0  0  0  0  0  0  0  0  0  0  0  0
   -0.9439    0.8467    1.2432 C   0  0  0  0  0  0  0  0  0  0  0  0
    0.4521    0.3776    1.3230 N   0  0  0  0  0  4  0  0  0  0  0  0
    1.4917    0.6944    0.4504 C   0  0  0  0  0  0  0  0  0  0  0  0
    2.6169   -0.0426    0.8026 C   0  0  0  0  0  0  0  0  0  0  0  0
    4.0030   -0.0440    0.0591 C   0  0  0  0  0  0  0  0  0  0  0  0
    5.0151   -0.9299    0.4317 C   0  0  0  0  0  0  0  0  0  0  0  0
    6.2374   -0.9311   -0.2529 C   0  0  0  0  0  0  0  0  0  0  0  0
    6.4605   -0.0447   -1.3102 C   0  0  0  0  0  0  0  0  0  0  0  0
    7.9906   -0.1036   -2.1053 Cl  0  0  0  0  0  0  0  0  0  0  0  0
    5.4510    0.8460   -1.6823 C   0  0  0  0  0  0  0  0  0  0  0  0
    5.6439    1.9823   -2.9688 Cl  0  0  0  0  0  0  0  0  0  0  0  0
    4.2237    0.8422   -1.0032 C   0  0  0  0  0  0  0  0  0  0  0  0
    2.1984   -0.7485    1.9147 N   0  0  0  0  0  0  0  0  0  0  0  0
    0.9158   -0.5187    2.1891 C   0  0  0  0  0  0  0  0  0  0  0  0
    0.4227   -1.2835    3.3599 C   0  0  0  0  0  0  0  0  0  0  0  0
    1.7383   -1.7704    3.9964 C   0  0  0  0  0  0  0  0  0  0  0  0
    2.7856   -1.6972    2.8515 C   0  0  0  0  0  0  0  0  0  0  0  0
   -2.6327    0.1720   -0.4300 N   0  0  0  0  0  0  0  0  0  0  0  0
   -3.5199    1.2974   -0.2489 C   0  0  0  0  0  0  0  0  0  0  0  0
   -3.9461    1.6355    1.0559 C   0  0  0  0  0  0  0  0  0  0  0  0
   -4.7893    2.7238    1.2974 C   0  0  0  0  0  0  0  0  0  0  0  0
   -5.2422    3.4939    0.2381 C   0  0  0  0  0  0  0  0  0  0  0  0
   -4.8673    3.1577   -1.0592 C   0  0  0  0  0  0  0  0  0  0  0  0
   -4.0254    2.0604   -1.3094 C   0  0  0  0  0  0  0  0  0  0  0  0
   -3.6196    1.7436   -2.9969 S   0  0  0  0  0  0  0  0  0  0  0  0
   -3.0968    0.0540   -2.8846 C   0  0  0  0  0  0  0  0  0  0  0  0
   -3.0708   -0.6566   -4.0989 C   0  0  0  0  0  0  0  0  0  0  0  0
   -2.5701   -1.9517   -4.1586 C   0  0  0  0  0  0  0  0  0  0  0  0
   -2.0807   -2.5412   -3.0046 C   0  0  0  0  0  0  0  0  0  0  0  0
   -2.1070   -1.8403   -1.7934 C   0  0  0  0  0  0  0  0  0  0  0  0
   -2.6320   -0.5334   -1.6928 C   0  0  0  0  0  0  0  0  0  0  0  0
   -0.9604    1.7594    0.6375 H   0  0  0  0  0  0  0  0  0  0  0  0
   -1.2871    1.0803    2.2556 H   0  0  0  0  0  0  0  0  0  0  0  0
    1.2865    1.3926   -0.3429 H   0  0  0  0  0  0  0  0  0  0  0  0
    4.8867   -1.6443    1.2383 H   0  0  0  0  0  0  0  0  0  0  0  0
    7.0182   -1.6319    0.0419 H   0  0  0  0  0  0  0  0  0  0  0  0
    3.4628    1.5513   -1.3176 H   0  0  0  0  0  0  0  0  0  0  0  0
   -0.1559   -0.6207    4.0041 H   0  0  0  0  0  0  0  0  0  0  0  0
   -0.1747   -2.1123    2.9766 H   0  0  0  0  0  0  0  0  0  0  0  0
    1.6565   -2.7686    4.4352 H   0  0  0  0  0  0  0  0  0  0  0  0
    2.0318   -1.0738    4.7907 H   0  0  0  0  0  0  0  0  0  0  0  0
    3.7497   -1.3388    3.2186 H   0  0  0  0  0  0  0  0  0  0  0  0
    2.8919   -2.6646    2.3523 H   0  0  0  0  0  0  0  0  0  0  0  0
   -3.6856    1.0245    1.9171 H   0  0  0  0  0  0  0  0  0  0  0  0
   -5.1127    2.9553    2.3098 H   0  0  0  0  0  0  0  0  0  0  0  0
   -5.9033    4.3400    0.4116 H   0  0  0  0  0  0  0  0  0  0  0  0
   -5.2488    3.7590   -1.8839 H   0  0  0  0  0  0  0  0  0  0  0  0
   -3.4333   -0.1945   -5.0163 H   0  0  0  0  0  0  0  0  0  0  0  0
   -2.5572   -2.4908   -5.1020 H   0  0  0  0  0  0  0  0  0  0  0  0
   -1.6835   -3.5542   -3.0394 H   0  0  0  0  0  0  0  0  0  0  0  0
   -1.7288   -2.3829   -0.9330 H   0  0  0  0  0  0  0  0  0  0  0  0
  1  2  2  0
  2  3  1  0
  3  4  1  0
  4  5  1  0
  5  6  2  0
  6  7  1  0
  7  8  2  0
  8  9  1  0
  9 10  2  0
 10 11  1  0
 10 12  1  0
 12 13  1  0
 12 14  2  0
  6 15  1  0
 15 16  1  0
 16 17  1  0
 17 18  1  0
 18 19  1  0
  2 20  1  0
 20 21  1  0
 21 22  2  0
 22 23  1  0
 23 24  2  0
 24 25  1  0
 25 26  2  0
 26 27  1  0
 27 28  1  0
 28 29  2  0
 29 30  1  0
 30 31  2  0
 31 32  1  0
 32 33  2  0
 16  4  2  0
 33 20  1  0
 14  7  1  0
 19 15  1  0
 26 21  1  0
 33 28  1  0
  3 34  1  0
  3 35  1  0
  5 36  1  0
  8 37  1  0
  9 38  1  0
 14 39  1  0
 17 40  1  0
 17 41  1  0
 18 42  1  0
 18 43  1  0
 19 44  1  0
 19 45  1  0
 22 46  1  0
 23 47  1  0
 24 48  1  0
 25 49  1  0
 29 50  1  0
 30 51  1  0
 31 52  1  0
 32 53  1  0
M  CHG  1   4   1
M  END
$$$$
