
     RDKit          3D

 64 69  0  0  0  0  0  0  0  0999 V2000
    7.2742   -1.6867   -2.4576 F   0  0  0  0  0  0  0  0  0  0  0  0
    6.2487   -1.3934   -1.6065 C   0  0  0  0  0  0  0  0  0  0  0  0
    5.5235   -2.5419   -1.4966 F   0  0  0  0  0  0  0  0  0  0  0  0
    5.4581   -0.5129   -2.2816 F   0  0  0  0  0  0  0  0  0  0  0  0
    6.7075   -0.8634   -0.2643 C   0  0  0  0  0  0  0  0  0  0  0  0
    8.0857   -0.8535    0.0287 C   0  0  0  0  0  0  0  0  0  0  0  0
    8.5594   -0.3837    1.2536 C   0  0  0  0  0  0  0  0  0  0  0  0
    7.6632    0.0793    2.2111 C   0  0  0  0  0  0  0  0  0  0  0  0
    6.2947    0.0759    1.9439 C   0  0  0  0  0  0  0  0  0  0  0  0
    5.7985   -0.3925    0.7126 C   0  0  0  0  0  0  0  0  0  0  0  0
    4.2995   -0.3383    0.4763 C   0  0  0  0  0  0  0  0  0  0  0  0
    3.8498    1.0672    0.0304 C   0  0  0  0  0  0  0  0  0  0  0  0
    2.4339    1.2487   -0.3172 N   0  0  0  0  0  0  0  0  0  0  0  0
    1.5042    0.8848    0.7674 C   0  0  0  0  0  0  0  0  0  0  0  0
    0.0315    1.2022    0.4124 C   0  0  0  0  0  0  0  0  0  0  0  0
   -0.3439    0.5961   -0.8650 N   0  0  0  0  0  0  0  0  0  0  0  0
   -1.4873   -0.1610   -1.0671 C   0  0  0  0  0  0  0  0  0  0  0  0
   -1.4163   -1.1479   -1.9282 N   0  0  0  0  0  0  0  0  0  0  0  0
   -2.5237   -1.9848   -2.1634 C   0  0  0  0  0  0  0  0  0  0  0  0
   -2.3850   -3.0273   -3.0826 C   0  0  0  0  0  0  0  0  0  0  0  0
   -3.4528   -3.8891   -3.3517 C   0  0  0  0  0  0  0  0  0  0  0  0
   -4.6753   -3.7141   -2.7010 C   0  0  0  0  0  0  0  0  0  0  0  0
   -4.8345   -2.6825   -1.7752 C   0  0  0  0  0  0  0  0  0  0  0  0
   -3.7561   -1.8303   -1.5144 C   0  0  0  0  0  0  0  0  0  0  0  0
   -3.8334   -0.7609   -0.6074 N   0  0  0  0  0  0  0  0  0  0  0  0
   -4.8958   -0.3513    0.1632 C   0  0  0  0  0  0  0  0  0  0  0  0
   -4.5318    0.7979    0.8380 C   0  0  0  0  0  0  0  0  0  0  0  0
   -5.4210    1.5367    1.7213 C   0  0  0  0  0  0  0  0  0  0  0  0
   -5.3865    2.9373    1.7435 C   0  0  0  0  0  0  0  0  0  0  0  0
   -6.2371    3.6544    2.5900 C   0  0  0  0  0  0  0  0  0  0  0  0
   -7.1251    2.9781    3.4253 C   0  0  0  0  0  0  0  0  0  0  0  0
   -7.1636    1.5856    3.4159 C   0  0  0  0  0  0  0  0  0  0  0  0
   -6.3161    0.8675    2.5681 C   0  0  0  0  0  0  0  0  0  0  0  0
   -3.1933    1.0824    0.4531 C   0  0  0  0  0  0  0  0  0  0  0  0
   -2.7583    0.0748   -0.3920 C   0  0  0  0  0  0  0  0  0  0  0  0
    0.5951    0.8613   -1.9649 C   0  0  0  0  0  0  0  0  0  0  0  0
    2.0461    0.5368   -1.5532 C   0  0  0  0  0  0  0  0  0  0  0  0
    8.8053   -1.2145   -0.7072 H   0  0  0  0  0  0  0  0  0  0  0  0
    9.6271   -0.3812    1.4612 H   0  0  0  0  0  0  0  0  0  0  0  0
    8.0290    0.4463    3.1667 H   0  0  0  0  0  0  0  0  0  0  0  0
    5.6101    0.4452    2.7078 H   0  0  0  0  0  0  0  0  0  0  0  0
    3.7961   -0.6188    1.4099 H   0  0  0  0  0  0  0  0  0  0  0  0
    4.0060   -1.0984   -0.2537 H   0  0  0  0  0  0  0  0  0  0  0  0
    4.0887    1.7840    0.8276 H   0  0  0  0  0  0  0  0  0  0  0  0
    4.4581    1.3924   -0.8240 H   0  0  0  0  0  0  0  0  0  0  0  0
    1.5806   -0.1864    0.9952 H   0  0  0  0  0  0  0  0  0  0  0  0
    1.7637    1.4350    1.6796 H   0  0  0  0  0  0  0  0  0  0  0  0
   -0.5849    0.8210    1.2329 H   0  0  0  0  0  0  0  0  0  0  0  0
   -0.1151    2.2871    0.3549 H   0  0  0  0  0  0  0  0  0  0  0  0
   -1.4326   -3.1664   -3.5898 H   0  0  0  0  0  0  0  0  0  0  0  0
   -3.3303   -4.6958   -4.0701 H   0  0  0  0  0  0  0  0  0  0  0  0
   -5.5047   -4.3835   -2.9176 H   0  0  0  0  0  0  0  0  0  0  0  0
   -5.7956   -2.5652   -1.2844 H   0  0  0  0  0  0  0  0  0  0  0  0
   -5.8347   -0.8855    0.1546 H   0  0  0  0  0  0  0  0  0  0  0  0
   -4.7108    3.4839    1.0902 H   0  0  0  0  0  0  0  0  0  0  0  0
   -6.2099    4.7411    2.5938 H   0  0  0  0  0  0  0  0  0  0  0  0
   -7.7885    3.5352    4.0829 H   0  0  0  0  0  0  0  0  0  0  0  0
   -7.8518    1.0569    4.0699 H   0  0  0  0  0  0  0  0  0  0  0  0
   -6.3534   -0.2190    2.5865 H   0  0  0  0  0  0  0  0  0  0  0  0
   -2.6086    1.9325    0.7761 H   0  0  0  0  0  0  0  0  0  0  0  0
    0.5187    1.9231   -2.2353 H   0  0  0  0  0  0  0  0  0  0  0  0
    0.3470    0.2925   -2.8687 H   0  0  0  0  0  0  0  0  0  0  0  0
    2.7084    0.8367   -2.3752 H   0  0  0  0  0  0  0  0  0  0  0  0
    2.1453   -0.5497   -1.4287 H   0  0  0  0  0  0  0  0  0  0  0  0
  1  2  1  0
  2  3  1  0
  2  4  1  0
  2  5  1  0
  5  6  2  0
  6  7  1  0
  7  8  2  0
  8  9  1  0
  9 10  2  0
 10 11  1  0
 11 12  1  0
 12 13  1  0
 13 14  1  0
 14 15  1  0
 15 16  1  0
 16 17  1  0
 17 18  2  0
 18 19  1  0
 19 20  2  0
 20 21  1  0
 21 22  2  0
 22 23  1  0
 23 24  2  0
 24 25  1  0
 25 26  1  0
 26 27  2  0
 27 28  1  0
 28 29  2  0
 29 30  1  0
 30 31  2  0
 31 32  1  0
 32 33  2  0
 27 34  1  0
 34 35  2  0
 16 36  1  0
 36 37  1  0
 10  5  1  0
 37 13  1  0
 35 17  1  0
 24 19  1  0
 35 25  1  0
 33 28  1  0
  6 38  1  0
  7 39  1  0
  8 40  1  0
  9 41  1  0
 11 42  1  0
 11 43  1  0
 12 44  1  0
 12 45  1  0
 14 46  1  0
 14 47  1  0
 15 48  1  0
 15 49  1  0
 20 50  1  0
 21 51  1  0
 22 52  1  0
 23 53  1  0
 26 54  1  0
 29 55  1  0
 30 56  1  0
 31 57  1  0
 32 58  1  0
 33 59  1  0
 34 60  1  0
 36 61  1  0
 36 62  1  0
 37 63  1  0
 37 64  1  0
M  END
$$$$
