
     RDKit          3D

 45 47  0  0  0  0  0  0  0  0999 V2000
    8.4112   -0.3849    1.2686 C   0  0  0  0  0  0  0  0  0  0  0  0
    7.3721    0.7210    1.1684 C   0  0  0  0  0  0  0  0  0  0  0  0
    7.0676    1.1489   -0.2715 C   0  0  0  0  0  0  0  0  0  0  0  0
    6.4945    0.0542   -1.1766 C   0  0  0  0  0  0  0  0  0  0  0  0
    5.1733   -0.4607   -0.7065 C   0  0  0  0  0  0  0  0  0  0  0  0
    5.0066   -1.5437    0.0248 N   0  0  0  0  0  0  0  0  0  0  0  0
    3.6757   -1.7739    0.3085 N   0  0  0  0  0  0  0  0  0  0  0  0
    2.8901   -0.8630   -0.2220 C   0  0  0  0  0  0  0  0  0  0  0  0
    1.5278   -0.9054   -0.0609 N   0  0  0  0  0  0  0  0  0  0  0  0
    0.6033   -0.0104   -0.5656 C   0  0  0  0  0  0  0  0  0  0  0  0
    0.8488    0.9787   -1.2468 O   0  0  0  0  0  0  0  0  0  0  0  0
   -0.8273   -0.4014   -0.1662 C   0  0  0  0  0  0  0  0  0  0  0  0
   -1.7799    0.5149   -0.6814 O   0  0  0  0  0  0  0  0  0  0  0  0
   -3.0958    0.2835   -0.3991 C   0  0  0  0  0  0  0  0  0  0  0  0
   -3.6039   -0.7757    0.3536 C   0  0  0  0  0  0  0  0  0  0  0  0
   -4.9862   -0.8962    0.5689 C   0  0  0  0  0  0  0  0  0  0  0  0
   -5.8826    0.0378    0.0367 C   0  0  0  0  0  0  0  0  0  0  0  0
   -7.3380   -0.0302    0.2243 C   0  0  0  0  0  0  0  0  0  0  0  0
   -7.9470   -1.1441    1.0231 C   0  0  0  0  0  0  0  0  0  0  0  0
   -8.0956    0.9246   -0.3353 C   0  0  0  0  0  0  0  0  0  0  0  0
   -7.5481    2.0371   -1.1272 C   0  0  0  0  0  0  0  0  0  0  0  0
   -8.2911    2.8812   -1.6147 O   0  0  0  0  0  0  0  0  0  0  0  0
   -6.1745    2.0742   -1.2862 O   0  0  0  0  0  0  0  0  0  0  0  0
   -5.3502    1.0874   -0.7120 C   0  0  0  0  0  0  0  0  0  0  0  0
   -3.9789    1.2195   -0.9339 C   0  0  0  0  0  0  0  0  0  0  0  0
    3.7070    0.3403   -1.1051 S   0  0  0  0  0  0  0  0  0  0  0  0
    9.3315   -0.1085    0.7446 H   0  0  0  0  0  0  0  0  0  0  0  0
    8.6619   -0.5699    2.3181 H   0  0  0  0  0  0  0  0  0  0  0  0
    8.0406   -1.3239    0.8475 H   0  0  0  0  0  0  0  0  0  0  0  0
    6.4538    0.4070    1.6769 H   0  0  0  0  0  0  0  0  0  0  0  0
    7.7440    1.5965    1.7145 H   0  0  0  0  0  0  0  0  0  0  0  0
    7.9912    1.5260   -0.7285 H   0  0  0  0  0  0  0  0  0  0  0  0
    6.3727    1.9977   -0.2381 H   0  0  0  0  0  0  0  0  0  0  0  0
    6.3919    0.4546   -2.1932 H   0  0  0  0  0  0  0  0  0  0  0  0
    7.2001   -0.7806   -1.2562 H   0  0  0  0  0  0  0  0  0  0  0  0
    1.2231   -1.6932    0.4938 H   0  0  0  0  0  0  0  0  0  0  0  0
   -0.8697   -0.4099    0.9300 H   0  0  0  0  0  0  0  0  0  0  0  0
   -1.0161   -1.4045   -0.5681 H   0  0  0  0  0  0  0  0  0  0  0  0
   -2.9584   -1.5300    0.7911 H   0  0  0  0  0  0  0  0  0  0  0  0
   -5.3393   -1.7367    1.1612 H   0  0  0  0  0  0  0  0  0  0  0  0
   -7.5738   -1.1336    2.0527 H   0  0  0  0  0  0  0  0  0  0  0  0
   -9.0383   -1.0595    1.0738 H   0  0  0  0  0  0  0  0  0  0  0  0
   -7.7186   -2.1159    0.5727 H   0  0  0  0  0  0  0  0  0  0  0  0
   -9.1753    0.9337   -0.2356 H   0  0  0  0  0  0  0  0  0  0  0  0
   -3.6002    2.0511   -1.5229 H   0  0  0  0  0  0  0  0  0  0  0  0
  1  2  1  0
  2  3  1  0
  3  4  1  0
  4  5  1  0
  5  6  2  0
  6  7  1  0
  7  8  2  0
  8  9  1  0
  9 10  1  0
 10 11  2  0
 10 12  1  0
 12 13  1  0
 13 14  1  0
 14 15  2  0
 15 16  1  0
 16 17  2  0
 17 18  1  0
 18 19  1  0
 18 20  2  0
 20 21  1  0
 21 22  2  0
 21 23  1  0
 23 24  1  0
 24 25  2  0
  8 26  1  0
 26  5  1  0
 25 14  1  0
 24 17  1  0
  1 27  1  0
  1 28  1  0
  1 29  1  0
  2 30  1  0
  2 31  1  0
  3 32  1  0
  3 33  1  0
  4 34  1  0
  4 35  1  0
  9 36  1  0
 12 37  1  0
 12 38  1  0
 15 39  1  0
 16 40  1  0
 19 41  1  0
 19 42  1  0
 19 43  1  0
 20 44  1  0
 25 45  1  0
M  END
$$$$
