
     RDKit          3D

 57 61  0  0  0  0  0  0  0  0999 V2000
   -0.0737    1.7725    0.0244 O   0  0  0  0  0  0  0  0  0  0  0  0
    0.4295    0.6228   -0.6824 C   0  0  0  0  0  0  0  0  0  0  0  0
    1.2126   -0.2864    0.2826 C   0  0  0  0  0  0  0  0  0  0  0  0
    2.1899    0.5159    1.0156 N   0  0  0  0  0  0  0  0  0  0  0  0
    3.5294    0.5547    0.7063 C   0  0  0  0  0  0  0  0  0  0  0  0
    3.9635    0.0232   -0.4055 N   0  0  0  0  0  0  0  0  0  0  0  0
    5.3473    0.0094   -0.6916 C   0  0  0  0  0  0  0  0  0  0  0  0
    5.7797   -0.6234   -1.8598 C   0  0  0  0  0  0  0  0  0  0  0  0
    7.1429   -0.6988   -2.1712 C   0  0  0  0  0  0  0  0  0  0  0  0
    8.0901   -0.1309   -1.3187 C   0  0  0  0  0  0  0  0  0  0  0  0
    7.6815    0.5159   -0.1501 C   0  0  0  0  0  0  0  0  0  0  0  0
    6.3162    0.5743    0.1536 C   0  0  0  0  0  0  0  0  0  0  0  0
    5.8230    1.1816    1.3222 N   0  0  0  0  0  0  0  0  0  0  0  0
    6.4985    1.8279    2.3309 C   0  0  0  0  0  0  0  0  0  0  0  0
    5.5751    2.2486    3.2673 C   0  0  0  0  0  0  0  0  0  0  0  0
    4.2970    1.8469    2.8099 C   0  0  0  0  0  0  0  0  0  0  0  0
    4.4758    1.1803    1.6095 C   0  0  0  0  0  0  0  0  0  0  0  0
   -0.7151   -0.1140   -1.4190 C   0  0  0  0  0  0  0  0  0  0  0  0
   -1.6539   -0.8951   -0.5834 N   0  0  0  0  0  0  0  0  0  0  0  0
   -2.6197   -1.6513   -1.4185 C   0  0  0  0  0  0  0  0  0  0  0  0
   -4.0370   -1.0326   -1.5508 C   0  0  0  0  0  0  0  0  0  0  0  0
   -4.6461   -0.8245   -0.2290 N   0  0  0  0  0  0  0  0  0  0  0  0
   -6.0128   -0.7067   -0.0631 C   0  0  0  0  0  0  0  0  0  0  0  0
   -6.6244   -0.9189    1.1844 C   0  0  0  0  0  0  0  0  0  0  0  0
   -8.0074   -0.7979    1.3643 C   0  0  0  0  0  0  0  0  0  0  0  0
   -8.8215   -0.4636    0.2884 C   0  0  0  0  0  0  0  0  0  0  0  0
   -8.2496   -0.2537   -0.9615 C   0  0  0  0  0  0  0  0  0  0  0  0
   -6.8656   -0.3766   -1.1292 C   0  0  0  0  0  0  0  0  0  0  0  0
   -3.7140   -0.6347    0.8949 C   0  0  0  0  0  0  0  0  0  0  0  0
   -2.3754   -0.0374    0.3930 C   0  0  0  0  0  0  0  0  0  0  0  0
    0.7175    2.1626    0.4410 H   0  0  0  0  0  0  0  0  0  0  0  0
    1.1185    1.0158   -1.4432 H   0  0  0  0  0  0  0  0  0  0  0  0
    1.6835   -1.1163   -0.2603 H   0  0  0  0  0  0  0  0  0  0  0  0
    0.5420   -0.7307    1.0288 H   0  0  0  0  0  0  0  0  0  0  0  0
    1.9523    0.6806    1.9867 H   0  0  0  0  0  0  0  0  0  0  0  0
    5.0476   -1.0722   -2.5248 H   0  0  0  0  0  0  0  0  0  0  0  0
    7.4628   -1.2118   -3.0760 H   0  0  0  0  0  0  0  0  0  0  0  0
    9.1507   -0.1982   -1.5621 H   0  0  0  0  0  0  0  0  0  0  0  0
    8.4360    0.9457    0.4996 H   0  0  0  0  0  0  0  0  0  0  0  0
    7.5741    1.9426    2.3153 H   0  0  0  0  0  0  0  0  0  0  0  0
    5.7999    2.7890    4.1790 H   0  0  0  0  0  0  0  0  0  0  0  0
    3.3518    2.0276    3.3091 H   0  0  0  0  0  0  0  0  0  0  0  0
   -0.2331   -0.8104   -2.1175 H   0  0  0  0  0  0  0  0  0  0  0  0
   -1.2753    0.6148   -2.0189 H   0  0  0  0  0  0  0  0  0  0  0  0
   -2.7291   -2.6375   -0.9467 H   0  0  0  0  0  0  0  0  0  0  0  0
   -2.2136   -1.8498   -2.4189 H   0  0  0  0  0  0  0  0  0  0  0  0
   -4.6456   -1.7236   -2.1450 H   0  0  0  0  0  0  0  0  0  0  0  0
   -3.9754   -0.0800   -2.0898 H   0  0  0  0  0  0  0  0  0  0  0  0
   -6.0303   -1.2096    2.0466 H   0  0  0  0  0  0  0  0  0  0  0  0
   -8.4426   -0.9711    2.3476 H   0  0  0  0  0  0  0  0  0  0  0  0
   -9.8946   -0.3640    0.4235 H   0  0  0  0  0  0  0  0  0  0  0  0
   -8.8748    0.0128   -1.8104 H   0  0  0  0  0  0  0  0  0  0  0  0
   -6.4629   -0.1772   -2.1179 H   0  0  0  0  0  0  0  0  0  0  0  0
   -3.5350   -1.5993    1.3901 H   0  0  0  0  0  0  0  0  0  0  0  0
   -4.1263    0.0574    1.6427 H   0  0  0  0  0  0  0  0  0  0  0  0
   -1.7319    0.1322    1.2640 H   0  0  0  0  0  0  0  0  0  0  0  0
   -2.6022    0.9429   -0.0528 H   0  0  0  0  0  0  0  0  0  0  0  0
  1  2  1  0
  2  3  1  0
  3  4  1  0
  4  5  1  0
  5  6  2  0
  6  7  1  0
  7  8  2  0
  8  9  1  0
  9 10  2  0
 10 11  1  0
 11 12  2  0
 12 13  1  0
 13 14  1  0
 14 15  2  0
 15 16  1  0
 16 17  2  0
  2 18  1  0
 18 19  1  0
 19 20  1  0
 20 21  1  0
 21 22  1  0
 22 23  1  0
 23 24  2  0
 24 25  1  0
 25 26  2  0
 26 27  1  0
 27 28  2  0
 22 29  1  0
 29 30  1  0
 17  5  1  0
 30 19  1  0
 12  7  1  0
 17 13  1  0
 28 23  1  0
  1 31  1  0
  2 32  1  0
  3 33  1  0
  3 34  1  0
  4 35  1  0
  8 36  1  0
  9 37  1  0
 10 38  1  0
 11 39  1  0
 14 40  1  0
 15 41  1  0
 16 42  1  0
 18 43  1  0
 18 44  1  0
 20 45  1  0
 20 46  1  0
 21 47  1  0
 21 48  1  0
 24 49  1  0
 25 50  1  0
 26 51  1  0
 27 52  1  0
 28 53  1  0
 29 54  1  0
 29 55  1  0
 30 56  1  0
 30 57  1  0
M  END
$$$$
