
     RDKit          3D

 51 55  0  0  0  0  0  0  0  0999 V2000
    5.5564    1.4655   -1.7437 F   0  0  0  0  0  0  0  0  0  0  0  0
    5.8528    0.6855   -0.6935 C   0  0  0  0  0  0  0  0  0  0  0  0
    7.0303   -0.0562   -0.7200 C   0  0  0  0  0  0  0  0  0  0  0  0
    7.3524   -0.8764    0.3594 C   0  0  0  0  0  0  0  0  0  0  0  0
    6.4920   -0.9505    1.4552 C   0  0  0  0  0  0  0  0  0  0  0  0
    5.3118   -0.2022    1.4755 C   0  0  0  0  0  0  0  0  0  0  0  0
    4.9827    0.6318    0.3991 C   0  0  0  0  0  0  0  0  0  0  0  0
    3.7076    1.4368    0.4013 C   0  0  0  0  0  0  0  0  0  0  0  0
    2.5630    0.7772   -0.3920 C   0  0  0  0  0  0  0  0  0  0  0  0
    2.0729   -0.4870    0.1915 N   0  0  0  0  0  0  0  0  0  0  0  0
    1.2445   -1.2408   -0.7782 C   0  0  0  0  0  0  0  0  0  0  0  0
   -0.1553   -0.6463   -1.0446 C   0  0  0  0  0  0  0  0  0  0  0  0
   -0.9015   -0.4685    0.2173 N   0  0  0  0  0  0  0  0  0  0  0  0
   -2.2687   -0.2136    0.1215 C   0  0  0  0  0  0  0  0  0  0  0  0
   -2.7341    0.9382    0.5361 N   0  0  0  0  0  0  0  0  0  0  0  0
   -4.1065    1.2381    0.4230 C   0  0  0  0  0  0  0  0  0  0  0  0
   -4.5509    2.4856    0.8652 C   0  0  0  0  0  0  0  0  0  0  0  0
   -5.8996    2.8386    0.7676 C   0  0  0  0  0  0  0  0  0  0  0  0
   -6.8206    1.9425    0.2237 C   0  0  0  0  0  0  0  0  0  0  0  0
   -6.3996    0.6900   -0.2244 C   0  0  0  0  0  0  0  0  0  0  0  0
   -5.0472    0.3513   -0.1208 C   0  0  0  0  0  0  0  0  0  0  0  0
   -4.5404   -0.8908   -0.5358 N   0  0  0  0  0  0  0  0  0  0  0  0
   -5.1977   -1.9694   -1.0788 C   0  0  0  0  0  0  0  0  0  0  0  0
   -4.2828   -2.9845   -1.2597 C   0  0  0  0  0  0  0  0  0  0  0  0
   -3.0276   -2.4997   -0.8245 C   0  0  0  0  0  0  0  0  0  0  0  0
   -3.2026   -1.1903   -0.4135 C   0  0  0  0  0  0  0  0  0  0  0  0
   -0.1345    0.3115    1.2105 C   0  0  0  0  0  0  0  0  0  0  0  0
    1.2728   -0.2900    1.4227 C   0  0  0  0  0  0  0  0  0  0  0  0
    7.6856    0.0088   -1.5823 H   0  0  0  0  0  0  0  0  0  0  0  0
    8.2683   -1.4612    0.3454 H   0  0  0  0  0  0  0  0  0  0  0  0
    6.7363   -1.5972    2.2945 H   0  0  0  0  0  0  0  0  0  0  0  0
    4.6439   -0.2825    2.3301 H   0  0  0  0  0  0  0  0  0  0  0  0
    3.4034    1.6544    1.4315 H   0  0  0  0  0  0  0  0  0  0  0  0
    3.9188    2.4189   -0.0424 H   0  0  0  0  0  0  0  0  0  0  0  0
    1.7494    1.5034   -0.5020 H   0  0  0  0  0  0  0  0  0  0  0  0
    2.9357    0.5818   -1.4064 H   0  0  0  0  0  0  0  0  0  0  0  0
    1.1204   -2.2602   -0.3887 H   0  0  0  0  0  0  0  0  0  0  0  0
    1.7833   -1.3547   -1.7268 H   0  0  0  0  0  0  0  0  0  0  0  0
   -0.0684    0.3203   -1.5560 H   0  0  0  0  0  0  0  0  0  0  0  0
   -0.6862   -1.3180   -1.7260 H   0  0  0  0  0  0  0  0  0  0  0  0
   -3.8360    3.1864    1.2879 H   0  0  0  0  0  0  0  0  0  0  0  0
   -6.2292    3.8139    1.1167 H   0  0  0  0  0  0  0  0  0  0  0  0
   -7.8691    2.2216    0.1506 H   0  0  0  0  0  0  0  0  0  0  0  0
   -7.1341    0.0090   -0.6410 H   0  0  0  0  0  0  0  0  0  0  0  0
   -6.2588   -1.9481   -1.2800 H   0  0  0  0  0  0  0  0  0  0  0  0
   -4.5003   -3.9697   -1.6518 H   0  0  0  0  0  0  0  0  0  0  0  0
   -2.0941   -3.0466   -0.8085 H   0  0  0  0  0  0  0  0  0  0  0  0
   -0.0573    1.3577    0.8912 H   0  0  0  0  0  0  0  0  0  0  0  0
   -0.6588    0.2962    2.1739 H   0  0  0  0  0  0  0  0  0  0  0  0
    1.8214    0.3139    2.1530 H   0  0  0  0  0  0  0  0  0  0  0  0
    1.1561   -1.2743    1.8965 H   0  0  0  0  0  0  0  0  0  0  0  0
  1  2  1  0
  2  3  2  0
  3  4  1  0
  4  5  2  0
  5  6  1  0
  6  7  2  0
  7  8  1  0
  8  9  1  0
  9 10  1  0
 10 11  1  0
 11 12  1  0
 12 13  1  0
 13 14  1  0
 14 15  2  0
 15 16  1  0
 16 17  2  0
 17 18  1  0
 18 19  2  0
 19 20  1  0
 20 21  2  0
 21 22  1  0
 22 23  1  0
 23 24  2  0
 24 25  1  0
 25 26  2  0
 13 27  1  0
 27 28  1  0
  7  2  1  0
 28 10  1  0
 26 14  1  0
 21 16  1  0
 26 22  1  0
  3 29  1  0
  4 30  1  0
  5 31  1  0
  6 32  1  0
  8 33  1  0
  8 34  1  0
  9 35  1  0
  9 36  1  0
 11 37  1  0
 11 38  1  0
 12 39  1  0
 12 40  1  0
 17 41  1  0
 18 42  1  0
 19 43  1  0
 20 44  1  0
 23 45  1  0
 24 46  1  0
 25 47  1  0
 27 48  1  0
 27 49  1  0
 28 50  1  0
 28 51  1  0
M  END
$$$$
