
     RDKit          3D

 46 49  0  0  0  0  0  0  0  0999 V2000
    1.8569    1.7507   -0.3082 O   0  0  0  0  0  0  0  0  0  0  0  0
    1.7919    1.3397   -1.4603 C   0  0  0  0  0  0  0  0  0  0  0  0
    0.4979    0.9233   -2.1448 C   0  0  0  0  0  0  0  0  0  0  0  0
   -0.5607    0.6125   -1.1649 N   0  0  0  0  0  4  0  0  0  0  0  0
   -1.8285    1.1838   -1.0862 C   0  0  0  0  0  0  0  0  0  0  0  0
   -2.5001    0.6438    0.0059 C   0  0  0  0  0  0  0  0  0  0  0  0
   -3.9487    1.0193    0.4913 C   0  0  0  0  0  0  0  0  0  0  0  0
   -4.7166    1.9358   -0.2364 C   0  0  0  0  0  0  0  0  0  0  0  0
   -6.0060    2.2717    0.1926 C   0  0  0  0  0  0  0  0  0  0  0  0
   -6.5378    1.6996    1.3503 C   0  0  0  0  0  0  0  0  0  0  0  0
   -8.1329    2.1586    1.8185 Cl  0  0  0  0  0  0  0  0  0  0  0  0
   -5.7706    0.7891    2.0809 C   0  0  0  0  0  0  0  0  0  0  0  0
   -6.3475    0.0394    3.5264 Cl  0  0  0  0  0  0  0  0  0  0  0  0
   -4.4789    0.4521    1.6516 C   0  0  0  0  0  0  0  0  0  0  0  0
   -1.5911   -0.2627    0.5222 N   0  0  0  0  0  0  0  0  0  0  0  0
   -0.4422   -0.2391   -0.1491 C   0  0  0  0  0  0  0  0  0  0  0  0
    0.5754   -1.1687    0.3984 C   0  0  0  0  0  0  0  0  0  0  0  0
   -0.2712   -2.0501    1.3362 C   0  0  0  0  0  0  0  0  0  0  0  0
   -1.5467   -1.2126    1.6276 C   0  0  0  0  0  0  0  0  0  0  0  0
    2.8460    1.1329   -2.2935 O   0  0  0  0  0  0  0  0  0  0  0  0
    4.1395    1.2218   -1.6739 C   0  0  0  0  0  0  0  0  0  0  0  0
    4.4299   -0.0773   -0.9647 C   0  0  0  0  0  0  0  0  0  0  0  0
    4.5027   -0.1258    0.4343 C   0  0  0  0  0  0  0  0  0  0  0  0
    4.7417   -1.3353    1.0885 C   0  0  0  0  0  0  0  0  0  0  0  0
    4.9072   -2.5065    0.3519 C   0  0  0  0  0  0  0  0  0  0  0  0
    4.8360   -2.4704   -1.0394 C   0  0  0  0  0  0  0  0  0  0  0  0
    4.5979   -1.2622   -1.6960 C   0  0  0  0  0  0  0  0  0  0  0  0
    0.6648    0.0128   -2.7298 H   0  0  0  0  0  0  0  0  0  0  0  0
    0.1654    1.7330   -2.8004 H   0  0  0  0  0  0  0  0  0  0  0  0
   -2.0923    1.9257   -1.8207 H   0  0  0  0  0  0  0  0  0  0  0  0
   -4.3491    2.4067   -1.1444 H   0  0  0  0  0  0  0  0  0  0  0  0
   -6.5957    2.9841   -0.3828 H   0  0  0  0  0  0  0  0  0  0  0  0
   -3.9095   -0.2455    2.2524 H   0  0  0  0  0  0  0  0  0  0  0  0
    1.0369   -1.7191   -0.4221 H   0  0  0  0  0  0  0  0  0  0  0  0
    1.2972   -0.5619    0.9474 H   0  0  0  0  0  0  0  0  0  0  0  0
   -0.5604   -2.9642    0.8041 H   0  0  0  0  0  0  0  0  0  0  0  0
    0.2617   -2.3432    2.2447 H   0  0  0  0  0  0  0  0  0  0  0  0
   -1.4498   -0.6574    2.5651 H   0  0  0  0  0  0  0  0  0  0  0  0
   -2.4365   -1.8458    1.6366 H   0  0  0  0  0  0  0  0  0  0  0  0
    4.8797    1.3801   -2.4662 H   0  0  0  0  0  0  0  0  0  0  0  0
    4.2015    2.0901   -1.0067 H   0  0  0  0  0  0  0  0  0  0  0  0
    4.3779    0.7802    1.0253 H   0  0  0  0  0  0  0  0  0  0  0  0
    4.8146   -1.3618    2.1734 H   0  0  0  0  0  0  0  0  0  0  0  0
    5.1107   -3.4456    0.8615 H   0  0  0  0  0  0  0  0  0  0  0  0
    4.9831   -3.3827   -1.6133 H   0  0  0  0  0  0  0  0  0  0  0  0
    4.5567   -1.2488   -2.7836 H   0  0  0  0  0  0  0  0  0  0  0  0
  1  2  2  0
  2  3  1  0
  3  4  1  0
  4  5  1  0
  5  6  2  0
  6  7  1  0
  7  8  2  0
  8  9  1  0
  9 10  2  0
 10 11  1  0
 10 12  1  0
 12 13  1  0
 12 14  2  0
  6 15  1  0
 15 16  1  0
 16 17  1  0
 17 18  1  0
 18 19  1  0
  2 20  1  0
 20 21  1  0
 21 22  1  0
 22 23  2  0
 23 24  1  0
 24 25  2  0
 25 26  1  0
 26 27  2  0
 16  4  2  0
 27 22  1  0
 14  7  1  0
 19 15  1  0
  3 28  1  0
  3 29  1  0
  5 30  1  0
  8 31  1  0
  9 32  1  0
 14 33  1  0
 17 34  1  0
 17 35  1  0
 18 36  1  0
 18 37  1  0
 19 38  1  0
 19 39  1  0
 21 40  1  0
 21 41  1  0
 23 42  1  0
 24 43  1  0
 25 44  1  0
 26 45  1  0
 27 46  1  0
M  CHG  1   4   1
M  END
$$$$
