
     RDKit          3D

 35 36  0  0  0  0  0  0  0  0999 V2000
    6.2423   -0.6515   -0.4888 C   0  0  0  0  0  0  0  0  0  0  0  0
    5.1210   -0.2377    0.4164 C   0  0  0  0  0  0  0  0  0  0  0  0
    5.3942    0.2127    1.7019 C   0  0  0  0  0  0  0  0  0  0  0  0
    4.3304    0.5877    2.5125 C   0  0  0  0  0  0  0  0  0  0  0  0
    3.0302    0.5034    2.0206 C   0  0  0  0  0  0  0  0  0  0  0  0
    2.8378    0.0442    0.7274 C   0  0  0  0  0  0  0  0  0  0  0  0
    1.5935   -0.0892    0.1126 N   0  0  0  0  0  0  0  0  0  0  0  0
    0.3446    0.1921    0.6301 C   0  0  0  0  0  0  0  0  0  0  0  0
    0.1201    0.6213    1.7574 O   0  0  0  0  0  0  0  0  0  0  0  0
   -0.7665   -0.0985   -0.3873 C   0  0  0  0  0  0  0  0  0  0  0  0
   -2.0474    0.1917    0.1478 O   0  0  0  0  0  0  0  0  0  0  0  0
   -3.1375   -0.0215   -0.6537 C   0  0  0  0  0  0  0  0  0  0  0  0
   -3.0871   -0.5052   -1.9651 C   0  0  0  0  0  0  0  0  0  0  0  0
   -4.2635   -0.6866   -2.6973 C   0  0  0  0  0  0  0  0  0  0  0  0
   -5.4965   -0.3868   -2.1261 C   0  0  0  0  0  0  0  0  0  0  0  0
   -5.5571    0.0957   -0.8202 C   0  0  0  0  0  0  0  0  0  0  0  0
   -4.3834    0.2822   -0.0745 C   0  0  0  0  0  0  0  0  0  0  0  0
   -4.4684    0.8040    1.3340 C   0  0  0  0  0  0  0  0  0  0  0  0
    3.8609   -0.3248   -0.0749 N   0  0  0  0  0  0  0  0  0  0  0  0
    5.8581   -0.9788   -1.4603 H   0  0  0  0  0  0  0  0  0  0  0  0
    6.9225    0.1892   -0.6571 H   0  0  0  0  0  0  0  0  0  0  0  0
    6.7994   -1.4825   -0.0452 H   0  0  0  0  0  0  0  0  0  0  0  0
    6.4133    0.2723    2.0695 H   0  0  0  0  0  0  0  0  0  0  0  0
    4.5072    0.9447    3.5233 H   0  0  0  0  0  0  0  0  0  0  0  0
    2.2072    0.7981    2.6602 H   0  0  0  0  0  0  0  0  0  0  0  0
    1.6818   -0.4410   -0.8308 H   0  0  0  0  0  0  0  0  0  0  0  0
   -0.7000   -1.1620   -0.6476 H   0  0  0  0  0  0  0  0  0  0  0  0
   -0.5755    0.5290   -1.2665 H   0  0  0  0  0  0  0  0  0  0  0  0
   -2.1501   -0.7522   -2.4514 H   0  0  0  0  0  0  0  0  0  0  0  0
   -4.2162   -1.0630   -3.7160 H   0  0  0  0  0  0  0  0  0  0  0  0
   -6.4109   -0.5281   -2.6961 H   0  0  0  0  0  0  0  0  0  0  0  0
   -6.5267    0.3264   -0.3848 H   0  0  0  0  0  0  0  0  0  0  0  0
   -3.9243    1.7501    1.4214 H   0  0  0  0  0  0  0  0  0  0  0  0
   -5.5058    0.9894    1.6318 H   0  0  0  0  0  0  0  0  0  0  0  0
   -4.0476    0.0753    2.0344 H   0  0  0  0  0  0  0  0  0  0  0  0
  1  2  1  0
  2  3  2  0
  3  4  1  0
  4  5  2  0
  5  6  1  0
  6  7  1  0
  7  8  1  0
  8  9  2  0
  8 10  1  0
 10 11  1  0
 11 12  1  0
 12 13  2  0
 13 14  1  0
 14 15  2  0
 15 16  1  0
 16 17  2  0
 17 18  1  0
  6 19  2  0
 19  2  1  0
 17 12  1  0
  1 20  1  0
  1 21  1  0
  1 22  1  0
  3 23  1  0
  4 24  1  0
  5 25  1  0
  7 26  1  0
 10 27  1  0
 10 28  1  0
 13 29  1  0
 14 30  1  0
 15 31  1  0
 16 32  1  0
 18 33  1  0
 18 34  1  0
 18 35  1  0
M  END
$$$$
