
     RDKit          3D

 39 41  0  0  0  0  0  0  0  0999 V2000
   -4.1069   -1.1327   -1.2432 C   0  0  0  0  0  0  0  0  0  0  0  0
   -4.0156    0.3041   -0.7471 C   0  0  0  0  0  0  0  0  0  0  0  0
   -2.7532    0.5606   -0.0587 N   0  0  0  0  0  0  0  0  0  0  0  0
   -2.7049    0.2896    1.3005 C   0  0  0  0  0  0  0  0  0  0  0  0
   -3.6534   -0.1522    1.9458 O   0  0  0  0  0  0  0  0  0  0  0  0
   -1.4297    0.5492    1.9830 C   0  0  0  0  0  0  0  0  0  0  0  0
   -1.3420    0.3446    3.3699 C   0  0  0  0  0  0  0  0  0  0  0  0
   -0.1463    0.5869    4.0375 C   0  0  0  0  0  0  0  0  0  0  0  0
    0.9568    1.0326    3.3197 C   0  0  0  0  0  0  0  0  0  0  0  0
    0.8643    1.2338    1.9371 C   0  0  0  0  0  0  0  0  0  0  0  0
   -0.3333    0.9924    1.2445 C   0  0  0  0  0  0  0  0  0  0  0  0
   -0.4633    1.1755   -0.1618 N   0  0  0  0  0  0  0  0  0  0  0  0
    0.6842    1.5940   -0.9748 C   0  0  0  0  0  0  0  0  0  0  0  0
    1.6755    0.4795   -1.2598 C   0  0  0  0  0  0  0  0  0  0  0  0
    3.0489    0.6870   -1.0495 C   0  0  0  0  0  0  0  0  0  0  0  0
    3.9747   -0.3235   -1.3242 C   0  0  0  0  0  0  0  0  0  0  0  0
    3.5281   -1.5511   -1.8277 C   0  0  0  0  0  0  0  0  0  0  0  0
    4.4972   -2.6152   -2.1168 N   0  0  0  0  0  4  0  0  0  0  0  0
    5.6931   -2.3827   -1.8878 O   0  0  0  0  0  0  0  0  0  0  0  0
    4.0639   -3.6838   -2.5707 O   0  0  0  0  0  1  0  0  0  0  0  0
    2.1664   -1.7684   -2.0638 C   0  0  0  0  0  0  0  0  0  0  0  0
    1.2488   -0.7517   -1.7854 C   0  0  0  0  0  0  0  0  0  0  0  0
   -1.6638    0.9446   -0.8292 C   0  0  0  0  0  0  0  0  0  0  0  0
   -1.7540    1.0623   -2.0542 O   0  0  0  0  0  0  0  0  0  0  0  0
   -3.2988   -1.3607   -1.9458 H   0  0  0  0  0  0  0  0  0  0  0  0
   -4.0361   -1.8424   -0.4125 H   0  0  0  0  0  0  0  0  0  0  0  0
   -5.0606   -1.2980   -1.7538 H   0  0  0  0  0  0  0  0  0  0  0  0
   -4.1195    0.9907   -1.5949 H   0  0  0  0  0  0  0  0  0  0  0  0
   -4.8520    0.5082   -0.0687 H   0  0  0  0  0  0  0  0  0  0  0  0
   -2.2079   -0.0042    3.9301 H   0  0  0  0  0  0  0  0  0  0  0  0
   -0.0771    0.4281    5.1108 H   0  0  0  0  0  0  0  0  0  0  0  0
    1.8963    1.2238    3.8339 H   0  0  0  0  0  0  0  0  0  0  0  0
    1.7603    1.5816    1.4353 H   0  0  0  0  0  0  0  0  0  0  0  0
    1.1690    2.4455   -0.4821 H   0  0  0  0  0  0  0  0  0  0  0  0
    0.3501    1.9881   -1.9425 H   0  0  0  0  0  0  0  0  0  0  0  0
    3.4112    1.6408   -0.6694 H   0  0  0  0  0  0  0  0  0  0  0  0
    5.0320   -0.1372   -1.1459 H   0  0  0  0  0  0  0  0  0  0  0  0
    1.8038   -2.7124   -2.4659 H   0  0  0  0  0  0  0  0  0  0  0  0
    0.1938   -0.9275   -1.9910 H   0  0  0  0  0  0  0  0  0  0  0  0
  1  2  1  0
  2  3  1  0
  3  4  1  0
  4  5  2  0
  4  6  1  0
  6  7  2  0
  7  8  1  0
  8  9  2  0
  9 10  1  0
 10 11  2  0
 11 12  1  0
 12 13  1  0
 13 14  1  0
 14 15  2  0
 15 16  1  0
 16 17  2  0
 17 18  1  0
 18 19  2  0
 18 20  1  0
 17 21  1  0
 21 22  2  0
 12 23  1  0
 23 24  2  0
 23  3  1  0
 11  6  1  0
 22 14  1  0
  1 25  1  0
  1 26  1  0
  1 27  1  0
  2 28  1  0
  2 29  1  0
  7 30  1  0
  8 31  1  0
  9 32  1  0
 10 33  1  0
 13 34  1  0
 13 35  1  0
 15 36  1  0
 16 37  1  0
 21 38  1  0
 22 39  1  0
M  CHG  2  18   1  20  -1
M  END
$$$$
