
     RDKit          3D

 58 62  0  0  0  0  0  0  0  0999 V2000
    6.0883    3.0076   -0.8760 C   0  0  0  0  0  0  0  0  0  0  0  0
    6.1392    1.5040   -0.8301 C   0  0  0  0  0  0  0  0  0  0  0  0
    7.1355    0.8965   -1.7795 C   0  0  0  0  0  0  0  0  0  0  0  0
    5.3564    0.7715   -0.0185 C   0  0  0  0  0  0  0  0  0  0  0  0
    5.2303   -0.7486    0.1724 C   0  0  0  0  0  0  0  0  0  0  0  0
    5.5778   -0.7616    1.6826 C   0  0  0  0  0  0  0  0  0  0  0  0
    4.9249    0.5559    2.2307 C   0  0  0  0  0  0  0  0  0  0  0  0
    4.2624    1.1883    0.9824 C   0  0  0  0  0  0  0  0  0  0  0  0
    3.1616    0.2814    0.5347 C   0  0  0  0  0  0  0  0  0  0  0  0
    3.7462   -0.8974    0.0369 C   0  0  0  0  0  0  0  0  0  0  0  0
    2.7565   -1.7386   -0.3838 C   0  0  0  0  0  0  0  0  0  0  0  0
    2.8468   -2.9562   -0.9101 O   0  0  0  0  0  0  0  0  0  0  0  0
    1.5227   -1.0757   -0.1615 N   0  0  0  0  0  0  0  0  0  0  0  0
    0.2088   -1.4968   -0.4515 C   0  0  0  0  0  0  0  0  0  0  0  0
   -0.8346   -0.7480   -0.1472 N   0  0  0  0  0  0  0  0  0  0  0  0
   -1.9903   -1.3750   -0.5862 C   0  0  0  0  0  0  0  0  0  0  0  0
   -3.2832   -0.7447   -0.3795 C   0  0  0  0  0  0  0  0  0  0  0  0
   -3.6538   -0.3421    0.9068 C   0  0  0  0  0  0  0  0  0  0  0  0
   -4.8910    0.2694    1.1283 C   0  0  0  0  0  0  0  0  0  0  0  0
   -5.7744    0.5052    0.0648 C   0  0  0  0  0  0  0  0  0  0  0  0
   -7.1249    1.1651    0.2795 C   0  0  0  0  0  0  0  0  0  0  0  0
   -8.0528    0.2701    1.1058 C   0  0  0  0  0  0  0  0  0  0  0  0
   -6.9918    2.5499    0.9195 C   0  0  0  0  0  0  0  0  0  0  0  0
   -5.3889    0.1129   -1.2255 C   0  0  0  0  0  0  0  0  0  0  0  0
   -4.1541   -0.5046   -1.4469 C   0  0  0  0  0  0  0  0  0  0  0  0
   -1.8031   -2.6101   -1.1879 C   0  0  0  0  0  0  0  0  0  0  0  0
   -2.7897   -3.5746   -1.7484 C   0  0  0  0  0  0  0  0  0  0  0  0
   -0.1226   -2.9716   -1.2225 S   0  0  0  0  0  0  0  0  0  0  0  0
    1.8078    0.1829    0.4341 C   0  0  0  0  0  0  0  0  0  0  0  0
    0.8723    1.0646    0.7921 O   0  0  0  0  0  0  0  0  0  0  0  0
    5.4048    3.4398   -0.1390 H   0  0  0  0  0  0  0  0  0  0  0  0
    7.0827    3.4233   -0.6781 H   0  0  0  0  0  0  0  0  0  0  0  0
    5.7642    3.3433   -1.8673 H   0  0  0  0  0  0  0  0  0  0  0  0
    6.8857    1.1693   -2.8102 H   0  0  0  0  0  0  0  0  0  0  0  0
    8.1432    1.2657   -1.5588 H   0  0  0  0  0  0  0  0  0  0  0  0
    7.1701   -0.1937   -1.7271 H   0  0  0  0  0  0  0  0  0  0  0  0
    5.8316   -1.3993   -0.4590 H   0  0  0  0  0  0  0  0  0  0  0  0
    6.6627   -0.7349    1.8428 H   0  0  0  0  0  0  0  0  0  0  0  0
    5.1742   -1.6418    2.1965 H   0  0  0  0  0  0  0  0  0  0  0  0
    4.1988    0.3359    3.0223 H   0  0  0  0  0  0  0  0  0  0  0  0
    5.7001    1.2114    2.6460 H   0  0  0  0  0  0  0  0  0  0  0  0
    4.0068    2.2429    1.0599 H   0  0  0  0  0  0  0  0  0  0  0  0
    3.7930   -3.1769   -0.9713 H   0  0  0  0  0  0  0  0  0  0  0  0
   -2.9815   -0.5074    1.7466 H   0  0  0  0  0  0  0  0  0  0  0  0
   -5.1557    0.5601    2.1423 H   0  0  0  0  0  0  0  0  0  0  0  0
   -7.6008    1.3105   -0.7006 H   0  0  0  0  0  0  0  0  0  0  0  0
   -7.6718    0.1123    2.1208 H   0  0  0  0  0  0  0  0  0  0  0  0
   -8.1693   -0.7134    0.6361 H   0  0  0  0  0  0  0  0  0  0  0  0
   -9.0471    0.7204    1.1911 H   0  0  0  0  0  0  0  0  0  0  0  0
   -6.5958    2.4951    1.9397 H   0  0  0  0  0  0  0  0  0  0  0  0
   -6.3221    3.1917    0.3346 H   0  0  0  0  0  0  0  0  0  0  0  0
   -7.9694    3.0425    0.9711 H   0  0  0  0  0  0  0  0  0  0  0  0
   -6.0473    0.2901   -2.0736 H   0  0  0  0  0  0  0  0  0  0  0  0
   -3.8754   -0.7789   -2.4610 H   0  0  0  0  0  0  0  0  0  0  0  0
   -3.1396   -3.2313   -2.7283 H   0  0  0  0  0  0  0  0  0  0  0  0
   -2.3620   -4.5747   -1.8771 H   0  0  0  0  0  0  0  0  0  0  0  0
   -3.6567   -3.6721   -1.0854 H   0  0  0  0  0  0  0  0  0  0  0  0
   -0.0055    0.6905    0.5516 H   0  0  0  0  0  0  0  0  0  0  0  0
  1  2  1  0
  2  3  1  0
  2  4  2  3
  4  5  1  0
  5  6  1  0
  6  7  1  0
  7  8  1  0
  8  9  1  0
  9 10  1  0
 10 11  2  0
 11 12  1  0
 11 13  1  0
 13 14  1  0
 14 15  2  0
 15 16  1  0
 16 17  1  0
 17 18  2  0
 18 19  1  0
 19 20  2  0
 20 21  1  0
 21 22  1  0
 21 23  1  0
 20 24  1  0
 24 25  2  0
 16 26  2  0
 26 27  1  0
 26 28  1  0
 13 29  1  0
 29 30  1  0
  8  4  1  0
 29  9  2  0
 10  5  1  0
 28 14  1  0
 25 17  1  0
  1 31  1  0
  1 32  1  0
  1 33  1  0
  3 34  1  0
  3 35  1  0
  3 36  1  0
  5 37  1  0
  6 38  1  0
  6 39  1  0
  7 40  1  0
  7 41  1  0
  8 42  1  0
 12 43  1  0
 18 44  1  0
 19 45  1  0
 21 46  1  0
 22 47  1  0
 22 48  1  0
 22 49  1  0
 23 50  1  0
 23 51  1  0
 23 52  1  0
 24 53  1  0
 25 54  1  0
 27 55  1  0
 27 56  1  0
 27 57  1  0
 30 58  1  0
M  END
$$$$
