
     RDKit          3D

 44 47  0  0  0  0  0  0  0  0999 V2000
   -4.2417    2.6820   -0.0360 C   0  0  0  0  0  0  0  0  0  0  0  0
   -3.8473    1.4361    0.7600 C   0  0  0  0  0  0  0  0  0  0  0  0
   -2.3395    1.3179    0.9191 C   0  0  0  0  0  0  0  0  0  0  0  0
   -1.6341    0.9641   -0.3715 C   0  0  0  0  0  0  0  0  0  0  0  0
   -1.0633    1.8480   -1.0213 O   0  0  0  0  0  0  0  0  0  0  0  0
   -1.5497   -0.3694   -0.7417 N   0  0  0  0  0  0  0  0  0  0  0  0
   -0.7442   -0.7039   -1.9240 C   0  0  0  0  0  0  0  0  0  0  0  0
    0.7628   -0.7786   -1.6386 C   0  0  0  0  0  0  0  0  0  0  0  0
    1.3795   -1.8200   -1.8292 O   0  0  0  0  0  0  0  0  0  0  0  0
    1.3027    0.4183   -1.2019 N   0  0  0  0  0  0  0  0  0  0  0  0
    2.6109    0.6533   -0.7351 C   0  0  0  0  0  0  0  0  0  0  0  0
    2.8849    1.9539   -0.2593 C   0  0  0  0  0  0  0  0  0  0  0  0
    4.1364    2.2789    0.2800 C   0  0  0  0  0  0  0  0  0  0  0  0
    5.0881    1.2882    0.3352 C   0  0  0  0  0  0  0  0  0  0  0  0
    4.8378    0.0255   -0.1503 C   0  0  0  0  0  0  0  0  0  0  0  0
    3.6163   -0.3249   -0.6914 C   0  0  0  0  0  0  0  0  0  0  0  0
    5.9044   -0.8005   -0.0130 O   0  0  0  0  0  0  0  0  0  0  0  0
    6.8538    0.0849    0.6214 C   0  0  0  0  0  0  0  0  0  0  0  0
    6.3435    1.4163    0.8374 O   0  0  0  0  0  0  0  0  0  0  0  0
   -2.2049   -1.4308   -0.0449 C   0  0  0  0  0  0  0  0  0  0  0  0
   -1.4987   -2.6177    0.1988 C   0  0  0  0  0  0  0  0  0  0  0  0
   -2.0818   -3.6698    0.9066 C   0  0  0  0  0  0  0  0  0  0  0  0
   -3.3913   -3.5665    1.3599 C   0  0  0  0  0  0  0  0  0  0  0  0
   -4.1214   -2.4138    1.0959 C   0  0  0  0  0  0  0  0  0  0  0  0
   -3.5407   -1.3365    0.4041 C   0  0  0  0  0  0  0  0  0  0  0  0
   -4.6492   -0.0036   -0.0371 S   0  0  0  0  0  0  0  0  0  0  0  0
   -3.8405    3.5864    0.4342 H   0  0  0  0  0  0  0  0  0  0  0  0
   -5.3288    2.7992   -0.0830 H   0  0  0  0  0  0  0  0  0  0  0  0
   -3.8600    2.6470   -1.0613 H   0  0  0  0  0  0  0  0  0  0  0  0
   -4.2855    1.5311    1.7616 H   0  0  0  0  0  0  0  0  0  0  0  0
   -2.0707    0.5929    1.6980 H   0  0  0  0  0  0  0  0  0  0  0  0
   -1.9269    2.2714    1.2693 H   0  0  0  0  0  0  0  0  0  0  0  0
   -0.9061    0.0588   -2.6965 H   0  0  0  0  0  0  0  0  0  0  0  0
   -1.0778   -1.6504   -2.3523 H   0  0  0  0  0  0  0  0  0  0  0  0
    0.6566    1.2111   -1.1668 H   0  0  0  0  0  0  0  0  0  0  0  0
    2.1159    2.7292   -0.3012 H   0  0  0  0  0  0  0  0  0  0  0  0
    4.3429    3.2716    0.6490 H   0  0  0  0  0  0  0  0  0  0  0  0
    3.4745   -1.3324   -1.0581 H   0  0  0  0  0  0  0  0  0  0  0  0
    7.1362   -0.3360    1.5908 H   0  0  0  0  0  0  0  0  0  0  0  0
    7.7423    0.1535   -0.0076 H   0  0  0  0  0  0  0  0  0  0  0  0
   -0.4614   -2.7326   -0.1242 H   0  0  0  0  0  0  0  0  0  0  0  0
   -1.5094   -4.5709    1.1007 H   0  0  0  0  0  0  0  0  0  0  0  0
   -3.8550   -4.3943    1.8989 H   0  0  0  0  0  0  0  0  0  0  0  0
   -5.1598   -2.3672    1.4201 H   0  0  0  0  0  0  0  0  0  0  0  0
  1  2  1  0
  2  3  1  0
  3  4  1  0
  4  5  2  0
  4  6  1  0
  6  7  1  0
  7  8  1  0
  8  9  2  0
  8 10  1  0
 10 11  1  0
 11 12  2  0
 12 13  1  0
 13 14  2  0
 14 15  1  0
 15 16  2  0
 15 17  1  0
 17 18  1  0
 18 19  1  0
  6 20  1  0
 20 21  2  0
 21 22  1  0
 22 23  2  0
 23 24  1  0
 24 25  2  0
 25 26  1  0
 26  2  1  0
 16 11  1  0
 25 20  1  0
 19 14  1  0
  1 27  1  0
  1 28  1  0
  1 29  1  0
  2 30  1  0
  3 31  1  0
  3 32  1  0
  7 33  1  0
  7 34  1  0
 10 35  1  0
 12 36  1  0
 13 37  1  0
 16 38  1  0
 18 39  1  0
 18 40  1  0
 21 41  1  0
 22 42  1  0
 23 43  1  0
 24 44  1  0
M  END
$$$$
