
     RDKit          3D

 58 62  0  0  0  0  0  0  0  0999 V2000
    7.3724    0.5051    4.2602 C   0  0  0  0  0  0  0  0  0  0  0  0
    5.9800    0.4762    4.5391 O   0  0  0  0  0  0  0  0  0  0  0  0
    5.1153    0.6290    3.4840 C   0  0  0  0  0  0  0  0  0  0  0  0
    5.5126    0.7967    2.1547 C   0  0  0  0  0  0  0  0  0  0  0  0
    4.5568    0.9429    1.1435 C   0  0  0  0  0  0  0  0  0  0  0  0
    3.1891    0.9262    1.4413 C   0  0  0  0  0  0  0  0  0  0  0  0
    2.1702    1.0764    0.4059 C   0  0  0  0  0  0  0  0  0  0  0  0
    0.8574    1.1206    0.5285 N   0  0  0  0  0  0  0  0  0  0  0  0
    0.3904    1.2490   -0.7655 C   0  0  0  0  0  0  0  0  0  0  0  0
   -1.0729    1.3325   -1.0199 C   0  0  0  0  0  0  0  0  0  0  0  0
   -1.4987    0.4822   -2.1195 N   0  0  0  0  0  0  0  0  0  0  0  0
   -1.6570   -0.8815   -2.1026 C   0  0  0  0  0  0  0  0  0  0  0  0
   -1.3117   -1.8626   -0.7189 S   0  0  0  0  0  0  0  0  0  0  0  0
   -2.5719   -3.1595   -0.8902 C   0  0  0  0  0  0  0  0  0  0  0  0
   -3.9430   -2.6859   -0.4716 C   0  0  0  0  0  0  0  0  0  0  0  0
   -4.3009   -2.6362    0.8862 C   0  0  0  0  0  0  0  0  0  0  0  0
   -5.5640   -2.1807    1.2747 C   0  0  0  0  0  0  0  0  0  0  0  0
   -6.4802   -1.7659    0.3103 C   0  0  0  0  0  0  0  0  0  0  0  0
   -6.1261   -1.8078   -1.0330 C   0  0  0  0  0  0  0  0  0  0  0  0
   -7.0049   -1.4002   -1.9575 F   0  0  0  0  0  0  0  0  0  0  0  0
   -4.8734   -2.2621   -1.4316 C   0  0  0  0  0  0  0  0  0  0  0  0
   -2.0833   -1.3420   -3.2555 N   0  0  0  0  0  0  0  0  0  0  0  0
   -2.2365   -0.2370   -4.0522 C   0  0  0  0  0  0  0  0  0  0  0  0
   -2.6737   -0.1549   -5.3734 C   0  0  0  0  0  0  0  0  0  0  0  0
   -2.7252    1.1198   -5.9108 C   0  0  0  0  0  0  0  0  0  0  0  0
   -2.3880    2.2517   -5.2498 N   0  0  0  0  0  0  0  0  0  0  0  0
   -1.9705    2.1717   -3.9658 C   0  0  0  0  0  0  0  0  0  0  0  0
   -1.8888    0.9226   -3.3675 C   0  0  0  0  0  0  0  0  0  0  0  0
    1.4673    1.3072   -1.6288 C   0  0  0  0  0  0  0  0  0  0  0  0
    1.6406    1.4485   -3.0855 C   0  0  0  0  0  0  0  0  0  0  0  0
    2.6084    1.1939   -0.8854 O   0  0  0  0  0  0  0  0  0  0  0  0
    2.7948    0.7583    2.7782 C   0  0  0  0  0  0  0  0  0  0  0  0
    3.7423    0.6088    3.7993 C   0  0  0  0  0  0  0  0  0  0  0  0
    3.4311    0.4390    5.1262 O   0  0  0  0  0  0  0  0  0  0  0  0
    2.0560    0.4058    5.4829 C   0  0  0  0  0  0  0  0  0  0  0  0
    7.6604   -0.3167    3.5958 H   0  0  0  0  0  0  0  0  0  0  0  0
    7.6722    1.4739    3.8463 H   0  0  0  0  0  0  0  0  0  0  0  0
    7.9058    0.3688    5.2061 H   0  0  0  0  0  0  0  0  0  0  0  0
    6.5588    0.8174    1.8684 H   0  0  0  0  0  0  0  0  0  0  0  0
    4.8966    1.0701    0.1177 H   0  0  0  0  0  0  0  0  0  0  0  0
   -1.6490    1.0405   -0.1348 H   0  0  0  0  0  0  0  0  0  0  0  0
   -1.3493    2.3665   -1.2483 H   0  0  0  0  0  0  0  0  0  0  0  0
   -2.2779   -3.9995   -0.2496 H   0  0  0  0  0  0  0  0  0  0  0  0
   -2.5880   -3.5564   -1.9114 H   0  0  0  0  0  0  0  0  0  0  0  0
   -3.5921   -2.9492    1.6513 H   0  0  0  0  0  0  0  0  0  0  0  0
   -5.8303   -2.1476    2.3282 H   0  0  0  0  0  0  0  0  0  0  0  0
   -7.4640   -1.4080    0.5954 H   0  0  0  0  0  0  0  0  0  0  0  0
   -4.6285   -2.2734   -2.4905 H   0  0  0  0  0  0  0  0  0  0  0  0
   -2.9548   -1.0330   -5.9378 H   0  0  0  0  0  0  0  0  0  0  0  0
   -3.0557    1.2716   -6.9351 H   0  0  0  0  0  0  0  0  0  0  0  0
   -1.7132    3.1031   -3.4778 H   0  0  0  0  0  0  0  0  0  0  0  0
    1.2722    0.5587   -3.6045 H   0  0  0  0  0  0  0  0  0  0  0  0
    1.0944    2.3214   -3.4548 H   0  0  0  0  0  0  0  0  0  0  0  0
    2.6955    1.5790   -3.3484 H   0  0  0  0  0  0  0  0  0  0  0  0
    1.7306    0.7458    2.9963 H   0  0  0  0  0  0  0  0  0  0  0  0
    1.5653    1.3577    5.2520 H   0  0  0  0  0  0  0  0  0  0  0  0
    1.5424   -0.4339    5.0021 H   0  0  0  0  0  0  0  0  0  0  0  0
    1.9946    0.2554    6.5654 H   0  0  0  0  0  0  0  0  0  0  0  0
  1  2  1  0
  2  3  1  0
  3  4  2  0
  4  5  1  0
  5  6  2  0
  6  7  1  0
  7  8  2  0
  8  9  1  0
  9 10  1  0
 10 11  1  0
 11 12  1  0
 12 13  1  0
 13 14  1  0
 14 15  1  0
 15 16  2  0
 16 17  1  0
 17 18  2  0
 18 19  1  0
 19 20  1  0
 19 21  2  0
 12 22  2  0
 22 23  1  0
 23 24  2  0
 24 25  1  0
 25 26  2  0
 26 27  1  0
 27 28  2  0
  9 29  2  0
 29 30  1  0
 29 31  1  0
  6 32  1  0
 32 33  2  0
 33 34  1  0
 34 35  1  0
 33  3  1  0
 31  7  1  0
 28 11  1  0
 21 15  1  0
 28 23  1  0
  1 36  1  0
  1 37  1  0
  1 38  1  0
  4 39  1  0
  5 40  1  0
 10 41  1  0
 10 42  1  0
 14 43  1  0
 14 44  1  0
 16 45  1  0
 17 46  1  0
 18 47  1  0
 21 48  1  0
 24 49  1  0
 25 50  1  0
 27 51  1  0
 30 52  1  0
 30 53  1  0
 30 54  1  0
 32 55  1  0
 35 56  1  0
 35 57  1  0
 35 58  1  0
M  END
$$$$
