
     RDKit          3D

 36 37  0  0  0  0  0  0  0  0999 V2000
   -1.9196    2.1421   -2.2158 O   0  0  0  0  0  0  0  0  0  0  0  0
   -1.1371    2.1013   -1.2717 C   0  0  0  0  0  0  0  0  0  0  0  0
    0.1184    2.9745   -1.2094 C   0  0  0  0  0  0  0  0  0  0  0  0
    1.1346    2.4919   -0.3235 O   0  0  0  0  0  0  0  0  0  0  0  0
    1.8704    1.4659   -0.8171 C   0  0  0  0  0  0  0  0  0  0  0  0
    1.6979    0.9127   -1.8891 O   0  0  0  0  0  0  0  0  0  0  0  0
    2.9231    1.0612    0.1511 C   0  0  0  0  0  0  0  0  0  0  0  0
    3.1663    1.7702    1.3346 C   0  0  0  0  0  0  0  0  0  0  0  0
    4.1667    1.3379    2.2056 C   0  0  0  0  0  0  0  0  0  0  0  0
    4.4597    2.2092    3.6603 Cl  0  0  0  0  0  0  0  0  0  0  0  0
    4.9290    0.2098    1.9136 C   0  0  0  0  0  0  0  0  0  0  0  0
    4.6856   -0.4902    0.7350 C   0  0  0  0  0  0  0  0  0  0  0  0
    5.6204   -1.8864    0.3665 Cl  0  0  0  0  0  0  0  0  0  0  0  0
    3.6905   -0.0729   -0.1475 C   0  0  0  0  0  0  0  0  0  0  0  0
   -1.3412    1.3176   -0.1558 N   0  0  0  0  0  0  0  0  0  0  0  0
   -2.4370    0.3694   -0.0733 C   0  0  0  0  0  0  0  0  0  0  0  0
   -2.2289   -0.8619   -0.9638 C   0  0  0  0  0  0  0  0  0  0  0  0
   -3.1366   -1.9429   -0.6201 N   0  0  0  0  0  0  0  0  0  0  0  0
   -2.8640   -2.8834    0.3425 C   0  0  0  0  0  0  0  0  0  0  0  0
   -1.6732   -2.8276    1.0035 O   0  0  0  0  0  0  0  0  0  0  0  0
   -3.8392   -3.7778    0.5390 C   0  0  0  0  0  0  0  0  0  0  0  0
   -5.1986   -3.4633   -0.4958 S   0  0  0  0  0  0  0  0  0  0  0  0
   -4.3906   -2.0471   -1.2007 C   0  0  0  0  0  0  0  0  0  0  0  0
   -4.9068   -1.3237   -2.0343 O   0  0  0  0  0  0  0  0  0  0  0  0
    0.5224    3.1037   -2.2205 H   0  0  0  0  0  0  0  0  0  0  0  0
   -0.1870    3.9611   -0.8454 H   0  0  0  0  0  0  0  0  0  0  0  0
    2.5900    2.6579    1.5841 H   0  0  0  0  0  0  0  0  0  0  0  0
    5.7067   -0.1202    2.5975 H   0  0  0  0  0  0  0  0  0  0  0  0
    3.5117   -0.6291   -1.0667 H   0  0  0  0  0  0  0  0  0  0  0  0
   -0.6075    1.2758    0.5399 H   0  0  0  0  0  0  0  0  0  0  0  0
   -2.5167    0.0795    0.9800 H   0  0  0  0  0  0  0  0  0  0  0  0
   -3.3671    0.8797   -0.3485 H   0  0  0  0  0  0  0  0  0  0  0  0
   -1.1961   -1.2247   -0.8940 H   0  0  0  0  0  0  0  0  0  0  0  0
   -2.3912   -0.5868   -2.0129 H   0  0  0  0  0  0  0  0  0  0  0  0
   -1.6269   -3.5891    1.6071 H   0  0  0  0  0  0  0  0  0  0  0  0
   -3.8283   -4.5941    1.2458 H   0  0  0  0  0  0  0  0  0  0  0  0
  1  2  2  0
  2  3  1  0
  3  4  1  0
  4  5  1  0
  5  6  2  0
  5  7  1  0
  7  8  2  0
  8  9  1  0
  9 10  1  0
  9 11  2  0
 11 12  1  0
 12 13  1  0
 12 14  2  0
  2 15  1  0
 15 16  1  0
 16 17  1  0
 17 18  1  0
 18 19  1  0
 19 20  1  0
 19 21  2  0
 21 22  1  0
 22 23  1  0
 23 24  2  0
 14  7  1  0
 23 18  1  0
  3 25  1  0
  3 26  1  0
  8 27  1  0
 11 28  1  0
 14 29  1  0
 15 30  1  0
 16 31  1  0
 16 32  1  0
 17 33  1  0
 17 34  1  0
 20 35  1  0
 21 36  1  0
M  END
$$$$
