
     RDKit          3D

 39 40  0  0  0  0  0  0  0  0999 V2000
    5.4542   -1.4674   -1.7777 C   0  0  0  0  0  0  0  0  0  0  0  0
    4.1123   -0.9596   -1.2698 C   0  0  0  0  0  0  0  0  0  0  0  0
    4.1196    0.5438   -0.9509 C   0  0  0  0  0  0  0  0  0  0  0  0
    4.9960    0.8957    0.2507 C   0  0  0  0  0  0  0  0  0  0  0  0
    2.6918    1.0623   -0.7516 C   0  0  0  0  0  0  0  0  0  0  0  0
    2.2329    1.8957   -1.5271 O   0  0  0  0  0  0  0  0  0  0  0  0
    2.0462    0.5050    0.3271 N   0  0  0  0  0  0  0  0  0  0  0  0
    0.7689    0.7686    0.7534 C   0  0  0  0  0  0  0  0  0  0  0  0
    0.2495    0.1651    1.7991 N   0  0  0  0  0  0  0  0  0  0  0  0
   -1.0449    0.5745    2.0484 N   0  0  0  0  0  0  0  0  0  0  0  0
   -1.4568    1.4681    1.1726 C   0  0  0  0  0  0  0  0  0  0  0  0
   -2.8052    2.1150    1.1825 C   0  0  0  0  0  0  0  0  0  0  0  0
   -3.7191    1.6402    0.0488 C   0  0  0  0  0  0  0  0  0  0  0  0
   -4.1569    0.2015    0.1805 C   0  0  0  0  0  0  0  0  0  0  0  0
   -5.1763   -0.1516    1.0754 C   0  0  0  0  0  0  0  0  0  0  0  0
   -5.5729   -1.4834    1.2065 C   0  0  0  0  0  0  0  0  0  0  0  0
   -4.9541   -2.4740    0.4469 C   0  0  0  0  0  0  0  0  0  0  0  0
   -3.9378   -2.1343   -0.4437 C   0  0  0  0  0  0  0  0  0  0  0  0
   -3.5399   -0.8030   -0.5770 C   0  0  0  0  0  0  0  0  0  0  0  0
   -0.2701    1.8874    0.0019 S   0  0  0  0  0  0  0  0  0  0  0  0
    5.7775   -0.9080   -2.6612 H   0  0  0  0  0  0  0  0  0  0  0  0
    6.2301   -1.3837   -1.0112 H   0  0  0  0  0  0  0  0  0  0  0  0
    5.3749   -2.5231   -2.0565 H   0  0  0  0  0  0  0  0  0  0  0  0
    3.8254   -1.5413   -0.3856 H   0  0  0  0  0  0  0  0  0  0  0  0
    3.3514   -1.1640   -2.0337 H   0  0  0  0  0  0  0  0  0  0  0  0
    4.5182    1.0813   -1.8223 H   0  0  0  0  0  0  0  0  0  0  0  0
    4.8684    1.9471    0.5305 H   0  0  0  0  0  0  0  0  0  0  0  0
    6.0551    0.7394    0.0233 H   0  0  0  0  0  0  0  0  0  0  0  0
    4.7480    0.2878    1.1271 H   0  0  0  0  0  0  0  0  0  0  0  0
    2.5157   -0.1837    0.8977 H   0  0  0  0  0  0  0  0  0  0  0  0
   -2.6787    3.2023    1.1048 H   0  0  0  0  0  0  0  0  0  0  0  0
   -3.2812    1.9309    2.1538 H   0  0  0  0  0  0  0  0  0  0  0  0
   -4.6194    2.2689    0.0336 H   0  0  0  0  0  0  0  0  0  0  0  0
   -3.2417    1.7939   -0.9274 H   0  0  0  0  0  0  0  0  0  0  0  0
   -5.6677    0.6081    1.6788 H   0  0  0  0  0  0  0  0  0  0  0  0
   -6.3622   -1.7487    1.9047 H   0  0  0  0  0  0  0  0  0  0  0  0
   -5.2604   -3.5113    0.5522 H   0  0  0  0  0  0  0  0  0  0  0  0
   -3.4506   -2.9073   -1.0320 H   0  0  0  0  0  0  0  0  0  0  0  0
   -2.7403   -0.5582   -1.2725 H   0  0  0  0  0  0  0  0  0  0  0  0
  1  2  1  0
  2  3  1  0
  3  4  1  0
  3  5  1  0
  5  6  2  0
  5  7  1  0
  7  8  1  0
  8  9  2  0
  9 10  1  0
 10 11  2  0
 11 12  1  0
 12 13  1  0
 13 14  1  0
 14 15  2  0
 15 16  1  0
 16 17  2  0
 17 18  1  0
 18 19  2  0
 11 20  1  0
 20  8  1  0
 19 14  1  0
  1 21  1  0
  1 22  1  0
  1 23  1  0
  2 24  1  0
  2 25  1  0
  3 26  1  0
  4 27  1  0
  4 28  1  0
  4 29  1  0
  7 30  1  0
 12 31  1  0
 12 32  1  0
 13 33  1  0
 13 34  1  0
 15 35  1  0
 16 36  1  0
 17 37  1  0
 18 38  1  0
 19 39  1  0
M  END
$$$$
