
     RDKit          3D

 74 79  0  0  0  0  0  0  0  0999 V2000
    8.2197   -3.4849   -3.5731 C   0  0  0  0  0  0  0  0  0  0  0  0
    8.3193   -2.4914   -2.5591 O   0  0  0  0  0  0  0  0  0  0  0  0
    7.1581   -1.8774   -2.1796 C   0  0  0  0  0  0  0  0  0  0  0  0
    5.8859   -2.1400   -2.6793 C   0  0  0  0  0  0  0  0  0  0  0  0
    4.7744   -1.4234   -2.2047 C   0  0  0  0  0  0  0  0  0  0  0  0
    4.8971   -0.4306   -1.2141 C   0  0  0  0  0  0  0  0  0  0  0  0
    3.7370    0.3456   -0.7110 C   0  0  0  0  0  0  0  0  0  0  0  0
    2.4227   -0.0660   -0.8463 C   0  0  0  0  0  0  0  0  0  0  0  0
    1.4104    0.7619   -0.3587 C   0  0  0  0  0  0  0  0  0  0  0  0
    0.0301    0.2614   -0.5111 C   0  0  0  0  0  0  0  0  0  0  0  0
   -0.4297    0.1800   -1.6432 O   0  0  0  0  0  0  0  0  0  0  0  0
   -0.5833   -0.0642    0.6802 N   0  0  0  0  0  0  0  0  0  0  0  0
   -1.8571   -0.6527    0.8575 C   0  0  0  0  0  0  0  0  0  0  0  0
   -2.5741   -1.1717   -0.2277 C   0  0  0  0  0  0  0  0  0  0  0  0
   -3.8605   -1.6878   -0.0529 C   0  0  0  0  0  0  0  0  0  0  0  0
   -4.7537   -2.3157   -1.4607 S   0  0  0  0  0  6  0  0  0  0  0  0
   -3.7992   -2.9861   -2.3169 O   0  0  0  0  0  0  0  0  0  0  0  0
   -5.9193   -3.0119   -0.9517 O   0  0  0  0  0  0  0  0  0  0  0  0
   -5.2978   -0.9191   -2.2444 N   0  0  0  0  0  0  0  0  0  0  0  0
   -6.3361   -0.1122   -1.5482 C   0  0  0  0  0  0  0  0  0  0  0  0
   -6.6170    1.1691   -2.3397 C   0  0  0  0  0  0  0  0  0  0  0  0
   -5.4689    2.0248   -2.4474 O   0  0  0  0  0  0  0  0  0  0  0  0
   -4.2212    1.3150   -2.4435 C   0  0  0  0  0  0  0  0  0  0  0  0
   -4.3205   -0.1025   -3.0194 C   0  0  0  0  0  0  0  0  0  0  0  0
   -4.4286   -1.7530    1.2157 C   0  0  0  0  0  0  0  0  0  0  0  0
   -3.7017   -1.2804    2.3070 C   0  0  0  0  0  0  0  0  0  0  0  0
   -2.4129   -0.7286    2.1582 C   0  0  0  0  0  0  0  0  0  0  0  0
   -1.7969   -0.2998    3.3380 N   0  0  0  0  0  0  0  0  0  0  0  0
   -1.6747    1.1537    3.5359 C   0  0  0  0  0  0  0  0  0  0  0  0
   -1.2933    1.4373    4.9988 C   0  0  0  0  0  0  0  0  0  0  0  0
   -0.1005    0.7259    5.3736 O   0  0  0  0  0  0  0  0  0  0  0  0
   -0.3129   -0.6922    5.2587 C   0  0  0  0  0  0  0  0  0  0  0  0
   -0.6443   -1.0890    3.8109 C   0  0  0  0  0  0  0  0  0  0  0  0
    1.6955    2.0057    0.2349 C   0  0  0  0  0  0  0  0  0  0  0  0
    0.7230    2.9324    0.6896 C   0  0  0  0  0  0  0  0  0  0  0  0
    1.1029    4.1356    1.2797 C   0  0  0  0  0  0  0  0  0  0  0  0
    2.4516    4.4304    1.4165 C   0  0  0  0  0  0  0  0  0  0  0  0
    3.4093    3.5271    0.9502 C   0  0  0  0  0  0  0  0  0  0  0  0
    3.0578    2.3242    0.3533 C   0  0  0  0  0  0  0  0  0  0  0  0
    4.0360    1.5165   -0.0919 N   0  0  0  0  0  0  0  0  0  0  0  0
    6.1946   -0.1874   -0.7266 C   0  0  0  0  0  0  0  0  0  0  0  0
    7.3048   -0.8974   -1.2002 C   0  0  0  0  0  0  0  0  0  0  0  0
    7.6065   -4.3291   -3.2371 H   0  0  0  0  0  0  0  0  0  0  0  0
    9.2276   -3.8633   -3.7724 H   0  0  0  0  0  0  0  0  0  0  0  0
    7.8306   -3.0614   -4.5067 H   0  0  0  0  0  0  0  0  0  0  0  0
    5.7168   -2.8906   -3.4453 H   0  0  0  0  0  0  0  0  0  0  0  0
    3.8091   -1.6510   -2.6516 H   0  0  0  0  0  0  0  0  0  0  0  0
    2.1632   -1.0108   -1.3107 H   0  0  0  0  0  0  0  0  0  0  0  0
   -0.1015    0.1818    1.5338 H   0  0  0  0  0  0  0  0  0  0  0  0
   -2.1404   -1.2005   -1.2213 H   0  0  0  0  0  0  0  0  0  0  0  0
   -5.9831    0.1576   -0.5456 H   0  0  0  0  0  0  0  0  0  0  0  0
   -7.2572   -0.7012   -1.4568 H   0  0  0  0  0  0  0  0  0  0  0  0
   -6.9567    0.9350   -3.3536 H   0  0  0  0  0  0  0  0  0  0  0  0
   -7.4113    1.7463   -1.8565 H   0  0  0  0  0  0  0  0  0  0  0  0
   -3.8625    1.2886   -1.4076 H   0  0  0  0  0  0  0  0  0  0  0  0
   -3.5050    1.9103   -3.0161 H   0  0  0  0  0  0  0  0  0  0  0  0
   -4.6864   -0.0568   -4.0505 H   0  0  0  0  0  0  0  0  0  0  0  0
   -3.3298   -0.5657   -3.0533 H   0  0  0  0  0  0  0  0  0  0  0  0
   -5.4192   -2.1763    1.3704 H   0  0  0  0  0  0  0  0  0  0  0  0
   -4.1431   -1.3396    3.3001 H   0  0  0  0  0  0  0  0  0  0  0  0
   -0.9018    1.5679    2.8828 H   0  0  0  0  0  0  0  0  0  0  0  0
   -2.6229    1.6552    3.3100 H   0  0  0  0  0  0  0  0  0  0  0  0
   -1.1001    2.5064    5.1333 H   0  0  0  0  0  0  0  0  0  0  0  0
   -2.1063    1.1551    5.6796 H   0  0  0  0  0  0  0  0  0  0  0  0
    0.6050   -1.1923    5.5811 H   0  0  0  0  0  0  0  0  0  0  0  0
   -1.1146   -0.9918    5.9419 H   0  0  0  0  0  0  0  0  0  0  0  0
    0.2356   -0.9005    3.1886 H   0  0  0  0  0  0  0  0  0  0  0  0
   -0.8713   -2.1614    3.7733 H   0  0  0  0  0  0  0  0  0  0  0  0
   -0.3392    2.7292    0.5690 H   0  0  0  0  0  0  0  0  0  0  0  0
    0.3510    4.8421    1.6223 H   0  0  0  0  0  0  0  0  0  0  0  0
    2.7650    5.3650    1.8745 H   0  0  0  0  0  0  0  0  0  0  0  0
    4.4650    3.7714    1.0497 H   0  0  0  0  0  0  0  0  0  0  0  0
    6.3583    0.5745    0.0351 H   0  0  0  0  0  0  0  0  0  0  0  0
    8.2924   -0.6753   -0.8004 H   0  0  0  0  0  0  0  0  0  0  0  0
  1  2  1  0
  2  3  1  0
  3  4  2  0
  4  5  1  0
  5  6  2  0
  6  7  1  0
  7  8  2  0
  8  9  1  0
  9 10  1  0
 10 11  2  0
 10 12  1  0
 12 13  1  0
 13 14  2  0
 14 15  1  0
 15 16  1  0
 16 17  2  0
 16 18  2  0
 16 19  1  0
 19 20  1  0
 20 21  1  0
 21 22  1  0
 22 23  1  0
 23 24  1  0
 15 25  2  0
 25 26  1  0
 26 27  2  0
 27 28  1  0
 28 29  1  0
 29 30  1  0
 30 31  1  0
 31 32  1  0
 32 33  1  0
  9 34  2  0
 34 35  1  0
 35 36  2  0
 36 37  1  0
 37 38  2  0
 38 39  1  0
 39 40  2  0
  6 41  1  0
 41 42  2  0
 42  3  1  0
 40  7  1  0
 27 13  1  0
 33 28  1  0
 39 34  1  0
 24 19  1  0
  1 43  1  0
  1 44  1  0
  1 45  1  0
  4 46  1  0
  5 47  1  0
  8 48  1  0
 12 49  1  0
 14 50  1  0
 20 51  1  0
 20 52  1  0
 21 53  1  0
 21 54  1  0
 23 55  1  0
 23 56  1  0
 24 57  1  0
 24 58  1  0
 25 59  1  0
 26 60  1  0
 29 61  1  0
 29 62  1  0
 30 63  1  0
 30 64  1  0
 32 65  1  0
 32 66  1  0
 33 67  1  0
 33 68  1  0
 35 69  1  0
 36 70  1  0
 37 71  1  0
 38 72  1  0
 41 73  1  0
 42 74  1  0
M  END
$$$$
