
     RDKit          3D

 61 63  0  0  0  0  0  0  0  0999 V2000
   -9.8425   -1.4018   -0.5085 C   0  0  0  0  0  0  0  0  0  0  0  0
   -8.8441   -0.3916   -0.5711 O   0  0  0  0  0  0  0  0  0  0  0  0
   -7.8914   -0.4027    0.4101 C   0  0  0  0  0  0  0  0  0  0  0  0
   -7.8017   -1.3189    1.4580 C   0  0  0  0  0  0  0  0  0  0  0  0
   -6.7709   -1.2142    2.3996 C   0  0  0  0  0  0  0  0  0  0  0  0
   -5.8210   -0.1882    2.3095 C   0  0  0  0  0  0  0  0  0  0  0  0
   -4.6975   -0.0869    3.3074 C   0  0  0  0  0  0  0  0  0  0  0  0
   -3.5376   -0.8044    2.8488 N   0  0  0  0  0  0  0  0  0  0  0  0
   -2.5082   -0.1890    2.1781 C   0  0  0  0  0  0  0  0  0  0  0  0
   -2.3701    1.0135    2.0024 O   0  0  0  0  0  0  0  0  0  0  0  0
   -1.4648   -1.1806    1.6133 C   0  0  0  0  0  0  0  0  0  0  0  0
   -1.6141   -2.3846    1.7680 O   0  0  0  0  0  0  0  0  0  0  0  0
   -0.4175   -0.5693    0.9699 N   0  0  0  0  0  0  0  0  0  0  0  0
    0.7613   -1.3027    0.5373 C   0  0  0  0  0  0  0  0  0  0  0  0
    1.5962   -0.5441   -0.5171 C   0  0  0  0  0  0  0  0  0  0  0  0
    0.9242   -0.5663   -1.7938 O   0  0  0  0  0  0  0  0  0  0  0  0
    0.3637    0.7360   -1.9980 C   0  0  0  0  0  0  0  0  0  0  0  0
    1.3346    1.6703   -1.3106 C   0  0  0  0  0  0  0  0  0  0  0  0
    1.7483    0.8748   -0.1562 N   0  0  0  0  0  0  0  0  0  0  0  0
    3.0615    1.3384    0.7668 S   0  0  0  0  0  6  0  0  0  0  0  0
    3.2073    0.3724    1.8345 O   0  0  0  0  0  0  0  0  0  0  0  0
    2.9220    2.7507    1.0488 O   0  0  0  0  0  0  0  0  0  0  0  0
    4.4630    1.1508   -0.3149 C   0  0  0  0  0  0  0  0  0  0  0  0
    4.8674    2.2241   -1.1103 C   0  0  0  0  0  0  0  0  0  0  0  0
    5.9828    2.0884   -1.9388 C   0  0  0  0  0  0  0  0  0  0  0  0
    6.7078    0.8909   -1.9584 C   0  0  0  0  0  0  0  0  0  0  0  0
    7.8115    0.6668   -2.7432 O   0  0  0  0  0  0  0  0  0  0  0  0
    8.2599    1.7279   -3.5741 C   0  0  0  0  0  0  0  0  0  0  0  0
    6.3167   -0.1779   -1.1226 C   0  0  0  0  0  0  0  0  0  0  0  0
    7.0884   -1.3110   -1.1932 O   0  0  0  0  0  0  0  0  0  0  0  0
    6.8376   -2.3434   -0.2497 C   0  0  0  0  0  0  0  0  0  0  0  0
    5.1969   -0.0398   -0.2970 C   0  0  0  0  0  0  0  0  0  0  0  0
   -5.9096    0.7209    1.2485 C   0  0  0  0  0  0  0  0  0  0  0  0
   -6.9393    0.6139    0.3109 C   0  0  0  0  0  0  0  0  0  0  0  0
   -9.4024   -2.3987   -0.6141 H   0  0  0  0  0  0  0  0  0  0  0  0
  -10.4279   -1.3231    0.4136 H   0  0  0  0  0  0  0  0  0  0  0  0
  -10.5254   -1.2490   -1.3496 H   0  0  0  0  0  0  0  0  0  0  0  0
   -8.5146   -2.1285    1.5716 H   0  0  0  0  0  0  0  0  0  0  0  0
   -6.7164   -1.9429    3.2056 H   0  0  0  0  0  0  0  0  0  0  0  0
   -4.4477    0.9637    3.4943 H   0  0  0  0  0  0  0  0  0  0  0  0
   -4.9985   -0.5246    4.2656 H   0  0  0  0  0  0  0  0  0  0  0  0
   -3.5598   -1.8189    2.8004 H   0  0  0  0  0  0  0  0  0  0  0  0
   -0.3437    0.4396    1.0845 H   0  0  0  0  0  0  0  0  0  0  0  0
    1.3572   -1.4882    1.4367 H   0  0  0  0  0  0  0  0  0  0  0  0
    0.4388   -2.2712    0.1390 H   0  0  0  0  0  0  0  0  0  0  0  0
    2.5525   -1.0503   -0.6673 H   0  0  0  0  0  0  0  0  0  0  0  0
   -0.6297    0.7666   -1.5376 H   0  0  0  0  0  0  0  0  0  0  0  0
    0.2645    0.9384   -3.0678 H   0  0  0  0  0  0  0  0  0  0  0  0
    0.8602    2.6110   -1.0229 H   0  0  0  0  0  0  0  0  0  0  0  0
    2.1822    1.8674   -1.9721 H   0  0  0  0  0  0  0  0  0  0  0  0
    4.3264    3.1681   -1.0897 H   0  0  0  0  0  0  0  0  0  0  0  0
    6.2666    2.9380   -2.5515 H   0  0  0  0  0  0  0  0  0  0  0  0
    7.5004    1.9969   -4.3154 H   0  0  0  0  0  0  0  0  0  0  0  0
    9.1435    1.3777   -4.1163 H   0  0  0  0  0  0  0  0  0  0  0  0
    8.5584    2.5969   -2.9786 H   0  0  0  0  0  0  0  0  0  0  0  0
    7.5879   -3.1255   -0.4021 H   0  0  0  0  0  0  0  0  0  0  0  0
    6.9418   -1.9774    0.7771 H   0  0  0  0  0  0  0  0  0  0  0  0
    5.8524   -2.7923   -0.4125 H   0  0  0  0  0  0  0  0  0  0  0  0
    4.8841   -0.8412    0.3642 H   0  0  0  0  0  0  0  0  0  0  0  0
   -5.1738    1.5165    1.1443 H   0  0  0  0  0  0  0  0  0  0  0  0
   -6.9980    1.3286   -0.5063 H   0  0  0  0  0  0  0  0  0  0  0  0
  1  2  1  0
  2  3  1  0
  3  4  2  0
  4  5  1  0
  5  6  2  0
  6  7  1  0
  7  8  1  0
  8  9  1  0
  9 10  2  0
  9 11  1  0
 11 12  2  0
 11 13  1  0
 13 14  1  0
 14 15  1  0
 15 16  1  0
 16 17  1  0
 17 18  1  0
 18 19  1  0
 19 20  1  0
 20 21  2  0
 20 22  2  0
 20 23  1  0
 23 24  2  0
 24 25  1  0
 25 26  2  0
 26 27  1  0
 27 28  1  0
 26 29  1  0
 29 30  1  0
 30 31  1  0
 29 32  2  0
  6 33  1  0
 33 34  2  0
 34  3  1  0
 19 15  1  0
 32 23  1  0
  1 35  1  0
  1 36  1  0
  1 37  1  0
  4 38  1  0
  5 39  1  0
  7 40  1  0
  7 41  1  0
  8 42  1  0
 13 43  1  0
 14 44  1  0
 14 45  1  0
 15 46  1  0
 17 47  1  0
 17 48  1  0
 18 49  1  0
 18 50  1  0
 24 51  1  0
 25 52  1  0
 28 53  1  0
 28 54  1  0
 28 55  1  0
 31 56  1  0
 31 57  1  0
 31 58  1  0
 32 59  1  0
 33 60  1  0
 34 61  1  0
M  END
$$$$
