
     RDKit          3D

 49 51  0  0  0  0  0  0  0  0999 V2000
    0.1439    6.9702    0.5029 C   0  0  0  0  0  0  0  0  0  0  0  0
    1.0437    6.0643   -0.1196 O   0  0  0  0  0  0  0  0  0  0  0  0
    1.1664    4.8109    0.4279 C   0  0  0  0  0  0  0  0  0  0  0  0
    0.3855    4.3347    1.4884 C   0  0  0  0  0  0  0  0  0  0  0  0
    0.5762    3.0435    1.9805 C   0  0  0  0  0  0  0  0  0  0  0  0
    1.5478    2.2255    1.4042 C   0  0  0  0  0  0  0  0  0  0  0  0
    1.7862    0.5741    2.0125 S   0  0  0  0  0  6  0  0  0  0  0  0
    3.1777    0.4841    2.4021 O   0  0  0  0  0  0  0  0  0  0  0  0
    0.7197    0.2669    2.9406 O   0  0  0  0  0  0  0  0  0  0  0  0
    1.6227   -0.3772    0.6309 N   0  0  0  0  0  0  0  0  0  0  0  0
    0.3414   -0.8480    0.2130 C   0  0  0  0  0  0  0  0  0  0  0  0
   -0.7356    0.0049    0.0238 C   0  0  0  0  0  0  0  0  0  0  0  0
   -1.9440   -0.5081   -0.4352 C   0  0  0  0  0  0  0  0  0  0  0  0
   -2.0821   -1.8763   -0.7295 C   0  0  0  0  0  0  0  0  0  0  0  0
   -1.0018   -2.7665   -0.5389 C   0  0  0  0  0  0  0  0  0  0  0  0
    0.2078   -2.2122   -0.0851 C   0  0  0  0  0  0  0  0  0  0  0  0
   -1.1699   -4.1837   -0.8093 N   0  0  0  0  0  0  0  0  0  0  0  0
   -0.1976   -5.1510   -0.4742 C   0  0  0  0  0  0  0  0  0  0  0  0
   -0.6071   -6.6026   -0.6180 C   0  0  0  0  0  0  0  0  0  0  0  0
    0.9461   -4.9257   -0.0788 O   0  0  0  0  0  0  0  0  0  0  0  0
   -2.4880   -4.6223   -1.2918 C   0  0  0  0  0  0  0  0  0  0  0  0
   -3.2498   -3.5751   -2.0784 C   0  0  0  0  0  0  0  0  0  0  0  0
   -3.4247   -2.3491   -1.2143 C   0  0  0  0  0  0  0  0  0  0  0  0
    2.3396    2.6841    0.3466 C   0  0  0  0  0  0  0  0  0  0  0  0
    2.1467    3.9754   -0.1515 C   0  0  0  0  0  0  0  0  0  0  0  0
    2.8616    4.5186   -1.1899 O   0  0  0  0  0  0  0  0  0  0  0  0
    3.7722    3.6725   -1.8777 C   0  0  0  0  0  0  0  0  0  0  0  0
    0.4034    7.1315    1.5551 H   0  0  0  0  0  0  0  0  0  0  0  0
   -0.8912    6.6312    0.3977 H   0  0  0  0  0  0  0  0  0  0  0  0
    0.2338    7.9317   -0.0092 H   0  0  0  0  0  0  0  0  0  0  0  0
   -0.3834    4.9456    1.9504 H   0  0  0  0  0  0  0  0  0  0  0  0
   -0.0357    2.6842    2.8054 H   0  0  0  0  0  0  0  0  0  0  0  0
    2.4055   -1.0278    0.5500 H   0  0  0  0  0  0  0  0  0  0  0  0
   -0.6626    1.0695    0.2086 H   0  0  0  0  0  0  0  0  0  0  0  0
   -2.7839    0.1695   -0.5739 H   0  0  0  0  0  0  0  0  0  0  0  0
    1.0887   -2.8247    0.0542 H   0  0  0  0  0  0  0  0  0  0  0  0
    0.1435   -7.2370   -0.1349 H   0  0  0  0  0  0  0  0  0  0  0  0
   -1.5608   -6.7954   -0.1211 H   0  0  0  0  0  0  0  0  0  0  0  0
   -0.6529   -6.8765   -1.6753 H   0  0  0  0  0  0  0  0  0  0  0  0
   -3.0654   -4.9462   -0.4160 H   0  0  0  0  0  0  0  0  0  0  0  0
   -2.3681   -5.4935   -1.9432 H   0  0  0  0  0  0  0  0  0  0  0  0
   -2.6996   -3.3219   -2.9930 H   0  0  0  0  0  0  0  0  0  0  0  0
   -4.2267   -3.9669   -2.3824 H   0  0  0  0  0  0  0  0  0  0  0  0
   -4.0592   -2.5698   -0.3473 H   0  0  0  0  0  0  0  0  0  0  0  0
   -3.9209   -1.5683   -1.8021 H   0  0  0  0  0  0  0  0  0  0  0  0
    3.0945    2.0219   -0.0644 H   0  0  0  0  0  0  0  0  0  0  0  0
    4.1907    4.2413   -2.7137 H   0  0  0  0  0  0  0  0  0  0  0  0
    4.6012    3.3733   -1.2286 H   0  0  0  0  0  0  0  0  0  0  0  0
    3.2644    2.7965   -2.2941 H   0  0  0  0  0  0  0  0  0  0  0  0
  1  2  1  0
  2  3  1  0
  3  4  2  0
  4  5  1  0
  5  6  2  0
  6  7  1  0
  7  8  2  0
  7  9  2  0
  7 10  1  0
 10 11  1  0
 11 12  2  0
 12 13  1  0
 13 14  2  0
 14 15  1  0
 15 16  2  0
 15 17  1  0
 17 18  1  0
 18 19  1  0
 18 20  2  0
 17 21  1  0
 21 22  1  0
 22 23  1  0
  6 24  1  0
 24 25  2  0
 25 26  1  0
 26 27  1  0
 25  3  1  0
 16 11  1  0
 23 14  1  0
  1 28  1  0
  1 29  1  0
  1 30  1  0
  4 31  1  0
  5 32  1  0
 10 33  1  0
 12 34  1  0
 13 35  1  0
 16 36  1  0
 19 37  1  0
 19 38  1  0
 19 39  1  0
 21 40  1  0
 21 41  1  0
 22 42  1  0
 22 43  1  0
 23 44  1  0
 23 45  1  0
 24 46  1  0
 27 47  1  0
 27 48  1  0
 27 49  1  0
M  END
$$$$
