
     RDKit          3D

 39 42  0  0  0  0  0  0  0  0999 V2000
    6.0166    0.0614   -0.9860 C   0  0  0  0  0  0  0  0  0  0  0  0
    5.8511   -0.4812    0.3000 C   0  0  0  0  0  0  0  0  0  0  0  0
    4.5958   -0.4955    0.9172 C   0  0  0  0  0  0  0  0  0  0  0  0
    3.5184    0.0383    0.2304 C   0  0  0  0  0  0  0  0  0  0  0  0
    3.6919    0.5818   -1.0614 C   0  0  0  0  0  0  0  0  0  0  0  0
    4.9311    0.5999   -1.6797 C   0  0  0  0  0  0  0  0  0  0  0  0
    2.3711    1.0977   -1.5957 C   0  0  0  0  0  0  0  0  0  0  0  0
    1.4269    0.7840   -0.4532 C   0  0  0  0  0  0  0  0  0  0  0  0
    0.0663    1.0331   -0.3762 C   0  0  0  0  0  0  0  0  0  0  0  0
   -0.6218    0.6489    0.7865 C   0  0  0  0  0  0  0  0  0  0  0  0
   -2.1102    0.9103    0.9104 C   0  0  0  0  0  0  0  0  0  0  0  0
   -2.9074    0.2473   -0.1335 N   0  0  0  0  0  0  0  0  0  0  0  0
   -4.3221    0.6747   -0.0937 C   0  0  0  0  0  0  0  0  0  0  0  0
   -5.2451   -0.3262    0.6184 C   0  0  0  0  0  0  0  0  0  0  0  0
   -5.2451   -1.6249    0.0112 O   0  0  0  0  0  0  0  0  0  0  0  0
   -4.0195   -1.9264   -0.6717 C   0  0  0  0  0  0  0  0  0  0  0  0
   -2.8057   -1.2280   -0.0409 C   0  0  0  0  0  0  0  0  0  0  0  0
    0.0829    0.0281    1.8428 C   0  0  0  0  0  0  0  0  0  0  0  0
    1.4585   -0.2181    1.7549 C   0  0  0  0  0  0  0  0  0  0  0  0
    2.1248    0.1623    0.6033 C   0  0  0  0  0  0  0  0  0  0  0  0
    7.0027    0.0608   -1.4447 H   0  0  0  0  0  0  0  0  0  0  0  0
    6.7110   -0.8953    0.8213 H   0  0  0  0  0  0  0  0  0  0  0  0
    4.4788   -0.9166    1.9096 H   0  0  0  0  0  0  0  0  0  0  0  0
    5.0589    1.0184   -2.6722 H   0  0  0  0  0  0  0  0  0  0  0  0
    2.4199    2.1761   -1.7723 H   0  0  0  0  0  0  0  0  0  0  0  0
    2.0801    0.5534   -2.4988 H   0  0  0  0  0  0  0  0  0  0  0  0
   -0.4613    1.5055   -1.1997 H   0  0  0  0  0  0  0  0  0  0  0  0
   -2.4671    0.6254    1.9090 H   0  0  0  0  0  0  0  0  0  0  0  0
   -2.2383    1.9989    0.8387 H   0  0  0  0  0  0  0  0  0  0  0  0
   -4.6548    0.7665   -1.1355 H   0  0  0  0  0  0  0  0  0  0  0  0
   -4.4334    1.6712    0.3497 H   0  0  0  0  0  0  0  0  0  0  0  0
   -6.2768    0.0398    0.6052 H   0  0  0  0  0  0  0  0  0  0  0  0
   -4.9551   -0.4412    1.6693 H   0  0  0  0  0  0  0  0  0  0  0  0
   -4.1325   -1.6434   -1.7248 H   0  0  0  0  0  0  0  0  0  0  0  0
   -3.8872   -3.0127   -0.6400 H   0  0  0  0  0  0  0  0  0  0  0  0
   -1.8943   -1.5621   -0.5485 H   0  0  0  0  0  0  0  0  0  0  0  0
   -2.7462   -1.5436    1.0092 H   0  0  0  0  0  0  0  0  0  0  0  0
   -0.4449   -0.2711    2.7461 H   0  0  0  0  0  0  0  0  0  0  0  0
    1.9819   -0.6973    2.5751 H   0  0  0  0  0  0  0  0  0  0  0  0
  1  2  2  0
  2  3  1  0
  3  4  2  0
  4  5  1  0
  5  6  2  0
  5  7  1  0
  7  8  1  0
  8  9  2  0
  9 10  1  0
 10 11  1  0
 11 12  1  0
 12 13  1  0
 13 14  1  0
 14 15  1  0
 15 16  1  0
 16 17  1  0
 10 18  2  0
 18 19  1  0
 19 20  2  0
  6  1  1  0
 20  8  1  0
 20  4  1  0
 17 12  1  0
  1 21  1  0
  2 22  1  0
  3 23  1  0
  6 24  1  0
  7 25  1  0
  7 26  1  0
  9 27  1  0
 11 28  1  0
 11 29  1  0
 13 30  1  0
 13 31  1  0
 14 32  1  0
 14 33  1  0
 16 34  1  0
 16 35  1  0
 17 36  1  0
 17 37  1  0
 18 38  1  0
 19 39  1  0
M  END
$$$$
