
     RDKit          3D

 57 59  0  0  0  0  0  0  0  0999 V2000
    6.3505   -2.2696   -0.4233 C   0  0  0  0  0  0  0  0  0  0  0  0
    5.9209   -0.9568   -1.0678 C   0  0  0  0  0  0  0  0  0  0  0  0
    6.5365    0.4848   -0.1115 S   0  0  0  0  0  0  0  0  0  0  0  0
    5.3291    0.5528    1.2526 C   0  0  0  0  0  0  0  0  0  0  0  0
    5.7608    1.5316    2.3163 C   0  0  0  0  0  0  0  0  0  0  0  0
    5.3822    2.8806    2.2390 C   0  0  0  0  0  0  0  0  0  0  0  0
    5.7860    3.7870    3.2205 C   0  0  0  0  0  0  0  0  0  0  0  0
    6.5763    3.3575    4.2849 C   0  0  0  0  0  0  0  0  0  0  0  0
    6.9680    2.0224    4.3672 C   0  0  0  0  0  0  0  0  0  0  0  0
    6.5655    1.1138    3.3868 C   0  0  0  0  0  0  0  0  0  0  0  0
    4.4266   -0.8179   -1.3949 C   0  0  0  0  0  0  0  0  0  0  0  0
    4.0554   -0.1206   -2.3401 O   0  0  0  0  0  0  0  0  0  0  0  0
    3.5685   -1.4782   -0.5152 N   0  0  0  0  0  0  0  0  0  0  0  0
    2.2024   -1.5309   -0.6346 N   0  0  0  0  0  0  0  0  0  0  0  0
    1.5831   -0.4779   -1.0681 C   0  0  0  0  0  0  0  0  0  0  0  0
    0.1180   -0.4655   -1.2603 C   0  0  0  0  0  0  0  0  0  0  0  0
   -0.4868    0.6927   -1.7553 C   0  0  0  0  0  0  0  0  0  0  0  0
   -1.8744    0.7356   -1.9382 C   0  0  0  0  0  0  0  0  0  0  0  0
   -2.6586   -0.3766   -1.6243 C   0  0  0  0  0  0  0  0  0  0  0  0
   -4.0176   -0.4633   -1.7466 O   0  0  0  0  0  0  0  0  0  0  0  0
   -4.6971    0.6853   -2.2481 C   0  0  0  0  0  0  0  0  0  0  0  0
   -6.2099    0.4619   -2.2843 C   0  0  0  0  0  0  0  0  0  0  0  0
   -6.9915    1.3615   -2.5840 O   0  0  0  0  0  0  0  0  0  0  0  0
   -6.6084   -0.8158   -1.9685 N   0  0  0  0  0  0  0  0  0  0  0  0
   -7.9962   -1.1597   -1.7740 C   0  0  0  0  0  0  0  0  0  0  0  0
   -8.3314   -0.9708   -0.3413 C   0  0  0  0  0  0  0  0  0  0  0  0
   -8.8111    0.1012    0.3838 C   0  0  0  0  0  0  0  0  0  0  0  0
   -8.9121   -0.3380    1.7255 C   0  0  0  0  0  0  0  0  0  0  0  0
   -8.4861   -1.6457    1.7349 C   0  0  0  0  0  0  0  0  0  0  0  0
   -8.1290   -2.0392    0.4849 O   0  0  0  0  0  0  0  0  0  0  0  0
   -2.0438   -1.5329   -1.1331 C   0  0  0  0  0  0  0  0  0  0  0  0
   -0.6597   -1.5825   -0.9514 C   0  0  0  0  0  0  0  0  0  0  0  0
    5.9945   -2.3739    0.6064 H   0  0  0  0  0  0  0  0  0  0  0  0
    7.4430   -2.3586   -0.4078 H   0  0  0  0  0  0  0  0  0  0  0  0
    5.9612   -3.1201   -0.9931 H   0  0  0  0  0  0  0  0  0  0  0  0
    6.4327   -0.9108   -2.0378 H   0  0  0  0  0  0  0  0  0  0  0  0
    4.3514    0.8556    0.8632 H   0  0  0  0  0  0  0  0  0  0  0  0
    5.2131   -0.4383    1.7035 H   0  0  0  0  0  0  0  0  0  0  0  0
    4.7754    3.2338    1.4081 H   0  0  0  0  0  0  0  0  0  0  0  0
    5.4886    4.8298    3.1515 H   0  0  0  0  0  0  0  0  0  0  0  0
    6.8930    4.0652    5.0464 H   0  0  0  0  0  0  0  0  0  0  0  0
    7.5923    1.6899    5.1926 H   0  0  0  0  0  0  0  0  0  0  0  0
    6.8893    0.0776    3.4600 H   0  0  0  0  0  0  0  0  0  0  0  0
    3.9316   -2.2650    0.0122 H   0  0  0  0  0  0  0  0  0  0  0  0
    2.1003    0.4724   -1.2845 H   0  0  0  0  0  0  0  0  0  0  0  0
    0.1099    1.5669   -2.0055 H   0  0  0  0  0  0  0  0  0  0  0  0
   -2.3061    1.6528   -2.3261 H   0  0  0  0  0  0  0  0  0  0  0  0
   -4.5209    1.5447   -1.5911 H   0  0  0  0  0  0  0  0  0  0  0  0
   -4.3761    0.8976   -3.2742 H   0  0  0  0  0  0  0  0  0  0  0  0
   -5.9077   -1.4176   -1.5486 H   0  0  0  0  0  0  0  0  0  0  0  0
   -8.6361   -0.5393   -2.4102 H   0  0  0  0  0  0  0  0  0  0  0  0
   -8.1217   -2.2066   -2.0684 H   0  0  0  0  0  0  0  0  0  0  0  0
   -9.0473    1.0787   -0.0161 H   0  0  0  0  0  0  0  0  0  0  0  0
   -9.2489    0.2281    2.5814 H   0  0  0  0  0  0  0  0  0  0  0  0
   -8.3811   -2.3947    2.5087 H   0  0  0  0  0  0  0  0  0  0  0  0
   -2.6464   -2.4046   -0.8881 H   0  0  0  0  0  0  0  0  0  0  0  0
   -0.1998   -2.4902   -0.5689 H   0  0  0  0  0  0  0  0  0  0  0  0
  1  2  1  0
  2  3  1  0
  3  4  1  0
  4  5  1  0
  5  6  2  0
  6  7  1  0
  7  8  2  0
  8  9  1  0
  9 10  2  0
  2 11  1  0
 11 12  2  0
 11 13  1  0
 13 14  1  0
 14 15  2  3
 15 16  1  0
 16 17  2  0
 17 18  1  0
 18 19  2  0
 19 20  1  0
 20 21  1  0
 21 22  1  0
 22 23  2  0
 22 24  1  0
 24 25  1  0
 25 26  1  0
 26 27  2  0
 27 28  1  0
 28 29  2  0
 29 30  1  0
 19 31  1  0
 31 32  2  0
 10  5  1  0
 32 16  1  0
 30 26  1  0
  1 33  1  0
  1 34  1  0
  1 35  1  0
  2 36  1  0
  4 37  1  0
  4 38  1  0
  6 39  1  0
  7 40  1  0
  8 41  1  0
  9 42  1  0
 10 43  1  0
 13 44  1  0
 15 45  1  0
 17 46  1  0
 18 47  1  0
 21 48  1  0
 21 49  1  0
 24 50  1  0
 25 51  1  0
 25 52  1  0
 27 53  1  0
 28 54  1  0
 29 55  1  0
 31 56  1  0
 32 57  1  0
M  END
$$$$
