
     RDKit          3D

 40 41  0  0  0  0  0  0  0  0999 V2000
    6.4625   -0.2961   -5.0300 C   0  0  0  0  0  0  0  0  0  0  0  0
    5.2865   -0.8533   -4.2446 C   0  0  0  0  0  0  0  0  0  0  0  0
    4.4096    0.2625   -3.6823 C   0  0  0  0  0  0  0  0  0  0  0  0
    3.2238   -0.2710   -2.8908 C   0  0  0  0  0  0  0  0  0  0  0  0
    3.0239   -1.4701   -2.7397 O   0  0  0  0  0  0  0  0  0  0  0  0
    2.4454    0.7630   -2.3928 N   0  0  0  0  0  0  0  0  0  0  0  0
    1.2729    0.6599   -1.6171 C   0  0  0  0  0  0  0  0  0  0  0  0
    0.6973   -0.5505   -1.2258 C   0  0  0  0  0  0  0  0  0  0  0  0
   -0.4718   -0.5713   -0.4524 C   0  0  0  0  0  0  0  0  0  0  0  0
   -1.0753    0.6262   -0.0554 C   0  0  0  0  0  0  0  0  0  0  0  0
   -2.3185    0.6618    0.7628 C   0  0  0  0  0  0  0  0  0  0  0  0
   -3.0280    1.6656    0.7923 O   0  0  0  0  0  0  0  0  0  0  0  0
   -2.6094   -0.4681    1.5052 N   0  0  0  0  0  0  0  0  0  0  0  0
   -3.6398   -0.3413    2.4621 N   0  0  0  0  0  0  0  0  0  0  0  0
   -3.4175   -0.8963    3.7160 C   0  0  0  0  0  0  0  0  0  0  0  0
   -2.4539   -1.6459    3.8933 O   0  0  0  0  0  0  0  0  0  0  0  0
   -4.3758   -0.5103    4.7433 C   0  0  0  0  0  0  0  0  0  0  0  0
   -5.5681    0.1875    4.6401 C   0  0  0  0  0  0  0  0  0  0  0  0
   -6.2146    0.3615    5.9003 C   0  0  0  0  0  0  0  0  0  0  0  0
   -5.5021   -0.2114    6.9277 C   0  0  0  0  0  0  0  0  0  0  0  0
   -4.0682   -0.9561    6.3745 S   0  0  0  0  0  0  0  0  0  0  0  0
   -0.5096    1.8408   -0.4567 C   0  0  0  0  0  0  0  0  0  0  0  0
    0.6574    1.8560   -1.2280 C   0  0  0  0  0  0  0  0  0  0  0  0
    7.0766   -1.1122   -5.4233 H   0  0  0  0  0  0  0  0  0  0  0  0
    7.0967    0.3307   -4.3950 H   0  0  0  0  0  0  0  0  0  0  0  0
    6.1185    0.3080   -5.8756 H   0  0  0  0  0  0  0  0  0  0  0  0
    4.6918   -1.5038   -4.8969 H   0  0  0  0  0  0  0  0  0  0  0  0
    5.6623   -1.4813   -3.4280 H   0  0  0  0  0  0  0  0  0  0  0  0
    4.0242    0.8800   -4.5024 H   0  0  0  0  0  0  0  0  0  0  0  0
    5.0039    0.9027   -3.0194 H   0  0  0  0  0  0  0  0  0  0  0  0
    2.7529    1.7032   -2.6088 H   0  0  0  0  0  0  0  0  0  0  0  0
    1.1290   -1.5053   -1.5120 H   0  0  0  0  0  0  0  0  0  0  0  0
   -0.8988   -1.5371   -0.1963 H   0  0  0  0  0  0  0  0  0  0  0  0
   -1.8806   -1.1384    1.7526 H   0  0  0  0  0  0  0  0  0  0  0  0
   -4.2104    0.4956    2.3585 H   0  0  0  0  0  0  0  0  0  0  0  0
   -5.9798    0.5573    3.7089 H   0  0  0  0  0  0  0  0  0  0  0  0
   -7.1564    0.8776    6.0436 H   0  0  0  0  0  0  0  0  0  0  0  0
   -5.7549   -0.2337    7.9791 H   0  0  0  0  0  0  0  0  0  0  0  0
   -0.9735    2.7826   -0.1686 H   0  0  0  0  0  0  0  0  0  0  0  0
    1.0718    2.8182   -1.5184 H   0  0  0  0  0  0  0  0  0  0  0  0
  1  2  1  0
  2  3  1  0
  3  4  1  0
  4  5  2  0
  4  6  1  0
  6  7  1  0
  7  8  2  0
  8  9  1  0
  9 10  2  0
 10 11  1  0
 11 12  2  0
 11 13  1  0
 13 14  1  0
 14 15  1  0
 15 16  2  0
 15 17  1  0
 17 18  2  0
 18 19  1  0
 19 20  2  0
 20 21  1  0
 10 22  1  0
 22 23  2  0
 23  7  1  0
 21 17  1  0
  1 24  1  0
  1 25  1  0
  1 26  1  0
  2 27  1  0
  2 28  1  0
  3 29  1  0
  3 30  1  0
  6 31  1  0
  8 32  1  0
  9 33  1  0
 13 34  1  0
 14 35  1  0
 18 36  1  0
 19 37  1  0
 20 38  1  0
 22 39  1  0
 23 40  1  0
M  END
$$$$
