
     RDKit          3D

 58 59  0  0  0  0  0  0  0  0999 V2000
    7.7651    0.8990    2.1322 C   0  0  0  0  0  0  0  0  0  0  0  0
    7.4833   -0.5904    2.2606 C   0  0  0  0  0  0  0  0  0  0  0  0
    6.3096   -1.0600    1.4022 C   0  0  0  0  0  0  0  0  0  0  0  0
    6.5776   -0.9677   -0.0997 C   0  0  0  0  0  0  0  0  0  0  0  0
    5.4836   -1.5152   -0.8381 O   0  0  0  0  0  0  0  0  0  0  0  0
    4.4444   -0.6986   -1.1840 C   0  0  0  0  0  0  0  0  0  0  0  0
    4.2680    0.6290   -0.7925 C   0  0  0  0  0  0  0  0  0  0  0  0
    3.1432    1.3486   -1.2176 C   0  0  0  0  0  0  0  0  0  0  0  0
    2.1807    0.7391   -2.0319 C   0  0  0  0  0  0  0  0  0  0  0  0
    0.9684    1.4651   -2.5036 C   0  0  0  0  0  0  0  0  0  0  0  0
    0.3981    1.1167   -3.5304 O   0  0  0  0  0  0  0  0  0  0  0  0
    0.5245    2.4990   -1.7036 N   0  0  0  0  0  0  0  0  0  0  0  0
   -0.7717    3.1137   -1.9600 C   0  0  0  0  0  0  0  0  0  0  0  0
   -1.8576    2.4378   -1.1326 C   0  0  0  0  0  0  0  0  0  0  0  0
   -1.6582    1.6240   -0.2362 O   0  0  0  0  0  0  0  0  0  0  0  0
   -3.0862    2.9206   -1.4773 O   0  0  0  0  0  0  0  0  0  0  0  0
   -4.1655    2.3103   -0.7584 C   0  0  0  0  0  0  0  0  0  0  0  0
   -4.3897    0.8587   -1.1910 C   0  0  0  0  0  0  0  0  0  0  0  0
   -4.0481    0.4801   -2.3169 O   0  0  0  0  0  0  0  0  0  0  0  0
   -4.9648   -0.1082   -0.1954 C   0  0  0  0  0  0  0  0  0  0  0  0
   -4.7067   -1.4329   -0.2912 C   0  0  0  0  0  0  0  0  0  0  0  0
   -3.9819   -1.9817   -1.3434 N   0  0  0  0  0  0  0  0  0  0  0  0
   -5.1951   -2.2940    0.6885 N   0  0  0  0  0  0  0  0  0  0  0  0
   -5.0153   -3.7364    0.5180 C   0  0  0  0  0  0  0  0  0  0  0  0
   -5.8706   -1.8679    1.8282 C   0  0  0  0  0  0  0  0  0  0  0  0
   -6.2883   -2.6496    2.6845 O   0  0  0  0  0  0  0  0  0  0  0  0
   -6.0633   -0.5025    1.9423 N   0  0  0  0  0  0  0  0  0  0  0  0
   -6.8138   -0.0243    3.0889 C   0  0  0  0  0  0  0  0  0  0  0  0
   -5.7965    0.3826    0.9243 C   0  0  0  0  0  0  0  0  0  0  0  0
   -6.2214    1.5381    0.9094 O   0  0  0  0  0  0  0  0  0  0  0  0
    2.3643   -0.5866   -2.4355 C   0  0  0  0  0  0  0  0  0  0  0  0
    3.4869   -1.2993   -2.0067 C   0  0  0  0  0  0  0  0  0  0  0  0
    8.5522    1.1939    2.8333 H   0  0  0  0  0  0  0  0  0  0  0  0
    6.8715    1.4887    2.3590 H   0  0  0  0  0  0  0  0  0  0  0  0
    8.1046    1.1586    1.1256 H   0  0  0  0  0  0  0  0  0  0  0  0
    8.3854   -1.1576    2.0037 H   0  0  0  0  0  0  0  0  0  0  0  0
    7.2573   -0.8125    3.3103 H   0  0  0  0  0  0  0  0  0  0  0  0
    5.4077   -0.4958    1.6658 H   0  0  0  0  0  0  0  0  0  0  0  0
    6.0812   -2.1044    1.6522 H   0  0  0  0  0  0  0  0  0  0  0  0
    6.8311    0.0424   -0.4379 H   0  0  0  0  0  0  0  0  0  0  0  0
    7.4487   -1.5887   -0.3396 H   0  0  0  0  0  0  0  0  0  0  0  0
    4.9837    1.1385   -0.1561 H   0  0  0  0  0  0  0  0  0  0  0  0
    3.0487    2.3899   -0.9222 H   0  0  0  0  0  0  0  0  0  0  0  0
    0.8242    2.4888   -0.7370 H   0  0  0  0  0  0  0  0  0  0  0  0
   -0.6998    4.1606   -1.6524 H   0  0  0  0  0  0  0  0  0  0  0  0
   -1.0228    3.0449   -3.0222 H   0  0  0  0  0  0  0  0  0  0  0  0
   -5.0702    2.8794   -0.9940 H   0  0  0  0  0  0  0  0  0  0  0  0
   -3.9670    2.3894    0.3156 H   0  0  0  0  0  0  0  0  0  0  0  0
   -3.1958   -2.5393   -1.0200 H   0  0  0  0  0  0  0  0  0  0  0  0
   -3.6513   -1.2727   -2.0132 H   0  0  0  0  0  0  0  0  0  0  0  0
   -5.3930   -4.0409   -0.4641 H   0  0  0  0  0  0  0  0  0  0  0  0
   -3.9504   -3.9761    0.6034 H   0  0  0  0  0  0  0  0  0  0  0  0
   -5.5534   -4.3157    1.2734 H   0  0  0  0  0  0  0  0  0  0  0  0
   -6.5442   -0.5871    3.9880 H   0  0  0  0  0  0  0  0  0  0  0  0
   -6.6230    1.0379    3.2697 H   0  0  0  0  0  0  0  0  0  0  0  0
   -7.8807   -0.1664    2.8879 H   0  0  0  0  0  0  0  0  0  0  0  0
    1.6339   -1.0703   -3.0813 H   0  0  0  0  0  0  0  0  0  0  0  0
    3.6184   -2.3325   -2.3212 H   0  0  0  0  0  0  0  0  0  0  0  0
  1  2  1  0
  2  3  1  0
  3  4  1  0
  4  5  1  0
  5  6  1  0
  6  7  2  0
  7  8  1  0
  8  9  2  0
  9 10  1  0
 10 11  2  0
 10 12  1  0
 12 13  1  0
 13 14  1  0
 14 15  2  0
 14 16  1  0
 16 17  1  0
 17 18  1  0
 18 19  2  0
 18 20  1  0
 20 21  2  0
 21 22  1  0
 21 23  1  0
 23 24  1  0
 23 25  1  0
 25 26  2  0
 25 27  1  0
 27 28  1  0
 27 29  1  0
 29 30  2  0
  9 31  1  0
 31 32  2  0
 32  6  1  0
 29 20  1  0
  1 33  1  0
  1 34  1  0
  1 35  1  0
  2 36  1  0
  2 37  1  0
  3 38  1  0
  3 39  1  0
  4 40  1  0
  4 41  1  0
  7 42  1  0
  8 43  1  0
 12 44  1  0
 13 45  1  0
 13 46  1  0
 17 47  1  0
 17 48  1  0
 22 49  1  0
 22 50  1  0
 24 51  1  0
 24 52  1  0
 24 53  1  0
 28 54  1  0
 28 55  1  0
 28 56  1  0
 31 57  1  0
 32 58  1  0
M  END
$$$$
