
     RDKit          3D

 49 52  0  0  0  0  0  0  0  0999 V2000
   -3.3213   -0.3034    2.2676 C   0  0  0  0  0  0  0  0  0  0  0  0
   -3.8450   -0.0565    0.8651 C   0  0  0  0  0  0  0  0  0  0  0  0
   -3.3770   -0.6277   -0.2103 N   0  0  0  0  0  0  0  0  0  0  0  0
   -2.2491   -1.4005   -0.1138 N   0  0  0  0  0  0  0  0  0  0  0  0
   -1.0037   -0.8306    0.1595 C   0  0  0  0  0  0  0  0  0  0  0  0
   -0.8292    0.2814    0.6493 O   0  0  0  0  0  0  0  0  0  0  0  0
    0.1059   -1.7122   -0.1974 C   0  0  0  0  0  0  0  0  0  0  0  0
   -0.0993   -2.9702   -0.6972 N   0  0  0  0  0  0  0  0  0  0  0  0
    1.0774   -3.5189   -0.9366 N   0  0  0  0  0  0  0  0  0  0  0  0
    2.0646   -2.6403   -0.5875 N   0  0  0  0  0  0  0  0  0  0  0  0
    3.4341   -2.9948   -0.6959 C   0  0  0  0  0  0  0  0  0  0  0  0
    4.3966   -2.1932   -0.2393 N   0  0  0  0  0  0  0  0  0  0  0  0
    5.5745   -2.8890   -0.5047 O   0  0  0  0  0  0  0  0  0  0  0  0
    5.3114   -4.1179   -1.0999 N   0  0  0  0  0  0  0  0  0  0  0  0
    3.9863   -4.1775   -1.2247 C   0  0  0  0  0  0  0  0  0  0  0  0
    3.3221   -5.2131   -1.7714 N   0  0  0  0  0  0  0  0  0  0  0  0
    1.4691   -1.4693   -0.1245 C   0  0  0  0  0  0  0  0  0  0  0  0
    2.2136   -0.2529    0.2867 C   0  0  0  0  0  0  0  0  0  0  0  0
    2.7216    0.3084   -0.9198 O   0  0  0  0  0  0  0  0  0  0  0  0
    3.5192    1.4133   -0.8078 C   0  0  0  0  0  0  0  0  0  0  0  0
    4.0913    1.8405   -2.0118 C   0  0  0  0  0  0  0  0  0  0  0  0
    4.9271    2.9575   -2.0439 C   0  0  0  0  0  0  0  0  0  0  0  0
    5.1857    3.6470   -0.8673 C   0  0  0  0  0  0  0  0  0  0  0  0
    5.9865    4.7202   -0.8916 F   0  0  0  0  0  0  0  0  0  0  0  0
    4.6226    3.2394    0.3363 C   0  0  0  0  0  0  0  0  0  0  0  0
    3.7855    2.1198    0.3682 C   0  0  0  0  0  0  0  0  0  0  0  0
   -5.0042    0.8821    0.7179 C   0  0  0  0  0  0  0  0  0  0  0  0
   -5.2628    1.8768    1.6700 C   0  0  0  0  0  0  0  0  0  0  0  0
   -6.3489    2.7430    1.5046 C   0  0  0  0  0  0  0  0  0  0  0  0
   -7.1729    2.6201    0.3872 C   0  0  0  0  0  0  0  0  0  0  0  0
   -8.5076    3.6867    0.1884 Cl  0  0  0  0  0  0  0  0  0  0  0  0
   -6.9191    1.6417   -0.5711 C   0  0  0  0  0  0  0  0  0  0  0  0
   -5.8339    0.7759   -0.4079 C   0  0  0  0  0  0  0  0  0  0  0  0
   -4.1419   -0.2870    2.9913 H   0  0  0  0  0  0  0  0  0  0  0  0
   -2.5959    0.4691    2.5349 H   0  0  0  0  0  0  0  0  0  0  0  0
   -2.8523   -1.2873    2.3483 H   0  0  0  0  0  0  0  0  0  0  0  0
   -2.2139   -2.1579   -0.7944 H   0  0  0  0  0  0  0  0  0  0  0  0
    3.8144   -6.0846   -1.9377 H   0  0  0  0  0  0  0  0  0  0  0  0
    2.3124   -5.3065   -1.6741 H   0  0  0  0  0  0  0  0  0  0  0  0
    1.5510    0.4660    0.7764 H   0  0  0  0  0  0  0  0  0  0  0  0
    3.0147   -0.5030    0.9907 H   0  0  0  0  0  0  0  0  0  0  0  0
    3.8850    1.2963   -2.9304 H   0  0  0  0  0  0  0  0  0  0  0  0
    5.3738    3.2902   -2.9749 H   0  0  0  0  0  0  0  0  0  0  0  0
    4.8365    3.7970    1.2427 H   0  0  0  0  0  0  0  0  0  0  0  0
    3.3564    1.8338    1.3226 H   0  0  0  0  0  0  0  0  0  0  0  0
   -4.6217    2.0088    2.5373 H   0  0  0  0  0  0  0  0  0  0  0  0
   -6.5411    3.5140    2.2465 H   0  0  0  0  0  0  0  0  0  0  0  0
   -7.5559    1.5477   -1.4468 H   0  0  0  0  0  0  0  0  0  0  0  0
   -5.6425    0.0175   -1.1643 H   0  0  0  0  0  0  0  0  0  0  0  0
  1  2  1  0
  2  3  2  3
  3  4  1  0
  4  5  1  0
  5  6  2  0
  5  7  1  0
  7  8  1  0
  8  9  2  0
  9 10  1  0
 10 11  1  0
 11 12  2  0
 12 13  1  0
 13 14  1  0
 14 15  2  0
 15 16  1  0
 10 17  1  0
 17 18  1  0
 18 19  1  0
 19 20  1  0
 20 21  2  0
 21 22  1  0
 22 23  2  0
 23 24  1  0
 23 25  1  0
 25 26  2  0
  2 27  1  0
 27 28  2  0
 28 29  1  0
 29 30  2  0
 30 31  1  0
 30 32  1  0
 32 33  2  0
 17  7  2  0
 26 20  1  0
 33 27  1  0
 15 11  1  0
  1 34  1  0
  1 35  1  0
  1 36  1  0
  4 37  1  0
 16 38  1  0
 16 39  1  0
 18 40  1  0
 18 41  1  0
 21 42  1  0
 22 43  1  0
 25 44  1  0
 26 45  1  0
 28 46  1  0
 29 47  1  0
 32 48  1  0
 33 49  1  0
M  END
$$$$
