
     RDKit          3D

 54 57  0  0  0  0  0  0  0  0999 V2000
    2.0151    0.7729    2.6118 O   0  0  0  0  0  0  0  0  0  0  0  0
    0.9376    1.2115    2.2202 C   0  0  0  0  0  0  0  0  0  0  0  0
   -0.2066    1.4842    3.2040 C   0  0  0  0  0  0  0  0  0  0  0  0
   -1.5013    1.5774    2.6002 O   0  0  0  0  0  0  0  0  0  0  0  0
   -2.0985    0.3824    2.3586 C   0  0  0  0  0  0  0  0  0  0  0  0
   -1.5982   -0.7118    2.5516 O   0  0  0  0  0  0  0  0  0  0  0  0
   -3.4492    0.5831    1.7701 C   0  0  0  0  0  0  0  0  0  0  0  0
   -4.0546    1.8469    1.6925 C   0  0  0  0  0  0  0  0  0  0  0  0
   -5.3223    1.9837    1.1198 C   0  0  0  0  0  0  0  0  0  0  0  0
   -5.9860    0.8637    0.6239 C   0  0  0  0  0  0  0  0  0  0  0  0
   -5.3992   -0.4012    0.7272 C   0  0  0  0  0  0  0  0  0  0  0  0
   -4.1297   -0.5418    1.2854 C   0  0  0  0  0  0  0  0  0  0  0  0
   -6.0104   -1.5486    0.2916 O   0  0  0  0  0  0  0  0  0  0  0  0
   -7.4115   -1.3440    0.0738 C   0  0  0  0  0  0  0  0  0  0  0  0
   -7.6501   -0.0580   -0.7001 C   0  0  0  0  0  0  0  0  0  0  0  0
   -7.2154    1.0782    0.0571 O   0  0  0  0  0  0  0  0  0  0  0  0
    0.6192    1.5604    0.9170 N   0  0  0  0  0  0  0  0  0  0  0  0
    1.4450    1.4784   -0.2196 C   0  0  0  0  0  0  0  0  0  0  0  0
    0.8452    1.7072   -1.4658 C   0  0  0  0  0  0  0  0  0  0  0  0
    1.5914    1.6322   -2.6454 C   0  0  0  0  0  0  0  0  0  0  0  0
    2.9477    1.3235   -2.5914 C   0  0  0  0  0  0  0  0  0  0  0  0
    3.5475    1.0899   -1.3513 C   0  0  0  0  0  0  0  0  0  0  0  0
    5.2910    0.7350   -1.2665 S   0  0  0  0  0  6  0  0  0  0  0  0
    5.7980    1.3167   -0.0429 O   0  0  0  0  0  0  0  0  0  0  0  0
    5.8631    1.0849   -2.5507 O   0  0  0  0  0  0  0  0  0  0  0  0
    5.3465   -0.9470   -1.1231 N   0  0  0  0  0  0  0  0  0  0  0  0
    4.9421   -1.7719   -2.2942 C   0  0  0  0  0  0  0  0  0  0  0  0
    3.7961   -2.7188   -1.9241 C   0  0  0  0  0  0  0  0  0  0  0  0
    4.1253   -3.6227   -0.8610 O   0  0  0  0  0  0  0  0  0  0  0  0
    5.0526   -3.0760    0.0900 C   0  0  0  0  0  0  0  0  0  0  0  0
    4.9862   -1.5478    0.1905 C   0  0  0  0  0  0  0  0  0  0  0  0
    2.8088    1.1928   -0.1666 C   0  0  0  0  0  0  0  0  0  0  0  0
   -0.1990    0.7213    3.9916 H   0  0  0  0  0  0  0  0  0  0  0  0
   -0.0029    2.4497    3.6791 H   0  0  0  0  0  0  0  0  0  0  0  0
   -3.5572    2.7344    2.0759 H   0  0  0  0  0  0  0  0  0  0  0  0
   -5.7895    2.9631    1.0541 H   0  0  0  0  0  0  0  0  0  0  0  0
   -3.6803   -1.5309    1.3499 H   0  0  0  0  0  0  0  0  0  0  0  0
   -7.7881   -2.2020   -0.4918 H   0  0  0  0  0  0  0  0  0  0  0  0
   -7.9171   -1.3272    1.0473 H   0  0  0  0  0  0  0  0  0  0  0  0
   -8.7178    0.0686   -0.9044 H   0  0  0  0  0  0  0  0  0  0  0  0
   -7.1163   -0.0616   -1.6586 H   0  0  0  0  0  0  0  0  0  0  0  0
   -0.3441    1.8348    0.7625 H   0  0  0  0  0  0  0  0  0  0  0  0
   -0.2140    1.9430   -1.5378 H   0  0  0  0  0  0  0  0  0  0  0  0
    1.1135    1.8189   -3.6043 H   0  0  0  0  0  0  0  0  0  0  0  0
    3.5282    1.2791   -3.5104 H   0  0  0  0  0  0  0  0  0  0  0  0
    4.6432   -1.1513   -3.1434 H   0  0  0  0  0  0  0  0  0  0  0  0
    5.8211   -2.3500   -2.6025 H   0  0  0  0  0  0  0  0  0  0  0  0
    3.5128   -3.3237   -2.7914 H   0  0  0  0  0  0  0  0  0  0  0  0
    2.9090   -2.1512   -1.6196 H   0  0  0  0  0  0  0  0  0  0  0  0
    4.8312   -3.5298    1.0611 H   0  0  0  0  0  0  0  0  0  0  0  0
    6.0583   -3.3995   -0.2028 H   0  0  0  0  0  0  0  0  0  0  0  0
    3.9719   -1.2544    0.4735 H   0  0  0  0  0  0  0  0  0  0  0  0
    5.6903   -1.2040    0.9544 H   0  0  0  0  0  0  0  0  0  0  0  0
    3.3208    1.0575    0.7814 H   0  0  0  0  0  0  0  0  0  0  0  0
  1  2  2  0
  2  3  1  0
  3  4  1  0
  4  5  1  0
  5  6  2  0
  5  7  1  0
  7  8  2  0
  8  9  1  0
  9 10  2  0
 10 11  1  0
 11 12  2  0
 11 13  1  0
 13 14  1  0
 14 15  1  0
 15 16  1  0
  2 17  1  0
 17 18  1  0
 18 19  2  0
 19 20  1  0
 20 21  2  0
 21 22  1  0
 22 23  1  0
 23 24  2  0
 23 25  2  0
 23 26  1  0
 26 27  1  0
 27 28  1  0
 28 29  1  0
 29 30  1  0
 30 31  1  0
 22 32  2  0
 12  7  1  0
 32 18  1  0
 16 10  1  0
 31 26  1  0
  3 33  1  0
  3 34  1  0
  8 35  1  0
  9 36  1  0
 12 37  1  0
 14 38  1  0
 14 39  1  0
 15 40  1  0
 15 41  1  0
 17 42  1  0
 19 43  1  0
 20 44  1  0
 21 45  1  0
 27 46  1  0
 27 47  1  0
 28 48  1  0
 28 49  1  0
 30 50  1  0
 30 51  1  0
 31 52  1  0
 31 53  1  0
 32 54  1  0
M  END
$$$$
