
     RDKit          3D

 44 46  0  0  0  0  0  0  0  0999 V2000
    6.8057    1.0069    1.3830 C   0  0  0  0  0  0  0  0  0  0  0  0
    5.7622    0.0987    0.7964 C   0  0  0  0  0  0  0  0  0  0  0  0
    4.8233    0.5957   -0.1170 C   0  0  0  0  0  0  0  0  0  0  0  0
    3.8648   -0.2514   -0.6836 C   0  0  0  0  0  0  0  0  0  0  0  0
    3.8375   -1.6094   -0.3415 C   0  0  0  0  0  0  0  0  0  0  0  0
    2.8354   -2.5496   -0.9186 C   0  0  0  0  0  0  0  0  0  0  0  0
    3.0865   -3.7442   -1.0219 O   0  0  0  0  0  0  0  0  0  0  0  0
    1.6283   -2.0016   -1.2882 N   0  0  0  0  0  0  0  0  0  0  0  0
    0.5361   -2.8446   -1.7578 C   0  0  0  0  0  0  0  0  0  0  0  0
   -0.6522   -2.0556   -2.2998 C   0  0  0  0  0  0  0  0  0  0  0  0
   -1.6520   -2.5800   -2.7758 O   0  0  0  0  0  0  0  0  0  0  0  0
   -0.4530   -0.7121   -2.1653 O   0  0  0  0  0  0  0  0  0  0  0  0
   -1.5454    0.1365   -2.5534 C   0  0  0  0  0  0  0  0  0  0  0  0
   -1.9728    0.9890   -1.3998 C   0  0  0  0  0  0  0  0  0  0  0  0
   -1.2495    2.0123   -0.8186 C   0  0  0  0  0  0  0  0  0  0  0  0
   -2.1252    2.6856    0.4881 S   0  0  0  0  0  0  0  0  0  0  0  0
   -3.4208    1.5805    0.2008 C   0  0  0  0  0  0  0  0  0  0  0  0
   -4.6511    1.5683    1.0218 C   0  0  0  0  0  0  0  0  0  0  0  0
   -5.6335    0.5978    0.7486 C   0  0  0  0  0  0  0  0  0  0  0  0
   -6.8195    0.5350    1.4860 C   0  0  0  0  0  0  0  0  0  0  0  0
   -7.0470    1.4453    2.5148 C   0  0  0  0  0  0  0  0  0  0  0  0
   -6.0897    2.4146    2.8059 C   0  0  0  0  0  0  0  0  0  0  0  0
   -4.9022    2.4759    2.0665 C   0  0  0  0  0  0  0  0  0  0  0  0
   -3.2053    0.7538   -0.8093 N   0  0  0  0  0  0  0  0  0  0  0  0
    4.7949   -2.1156    0.5443 C   0  0  0  0  0  0  0  0  0  0  0  0
    5.7530   -1.2665    1.1078 C   0  0  0  0  0  0  0  0  0  0  0  0
    6.4248    2.0303    1.4753 H   0  0  0  0  0  0  0  0  0  0  0  0
    7.0901    0.6803    2.3897 H   0  0  0  0  0  0  0  0  0  0  0  0
    7.6964    1.0182    0.7462 H   0  0  0  0  0  0  0  0  0  0  0  0
    4.8398    1.6475   -0.3980 H   0  0  0  0  0  0  0  0  0  0  0  0
    3.1697    0.1582   -1.4106 H   0  0  0  0  0  0  0  0  0  0  0  0
    1.3840   -1.0687   -0.9782 H   0  0  0  0  0  0  0  0  0  0  0  0
    0.9167   -3.5012   -2.5477 H   0  0  0  0  0  0  0  0  0  0  0  0
    0.1945   -3.4444   -0.9071 H   0  0  0  0  0  0  0  0  0  0  0  0
   -2.4058   -0.4175   -2.9462 H   0  0  0  0  0  0  0  0  0  0  0  0
   -1.1820    0.7799   -3.3634 H   0  0  0  0  0  0  0  0  0  0  0  0
   -0.2708    2.3826   -1.0902 H   0  0  0  0  0  0  0  0  0  0  0  0
   -5.4768   -0.1254   -0.0525 H   0  0  0  0  0  0  0  0  0  0  0  0
   -7.5614   -0.2257    1.2533 H   0  0  0  0  0  0  0  0  0  0  0  0
   -7.9698    1.3983    3.0883 H   0  0  0  0  0  0  0  0  0  0  0  0
   -6.2646    3.1266    3.6098 H   0  0  0  0  0  0  0  0  0  0  0  0
   -4.1848    3.2502    2.3294 H   0  0  0  0  0  0  0  0  0  0  0  0
    4.7985   -3.1744    0.7971 H   0  0  0  0  0  0  0  0  0  0  0  0
    6.4929   -1.6800    1.7914 H   0  0  0  0  0  0  0  0  0  0  0  0
  1  2  1  0
  2  3  2  0
  3  4  1  0
  4  5  2  0
  5  6  1  0
  6  7  2  0
  6  8  1  0
  8  9  1  0
  9 10  1  0
 10 11  2  0
 10 12  1  0
 12 13  1  0
 13 14  1  0
 14 15  2  0
 15 16  1  0
 16 17  1  0
 17 18  1  0
 18 19  2  0
 19 20  1  0
 20 21  2  0
 21 22  1  0
 22 23  2  0
 17 24  2  0
  5 25  1  0
 25 26  2  0
 26  2  1  0
 24 14  1  0
 23 18  1  0
  1 27  1  0
  1 28  1  0
  1 29  1  0
  3 30  1  0
  4 31  1  0
  8 32  1  0
  9 33  1  0
  9 34  1  0
 13 35  1  0
 13 36  1  0
 15 37  1  0
 19 38  1  0
 20 39  1  0
 21 40  1  0
 22 41  1  0
 23 42  1  0
 25 43  1  0
 26 44  1  0
M  END
$$$$
