
     RDKit          3D

 41 42  0  0  0  0  0  0  0  0999 V2000
    6.8431    1.5255    1.3469 C   0  0  0  0  0  0  0  0  0  0  0  0
    5.8705    1.0774    0.4039 O   0  0  0  0  0  0  0  0  0  0  0  0
    4.8643    0.3399    0.9523 C   0  0  0  0  0  0  0  0  0  0  0  0
    4.7782    0.0664    2.1421 O   0  0  0  0  0  0  0  0  0  0  0  0
    3.9146   -0.0449   -0.0765 C   0  0  0  0  0  0  0  0  0  0  0  0
    3.9032    0.3173   -1.4145 C   0  0  0  0  0  0  0  0  0  0  0  0
    2.7495   -0.2286   -2.0087 C   0  0  0  0  0  0  0  0  0  0  0  0
    2.0488   -0.9299   -1.0405 C   0  0  0  0  0  0  0  0  0  0  0  0
    0.4820   -1.7610   -1.1598 S   0  0  0  0  0  6  0  0  0  0  0  0
    0.7783   -3.1613   -0.9763 O   0  0  0  0  0  0  0  0  0  0  0  0
   -0.1326   -1.2521   -2.3638 O   0  0  0  0  0  0  0  0  0  0  0  0
   -0.4416   -1.2647    0.1504 N   0  0  0  0  0  0  0  0  0  0  0  0
   -0.8489    0.1474    0.1759 C   0  0  0  0  0  0  0  0  0  0  0  0
   -2.3484    0.2887    0.1781 C   0  0  0  0  0  0  0  0  0  0  0  0
   -3.0653    0.2778    1.3805 C   0  0  0  0  0  0  0  0  0  0  0  0
   -4.4589    0.3726    1.3707 C   0  0  0  0  0  0  0  0  0  0  0  0
   -5.1589    0.4736    0.1668 C   0  0  0  0  0  0  0  0  0  0  0  0
   -6.5175    0.5593    0.2985 O   0  0  0  0  0  0  0  0  0  0  0  0
   -7.2615    0.7783   -0.8944 C   0  0  0  0  0  0  0  0  0  0  0  0
   -4.4499    0.4676   -1.0344 C   0  0  0  0  0  0  0  0  0  0  0  0
   -3.0538    0.3712   -1.0289 C   0  0  0  0  0  0  0  0  0  0  0  0
    2.8128   -0.8720    0.1140 N   0  0  0  0  0  0  0  0  0  0  0  0
    2.5146   -1.5467    1.3642 C   0  0  0  0  0  0  0  0  0  0  0  0
    7.3430    0.6732    1.8170 H   0  0  0  0  0  0  0  0  0  0  0  0
    6.3808    2.1691    2.1010 H   0  0  0  0  0  0  0  0  0  0  0  0
    7.5941    2.1079    0.8058 H   0  0  0  0  0  0  0  0  0  0  0  0
    4.6398    0.9462   -1.9014 H   0  0  0  0  0  0  0  0  0  0  0  0
    2.4264   -0.1086   -3.0365 H   0  0  0  0  0  0  0  0  0  0  0  0
   -1.2217   -1.9101    0.2851 H   0  0  0  0  0  0  0  0  0  0  0  0
   -0.4377    0.5963    1.0885 H   0  0  0  0  0  0  0  0  0  0  0  0
   -0.4182    0.7275   -0.6482 H   0  0  0  0  0  0  0  0  0  0  0  0
   -2.5474    0.1907    2.3331 H   0  0  0  0  0  0  0  0  0  0  0  0
   -5.0056    0.3664    2.3099 H   0  0  0  0  0  0  0  0  0  0  0  0
   -8.3176    0.8593   -0.6200 H   0  0  0  0  0  0  0  0  0  0  0  0
   -7.1599   -0.0659   -1.5847 H   0  0  0  0  0  0  0  0  0  0  0  0
   -6.9687    1.7177   -1.3743 H   0  0  0  0  0  0  0  0  0  0  0  0
   -4.9510    0.5270   -1.9956 H   0  0  0  0  0  0  0  0  0  0  0  0
   -2.5199    0.3543   -1.9785 H   0  0  0  0  0  0  0  0  0  0  0  0
    3.4371   -1.9738    1.7665 H   0  0  0  0  0  0  0  0  0  0  0  0
    1.8163   -2.3671    1.2070 H   0  0  0  0  0  0  0  0  0  0  0  0
    2.0877   -0.8119    2.0512 H   0  0  0  0  0  0  0  0  0  0  0  0
  1  2  1  0
  2  3  1  0
  3  4  2  0
  3  5  1  0
  5  6  2  0
  6  7  1  0
  7  8  2  0
  8  9  1  0
  9 10  2  0
  9 11  2  0
  9 12  1  0
 12 13  1  0
 13 14  1  0
 14 15  2  0
 15 16  1  0
 16 17  2  0
 17 18  1  0
 18 19  1  0
 17 20  1  0
 20 21  2  0
  8 22  1  0
 22 23  1  0
 22  5  1  0
 21 14  1  0
  1 24  1  0
  1 25  1  0
  1 26  1  0
  6 27  1  0
  7 28  1  0
 12 29  1  0
 13 30  1  0
 13 31  1  0
 15 32  1  0
 16 33  1  0
 19 34  1  0
 19 35  1  0
 19 36  1  0
 20 37  1  0
 21 38  1  0
 23 39  1  0
 23 40  1  0
 23 41  1  0
M  END
$$$$
