
     RDKit          3D

 39 40  0  0  0  0  0  0  0  0999 V2000
   -1.5524    0.3717   -2.4152 C   0  0  0  0  0  0  0  0  0  0  0  0
   -2.4100    0.1050   -1.1950 C   0  0  0  0  0  0  0  0  0  0  0  0
   -1.8848   -0.1535    0.0182 C   0  0  0  0  0  0  0  0  0  0  0  0
   -0.4212   -0.2770    0.2585 C   0  0  0  0  0  0  0  0  0  0  0  0
    0.3753   -0.9488   -0.5145 N   0  0  0  0  0  0  0  0  0  0  0  0
    1.7122   -0.9477   -0.2056 N   0  0  0  0  0  0  0  0  0  0  0  0
    2.4161    0.1710    0.2285 C   0  0  0  0  0  0  0  0  0  0  0  0
    1.9092    1.2515    0.5316 O   0  0  0  0  0  0  0  0  0  0  0  0
    3.8974    0.0371    0.3571 C   0  0  0  0  0  0  0  0  0  0  0  0
    4.6289   -0.9149   -0.3684 C   0  0  0  0  0  0  0  0  0  0  0  0
    6.0131   -1.0088   -0.1963 C   0  0  0  0  0  0  0  0  0  0  0  0
    6.9887   -2.2989   -1.1774 Br  0  0  0  0  0  0  0  0  0  0  0  0
    6.6851   -0.1628    0.6831 C   0  0  0  0  0  0  0  0  0  0  0  0
    5.9694    0.8009    1.3900 C   0  0  0  0  0  0  0  0  0  0  0  0
    4.5895    0.9063    1.2195 C   0  0  0  0  0  0  0  0  0  0  0  0
    3.9761    1.8982    1.9388 O   0  0  0  0  0  0  0  0  0  0  0  0
   -2.7821   -0.2904    1.1880 C   0  0  0  0  0  0  0  0  0  0  0  0
   -2.3036   -0.5524    2.2915 O   0  0  0  0  0  0  0  0  0  0  0  0
   -4.1308   -0.1181    0.9627 N   0  0  0  0  0  0  0  0  0  0  0  0
   -5.0366   -0.2405    2.0897 C   0  0  0  0  0  0  0  0  0  0  0  0
   -4.6961    0.0358   -0.2940 C   0  0  0  0  0  0  0  0  0  0  0  0
   -5.9181    0.0687   -0.4519 O   0  0  0  0  0  0  0  0  0  0  0  0
   -3.7996    0.1513   -1.3596 N   0  0  0  0  0  0  0  0  0  0  0  0
   -4.3808    0.3390   -2.6889 C   0  0  0  0  0  0  0  0  0  0  0  0
   -1.5182   -0.5132   -3.0587 H   0  0  0  0  0  0  0  0  0  0  0  0
   -0.5271    0.6596   -2.1696 H   0  0  0  0  0  0  0  0  0  0  0  0
   -1.9407    1.2148   -2.9962 H   0  0  0  0  0  0  0  0  0  0  0  0
   -0.0782    0.1903    1.1989 H   0  0  0  0  0  0  0  0  0  0  0  0
    2.2032   -1.7502   -0.5809 H   0  0  0  0  0  0  0  0  0  0  0  0
    4.1528   -1.5715   -1.0884 H   0  0  0  0  0  0  0  0  0  0  0  0
    7.7613   -0.2366    0.8176 H   0  0  0  0  0  0  0  0  0  0  0  0
    6.4840    1.4764    2.0691 H   0  0  0  0  0  0  0  0  0  0  0  0
    3.0501    1.9814    1.6169 H   0  0  0  0  0  0  0  0  0  0  0  0
   -5.8642    0.4691    1.9911 H   0  0  0  0  0  0  0  0  0  0  0  0
   -4.5286   -0.0551    3.0402 H   0  0  0  0  0  0  0  0  0  0  0  0
   -5.4442   -1.2565    2.0952 H   0  0  0  0  0  0  0  0  0  0  0  0
   -5.4568    0.1437   -2.7023 H   0  0  0  0  0  0  0  0  0  0  0  0
   -3.9162   -0.3501   -3.4007 H   0  0  0  0  0  0  0  0  0  0  0  0
   -4.2221    1.3754   -3.0023 H   0  0  0  0  0  0  0  0  0  0  0  0
  1  2  1  0
  2  3  2  0
  3  4  1  0
  4  5  2  3
  5  6  1  0
  6  7  1  0
  7  8  2  0
  7  9  1  0
  9 10  2  0
 10 11  1  0
 11 12  1  0
 11 13  2  0
 13 14  1  0
 14 15  2  0
 15 16  1  0
  3 17  1  0
 17 18  2  0
 17 19  1  0
 19 20  1  0
 19 21  1  0
 21 22  2  0
 21 23  1  0
 23 24  1  0
 23  2  1  0
 15  9  1  0
  1 25  1  0
  1 26  1  0
  1 27  1  0
  4 28  1  0
  6 29  1  0
 10 30  1  0
 13 31  1  0
 14 32  1  0
 16 33  1  0
 20 34  1  0
 20 35  1  0
 20 36  1  0
 24 37  1  0
 24 38  1  0
 24 39  1  0
M  END
$$$$
