
     RDKit          3D

 65 69  0  0  0  0  0  0  0  0999 V2000
    5.8834   -0.3924   -2.9781 O   0  0  0  0  0  0  0  0  0  0  0  0
    5.3972   -0.3681   -1.8350 C   0  0  0  0  0  0  0  0  0  0  0  0
    5.8276   -1.4033   -0.7730 C   0  0  0  0  0  0  0  0  0  0  0  0
    6.6718   -2.6187   -1.2762 C   0  0  0  0  0  0  0  0  0  0  0  0
    5.9455   -3.4767   -0.2260 C   0  0  0  0  0  0  0  0  0  0  0  0
    4.7847   -2.4714   -0.3195 C   0  0  0  0  0  0  0  0  0  0  0  0
    4.4231    0.5790   -1.5346 N   0  0  0  0  0  0  0  0  0  0  0  0
    3.9153    1.4447   -2.6105 C   0  0  0  0  0  0  0  0  0  0  0  0
    2.7007    2.1909   -2.0611 C   0  0  0  0  0  0  0  0  0  0  0  0
    2.8248    1.9238   -0.5941 C   0  0  0  0  0  0  0  0  0  0  0  0
    2.0572    2.4934    0.4135 C   0  0  0  0  0  0  0  0  0  0  0  0
    2.3095    2.0947    1.7258 C   0  0  0  0  0  0  0  0  0  0  0  0
    1.3763    2.8031    3.0623 S   0  0  0  0  0  6  0  0  0  0  0  0
    0.6640    3.9552    2.5573 O   0  0  0  0  0  0  0  0  0  0  0  0
    2.2481    2.8833    4.2130 O   0  0  0  0  0  0  0  0  0  0  0  0
    0.2586    1.6045    3.3968 N   0  0  0  0  0  0  0  0  0  0  0  0
   -0.6968    1.1792    2.3686 C   0  0  0  0  0  0  0  0  0  0  0  0
   -1.9965    0.6969    3.0451 C   0  0  0  0  0  0  0  0  0  0  0  0
   -3.0989    0.2475    2.1849 N   0  0  0  0  0  0  0  0  0  0  0  0
   -3.6832    1.3408    1.3788 C   0  0  0  0  0  0  0  0  0  0  0  0
   -4.9030    0.8690    0.5497 C   0  0  0  0  0  0  0  0  0  0  0  0
   -4.5184   -0.2643   -0.3215 N   0  0  0  0  0  0  0  0  0  0  0  0
   -5.4504   -0.6819   -1.2943 C   0  0  0  0  0  0  0  0  0  0  0  0
   -4.9959   -1.4906   -2.3541 C   0  0  0  0  0  0  0  0  0  0  0  0
   -5.8529   -1.9335   -3.3692 C   0  0  0  0  0  0  0  0  0  0  0  0
   -7.1960   -1.5729   -3.3554 C   0  0  0  0  0  0  0  0  0  0  0  0
   -7.6764   -0.7680   -2.3274 C   0  0  0  0  0  0  0  0  0  0  0  0
   -6.8138   -0.3272   -1.3205 C   0  0  0  0  0  0  0  0  0  0  0  0
   -7.3512    0.4370   -0.3557 F   0  0  0  0  0  0  0  0  0  0  0  0
   -3.9434   -1.3843    0.4632 C   0  0  0  0  0  0  0  0  0  0  0  0
   -2.7443   -0.8848    1.3083 C   0  0  0  0  0  0  0  0  0  0  0  0
    3.3262    1.1709    2.0149 C   0  0  0  0  0  0  0  0  0  0  0  0
    4.0864    0.6064    0.9814 C   0  0  0  0  0  0  0  0  0  0  0  0
    3.8198    0.9725   -0.3269 C   0  0  0  0  0  0  0  0  0  0  0  0
    6.3619   -0.9224    0.0577 H   0  0  0  0  0  0  0  0  0  0  0  0
    7.7538   -2.5307   -1.1436 H   0  0  0  0  0  0  0  0  0  0  0  0
    6.4644   -2.9263   -2.3087 H   0  0  0  0  0  0  0  0  0  0  0  0
    6.4402   -3.4892    0.7526 H   0  0  0  0  0  0  0  0  0  0  0  0
    5.7143   -4.5030   -0.5232 H   0  0  0  0  0  0  0  0  0  0  0  0
    4.0401   -2.7233   -1.0844 H   0  0  0  0  0  0  0  0  0  0  0  0
    4.2677   -2.2853    0.6245 H   0  0  0  0  0  0  0  0  0  0  0  0
    3.6637    0.8502   -3.4958 H   0  0  0  0  0  0  0  0  0  0  0  0
    4.7171    2.1410   -2.8873 H   0  0  0  0  0  0  0  0  0  0  0  0
    2.7426    3.2577   -2.2992 H   0  0  0  0  0  0  0  0  0  0  0  0
    1.7693    1.7611   -2.4446 H   0  0  0  0  0  0  0  0  0  0  0  0
    1.2899    3.2273    0.1821 H   0  0  0  0  0  0  0  0  0  0  0  0
    0.5374    0.9518    4.1268 H   0  0  0  0  0  0  0  0  0  0  0  0
   -0.9156    2.0066    1.6884 H   0  0  0  0  0  0  0  0  0  0  0  0
   -0.2424    0.3653    1.7957 H   0  0  0  0  0  0  0  0  0  0  0  0
   -2.3705    1.4954    3.6999 H   0  0  0  0  0  0  0  0  0  0  0  0
   -1.7462   -0.1250    3.7289 H   0  0  0  0  0  0  0  0  0  0  0  0
   -4.0143    2.1499    2.0405 H   0  0  0  0  0  0  0  0  0  0  0  0
   -2.9353    1.7573    0.6924 H   0  0  0  0  0  0  0  0  0  0  0  0
   -5.2498    1.7157   -0.0558 H   0  0  0  0  0  0  0  0  0  0  0  0
   -5.7032    0.5725    1.2404 H   0  0  0  0  0  0  0  0  0  0  0  0
   -3.9445   -1.7624   -2.4113 H   0  0  0  0  0  0  0  0  0  0  0  0
   -5.4638   -2.5514   -4.1749 H   0  0  0  0  0  0  0  0  0  0  0  0
   -7.8629   -1.9134   -4.1426 H   0  0  0  0  0  0  0  0  0  0  0  0
   -8.7213   -0.4743   -2.2975 H   0  0  0  0  0  0  0  0  0  0  0  0
   -3.5794   -2.1898   -0.1848 H   0  0  0  0  0  0  0  0  0  0  0  0
   -4.7112   -1.8097    1.1236 H   0  0  0  0  0  0  0  0  0  0  0  0
   -2.3810   -1.7215    1.9165 H   0  0  0  0  0  0  0  0  0  0  0  0
   -1.9383   -0.5997    0.6206 H   0  0  0  0  0  0  0  0  0  0  0  0
    3.5411    0.8967    3.0457 H   0  0  0  0  0  0  0  0  0  0  0  0
    4.8775   -0.0761    1.2552 H   0  0  0  0  0  0  0  0  0  0  0  0
  1  2  2  0
  2  3  1  0
  3  4  1  0
  4  5  1  0
  5  6  1  0
  2  7  1  0
  7  8  1  0
  8  9  1  0
  9 10  1  0
 10 11  2  0
 11 12  1  0
 12 13  1  0
 13 14  2  0
 13 15  2  0
 13 16  1  0
 16 17  1  0
 17 18  1  0
 18 19  1  0
 19 20  1  0
 20 21  1  0
 21 22  1  0
 22 23  1  0
 23 24  2  0
 24 25  1  0
 25 26  2  0
 26 27  1  0
 27 28  2  0
 28 29  1  0
 22 30  1  0
 30 31  1  0
 12 32  2  0
 32 33  1  0
 33 34  2  0
  6  3  1  0
 34  7  1  0
 34 10  1  0
 31 19  1  0
 28 23  1  0
  3 35  1  0
  4 36  1  0
  4 37  1  0
  5 38  1  0
  5 39  1  0
  6 40  1  0
  6 41  1  0
  8 42  1  0
  8 43  1  0
  9 44  1  0
  9 45  1  0
 11 46  1  0
 16 47  1  0
 17 48  1  0
 17 49  1  0
 18 50  1  0
 18 51  1  0
 20 52  1  0
 20 53  1  0
 21 54  1  0
 21 55  1  0
 24 56  1  0
 25 57  1  0
 26 58  1  0
 27 59  1  0
 30 60  1  0
 30 61  1  0
 31 62  1  0
 31 63  1  0
 32 64  1  0
 33 65  1  0
M  END
$$$$
