
     RDKit          3D

 32 33  0  0  0  0  0  0  0  0999 V2000
    4.1781    0.6646   -0.4253 C   0  0  0  0  0  0  0  0  0  0  0  0
    4.2150   -0.8435   -0.2455 C   0  0  0  0  0  0  0  0  0  0  0  0
    2.9017   -1.4179    0.8733 S   0  0  0  0  0  0  0  0  0  0  0  0
    1.4771   -1.2134   -0.0943 C   0  0  0  0  0  0  0  0  0  0  0  0
    1.2279   -1.4797   -1.4189 C   0  0  0  0  0  0  0  0  0  0  0  0
   -0.0528   -1.1351   -1.7537 N   0  0  0  0  0  0  0  0  0  0  0  0
   -0.6146   -0.6922   -0.6437 C   0  0  0  0  0  0  0  0  0  0  0  0
   -1.9913   -0.2146   -0.5475 C   0  0  0  0  0  0  0  0  0  0  0  0
   -2.3419    1.0206   -1.1046 C   0  0  0  0  0  0  0  0  0  0  0  0
   -3.6546    1.4877   -1.0132 C   0  0  0  0  0  0  0  0  0  0  0  0
   -4.6257    0.7177   -0.3741 C   0  0  0  0  0  0  0  0  0  0  0  0
   -4.2887   -0.5224    0.1675 C   0  0  0  0  0  0  0  0  0  0  0  0
   -2.9760   -0.9900    0.0774 C   0  0  0  0  0  0  0  0  0  0  0  0
    0.2950   -0.7154    0.4025 N   0  0  0  0  0  0  0  0  0  0  0  0
    0.0399   -0.2464    1.7540 C   0  0  0  0  0  0  0  0  0  0  0  0
    0.3818    1.2236    1.9317 C   0  0  0  0  0  0  0  0  0  0  0  0
    4.2786    1.1852    0.5331 H   0  0  0  0  0  0  0  0  0  0  0  0
    5.0101    0.9824   -1.0625 H   0  0  0  0  0  0  0  0  0  0  0  0
    3.2523    0.9967   -0.9055 H   0  0  0  0  0  0  0  0  0  0  0  0
    5.1741   -1.1287    0.1989 H   0  0  0  0  0  0  0  0  0  0  0  0
    4.1446   -1.3517   -1.2120 H   0  0  0  0  0  0  0  0  0  0  0  0
    1.9008   -1.8969   -2.1557 H   0  0  0  0  0  0  0  0  0  0  0  0
   -1.5918    1.6183   -1.6181 H   0  0  0  0  0  0  0  0  0  0  0  0
   -3.9200    2.4473   -1.4491 H   0  0  0  0  0  0  0  0  0  0  0  0
   -5.6491    1.0786   -0.3096 H   0  0  0  0  0  0  0  0  0  0  0  0
   -5.0497   -1.1298    0.6505 H   0  0  0  0  0  0  0  0  0  0  0  0
   -2.7264   -1.9667    0.4852 H   0  0  0  0  0  0  0  0  0  0  0  0
   -1.0131   -0.4208    1.9924 H   0  0  0  0  0  0  0  0  0  0  0  0
    0.6132   -0.8648    2.4517 H   0  0  0  0  0  0  0  0  0  0  0  0
    1.4390    1.4163    1.7217 H   0  0  0  0  0  0  0  0  0  0  0  0
   -0.2103    1.8529    1.2594 H   0  0  0  0  0  0  0  0  0  0  0  0
    0.1768    1.5382    2.9597 H   0  0  0  0  0  0  0  0  0  0  0  0
  1  2  1  0
  2  3  1  0
  3  4  1  0
  4  5  2  0
  5  6  1  0
  6  7  2  0
  7  8  1  0
  8  9  2  0
  9 10  1  0
 10 11  2  0
 11 12  1  0
 12 13  2  0
  7 14  1  0
 14 15  1  0
 15 16  1  0
 14  4  1  0
 13  8  1  0
  1 17  1  0
  1 18  1  0
  1 19  1  0
  2 20  1  0
  2 21  1  0
  5 22  1  0
  9 23  1  0
 10 24  1  0
 11 25  1  0
 12 26  1  0
 13 27  1  0
 15 28  1  0
 15 29  1  0
 16 30  1  0
 16 31  1  0
 16 32  1  0
M  END
$$$$
