
     RDKit          3D

 36 37  0  0  0  0  0  0  0  0999 V2000
    1.2998    0.5258   -1.5360 O   0  0  0  0  0  0  0  0  0  0  0  0
    0.5301    1.1730   -0.8268 C   0  0  0  0  0  0  0  0  0  0  0  0
   -0.7836    1.7619   -1.3427 C   0  0  0  0  0  0  0  0  0  0  0  0
   -1.8926    0.8798   -1.1712 O   0  0  0  0  0  0  0  0  0  0  0  0
   -2.3730    0.8036    0.0905 C   0  0  0  0  0  0  0  0  0  0  0  0
   -1.9082    1.3473    1.0792 O   0  0  0  0  0  0  0  0  0  0  0  0
   -3.4950   -0.1469    0.1302 C   0  0  0  0  0  0  0  0  0  0  0  0
   -3.3861   -1.2233    1.0221 C   0  0  0  0  0  0  0  0  0  0  0  0
   -4.4147   -2.1590    1.0988 C   0  0  0  0  0  0  0  0  0  0  0  0
   -4.2804   -3.4881    2.1809 Cl  0  0  0  0  0  0  0  0  0  0  0  0
   -5.5519   -2.0263    0.3034 C   0  0  0  0  0  0  0  0  0  0  0  0
   -5.6679   -0.9416   -0.5704 C   0  0  0  0  0  0  0  0  0  0  0  0
   -4.6426    0.0061   -0.6565 C   0  0  0  0  0  0  0  0  0  0  0  0
   -4.8852    1.3561   -1.7052 Cl  0  0  0  0  0  0  0  0  0  0  0  0
    0.7926    1.4240    0.5057 N   0  0  0  0  0  0  0  0  0  0  0  0
    1.8985    0.7544    1.1668 C   0  0  0  0  0  0  0  0  0  0  0  0
    3.2758    1.1973    0.6487 C   0  0  0  0  0  0  0  0  0  0  0  0
    4.2090    0.0910    0.5879 N   0  0  0  0  0  0  0  0  0  0  0  0
    4.4291   -0.7033   -0.5128 C   0  0  0  0  0  0  0  0  0  0  0  0
    3.7648   -0.5207   -1.6889 O   0  0  0  0  0  0  0  0  0  0  0  0
    5.3434   -1.6604   -0.3300 C   0  0  0  0  0  0  0  0  0  0  0  0
    5.9755   -1.6404    1.2857 S   0  0  0  0  0  0  0  0  0  0  0  0
    4.9389   -0.2693    1.7130 C   0  0  0  0  0  0  0  0  0  0  0  0
    4.8956    0.2330    2.8242 O   0  0  0  0  0  0  0  0  0  0  0  0
   -0.6690    1.9511   -2.4155 H   0  0  0  0  0  0  0  0  0  0  0  0
   -0.9795    2.7340   -0.8730 H   0  0  0  0  0  0  0  0  0  0  0  0
   -2.5022   -1.3300    1.6471 H   0  0  0  0  0  0  0  0  0  0  0  0
   -6.3551   -2.7576    0.3642 H   0  0  0  0  0  0  0  0  0  0  0  0
   -6.5664   -0.8376   -1.1754 H   0  0  0  0  0  0  0  0  0  0  0  0
   -0.0232    1.6525    1.0791 H   0  0  0  0  0  0  0  0  0  0  0  0
    1.8162    0.9658    2.2384 H   0  0  0  0  0  0  0  0  0  0  0  0
    1.7489   -0.3235    1.0310 H   0  0  0  0  0  0  0  0  0  0  0  0
    3.2323    1.6828   -0.3321 H   0  0  0  0  0  0  0  0  0  0  0  0
    3.6767    1.9556    1.3334 H   0  0  0  0  0  0  0  0  0  0  0  0
    2.8980   -0.0916   -1.5236 H   0  0  0  0  0  0  0  0  0  0  0  0
    5.6511   -2.3754   -1.0795 H   0  0  0  0  0  0  0  0  0  0  0  0
  1  2  2  0
  2  3  1  0
  3  4  1  0
  4  5  1  0
  5  6  2  0
  5  7  1  0
  7  8  2  0
  8  9  1  0
  9 10  1  0
  9 11  2  0
 11 12  1  0
 12 13  2  0
 13 14  1  0
  2 15  1  0
 15 16  1  0
 16 17  1  0
 17 18  1  0
 18 19  1  0
 19 20  1  0
 19 21  2  0
 21 22  1  0
 22 23  1  0
 23 24  2  0
 13  7  1  0
 23 18  1  0
  3 25  1  0
  3 26  1  0
  8 27  1  0
 11 28  1  0
 12 29  1  0
 15 30  1  0
 16 31  1  0
 16 32  1  0
 17 33  1  0
 17 34  1  0
 20 35  1  0
 21 36  1  0
M  END
$$$$
