
     RDKit          3D

 46 48  0  0  0  0  0  0  0  0999 V2000
   -7.6420   -2.2627    1.3393 C   0  0  0  0  0  0  0  0  0  0  0  0
   -7.3697   -1.2392    0.3898 O   0  0  0  0  0  0  0  0  0  0  0  0
   -6.1369   -0.6479    0.4572 C   0  0  0  0  0  0  0  0  0  0  0  0
   -5.1662   -0.8918    1.4254 C   0  0  0  0  0  0  0  0  0  0  0  0
   -3.9462   -0.2115    1.3787 C   0  0  0  0  0  0  0  0  0  0  0  0
   -3.6766    0.7075    0.3560 C   0  0  0  0  0  0  0  0  0  0  0  0
   -2.4005    1.4399    0.3414 C   0  0  0  0  0  0  0  0  0  0  0  0
   -1.1679    0.9237    0.2262 C   0  0  0  0  0  0  0  0  0  0  0  0
    0.2496    1.9481    0.2005 S   0  0  0  0  0  0  0  0  0  0  0  0
    1.2905    0.5771    0.0132 C   0  0  0  0  0  0  0  0  0  0  0  0
    2.6207    0.6802   -0.0816 C   0  0  0  0  0  0  0  0  0  0  0  0
    3.4949   -0.5133   -0.2407 C   0  0  0  0  0  0  0  0  0  0  0  0
    3.0310   -1.6332   -0.4359 O   0  0  0  0  0  0  0  0  0  0  0  0
    4.9676   -0.3149   -0.1912 C   0  0  0  0  0  0  0  0  0  0  0  0
    5.5670    0.6835    0.5853 C   0  0  0  0  0  0  0  0  0  0  0  0
    6.9588    0.8195    0.5983 C   0  0  0  0  0  0  0  0  0  0  0  0
    7.7656   -0.0361   -0.1616 C   0  0  0  0  0  0  0  0  0  0  0  0
    9.2603    0.0902   -0.1172 C   0  0  0  0  0  0  0  0  0  0  0  0
    7.1638   -1.0534   -0.9108 C   0  0  0  0  0  0  0  0  0  0  0  0
    5.7740   -1.1927   -0.9256 C   0  0  0  0  0  0  0  0  0  0  0  0
    0.5857   -0.5852   -0.0205 N   0  0  0  0  0  0  0  0  0  0  0  0
   -0.7801   -0.5136    0.0813 C   0  0  0  0  0  0  0  0  0  0  0  0
   -1.5231   -1.4796    0.0605 O   0  0  0  0  0  0  0  0  0  0  0  0
   -4.6608    0.9660   -0.6172 C   0  0  0  0  0  0  0  0  0  0  0  0
   -4.3401    1.9009   -1.5715 O   0  0  0  0  0  0  0  0  0  0  0  0
   -5.2497    2.0660   -2.6516 C   0  0  0  0  0  0  0  0  0  0  0  0
   -5.8820    0.2843   -0.5553 C   0  0  0  0  0  0  0  0  0  0  0  0
   -8.6389   -2.6600    1.1253 H   0  0  0  0  0  0  0  0  0  0  0  0
   -7.6559   -1.8607    2.3577 H   0  0  0  0  0  0  0  0  0  0  0  0
   -6.9281   -3.0881    1.2484 H   0  0  0  0  0  0  0  0  0  0  0  0
   -5.3202   -1.6036    2.2290 H   0  0  0  0  0  0  0  0  0  0  0  0
   -3.2004   -0.4189    2.1429 H   0  0  0  0  0  0  0  0  0  0  0  0
   -2.5273    2.5197    0.3942 H   0  0  0  0  0  0  0  0  0  0  0  0
    3.0933    1.6545   -0.0641 H   0  0  0  0  0  0  0  0  0  0  0  0
    4.9781    1.3491    1.2098 H   0  0  0  0  0  0  0  0  0  0  0  0
    7.4124    1.5942    1.2138 H   0  0  0  0  0  0  0  0  0  0  0  0
    9.7079   -0.2364   -1.0617 H   0  0  0  0  0  0  0  0  0  0  0  0
    9.5593    1.1318    0.0406 H   0  0  0  0  0  0  0  0  0  0  0  0
    9.6633   -0.5212    0.6960 H   0  0  0  0  0  0  0  0  0  0  0  0
    7.7730   -1.7479   -1.4861 H   0  0  0  0  0  0  0  0  0  0  0  0
    5.3231   -1.9909   -1.5128 H   0  0  0  0  0  0  0  0  0  0  0  0
    1.0508   -1.4815   -0.1477 H   0  0  0  0  0  0  0  0  0  0  0  0
   -6.2007    2.4824   -2.3038 H   0  0  0  0  0  0  0  0  0  0  0  0
   -5.4010    1.1256   -3.1920 H   0  0  0  0  0  0  0  0  0  0  0  0
   -4.8100    2.7835   -3.3510 H   0  0  0  0  0  0  0  0  0  0  0  0
   -6.6662    0.4565   -1.2849 H   0  0  0  0  0  0  0  0  0  0  0  0
  1  2  1  0
  2  3  1  0
  3  4  2  0
  4  5  1  0
  5  6  2  0
  6  7  1  0
  7  8  2  3
  8  9  1  0
  9 10  1  0
 10 11  2  3
 11 12  1  0
 12 13  2  0
 12 14  1  0
 14 15  2  0
 15 16  1  0
 16 17  2  0
 17 18  1  0
 17 19  1  0
 19 20  2  0
 10 21  1  0
 21 22  1  0
 22 23  2  0
  6 24  1  0
 24 25  1  0
 25 26  1  0
 24 27  2  0
 27  3  1  0
 22  8  1  0
 20 14  1  0
  1 28  1  0
  1 29  1  0
  1 30  1  0
  4 31  1  0
  5 32  1  0
  7 33  1  0
 11 34  1  0
 15 35  1  0
 16 36  1  0
 18 37  1  0
 18 38  1  0
 18 39  1  0
 19 40  1  0
 20 41  1  0
 21 42  1  0
 26 43  1  0
 26 44  1  0
 26 45  1  0
 27 46  1  0
M  END
$$$$
