
     RDKit          3D

 38 40  0  0  0  0  0  0  0  0999 V2000
    2.6799   -1.5797   -1.3745 C   0  0  0  0  0  0  0  0  0  0  0  0
    1.5283   -1.7681   -0.4282 C   0  0  0  0  0  0  0  0  0  0  0  0
    1.7917   -2.1295    0.9014 C   0  0  0  0  0  0  0  0  0  0  0  0
    0.7470   -2.3133    1.8047 C   0  0  0  0  0  0  0  0  0  0  0  0
    1.0921   -2.6593    3.0830 O   0  0  0  0  0  0  0  0  0  0  0  0
   -0.5844   -2.1518    1.4121 C   0  0  0  0  0  0  0  0  0  0  0  0
   -1.9139   -2.4205    2.5741 S   0  0  0  0  0  0  0  0  0  0  0  0
   -2.8177   -0.9329    2.4512 C   0  0  0  0  0  0  0  0  0  0  0  0
   -2.2440    0.2930    2.2350 N   0  0  0  0  0  0  0  0  0  0  0  0
   -3.2801    1.0962    2.1724 C   0  0  0  0  0  0  0  0  0  0  0  0
   -4.4198    0.3814    2.3605 N   0  0  0  0  0  0  0  0  0  0  0  0
   -4.1493   -0.9166    2.5653 N   0  0  0  0  0  0  0  0  0  0  0  0
   -0.8510   -1.8088    0.0818 C   0  0  0  0  0  0  0  0  0  0  0  0
    0.1920   -1.5971   -0.8274 C   0  0  0  0  0  0  0  0  0  0  0  0
   -0.1161   -1.1783   -2.1548 N   0  0  0  0  0  0  0  0  0  0  0  0
   -0.8457    0.3218   -2.4196 S   0  0  0  0  0  6  0  0  0  0  0  0
   -0.7566    0.5569   -3.8463 O   0  0  0  0  0  0  0  0  0  0  0  0
   -2.1188    0.3838   -1.7349 O   0  0  0  0  0  0  0  0  0  0  0  0
    0.2602    1.4691   -1.6236 C   0  0  0  0  0  0  0  0  0  0  0  0
    0.0901    1.7677   -0.2677 C   0  0  0  0  0  0  0  0  0  0  0  0
    0.9512    2.6741    0.3532 C   0  0  0  0  0  0  0  0  0  0  0  0
    1.9606    3.2896   -0.3871 C   0  0  0  0  0  0  0  0  0  0  0  0
    3.0203    4.4073    0.3791 Cl  0  0  0  0  0  0  0  0  0  0  0  0
    2.1154    3.0106   -1.7461 C   0  0  0  0  0  0  0  0  0  0  0  0
    1.2598    2.1008   -2.3717 C   0  0  0  0  0  0  0  0  0  0  0  0
    2.6867   -0.5622   -1.7749 H   0  0  0  0  0  0  0  0  0  0  0  0
    2.6122   -2.2956   -2.1999 H   0  0  0  0  0  0  0  0  0  0  0  0
    3.6418   -1.7417   -0.8764 H   0  0  0  0  0  0  0  0  0  0  0  0
    2.8136   -2.2685    1.2476 H   0  0  0  0  0  0  0  0  0  0  0  0
    0.2634   -2.7331    3.5919 H   0  0  0  0  0  0  0  0  0  0  0  0
   -3.2682    2.1621    1.9954 H   0  0  0  0  0  0  0  0  0  0  0  0
   -5.3833    0.6974    2.3633 H   0  0  0  0  0  0  0  0  0  0  0  0
   -1.8816   -1.7018   -0.2509 H   0  0  0  0  0  0  0  0  0  0  0  0
    0.5201   -1.4367   -2.9062 H   0  0  0  0  0  0  0  0  0  0  0  0
   -0.6987    1.2941    0.3126 H   0  0  0  0  0  0  0  0  0  0  0  0
    0.8281    2.8937    1.4110 H   0  0  0  0  0  0  0  0  0  0  0  0
    2.8962    3.5014   -2.3219 H   0  0  0  0  0  0  0  0  0  0  0  0
    1.3784    1.8946   -3.4332 H   0  0  0  0  0  0  0  0  0  0  0  0
  1  2  1  0
  2  3  2  0
  3  4  1  0
  4  5  1  0
  4  6  2  0
  6  7  1  0
  7  8  1  0
  8  9  1  0
  9 10  2  0
 10 11  1  0
 11 12  1  0
  6 13  1  0
 13 14  2  0
 14 15  1  0
 15 16  1  0
 16 17  2  0
 16 18  2  0
 16 19  1  0
 19 20  2  0
 20 21  1  0
 21 22  2  0
 22 23  1  0
 22 24  1  0
 24 25  2  0
 14  2  1  0
 25 19  1  0
 12  8  2  0
  1 26  1  0
  1 27  1  0
  1 28  1  0
  3 29  1  0
  5 30  1  0
 10 31  1  0
 11 32  1  0
 13 33  1  0
 15 34  1  0
 20 35  1  0
 21 36  1  0
 24 37  1  0
 25 38  1  0
M  END
$$$$
