
     RDKit          3D

 40 42  0  0  0  0  0  0  0  0999 V2000
    5.3635   -0.8955    0.4290 N   0  0  0  0  0  0  0  0  0  0  0  0
    4.0460   -0.5209    0.9264 C   0  0  0  0  0  0  0  0  0  0  0  0
    3.0713   -0.3675   -0.2393 C   0  0  0  0  0  0  0  0  0  0  0  0
    1.6817    0.0415    0.2518 C   0  0  0  0  0  0  0  0  0  0  0  0
    0.7088    0.2094   -0.9249 C   0  0  0  0  0  0  0  0  0  0  0  0
   -0.6467    0.5854   -0.4613 N   0  0  0  0  0  0  0  0  0  0  0  0
   -0.9462    1.9790   -0.3969 C   0  0  0  0  0  0  0  0  0  0  0  0
    0.0622    2.9703   -0.4226 C   0  0  0  0  0  0  0  0  0  0  0  0
   -0.2210    4.3400   -0.3474 C   0  0  0  0  0  0  0  0  0  0  0  0
   -1.5317    4.7705   -0.2394 C   0  0  0  0  0  0  0  0  0  0  0  0
   -2.5512    3.8272   -0.2044 C   0  0  0  0  0  0  0  0  0  0  0  0
   -2.2706    2.4476   -0.2774 C   0  0  0  0  0  0  0  0  0  0  0  0
   -3.6915    1.3819   -0.2466 S   0  0  0  0  0  0  0  0  0  0  0  0
   -2.9553   -0.2260   -0.0853 C   0  0  0  0  0  0  0  0  0  0  0  0
   -3.8587   -1.2786    0.1609 C   0  0  0  0  0  0  0  0  0  0  0  0
   -3.4183   -2.5915    0.2893 C   0  0  0  0  0  0  0  0  0  0  0  0
   -2.0596   -2.8739    0.1799 C   0  0  0  0  0  0  0  0  0  0  0  0
   -1.5496   -4.2884    0.3012 C   0  0  0  0  0  0  0  0  0  0  0  0
   -0.3303   -4.3616    0.9060 F   0  0  0  0  0  0  0  0  0  0  0  0
   -1.4000   -4.8892   -0.9111 F   0  0  0  0  0  0  0  0  0  0  0  0
   -2.3712   -5.0992    1.0238 F   0  0  0  0  0  0  0  0  0  0  0  0
   -1.1638   -1.8163   -0.0790 C   0  0  0  0  0  0  0  0  0  0  0  0
   -1.5744   -0.4698   -0.2211 C   0  0  0  0  0  0  0  0  0  0  0  0
    6.0007   -1.0133    1.2164 H   0  0  0  0  0  0  0  0  0  0  0  0
    5.3143   -1.8039   -0.0313 H   0  0  0  0  0  0  0  0  0  0  0  0
    3.6884   -1.2852    1.6250 H   0  0  0  0  0  0  0  0  0  0  0  0
    4.1270    0.4230    1.4761 H   0  0  0  0  0  0  0  0  0  0  0  0
    2.9991   -1.3132   -0.7915 H   0  0  0  0  0  0  0  0  0  0  0  0
    3.4476    0.3885   -0.9401 H   0  0  0  0  0  0  0  0  0  0  0  0
    1.3090   -0.7108    0.9559 H   0  0  0  0  0  0  0  0  0  0  0  0
    1.7568    0.9733    0.8233 H   0  0  0  0  0  0  0  0  0  0  0  0
    1.1004    0.9423   -1.6423 H   0  0  0  0  0  0  0  0  0  0  0  0
    0.6783   -0.7072   -1.5283 H   0  0  0  0  0  0  0  0  0  0  0  0
    1.1141    2.7120   -0.4863 H   0  0  0  0  0  0  0  0  0  0  0  0
    0.5906    5.0630   -0.3696 H   0  0  0  0  0  0  0  0  0  0  0  0
   -1.7622    5.8304   -0.1807 H   0  0  0  0  0  0  0  0  0  0  0  0
   -3.5796    4.1735   -0.1203 H   0  0  0  0  0  0  0  0  0  0  0  0
   -4.9246   -1.0742    0.2521 H   0  0  0  0  0  0  0  0  0  0  0  0
   -4.1397   -3.3846    0.4777 H   0  0  0  0  0  0  0  0  0  0  0  0
   -0.1138   -2.0882   -0.1478 H   0  0  0  0  0  0  0  0  0  0  0  0
  1  2  1  0
  2  3  1  0
  3  4  1  0
  4  5  1  0
  5  6  1  0
  6  7  1  0
  7  8  2  0
  8  9  1  0
  9 10  2  0
 10 11  1  0
 11 12  2  0
 12 13  1  0
 13 14  1  0
 14 15  2  0
 15 16  1  0
 16 17  2  0
 17 18  1  0
 18 19  1  0
 18 20  1  0
 18 21  1  0
 17 22  1  0
 22 23  2  0
 23  6  1  0
 12  7  1  0
 23 14  1  0
  1 24  1  0
  1 25  1  0
  2 26  1  0
  2 27  1  0
  3 28  1  0
  3 29  1  0
  4 30  1  0
  4 31  1  0
  5 32  1  0
  5 33  1  0
  8 34  1  0
  9 35  1  0
 10 36  1  0
 11 37  1  0
 15 38  1  0
 16 39  1  0
 22 40  1  0
M  END
$$$$
