
     RDKit          3D

 40 42  0  0  0  0  0  0  0  0999 V2000
   -3.9625   -2.0576   -1.4575 C   0  0  0  0  0  0  0  0  0  0  0  0
   -4.7699   -1.0204   -0.7233 C   0  0  0  0  0  0  0  0  0  0  0  0
   -6.1726   -1.1250   -0.7583 C   0  0  0  0  0  0  0  0  0  0  0  0
   -6.9755   -0.1973   -0.0993 C   0  0  0  0  0  0  0  0  0  0  0  0
   -6.3860    0.8450    0.6042 C   0  0  0  0  0  0  0  0  0  0  0  0
   -4.9942    0.9629    0.6485 C   0  0  0  0  0  0  0  0  0  0  0  0
   -4.1703    0.0435   -0.0115 C   0  0  0  0  0  0  0  0  0  0  0  0
   -2.7576    0.1324    0.0209 N   0  0  0  0  0  0  0  0  0  0  0  0
   -1.9825    1.1305    0.5838 C   0  0  0  0  0  0  0  0  0  0  0  0
   -2.3718    2.1719    1.0975 O   0  0  0  0  0  0  0  0  0  0  0  0
   -0.5114    0.9010    0.4973 C   0  0  0  0  0  0  0  0  0  0  0  0
    0.0471   -0.3764    0.6139 C   0  0  0  0  0  0  0  0  0  0  0  0
    1.4346   -0.5495    0.5251 C   0  0  0  0  0  0  0  0  0  0  0  0
    2.2773    0.5473    0.3308 C   0  0  0  0  0  0  0  0  0  0  0  0
    3.6769    0.4564    0.2306 N   0  0  0  0  0  0  0  0  0  0  0  0
    4.4724   -0.6755    0.2716 C   0  0  0  0  0  0  0  0  0  0  0  0
    4.0668   -1.8262    0.3977 O   0  0  0  0  0  0  0  0  0  0  0  0
    5.8860   -0.3664    0.1416 C   0  0  0  0  0  0  0  0  0  0  0  0
    7.0001   -1.1844    0.1347 C   0  0  0  0  0  0  0  0  0  0  0  0
    8.1256   -0.3409   -0.0225 C   0  0  0  0  0  0  0  0  0  0  0  0
    7.6352    0.9406   -0.1027 C   0  0  0  0  0  0  0  0  0  0  0  0
    6.2805    0.9407   -0.0053 O   0  0  0  0  0  0  0  0  0  0  0  0
    1.7136    1.8261    0.2368 C   0  0  0  0  0  0  0  0  0  0  0  0
    0.3293    2.0042    0.3237 C   0  0  0  0  0  0  0  0  0  0  0  0
   -4.6039   -2.7979   -1.9478 H   0  0  0  0  0  0  0  0  0  0  0  0
   -3.3141   -2.5980   -0.7602 H   0  0  0  0  0  0  0  0  0  0  0  0
   -3.3548   -1.5851   -2.2359 H   0  0  0  0  0  0  0  0  0  0  0  0
   -6.6512   -1.9360   -1.3033 H   0  0  0  0  0  0  0  0  0  0  0  0
   -8.0577   -0.2887   -0.1336 H   0  0  0  0  0  0  0  0  0  0  0  0
   -7.0042    1.5723    1.1241 H   0  0  0  0  0  0  0  0  0  0  0  0
   -4.5828    1.7901    1.2182 H   0  0  0  0  0  0  0  0  0  0  0  0
   -2.2616   -0.5857   -0.4863 H   0  0  0  0  0  0  0  0  0  0  0  0
   -0.5737   -1.2476    0.8056 H   0  0  0  0  0  0  0  0  0  0  0  0
    1.8251   -1.5577    0.6265 H   0  0  0  0  0  0  0  0  0  0  0  0
    4.1897    1.3239    0.1089 H   0  0  0  0  0  0  0  0  0  0  0  0
    6.9864   -2.2618    0.2332 H   0  0  0  0  0  0  0  0  0  0  0  0
    9.1660   -0.6311   -0.0710 H   0  0  0  0  0  0  0  0  0  0  0  0
    8.0966    1.9114   -0.2232 H   0  0  0  0  0  0  0  0  0  0  0  0
    2.3407    2.7035    0.0972 H   0  0  0  0  0  0  0  0  0  0  0  0
   -0.0918    3.0056    0.2542 H   0  0  0  0  0  0  0  0  0  0  0  0
  1  2  1  0
  2  3  2  0
  3  4  1  0
  4  5  2  0
  5  6  1  0
  6  7  2  0
  7  8  1  0
  8  9  1  0
  9 10  2  0
  9 11  1  0
 11 12  2  0
 12 13  1  0
 13 14  2  0
 14 15  1  0
 15 16  1  0
 16 17  2  0
 16 18  1  0
 18 19  2  0
 19 20  1  0
 20 21  2  0
 21 22  1  0
 14 23  1  0
 23 24  2  0
  7  2  1  0
 24 11  1  0
 22 18  1  0
  1 25  1  0
  1 26  1  0
  1 27  1  0
  3 28  1  0
  4 29  1  0
  5 30  1  0
  6 31  1  0
  8 32  1  0
 12 33  1  0
 13 34  1  0
 15 35  1  0
 19 36  1  0
 20 37  1  0
 21 38  1  0
 23 39  1  0
 24 40  1  0
M  END
$$$$
