
     RDKit          3D

 36 37  0  0  0  0  0  0  0  0999 V2000
   -1.0603    2.2541   -1.2087 O   0  0  0  0  0  0  0  0  0  0  0  0
   -0.5527    1.3620   -0.5282 C   0  0  0  0  0  0  0  0  0  0  0  0
    0.2443    1.6476    0.7467 C   0  0  0  0  0  0  0  0  0  0  0  0
    1.1448    0.6060    1.1304 O   0  0  0  0  0  0  0  0  0  0  0  0
    2.2996    0.5778    0.4245 C   0  0  0  0  0  0  0  0  0  0  0  0
    2.6269    1.3334   -0.4729 O   0  0  0  0  0  0  0  0  0  0  0  0
    3.1926   -0.4535    0.9814 C   0  0  0  0  0  0  0  0  0  0  0  0
    4.4656   -0.0202    1.3856 C   0  0  0  0  0  0  0  0  0  0  0  0
    5.3725   -0.9256    1.9306 C   0  0  0  0  0  0  0  0  0  0  0  0
    5.0145   -2.2659    2.0621 C   0  0  0  0  0  0  0  0  0  0  0  0
    3.7539   -2.7065    1.6403 C   0  0  0  0  0  0  0  0  0  0  0  0
    3.4097   -4.3928    1.8230 Cl  0  0  0  0  0  0  0  0  0  0  0  0
    2.8304   -1.8041    1.0889 C   0  0  0  0  0  0  0  0  0  0  0  0
    1.2968   -2.3674    0.5042 Cl  0  0  0  0  0  0  0  0  0  0  0  0
   -0.7250    0.0231   -0.8070 N   0  0  0  0  0  0  0  0  0  0  0  0
   -1.5296   -0.4373   -1.9223 C   0  0  0  0  0  0  0  0  0  0  0  0
   -2.9719   -0.7932   -1.5357 C   0  0  0  0  0  0  0  0  0  0  0  0
   -3.6526    0.1714   -0.6869 N   0  0  0  0  0  0  0  0  0  0  0  0
   -3.9880    1.4448   -1.0737 C   0  0  0  0  0  0  0  0  0  0  0  0
   -3.5501    1.9339   -2.2654 O   0  0  0  0  0  0  0  0  0  0  0  0
   -4.6903    2.1423   -0.1775 C   0  0  0  0  0  0  0  0  0  0  0  0
   -4.9657    1.2141    1.2630 S   0  0  0  0  0  0  0  0  0  0  0  0
   -4.0859   -0.1716    0.5858 C   0  0  0  0  0  0  0  0  0  0  0  0
   -3.9150   -1.2193    1.1874 O   0  0  0  0  0  0  0  0  0  0  0  0
    0.7782    2.5985    0.6378 H   0  0  0  0  0  0  0  0  0  0  0  0
   -0.4787    1.7660    1.5601 H   0  0  0  0  0  0  0  0  0  0  0  0
    4.7498    1.0257    1.2752 H   0  0  0  0  0  0  0  0  0  0  0  0
    6.3578   -0.5897    2.2460 H   0  0  0  0  0  0  0  0  0  0  0  0
    5.7279   -2.9700    2.4865 H   0  0  0  0  0  0  0  0  0  0  0  0
   -0.3706   -0.6598   -0.1438 H   0  0  0  0  0  0  0  0  0  0  0  0
   -1.5218    0.3248   -2.7079 H   0  0  0  0  0  0  0  0  0  0  0  0
   -1.0343   -1.3235   -2.3335 H   0  0  0  0  0  0  0  0  0  0  0  0
   -2.9554   -1.7596   -1.0177 H   0  0  0  0  0  0  0  0  0  0  0  0
   -3.5740   -0.9382   -2.4407 H   0  0  0  0  0  0  0  0  0  0  0  0
   -2.6197    2.2103   -2.0893 H   0  0  0  0  0  0  0  0  0  0  0  0
   -5.0238    3.1624   -0.3015 H   0  0  0  0  0  0  0  0  0  0  0  0
  1  2  2  0
  2  3  1  0
  3  4  1  0
  4  5  1  0
  5  6  2  0
  5  7  1  0
  7  8  2  0
  8  9  1  0
  9 10  2  0
 10 11  1  0
 11 12  1  0
 11 13  2  0
 13 14  1  0
  2 15  1  0
 15 16  1  0
 16 17  1  0
 17 18  1  0
 18 19  1  0
 19 20  1  0
 19 21  2  0
 21 22  1  0
 22 23  1  0
 23 24  2  0
 13  7  1  0
 23 18  1  0
  3 25  1  0
  3 26  1  0
  8 27  1  0
  9 28  1  0
 10 29  1  0
 15 30  1  0
 16 31  1  0
 16 32  1  0
 17 33  1  0
 17 34  1  0
 20 35  1  0
 21 36  1  0
M  END
$$$$
