
     RDKit          3D

 58 61  0  0  0  0  0  0  0  0999 V2000
   -3.9532    6.3358    1.1816 C   0  0  0  0  0  0  0  0  0  0  0  0
   -3.1592    5.2537    0.7125 O   0  0  0  0  0  0  0  0  0  0  0  0
   -3.5096    3.9994    1.1321 C   0  0  0  0  0  0  0  0  0  0  0  0
   -4.5599    3.6874    1.9848 C   0  0  0  0  0  0  0  0  0  0  0  0
   -4.8198    2.3588    2.3408 C   0  0  0  0  0  0  0  0  0  0  0  0
   -4.0022    1.3351    1.8249 C   0  0  0  0  0  0  0  0  0  0  0  0
   -4.1455   -0.3504    2.1269 S   0  0  0  0  0  0  0  0  0  0  0  0
   -2.8045   -0.7297    1.1368 C   0  0  0  0  0  0  0  0  0  0  0  0
   -2.4077   -2.1383    1.0051 C   0  0  0  0  0  0  0  0  0  0  0  0
   -3.1480   -2.9736    0.1513 C   0  0  0  0  0  0  0  0  0  0  0  0
   -2.7916   -4.3102   -0.0180 C   0  0  0  0  0  0  0  0  0  0  0  0
   -1.6931   -4.8240    0.6645 C   0  0  0  0  0  0  0  0  0  0  0  0
   -0.9464   -4.0044    1.5159 C   0  0  0  0  0  0  0  0  0  0  0  0
   -1.2904   -2.6584    1.6906 C   0  0  0  0  0  0  0  0  0  0  0  0
   -0.6188   -1.7920    2.5168 O   0  0  0  0  0  0  0  0  0  0  0  0
    0.6385   -2.2171    3.0233 C   0  0  0  0  0  0  0  0  0  0  0  0
   -2.2488    0.4066    0.5727 C   0  0  0  0  0  0  0  0  0  0  0  0
   -1.0923    0.3323   -0.3103 C   0  0  0  0  0  0  0  0  0  0  0  0
   -1.2486   -0.0227   -1.6514 C   0  0  0  0  0  0  0  0  0  0  0  0
   -0.1316   -0.0886   -2.4875 C   0  0  0  0  0  0  0  0  0  0  0  0
    1.1466    0.2003   -1.9995 C   0  0  0  0  0  0  0  0  0  0  0  0
    2.1432    0.0861   -2.9280 O   0  0  0  0  0  0  0  0  0  0  0  0
    3.4818    0.4177   -2.5454 C   0  0  0  0  0  0  0  0  0  0  0  0
    4.1955   -0.8043   -1.9408 C   0  0  0  0  0  0  0  0  0  0  0  0
    5.5456   -0.5192   -1.4153 N   0  0  0  0  0  0  0  0  0  0  0  0
    6.4821   -0.1624   -2.4833 C   0  0  0  0  0  0  0  0  0  0  0  0
    6.0511   -1.6866   -0.6871 C   0  0  0  0  0  0  0  0  0  0  0  0
    1.2993    0.5566   -0.6592 C   0  0  0  0  0  0  0  0  0  0  0  0
    0.1828    0.6264    0.1816 C   0  0  0  0  0  0  0  0  0  0  0  0
   -2.9369    1.6139    0.9681 C   0  0  0  0  0  0  0  0  0  0  0  0
   -2.7036    2.9720    0.6272 C   0  0  0  0  0  0  0  0  0  0  0  0
   -3.8963    6.4235    2.2715 H   0  0  0  0  0  0  0  0  0  0  0  0
   -4.9908    6.2393    0.8456 H   0  0  0  0  0  0  0  0  0  0  0  0
   -3.5491    7.2576    0.7521 H   0  0  0  0  0  0  0  0  0  0  0  0
   -5.2066    4.4540    2.3990 H   0  0  0  0  0  0  0  0  0  0  0  0
   -5.6436    2.1218    3.0083 H   0  0  0  0  0  0  0  0  0  0  0  0
   -4.0060   -2.5788   -0.3884 H   0  0  0  0  0  0  0  0  0  0  0  0
   -3.3710   -4.9479   -0.6804 H   0  0  0  0  0  0  0  0  0  0  0  0
   -1.4157   -5.8675    0.5371 H   0  0  0  0  0  0  0  0  0  0  0  0
   -0.1051   -4.4502    2.0356 H   0  0  0  0  0  0  0  0  0  0  0  0
    1.0874   -1.3720    3.5541 H   0  0  0  0  0  0  0  0  0  0  0  0
    1.3200   -2.5004    2.2140 H   0  0  0  0  0  0  0  0  0  0  0  0
    0.5144   -3.0331    3.7425 H   0  0  0  0  0  0  0  0  0  0  0  0
   -2.2329   -0.2504   -2.0519 H   0  0  0  0  0  0  0  0  0  0  0  0
   -0.2589   -0.3683   -3.5303 H   0  0  0  0  0  0  0  0  0  0  0  0
    3.9878    0.7106   -3.4721 H   0  0  0  0  0  0  0  0  0  0  0  0
    3.5193    1.2981   -1.8937 H   0  0  0  0  0  0  0  0  0  0  0  0
    4.2247   -1.6096   -2.6877 H   0  0  0  0  0  0  0  0  0  0  0  0
    3.5722   -1.1896   -1.1243 H   0  0  0  0  0  0  0  0  0  0  0  0
    6.5527   -0.9425   -3.2495 H   0  0  0  0  0  0  0  0  0  0  0  0
    6.1918    0.7759   -2.9657 H   0  0  0  0  0  0  0  0  0  0  0  0
    7.4850    0.0075   -2.0744 H   0  0  0  0  0  0  0  0  0  0  0  0
    6.1377   -2.5699   -1.3303 H   0  0  0  0  0  0  0  0  0  0  0  0
    5.3914   -1.9330    0.1524 H   0  0  0  0  0  0  0  0  0  0  0  0
    7.0364   -1.4750   -0.2561 H   0  0  0  0  0  0  0  0  0  0  0  0
    2.2691    0.7792   -0.2275 H   0  0  0  0  0  0  0  0  0  0  0  0
    0.3143    0.8984    1.2266 H   0  0  0  0  0  0  0  0  0  0  0  0
   -1.8827    3.2220   -0.0416 H   0  0  0  0  0  0  0  0  0  0  0  0
  1  2  1  0
  2  3  1  0
  3  4  2  0
  4  5  1  0
  5  6  2  0
  6  7  1  0
  7  8  1  0
  8  9  1  0
  9 10  2  0
 10 11  1  0
 11 12  2  0
 12 13  1  0
 13 14  2  0
 14 15  1  0
 15 16  1  0
  8 17  2  0
 17 18  1  0
 18 19  2  0
 19 20  1  0
 20 21  2  0
 21 22  1  0
 22 23  1  0
 23 24  1  0
 24 25  1  0
 25 26  1  0
 25 27  1  0
 21 28  1  0
 28 29  2  0
 17 30  1  0
 30 31  2  0
 31  3  1  0
 30  6  1  0
 14  9  1  0
 29 18  1  0
  1 32  1  0
  1 33  1  0
  1 34  1  0
  4 35  1  0
  5 36  1  0
 10 37  1  0
 11 38  1  0
 12 39  1  0
 13 40  1  0
 16 41  1  0
 16 42  1  0
 16 43  1  0
 19 44  1  0
 20 45  1  0
 23 46  1  0
 23 47  1  0
 24 48  1  0
 24 49  1  0
 26 50  1  0
 26 51  1  0
 26 52  1  0
 27 53  1  0
 27 54  1  0
 27 55  1  0
 28 56  1  0
 29 57  1  0
 31 58  1  0
M  END
$$$$
