
     RDKit          3D

 51 55  0  0  0  0  0  0  0  0999 V2000
    6.9013    2.6818    2.9439 F   0  0  0  0  0  0  0  0  0  0  0  0
    6.1788    1.6979    2.3919 C   0  0  0  0  0  0  0  0  0  0  0  0
    6.7322    0.9320    1.3731 C   0  0  0  0  0  0  0  0  0  0  0  0
    5.9809   -0.0927    0.7955 C   0  0  0  0  0  0  0  0  0  0  0  0
    4.6754   -0.3530    1.2409 C   0  0  0  0  0  0  0  0  0  0  0  0
    3.8576   -1.4590    0.6129 C   0  0  0  0  0  0  0  0  0  0  0  0
    2.8559   -0.9645   -0.4506 C   0  0  0  0  0  0  0  0  0  0  0  0
    1.7029   -0.2269    0.0978 N   0  0  0  0  0  0  0  0  0  0  0  0
    0.7078   -1.1042    0.7647 C   0  0  0  0  0  0  0  0  0  0  0  0
   -0.1571   -1.9607   -0.1906 C   0  0  0  0  0  0  0  0  0  0  0  0
   -0.8084   -1.1343   -1.2280 N   0  0  0  0  0  0  0  0  0  0  0  0
   -2.0640   -0.5920   -0.9512 C   0  0  0  0  0  0  0  0  0  0  0  0
   -2.4513   -0.4741    0.2937 N   0  0  0  0  0  0  0  0  0  0  0  0
   -3.6978    0.1026    0.6072 C   0  0  0  0  0  0  0  0  0  0  0  0
   -4.0520    0.2248    1.9521 C   0  0  0  0  0  0  0  0  0  0  0  0
   -5.2723    0.7985    2.3193 C   0  0  0  0  0  0  0  0  0  0  0  0
   -6.1534    1.2578    1.3395 C   0  0  0  0  0  0  0  0  0  0  0  0
   -5.8204    1.1461   -0.0109 C   0  0  0  0  0  0  0  0  0  0  0  0
   -4.5957    0.5708   -0.3626 C   0  0  0  0  0  0  0  0  0  0  0  0
   -4.1859    0.4094   -1.6957 N   0  0  0  0  0  0  0  0  0  0  0  0
   -4.8404    0.7360   -2.8599 C   0  0  0  0  0  0  0  0  0  0  0  0
   -4.0644    0.3216   -3.9209 C   0  0  0  0  0  0  0  0  0  0  0  0
   -2.8950   -0.2624   -3.3814 C   0  0  0  0  0  0  0  0  0  0  0  0
   -2.9730   -0.1647   -2.0033 C   0  0  0  0  0  0  0  0  0  0  0  0
    0.1711   -0.2932   -1.9450 C   0  0  0  0  0  0  0  0  0  0  0  0
    1.0037    0.5516   -0.9524 C   0  0  0  0  0  0  0  0  0  0  0  0
    4.1354    0.4349    2.2690 C   0  0  0  0  0  0  0  0  0  0  0  0
    4.8874    1.4598    2.8444 C   0  0  0  0  0  0  0  0  0  0  0  0
    7.7423    1.1383    1.0351 H   0  0  0  0  0  0  0  0  0  0  0  0
    6.4203   -0.6858   -0.0031 H   0  0  0  0  0  0  0  0  0  0  0  0
    4.5424   -2.1692    0.1304 H   0  0  0  0  0  0  0  0  0  0  0  0
    3.3618   -2.0370    1.4009 H   0  0  0  0  0  0  0  0  0  0  0  0
    2.5234   -1.8239   -1.0440 H   0  0  0  0  0  0  0  0  0  0  0  0
    3.4084   -0.3126   -1.1407 H   0  0  0  0  0  0  0  0  0  0  0  0
    1.1950   -1.7589    1.4947 H   0  0  0  0  0  0  0  0  0  0  0  0
    0.0497   -0.4570    1.3583 H   0  0  0  0  0  0  0  0  0  0  0  0
    0.4681   -2.7109   -0.6890 H   0  0  0  0  0  0  0  0  0  0  0  0
   -0.9009   -2.5276    0.3823 H   0  0  0  0  0  0  0  0  0  0  0  0
   -3.3670   -0.1294    2.7177 H   0  0  0  0  0  0  0  0  0  0  0  0
   -5.5328    0.8867    3.3710 H   0  0  0  0  0  0  0  0  0  0  0  0
   -7.1018    1.7031    1.6303 H   0  0  0  0  0  0  0  0  0  0  0  0
   -6.5220    1.5083   -0.7547 H   0  0  0  0  0  0  0  0  0  0  0  0
   -5.8075    1.2172   -2.8542 H   0  0  0  0  0  0  0  0  0  0  0  0
   -4.3203    0.4200   -4.9681 H   0  0  0  0  0  0  0  0  0  0  0  0
   -2.0814   -0.7096   -3.9371 H   0  0  0  0  0  0  0  0  0  0  0  0
    0.8290   -0.9418   -2.5354 H   0  0  0  0  0  0  0  0  0  0  0  0
   -0.3161    0.3819   -2.6551 H   0  0  0  0  0  0  0  0  0  0  0  0
    0.3359    1.2649   -0.4512 H   0  0  0  0  0  0  0  0  0  0  0  0
    1.7236    1.1660   -1.5069 H   0  0  0  0  0  0  0  0  0  0  0  0
    3.1193    0.2593    2.6167 H   0  0  0  0  0  0  0  0  0  0  0  0
    4.4715    2.0738    3.6361 H   0  0  0  0  0  0  0  0  0  0  0  0
  1  2  1  0
  2  3  2  0
  3  4  1  0
  4  5  2  0
  5  6  1  0
  6  7  1  0
  7  8  1  0
  8  9  1  0
  9 10  1  0
 10 11  1  0
 11 12  1  0
 12 13  2  0
 13 14  1  0
 14 15  2  0
 15 16  1  0
 16 17  2  0
 17 18  1  0
 18 19  2  0
 19 20  1  0
 20 21  1  0
 21 22  2  0
 22 23  1  0
 23 24  2  0
 11 25  1  0
 25 26  1  0
  5 27  1  0
 27 28  2  0
 28  2  1  0
 26  8  1  0
 24 12  1  0
 19 14  1  0
 24 20  1  0
  3 29  1  0
  4 30  1  0
  6 31  1  0
  6 32  1  0
  7 33  1  0
  7 34  1  0
  9 35  1  0
  9 36  1  0
 10 37  1  0
 10 38  1  0
 15 39  1  0
 16 40  1  0
 17 41  1  0
 18 42  1  0
 21 43  1  0
 22 44  1  0
 23 45  1  0
 25 46  1  0
 25 47  1  0
 26 48  1  0
 26 49  1  0
 27 50  1  0
 28 51  1  0
M  END
$$$$
