
     RDKit          3D

 50 53  0  0  0  0  0  0  0  0999 V2000
   -1.8085    2.2338    5.0641 C   0  0  0  0  0  0  0  0  0  0  0  0
   -1.2484    2.0551    3.6612 C   0  0  0  0  0  0  0  0  0  0  0  0
   -1.4520    0.6441    3.1280 C   0  0  0  0  0  0  0  0  0  0  0  0
   -2.0562   -0.1967    3.7977 O   0  0  0  0  0  0  0  0  0  0  0  0
   -0.9542    0.3545    1.8583 N   0  0  0  0  0  0  0  0  0  0  0  0
   -1.2121   -0.9881    1.3212 C   0  0  0  0  0  0  0  0  0  0  0  0
   -2.2383   -0.9990    0.2103 C   0  0  0  0  0  0  0  0  0  0  0  0
   -1.9193   -1.5197   -1.0510 C   0  0  0  0  0  0  0  0  0  0  0  0
   -2.8684   -1.5317   -2.0763 C   0  0  0  0  0  0  0  0  0  0  0  0
   -4.1603   -1.0431   -1.8534 C   0  0  0  0  0  0  0  0  0  0  0  0
   -5.1709   -1.0293   -2.9616 C   0  0  0  0  0  0  0  0  0  0  0  0
   -4.4826   -0.5248   -0.5947 C   0  0  0  0  0  0  0  0  0  0  0  0
   -3.5340   -0.5124    0.4303 C   0  0  0  0  0  0  0  0  0  0  0  0
   -0.3455    1.3552    0.9687 C   0  0  0  0  0  0  0  0  0  0  0  0
    0.9930    0.9144    0.4511 C   0  0  0  0  0  0  0  0  0  0  0  0
    1.1970    0.5186   -0.8188 C   0  0  0  0  0  0  0  0  0  0  0  0
    2.5205    0.0984   -1.2774 C   0  0  0  0  0  0  0  0  0  0  0  0
    2.7283   -0.3387   -2.5901 C   0  0  0  0  0  0  0  0  0  0  0  0
    4.0066   -0.7226   -2.9396 C   0  0  0  0  0  0  0  0  0  0  0  0
    5.0513   -0.6836   -2.0440 C   0  0  0  0  0  0  0  0  0  0  0  0
    4.8827   -0.2583   -0.7437 C   0  0  0  0  0  0  0  0  0  0  0  0
    3.5978    0.1351   -0.3654 C   0  0  0  0  0  0  0  0  0  0  0  0
    3.3654    0.5837    0.9392 N   0  0  0  0  0  0  0  0  0  0  0  0
    2.1444    0.9996    1.3991 C   0  0  0  0  0  0  0  0  0  0  0  0
    2.0151    1.4337    2.5391 O   0  0  0  0  0  0  0  0  0  0  0  0
    6.2216   -1.1034   -2.5952 O   0  0  0  0  0  0  0  0  0  0  0  0
    5.7967   -1.4109   -3.9397 C   0  0  0  0  0  0  0  0  0  0  0  0
    4.3910   -1.1722   -4.1642 O   0  0  0  0  0  0  0  0  0  0  0  0
   -1.6419    3.2578    5.4125 H   0  0  0  0  0  0  0  0  0  0  0  0
   -1.3264    1.5495    5.7701 H   0  0  0  0  0  0  0  0  0  0  0  0
   -2.8855    2.0366    5.0863 H   0  0  0  0  0  0  0  0  0  0  0  0
   -1.7544    2.7598    2.9929 H   0  0  0  0  0  0  0  0  0  0  0  0
   -0.1785    2.2794    3.6852 H   0  0  0  0  0  0  0  0  0  0  0  0
   -0.2585   -1.4020    0.9746 H   0  0  0  0  0  0  0  0  0  0  0  0
   -1.5566   -1.6715    2.1058 H   0  0  0  0  0  0  0  0  0  0  0  0
   -0.9285   -1.9244   -1.2454 H   0  0  0  0  0  0  0  0  0  0  0  0
   -2.5956   -1.9344   -3.0492 H   0  0  0  0  0  0  0  0  0  0  0  0
   -6.1864   -1.1359   -2.5656 H   0  0  0  0  0  0  0  0  0  0  0  0
   -5.0038   -1.8615   -3.6535 H   0  0  0  0  0  0  0  0  0  0  0  0
   -5.1043   -0.0887   -3.5168 H   0  0  0  0  0  0  0  0  0  0  0  0
   -5.4788   -0.1341   -0.3988 H   0  0  0  0  0  0  0  0  0  0  0  0
   -3.8122   -0.1239    1.4087 H   0  0  0  0  0  0  0  0  0  0  0  0
   -1.0485    1.5262    0.1445 H   0  0  0  0  0  0  0  0  0  0  0  0
   -0.2355    2.3262    1.4563 H   0  0  0  0  0  0  0  0  0  0  0  0
    0.3796    0.4863   -1.5325 H   0  0  0  0  0  0  0  0  0  0  0  0
    1.9256   -0.3805   -3.3177 H   0  0  0  0  0  0  0  0  0  0  0  0
    5.7207   -0.2358   -0.0578 H   0  0  0  0  0  0  0  0  0  0  0  0
    4.1260    0.6408    1.6037 H   0  0  0  0  0  0  0  0  0  0  0  0
    6.0097   -2.4668   -4.1421 H   0  0  0  0  0  0  0  0  0  0  0  0
    6.3730   -0.7947   -4.6392 H   0  0  0  0  0  0  0  0  0  0  0  0
  1  2  1  0
  2  3  1  0
  3  4  2  0
  3  5  1  0
  5  6  1  0
  6  7  1  0
  7  8  2  0
  8  9  1  0
  9 10  2  0
 10 11  1  0
 10 12  1  0
 12 13  2  0
  5 14  1  0
 14 15  1  0
 15 16  2  0
 16 17  1  0
 17 18  2  0
 18 19  1  0
 19 20  2  0
 20 21  1  0
 21 22  2  0
 22 23  1  0
 23 24  1  0
 24 25  2  0
 20 26  1  0
 26 27  1  0
 27 28  1  0
 13  7  1  0
 24 15  1  0
 22 17  1  0
 28 19  1  0
  1 29  1  0
  1 30  1  0
  1 31  1  0
  2 32  1  0
  2 33  1  0
  6 34  1  0
  6 35  1  0
  8 36  1  0
  9 37  1  0
 11 38  1  0
 11 39  1  0
 11 40  1  0
 12 41  1  0
 13 42  1  0
 14 43  1  0
 14 44  1  0
 16 45  1  0
 18 46  1  0
 21 47  1  0
 23 48  1  0
 27 49  1  0
 27 50  1  0
M  END
$$$$
