
     RDKit          3D

 71 75  0  0  0  0  0  0  0  0999 V2000
   -0.9868    4.0317   -0.3826 C   0  0  0  0  0  0  0  0  0  0  0  0
   -1.2447    2.5960   -0.0091 C   0  0  0  0  0  0  0  0  0  0  0  0
   -1.7724    1.7243   -0.8895 C   0  0  0  0  0  0  0  0  0  0  0  0
   -2.1697    0.3064   -0.7874 C   0  0  0  0  0  0  0  0  0  0  0  0
   -3.4108   -0.1493   -0.0462 C   0  0  2  0  0  0  0  0  0  0  0  0
   -3.6145   -1.4725    0.6612 C   0  0  0  0  0  0  0  0  0  0  0  0
   -2.4102   -2.4002    0.8270 C   0  0  0  0  0  0  0  0  0  0  0  0
   -1.2736   -1.9301    1.7129 C   0  0  2  0  0  0  0  0  0  0  0  0
    0.0012   -2.7040    1.5418 C   0  0  0  0  0  0  0  0  0  0  0  0
   -1.6055   -1.7896    3.1172 O   0  0  0  0  0  0  0  0  0  0  0  0
   -1.3876   -0.5768    2.4027 C   0  0  1  0  0  0  0  0  0  0  0  0
   -0.3260    0.3481    2.8701 C   0  0  1  0  0  0  0  0  0  0  0  0
    0.9034   -0.0917    3.6577 C   0  0  1  0  0  0  0  0  0  0  0  0
    1.7706   -0.9190    2.8965 O   0  0  0  0  0  0  0  0  0  0  0  0
    1.5411    1.2928    3.8948 C   0  0  1  0  0  0  0  0  0  0  0  0
    2.9504    1.2932    4.4803 C   0  0  0  0  0  0  0  0  0  0  0  0
    3.8267    0.4700    3.7188 O   0  0  0  0  0  0  0  0  0  0  0  0
    1.4427    1.9617    2.5009 C   0  0  0  0  0  0  0  0  0  0  0  0
    0.2409    1.2834    1.7562 C   0  0  1  0  0  0  0  0  0  0  0  0
    0.7144    0.4717    0.6684 O   0  0  0  0  0  0  0  0  0  0  0  0
    1.4553    1.0472   -0.3075 C   0  0  0  0  0  0  0  0  0  0  0  0
    1.7513    2.2265   -0.4026 O   0  0  0  0  0  0  0  0  0  0  0  0
    1.8406   -0.0074   -1.2652 C   0  0  0  0  0  0  0  0  0  0  0  0
    2.5724    0.2994   -2.3466 C   0  0  0  0  0  0  0  0  0  0  0  0
    2.9942   -0.6762   -3.3622 C   0  0  0  0  0  0  0  0  0  0  0  0
    3.1746   -0.2384   -4.6820 C   0  0  0  0  0  0  0  0  0  0  0  0
    3.5976   -1.1244   -5.6763 C   0  0  0  0  0  0  0  0  0  0  0  0
    3.8551   -2.4568   -5.3600 C   0  0  0  0  0  0  0  0  0  0  0  0
    3.6952   -2.9021   -4.0492 C   0  0  0  0  0  0  0  0  0  0  0  0
    3.2735   -2.0155   -3.0543 C   0  0  0  0  0  0  0  0  0  0  0  0
   -0.8757    2.3060    1.4105 C   0  0  0  0  0  0  0  0  0  0  0  0
   -1.4344    2.9669    2.2927 O   0  0  0  0  0  0  0  0  0  0  0  0
   -3.4332   -0.0921   -1.5670 C   0  0  0  0  0  0  0  0  0  0  0  0
   -3.3422   -1.3377   -2.4165 C   0  0  0  0  0  0  0  0  0  0  0  0
   -4.3775    0.9362   -2.1575 C   0  0  0  0  0  0  0  0  0  0  0  0
    0.0273    4.3313   -0.0990 H   0  0  0  0  0  0  0  0  0  0  0  0
   -1.0879    4.2030   -1.4593 H   0  0  0  0  0  0  0  0  0  0  0  0
   -1.6961    4.6912    0.1283 H   0  0  0  0  0  0  0  0  0  0  0  0
   -1.9392    2.1325   -1.8890 H   0  0  0  0  0  0  0  0  0  0  0  0
   -1.3300   -0.3781   -0.8404 H   0  0  0  0  0  0  0  0  0  0  0  0
   -3.9725    0.6220    0.4794 H   0  0  0  0  0  0  0  0  0  0  0  0
   -4.4007   -2.0225    0.1282 H   0  0  0  0  0  0  0  0  0  0  0  0
   -4.0419   -1.2690    1.6517 H   0  0  0  0  0  0  0  0  0  0  0  0
   -2.7731   -3.3525    1.2347 H   0  0  0  0  0  0  0  0  0  0  0  0
   -1.9978   -2.6359   -0.1581 H   0  0  0  0  0  0  0  0  0  0  0  0
    0.6963   -2.1724    0.8898 H   0  0  0  0  0  0  0  0  0  0  0  0
    0.4841   -2.9194    2.4991 H   0  0  0  0  0  0  0  0  0  0  0  0
   -0.1939   -3.6781    1.0789 H   0  0  0  0  0  0  0  0  0  0  0  0
   -2.2819    0.0153    2.2476 H   0  0  0  0  0  0  0  0  0  0  0  0
   -0.8813    0.9762    3.5873 H   0  0  0  0  0  0  0  0  0  0  0  0
    0.6526   -0.5998    4.5934 H   0  0  0  0  0  0  0  0  0  0  0  0
    2.6940   -0.6900    3.1379 H   0  0  0  0  0  0  0  0  0  0  0  0
    0.9058    1.8659    4.5854 H   0  0  0  0  0  0  0  0  0  0  0  0
    3.3553    2.3107    4.4984 H   0  0  0  0  0  0  0  0  0  0  0  0
    2.9319    0.9067    5.5043 H   0  0  0  0  0  0  0  0  0  0  0  0
    4.7269    0.6306    4.0573 H   0  0  0  0  0  0  0  0  0  0  0  0
    2.3870    1.8206    1.9656 H   0  0  0  0  0  0  0  0  0  0  0  0
    1.2952    3.0411    2.6217 H   0  0  0  0  0  0  0  0  0  0  0  0
    1.4956   -1.0107   -1.0532 H   0  0  0  0  0  0  0  0  0  0  0  0
    2.8749    1.3307   -2.5236 H   0  0  0  0  0  0  0  0  0  0  0  0
    2.9813    0.7984   -4.9514 H   0  0  0  0  0  0  0  0  0  0  0  0
    3.7282   -0.7720   -6.6967 H   0  0  0  0  0  0  0  0  0  0  0  0
    4.1861   -3.1459   -6.1326 H   0  0  0  0  0  0  0  0  0  0  0  0
    3.9053   -3.9392   -3.7973 H   0  0  0  0  0  0  0  0  0  0  0  0
    3.1808   -2.3869   -2.0361 H   0  0  0  0  0  0  0  0  0  0  0  0
   -2.5154   -1.9909   -2.1292 H   0  0  0  0  0  0  0  0  0  0  0  0
   -3.1798   -1.0668   -3.4661 H   0  0  0  0  0  0  0  0  0  0  0  0
   -4.2734   -1.9103   -2.3563 H   0  0  0  0  0  0  0  0  0  0  0  0
   -4.0054    1.2831   -3.1274 H   0  0  0  0  0  0  0  0  0  0  0  0
   -4.5071    1.8109   -1.5110 H   0  0  0  0  0  0  0  0  0  0  0  0
   -5.3675    0.4922   -2.3105 H   0  0  0  0  0  0  0  0  0  0  0  0
  1  2  1  0
  2  3  2  3
  3  4  1  0
  4  5  1  0
  5  6  1  0
  6  7  1  0
  7  8  1  0
  8  9  1  1
  8 10  1  0
 10 11  1  0
 11 12  1  0
 12 13  1  0
 13 14  1  0
 13 15  1  0
 15 16  1  0
 16 17  1  0
 15 18  1  0
 18 19  1  0
 19 20  1  6
 20 21  1  0
 21 22  2  0
 21 23  1  0
 23 24  2  0
 24 25  1  0
 25 26  2  0
 26 27  1  0
 27 28  2  0
 28 29  1  0
 29 30  2  0
 19 31  1  0
 31 32  2  0
  5 33  1  0
 33 34  1  0
 33 35  1  0
 31  2  1  0
 33  4  1  0
 11  8  1  0
 19 12  1  0
 30 25  1  0
  1 36  1  0
  1 37  1  0
  1 38  1  0
  3 39  1  0
  4 40  1  0
  5 41  1  1
  6 42  1  0
  6 43  1  0
  7 44  1  0
  7 45  1  0
  9 46  1  0
  9 47  1  0
  9 48  1  0
 11 49  1  6
 12 50  1  1
 13 51  1  1
 14 52  1  0
 15 53  1  1
 16 54  1  0
 16 55  1  0
 17 56  1  0
 18 57  1  0
 18 58  1  0
 23 59  1  0
 24 60  1  0
 26 61  1  0
 27 62  1  0
 28 63  1  0
 29 64  1  0
 30 65  1  0
 34 66  1  0
 34 67  1  0
 34 68  1  0
 35 69  1  0
 35 70  1  0
 35 71  1  0
M  END
$$$$
