
     RDKit          3D

 33 34  0  0  0  0  0  0  0  0999 V2000
   -2.6502   -1.5299    0.6737 C   0  0  0  0  0  0  0  0  0  0  0  0
   -2.4456   -0.0267    0.8088 C   0  0  0  0  0  0  0  0  0  0  0  0
   -1.7397    0.5388   -0.3530 N   0  0  0  0  0  0  0  0  0  0  0  0
   -1.9016    1.9915   -0.5540 C   0  0  0  0  0  0  0  0  0  0  0  0
   -1.2054    2.8332    0.5069 C   0  0  0  0  0  0  0  0  0  0  0  0
   -0.4405    0.0671   -0.6730 C   0  0  0  0  0  0  0  0  0  0  0  0
   -0.1885   -0.0898   -2.0539 C   0  0  0  0  0  0  0  0  0  0  0  0
    1.0300   -0.5547   -2.5170 C   0  0  0  0  0  0  0  0  0  0  0  0
    2.0162   -0.8601   -1.5822 C   0  0  0  0  0  0  0  0  0  0  0  0
    3.2815   -1.3329   -2.1121 N   0  0  0  0  0  4  0  0  0  0  0  0
    4.2786   -0.6243   -1.9207 O   0  0  0  0  0  0  0  0  0  0  0  0
    3.2651   -2.4026   -2.7350 O   0  0  0  0  0  1  0  0  0  0  0  0
    1.8257   -0.7230   -0.1844 C   0  0  0  0  0  0  0  0  0  0  0  0
    2.8093   -1.0395    0.7877 C   0  0  0  0  0  0  0  0  0  0  0  0
    2.5604   -0.8661    2.1404 C   0  0  0  0  0  0  0  0  0  0  0  0
    1.3283   -0.3789    2.4976 C   0  0  0  0  0  0  0  0  0  0  0  0
    0.3627   -0.0753    1.6069 N   0  0  0  0  0  0  0  0  0  0  0  0
    0.5741   -0.2452    0.2788 C   0  0  0  0  0  0  0  0  0  0  0  0
   -3.1453   -1.7743   -0.2721 H   0  0  0  0  0  0  0  0  0  0  0  0
   -1.7039   -2.0776    0.7095 H   0  0  0  0  0  0  0  0  0  0  0  0
   -3.2780   -1.8985    1.4913 H   0  0  0  0  0  0  0  0  0  0  0  0
   -3.4448    0.4256    0.8542 H   0  0  0  0  0  0  0  0  0  0  0  0
   -1.9706    0.2236    1.7610 H   0  0  0  0  0  0  0  0  0  0  0  0
   -1.5425    2.2879   -1.5474 H   0  0  0  0  0  0  0  0  0  0  0  0
   -2.9727    2.2284   -0.5468 H   0  0  0  0  0  0  0  0  0  0  0  0
   -1.5603    2.5889    1.5127 H   0  0  0  0  0  0  0  0  0  0  0  0
   -1.4049    3.8951    0.3304 H   0  0  0  0  0  0  0  0  0  0  0  0
   -0.1206    2.6925    0.4856 H   0  0  0  0  0  0  0  0  0  0  0  0
   -0.9792    0.1377   -2.7671 H   0  0  0  0  0  0  0  0  0  0  0  0
    1.1975   -0.6779   -3.5840 H   0  0  0  0  0  0  0  0  0  0  0  0
    3.7883   -1.4203    0.5020 H   0  0  0  0  0  0  0  0  0  0  0  0
    3.3095   -1.1002    2.8878 H   0  0  0  0  0  0  0  0  0  0  0  0
    1.0672   -0.2126    3.5386 H   0  0  0  0  0  0  0  0  0  0  0  0
  1  2  1  0
  2  3  1  0
  3  4  1  0
  4  5  1  0
  3  6  1  0
  6  7  2  0
  7  8  1  0
  8  9  2  0
  9 10  1  0
 10 11  2  0
 10 12  1  0
  9 13  1  0
 13 14  2  0
 14 15  1  0
 15 16  2  0
 16 17  1  0
 17 18  2  0
 18  6  1  0
 18 13  1  0
  1 19  1  0
  1 20  1  0
  1 21  1  0
  2 22  1  0
  2 23  1  0
  4 24  1  0
  4 25  1  0
  5 26  1  0
  5 27  1  0
  5 28  1  0
  7 29  1  0
  8 30  1  0
 14 31  1  0
 15 32  1  0
 16 33  1  0
M  CHG  2  10   1  12  -1
M  END
$$$$
