
     RDKit          3D

 53 56  0  0  0  0  0  0  0  0999 V2000
   -7.9506    1.0868    1.5424 C   0  0  0  0  0  0  0  0  0  0  0  0
   -6.5242    0.8206    1.1631 C   0  0  0  0  0  0  0  0  0  0  0  0
   -5.8842    1.6338    0.2225 C   0  0  0  0  0  0  0  0  0  0  0  0
   -4.5601    1.3850   -0.1588 C   0  0  0  0  0  0  0  0  0  0  0  0
   -3.8507    0.3193    0.4033 C   0  0  0  0  0  0  0  0  0  0  0  0
   -2.5006    0.0206    0.0399 N   0  0  0  0  0  0  0  0  0  0  0  0
   -2.0129   -1.2204    0.3115 N   0  0  0  0  0  0  0  0  0  0  0  0
   -0.8421   -1.2823   -0.3252 C   0  0  0  0  0  0  0  0  0  0  0  0
    0.0392   -2.4411   -0.4051 C   0  0  0  0  0  0  0  0  0  0  0  0
   -0.2144   -3.5309    0.1026 O   0  0  0  0  0  0  0  0  0  0  0  0
    1.2202   -2.1727   -1.1266 N   0  0  0  0  0  0  0  0  0  0  0  0
    2.2181   -3.2344   -1.2627 C   0  0  0  0  0  0  0  0  0  0  0  0
    3.2739   -3.2007   -0.1543 C   0  0  0  0  0  0  0  0  0  0  0  0
    4.1009   -4.0999   -0.0148 O   0  0  0  0  0  0  0  0  0  0  0  0
    3.2779   -2.0586    0.6189 N   0  0  0  0  0  0  0  0  0  0  0  0
    4.3192   -1.7890    1.5905 C   0  0  0  0  0  0  0  0  0  0  0  0
    5.5612   -1.1442    0.9672 C   0  0  0  0  0  0  0  0  0  0  0  0
    5.2754    0.2382    0.4442 C   0  0  0  0  0  0  0  0  0  0  0  0
    5.1050    1.4059    1.1636 C   0  0  0  0  0  0  0  0  0  0  0  0
    4.8529    2.5285    0.3229 C   0  0  0  0  0  0  0  0  0  0  0  0
    4.8467    2.1819   -1.0102 C   0  0  0  0  0  0  0  0  0  0  0  0
    5.1251    0.5115   -1.2406 S   0  0  0  0  0  0  0  0  0  0  0  0
    1.5586   -0.9351   -1.6894 N   0  0  0  0  0  0  0  0  0  0  0  0
    0.7489    0.0847   -1.6158 C   0  0  0  0  0  0  0  0  0  0  0  0
    1.1619    1.3725   -2.2686 C   0  0  0  0  0  0  0  0  0  0  0  0
   -0.4996   -0.0570   -0.9084 C   0  0  0  0  0  0  0  0  0  0  0  0
   -1.5272    0.8126   -0.5834 C   0  0  0  0  0  0  0  0  0  0  0  0
   -1.6223    2.2848   -0.7617 C   0  0  0  0  0  0  0  0  0  0  0  0
   -4.5068   -0.5168    1.3220 C   0  0  0  0  0  0  0  0  0  0  0  0
   -5.8287   -0.2644    1.7011 C   0  0  0  0  0  0  0  0  0  0  0  0
   -8.0846    2.1417    1.8054 H   0  0  0  0  0  0  0  0  0  0  0  0
   -8.6125    0.8389    0.7071 H   0  0  0  0  0  0  0  0  0  0  0  0
   -8.2532    0.4900    2.4089 H   0  0  0  0  0  0  0  0  0  0  0  0
   -6.4238    2.4605   -0.2360 H   0  0  0  0  0  0  0  0  0  0  0  0
   -4.1451    2.0151   -0.9367 H   0  0  0  0  0  0  0  0  0  0  0  0
    2.7244   -3.1141   -2.2274 H   0  0  0  0  0  0  0  0  0  0  0  0
    1.7268   -4.2129   -1.2378 H   0  0  0  0  0  0  0  0  0  0  0  0
    2.7694   -1.2701    0.2291 H   0  0  0  0  0  0  0  0  0  0  0  0
    4.6009   -2.7312    2.0733 H   0  0  0  0  0  0  0  0  0  0  0  0
    3.8811   -1.1373    2.3543 H   0  0  0  0  0  0  0  0  0  0  0  0
    6.3438   -1.0693    1.7328 H   0  0  0  0  0  0  0  0  0  0  0  0
    5.9616   -1.7847    0.1731 H   0  0  0  0  0  0  0  0  0  0  0  0
    5.1623    1.4553    2.2451 H   0  0  0  0  0  0  0  0  0  0  0  0
    4.6948    3.5392    0.6784 H   0  0  0  0  0  0  0  0  0  0  0  0
    4.6911    2.8293   -1.8625 H   0  0  0  0  0  0  0  0  0  0  0  0
    0.3417    1.7717   -2.8702 H   0  0  0  0  0  0  0  0  0  0  0  0
    2.0220    1.2057   -2.9235 H   0  0  0  0  0  0  0  0  0  0  0  0
    1.4450    2.0978   -1.5020 H   0  0  0  0  0  0  0  0  0  0  0  0
   -2.0659    2.5304   -1.7308 H   0  0  0  0  0  0  0  0  0  0  0  0
   -2.2003    2.7582    0.0372 H   0  0  0  0  0  0  0  0  0  0  0  0
   -0.6329    2.7488   -0.7188 H   0  0  0  0  0  0  0  0  0  0  0  0
   -3.9991   -1.3736    1.7620 H   0  0  0  0  0  0  0  0  0  0  0  0
   -6.3080   -0.9286    2.4167 H   0  0  0  0  0  0  0  0  0  0  0  0
  1  2  1  0
  2  3  2  0
  3  4  1  0
  4  5  2  0
  5  6  1  0
  6  7  1  0
  7  8  2  0
  8  9  1  0
  9 10  2  0
  9 11  1  0
 11 12  1  0
 12 13  1  0
 13 14  2  0
 13 15  1  0
 15 16  1  0
 16 17  1  0
 17 18  1  0
 18 19  2  0
 19 20  1  0
 20 21  2  0
 21 22  1  0
 11 23  1  0
 23 24  2  0
 24 25  1  0
 24 26  1  0
 26 27  2  0
 27 28  1  0
  5 29  1  0
 29 30  2  0
 30  2  1  0
 27  6  1  0
 26  8  1  0
 22 18  1  0
  1 31  1  0
  1 32  1  0
  1 33  1  0
  3 34  1  0
  4 35  1  0
 12 36  1  0
 12 37  1  0
 15 38  1  0
 16 39  1  0
 16 40  1  0
 17 41  1  0
 17 42  1  0
 19 43  1  0
 20 44  1  0
 21 45  1  0
 25 46  1  0
 25 47  1  0
 25 48  1  0
 28 49  1  0
 28 50  1  0
 28 51  1  0
 29 52  1  0
 30 53  1  0
M  END
$$$$
