
     RDKit          3D

 50 53  0  0  0  0  0  0  0  0999 V2000
    8.4803    1.7611    0.6352 C   0  0  0  0  0  0  0  0  0  0  0  0
    7.2182    2.3302    0.9600 O   0  0  0  0  0  0  0  0  0  0  0  0
    6.1103    1.5991    0.6337 C   0  0  0  0  0  0  0  0  0  0  0  0
    6.1006    0.3492    0.0224 C   0  0  0  0  0  0  0  0  0  0  0  0
    4.8832   -0.2889   -0.2548 C   0  0  0  0  0  0  0  0  0  0  0  0
    3.6446    0.2991    0.0637 C   0  0  0  0  0  0  0  0  0  0  0  0
    2.3768   -0.3983   -0.2446 C   0  0  0  0  0  0  0  0  0  0  0  0
    1.1884    0.2631   -0.4983 C   0  0  0  0  0  0  0  0  0  0  0  0
    0.0472   -0.4949   -0.7642 C   0  0  0  0  0  0  0  0  0  0  0  0
   -1.2084    0.2629   -0.9655 C   0  0  0  0  0  0  0  0  0  0  0  0
   -1.2444    1.0833   -1.8718 O   0  0  0  0  0  0  0  0  0  0  0  0
   -2.1900   -0.0284   -0.0384 N   0  0  0  0  0  0  0  0  0  0  0  0
   -3.4869    0.5214    0.0372 C   0  0  0  0  0  0  0  0  0  0  0  0
   -3.9874    1.4563   -0.8630 C   0  0  0  0  0  0  0  0  0  0  0  0
   -5.2754    1.9725   -0.6963 C   0  0  0  0  0  0  0  0  0  0  0  0
   -6.0937    1.5489    0.3619 C   0  0  0  0  0  0  0  0  0  0  0  0
   -7.4559    2.1649    0.5228 C   0  0  0  0  0  0  0  0  0  0  0  0
   -5.6252    0.5526    1.2335 C   0  0  0  0  0  0  0  0  0  0  0  0
   -6.3568    0.1678    2.3690 N   0  0  0  0  0  0  0  0  0  0  0  0
   -4.3074    0.0907    1.0891 C   0  0  0  0  0  0  0  0  0  0  0  0
    0.0979   -1.9031   -0.8266 C   0  0  0  0  0  0  0  0  0  0  0  0
   -0.9937   -2.7471   -1.1587 C   0  0  0  0  0  0  0  0  0  0  0  0
   -0.8478   -4.1324   -1.1861 C   0  0  0  0  0  0  0  0  0  0  0  0
    0.3861   -4.6935   -0.8917 C   0  0  0  0  0  0  0  0  0  0  0  0
    1.4670   -3.8643   -0.5834 C   0  0  0  0  0  0  0  0  0  0  0  0
    1.3493   -2.4811   -0.5531 C   0  0  0  0  0  0  0  0  0  0  0  0
    2.4423   -1.7542   -0.2649 N   0  0  0  0  0  0  0  0  0  0  0  0
    3.6805    1.5579    0.6872 C   0  0  0  0  0  0  0  0  0  0  0  0
    4.8954    2.1971    0.9654 C   0  0  0  0  0  0  0  0  0  0  0  0
    8.5834    1.6194   -0.4457 H   0  0  0  0  0  0  0  0  0  0  0  0
    9.2559    2.4643    0.9539 H   0  0  0  0  0  0  0  0  0  0  0  0
    8.6405    0.8219    1.1749 H   0  0  0  0  0  0  0  0  0  0  0  0
    7.0159   -0.1632   -0.2534 H   0  0  0  0  0  0  0  0  0  0  0  0
    4.9072   -1.2672   -0.7340 H   0  0  0  0  0  0  0  0  0  0  0  0
    1.1292    1.3469   -0.5030 H   0  0  0  0  0  0  0  0  0  0  0  0
   -1.9499   -0.6928    0.6881 H   0  0  0  0  0  0  0  0  0  0  0  0
   -3.3972    1.8222   -1.6971 H   0  0  0  0  0  0  0  0  0  0  0  0
   -5.6291    2.7246   -1.3988 H   0  0  0  0  0  0  0  0  0  0  0  0
   -7.6271    2.9621   -0.2084 H   0  0  0  0  0  0  0  0  0  0  0  0
   -8.2328    1.4076    0.3765 H   0  0  0  0  0  0  0  0  0  0  0  0
   -7.5596    2.6078    1.5186 H   0  0  0  0  0  0  0  0  0  0  0  0
   -6.0997   -0.7420    2.7373 H   0  0  0  0  0  0  0  0  0  0  0  0
   -7.3614    0.2634    2.2635 H   0  0  0  0  0  0  0  0  0  0  0  0
   -3.9227   -0.6188    1.8167 H   0  0  0  0  0  0  0  0  0  0  0  0
   -1.9645   -2.3292   -1.4203 H   0  0  0  0  0  0  0  0  0  0  0  0
   -1.6913   -4.7674   -1.4458 H   0  0  0  0  0  0  0  0  0  0  0  0
    0.5181   -5.7723   -0.9117 H   0  0  0  0  0  0  0  0  0  0  0  0
    2.4349   -4.3119   -0.3662 H   0  0  0  0  0  0  0  0  0  0  0  0
    2.7640    2.0616    0.9848 H   0  0  0  0  0  0  0  0  0  0  0  0
    4.8910    3.1707    1.4501 H   0  0  0  0  0  0  0  0  0  0  0  0
  1  2  1  0
  2  3  1  0
  3  4  2  0
  4  5  1  0
  5  6  2  0
  6  7  1  0
  7  8  2  0
  8  9  1  0
  9 10  1  0
 10 11  2  0
 10 12  1  0
 12 13  1  0
 13 14  2  0
 14 15  1  0
 15 16  2  0
 16 17  1  0
 16 18  1  0
 18 19  1  0
 18 20  2  0
  9 21  2  0
 21 22  1  0
 22 23  2  0
 23 24  1  0
 24 25  2  0
 25 26  1  0
 26 27  2  0
  6 28  1  0
 28 29  2  0
 29  3  1  0
 27  7  1  0
 20 13  1  0
 26 21  1  0
  1 30  1  0
  1 31  1  0
  1 32  1  0
  4 33  1  0
  5 34  1  0
  8 35  1  0
 12 36  1  0
 14 37  1  0
 15 38  1  0
 17 39  1  0
 17 40  1  0
 17 41  1  0
 19 42  1  0
 19 43  1  0
 20 44  1  0
 22 45  1  0
 23 46  1  0
 24 47  1  0
 25 48  1  0
 28 49  1  0
 29 50  1  0
M  END
$$$$
