
     RDKit          3D

 36 35  0  0  0  0  0  0  0  0999 V2000
    1.2397   -2.0615    1.2850 C   0  0  0  0  0  0  0  0  0  0  0  0
    2.4210   -1.7262    0.3865 C   0  0  0  0  0  0  0  0  0  0  0  0
    2.0831   -0.6788   -0.5945 N   0  0  0  0  0  0  0  0  0  0  0  0
    2.3735    0.6931   -0.1402 C   0  0  0  0  0  0  0  0  0  0  0  0
    3.7967    1.1141   -0.4769 C   0  0  0  0  0  0  0  0  0  0  0  0
    1.5821   -0.9954   -1.8761 C   0  0  0  0  0  0  0  0  0  0  0  0
    1.3319   -2.5623   -2.4590 S   0  0  0  0  0  0  0  0  0  0  0  0
    1.2480    0.3676   -2.9656 S   0  0  0  0  0  0  0  0  0  0  0  0
   -0.8191    0.4496   -2.9479 S   0  0  0  0  0  0  0  0  0  0  0  0
   -1.1337    1.3911   -1.4756 C   0  0  0  0  0  0  0  0  0  0  0  0
   -0.9656    3.0707   -1.5491 S   0  0  0  0  0  0  0  0  0  0  0  0
   -1.5198    0.6633   -0.3285 N   0  0  0  0  0  0  0  0  0  0  0  0
   -2.0056   -0.7290   -0.3843 C   0  0  0  0  0  0  0  0  0  0  0  0
   -3.4246   -0.8486   -0.9246 C   0  0  0  0  0  0  0  0  0  0  0  0
   -1.5969    1.3043    0.9969 C   0  0  0  0  0  0  0  0  0  0  0  0
   -2.9869    1.8092    1.3498 C   0  0  0  0  0  0  0  0  0  0  0  0
    1.5271   -2.8177    2.0219 H   0  0  0  0  0  0  0  0  0  0  0  0
    0.3974   -2.4534    0.7076 H   0  0  0  0  0  0  0  0  0  0  0  0
    0.8895   -1.1754    1.8241 H   0  0  0  0  0  0  0  0  0  0  0  0
    3.2620   -1.3782    0.9975 H   0  0  0  0  0  0  0  0  0  0  0  0
    2.7717   -2.6312   -0.1169 H   0  0  0  0  0  0  0  0  0  0  0  0
    2.2172    0.7418    0.9439 H   0  0  0  0  0  0  0  0  0  0  0  0
    1.6706    1.4048   -0.5731 H   0  0  0  0  0  0  0  0  0  0  0  0
    3.9821    2.1343   -0.1270 H   0  0  0  0  0  0  0  0  0  0  0  0
    4.5275    0.4534    0.0003 H   0  0  0  0  0  0  0  0  0  0  0  0
    3.9793    1.0845   -1.5553 H   0  0  0  0  0  0  0  0  0  0  0  0
   -1.3312   -1.3309   -0.9963 H   0  0  0  0  0  0  0  0  0  0  0  0
   -1.9620   -1.1616    0.6217 H   0  0  0  0  0  0  0  0  0  0  0  0
   -4.1411   -0.3178   -0.2927 H   0  0  0  0  0  0  0  0  0  0  0  0
   -3.7243   -1.9009   -0.9593 H   0  0  0  0  0  0  0  0  0  0  0  0
   -3.5143   -0.4393   -1.9346 H   0  0  0  0  0  0  0  0  0  0  0  0
   -0.8845    2.1330    1.0523 H   0  0  0  0  0  0  0  0  0  0  0  0
   -1.2596    0.5807    1.7484 H   0  0  0  0  0  0  0  0  0  0  0  0
   -3.6831    0.9783    1.4937 H   0  0  0  0  0  0  0  0  0  0  0  0
   -3.3934    2.4593    0.5697 H   0  0  0  0  0  0  0  0  0  0  0  0
   -2.9545    2.3752    2.2862 H   0  0  0  0  0  0  0  0  0  0  0  0
  1  2  1  0
  2  3  1  0
  3  4  1  0
  4  5  1  0
  3  6  1  0
  6  7  2  0
  6  8  1  0
  8  9  1  0
  9 10  1  0
 10 11  2  0
 10 12  1  0
 12 13  1  0
 13 14  1  0
 12 15  1  0
 15 16  1  0
  1 17  1  0
  1 18  1  0
  1 19  1  0
  2 20  1  0
  2 21  1  0
  4 22  1  0
  4 23  1  0
  5 24  1  0
  5 25  1  0
  5 26  1  0
 13 27  1  0
 13 28  1  0
 14 29  1  0
 14 30  1  0
 14 31  1  0
 15 32  1  0
 15 33  1  0
 16 34  1  0
 16 35  1  0
 16 36  1  0
M  END
$$$$
