
     RDKit          3D

 45 47  0  0  0  0  0  0  0  0999 V2000
   -4.5857   -1.2786    2.4692 O   0  0  0  0  0  0  0  0  0  0  0  0
   -4.1331   -0.2459    1.9705 C   0  0  0  0  0  0  0  0  0  0  0  0
   -5.0665    0.9044    1.6309 C   0  0  0  0  0  0  0  0  0  0  0  0
   -5.4011    1.0051    0.1603 C   0  0  0  0  0  0  0  0  0  0  0  0
   -5.8898   -0.1080   -0.5412 C   0  0  0  0  0  0  0  0  0  0  0  0
   -6.2108   -0.0073   -1.8969 C   0  0  0  0  0  0  0  0  0  0  0  0
   -6.0562    1.2092   -2.5563 C   0  0  0  0  0  0  0  0  0  0  0  0
   -6.4497    1.3341   -4.2264 Cl  0  0  0  0  0  0  0  0  0  0  0  0
   -5.5889    2.3277   -1.8702 C   0  0  0  0  0  0  0  0  0  0  0  0
   -5.2670    2.2276   -0.5145 C   0  0  0  0  0  0  0  0  0  0  0  0
   -2.6990   -0.1209    1.6908 C   0  0  0  0  0  0  0  0  0  0  0  0
   -2.0370    0.9483    1.1165 C   0  0  0  0  0  0  0  0  0  0  0  0
   -0.7014    0.6452    1.0404 N   0  0  0  0  0  0  0  0  0  0  0  0
   -0.4683   -0.6169    1.5377 C   0  0  0  0  0  0  0  0  0  0  0  0
    0.8210   -1.2683    1.6266 C   0  0  0  0  0  0  0  0  0  0  0  0
    1.0669   -2.1747    2.4147 O   0  0  0  0  0  0  0  0  0  0  0  0
    1.7583   -0.8041    0.7199 N   0  0  0  0  0  0  0  0  0  0  0  0
    3.0370   -1.4781    0.6132 C   0  0  0  0  0  0  0  0  0  0  0  0
    4.0344   -0.6490   -0.1831 C   0  0  0  0  0  0  0  0  0  0  0  0
    5.3848   -1.3535   -0.2694 C   0  0  0  0  0  0  0  0  0  0  0  0
    6.3462   -0.5822   -1.0306 N   0  0  0  0  0  0  0  0  0  0  0  0
    7.2006    0.3612   -0.5349 C   0  0  0  0  0  0  0  0  0  0  0  0
    7.9014    0.8112   -1.6298 C   0  0  0  0  0  0  0  0  0  0  0  0
    7.4942    0.1635   -2.7678 N   0  0  0  0  0  0  0  0  0  0  0  0
    6.5629   -0.6758   -2.3749 C   0  0  0  0  0  0  0  0  0  0  0  0
   -1.6946   -1.0944    1.9696 C   0  0  0  0  0  0  0  0  0  0  0  0
   -4.6247    1.8354    2.0055 H   0  0  0  0  0  0  0  0  0  0  0  0
   -6.0000    0.7686    2.1916 H   0  0  0  0  0  0  0  0  0  0  0  0
   -6.0268   -1.0644   -0.0371 H   0  0  0  0  0  0  0  0  0  0  0  0
   -6.5833   -0.8793   -2.4280 H   0  0  0  0  0  0  0  0  0  0  0  0
   -5.4781    3.2796   -2.3828 H   0  0  0  0  0  0  0  0  0  0  0  0
   -4.9133    3.1134    0.0090 H   0  0  0  0  0  0  0  0  0  0  0  0
   -2.3919    1.9049    0.7567 H   0  0  0  0  0  0  0  0  0  0  0  0
    0.0181    1.2716    0.7033 H   0  0  0  0  0  0  0  0  0  0  0  0
    1.3847   -0.3910   -0.1231 H   0  0  0  0  0  0  0  0  0  0  0  0
    2.8607   -2.4456    0.1292 H   0  0  0  0  0  0  0  0  0  0  0  0
    3.4195   -1.6727    1.6218 H   0  0  0  0  0  0  0  0  0  0  0  0
    4.1539    0.3367    0.2851 H   0  0  0  0  0  0  0  0  0  0  0  0
    3.6413   -0.4621   -1.1908 H   0  0  0  0  0  0  0  0  0  0  0  0
    5.2879   -2.3321   -0.7537 H   0  0  0  0  0  0  0  0  0  0  0  0
    5.8087   -1.5158    0.7284 H   0  0  0  0  0  0  0  0  0  0  0  0
    7.2417    0.6284    0.5116 H   0  0  0  0  0  0  0  0  0  0  0  0
    8.6770    1.5656   -1.6595 H   0  0  0  0  0  0  0  0  0  0  0  0
    6.0218   -1.3593   -3.0165 H   0  0  0  0  0  0  0  0  0  0  0  0
   -1.8559   -2.0614    2.4345 H   0  0  0  0  0  0  0  0  0  0  0  0
  1  2  2  0
  2  3  1  0
  3  4  1  0
  4  5  2  0
  5  6  1  0
  6  7  2  0
  7  8  1  0
  7  9  1  0
  9 10  2  0
  2 11  1  0
 11 12  2  0
 12 13  1  0
 13 14  1  0
 14 15  1  0
 15 16  2  0
 15 17  1  0
 17 18  1  0
 18 19  1  0
 19 20  1  0
 20 21  1  0
 21 22  1  0
 22 23  2  0
 23 24  1  0
 24 25  2  0
 14 26  2  0
 10  4  1  0
 26 11  1  0
 25 21  1  0
  3 27  1  0
  3 28  1  0
  5 29  1  0
  6 30  1  0
  9 31  1  0
 10 32  1  0
 12 33  1  0
 13 34  1  0
 17 35  1  0
 18 36  1  0
 18 37  1  0
 19 38  1  0
 19 39  1  0
 20 40  1  0
 20 41  1  0
 22 42  1  0
 23 43  1  0
 25 44  1  0
 26 45  1  0
M  END
$$$$
