
     RDKit          3D

 41 42  0  0  0  0  0  0  0  0999 V2000
    6.9315   -0.9628    0.1520 C   0  0  0  0  0  0  0  0  0  0  0  0
    5.6098   -0.4493    0.3219 O   0  0  0  0  0  0  0  0  0  0  0  0
    4.9306   -0.2699   -0.8439 C   0  0  0  0  0  0  0  0  0  0  0  0
    5.3841   -0.5275   -1.9519 O   0  0  0  0  0  0  0  0  0  0  0  0
    3.5837    0.2155   -0.5959 C   0  0  0  0  0  0  0  0  0  0  0  0
    2.5548    0.2061   -1.5267 C   0  0  0  0  0  0  0  0  0  0  0  0
    1.3858    0.6838   -0.9053 C   0  0  0  0  0  0  0  0  0  0  0  0
    1.6929    0.9939    0.4102 C   0  0  0  0  0  0  0  0  0  0  0  0
    0.6543    1.5855    1.7340 S   0  0  0  0  0  6  0  0  0  0  0  0
    0.9894    0.7548    2.8666 O   0  0  0  0  0  0  0  0  0  0  0  0
    0.8586    3.0141    1.7160 O   0  0  0  0  0  0  0  0  0  0  0  0
   -0.9302    1.2887    1.2862 N   0  0  0  0  0  0  0  0  0  0  0  0
   -1.3636   -0.1110    1.3072 C   0  0  0  0  0  0  0  0  0  0  0  0
   -2.7038   -0.2677    0.6307 C   0  0  0  0  0  0  0  0  0  0  0  0
   -2.8193   -0.9420   -0.5921 C   0  0  0  0  0  0  0  0  0  0  0  0
   -4.0630   -1.0703   -1.2224 C   0  0  0  0  0  0  0  0  0  0  0  0
   -5.2058   -0.5225   -0.6400 C   0  0  0  0  0  0  0  0  0  0  0  0
   -6.4738   -0.5754   -1.1489 O   0  0  0  0  0  0  0  0  0  0  0  0
   -6.6457   -1.2673   -2.3791 C   0  0  0  0  0  0  0  0  0  0  0  0
   -5.0928    0.1546    0.5758 C   0  0  0  0  0  0  0  0  0  0  0  0
   -3.8542    0.2838    1.2080 C   0  0  0  0  0  0  0  0  0  0  0  0
    3.0583    0.7872    0.5564 N   0  0  0  0  0  0  0  0  0  0  0  0
    3.8265    1.1607    1.7306 C   0  0  0  0  0  0  0  0  0  0  0  0
    7.3853   -1.0618    1.1420 H   0  0  0  0  0  0  0  0  0  0  0  0
    6.9018   -1.9520   -0.3153 H   0  0  0  0  0  0  0  0  0  0  0  0
    7.5395   -0.2707   -0.4391 H   0  0  0  0  0  0  0  0  0  0  0  0
    2.6503   -0.1448   -2.5484 H   0  0  0  0  0  0  0  0  0  0  0  0
    0.4083    0.7768   -1.3604 H   0  0  0  0  0  0  0  0  0  0  0  0
   -1.2021    1.8169    0.4588 H   0  0  0  0  0  0  0  0  0  0  0  0
   -1.4448   -0.4608    2.3428 H   0  0  0  0  0  0  0  0  0  0  0  0
   -0.6294   -0.7480    0.8026 H   0  0  0  0  0  0  0  0  0  0  0  0
   -1.9430   -1.3785   -1.0672 H   0  0  0  0  0  0  0  0  0  0  0  0
   -4.1037   -1.6037   -2.1663 H   0  0  0  0  0  0  0  0  0  0  0  0
   -6.0836   -0.7845   -3.1852 H   0  0  0  0  0  0  0  0  0  0  0  0
   -6.3698   -2.3225   -2.2808 H   0  0  0  0  0  0  0  0  0  0  0  0
   -7.7072   -1.2241   -2.6415 H   0  0  0  0  0  0  0  0  0  0  0  0
   -5.9786    0.5872    1.0352 H   0  0  0  0  0  0  0  0  0  0  0  0
   -3.7907    0.8214    2.1524 H   0  0  0  0  0  0  0  0  0  0  0  0
    3.3149    1.9458    2.2887 H   0  0  0  0  0  0  0  0  0  0  0  0
    4.7891    1.5687    1.4126 H   0  0  0  0  0  0  0  0  0  0  0  0
    3.9556    0.2716    2.3521 H   0  0  0  0  0  0  0  0  0  0  0  0
  1  2  1  0
  2  3  1  0
  3  4  2  0
  3  5  1  0
  5  6  2  0
  6  7  1  0
  7  8  2  0
  8  9  1  0
  9 10  2  0
  9 11  2  0
  9 12  1  0
 12 13  1  0
 13 14  1  0
 14 15  2  0
 15 16  1  0
 16 17  2  0
 17 18  1  0
 18 19  1  0
 17 20  1  0
 20 21  2  0
  8 22  1  0
 22 23  1  0
 22  5  1  0
 21 14  1  0
  1 24  1  0
  1 25  1  0
  1 26  1  0
  6 27  1  0
  7 28  1  0
 12 29  1  0
 13 30  1  0
 13 31  1  0
 15 32  1  0
 16 33  1  0
 19 34  1  0
 19 35  1  0
 19 36  1  0
 20 37  1  0
 21 38  1  0
 23 39  1  0
 23 40  1  0
 23 41  1  0
M  END
$$$$
