
     RDKit          3D

 33 34  0  0  0  0  0  0  0  0999 V2000
   -1.7438    4.2172    0.2714 C   0  0  0  0  0  0  0  0  0  0  0  0
   -0.9834    3.0284    0.0544 O   0  0  0  0  0  0  0  0  0  0  0  0
   -0.4683    2.5048    1.1922 C   0  0  0  0  0  0  0  0  0  0  0  0
   -0.4848    2.9835    2.3120 O   0  0  0  0  0  0  0  0  0  0  0  0
    0.2799    1.2932    0.8380 C   0  0  0  0  0  0  0  0  0  0  0  0
    1.6513    1.3210    1.0831 C   0  0  0  0  0  0  0  0  0  0  0  0
    2.3867    0.2249    0.6979 C   0  0  0  0  0  0  0  0  0  0  0  0
    3.7425    0.2772    0.9393 O   0  0  0  0  0  0  0  0  0  0  0  0
    4.4303   -0.9093    0.5541 C   0  0  0  0  0  0  0  0  0  0  0  0
    1.8484   -0.8538    0.0954 N   0  0  0  0  0  0  0  0  0  0  0  0
    0.5072   -0.8747   -0.1175 C   0  0  0  0  0  0  0  0  0  0  0  0
   -0.3159    0.1699    0.2580 C   0  0  0  0  0  0  0  0  0  0  0  0
   -1.7643    0.0147    0.0788 C   0  0  0  0  0  0  0  0  0  0  0  0
   -2.5391    0.7770    0.6477 O   0  0  0  0  0  0  0  0  0  0  0  0
   -2.1837   -1.0479   -0.7069 N   0  0  0  0  0  0  0  0  0  0  0  0
   -3.6087   -1.1687   -0.9602 C   0  0  0  0  0  0  0  0  0  0  0  0
   -1.3784   -2.1228   -1.0587 C   0  0  0  0  0  0  0  0  0  0  0  0
   -1.8402   -3.1231   -1.6111 O   0  0  0  0  0  0  0  0  0  0  0  0
   -0.0382   -2.0154   -0.7399 N   0  0  0  0  0  0  0  0  0  0  0  0
    0.8774   -3.0919   -1.0903 C   0  0  0  0  0  0  0  0  0  0  0  0
   -2.1171    4.5621   -0.6966 H   0  0  0  0  0  0  0  0  0  0  0  0
   -2.6016    4.0093    0.9201 H   0  0  0  0  0  0  0  0  0  0  0  0
   -1.1151    5.0034    0.7022 H   0  0  0  0  0  0  0  0  0  0  0  0
    2.1294    2.1763    1.5491 H   0  0  0  0  0  0  0  0  0  0  0  0
    5.4855   -0.7823    0.8142 H   0  0  0  0  0  0  0  0  0  0  0  0
    4.0544   -1.7818    1.0990 H   0  0  0  0  0  0  0  0  0  0  0  0
    4.3690   -1.0673   -0.5283 H   0  0  0  0  0  0  0  0  0  0  0  0
   -4.0801   -0.1831   -1.0146 H   0  0  0  0  0  0  0  0  0  0  0  0
   -3.7944   -1.6985   -1.8991 H   0  0  0  0  0  0  0  0  0  0  0  0
   -4.0595   -1.7334   -0.1384 H   0  0  0  0  0  0  0  0  0  0  0  0
    0.3498   -3.9604   -1.4942 H   0  0  0  0  0  0  0  0  0  0  0  0
    1.4268   -3.4151   -0.1995 H   0  0  0  0  0  0  0  0  0  0  0  0
    1.5780   -2.7334   -1.8517 H   0  0  0  0  0  0  0  0  0  0  0  0
  1  2  1  0
  2  3  1  0
  3  4  2  0
  3  5  1  0
  5  6  2  0
  6  7  1  0
  7  8  1  0
  8  9  1  0
  7 10  2  0
 10 11  1  0
 11 12  2  0
 12 13  1  0
 13 14  2  0
 13 15  1  0
 15 16  1  0
 15 17  1  0
 17 18  2  0
 17 19  1  0
 19 20  1  0
 12  5  1  0
 19 11  1  0
  1 21  1  0
  1 22  1  0
  1 23  1  0
  6 24  1  0
  9 25  1  0
  9 26  1  0
  9 27  1  0
 16 28  1  0
 16 29  1  0
 16 30  1  0
 20 31  1  0
 20 32  1  0
 20 33  1  0
M  END
$$$$
