
     RDKit          3D

 30 31  0  0  0  0  0  0  0  0999 V2000
   -4.8374   -0.2733    0.0019 C   0  0  0  0  0  0  0  0  0  0  0  0
   -3.3165   -0.2645    0.1652 C   0  0  0  0  0  0  0  0  0  0  0  0
   -2.7741   -1.6721   -0.1003 C   0  0  0  0  0  0  0  0  0  0  0  0
   -2.8185    0.6648   -0.8085 O   0  0  0  0  0  0  0  0  0  0  0  0
   -1.5954    1.1849   -0.6365 C   0  0  0  0  0  0  0  0  0  0  0  0
   -1.0382    1.9273   -1.4280 O   0  0  0  0  0  0  0  0  0  0  0  0
   -0.9495    0.7762    0.6583 C   0  0  0  0  0  0  0  0  0  0  0  0
    0.3119    0.4777    0.7927 N   0  0  0  0  0  0  0  0  0  0  0  0
    1.0985    0.5841   -0.3172 N   0  0  0  0  0  0  0  0  0  0  0  0
    2.4878    0.3682   -0.1694 C   0  0  0  0  0  0  0  0  0  0  0  0
    3.3428    0.6678   -1.2401 C   0  0  0  0  0  0  0  0  0  0  0  0
    4.7143    0.4097   -1.1596 C   0  0  0  0  0  0  0  0  0  0  0  0
    5.2472   -0.1730   -0.0126 C   0  0  0  0  0  0  0  0  0  0  0  0
    4.4080   -0.5054    1.0479 C   0  0  0  0  0  0  0  0  0  0  0  0
    3.0369   -0.2465    0.9633 C   0  0  0  0  0  0  0  0  0  0  0  0
   -1.8641    0.6347    1.8437 C   0  0  0  0  0  0  0  0  0  0  0  0
   -1.5431    0.9805    2.9656 O   0  0  0  0  0  0  0  0  0  0  0  0
   -3.0654    0.1297    1.5216 O   0  0  0  0  0  0  0  0  0  0  0  0
   -5.1297   -0.5567   -1.0150 H   0  0  0  0  0  0  0  0  0  0  0  0
   -5.3134   -0.9540    0.7160 H   0  0  0  0  0  0  0  0  0  0  0  0
   -5.2462    0.7270    0.1881 H   0  0  0  0  0  0  0  0  0  0  0  0
   -3.1891   -2.3947    0.6105 H   0  0  0  0  0  0  0  0  0  0  0  0
   -1.6856   -1.7149    0.0059 H   0  0  0  0  0  0  0  0  0  0  0  0
   -3.0046   -1.9971   -1.1206 H   0  0  0  0  0  0  0  0  0  0  0  0
    0.8907    1.3217   -1.0029 H   0  0  0  0  0  0  0  0  0  0  0  0
    2.9453    1.1079   -2.1511 H   0  0  0  0  0  0  0  0  0  0  0  0
    5.3632    0.6587   -1.9949 H   0  0  0  0  0  0  0  0  0  0  0  0
    6.3129   -0.3753    0.0524 H   0  0  0  0  0  0  0  0  0  0  0  0
    4.8151   -0.9702    1.9417 H   0  0  0  0  0  0  0  0  0  0  0  0
    2.3962   -0.5232    1.7967 H   0  0  0  0  0  0  0  0  0  0  0  0
  1  2  1  0
  2  3  1  0
  2  4  1  0
  4  5  1  0
  5  6  2  0
  5  7  1  0
  7  8  2  3
  8  9  1  0
  9 10  1  0
 10 11  2  0
 11 12  1  0
 12 13  2  0
 13 14  1  0
 14 15  2  0
  7 16  1  0
 16 17  2  0
 16 18  1  0
 18  2  1  0
 15 10  1  0
  1 19  1  0
  1 20  1  0
  1 21  1  0
  3 22  1  0
  3 23  1  0
  3 24  1  0
  9 25  1  0
 11 26  1  0
 12 27  1  0
 13 28  1  0
 14 29  1  0
 15 30  1  0
M  END
$$$$
