
     RDKit          3D

 60 62  0  0  0  0  0  0  0  0999 V2000
   -3.5402    4.0000   -1.9442 C   0  0  0  0  0  0  0  0  0  0  0  0
   -4.0337    2.5659   -2.0963 C   0  0  0  0  0  0  0  0  0  0  0  0
   -3.1826    1.5745   -1.3444 C   0  0  0  0  0  0  0  0  0  0  0  0
   -3.1643    1.5640    0.0540 C   0  0  0  0  0  0  0  0  0  0  0  0
   -2.3882    0.6308    0.7471 C   0  0  0  0  0  0  0  0  0  0  0  0
   -1.6137   -0.3105    0.0568 C   0  0  0  0  0  0  0  0  0  0  0  0
   -0.8516   -1.2146    0.8302 N   0  0  0  0  0  0  0  0  0  0  0  0
    0.0477   -2.1592    0.3689 C   0  0  0  0  0  0  0  0  0  0  0  0
    0.3029   -2.4145   -0.8073 O   0  0  0  0  0  0  0  0  0  0  0  0
    0.7833   -2.9073    1.4976 C   0  0  0  0  0  0  0  0  0  0  0  0
    2.1324   -3.2684    1.0037 N   0  0  0  0  0  0  0  0  0  0  0  0
    3.4173   -2.2385    1.3542 S   0  0  0  0  0  6  0  0  0  0  0  0
    3.4970   -2.1216    2.7959 O   0  0  0  0  0  0  0  0  0  0  0  0
    4.5389   -2.6798    0.5579 O   0  0  0  0  0  0  0  0  0  0  0  0
    2.8706   -0.6730    0.7165 C   0  0  0  0  0  0  0  0  0  0  0  0
    2.8951   -0.4444   -0.6679 C   0  0  0  0  0  0  0  0  0  0  0  0
    2.3441    0.7394   -1.1972 C   0  0  0  0  0  0  0  0  0  0  0  0
    1.7903    1.6728   -0.3341 C   0  0  0  0  0  0  0  0  0  0  0  0
    1.8325    1.4529    1.0496 C   0  0  0  0  0  0  0  0  0  0  0  0
    2.3705    0.2948    1.5969 C   0  0  0  0  0  0  0  0  0  0  0  0
    1.1813    2.5714    1.8026 C   0  0  0  0  0  0  0  0  0  0  0  0
    0.8991    3.5726    0.6857 C   0  0  0  0  0  0  0  0  0  0  0  0
    1.1517    2.8987   -0.5926 N   0  0  0  0  0  0  0  0  0  0  0  0
    0.7897    3.5265   -1.7618 C   0  0  0  0  0  0  0  0  0  0  0  0
    0.9204    2.7992   -3.0707 C   0  0  0  0  0  0  0  0  0  0  0  0
    0.3458    4.6798   -1.7581 O   0  0  0  0  0  0  0  0  0  0  0  0
   -0.0059   -4.1595    1.9335 C   0  0  0  0  0  0  0  0  0  0  0  0
   -0.0863   -5.2509    0.8600 C   0  0  0  0  0  0  0  0  0  0  0  0
    0.5783   -4.7437    3.2234 C   0  0  0  0  0  0  0  0  0  0  0  0
   -1.6338   -0.3005   -1.3368 C   0  0  0  0  0  0  0  0  0  0  0  0
   -2.4121    0.6332   -2.0304 C   0  0  0  0  0  0  0  0  0  0  0  0
   -4.1678    4.6850   -2.5290 H   0  0  0  0  0  0  0  0  0  0  0  0
   -2.5041    4.1033   -2.2954 H   0  0  0  0  0  0  0  0  0  0  0  0
   -3.5766    4.3265   -0.9044 H   0  0  0  0  0  0  0  0  0  0  0  0
   -5.0699    2.4884   -1.7399 H   0  0  0  0  0  0  0  0  0  0  0  0
   -4.0620    2.3091   -3.1620 H   0  0  0  0  0  0  0  0  0  0  0  0
   -3.7646    2.2765    0.6152 H   0  0  0  0  0  0  0  0  0  0  0  0
   -2.4022    0.6562    1.8316 H   0  0  0  0  0  0  0  0  0  0  0  0
   -0.9408   -1.1047    1.8346 H   0  0  0  0  0  0  0  0  0  0  0  0
    0.8735   -2.2412    2.3621 H   0  0  0  0  0  0  0  0  0  0  0  0
    2.1472   -3.5753    0.0260 H   0  0  0  0  0  0  0  0  0  0  0  0
    3.3111   -1.1914   -1.3438 H   0  0  0  0  0  0  0  0  0  0  0  0
    2.3708    0.8749   -2.2690 H   0  0  0  0  0  0  0  0  0  0  0  0
    2.3675    0.1402    2.6722 H   0  0  0  0  0  0  0  0  0  0  0  0
    1.8397    2.9970    2.5658 H   0  0  0  0  0  0  0  0  0  0  0  0
    0.2509    2.2261    2.2623 H   0  0  0  0  0  0  0  0  0  0  0  0
   -0.1355    3.9380    0.7240 H   0  0  0  0  0  0  0  0  0  0  0  0
    1.5671    4.4374    0.7515 H   0  0  0  0  0  0  0  0  0  0  0  0
    0.4788    1.8018   -3.0108 H   0  0  0  0  0  0  0  0  0  0  0  0
    0.3664    3.3498   -3.8396 H   0  0  0  0  0  0  0  0  0  0  0  0
    1.9698    2.7612   -3.3754 H   0  0  0  0  0  0  0  0  0  0  0  0
   -1.0377   -3.8494    2.1543 H   0  0  0  0  0  0  0  0  0  0  0  0
   -0.7127   -6.0817    1.2031 H   0  0  0  0  0  0  0  0  0  0  0  0
   -0.5323   -4.8716   -0.0630 H   0  0  0  0  0  0  0  0  0  0  0  0
    0.9019   -5.6591    0.6200 H   0  0  0  0  0  0  0  0  0  0  0  0
   -0.0213   -5.5914    3.5653 H   0  0  0  0  0  0  0  0  0  0  0  0
    0.5795   -3.9988    4.0229 H   0  0  0  0  0  0  0  0  0  0  0  0
    1.6037   -5.0915    3.0791 H   0  0  0  0  0  0  0  0  0  0  0  0
   -1.0616   -1.0099   -1.9236 H   0  0  0  0  0  0  0  0  0  0  0  0
   -2.4158    0.6045   -3.1177 H   0  0  0  0  0  0  0  0  0  0  0  0
  1  2  1  0
  2  3  1  0
  3  4  2  0
  4  5  1  0
  5  6  2  0
  6  7  1  0
  7  8  1  0
  8  9  2  0
  8 10  1  0
 10 11  1  0
 11 12  1  0
 12 13  2  0
 12 14  2  0
 12 15  1  0
 15 16  2  0
 16 17  1  0
 17 18  2  0
 18 19  1  0
 19 20  2  0
 19 21  1  0
 21 22  1  0
 22 23  1  0
 23 24  1  0
 24 25  1  0
 24 26  2  0
 10 27  1  0
 27 28  1  0
 27 29  1  0
  6 30  1  0
 30 31  2  0
 31  3  1  0
 20 15  1  0
 23 18  1  0
  1 32  1  0
  1 33  1  0
  1 34  1  0
  2 35  1  0
  2 36  1  0
  4 37  1  0
  5 38  1  0
  7 39  1  0
 10 40  1  0
 11 41  1  0
 16 42  1  0
 17 43  1  0
 20 44  1  0
 21 45  1  0
 21 46  1  0
 22 47  1  0
 22 48  1  0
 25 49  1  0
 25 50  1  0
 25 51  1  0
 27 52  1  0
 28 53  1  0
 28 54  1  0
 28 55  1  0
 29 56  1  0
 29 57  1  0
 29 58  1  0
 30 59  1  0
 31 60  1  0
M  END
$$$$
