
     RDKit          3D

 44 45  0  0  0  0  0  0  0  0999 V2000
   -6.2921   -1.1976    2.7400 C   0  0  0  0  0  0  0  0  0  0  0  0
   -7.1957   -0.5626    1.6931 C   0  0  0  0  0  0  0  0  0  0  0  0
   -6.5821    0.6815    1.0581 C   0  0  0  0  0  0  0  0  0  0  0  0
   -5.4313    0.3208    0.2777 O   0  0  0  0  0  0  0  0  0  0  0  0
   -4.2204    0.6647    0.7837 C   0  0  0  0  0  0  0  0  0  0  0  0
   -4.0233    1.2488    1.8360 O   0  0  0  0  0  0  0  0  0  0  0  0
   -3.1318    0.2111   -0.1275 C   0  0  0  0  0  0  0  0  0  0  0  0
   -3.3988   -0.4193   -1.3501 C   0  0  0  0  0  0  0  0  0  0  0  0
   -2.3476   -0.8280   -2.1683 C   0  0  0  0  0  0  0  0  0  0  0  0
   -1.0285   -0.6088   -1.7688 C   0  0  0  0  0  0  0  0  0  0  0  0
   -0.7431    0.0203   -0.5500 C   0  0  0  0  0  0  0  0  0  0  0  0
    0.6156    0.1974   -0.2295 N   0  0  0  0  0  0  0  0  0  0  0  0
    1.1625    0.7769    0.9005 C   0  0  0  0  0  0  0  0  0  0  0  0
    0.5477    1.2543    1.8493 O   0  0  0  0  0  0  0  0  0  0  0  0
    2.6949    0.7837    0.8886 C   0  0  0  0  0  0  0  0  0  0  0  0
    3.2125    0.1801   -0.2967 O   0  0  0  0  0  0  0  0  0  0  0  0
    4.5731    0.1458   -0.4308 C   0  0  0  0  0  0  0  0  0  0  0  0
    5.5022    0.6104    0.5036 C   0  0  0  0  0  0  0  0  0  0  0  0
    6.8744    0.5161    0.2414 C   0  0  0  0  0  0  0  0  0  0  0  0
    7.3146   -0.0465   -0.9633 C   0  0  0  0  0  0  0  0  0  0  0  0
    8.7529   -0.1425   -1.2412 N   0  0  0  0  0  4  0  0  0  0  0  0
    9.0975   -0.5372   -2.3647 O   0  0  0  0  0  0  0  0  0  0  0  0
    9.5367    0.1774   -0.3361 O   0  0  0  0  0  1  0  0  0  0  0  0
    6.3917   -0.5145   -1.9048 C   0  0  0  0  0  0  0  0  0  0  0  0
    5.0248   -0.4160   -1.6305 C   0  0  0  0  0  0  0  0  0  0  0  0
   -1.8005    0.4286    0.2664 C   0  0  0  0  0  0  0  0  0  0  0  0
   -6.0378   -0.4784    3.5253 H   0  0  0  0  0  0  0  0  0  0  0  0
   -5.3634   -1.5655    2.2941 H   0  0  0  0  0  0  0  0  0  0  0  0
   -6.7975   -2.0490    3.2063 H   0  0  0  0  0  0  0  0  0  0  0  0
   -8.1500   -0.2947    2.1597 H   0  0  0  0  0  0  0  0  0  0  0  0
   -7.4030   -1.3073    0.9159 H   0  0  0  0  0  0  0  0  0  0  0  0
   -7.3045    1.1227    0.3628 H   0  0  0  0  0  0  0  0  0  0  0  0
   -6.3604    1.4463    1.8116 H   0  0  0  0  0  0  0  0  0  0  0  0
   -4.4201   -0.5980   -1.6774 H   0  0  0  0  0  0  0  0  0  0  0  0
   -2.5555   -1.3176   -3.1167 H   0  0  0  0  0  0  0  0  0  0  0  0
   -0.2265   -0.9385   -2.4253 H   0  0  0  0  0  0  0  0  0  0  0  0
    1.2985   -0.1407   -0.9016 H   0  0  0  0  0  0  0  0  0  0  0  0
    3.0099    1.8322    0.9452 H   0  0  0  0  0  0  0  0  0  0  0  0
    3.0233    0.2223    1.7708 H   0  0  0  0  0  0  0  0  0  0  0  0
    5.1977    1.0520    1.4482 H   0  0  0  0  0  0  0  0  0  0  0  0
    7.5812    0.8847    0.9822 H   0  0  0  0  0  0  0  0  0  0  0  0
    6.7144   -0.9551   -2.8458 H   0  0  0  0  0  0  0  0  0  0  0  0
    4.3064   -0.7800   -2.3624 H   0  0  0  0  0  0  0  0  0  0  0  0
   -1.6186    0.9198    1.2187 H   0  0  0  0  0  0  0  0  0  0  0  0
  1  2  1  0
  2  3  1  0
  3  4  1  0
  4  5  1  0
  5  6  2  0
  5  7  1  0
  7  8  2  0
  8  9  1  0
  9 10  2  0
 10 11  1  0
 11 12  1  0
 12 13  1  0
 13 14  2  0
 13 15  1  0
 15 16  1  0
 16 17  1  0
 17 18  2  0
 18 19  1  0
 19 20  2  0
 20 21  1  0
 21 22  2  0
 21 23  1  0
 20 24  1  0
 24 25  2  0
 11 26  2  0
 26  7  1  0
 25 17  1  0
  1 27  1  0
  1 28  1  0
  1 29  1  0
  2 30  1  0
  2 31  1  0
  3 32  1  0
  3 33  1  0
  8 34  1  0
  9 35  1  0
 10 36  1  0
 12 37  1  0
 15 38  1  0
 15 39  1  0
 18 40  1  0
 19 41  1  0
 24 42  1  0
 25 43  1  0
 26 44  1  0
M  CHG  2  21   1  23  -1
M  END
$$$$
