
     RDKit          3D

 61 65  0  0  0  0  0  0  0  0999 V2000
   -8.4693    0.7456    2.7677 C   0  0  0  0  0  0  0  0  0  0  0  0
   -7.9172    0.3200    1.5316 O   0  0  0  0  0  0  0  0  0  0  0  0
   -6.5952    0.6036    1.2902 C   0  0  0  0  0  0  0  0  0  0  0  0
   -5.7091    1.0990    2.2511 C   0  0  0  0  0  0  0  0  0  0  0  0
   -4.3728    1.3453    1.9208 C   0  0  0  0  0  0  0  0  0  0  0  0
   -3.8975    1.1012    0.6270 C   0  0  0  0  0  0  0  0  0  0  0  0
   -2.5049    1.3437    0.2629 C   0  0  0  0  0  0  0  0  0  0  0  0
   -1.8894    1.1084   -0.8772 N   0  0  0  0  0  0  0  0  0  0  0  0
   -0.5792    1.5007   -0.6632 C   0  0  0  0  0  0  0  0  0  0  0  0
    0.3917    1.3195   -1.7780 C   0  0  0  0  0  0  0  0  0  0  0  0
    1.7042    1.8895   -1.5287 N   0  0  0  0  0  0  0  0  0  0  0  0
    2.8052    1.2526   -1.0146 C   0  0  0  0  0  0  0  0  0  0  0  0
    2.7713   -0.3843   -0.4612 S   0  0  0  0  0  0  0  0  0  0  0  0
    4.5520   -0.7506   -0.4130 C   0  0  0  0  0  0  0  0  0  0  0  0
    4.8126   -2.1689    0.0322 C   0  0  0  0  0  0  0  0  0  0  0  0
    5.3372   -2.4324    1.3089 C   0  0  0  0  0  0  0  0  0  0  0  0
    5.5622   -3.7470    1.7233 C   0  0  0  0  0  0  0  0  0  0  0  0
    5.2681   -4.8215    0.8804 C   0  0  0  0  0  0  0  0  0  0  0  0
    5.4949   -6.2270    1.3525 C   0  0  0  0  0  0  0  0  0  0  0  0
    4.7415   -4.5623   -0.3894 C   0  0  0  0  0  0  0  0  0  0  0  0
    4.5224   -3.2486   -0.8125 C   0  0  0  0  0  0  0  0  0  0  0  0
    3.8517    2.0422   -0.9669 N   0  0  0  0  0  0  0  0  0  0  0  0
    3.4247    3.2419   -1.4782 C   0  0  0  0  0  0  0  0  0  0  0  0
    4.1313    4.4311   -1.6571 C   0  0  0  0  0  0  0  0  0  0  0  0
    3.4120    5.4791   -2.2090 C   0  0  0  0  0  0  0  0  0  0  0  0
    2.1053    5.4201   -2.5646 N   0  0  0  0  0  0  0  0  0  0  0  0
    1.4179    4.2665   -2.3849 C   0  0  0  0  0  0  0  0  0  0  0  0
    2.0847    3.1764   -1.8437 C   0  0  0  0  0  0  0  0  0  0  0  0
   -0.4674    1.9913    0.6242 C   0  0  0  0  0  0  0  0  0  0  0  0
    0.6055    2.5533    1.4667 C   0  0  0  0  0  0  0  0  0  0  0  0
   -1.6960    1.8897    1.2182 O   0  0  0  0  0  0  0  0  0  0  0  0
   -4.7908    0.5995   -0.3356 C   0  0  0  0  0  0  0  0  0  0  0  0
   -6.1324    0.3476   -0.0144 C   0  0  0  0  0  0  0  0  0  0  0  0
   -7.0719   -0.1268   -0.9028 O   0  0  0  0  0  0  0  0  0  0  0  0
   -6.6344   -0.4749   -2.2055 C   0  0  0  0  0  0  0  0  0  0  0  0
   -8.0409    0.1823    3.6037 H   0  0  0  0  0  0  0  0  0  0  0  0
   -8.3449    1.8269    2.9100 H   0  0  0  0  0  0  0  0  0  0  0  0
   -9.5394    0.5323    2.7396 H   0  0  0  0  0  0  0  0  0  0  0  0
   -6.0236    1.2952    3.2701 H   0  0  0  0  0  0  0  0  0  0  0  0
   -3.7061    1.7304    2.6925 H   0  0  0  0  0  0  0  0  0  0  0  0
    0.5039    0.2570   -2.0143 H   0  0  0  0  0  0  0  0  0  0  0  0
   -0.0029    1.7912   -2.6866 H   0  0  0  0  0  0  0  0  0  0  0  0
    5.0484   -0.0480    0.2630 H   0  0  0  0  0  0  0  0  0  0  0  0
    4.9909   -0.6071   -1.4097 H   0  0  0  0  0  0  0  0  0  0  0  0
    5.5695   -1.6143    1.9898 H   0  0  0  0  0  0  0  0  0  0  0  0
    5.9690   -3.9316    2.7139 H   0  0  0  0  0  0  0  0  0  0  0  0
    6.5245   -6.3509    1.7030 H   0  0  0  0  0  0  0  0  0  0  0  0
    4.8071   -6.4626    2.1674 H   0  0  0  0  0  0  0  0  0  0  0  0
    5.3304   -6.9499    0.5510 H   0  0  0  0  0  0  0  0  0  0  0  0
    4.4947   -5.3820   -1.0645 H   0  0  0  0  0  0  0  0  0  0  0  0
    4.1081   -3.0706   -1.8045 H   0  0  0  0  0  0  0  0  0  0  0  0
    5.1733    4.5228   -1.3829 H   0  0  0  0  0  0  0  0  0  0  0  0
    3.8894    6.4432   -2.3918 H   0  0  0  0  0  0  0  0  0  0  0  0
    0.3718    4.2601   -2.6740 H   0  0  0  0  0  0  0  0  0  0  0  0
    1.3157    1.7759    1.7587 H   0  0  0  0  0  0  0  0  0  0  0  0
    0.1958    2.9974    2.3844 H   0  0  0  0  0  0  0  0  0  0  0  0
    1.1452    3.3446    0.9376 H   0  0  0  0  0  0  0  0  0  0  0  0
   -4.4129    0.4197   -1.3383 H   0  0  0  0  0  0  0  0  0  0  0  0
   -6.2649    0.3964   -2.7439 H   0  0  0  0  0  0  0  0  0  0  0  0
   -5.8759   -1.2685   -2.1747 H   0  0  0  0  0  0  0  0  0  0  0  0
   -7.4950   -0.8592   -2.7564 H   0  0  0  0  0  0  0  0  0  0  0  0
  1  2  1  0
  2  3  1  0
  3  4  2  0
  4  5  1  0
  5  6  2  0
  6  7  1  0
  7  8  2  0
  8  9  1  0
  9 10  1  0
 10 11  1  0
 11 12  1  0
 12 13  1  0
 13 14  1  0
 14 15  1  0
 15 16  2  0
 16 17  1  0
 17 18  2  0
 18 19  1  0
 18 20  1  0
 20 21  2  0
 12 22  2  0
 22 23  1  0
 23 24  2  0
 24 25  1  0
 25 26  2  0
 26 27  1  0
 27 28  2  0
  9 29  2  0
 29 30  1  0
 29 31  1  0
  6 32  1  0
 32 33  2  0
 33 34  1  0
 34 35  1  0
 33  3  1  0
 31  7  1  0
 28 11  1  0
 21 15  1  0
 28 23  1  0
  1 36  1  0
  1 37  1  0
  1 38  1  0
  4 39  1  0
  5 40  1  0
 10 41  1  0
 10 42  1  0
 14 43  1  0
 14 44  1  0
 16 45  1  0
 17 46  1  0
 19 47  1  0
 19 48  1  0
 19 49  1  0
 20 50  1  0
 21 51  1  0
 24 52  1  0
 25 53  1  0
 27 54  1  0
 30 55  1  0
 30 56  1  0
 30 57  1  0
 32 58  1  0
 35 59  1  0
 35 60  1  0
 35 61  1  0
M  END
$$$$
