
     RDKit          3D

 59 64  0  0  0  0  0  0  0  0999 V2000
    3.4551    0.9880   -2.6443 O   0  0  0  0  0  0  0  0  0  0  0  0
    3.3280    0.4125   -1.5688 C   0  0  0  0  0  0  0  0  0  0  0  0
    4.4667    0.3376   -0.6316 C   0  0  0  0  0  0  0  0  0  0  0  0
    4.9726    1.4897   -0.1565 C   0  0  0  0  0  0  0  0  0  0  0  0
    6.0527    1.5214    0.7720 C   0  0  0  0  0  0  0  0  0  0  0  0
    6.9081    0.5260    1.2224 C   0  0  0  0  0  0  0  0  0  0  0  0
    7.8696    0.9898    2.1663 C   0  0  0  0  0  0  0  0  0  0  0  0
    7.7240    2.3295    2.4258 C   0  0  0  0  0  0  0  0  0  0  0  0
    6.4447    3.0232    1.5285 S   0  0  0  0  0  0  0  0  0  0  0  0
    2.1599   -0.2127   -1.1609 N   0  0  0  0  0  0  0  0  0  0  0  0
    1.0339   -0.2142   -2.0861 C   0  0  0  0  0  0  0  0  0  0  0  0
    0.0285   -1.3189   -1.7862 C   0  0  0  0  0  0  0  0  0  0  0  0
   -0.4986   -1.2984   -0.3257 C   0  0  0  0  0  0  0  0  0  0  0  0
    0.4844   -0.5498    0.6131 C   0  0  0  0  0  0  0  0  0  0  0  0
    1.9323   -0.7494    0.1837 C   0  0  0  0  0  0  0  0  0  0  0  0
   -0.4292   -2.6685    0.1660 O   0  0  0  0  0  0  0  0  0  0  0  0
   -1.4746   -3.5031   -0.0945 C   0  0  0  0  0  0  0  0  0  0  0  0
   -1.2683   -4.8522    0.2034 C   0  0  0  0  0  0  0  0  0  0  0  0
   -2.2796   -5.7838   -0.0332 C   0  0  0  0  0  0  0  0  0  0  0  0
   -3.4890   -5.3609   -0.5767 C   0  0  0  0  0  0  0  0  0  0  0  0
   -4.4560   -6.2592   -0.8024 F   0  0  0  0  0  0  0  0  0  0  0  0
   -3.7119   -4.0219   -0.8738 C   0  0  0  0  0  0  0  0  0  0  0  0
   -2.6995   -3.0942   -0.6140 C   0  0  0  0  0  0  0  0  0  0  0  0
   -2.9141   -1.6625   -0.8663 C   0  0  0  0  0  0  0  0  0  0  0  0
   -3.8369   -1.3019   -1.5922 O   0  0  0  0  0  0  0  0  0  0  0  0
   -1.9355   -0.7146   -0.1862 C   0  0  0  0  0  0  0  0  0  0  0  0
   -2.1129    0.7142   -0.6788 C   0  0  0  0  0  0  0  0  0  0  0  0
   -2.9394    1.2552    0.4385 C   0  0  0  0  0  0  0  0  0  0  0  0
   -3.5682    2.5931    0.3730 C   0  0  0  0  0  0  0  0  0  0  0  0
   -3.3697    3.4416   -0.7208 C   0  0  0  0  0  0  0  0  0  0  0  0
   -3.9616    4.7046   -0.7409 C   0  0  0  0  0  0  0  0  0  0  0  0
   -4.7533    5.1225    0.3269 C   0  0  0  0  0  0  0  0  0  0  0  0
   -4.9555    4.2801    1.4178 C   0  0  0  0  0  0  0  0  0  0  0  0
   -4.3630    3.0201    1.4428 C   0  0  0  0  0  0  0  0  0  0  0  0
   -3.0236    0.4883    1.4774 N   0  0  0  0  0  0  0  0  0  0  0  0
   -2.2998   -0.6902    1.2064 O   0  0  0  0  0  0  0  0  0  0  0  0
    4.8229   -0.6542   -0.3696 H   0  0  0  0  0  0  0  0  0  0  0  0
    4.5353    2.4379   -0.4750 H   0  0  0  0  0  0  0  0  0  0  0  0
    6.8632   -0.5038    0.8859 H   0  0  0  0  0  0  0  0  0  0  0  0
    8.6244    0.3681    2.6361 H   0  0  0  0  0  0  0  0  0  0  0  0
    8.3159    2.9540    3.0892 H   0  0  0  0  0  0  0  0  0  0  0  0
    1.4054   -0.3238   -3.1122 H   0  0  0  0  0  0  0  0  0  0  0  0
    0.5621    0.7720   -2.0286 H   0  0  0  0  0  0  0  0  0  0  0  0
    0.5163   -2.2821   -1.9871 H   0  0  0  0  0  0  0  0  0  0  0  0
   -0.7959   -1.2526   -2.5060 H   0  0  0  0  0  0  0  0  0  0  0  0
    0.2832    0.5242    0.6330 H   0  0  0  0  0  0  0  0  0  0  0  0
    0.3765   -0.9127    1.6420 H   0  0  0  0  0  0  0  0  0  0  0  0
    2.1967   -1.8143    0.1676 H   0  0  0  0  0  0  0  0  0  0  0  0
    2.5899   -0.2523    0.9062 H   0  0  0  0  0  0  0  0  0  0  0  0
   -0.3208   -5.1784    0.6236 H   0  0  0  0  0  0  0  0  0  0  0  0
   -2.1318   -6.8317    0.2064 H   0  0  0  0  0  0  0  0  0  0  0  0
   -4.6686   -3.7109   -1.2832 H   0  0  0  0  0  0  0  0  0  0  0  0
   -1.1859    1.2907   -0.7123 H   0  0  0  0  0  0  0  0  0  0  0  0
   -2.6129    0.8002   -1.6470 H   0  0  0  0  0  0  0  0  0  0  0  0
   -2.7605    3.1460   -1.5681 H   0  0  0  0  0  0  0  0  0  0  0  0
   -3.8052    5.3627   -1.5924 H   0  0  0  0  0  0  0  0  0  0  0  0
   -5.2212    6.1039    0.3066 H   0  0  0  0  0  0  0  0  0  0  0  0
   -5.5769    4.6018    2.2499 H   0  0  0  0  0  0  0  0  0  0  0  0
   -4.5320    2.3745    2.3010 H   0  0  0  0  0  0  0  0  0  0  0  0
  1  2  2  0
  2  3  1  0
  3  4  2  3
  4  5  1  0
  5  6  2  0
  6  7  1  0
  7  8  2  0
  8  9  1  0
  2 10  1  0
 10 11  1  0
 11 12  1  0
 12 13  1  0
 13 14  1  0
 14 15  1  0
 13 16  1  0
 16 17  1  0
 17 18  2  0
 18 19  1  0
 19 20  2  0
 20 21  1  0
 20 22  1  0
 22 23  2  0
 23 24  1  0
 24 25  2  0
 24 26  1  0
 26 27  1  0
 27 28  1  0
 28 29  1  0
 29 30  2  0
 30 31  1  0
 31 32  2  0
 32 33  1  0
 33 34  2  0
 28 35  2  0
 35 36  1  0
  9  5  1  0
 15 10  1  0
 23 17  1  0
 36 26  1  0
 26 13  1  0
 34 29  1  0
  3 37  1  0
  4 38  1  0
  6 39  1  0
  7 40  1  0
  8 41  1  0
 11 42  1  0
 11 43  1  0
 12 44  1  0
 12 45  1  0
 14 46  1  0
 14 47  1  0
 15 48  1  0
 15 49  1  0
 18 50  1  0
 19 51  1  0
 22 52  1  0
 27 53  1  0
 27 54  1  0
 30 55  1  0
 31 56  1  0
 32 57  1  0
 33 58  1  0
 34 59  1  0
M  END
$$$$
