
     RDKit          3D

 53 54  0  0  0  0  0  0  0  0999 V2000
   -5.7450    0.4753   -2.3323 C   0  0  0  0  0  0  0  0  0  0  0  0
   -4.7057    0.1701   -1.2668 C   0  0  0  0  0  0  0  0  0  0  0  0
   -5.3196    0.2892    0.0677 N   0  0  0  0  0  0  0  0  0  0  0  0
   -5.8547   -0.9445    0.6714 C   0  0  0  0  0  0  0  0  0  0  0  0
   -4.7708   -1.8637    1.2039 C   0  0  0  0  0  0  0  0  0  0  0  0
   -5.0400    1.6630    1.0049 S   0  0  0  0  0  6  0  0  0  0  0  0
   -4.8217    2.7890    0.1218 O   0  0  0  0  0  0  0  0  0  0  0  0
   -6.0515    1.7145    2.0404 O   0  0  0  0  0  0  0  0  0  0  0  0
   -3.4839    1.3298    1.8044 C   0  0  0  0  0  0  0  0  0  0  0  0
   -3.4556    1.0129    3.1667 C   0  0  0  0  0  0  0  0  0  0  0  0
   -2.2337    0.7732    3.7948 C   0  0  0  0  0  0  0  0  0  0  0  0
   -1.0436    0.8635    3.0683 C   0  0  0  0  0  0  0  0  0  0  0  0
   -1.0682    1.2103    1.7095 C   0  0  0  0  0  0  0  0  0  0  0  0
    0.1698    1.3140    0.8923 C   0  0  0  0  0  0  0  0  0  0  0  0
    0.1636    1.4462   -0.3216 O   0  0  0  0  0  0  0  0  0  0  0  0
    1.2712    1.2559    1.6800 O   0  0  0  0  0  0  0  0  0  0  0  0
    2.4981    1.2278    0.9525 C   0  0  0  0  0  0  0  0  0  0  0  0
    2.7595   -0.1259    0.2847 C   0  0  0  0  0  0  0  0  0  0  0  0
    2.1851   -1.1613    0.6139 O   0  0  0  0  0  0  0  0  0  0  0  0
    3.7188   -0.0844   -0.7033 N   0  0  0  0  0  0  0  0  0  0  0  0
    4.0627   -1.2670   -1.4737 C   0  0  0  0  0  0  0  0  0  0  0  0
    5.1721   -1.0114   -2.4993 C   0  0  0  0  0  0  0  0  0  0  0  0
    6.4374   -0.6504   -1.8794 N   0  0  0  0  0  0  0  0  0  0  0  0
    7.4352   -1.5513   -1.6021 C   0  0  0  0  0  0  0  0  0  0  0  0
    7.2672   -2.8543   -1.9609 O   0  0  0  0  0  0  0  0  0  0  0  0
    8.4980   -1.0290   -0.9790 C   0  0  0  0  0  0  0  0  0  0  0  0
    8.2846    0.6719   -0.6885 S   0  0  0  0  0  0  0  0  0  0  0  0
    6.6731    0.6362   -1.4229 C   0  0  0  0  0  0  0  0  0  0  0  0
    5.9173    1.5955   -1.4661 O   0  0  0  0  0  0  0  0  0  0  0  0
   -2.2950    1.4541    1.0797 C   0  0  0  0  0  0  0  0  0  0  0  0
   -6.1474    1.4865   -2.2130 H   0  0  0  0  0  0  0  0  0  0  0  0
   -6.5839   -0.2263   -2.2796 H   0  0  0  0  0  0  0  0  0  0  0  0
   -5.3005    0.3999   -3.3294 H   0  0  0  0  0  0  0  0  0  0  0  0
   -4.3032   -0.8359   -1.4216 H   0  0  0  0  0  0  0  0  0  0  0  0
   -3.8625    0.8561   -1.3798 H   0  0  0  0  0  0  0  0  0  0  0  0
   -6.5628   -0.7026    1.4706 H   0  0  0  0  0  0  0  0  0  0  0  0
   -6.4404   -1.4780   -0.0867 H   0  0  0  0  0  0  0  0  0  0  0  0
   -5.2140   -2.8075    1.5378 H   0  0  0  0  0  0  0  0  0  0  0  0
   -4.0184   -2.0966    0.4452 H   0  0  0  0  0  0  0  0  0  0  0  0
   -4.2576   -1.4261    2.0618 H   0  0  0  0  0  0  0  0  0  0  0  0
   -4.3769    0.9460    3.7421 H   0  0  0  0  0  0  0  0  0  0  0  0
   -2.2067    0.5149    4.8513 H   0  0  0  0  0  0  0  0  0  0  0  0
   -0.1023    0.6599    3.5744 H   0  0  0  0  0  0  0  0  0  0  0  0
    2.5310    2.0400    0.2165 H   0  0  0  0  0  0  0  0  0  0  0  0
    3.3069    1.4005    1.6706 H   0  0  0  0  0  0  0  0  0  0  0  0
    4.0993    0.8164   -0.9921 H   0  0  0  0  0  0  0  0  0  0  0  0
    3.1535   -1.5987   -1.9875 H   0  0  0  0  0  0  0  0  0  0  0  0
    4.3551   -2.0555   -0.7705 H   0  0  0  0  0  0  0  0  0  0  0  0
    4.8730   -0.1836   -3.1543 H   0  0  0  0  0  0  0  0  0  0  0  0
    5.3089   -1.8920   -3.1361 H   0  0  0  0  0  0  0  0  0  0  0  0
    8.0556   -3.3529   -1.6862 H   0  0  0  0  0  0  0  0  0  0  0  0
    9.3856   -1.5615   -0.6708 H   0  0  0  0  0  0  0  0  0  0  0  0
   -2.3167    1.7479    0.0326 H   0  0  0  0  0  0  0  0  0  0  0  0
  1  2  1  0
  2  3  1  0
  3  4  1  0
  4  5  1  0
  3  6  1  0
  6  7  2  0
  6  8  2  0
  6  9  1  0
  9 10  2  0
 10 11  1  0
 11 12  2  0
 12 13  1  0
 13 14  1  0
 14 15  2  0
 14 16  1  0
 16 17  1  0
 17 18  1  0
 18 19  2  0
 18 20  1  0
 20 21  1  0
 21 22  1  0
 22 23  1  0
 23 24  1  0
 24 25  1  0
 24 26  2  0
 26 27  1  0
 27 28  1  0
 28 29  2  0
 13 30  2  0
 30  9  1  0
 28 23  1  0
  1 31  1  0
  1 32  1  0
  1 33  1  0
  2 34  1  0
  2 35  1  0
  4 36  1  0
  4 37  1  0
  5 38  1  0
  5 39  1  0
  5 40  1  0
 10 41  1  0
 11 42  1  0
 12 43  1  0
 17 44  1  0
 17 45  1  0
 20 46  1  0
 21 47  1  0
 21 48  1  0
 22 49  1  0
 22 50  1  0
 25 51  1  0
 26 52  1  0
 30 53  1  0
M  END
$$$$
