
     RDKit          3D

 34 36  0  0  0  0  0  0  0  0999 V2000
    5.2189    0.5024   -1.8643 C   0  0  0  0  0  0  0  0  0  0  0  0
    4.6317    0.6009   -0.5493 N   0  0  0  0  0  0  0  0  0  0  0  0
    5.2783    0.8703    0.6166 C   0  0  0  0  0  0  0  0  0  0  0  0
    4.3045    0.8644    1.5821 C   0  0  0  0  0  0  0  0  0  0  0  0
    4.5759    1.1783    3.4068 Br  0  0  0  0  0  0  0  0  0  0  0  0
    3.0848    0.5816    0.9214 C   0  0  0  0  0  0  0  0  0  0  0  0
    1.7197    0.4590    1.4755 C   0  0  0  0  0  0  0  0  0  0  0  0
    1.4962    0.5793    2.6740 O   0  0  0  0  0  0  0  0  0  0  0  0
    0.7966    0.1956    0.4788 N   0  0  0  0  0  0  0  0  0  0  0  0
   -0.5737    0.0325    0.5903 C   0  0  0  0  0  0  0  0  0  0  0  0
   -1.3549    0.1865    2.1074 S   0  0  0  0  0  0  0  0  0  0  0  0
   -2.8401   -0.0814    1.4064 C   0  0  0  0  0  0  0  0  0  0  0  0
   -2.7929   -0.3143    0.0597 C   0  0  0  0  0  0  0  0  0  0  0  0
   -1.4597   -0.2566   -0.4554 C   0  0  0  0  0  0  0  0  0  0  0  0
   -1.0053   -0.4239   -1.8341 C   0  0  0  0  0  0  0  0  0  0  0  0
   -1.8712   -1.0315   -2.6974 N   0  0  0  0  0  0  0  0  0  0  0  0
    0.1085   -0.0885   -2.2272 O   0  0  0  0  0  0  0  0  0  0  0  0
   -4.1688   -0.5025   -0.4768 C   0  0  0  0  0  0  0  0  0  0  0  0
   -5.0235   -0.6826    0.8169 C   0  0  0  0  0  0  0  0  0  0  0  0
   -4.2005   -0.0784    1.9896 C   0  0  0  0  0  0  0  0  0  0  0  0
    3.3073    0.4152   -0.4047 N   0  0  0  0  0  0  0  0  0  0  0  0
    6.2949    0.6808   -1.7965 H   0  0  0  0  0  0  0  0  0  0  0  0
    4.7549    1.2559   -2.5056 H   0  0  0  0  0  0  0  0  0  0  0  0
    5.0303   -0.5021   -2.2510 H   0  0  0  0  0  0  0  0  0  0  0  0
    6.3443    1.0412    0.6634 H   0  0  0  0  0  0  0  0  0  0  0  0
    1.1927    0.1362   -0.4638 H   0  0  0  0  0  0  0  0  0  0  0  0
   -1.4763   -1.2766   -3.5955 H   0  0  0  0  0  0  0  0  0  0  0  0
   -2.6092   -1.6197   -2.3453 H   0  0  0  0  0  0  0  0  0  0  0  0
   -4.2720   -1.3814   -1.1168 H   0  0  0  0  0  0  0  0  0  0  0  0
   -4.4890    0.3888   -1.0265 H   0  0  0  0  0  0  0  0  0  0  0  0
   -6.0148   -0.2279    0.7256 H   0  0  0  0  0  0  0  0  0  0  0  0
   -5.1705   -1.7554    0.9997 H   0  0  0  0  0  0  0  0  0  0  0  0
   -4.5303    0.9433    2.2043 H   0  0  0  0  0  0  0  0  0  0  0  0
   -4.2871   -0.6897    2.8920 H   0  0  0  0  0  0  0  0  0  0  0  0
  1  2  1  0
  2  3  1  0
  3  4  2  0
  4  5  1  0
  4  6  1  0
  6  7  1  0
  7  8  2  0
  7  9  1  0
  9 10  1  0
 10 11  1  0
 11 12  1  0
 12 13  2  0
 13 14  1  0
 14 15  1  0
 15 16  1  0
 15 17  2  0
 13 18  1  0
 18 19  1  0
 19 20  1  0
  6 21  2  0
 21  2  1  0
 14 10  2  0
 20 12  1  0
  1 22  1  0
  1 23  1  0
  1 24  1  0
  3 25  1  0
  9 26  1  0
 16 27  1  0
 16 28  1  0
 18 29  1  0
 18 30  1  0
 19 31  1  0
 19 32  1  0
 20 33  1  0
 20 34  1  0
M  END
$$$$
