
     RDKit          3D

 54 57  0  0  0  0  0  0  0  0999 V2000
    6.4018   -0.0177    3.4072 C   0  0  0  0  0  0  0  0  0  0  0  0
    6.4689    0.8780    2.1677 C   0  0  0  0  0  0  0  0  0  0  0  0
    7.8890    0.9139    1.5973 C   0  0  0  0  0  0  0  0  0  0  0  0
    5.4580    0.4559    1.1170 C   0  0  0  0  0  0  0  0  0  0  0  0
    5.4999   -0.8106    0.5183 C   0  0  0  0  0  0  0  0  0  0  0  0
    4.5590   -1.1828   -0.4500 C   0  0  0  0  0  0  0  0  0  0  0  0
    3.5569   -0.2962   -0.8391 C   0  0  0  0  0  0  0  0  0  0  0  0
    2.5744   -0.5876   -1.8047 N   0  0  0  0  0  0  0  0  0  0  0  0
    2.3704   -1.7776   -2.4804 C   0  0  0  0  0  0  0  0  0  0  0  0
    3.0178   -2.8132   -2.3520 O   0  0  0  0  0  0  0  0  0  0  0  0
    1.2060   -1.7043   -3.4763 C   0  0  0  0  0  0  0  0  0  0  0  0
   -0.0854   -1.7517   -2.8651 O   0  0  0  0  0  0  0  0  0  0  0  0
   -0.5233   -0.5837   -2.3418 C   0  0  0  0  0  0  0  0  0  0  0  0
    0.1027    0.4656   -2.3341 O   0  0  0  0  0  0  0  0  0  0  0  0
   -1.8810   -0.7370   -1.7541 C   0  0  0  0  0  0  0  0  0  0  0  0
   -2.5552   -1.9629   -1.7252 C   0  0  0  0  0  0  0  0  0  0  0  0
   -3.8325   -2.0516   -1.1565 C   0  0  0  0  0  0  0  0  0  0  0  0
   -4.4601   -0.9218   -0.6063 C   0  0  0  0  0  0  0  0  0  0  0  0
   -3.7798    0.2863   -0.6426 C   0  0  0  0  0  0  0  0  0  0  0  0
   -2.4993    0.3926   -1.2078 C   0  0  0  0  0  0  0  0  0  0  0  0
   -4.5049    1.7327    0.0205 S   0  0  0  0  0  6  0  0  0  0  0  0
   -4.7564    2.6094   -1.1051 O   0  0  0  0  0  0  0  0  0  0  0  0
   -3.6642    2.1323    1.1306 O   0  0  0  0  0  0  0  0  0  0  0  0
   -6.0643    1.3272    0.6959 C   0  0  0  0  0  0  0  0  0  0  0  0
   -6.8014    2.3483    1.3118 C   0  0  0  0  0  0  0  0  0  0  0  0
   -8.0498    2.0636    1.8595 C   0  0  0  0  0  0  0  0  0  0  0  0
   -8.5550    0.7676    1.7904 C   0  0  0  0  0  0  0  0  0  0  0  0
   -7.8108   -0.2427    1.1741 C   0  0  0  0  0  0  0  0  0  0  0  0
   -6.5500    0.0293    0.6182 C   0  0  0  0  0  0  0  0  0  0  0  0
   -5.8111   -1.0857   -0.0195 C   0  0  0  0  0  0  0  0  0  0  0  0
   -6.3365   -2.1950   -0.0631 O   0  0  0  0  0  0  0  0  0  0  0  0
    3.5109    0.9703   -0.2467 C   0  0  0  0  0  0  0  0  0  0  0  0
    4.4497    1.3429    0.7210 C   0  0  0  0  0  0  0  0  0  0  0  0
    6.6961   -1.0488    3.1839 H   0  0  0  0  0  0  0  0  0  0  0  0
    7.0715    0.3567    4.1888 H   0  0  0  0  0  0  0  0  0  0  0  0
    5.3868   -0.0419    3.8188 H   0  0  0  0  0  0  0  0  0  0  0  0
    6.2269    1.8981    2.4947 H   0  0  0  0  0  0  0  0  0  0  0  0
    7.9413    1.5659    0.7182 H   0  0  0  0  0  0  0  0  0  0  0  0
    8.2347   -0.0809    1.2958 H   0  0  0  0  0  0  0  0  0  0  0  0
    8.5935    1.2990    2.3425 H   0  0  0  0  0  0  0  0  0  0  0  0
    6.2684   -1.5283    0.7968 H   0  0  0  0  0  0  0  0  0  0  0  0
    4.6423   -2.1752   -0.8812 H   0  0  0  0  0  0  0  0  0  0  0  0
    1.8958    0.1534   -1.9865 H   0  0  0  0  0  0  0  0  0  0  0  0
    1.3121   -0.8178   -4.1141 H   0  0  0  0  0  0  0  0  0  0  0  0
    1.2801   -2.5710   -4.1425 H   0  0  0  0  0  0  0  0  0  0  0  0
   -2.1033   -2.8635   -2.1372 H   0  0  0  0  0  0  0  0  0  0  0  0
   -4.3351   -3.0196   -1.1458 H   0  0  0  0  0  0  0  0  0  0  0  0
   -1.9900    1.3568   -1.2200 H   0  0  0  0  0  0  0  0  0  0  0  0
   -6.4061    3.3617    1.3649 H   0  0  0  0  0  0  0  0  0  0  0  0
   -8.6287    2.8501    2.3389 H   0  0  0  0  0  0  0  0  0  0  0  0
   -9.5300    0.5394    2.2161 H   0  0  0  0  0  0  0  0  0  0  0  0
   -8.2262   -1.2494    1.1322 H   0  0  0  0  0  0  0  0  0  0  0  0
    2.7419    1.6863   -0.5270 H   0  0  0  0  0  0  0  0  0  0  0  0
    4.3833    2.3349    1.1622 H   0  0  0  0  0  0  0  0  0  0  0  0
  1  2  1  0
  2  3  1  0
  2  4  1  0
  4  5  2  0
  5  6  1  0
  6  7  2  0
  7  8  1  0
  8  9  1  0
  9 10  2  0
  9 11  1  0
 11 12  1  0
 12 13  1  0
 13 14  2  0
 13 15  1  0
 15 16  2  0
 16 17  1  0
 17 18  2  0
 18 19  1  0
 19 20  2  0
 19 21  1  0
 21 22  2  0
 21 23  2  0
 21 24  1  0
 24 25  2  0
 25 26  1  0
 26 27  2  0
 27 28  1  0
 28 29  2  0
 29 30  1  0
 30 31  2  0
  7 32  1  0
 32 33  2  0
 33  4  1  0
 20 15  1  0
 29 24  1  0
 30 18  1  0
  1 34  1  0
  1 35  1  0
  1 36  1  0
  2 37  1  0
  3 38  1  0
  3 39  1  0
  3 40  1  0
  5 41  1  0
  6 42  1  0
  8 43  1  0
 11 44  1  0
 11 45  1  0
 16 46  1  0
 17 47  1  0
 20 48  1  0
 25 49  1  0
 26 50  1  0
 27 51  1  0
 28 52  1  0
 32 53  1  0
 33 54  1  0
M  END
$$$$
