
     RDKit          3D

 54 57  0  0  0  0  0  0  0  0999 V2000
    4.7627    1.4663    4.5505 C   0  0  0  0  0  0  0  0  0  0  0  0
    3.7594    0.6984    3.7053 C   0  0  0  0  0  0  0  0  0  0  0  0
    4.3164    0.3288    2.3385 C   0  0  0  0  0  0  0  0  0  0  0  0
    5.4907    0.5433    2.0399 O   0  0  0  0  0  0  0  0  0  0  0  0
    3.4321   -0.2679    1.4520 N   0  0  0  0  0  0  0  0  0  0  0  0
    2.0270   -0.5718    1.7525 C   0  0  0  0  0  0  0  0  0  0  0  0
    1.4180   -1.5854    0.7682 C   0  0  0  0  0  0  0  0  0  0  0  0
    1.5263   -1.0978   -0.6309 N   0  0  0  0  0  0  0  0  0  0  0  0
    1.1543   -2.1213   -1.5444 C   0  0  0  0  0  0  0  0  0  0  0  0
    2.0227   -3.1617   -1.9043 C   0  0  0  0  0  0  0  0  0  0  0  0
    1.5976   -4.1666   -2.7750 C   0  0  0  0  0  0  0  0  0  0  0  0
    0.3015   -4.1401   -3.2869 C   0  0  0  0  0  0  0  0  0  0  0  0
   -0.2080   -5.3861   -4.3611 Cl  0  0  0  0  0  0  0  0  0  0  0  0
   -0.5820   -3.1187   -2.9414 C   0  0  0  0  0  0  0  0  0  0  0  0
   -0.1616   -2.1108   -2.0740 C   0  0  0  0  0  0  0  0  0  0  0  0
   -0.9651   -1.0188   -1.6828 N   0  0  0  0  0  0  0  0  0  0  0  0
   -2.2969   -0.7980   -1.9513 C   0  0  0  0  0  0  0  0  0  0  0  0
   -3.0594   -1.5615   -2.5307 O   0  0  0  0  0  0  0  0  0  0  0  0
   -2.8355    0.4898   -1.4299 C   0  0  0  0  0  0  0  0  0  0  0  0
   -2.0506    1.6516   -1.3796 C   0  0  0  0  0  0  0  0  0  0  0  0
   -2.5914    2.8395   -0.8793 C   0  0  0  0  0  0  0  0  0  0  0  0
   -3.9125    2.8694   -0.4358 C   0  0  0  0  0  0  0  0  0  0  0  0
   -4.7091    1.7231   -0.5260 C   0  0  0  0  0  0  0  0  0  0  0  0
   -4.1715    0.5333   -1.0121 C   0  0  0  0  0  0  0  0  0  0  0  0
   -6.0268    1.6948   -0.1473 O   0  0  0  0  0  0  0  0  0  0  0  0
   -6.5601    3.0182   -0.0229 C   0  0  0  0  0  0  0  0  0  0  0  0
   -5.6071    3.9048    0.7606 C   0  0  0  0  0  0  0  0  0  0  0  0
   -4.3677    4.0639    0.0596 O   0  0  0  0  0  0  0  0  0  0  0  0
    2.7985   -0.4023   -0.9614 C   0  0  0  0  0  0  0  0  0  0  0  0
    3.8935   -0.6028    0.1002 C   0  0  0  0  0  0  0  0  0  0  0  0
    5.6653    0.8724    4.7249 H   0  0  0  0  0  0  0  0  0  0  0  0
    5.0618    2.3958    4.0563 H   0  0  0  0  0  0  0  0  0  0  0  0
    4.3272    1.7197    5.5222 H   0  0  0  0  0  0  0  0  0  0  0  0
    2.8640    1.3138    3.5721 H   0  0  0  0  0  0  0  0  0  0  0  0
    3.4859   -0.2217    4.2326 H   0  0  0  0  0  0  0  0  0  0  0  0
    1.4789    0.3764    1.7019 H   0  0  0  0  0  0  0  0  0  0  0  0
    1.9437   -0.9559    2.7734 H   0  0  0  0  0  0  0  0  0  0  0  0
    0.3626   -1.7389    1.0229 H   0  0  0  0  0  0  0  0  0  0  0  0
    1.9361   -2.5466    0.8873 H   0  0  0  0  0  0  0  0  0  0  0  0
    3.0301   -3.2099   -1.5020 H   0  0  0  0  0  0  0  0  0  0  0  0
    2.2784   -4.9691   -3.0472 H   0  0  0  0  0  0  0  0  0  0  0  0
   -1.5811   -3.1210   -3.3632 H   0  0  0  0  0  0  0  0  0  0  0  0
   -0.4606   -0.3751   -1.0800 H   0  0  0  0  0  0  0  0  0  0  0  0
   -1.0281    1.6562   -1.7489 H   0  0  0  0  0  0  0  0  0  0  0  0
   -1.9866    3.7414   -0.8390 H   0  0  0  0  0  0  0  0  0  0  0  0
   -4.7956   -0.3550   -1.0757 H   0  0  0  0  0  0  0  0  0  0  0  0
   -7.5201    2.9418    0.4961 H   0  0  0  0  0  0  0  0  0  0  0  0
   -6.7454    3.4171   -1.0283 H   0  0  0  0  0  0  0  0  0  0  0  0
   -6.0417    4.9000    0.8953 H   0  0  0  0  0  0  0  0  0  0  0  0
   -5.3941    3.4869    1.7524 H   0  0  0  0  0  0  0  0  0  0  0  0
    2.5622    0.6679   -1.0149 H   0  0  0  0  0  0  0  0  0  0  0  0
    3.1819   -0.6784   -1.9511 H   0  0  0  0  0  0  0  0  0  0  0  0
    4.7721   -0.0047   -0.1643 H   0  0  0  0  0  0  0  0  0  0  0  0
    4.2079   -1.6527    0.1265 H   0  0  0  0  0  0  0  0  0  0  0  0
  1  2  1  0
  2  3  1  0
  3  4  2  0
  3  5  1  0
  5  6  1  0
  6  7  1  0
  7  8  1  0
  8  9  1  0
  9 10  2  0
 10 11  1  0
 11 12  2  0
 12 13  1  0
 12 14  1  0
 14 15  2  0
 15 16  1  0
 16 17  1  0
 17 18  2  0
 17 19  1  0
 19 20  2  0
 20 21  1  0
 21 22  2  0
 22 23  1  0
 23 24  2  0
 23 25  1  0
 25 26  1  0
 26 27  1  0
 27 28  1  0
  8 29  1  0
 29 30  1  0
 30  5  1  0
 15  9  1  0
 24 19  1  0
 28 22  1  0
  1 31  1  0
  1 32  1  0
  1 33  1  0
  2 34  1  0
  2 35  1  0
  6 36  1  0
  6 37  1  0
  7 38  1  0
  7 39  1  0
 10 40  1  0
 11 41  1  0
 14 42  1  0
 16 43  1  0
 20 44  1  0
 21 45  1  0
 24 46  1  0
 26 47  1  0
 26 48  1  0
 27 49  1  0
 27 50  1  0
 29 51  1  0
 29 52  1  0
 30 53  1  0
 30 54  1  0
M  END
$$$$
