
     RDKit          3D

 36 37  0  0  0  0  0  0  0  0999 V2000
   -0.9010    2.1286    1.8637 O   0  0  0  0  0  0  0  0  0  0  0  0
   -0.4044    1.6101    0.8678 C   0  0  0  0  0  0  0  0  0  0  0  0
    0.9295    2.0702    0.2746 C   0  0  0  0  0  0  0  0  0  0  0  0
    2.0149    1.2128    0.6361 O   0  0  0  0  0  0  0  0  0  0  0  0
    2.0839    0.0587   -0.0681 C   0  0  0  0  0  0  0  0  0  0  0  0
    1.3401   -0.2770   -0.9737 O   0  0  0  0  0  0  0  0  0  0  0  0
    3.1759   -0.7627    0.4808 C   0  0  0  0  0  0  0  0  0  0  0  0
    4.4637   -0.2034    0.5379 C   0  0  0  0  0  0  0  0  0  0  0  0
    5.5242   -0.9506    1.0455 C   0  0  0  0  0  0  0  0  0  0  0  0
    5.3019   -2.2542    1.4900 C   0  0  0  0  0  0  0  0  0  0  0  0
    4.0185   -2.8147    1.4328 C   0  0  0  0  0  0  0  0  0  0  0  0
    3.8408   -4.4360    2.0147 Cl  0  0  0  0  0  0  0  0  0  0  0  0
    2.9399   -2.0716    0.9291 C   0  0  0  0  0  0  0  0  0  0  0  0
    1.3426   -2.7522    0.8947 Cl  0  0  0  0  0  0  0  0  0  0  0  0
   -1.0241    0.5824    0.1807 N   0  0  0  0  0  0  0  0  0  0  0  0
   -2.1302   -0.1505    0.7874 C   0  0  0  0  0  0  0  0  0  0  0  0
   -3.4915    0.5231    0.5745 C   0  0  0  0  0  0  0  0  0  0  0  0
   -3.9660    0.3878   -0.7942 N   0  0  0  0  0  0  0  0  0  0  0  0
   -3.6472    1.2197   -1.8403 C   0  0  0  0  0  0  0  0  0  0  0  0
   -2.8047    2.2783   -1.6788 O   0  0  0  0  0  0  0  0  0  0  0  0
   -4.2073    0.8890   -3.0074 C   0  0  0  0  0  0  0  0  0  0  0  0
   -5.1808   -0.5411   -2.8643 S   0  0  0  0  0  0  0  0  0  0  0  0
   -4.7818   -0.6846   -1.1439 C   0  0  0  0  0  0  0  0  0  0  0  0
   -5.1664   -1.5986   -0.4292 O   0  0  0  0  0  0  0  0  0  0  0  0
    1.1504    3.0674    0.6695 H   0  0  0  0  0  0  0  0  0  0  0  0
    0.8477    2.1726   -0.8149 H   0  0  0  0  0  0  0  0  0  0  0  0
    4.6436    0.8116    0.1840 H   0  0  0  0  0  0  0  0  0  0  0  0
    6.5236   -0.5213    1.0915 H   0  0  0  0  0  0  0  0  0  0  0  0
    6.1348   -2.8332    1.8830 H   0  0  0  0  0  0  0  0  0  0  0  0
   -0.4437    0.0660   -0.4864 H   0  0  0  0  0  0  0  0  0  0  0  0
   -2.1220   -1.1583    0.3592 H   0  0  0  0  0  0  0  0  0  0  0  0
   -1.9315   -0.2330    1.8614 H   0  0  0  0  0  0  0  0  0  0  0  0
   -4.2216    0.0404    1.2351 H   0  0  0  0  0  0  0  0  0  0  0  0
   -3.4704    1.5845    0.8471 H   0  0  0  0  0  0  0  0  0  0  0  0
   -2.3141    2.1197   -0.8556 H   0  0  0  0  0  0  0  0  0  0  0  0
   -4.0673    1.4203   -3.9374 H   0  0  0  0  0  0  0  0  0  0  0  0
  1  2  2  0
  2  3  1  0
  3  4  1  0
  4  5  1  0
  5  6  2  0
  5  7  1  0
  7  8  2  0
  8  9  1  0
  9 10  2  0
 10 11  1  0
 11 12  1  0
 11 13  2  0
 13 14  1  0
  2 15  1  0
 15 16  1  0
 16 17  1  0
 17 18  1  0
 18 19  1  0
 19 20  1  0
 19 21  2  0
 21 22  1  0
 22 23  1  0
 23 24  2  0
 13  7  1  0
 23 18  1  0
  3 25  1  0
  3 26  1  0
  8 27  1  0
  9 28  1  0
 10 29  1  0
 15 30  1  0
 16 31  1  0
 16 32  1  0
 17 33  1  0
 17 34  1  0
 20 35  1  0
 21 36  1  0
M  END
$$$$
