
     RDKit          3D

 65 66  0  0  0  0  0  0  0  0999 V2000
   -5.5736    5.2578   -0.6523 C   0  0  0  0  0  0  0  0  0  0  0  0
   -5.1965    4.6570    0.5824 O   0  0  0  0  0  0  0  0  0  0  0  0
   -4.2027    3.7195    0.5378 C   0  0  0  0  0  0  0  0  0  0  0  0
   -3.5188    3.3021   -0.6019 C   0  0  0  0  0  0  0  0  0  0  0  0
   -2.5249    2.3186   -0.5088 C   0  0  0  0  0  0  0  0  0  0  0  0
   -2.1885    1.7416    0.7263 C   0  0  0  0  0  0  0  0  0  0  0  0
   -1.1069    0.6748    0.8744 C   0  0  0  0  0  0  0  0  0  0  0  0
   -0.8707   -0.1577   -0.4205 C   0  0  0  0  0  0  0  0  0  0  0  0
    0.1955   -0.1396   -1.0326 O   0  0  0  0  0  0  0  0  0  0  0  0
   -1.9500   -0.9411   -0.7938 N   0  0  0  0  0  0  0  0  0  0  0  0
   -1.9670   -1.8418   -1.9565 C   0  0  0  0  0  0  0  0  0  0  0  0
   -3.3211   -2.5771   -1.9697 C   0  0  0  0  0  0  0  0  0  0  0  0
   -0.8620   -2.9018   -1.8518 C   0  0  0  0  0  0  0  0  0  0  0  0
   -1.8203   -1.0457   -3.2563 C   0  0  0  0  0  0  0  0  0  0  0  0
    0.1726    1.1770    1.4348 N   0  0  0  0  0  0  0  0  0  0  0  0
    0.6609    2.5204    1.0651 C   0  0  0  0  0  0  0  0  0  0  0  0
    1.1207    2.6836   -0.3894 C   0  0  0  0  0  0  0  0  0  0  0  0
    2.1329    1.7473   -0.7417 O   0  0  0  0  0  0  0  0  0  0  0  0
    1.0389    0.3612    2.1662 C   0  0  0  0  0  0  0  0  0  0  0  0
    2.1182    0.7624    2.6051 O   0  0  0  0  0  0  0  0  0  0  0  0
    0.5882   -1.0598    2.4753 C   0  0  0  0  0  0  0  0  0  0  0  0
    1.7266   -1.8942    3.0512 C   0  0  0  0  0  0  0  0  0  0  0  0
    2.6717   -2.3128    1.9415 C   0  0  0  0  0  0  0  0  0  0  0  0
    2.2851   -3.0388    1.0271 O   0  0  0  0  0  0  0  0  0  0  0  0
    3.9359   -1.8161    2.0954 N   0  0  0  0  0  0  0  0  0  0  0  0
    4.9998   -2.0581    1.2525 C   0  0  0  0  0  0  0  0  0  0  0  0
    5.0392   -2.7966    0.0526 C   0  0  0  0  0  0  0  0  0  0  0  0
    6.3511   -2.7303   -0.3549 C   0  0  0  0  0  0  0  0  0  0  0  0
    7.1004   -3.2656   -1.5032 C   0  0  0  0  0  0  0  0  0  0  0  0
    7.0594   -1.9991    0.5411 O   0  0  0  0  0  0  0  0  0  0  0  0
    6.2118   -1.5682    1.5468 N   0  0  0  0  0  0  0  0  0  0  0  0
   -2.8751    2.1823    1.8694 C   0  0  0  0  0  0  0  0  0  0  0  0
   -3.8744    3.1550    1.7712 C   0  0  0  0  0  0  0  0  0  0  0  0
   -4.7396    5.8203   -1.0905 H   0  0  0  0  0  0  0  0  0  0  0  0
   -6.3825    5.9650   -0.4497 H   0  0  0  0  0  0  0  0  0  0  0  0
   -5.9566    4.5097   -1.3550 H   0  0  0  0  0  0  0  0  0  0  0  0
   -3.7290    3.7232   -1.5797 H   0  0  0  0  0  0  0  0  0  0  0  0
   -2.0177    2.0210   -1.4264 H   0  0  0  0  0  0  0  0  0  0  0  0
   -1.5113   -0.0527    1.5915 H   0  0  0  0  0  0  0  0  0  0  0  0
   -2.8342   -0.7682   -0.3301 H   0  0  0  0  0  0  0  0  0  0  0  0
   -4.1587   -1.8726   -2.0588 H   0  0  0  0  0  0  0  0  0  0  0  0
   -3.3954   -3.2880   -2.7973 H   0  0  0  0  0  0  0  0  0  0  0  0
   -3.4614   -3.1339   -1.0358 H   0  0  0  0  0  0  0  0  0  0  0  0
   -0.9445   -3.6420   -2.6545 H   0  0  0  0  0  0  0  0  0  0  0  0
    0.1367   -2.4622   -1.9178 H   0  0  0  0  0  0  0  0  0  0  0  0
   -0.9258   -3.4371   -0.9005 H   0  0  0  0  0  0  0  0  0  0  0  0
   -2.5916   -0.2741   -3.3360 H   0  0  0  0  0  0  0  0  0  0  0  0
   -1.9079   -1.7060   -4.1241 H   0  0  0  0  0  0  0  0  0  0  0  0
   -0.8505   -0.5405   -3.3225 H   0  0  0  0  0  0  0  0  0  0  0  0
   -0.1197    3.2509    1.2975 H   0  0  0  0  0  0  0  0  0  0  0  0
    1.5112    2.7779    1.7052 H   0  0  0  0  0  0  0  0  0  0  0  0
    0.2888    2.5834   -1.0950 H   0  0  0  0  0  0  0  0  0  0  0  0
    1.5414    3.6866   -0.5246 H   0  0  0  0  0  0  0  0  0  0  0  0
    1.6870    0.8768   -0.8103 H   0  0  0  0  0  0  0  0  0  0  0  0
    0.1975   -1.5443    1.5779 H   0  0  0  0  0  0  0  0  0  0  0  0
   -0.2135   -0.9959    3.2194 H   0  0  0  0  0  0  0  0  0  0  0  0
    2.2589   -1.3696    3.8494 H   0  0  0  0  0  0  0  0  0  0  0  0
    1.3245   -2.8115    3.4928 H   0  0  0  0  0  0  0  0  0  0  0  0
    4.1450   -1.1692    2.8432 H   0  0  0  0  0  0  0  0  0  0  0  0
    4.2305   -3.3005   -0.4511 H   0  0  0  0  0  0  0  0  0  0  0  0
    6.4224   -3.6638   -2.2681 H   0  0  0  0  0  0  0  0  0  0  0  0
    7.7056   -2.4828   -1.9649 H   0  0  0  0  0  0  0  0  0  0  0  0
    7.7642   -4.0746   -1.1819 H   0  0  0  0  0  0  0  0  0  0  0  0
   -2.6301    1.7752    2.8479 H   0  0  0  0  0  0  0  0  0  0  0  0
   -4.4007    3.4833    2.6668 H   0  0  0  0  0  0  0  0  0  0  0  0
  1  2  1  0
  2  3  1  0
  3  4  2  0
  4  5  1  0
  5  6  2  0
  6  7  1  0
  7  8  1  0
  8  9  2  0
  8 10  1  0
 10 11  1  0
 11 12  1  0
 11 13  1  0
 11 14  1  0
  7 15  1  0
 15 16  1  0
 16 17  1  0
 17 18  1  0
 15 19  1  0
 19 20  2  0
 19 21  1  0
 21 22  1  0
 22 23  1  0
 23 24  2  0
 23 25  1  0
 25 26  1  0
 26 27  1  0
 27 28  2  0
 28 29  1  0
 28 30  1  0
 30 31  1  0
  6 32  1  0
 32 33  2  0
 33  3  1  0
 31 26  2  0
  1 34  1  0
  1 35  1  0
  1 36  1  0
  4 37  1  0
  5 38  1  0
  7 39  1  0
 10 40  1  0
 12 41  1  0
 12 42  1  0
 12 43  1  0
 13 44  1  0
 13 45  1  0
 13 46  1  0
 14 47  1  0
 14 48  1  0
 14 49  1  0
 16 50  1  0
 16 51  1  0
 17 52  1  0
 17 53  1  0
 18 54  1  0
 21 55  1  0
 21 56  1  0
 22 57  1  0
 22 58  1  0
 25 59  1  0
 27 60  1  0
 29 61  1  0
 29 62  1  0
 29 63  1  0
 32 64  1  0
 33 65  1  0
M  END
$$$$
