
     RDKit          3D

 53 52  0  0  0  0  0  0  0  0999 V2000
   -3.7562    3.0957    1.4810 C   0  0  0  0  0  0  0  0  0  0  0  0
   -3.5727    1.5916    1.2749 C   0  0  0  0  0  0  0  0  0  0  0  0
   -3.7068    0.8649    2.6160 C   0  0  0  0  0  0  0  0  0  0  0  0
   -4.5795    1.0081    0.2632 C   0  0  0  0  0  0  0  0  0  0  0  0
   -4.4868    1.5905   -1.1483 C   0  0  0  0  0  0  0  0  0  0  0  0
   -3.1878    1.3785   -1.7521 N   0  0  0  0  0  0  0  0  0  0  0  0
   -2.8534    0.1915   -2.3681 C   0  0  0  0  0  0  0  0  0  0  0  0
   -3.6222   -0.7566   -2.4775 O   0  0  0  0  0  0  0  0  0  0  0  0
   -1.4211    0.1647   -2.8559 C   0  0  0  0  0  0  0  0  0  0  0  0
   -1.1622   -1.0586   -3.7253 C   0  0  0  0  0  0  0  0  0  0  0  0
    0.6055   -1.1406   -4.1740 S   0  0  0  0  0  0  0  0  0  0  0  0
    1.1095   -2.6441   -3.2582 C   0  0  0  0  0  0  0  0  0  0  0  0
    1.0430   -2.5031   -1.7425 C   0  0  0  0  0  0  0  0  0  0  0  0
    2.1629   -1.6550   -1.1743 C   0  0  0  0  0  0  0  0  0  0  0  0
    3.2503   -1.5149   -1.7226 O   0  0  0  0  0  0  0  0  0  0  0  0
    1.8579   -1.1065    0.0564 N   0  0  0  0  0  0  0  0  0  0  0  0
    2.8373   -0.3458    0.8110 C   0  0  0  0  0  0  0  0  0  0  0  0
    3.7212   -1.2681    1.6523 C   0  0  0  0  0  0  0  0  0  0  0  0
    4.8052   -0.5603    2.4848 C   0  0  0  0  0  0  0  0  0  0  0  0
    4.2142    0.4239    3.4942 C   0  0  0  0  0  0  0  0  0  0  0  0
    5.8452    0.1345    1.6064 C   0  0  0  0  0  0  0  0  0  0  0  0
   -4.7835    3.3334    1.7770 H   0  0  0  0  0  0  0  0  0  0  0  0
   -3.5234    3.6542    0.5683 H   0  0  0  0  0  0  0  0  0  0  0  0
   -3.0839    3.4651    2.2637 H   0  0  0  0  0  0  0  0  0  0  0  0
   -2.5536    1.4184    0.9084 H   0  0  0  0  0  0  0  0  0  0  0  0
   -2.9696    1.2383    3.3353 H   0  0  0  0  0  0  0  0  0  0  0  0
   -3.5368   -0.2106    2.4943 H   0  0  0  0  0  0  0  0  0  0  0  0
   -4.7032    1.0038    3.0480 H   0  0  0  0  0  0  0  0  0  0  0  0
   -5.6000    1.1609    0.6361 H   0  0  0  0  0  0  0  0  0  0  0  0
   -4.4297   -0.0778    0.2071 H   0  0  0  0  0  0  0  0  0  0  0  0
   -5.2471    1.1162   -1.7785 H   0  0  0  0  0  0  0  0  0  0  0  0
   -4.6834    2.6662   -1.1527 H   0  0  0  0  0  0  0  0  0  0  0  0
   -2.4772    2.0895   -1.6285 H   0  0  0  0  0  0  0  0  0  0  0  0
   -0.7758    0.1611   -1.9691 H   0  0  0  0  0  0  0  0  0  0  0  0
   -1.2258    1.0832   -3.4237 H   0  0  0  0  0  0  0  0  0  0  0  0
   -1.7409   -0.9852   -4.6529 H   0  0  0  0  0  0  0  0  0  0  0  0
   -1.4737   -1.9837   -3.2295 H   0  0  0  0  0  0  0  0  0  0  0  0
    0.4590   -3.4642   -3.5832 H   0  0  0  0  0  0  0  0  0  0  0  0
    2.1255   -2.9014   -3.5816 H   0  0  0  0  0  0  0  0  0  0  0  0
    0.0714   -2.1218   -1.4144 H   0  0  0  0  0  0  0  0  0  0  0  0
    1.1596   -3.4984   -1.2963 H   0  0  0  0  0  0  0  0  0  0  0  0
    1.0081   -1.3913    0.5273 H   0  0  0  0  0  0  0  0  0  0  0  0
    2.2739    0.3440    1.4467 H   0  0  0  0  0  0  0  0  0  0  0  0
    3.4398    0.2428    0.1121 H   0  0  0  0  0  0  0  0  0  0  0  0
    4.2047   -2.0044    0.9969 H   0  0  0  0  0  0  0  0  0  0  0  0
    3.0807   -1.8505    2.3286 H   0  0  0  0  0  0  0  0  0  0  0  0
    5.3265   -1.3407    3.0546 H   0  0  0  0  0  0  0  0  0  0  0  0
    3.7732    1.2948    3.0011 H   0  0  0  0  0  0  0  0  0  0  0  0
    3.4388   -0.0559    4.1002 H   0  0  0  0  0  0  0  0  0  0  0  0
    4.9907    0.7881    4.1756 H   0  0  0  0  0  0  0  0  0  0  0  0
    5.4205    0.9937    1.0779 H   0  0  0  0  0  0  0  0  0  0  0  0
    6.6785    0.5000    2.2150 H   0  0  0  0  0  0  0  0  0  0  0  0
    6.2530   -0.5582    0.8627 H   0  0  0  0  0  0  0  0  0  0  0  0
  1  2  1  0
  2  3  1  0
  2  4  1  0
  4  5  1  0
  5  6  1  0
  6  7  1  0
  7  8  2  0
  7  9  1  0
  9 10  1  0
 10 11  1  0
 11 12  1  0
 12 13  1  0
 13 14  1  0
 14 15  2  0
 14 16  1  0
 16 17  1  0
 17 18  1  0
 18 19  1  0
 19 20  1  0
 19 21  1  0
  1 22  1  0
  1 23  1  0
  1 24  1  0
  2 25  1  0
  3 26  1  0
  3 27  1  0
  3 28  1  0
  4 29  1  0
  4 30  1  0
  5 31  1  0
  5 32  1  0
  6 33  1  0
  9 34  1  0
  9 35  1  0
 10 36  1  0
 10 37  1  0
 12 38  1  0
 12 39  1  0
 13 40  1  0
 13 41  1  0
 16 42  1  0
 17 43  1  0
 17 44  1  0
 18 45  1  0
 18 46  1  0
 19 47  1  0
 20 48  1  0
 20 49  1  0
 20 50  1  0
 21 51  1  0
 21 52  1  0
 21 53  1  0
M  END
$$$$
