
     RDKit          3D

 69 74  0  0  0  0  0  0  0  0999 V2000
    3.3071    2.7327    2.0760 O   0  0  0  0  0  0  0  0  0  0  0  0
    2.3726    1.7650    1.5666 C   0  0  0  0  0  0  0  0  0  0  0  0
    2.5119    0.4647    2.3784 C   0  0  0  0  0  0  0  0  0  0  0  0
    3.6936   -0.2633    2.0117 O   0  0  0  0  0  0  0  0  0  0  0  0
    3.7243   -0.9595    0.8371 C   0  0  0  0  0  0  0  0  0  0  0  0
    2.5647   -1.3304    0.1405 C   0  0  0  0  0  0  0  0  0  0  0  0
    2.6385   -2.0419   -1.0588 C   0  0  0  0  0  0  0  0  0  0  0  0
    3.8767   -2.4009   -1.5789 C   0  0  0  0  0  0  0  0  0  0  0  0
    5.0528   -2.0641   -0.9074 C   0  0  0  0  0  0  0  0  0  0  0  0
    6.2656   -2.4765   -1.5066 N   0  0  0  0  0  0  0  0  0  0  0  0
    7.3772   -2.1914   -0.9069 C   0  0  0  0  0  0  0  0  0  0  0  0
    7.4030   -1.4764    0.3297 C   0  0  0  0  0  0  0  0  0  0  0  0
    8.4654   -1.0865    1.1163 C   0  0  0  0  0  0  0  0  0  0  0  0
    7.9254   -0.4124    2.2311 C   0  0  0  0  0  0  0  0  0  0  0  0
    6.5532   -0.4109    2.0856 C   0  0  0  0  0  0  0  0  0  0  0  0
    6.2251   -1.0637    0.9195 N   0  0  0  0  0  0  0  0  0  0  0  0
    4.9728   -1.3445    0.3111 C   0  0  0  0  0  0  0  0  0  0  0  0
    0.9502    2.3520    1.6752 C   0  0  0  0  0  0  0  0  0  0  0  0
   -0.0895    1.4985    1.0754 N   0  0  0  0  0  0  0  0  0  0  0  0
   -0.0675    1.5519   -0.4034 C   0  0  0  0  0  0  0  0  0  0  0  0
   -1.1962    0.7045   -1.0419 C   0  0  0  0  0  0  0  0  0  0  0  0
   -2.5228    1.1070   -0.5499 N   0  0  0  0  0  0  0  0  0  0  0  0
   -3.6434    0.4201   -1.2447 C   0  0  0  0  0  0  0  0  0  0  0  0
   -3.6989   -1.0969   -1.0075 C   0  0  0  0  0  0  0  0  0  0  0  0
   -3.2114   -1.9733   -1.9949 C   0  0  0  0  0  0  0  0  0  0  0  0
   -3.2488   -3.3566   -1.8079 C   0  0  0  0  0  0  0  0  0  0  0  0
   -3.7728   -3.8872   -0.6316 C   0  0  0  0  0  0  0  0  0  0  0  0
   -4.2613   -3.0370    0.3578 C   0  0  0  0  0  0  0  0  0  0  0  0
   -4.2259   -1.6537    0.1718 C   0  0  0  0  0  0  0  0  0  0  0  0
   -4.9927    1.1595   -1.1074 C   0  0  0  0  0  0  0  0  0  0  0  0
   -6.2186    0.5083   -1.3404 C   0  0  0  0  0  0  0  0  0  0  0  0
   -7.4331    1.1976   -1.2605 C   0  0  0  0  0  0  0  0  0  0  0  0
   -7.4486    2.5585   -0.9698 C   0  0  0  0  0  0  0  0  0  0  0  0
   -6.2479    3.2351   -0.7788 C   0  0  0  0  0  0  0  0  0  0  0  0
   -5.0349    2.5454   -0.8585 C   0  0  0  0  0  0  0  0  0  0  0  0
   -2.5476    1.0326    0.9194 C   0  0  0  0  0  0  0  0  0  0  0  0
   -1.4319    1.9051    1.5435 C   0  0  0  0  0  0  0  0  0  0  0  0
    3.4774    3.3687    1.3590 H   0  0  0  0  0  0  0  0  0  0  0  0
    2.6468    1.5997    0.5209 H   0  0  0  0  0  0  0  0  0  0  0  0
    1.6303   -0.1802    2.3400 H   0  0  0  0  0  0  0  0  0  0  0  0
    2.6454    0.7221    3.4353 H   0  0  0  0  0  0  0  0  0  0  0  0
    1.5701   -1.0944    0.5079 H   0  0  0  0  0  0  0  0  0  0  0  0
    1.7286   -2.3254   -1.5819 H   0  0  0  0  0  0  0  0  0  0  0  0
    3.9353   -2.9573   -2.5115 H   0  0  0  0  0  0  0  0  0  0  0  0
    8.3319   -2.5076   -1.3592 H   0  0  0  0  0  0  0  0  0  0  0  0
    9.5132   -1.2697    0.9130 H   0  0  0  0  0  0  0  0  0  0  0  0
    8.4698    0.0259    3.0569 H   0  0  0  0  0  0  0  0  0  0  0  0
    5.8054    0.0110    2.7393 H   0  0  0  0  0  0  0  0  0  0  0  0
    0.9298    3.3610    1.2409 H   0  0  0  0  0  0  0  0  0  0  0  0
    0.7416    2.4964    2.7450 H   0  0  0  0  0  0  0  0  0  0  0  0
    0.8861    1.1690   -0.7828 H   0  0  0  0  0  0  0  0  0  0  0  0
   -0.1611    2.5901   -0.7512 H   0  0  0  0  0  0  0  0  0  0  0  0
   -1.0015   -0.3544   -0.8301 H   0  0  0  0  0  0  0  0  0  0  0  0
   -1.1426    0.8390   -2.1286 H   0  0  0  0  0  0  0  0  0  0  0  0
   -3.4441    0.5505   -2.3195 H   0  0  0  0  0  0  0  0  0  0  0  0
   -2.7984   -1.5803   -2.9219 H   0  0  0  0  0  0  0  0  0  0  0  0
   -2.8693   -4.0193   -2.5808 H   0  0  0  0  0  0  0  0  0  0  0  0
   -3.8020   -4.9641   -0.4842 H   0  0  0  0  0  0  0  0  0  0  0  0
   -4.6716   -3.4503    1.2769 H   0  0  0  0  0  0  0  0  0  0  0  0
   -4.6174   -1.0090    0.9576 H   0  0  0  0  0  0  0  0  0  0  0  0
   -6.2460   -0.5484   -1.5973 H   0  0  0  0  0  0  0  0  0  0  0  0
   -8.3664    0.6677   -1.4332 H   0  0  0  0  0  0  0  0  0  0  0  0
   -8.3928    3.0937   -0.9078 H   0  0  0  0  0  0  0  0  0  0  0  0
   -6.2511    4.3003   -0.5722 H   0  0  0  0  0  0  0  0  0  0  0  0
   -4.1120    3.1065   -0.7266 H   0  0  0  0  0  0  0  0  0  0  0  0
   -3.5077    1.3851    1.3111 H   0  0  0  0  0  0  0  0  0  0  0  0
   -2.4051    0.0036    1.2701 H   0  0  0  0  0  0  0  0  0  0  0  0
   -1.4890    1.7967    2.6332 H   0  0  0  0  0  0  0  0  0  0  0  0
   -1.6197    2.9623    1.3106 H   0  0  0  0  0  0  0  0  0  0  0  0
  1  2  1  0
  2  3  1  0
  3  4  1  0
  4  5  1  0
  5  6  2  0
  6  7  1  0
  7  8  2  0
  8  9  1  0
  9 10  1  0
 10 11  2  0
 11 12  1  0
 12 13  2  0
 13 14  1  0
 14 15  2  0
 15 16  1  0
 16 17  1  0
  2 18  1  0
 18 19  1  0
 19 20  1  0
 20 21  1  0
 21 22  1  0
 22 23  1  0
 23 24  1  0
 24 25  2  0
 25 26  1  0
 26 27  2  0
 27 28  1  0
 28 29  2  0
 23 30  1  0
 30 31  2  0
 31 32  1  0
 32 33  2  0
 33 34  1  0
 34 35  2  0
 22 36  1  0
 36 37  1  0
 17  5  1  0
 37 19  1  0
 17  9  2  0
 29 24  1  0
 35 30  1  0
 16 12  1  0
  1 38  1  0
  2 39  1  0
  3 40  1  0
  3 41  1  0
  6 42  1  0
  7 43  1  0
  8 44  1  0
 11 45  1  0
 13 46  1  0
 14 47  1  0
 15 48  1  0
 18 49  1  0
 18 50  1  0
 20 51  1  0
 20 52  1  0
 21 53  1  0
 21 54  1  0
 23 55  1  0
 25 56  1  0
 26 57  1  0
 27 58  1  0
 28 59  1  0
 29 60  1  0
 31 61  1  0
 32 62  1  0
 33 63  1  0
 34 64  1  0
 35 65  1  0
 36 66  1  0
 36 67  1  0
 37 68  1  0
 37 69  1  0
M  END
$$$$
