
     RDKit          3D

 51 55  0  0  0  0  0  0  0  0999 V2000
    8.8279    3.0566    1.4079 Cl  0  0  0  0  0  0  0  0  0  0  0  0
    7.5248    1.9661    1.0954 C   0  0  0  0  0  0  0  0  0  0  0  0
    6.7418    2.1964   -0.0392 C   0  0  0  0  0  0  0  0  0  0  0  0
    5.6737    1.3485   -0.3422 C   0  0  0  0  0  0  0  0  0  0  0  0
    5.3790    0.2573    0.4846 C   0  0  0  0  0  0  0  0  0  0  0  0
    4.2124   -0.6506    0.1692 C   0  0  0  0  0  0  0  0  0  0  0  0
    2.9068   -0.1351    0.7996 C   0  0  0  0  0  0  0  0  0  0  0  0
    1.7716   -1.0364    0.5478 N   0  0  0  0  0  0  0  0  0  0  0  0
    0.6802   -0.7775    1.5123 C   0  0  0  0  0  0  0  0  0  0  0  0
   -0.6668   -1.4076    1.0974 C   0  0  0  0  0  0  0  0  0  0  0  0
   -1.1345   -0.8871   -0.1958 N   0  0  0  0  0  0  0  0  0  0  0  0
   -2.4653   -0.5328   -0.3993 C   0  0  0  0  0  0  0  0  0  0  0  0
   -2.7120    0.5441   -1.1061 N   0  0  0  0  0  0  0  0  0  0  0  0
   -4.0321    0.9841   -1.3177 C   0  0  0  0  0  0  0  0  0  0  0  0
   -4.2316    2.1469   -2.0647 C   0  0  0  0  0  0  0  0  0  0  0  0
   -5.5205    2.6355   -2.2948 C   0  0  0  0  0  0  0  0  0  0  0  0
   -6.6268    1.9619   -1.7764 C   0  0  0  0  0  0  0  0  0  0  0  0
   -6.4508    0.7979   -1.0274 C   0  0  0  0  0  0  0  0  0  0  0  0
   -5.1549    0.3218   -0.8053 C   0  0  0  0  0  0  0  0  0  0  0  0
   -4.8877   -0.8481   -0.0765 N   0  0  0  0  0  0  0  0  0  0  0  0
   -5.7656   -1.7219    0.5202 C   0  0  0  0  0  0  0  0  0  0  0  0
   -5.0404   -2.7656    1.0506 C   0  0  0  0  0  0  0  0  0  0  0  0
   -3.6768   -2.5065    0.7797 C   0  0  0  0  0  0  0  0  0  0  0  0
   -3.5966   -1.2933    0.1168 C   0  0  0  0  0  0  0  0  0  0  0  0
   -0.0919   -0.2629   -1.0272 C   0  0  0  0  0  0  0  0  0  0  0  0
    1.2703   -0.9671   -0.8449 C   0  0  0  0  0  0  0  0  0  0  0  0
    6.1650    0.0339    1.6247 C   0  0  0  0  0  0  0  0  0  0  0  0
    7.2354    0.8823    1.9303 C   0  0  0  0  0  0  0  0  0  0  0  0
    8.1538    0.5366    3.3527 Cl  0  0  0  0  0  0  0  0  0  0  0  0
    6.9586    3.0374   -0.6938 H   0  0  0  0  0  0  0  0  0  0  0  0
    5.0748    1.5452   -1.2296 H   0  0  0  0  0  0  0  0  0  0  0  0
    4.4317   -1.6619    0.5360 H   0  0  0  0  0  0  0  0  0  0  0  0
    4.1221   -0.7412   -0.9197 H   0  0  0  0  0  0  0  0  0  0  0  0
    2.6801    0.8815    0.4515 H   0  0  0  0  0  0  0  0  0  0  0  0
    3.0727   -0.0611    1.8832 H   0  0  0  0  0  0  0  0  0  0  0  0
    0.5307    0.3038    1.6386 H   0  0  0  0  0  0  0  0  0  0  0  0
    0.9705   -1.1811    2.4896 H   0  0  0  0  0  0  0  0  0  0  0  0
   -0.5573   -2.4959    1.0268 H   0  0  0  0  0  0  0  0  0  0  0  0
   -1.3919   -1.1903    1.8899 H   0  0  0  0  0  0  0  0  0  0  0  0
   -3.3715    2.6747   -2.4679 H   0  0  0  0  0  0  0  0  0  0  0  0
   -5.6584    3.5420   -2.8785 H   0  0  0  0  0  0  0  0  0  0  0  0
   -7.6281    2.3450   -1.9583 H   0  0  0  0  0  0  0  0  0  0  0  0
   -7.3265    0.2900   -0.6376 H   0  0  0  0  0  0  0  0  0  0  0  0
   -6.8327   -1.5546    0.5094 H   0  0  0  0  0  0  0  0  0  0  0  0
   -5.4511   -3.6252    1.5645 H   0  0  0  0  0  0  0  0  0  0  0  0
   -2.8459   -3.1464    1.0412 H   0  0  0  0  0  0  0  0  0  0  0  0
    0.0041    0.8000   -0.7724 H   0  0  0  0  0  0  0  0  0  0  0  0
   -0.3742   -0.3307   -2.0849 H   0  0  0  0  0  0  0  0  0  0  0  0
    1.1658   -2.0033   -1.1919 H   0  0  0  0  0  0  0  0  0  0  0  0
    1.9962   -0.4981   -1.5185 H   0  0  0  0  0  0  0  0  0  0  0  0
    5.9419   -0.8072    2.2788 H   0  0  0  0  0  0  0  0  0  0  0  0
  1  2  1  0
  2  3  2  0
  3  4  1  0
  4  5  2  0
  5  6  1  0
  6  7  1  0
  7  8  1  0
  8  9  1  0
  9 10  1  0
 10 11  1  0
 11 12  1  0
 12 13  2  0
 13 14  1  0
 14 15  2  0
 15 16  1  0
 16 17  2  0
 17 18  1  0
 18 19  2  0
 19 20  1  0
 20 21  1  0
 21 22  2  0
 22 23  1  0
 23 24  2  0
 11 25  1  0
 25 26  1  0
  5 27  1  0
 27 28  2  0
 28 29  1  0
 28  2  1  0
 26  8  1  0
 24 12  1  0
 19 14  1  0
 24 20  1  0
  3 30  1  0
  4 31  1  0
  6 32  1  0
  6 33  1  0
  7 34  1  0
  7 35  1  0
  9 36  1  0
  9 37  1  0
 10 38  1  0
 10 39  1  0
 15 40  1  0
 16 41  1  0
 17 42  1  0
 18 43  1  0
 21 44  1  0
 22 45  1  0
 23 46  1  0
 25 47  1  0
 25 48  1  0
 26 49  1  0
 26 50  1  0
 27 51  1  0
M  END
$$$$
