
     RDKit          3D

 46 49  0  0  0  0  0  0  0  0999 V2000
    2.8453   -1.1734    2.9021 O   0  0  0  0  0  0  0  0  0  0  0  0
    2.2971   -0.0857    2.7381 C   0  0  0  0  0  0  0  0  0  0  0  0
    1.4018    0.5033    3.8211 C   0  0  0  0  0  0  0  0  0  0  0  0
   -0.3144   -0.0690    3.5696 S   0  0  0  0  0  0  0  0  0  0  0  0
   -0.6798    0.7681    2.1030 C   0  0  0  0  0  0  0  0  0  0  0  0
   -0.2714    1.9836    1.8229 N   0  0  0  0  0  0  0  0  0  0  0  0
   -0.6470    2.2626    0.5377 N   0  0  0  0  0  0  0  0  0  0  0  0
   -1.2815    1.2102    0.0523 C   0  0  0  0  0  0  0  0  0  0  0  0
   -1.8731    1.1125   -1.3171 C   0  0  0  0  0  0  0  0  0  0  0  0
   -3.3616    1.3274   -1.3139 C   0  0  0  0  0  0  0  0  0  0  0  0
   -4.0772    2.3839   -0.7801 C   0  0  0  0  0  0  0  0  0  0  0  0
   -5.4810    2.2446   -0.9754 C   0  0  0  0  0  0  0  0  0  0  0  0
   -5.7947    1.0866   -1.6507 C   0  0  0  0  0  0  0  0  0  0  0  0
   -4.4001    0.1889   -2.0661 S   0  0  0  0  0  0  0  0  0  0  0  0
   -1.2953    0.2180    1.0130 N   0  0  0  0  0  0  0  0  0  0  0  0
   -1.7960   -1.1352    0.8662 C   0  0  0  0  0  0  0  0  0  0  0  0
   -0.7731   -1.9962    0.2188 C   0  0  0  0  0  0  0  0  0  0  0  0
    0.3633   -2.6391    0.6707 C   0  0  0  0  0  0  0  0  0  0  0  0
    0.9290   -3.2882   -0.4546 C   0  0  0  0  0  0  0  0  0  0  0  0
    0.0977   -3.0141   -1.5160 C   0  0  0  0  0  0  0  0  0  0  0  0
   -0.9407   -2.2361   -1.1166 O   0  0  0  0  0  0  0  0  0  0  0  0
    2.3513    0.6883    1.5880 N   0  0  0  0  0  0  0  0  0  0  0  0
    2.9504    0.3436    0.3586 C   0  0  0  0  0  0  0  0  0  0  0  0
    2.6275    1.1376   -0.7490 C   0  0  0  0  0  0  0  0  0  0  0  0
    3.1487    0.8347   -2.0079 C   0  0  0  0  0  0  0  0  0  0  0  0
    2.7131    1.7997   -3.3637 Cl  0  0  0  0  0  0  0  0  0  0  0  0
    4.0068   -0.2447   -2.1797 C   0  0  0  0  0  0  0  0  0  0  0  0
    4.3380   -1.0237   -1.0769 C   0  0  0  0  0  0  0  0  0  0  0  0
    5.3978   -2.3665   -1.2778 Cl  0  0  0  0  0  0  0  0  0  0  0  0
    3.8171   -0.7374    0.1883 C   0  0  0  0  0  0  0  0  0  0  0  0
    1.7570    0.1493    4.7944 H   0  0  0  0  0  0  0  0  0  0  0  0
    1.4623    1.5962    3.8307 H   0  0  0  0  0  0  0  0  0  0  0  0
   -1.6054    0.1559   -1.7762 H   0  0  0  0  0  0  0  0  0  0  0  0
   -1.4180    1.8853   -1.9503 H   0  0  0  0  0  0  0  0  0  0  0  0
   -3.6125    3.2190   -0.2670 H   0  0  0  0  0  0  0  0  0  0  0  0
   -6.2234    2.9562   -0.6339 H   0  0  0  0  0  0  0  0  0  0  0  0
   -6.7762    0.7291   -1.9318 H   0  0  0  0  0  0  0  0  0  0  0  0
   -2.7172   -1.0975    0.2785 H   0  0  0  0  0  0  0  0  0  0  0  0
   -2.0705   -1.5258    1.8502 H   0  0  0  0  0  0  0  0  0  0  0  0
    0.7528   -2.6362    1.6825 H   0  0  0  0  0  0  0  0  0  0  0  0
    1.8338   -3.8809   -0.4856 H   0  0  0  0  0  0  0  0  0  0  0  0
    0.1076   -3.2817   -2.5641 H   0  0  0  0  0  0  0  0  0  0  0  0
    1.7360    1.5053    1.5654 H   0  0  0  0  0  0  0  0  0  0  0  0
    1.9534    1.9853   -0.6414 H   0  0  0  0  0  0  0  0  0  0  0  0
    4.4151   -0.4757   -3.1604 H   0  0  0  0  0  0  0  0  0  0  0  0
    4.1071   -1.3682    1.0223 H   0  0  0  0  0  0  0  0  0  0  0  0
  1  2  2  0
  2  3  1  0
  3  4  1  0
  4  5  1  0
  5  6  2  0
  6  7  1  0
  7  8  2  0
  8  9  1  0
  9 10  1  0
 10 11  2  0
 11 12  1  0
 12 13  2  0
 13 14  1  0
  8 15  1  0
 15 16  1  0
 16 17  1  0
 17 18  2  0
 18 19  1  0
 19 20  2  0
 20 21  1  0
  2 22  1  0
 22 23  1  0
 23 24  2  0
 24 25  1  0
 25 26  1  0
 25 27  2  0
 27 28  1  0
 28 29  1  0
 28 30  2  0
 15  5  1  0
 21 17  1  0
 30 23  1  0
 14 10  1  0
  3 31  1  0
  3 32  1  0
  9 33  1  0
  9 34  1  0
 11 35  1  0
 12 36  1  0
 13 37  1  0
 16 38  1  0
 16 39  1  0
 18 40  1  0
 19 41  1  0
 20 42  1  0
 22 43  1  0
 24 44  1  0
 27 45  1  0
 30 46  1  0
M  END
$$$$
