
     RDKit          3D

 34 35  0  0  0  0  0  0  0  0999 V2000
   -2.8575   -2.1361    0.6329 C   0  0  0  0  0  0  0  0  0  0  0  0
   -2.9171   -0.7909   -0.0364 C   0  0  0  0  0  0  0  0  0  0  0  0
   -4.1367   -0.4183   -0.6319 C   0  0  0  0  0  0  0  0  0  0  0  0
   -4.2498    0.7624   -1.3658 C   0  0  0  0  0  0  0  0  0  0  0  0
   -3.1418    1.5861   -1.5246 C   0  0  0  0  0  0  0  0  0  0  0  0
   -1.9305    1.2423   -0.9243 C   0  0  0  0  0  0  0  0  0  0  0  0
   -1.8208    0.0838   -0.1406 C   0  0  0  0  0  0  0  0  0  0  0  0
   -0.5533   -0.1766    0.4300 N   0  0  0  0  0  0  0  0  0  0  0  0
   -0.2778   -0.4092    1.7585 C   0  0  0  0  0  0  0  0  0  0  0  0
   -1.2772   -0.1814    3.0781 S   0  0  0  0  0  0  0  0  0  0  0  0
    1.0018   -0.8280    2.0127 N   0  0  0  0  0  0  0  0  0  0  0  0
    1.9674   -1.3358    1.0525 C   0  0  0  0  0  0  0  0  0  0  0  0
    2.6628   -0.2399    0.2836 C   0  0  0  0  0  0  0  0  0  0  0  0
    3.2157    0.8681    0.9426 C   0  0  0  0  0  0  0  0  0  0  0  0
    3.8598    1.8745    0.2212 C   0  0  0  0  0  0  0  0  0  0  0  0
    3.9660    1.7811   -1.1648 C   0  0  0  0  0  0  0  0  0  0  0  0
    3.4313    0.6804   -1.8308 C   0  0  0  0  0  0  0  0  0  0  0  0
    2.7866   -0.3271   -1.1111 C   0  0  0  0  0  0  0  0  0  0  0  0
   -3.4023   -2.8773    0.0366 H   0  0  0  0  0  0  0  0  0  0  0  0
   -1.8337   -2.5110    0.7195 H   0  0  0  0  0  0  0  0  0  0  0  0
   -3.3164   -2.0922    1.6245 H   0  0  0  0  0  0  0  0  0  0  0  0
   -5.0059   -1.0673   -0.5422 H   0  0  0  0  0  0  0  0  0  0  0  0
   -5.1987    1.0289   -1.8236 H   0  0  0  0  0  0  0  0  0  0  0  0
   -3.2207    2.5004   -2.1064 H   0  0  0  0  0  0  0  0  0  0  0  0
   -1.0814    1.9105   -1.0453 H   0  0  0  0  0  0  0  0  0  0  0  0
    0.2040    0.3437    0.0010 H   0  0  0  0  0  0  0  0  0  0  0  0
    1.1848   -1.0150    2.9913 H   0  0  0  0  0  0  0  0  0  0  0  0
    2.7140   -1.9149    1.6068 H   0  0  0  0  0  0  0  0  0  0  0  0
    1.4429   -2.0201    0.3759 H   0  0  0  0  0  0  0  0  0  0  0  0
    3.1401    0.9572    2.0245 H   0  0  0  0  0  0  0  0  0  0  0  0
    4.2794    2.7315    0.7421 H   0  0  0  0  0  0  0  0  0  0  0  0
    4.4691    2.5648   -1.7254 H   0  0  0  0  0  0  0  0  0  0  0  0
    3.5188    0.6051   -2.9118 H   0  0  0  0  0  0  0  0  0  0  0  0
    2.3770   -1.1798   -1.6493 H   0  0  0  0  0  0  0  0  0  0  0  0
  1  2  1  0
  2  3  2  0
  3  4  1  0
  4  5  2  0
  5  6  1  0
  6  7  2  0
  7  8  1  0
  8  9  1  0
  9 10  2  0
  9 11  1  0
 11 12  1  0
 12 13  1  0
 13 14  2  0
 14 15  1  0
 15 16  2  0
 16 17  1  0
 17 18  2  0
  7  2  1  0
 18 13  1  0
  1 19  1  0
  1 20  1  0
  1 21  1  0
  3 22  1  0
  4 23  1  0
  5 24  1  0
  6 25  1  0
  8 26  1  0
 11 27  1  0
 12 28  1  0
 12 29  1  0
 14 30  1  0
 15 31  1  0
 16 32  1  0
 17 33  1  0
 18 34  1  0
M  END
$$$$
