
     RDKit          3D

 61 66  0  0  0  0  0  0  0  0999 V2000
   -4.4012    1.8338   -0.8872 C   0  0  0  0  0  0  0  0  0  0  0  0
   -3.0889    2.5923   -1.0693 C   0  0  0  0  0  0  0  0  0  0  0  0
   -2.5487    3.0895    0.2749 C   0  0  0  0  0  0  0  0  0  0  0  0
   -2.0403    1.8661   -1.9081 C   0  0  0  0  0  0  0  0  0  0  0  0
   -1.7396    2.4438   -3.1622 C   0  0  0  0  0  0  0  0  0  0  0  0
   -0.7133    1.9554   -3.9774 C   0  0  0  0  0  0  0  0  0  0  0  0
    0.0537    0.8758   -3.5615 C   0  0  0  0  0  0  0  0  0  0  0  0
   -0.2224    0.2680   -2.3409 C   0  0  0  0  0  0  0  0  0  0  0  0
   -1.2772    0.7415   -1.5330 C   0  0  0  0  0  0  0  0  0  0  0  0
   -1.5235    0.0092   -0.3518 N   0  0  0  0  0  0  0  0  0  0  0  0
   -0.7287   -0.0371    0.7793 C   0  0  0  0  0  0  0  0  0  0  0  0
    0.6912    0.9308    1.0112 S   0  0  0  0  0  0  0  0  0  0  0  0
    1.2013    0.4628    2.6931 C   0  0  0  0  0  0  0  0  0  0  0  0
    1.9300   -0.8606    2.7377 C   0  0  0  0  0  0  0  0  0  0  0  0
    1.2786   -1.8686    3.3512 C   0  0  0  0  0  0  0  0  0  0  0  0
    1.7594   -3.2451    3.4379 C   0  0  0  0  0  0  0  0  0  0  0  0
    1.1602   -4.0952    4.0828 O   0  0  0  0  0  0  0  0  0  0  0  0
    2.9112   -3.5207    2.7379 O   0  0  0  0  0  0  0  0  0  0  0  0
    3.6520   -2.4959    2.1122 C   0  0  0  0  0  0  0  0  0  0  0  0
    4.8078   -2.9655    1.4968 C   0  0  0  0  0  0  0  0  0  0  0  0
    5.6622   -2.0663    0.8902 C   0  0  0  0  0  0  0  0  0  0  0  0
    5.3957   -0.6980    0.9332 C   0  0  0  0  0  0  0  0  0  0  0  0
    6.3386    0.1569    0.3367 C   0  0  0  0  0  0  0  0  0  0  0  0
    6.1814    1.5362    0.3619 C   0  0  0  0  0  0  0  0  0  0  0  0
    5.0811    2.0723    1.0023 C   0  0  0  0  0  0  0  0  0  0  0  0
    4.1308    1.2274    1.5936 C   0  0  0  0  0  0  0  0  0  0  0  0
    4.2175   -0.1920    1.5715 C   0  0  0  0  0  0  0  0  0  0  0  0
    3.2770   -1.1351    2.1390 C   0  0  0  0  0  0  0  0  0  0  0  0
   -1.2470   -0.8573    1.6611 N   0  0  0  0  0  0  0  0  0  0  0  0
   -2.3433   -1.4406    1.0917 N   0  0  0  0  0  0  0  0  0  0  0  0
   -2.4838   -0.9812   -0.1450 C   0  0  0  0  0  0  0  0  0  0  0  0
   -3.5111   -1.4618   -1.0739 C   0  0  0  0  0  0  0  0  0  0  0  0
   -3.3359   -1.5832   -2.4550 C   0  0  0  0  0  0  0  0  0  0  0  0
   -4.3799   -2.0488   -3.2570 C   0  0  0  0  0  0  0  0  0  0  0  0
   -5.5765   -2.3915   -2.6513 C   0  0  0  0  0  0  0  0  0  0  0  0
   -5.7872   -2.3091   -1.3221 N   0  0  0  0  0  0  0  0  0  0  0  0
   -4.7497   -1.8632   -0.5688 C   0  0  0  0  0  0  0  0  0  0  0  0
   -4.3164    1.0568   -0.1245 H   0  0  0  0  0  0  0  0  0  0  0  0
   -5.1891    2.5161   -0.5452 H   0  0  0  0  0  0  0  0  0  0  0  0
   -4.7386    1.3818   -1.8257 H   0  0  0  0  0  0  0  0  0  0  0  0
   -3.3623    3.5054   -1.6189 H   0  0  0  0  0  0  0  0  0  0  0  0
   -2.4079    2.2781    0.9935 H   0  0  0  0  0  0  0  0  0  0  0  0
   -3.2566    3.7947    0.7252 H   0  0  0  0  0  0  0  0  0  0  0  0
   -1.5938    3.6133    0.1481 H   0  0  0  0  0  0  0  0  0  0  0  0
   -2.2960    3.3119   -3.5164 H   0  0  0  0  0  0  0  0  0  0  0  0
   -0.5043    2.4380   -4.9296 H   0  0  0  0  0  0  0  0  0  0  0  0
    0.8611    0.5059   -4.1887 H   0  0  0  0  0  0  0  0  0  0  0  0
    0.3788   -0.5891   -2.0366 H   0  0  0  0  0  0  0  0  0  0  0  0
    0.3000    0.4427    3.3194 H   0  0  0  0  0  0  0  0  0  0  0  0
    1.7956    1.2512    3.1577 H   0  0  0  0  0  0  0  0  0  0  0  0
    0.2980   -1.7334    3.7999 H   0  0  0  0  0  0  0  0  0  0  0  0
    5.0390   -4.0275    1.4975 H   0  0  0  0  0  0  0  0  0  0  0  0
    6.5617   -2.4478    0.4101 H   0  0  0  0  0  0  0  0  0  0  0  0
    7.2234   -0.2503   -0.1521 H   0  0  0  0  0  0  0  0  0  0  0  0
    6.9245    2.1823   -0.0982 H   0  0  0  0  0  0  0  0  0  0  0  0
    4.9515    3.1505    1.0572 H   0  0  0  0  0  0  0  0  0  0  0  0
    3.3269    1.7431    2.0952 H   0  0  0  0  0  0  0  0  0  0  0  0
   -2.3942   -1.3392   -2.9358 H   0  0  0  0  0  0  0  0  0  0  0  0
   -4.2580   -2.1460   -4.3308 H   0  0  0  0  0  0  0  0  0  0  0  0
   -6.4174   -2.7585   -3.2336 H   0  0  0  0  0  0  0  0  0  0  0  0
   -4.9572   -1.8257    0.5004 H   0  0  0  0  0  0  0  0  0  0  0  0
  1  2  1  0
  2  3  1  0
  2  4  1  0
  4  5  2  0
  5  6  1  0
  6  7  2  0
  7  8  1  0
  8  9  2  0
  9 10  1  0
 10 11  1  0
 11 12  1  0
 12 13  1  0
 13 14  1  0
 14 15  2  0
 15 16  1  0
 16 17  2  0
 16 18  1  0
 18 19  1  0
 19 20  2  0
 20 21  1  0
 21 22  2  0
 22 23  1  0
 23 24  2  0
 24 25  1  0
 25 26  2  0
 26 27  1  0
 27 28  2  0
 11 29  2  0
 29 30  1  0
 30 31  2  0
 31 32  1  0
 32 33  2  0
 33 34  1  0
 34 35  2  0
 35 36  1  0
 36 37  2  0
  9  4  1  0
 31 10  1  0
 37 32  1  0
 28 14  1  0
 28 19  1  0
 27 22  1  0
  1 38  1  0
  1 39  1  0
  1 40  1  0
  2 41  1  0
  3 42  1  0
  3 43  1  0
  3 44  1  0
  5 45  1  0
  6 46  1  0
  7 47  1  0
  8 48  1  0
 13 49  1  0
 13 50  1  0
 15 51  1  0
 20 52  1  0
 21 53  1  0
 23 54  1  0
 24 55  1  0
 25 56  1  0
 26 57  1  0
 33 58  1  0
 34 59  1  0
 35 60  1  0
 37 61  1  0
M  END
$$$$
