
     RDKit          3D

 59 62  0  0  0  0  0  0  0  0999 V2000
   -4.7821   -3.9031   -2.7296 C   0  0  0  0  0  0  0  0  0  0  0  0
   -4.3721   -2.5027   -3.1496 C   0  0  0  0  0  0  0  0  0  0  0  0
   -4.4323   -1.5555   -2.0476 N   0  0  0  0  0  0  0  0  0  0  0  0
   -5.5435   -0.7974   -1.7266 C   0  0  0  0  0  0  0  0  0  0  0  0
   -6.8313   -0.7512   -2.2882 C   0  0  0  0  0  0  0  0  0  0  0  0
   -7.7606    0.1405   -1.7428 C   0  0  0  0  0  0  0  0  0  0  0  0
   -7.4192    0.9637   -0.6739 C   0  0  0  0  0  0  0  0  0  0  0  0
   -6.1382    0.9074   -0.1178 C   0  0  0  0  0  0  0  0  0  0  0  0
   -5.1838    0.0114   -0.6472 C   0  0  0  0  0  0  0  0  0  0  0  0
   -3.8271   -0.2903   -0.3115 C   0  0  0  0  0  0  0  0  0  0  0  0
   -2.9403    0.1984    0.6763 C   0  0  0  0  0  0  0  0  0  0  0  0
   -1.6402   -0.3058    0.7677 C   0  0  0  0  0  0  0  0  0  0  0  0
   -0.6963    0.1337    1.7188 N   0  0  0  0  0  0  0  0  0  0  0  0
   -0.8598    1.1057    2.6936 C   0  0  0  0  0  0  0  0  0  0  0  0
   -1.8947    1.7133    2.9555 O   0  0  0  0  0  0  0  0  0  0  0  0
    0.4058    1.3049    3.5501 C   0  0  0  0  0  0  0  0  0  0  0  0
    0.3443    0.3642    4.7456 C   0  0  0  0  0  0  0  0  0  0  0  0
    1.6225    1.0083    2.8457 O   0  0  0  0  0  0  0  0  0  0  0  0
    2.0431    1.9895    2.0060 C   0  0  0  0  0  0  0  0  0  0  0  0
    1.4539    3.0314    1.7774 O   0  0  0  0  0  0  0  0  0  0  0  0
    3.3393    1.6197    1.3774 C   0  0  0  0  0  0  0  0  0  0  0  0
    3.8391    2.4405    0.3603 C   0  0  0  0  0  0  0  0  0  0  0  0
    5.0643    2.1497   -0.2537 C   0  0  0  0  0  0  0  0  0  0  0  0
    5.8109    1.0404    0.1454 C   0  0  0  0  0  0  0  0  0  0  0  0
    7.0659    0.6930   -0.3991 N   0  0  0  0  0  0  0  0  0  0  0  0
    7.7189    1.3006   -1.4631 C   0  0  0  0  0  0  0  0  0  0  0  0
    7.2891    2.2334   -2.1370 O   0  0  0  0  0  0  0  0  0  0  0  0
    9.1011    0.7448   -1.7342 C   0  0  0  0  0  0  0  0  0  0  0  0
    9.0317   -0.6578   -2.1424 C   0  0  0  0  0  0  0  0  0  0  0  0
    8.9811   -1.7862   -2.4131 N   0  0  0  0  0  0  0  0  0  0  0  0
    5.3075    0.2187    1.1642 C   0  0  0  0  0  0  0  0  0  0  0  0
    4.0808    0.5021    1.7763 C   0  0  0  0  0  0  0  0  0  0  0  0
   -1.2280   -1.2975   -0.1264 C   0  0  0  0  0  0  0  0  0  0  0  0
   -2.0833   -1.7983   -1.1165 C   0  0  0  0  0  0  0  0  0  0  0  0
   -3.3828   -1.2763   -1.1927 C   0  0  0  0  0  0  0  0  0  0  0  0
   -5.8026   -3.9141   -2.3321 H   0  0  0  0  0  0  0  0  0  0  0  0
   -4.1165   -4.2928   -1.9508 H   0  0  0  0  0  0  0  0  0  0  0  0
   -4.7414   -4.5823   -3.5865 H   0  0  0  0  0  0  0  0  0  0  0  0
   -5.0230   -2.1365   -3.9520 H   0  0  0  0  0  0  0  0  0  0  0  0
   -3.3515   -2.5003   -3.5473 H   0  0  0  0  0  0  0  0  0  0  0  0
   -7.1137   -1.3889   -3.1207 H   0  0  0  0  0  0  0  0  0  0  0  0
   -8.7620    0.1927   -2.1629 H   0  0  0  0  0  0  0  0  0  0  0  0
   -8.1514    1.6544   -0.2629 H   0  0  0  0  0  0  0  0  0  0  0  0
   -5.8780    1.5503    0.7193 H   0  0  0  0  0  0  0  0  0  0  0  0
   -3.3041    0.9693    1.3461 H   0  0  0  0  0  0  0  0  0  0  0  0
    0.2243   -0.2853    1.6686 H   0  0  0  0  0  0  0  0  0  0  0  0
    0.4254    2.3404    3.9099 H   0  0  0  0  0  0  0  0  0  0  0  0
    0.3624   -0.6830    4.4256 H   0  0  0  0  0  0  0  0  0  0  0  0
   -0.5643    0.5253    5.3347 H   0  0  0  0  0  0  0  0  0  0  0  0
    1.2144    0.5119    5.3939 H   0  0  0  0  0  0  0  0  0  0  0  0
    3.2797    3.3191    0.0378 H   0  0  0  0  0  0  0  0  0  0  0  0
    5.4059    2.8245   -1.0337 H   0  0  0  0  0  0  0  0  0  0  0  0
    7.5009   -0.1272    0.0085 H   0  0  0  0  0  0  0  0  0  0  0  0
    9.7073    0.8634   -0.8287 H   0  0  0  0  0  0  0  0  0  0  0  0
    9.5725    1.3446   -2.5230 H   0  0  0  0  0  0  0  0  0  0  0  0
    5.8611   -0.6562    1.4991 H   0  0  0  0  0  0  0  0  0  0  0  0
    3.7287   -0.1516    2.5697 H   0  0  0  0  0  0  0  0  0  0  0  0
   -0.2204   -1.7030   -0.0744 H   0  0  0  0  0  0  0  0  0  0  0  0
   -1.7374   -2.5677   -1.7987 H   0  0  0  0  0  0  0  0  0  0  0  0
  1  2  1  0
  2  3  1  0
  3  4  1  0
  4  5  2  0
  5  6  1  0
  6  7  2  0
  7  8  1  0
  8  9  2  0
  9 10  1  0
 10 11  2  0
 11 12  1  0
 12 13  1  0
 13 14  1  0
 14 15  2  0
 14 16  1  0
 16 17  1  0
 16 18  1  0
 18 19  1  0
 19 20  2  0
 19 21  1  0
 21 22  2  0
 22 23  1  0
 23 24  2  0
 24 25  1  0
 25 26  1  0
 26 27  2  0
 26 28  1  0
 28 29  1  0
 29 30  3  0
 24 31  1  0
 31 32  2  0
 12 33  2  0
 33 34  1  0
 34 35  2  0
 35  3  1  0
  9  4  1  0
 35 10  1  0
 32 21  1  0
  1 36  1  0
  1 37  1  0
  1 38  1  0
  2 39  1  0
  2 40  1  0
  5 41  1  0
  6 42  1  0
  7 43  1  0
  8 44  1  0
 11 45  1  0
 13 46  1  0
 16 47  1  0
 17 48  1  0
 17 49  1  0
 17 50  1  0
 22 51  1  0
 23 52  1  0
 25 53  1  0
 28 54  1  0
 28 55  1  0
 31 56  1  0
 32 57  1  0
 33 58  1  0
 34 59  1  0
M  END
$$$$
