
     RDKit          3D

 64 67  0  0  0  0  0  0  0  0999 V2000
    6.2474   -3.8820   -5.3730 C   0  0  0  0  0  0  0  0  0  0  0  0
    6.4723   -4.3185   -4.0380 O   0  0  0  0  0  0  0  0  0  0  0  0
    5.8478   -3.6154   -3.0469 C   0  0  0  0  0  0  0  0  0  0  0  0
    5.1253   -2.4353   -3.2096 C   0  0  0  0  0  0  0  0  0  0  0  0
    4.5401   -1.8139   -2.1007 C   0  0  0  0  0  0  0  0  0  0  0  0
    4.6709   -2.3589   -0.8162 C   0  0  0  0  0  0  0  0  0  0  0  0
    4.0567   -1.6604    0.2378 N   0  0  0  0  0  0  0  0  0  0  0  0
    4.0227   -1.9920    1.5834 C   0  0  0  0  0  0  0  0  0  0  0  0
    4.5419   -2.9680    2.1179 O   0  0  0  0  0  0  0  0  0  0  0  0
    3.2437   -0.9738    2.4266 C   0  0  0  0  0  0  0  0  0  0  0  0
    1.8359   -0.8654    2.0230 N   0  0  0  0  0  0  0  0  0  0  0  0
    0.9612   -1.9498    2.4578 C   0  0  0  0  0  0  0  0  0  0  0  0
    1.5100    0.0559    1.0482 C   0  0  0  0  0  0  0  0  0  0  0  0
    2.3681    0.6173    0.3672 O   0  0  0  0  0  0  0  0  0  0  0  0
    0.0860    0.3612    0.7908 C   0  0  0  0  0  0  0  0  0  0  0  0
   -0.7571    0.6615    1.7921 C   0  0  0  0  0  0  0  0  0  0  0  0
   -2.1290    1.0149    1.6343 C   0  0  0  0  0  0  0  0  0  0  0  0
   -3.1168    0.5530    2.4731 C   0  0  0  0  0  0  0  0  0  0  0  0
   -4.3106    1.0474    1.9992 N   0  0  0  0  0  0  0  0  0  0  0  0
   -5.6208    0.7990    2.4991 C   0  0  0  0  0  0  0  0  0  0  0  0
   -5.8414   -0.0944    3.5603 C   0  0  0  0  0  0  0  0  0  0  0  0
   -7.1422   -0.3312    4.0159 C   0  0  0  0  0  0  0  0  0  0  0  0
   -8.2263    0.3108    3.4189 C   0  0  0  0  0  0  0  0  0  0  0  0
   -8.0139    1.1991    2.3660 C   0  0  0  0  0  0  0  0  0  0  0  0
   -6.7176    1.4448    1.9059 C   0  0  0  0  0  0  0  0  0  0  0  0
   -4.1202    1.8404    0.9183 N   0  0  0  0  0  0  0  0  0  0  0  0
   -2.7988    1.8369    0.6835 C   0  0  0  0  0  0  0  0  0  0  0  0
   -2.2576    2.6230   -0.4280 C   0  0  0  0  0  0  0  0  0  0  0  0
   -2.9361    2.6561   -1.6552 C   0  0  0  0  0  0  0  0  0  0  0  0
   -2.4319    3.3922   -2.7320 C   0  0  0  0  0  0  0  0  0  0  0  0
   -1.2333    4.1013   -2.6045 C   0  0  0  0  0  0  0  0  0  0  0  0
   -0.7068    4.9144   -3.7513 C   0  0  0  0  0  0  0  0  0  0  0  0
   -0.5680    4.0933   -1.3724 C   0  0  0  0  0  0  0  0  0  0  0  0
   -1.0769    3.3627   -0.2927 C   0  0  0  0  0  0  0  0  0  0  0  0
    5.3939   -3.5388   -0.6568 C   0  0  0  0  0  0  0  0  0  0  0  0
    5.9811   -4.1574   -1.7664 C   0  0  0  0  0  0  0  0  0  0  0  0
    5.1793   -3.8832   -5.6165 H   0  0  0  0  0  0  0  0  0  0  0  0
    6.7425   -4.5917   -6.0442 H   0  0  0  0  0  0  0  0  0  0  0  0
    6.6944   -2.8955   -5.5448 H   0  0  0  0  0  0  0  0  0  0  0  0
    4.9973   -1.9707   -4.1834 H   0  0  0  0  0  0  0  0  0  0  0  0
    3.9808   -0.8941   -2.2570 H   0  0  0  0  0  0  0  0  0  0  0  0
    3.5858   -0.7892   -0.0119 H   0  0  0  0  0  0  0  0  0  0  0  0
    3.7415   -0.0004    2.3399 H   0  0  0  0  0  0  0  0  0  0  0  0
    3.2786   -1.2729    3.4797 H   0  0  0  0  0  0  0  0  0  0  0  0
    1.4435   -2.9072    2.2335 H   0  0  0  0  0  0  0  0  0  0  0  0
   -0.0057   -1.9453    1.9475 H   0  0  0  0  0  0  0  0  0  0  0  0
    0.8070   -1.8637    3.5375 H   0  0  0  0  0  0  0  0  0  0  0  0
   -0.1947    0.4200   -0.2532 H   0  0  0  0  0  0  0  0  0  0  0  0
   -0.3935    0.5939    2.8185 H   0  0  0  0  0  0  0  0  0  0  0  0
   -3.0652   -0.0915    3.3375 H   0  0  0  0  0  0  0  0  0  0  0  0
   -5.0302   -0.6219    4.0518 H   0  0  0  0  0  0  0  0  0  0  0  0
   -7.3142   -1.0261    4.8367 H   0  0  0  0  0  0  0  0  0  0  0  0
   -9.2364    0.1189    3.7746 H   0  0  0  0  0  0  0  0  0  0  0  0
   -8.8542    1.7000    1.8950 H   0  0  0  0  0  0  0  0  0  0  0  0
   -6.5791    2.1443    1.0824 H   0  0  0  0  0  0  0  0  0  0  0  0
   -3.8684    2.1095   -1.7764 H   0  0  0  0  0  0  0  0  0  0  0  0
   -2.9836    3.4047   -3.6706 H   0  0  0  0  0  0  0  0  0  0  0  0
   -1.1347    5.9208   -3.7181 H   0  0  0  0  0  0  0  0  0  0  0  0
    0.3850    4.9910   -3.7101 H   0  0  0  0  0  0  0  0  0  0  0  0
   -0.9638    4.4510   -4.7101 H   0  0  0  0  0  0  0  0  0  0  0  0
    0.3529    4.6569   -1.2449 H   0  0  0  0  0  0  0  0  0  0  0  0
   -0.5426    3.3889    0.6532 H   0  0  0  0  0  0  0  0  0  0  0  0
    5.5309   -4.0008    0.3162 H   0  0  0  0  0  0  0  0  0  0  0  0
    6.5469   -5.0758   -1.6281 H   0  0  0  0  0  0  0  0  0  0  0  0
  1  2  1  0
  2  3  1  0
  3  4  2  0
  4  5  1  0
  5  6  2  0
  6  7  1  0
  7  8  1  0
  8  9  2  0
  8 10  1  0
 10 11  1  0
 11 12  1  0
 11 13  1  0
 13 14  2  0
 13 15  1  0
 15 16  2  3
 16 17  1  0
 17 18  2  0
 18 19  1  0
 19 20  1  0
 20 21  2  0
 21 22  1  0
 22 23  2  0
 23 24  1  0
 24 25  2  0
 19 26  1  0
 26 27  2  0
 27 28  1  0
 28 29  2  0
 29 30  1  0
 30 31  2  0
 31 32  1  0
 31 33  1  0
 33 34  2  0
  6 35  1  0
 35 36  2  0
 36  3  1  0
 27 17  1  0
 34 28  1  0
 25 20  1  0
  1 37  1  0
  1 38  1  0
  1 39  1  0
  4 40  1  0
  5 41  1  0
  7 42  1  0
 10 43  1  0
 10 44  1  0
 12 45  1  0
 12 46  1  0
 12 47  1  0
 15 48  1  0
 16 49  1  0
 18 50  1  0
 21 51  1  0
 22 52  1  0
 23 53  1  0
 24 54  1  0
 25 55  1  0
 29 56  1  0
 30 57  1  0
 32 58  1  0
 32 59  1  0
 32 60  1  0
 33 61  1  0
 34 62  1  0
 35 63  1  0
 36 64  1  0
M  END
$$$$
