
     RDKit          3D

 43 43  0  0  0  0  0  0  0  0999 V2000
   -5.8962    1.9162    1.4879 C   0  0  0  0  0  0  0  0  0  0  0  0
   -5.8878    0.4347    1.2741 C   0  0  0  0  0  0  0  0  0  0  0  0
   -7.4485   -0.2195    0.8750 Cl  0  0  0  0  0  0  0  0  0  0  0  0
   -4.8458   -0.4115    1.3411 C   0  0  0  0  0  0  0  0  0  0  0  0
   -3.4301   -0.0873    1.6909 C   0  0  0  0  0  0  0  0  0  0  0  0
   -2.4234   -0.1501    0.5282 N   0  0  0  0  0  4  0  0  0  0  0  0
   -2.8078    0.8474   -0.5607 C   0  0  0  0  0  0  0  0  0  0  0  0
   -2.3695   -1.5556   -0.0629 C   0  0  0  0  0  0  0  0  0  0  0  0
   -1.0121    0.2293    1.1260 C   0  0  0  0  0  0  0  0  0  0  0  0
    0.1834    0.2492    0.1740 C   0  0  0  0  0  0  0  0  0  0  0  0
    0.1363   -0.0038   -1.0205 O   0  0  0  0  0  0  0  0  0  0  0  0
    1.3053    0.5897    0.8652 O   0  0  0  0  0  0  0  0  0  0  0  0
    2.5195    0.6839    0.0916 C   0  0  0  0  0  0  0  0  0  0  0  0
    3.1631   -0.6928   -0.0647 C   0  0  0  0  0  0  0  0  0  0  0  0
    4.4544   -0.6229   -0.8331 C   0  0  0  0  0  0  0  0  0  0  0  0
    5.6758   -0.4794   -0.1615 C   0  0  0  0  0  0  0  0  0  0  0  0
    6.8698   -0.3933   -0.8790 C   0  0  0  0  0  0  0  0  0  0  0  0
    6.8537   -0.4457   -2.2713 C   0  0  0  0  0  0  0  0  0  0  0  0
    5.6440   -0.5839   -2.9486 C   0  0  0  0  0  0  0  0  0  0  0  0
    4.4484   -0.6703   -2.2339 C   0  0  0  0  0  0  0  0  0  0  0  0
   -6.5155    2.1731    2.3537 H   0  0  0  0  0  0  0  0  0  0  0  0
   -6.3021    2.4277    0.6084 H   0  0  0  0  0  0  0  0  0  0  0  0
   -4.8979    2.3245    1.6627 H   0  0  0  0  0  0  0  0  0  0  0  0
   -5.0478   -1.4697    1.1758 H   0  0  0  0  0  0  0  0  0  0  0  0
   -3.0812   -0.8023    2.4466 H   0  0  0  0  0  0  0  0  0  0  0  0
   -3.3367    0.9107    2.1312 H   0  0  0  0  0  0  0  0  0  0  0  0
   -3.7971    0.5859   -0.9459 H   0  0  0  0  0  0  0  0  0  0  0  0
   -2.0860    0.7952   -1.3769 H   0  0  0  0  0  0  0  0  0  0  0  0
   -2.8183    1.8488   -0.1211 H   0  0  0  0  0  0  0  0  0  0  0  0
   -1.6467   -1.5830   -0.8795 H   0  0  0  0  0  0  0  0  0  0  0  0
   -2.0798   -2.2509    0.7299 H   0  0  0  0  0  0  0  0  0  0  0  0
   -3.3571   -1.8112   -0.4563 H   0  0  0  0  0  0  0  0  0  0  0  0
   -0.8148   -0.5034    1.9162 H   0  0  0  0  0  0  0  0  0  0  0  0
   -1.1275    1.2302    1.5563 H   0  0  0  0  0  0  0  0  0  0  0  0
    3.1891    1.3566    0.6398 H   0  0  0  0  0  0  0  0  0  0  0  0
    2.3214    1.1603   -0.8768 H   0  0  0  0  0  0  0  0  0  0  0  0
    2.4731   -1.3852   -0.5630 H   0  0  0  0  0  0  0  0  0  0  0  0
    3.3336   -1.1356    0.9251 H   0  0  0  0  0  0  0  0  0  0  0  0
    5.7108   -0.4364    0.9248 H   0  0  0  0  0  0  0  0  0  0  0  0
    7.8152   -0.2864   -0.3525 H   0  0  0  0  0  0  0  0  0  0  0  0
    7.7850   -0.3802   -2.8287 H   0  0  0  0  0  0  0  0  0  0  0  0
    5.6339   -0.6254   -4.0350 H   0  0  0  0  0  0  0  0  0  0  0  0
    3.5141   -0.7774   -2.7806 H   0  0  0  0  0  0  0  0  0  0  0  0
  1  2  1  0
  2  3  1  0
  2  4  2  3
  4  5  1  0
  5  6  1  0
  6  7  1  0
  6  8  1  0
  6  9  1  0
  9 10  1  0
 10 11  2  0
 10 12  1  0
 12 13  1  0
 13 14  1  0
 14 15  1  0
 15 16  2  0
 16 17  1  0
 17 18  2  0
 18 19  1  0
 19 20  2  0
 20 15  1  0
  1 21  1  0
  1 22  1  0
  1 23  1  0
  4 24  1  0
  5 25  1  0
  5 26  1  0
  7 27  1  0
  7 28  1  0
  7 29  1  0
  8 30  1  0
  8 31  1  0
  8 32  1  0
  9 33  1  0
  9 34  1  0
 13 35  1  0
 13 36  1  0
 14 37  1  0
 14 38  1  0
 16 39  1  0
 17 40  1  0
 18 41  1  0
 19 42  1  0
 20 43  1  0
M  CHG  1   6   1
M  END
$$$$
