
     RDKit          3D

 19 19  0  0  0  0  0  0  0  0999 V2000
   -2.8695   -0.1337   -1.8985 C   0  0  0  0  0  0  0  0  0  0  0  0
   -2.0649    0.2605   -0.6684 C   0  0  0  0  0  0  0  0  0  0  0  0
   -1.6275   -0.9730    0.1192 C   0  0  0  0  0  0  0  0  0  0  0  0
   -0.7012   -0.5180    1.6167 S   0  0  0  0  0  0  0  0  0  0  0  0
    0.8700   -0.1258    0.9553 C   0  0  0  0  0  0  0  0  0  0  0  0
    1.2064   -0.3655   -0.2926 N   0  0  0  0  0  0  0  0  0  0  0  0
    2.4992    0.0386   -0.5654 N   0  0  0  0  0  0  0  0  0  0  0  0
    3.0928    0.5601    0.4844 C   0  0  0  0  0  0  0  0  0  0  0  0
    4.3578    1.0235    0.4948 N   0  0  0  0  0  0  0  0  0  0  0  0
    2.1118    0.5899    1.8940 S   0  0  0  0  0  0  0  0  0  0  0  0
   -3.7703   -0.6886   -1.6173 H   0  0  0  0  0  0  0  0  0  0  0  0
   -2.2751   -0.7601   -2.5714 H   0  0  0  0  0  0  0  0  0  0  0  0
   -3.1793    0.7591   -2.4507 H   0  0  0  0  0  0  0  0  0  0  0  0
   -1.1969    0.8456   -0.9928 H   0  0  0  0  0  0  0  0  0  0  0  0
   -2.6820    0.9132   -0.0390 H   0  0  0  0  0  0  0  0  0  0  0  0
   -1.0382   -1.6562   -0.5016 H   0  0  0  0  0  0  0  0  0  0  0  0
   -2.5138   -1.5279    0.4463 H   0  0  0  0  0  0  0  0  0  0  0  0
    4.9412    0.7086   -0.2737 H   0  0  0  0  0  0  0  0  0  0  0  0
    4.8394    1.0494    1.3857 H   0  0  0  0  0  0  0  0  0  0  0  0
  1  2  1  0
  2  3  1  0
  3  4  1  0
  4  5  1  0
  5  6  2  0
  6  7  1  0
  7  8  2  0
  8  9  1  0
  8 10  1  0
 10  5  1  0
  1 11  1  0
  1 12  1  0
  1 13  1  0
  2 14  1  0
  2 15  1  0
  3 16  1  0
  3 17  1  0
  9 18  1  0
  9 19  1  0
M  END
$$$$
