
     RDKit          3D

 54 57  0  0  0  0  0  0  0  0999 V2000
    7.8760    0.3682    1.9024 C   0  0  0  0  0  0  0  0  0  0  0  0
    6.4784    0.9447    2.1410 C   0  0  0  0  0  0  0  0  0  0  0  0
    6.4981    2.4733    2.0638 C   0  0  0  0  0  0  0  0  0  0  0  0
    5.4599    0.3496    1.1856 C   0  0  0  0  0  0  0  0  0  0  0  0
    5.5553    0.5287   -0.2010 C   0  0  0  0  0  0  0  0  0  0  0  0
    4.6069   -0.0287   -1.0678 C   0  0  0  0  0  0  0  0  0  0  0  0
    3.5435   -0.7760   -0.5656 C   0  0  0  0  0  0  0  0  0  0  0  0
    2.5493   -1.3725   -1.3645 N   0  0  0  0  0  0  0  0  0  0  0  0
    2.3946   -1.2877   -2.7368 C   0  0  0  0  0  0  0  0  0  0  0  0
    3.1051   -0.6593   -3.5168 O   0  0  0  0  0  0  0  0  0  0  0  0
    1.1971   -2.0962   -3.2516 C   0  0  0  0  0  0  0  0  0  0  0  0
   -0.0684   -1.4791   -3.0049 O   0  0  0  0  0  0  0  0  0  0  0  0
   -0.5596   -1.6413   -1.7549 C   0  0  0  0  0  0  0  0  0  0  0  0
    0.0009   -2.2379   -0.8476 O   0  0  0  0  0  0  0  0  0  0  0  0
   -1.8858   -0.9833   -1.6125 C   0  0  0  0  0  0  0  0  0  0  0  0
   -2.4768   -0.2485   -2.6467 C   0  0  0  0  0  0  0  0  0  0  0  0
   -3.7279    0.3532   -2.4582 C   0  0  0  0  0  0  0  0  0  0  0  0
   -4.4117    0.2343   -1.2369 C   0  0  0  0  0  0  0  0  0  0  0  0
   -3.8136   -0.4969   -0.2213 C   0  0  0  0  0  0  0  0  0  0  0  0
   -2.5602   -1.1054   -0.3931 C   0  0  0  0  0  0  0  0  0  0  0  0
   -4.6120   -0.6881    1.3225 S   0  0  0  0  0  6  0  0  0  0  0  0
   -4.9505   -2.0928    1.4294 O   0  0  0  0  0  0  0  0  0  0  0  0
   -3.7687   -0.0263    2.2973 O   0  0  0  0  0  0  0  0  0  0  0  0
   -6.1228    0.1887    1.2923 C   0  0  0  0  0  0  0  0  0  0  0  0
   -6.9087    0.1879    2.4532 C   0  0  0  0  0  0  0  0  0  0  0  0
   -8.1206    0.8739    2.4663 C   0  0  0  0  0  0  0  0  0  0  0  0
   -8.5413    1.5545    1.3264 C   0  0  0  0  0  0  0  0  0  0  0  0
   -7.7491    1.5488    0.1745 C   0  0  0  0  0  0  0  0  0  0  0  0
   -6.5242    0.8620    0.1468 C   0  0  0  0  0  0  0  0  0  0  0  0
   -5.7311    0.8960   -1.1044 C   0  0  0  0  0  0  0  0  0  0  0  0
   -6.1824    1.4996   -2.0744 O   0  0  0  0  0  0  0  0  0  0  0  0
    3.4435   -0.9599    0.8176 C   0  0  0  0  0  0  0  0  0  0  0  0
    4.3899   -0.4034    1.6843 C   0  0  0  0  0  0  0  0  0  0  0  0
    8.5806    0.7446    2.6520 H   0  0  0  0  0  0  0  0  0  0  0  0
    8.2668    0.6359    0.9147 H   0  0  0  0  0  0  0  0  0  0  0  0
    7.8654   -0.7252    1.9718 H   0  0  0  0  0  0  0  0  0  0  0  0
    6.1911    0.6785    3.1671 H   0  0  0  0  0  0  0  0  0  0  0  0
    6.8328    2.8304    1.0837 H   0  0  0  0  0  0  0  0  0  0  0  0
    7.1761    2.8878    2.8176 H   0  0  0  0  0  0  0  0  0  0  0  0
    5.5001    2.8873    2.2470 H   0  0  0  0  0  0  0  0  0  0  0  0
    6.3722    1.1057   -0.6288 H   0  0  0  0  0  0  0  0  0  0  0  0
    4.7333    0.1407   -2.1323 H   0  0  0  0  0  0  0  0  0  0  0  0
    1.8232   -1.8852   -0.8621 H   0  0  0  0  0  0  0  0  0  0  0  0
    1.3020   -2.1957   -4.3377 H   0  0  0  0  0  0  0  0  0  0  0  0
    1.2289   -3.1153   -2.8461 H   0  0  0  0  0  0  0  0  0  0  0  0
   -1.9790   -0.1285   -3.6075 H   0  0  0  0  0  0  0  0  0  0  0  0
   -4.1651    0.9212   -3.2803 H   0  0  0  0  0  0  0  0  0  0  0  0
   -2.1160   -1.6731    0.4253 H   0  0  0  0  0  0  0  0  0  0  0  0
   -6.5795   -0.3452    3.3441 H   0  0  0  0  0  0  0  0  0  0  0  0
   -8.7369    0.8781    3.3629 H   0  0  0  0  0  0  0  0  0  0  0  0
   -9.4874    2.0919    1.3307 H   0  0  0  0  0  0  0  0  0  0  0  0
   -8.0986    2.0885   -0.7055 H   0  0  0  0  0  0  0  0  0  0  0  0
    2.6261   -1.5370    1.2430 H   0  0  0  0  0  0  0  0  0  0  0  0
    4.2812   -0.5652    2.7545 H   0  0  0  0  0  0  0  0  0  0  0  0
  1  2  1  0
  2  3  1  0
  2  4  1  0
  4  5  2  0
  5  6  1  0
  6  7  2  0
  7  8  1  0
  8  9  1  0
  9 10  2  0
  9 11  1  0
 11 12  1  0
 12 13  1  0
 13 14  2  0
 13 15  1  0
 15 16  2  0
 16 17  1  0
 17 18  2  0
 18 19  1  0
 19 20  2  0
 19 21  1  0
 21 22  2  0
 21 23  2  0
 21 24  1  0
 24 25  2  0
 25 26  1  0
 26 27  2  0
 27 28  1  0
 28 29  2  0
 29 30  1  0
 30 31  2  0
  7 32  1  0
 32 33  2  0
 33  4  1  0
 20 15  1  0
 29 24  1  0
 30 18  1  0
  1 34  1  0
  1 35  1  0
  1 36  1  0
  2 37  1  0
  3 38  1  0
  3 39  1  0
  3 40  1  0
  5 41  1  0
  6 42  1  0
  8 43  1  0
 11 44  1  0
 11 45  1  0
 16 46  1  0
 17 47  1  0
 20 48  1  0
 25 49  1  0
 26 50  1  0
 27 51  1  0
 28 52  1  0
 32 53  1  0
 33 54  1  0
M  END
$$$$
