
     RDKit          3D

 60 63  0  0  0  0  0  0  0  0999 V2000
    2.1121    2.6353   -3.7549 C   0  0  0  0  0  0  0  0  0  0  0  0
    2.7757    3.2215   -2.6435 O   0  0  0  0  0  0  0  0  0  0  0  0
    3.0971    2.3869   -1.6071 C   0  0  0  0  0  0  0  0  0  0  0  0
    3.6896    3.0211   -0.5141 C   0  0  0  0  0  0  0  0  0  0  0  0
    4.0838    2.2882    0.6078 C   0  0  0  0  0  0  0  0  0  0  0  0
    3.8923    0.9009    0.6528 C   0  0  0  0  0  0  0  0  0  0  0  0
    4.3364    0.0979    1.8505 C   0  0  0  0  0  0  0  0  0  0  0  0
    3.2127   -0.5726    2.4583 N   0  0  0  0  0  0  0  0  0  0  0  0
    3.1873   -1.9303    2.7106 C   0  0  0  0  0  0  0  0  0  0  0  0
    4.1583   -2.6549    2.5088 O   0  0  0  0  0  0  0  0  0  0  0  0
    1.8650   -2.4367    3.3184 C   0  0  0  0  0  0  0  0  0  0  0  0
    1.9713   -3.8880    3.7829 C   0  0  0  0  0  0  0  0  0  0  0  0
    0.7741   -2.2105    2.3538 N   0  0  0  0  0  0  0  0  0  0  0  0
    0.5068   -3.2413    1.4423 N   0  0  0  0  0  0  0  0  0  0  0  0
   -0.3988   -3.1116    0.5129 C   0  0  0  0  0  0  0  0  0  0  0  0
   -0.6274   -4.2614   -0.4259 C   0  0  0  0  0  0  0  0  0  0  0  0
   -1.1470   -1.8840    0.4224 C   0  0  0  0  0  0  0  0  0  0  0  0
   -2.1926   -1.4422   -0.3746 C   0  0  0  0  0  0  0  0  0  0  0  0
   -3.0090   -2.1871   -1.3689 C   0  0  0  0  0  0  0  0  0  0  0  0
   -2.3941   -0.1030   -0.0159 N   0  0  0  0  0  0  0  0  0  0  0  0
   -3.1885    0.9142   -0.6277 C   0  0  0  0  0  0  0  0  0  0  0  0
   -3.6151    0.8337   -1.9575 C   0  0  0  0  0  0  0  0  0  0  0  0
   -4.3790    1.8650   -2.5179 C   0  0  0  0  0  0  0  0  0  0  0  0
   -4.7095    3.0017   -1.7703 C   0  0  0  0  0  0  0  0  0  0  0  0
   -5.5467    4.0894   -2.3774 C   0  0  0  0  0  0  0  0  0  0  0  0
   -4.2753    3.0914   -0.4465 C   0  0  0  0  0  0  0  0  0  0  0  0
   -3.5095    2.0623    0.1166 C   0  0  0  0  0  0  0  0  0  0  0  0
   -1.6773    0.2126    1.0974 N   0  0  0  0  0  0  0  0  0  0  0  0
   -0.8794   -0.8348    1.3070 C   0  0  0  0  0  0  0  0  0  0  0  0
    0.1519   -0.9428    2.3273 C   0  0  0  0  0  0  0  0  0  0  0  0
    0.4767   -0.0229    3.0779 O   0  0  0  0  0  0  0  0  0  0  0  0
    3.2959    0.2691   -0.4476 C   0  0  0  0  0  0  0  0  0  0  0  0
    2.8977    1.0050   -1.5682 C   0  0  0  0  0  0  0  0  0  0  0  0
    1.9154    3.4327   -4.4807 H   0  0  0  0  0  0  0  0  0  0  0  0
    2.7519    1.8979   -4.2483 H   0  0  0  0  0  0  0  0  0  0  0  0
    1.1519    2.1968   -3.4613 H   0  0  0  0  0  0  0  0  0  0  0  0
    3.8542    4.0968   -0.5376 H   0  0  0  0  0  0  0  0  0  0  0  0
    4.5453    2.8124    1.4413 H   0  0  0  0  0  0  0  0  0  0  0  0
    4.7558    0.7581    2.6168 H   0  0  0  0  0  0  0  0  0  0  0  0
    5.1222   -0.6030    1.5535 H   0  0  0  0  0  0  0  0  0  0  0  0
    2.4283    0.0059    2.7500 H   0  0  0  0  0  0  0  0  0  0  0  0
    1.6716   -1.8235    4.2090 H   0  0  0  0  0  0  0  0  0  0  0  0
    2.2330   -4.5680    2.9629 H   0  0  0  0  0  0  0  0  0  0  0  0
    2.7472   -3.9907    4.5494 H   0  0  0  0  0  0  0  0  0  0  0  0
    1.0236   -4.2307    4.2115 H   0  0  0  0  0  0  0  0  0  0  0  0
   -0.7097   -3.9050   -1.4559 H   0  0  0  0  0  0  0  0  0  0  0  0
   -1.5502   -4.7789   -0.1453 H   0  0  0  0  0  0  0  0  0  0  0  0
    0.2033   -4.9683   -0.3659 H   0  0  0  0  0  0  0  0  0  0  0  0
   -2.5437   -2.1469   -2.3583 H   0  0  0  0  0  0  0  0  0  0  0  0
   -3.0920   -3.2430   -1.0897 H   0  0  0  0  0  0  0  0  0  0  0  0
   -4.0364   -1.8168   -1.4255 H   0  0  0  0  0  0  0  0  0  0  0  0
   -3.3301    0.0165   -2.6113 H   0  0  0  0  0  0  0  0  0  0  0  0
   -4.7001    1.7858   -3.5541 H   0  0  0  0  0  0  0  0  0  0  0  0
   -6.5992    3.7860   -2.3922 H   0  0  0  0  0  0  0  0  0  0  0  0
   -5.2216    4.2994   -3.4013 H   0  0  0  0  0  0  0  0  0  0  0  0
   -5.4590    5.0195   -1.8109 H   0  0  0  0  0  0  0  0  0  0  0  0
   -4.5110    3.9656    0.1575 H   0  0  0  0  0  0  0  0  0  0  0  0
   -3.1823    2.1706    1.1493 H   0  0  0  0  0  0  0  0  0  0  0  0
    3.1500   -0.8113   -0.4345 H   0  0  0  0  0  0  0  0  0  0  0  0
    2.4462    0.4698   -2.3952 H   0  0  0  0  0  0  0  0  0  0  0  0
  1  2  1  0
  2  3  1  0
  3  4  2  0
  4  5  1  0
  5  6  2  0
  6  7  1  0
  7  8  1  0
  8  9  1  0
  9 10  2  0
  9 11  1  0
 11 12  1  0
 11 13  1  0
 13 14  1  0
 14 15  2  0
 15 16  1  0
 15 17  1  0
 17 18  2  0
 18 19  1  0
 18 20  1  0
 20 21  1  0
 21 22  2  0
 22 23  1  0
 23 24  2  0
 24 25  1  0
 24 26  1  0
 26 27  2  0
 20 28  1  0
 28 29  2  0
 29 30  1  0
 30 31  2  0
  6 32  1  0
 32 33  2  0
 33  3  1  0
 30 13  1  0
 29 17  1  0
 27 21  1  0
  1 34  1  0
  1 35  1  0
  1 36  1  0
  4 37  1  0
  5 38  1  0
  7 39  1  0
  7 40  1  0
  8 41  1  0
 11 42  1  0
 12 43  1  0
 12 44  1  0
 12 45  1  0
 16 46  1  0
 16 47  1  0
 16 48  1  0
 19 49  1  0
 19 50  1  0
 19 51  1  0
 22 52  1  0
 23 53  1  0
 25 54  1  0
 25 55  1  0
 25 56  1  0
 26 57  1  0
 27 58  1  0
 32 59  1  0
 33 60  1  0
M  END
$$$$
