
     RDKit          3D

 55 58  0  0  0  0  0  0  0  0999 V2000
    4.7513   -1.9695    1.1606 C   0  0  0  0  0  0  0  0  0  0  0  0
    3.5075   -2.3761    0.5560 N   0  0  0  0  0  0  0  0  0  0  0  0
    3.1401   -2.2115   -0.7627 C   0  0  0  0  0  0  0  0  0  0  0  0
    3.9644   -1.5529   -1.8198 C   0  0  0  0  0  0  0  0  0  0  0  0
    4.2654   -0.0953   -1.5507 C   0  0  0  0  0  0  0  0  0  0  0  0
    3.2276    0.8373   -1.4026 C   0  0  0  0  0  0  0  0  0  0  0  0
    3.5128    2.1802   -1.1566 C   0  0  0  0  0  0  0  0  0  0  0  0
    4.8363    2.6047   -1.0605 C   0  0  0  0  0  0  0  0  0  0  0  0
    5.8756    1.6907   -1.2144 C   0  0  0  0  0  0  0  0  0  0  0  0
    5.5937    0.3478   -1.4622 C   0  0  0  0  0  0  0  0  0  0  0  0
    1.9546   -2.7609   -0.9441 N   0  0  0  0  0  0  0  0  0  0  0  0
    1.5161   -3.2390    0.2601 N   0  0  0  0  0  0  0  0  0  0  0  0
    2.4487   -2.9973    1.1522 C   0  0  0  0  0  0  0  0  0  0  0  0
    2.3410   -3.3287    2.8433 S   0  0  0  0  0  0  0  0  0  0  0  0
    0.5892   -3.7734    3.0026 C   0  0  0  0  0  0  0  0  0  0  0  0
   -0.3018   -2.5407    2.9254 C   0  0  0  0  0  0  0  0  0  0  0  0
   -0.6164   -1.9294    3.9436 O   0  0  0  0  0  0  0  0  0  0  0  0
   -0.7067   -2.2455    1.6371 N   0  0  0  0  0  0  0  0  0  0  0  0
   -1.5977   -1.2435    1.2144 C   0  0  0  0  0  0  0  0  0  0  0  0
   -1.9160   -1.2115   -0.1417 C   0  0  0  0  0  0  0  0  0  0  0  0
   -2.8382   -0.2797   -0.6383 C   0  0  0  0  0  0  0  0  0  0  0  0
   -3.4455    0.6796    0.1855 C   0  0  0  0  0  0  0  0  0  0  0  0
   -4.3907    1.5741   -0.3408 N   0  0  0  0  0  0  0  0  0  0  0  0
   -3.9733    2.2936   -1.5709 C   0  0  0  0  0  0  0  0  0  0  0  0
   -5.1799    3.0100   -2.2002 C   0  0  0  0  0  0  0  0  0  0  0  0
   -5.8088    3.9062   -1.2746 O   0  0  0  0  0  0  0  0  0  0  0  0
   -6.2687    3.1768   -0.1274 C   0  0  0  0  0  0  0  0  0  0  0  0
   -5.1146    2.4623    0.5960 C   0  0  0  0  0  0  0  0  0  0  0  0
   -3.0999    0.6324    1.5457 C   0  0  0  0  0  0  0  0  0  0  0  0
   -2.1943   -0.3133    2.0562 C   0  0  0  0  0  0  0  0  0  0  0  0
    4.9637   -2.5667    2.0456 H   0  0  0  0  0  0  0  0  0  0  0  0
    5.5656   -2.1227    0.4504 H   0  0  0  0  0  0  0  0  0  0  0  0
    4.6668   -0.9156    1.4265 H   0  0  0  0  0  0  0  0  0  0  0  0
    4.8958   -2.1191   -1.9448 H   0  0  0  0  0  0  0  0  0  0  0  0
    3.4435   -1.6184   -2.7834 H   0  0  0  0  0  0  0  0  0  0  0  0
    2.1860    0.5265   -1.4788 H   0  0  0  0  0  0  0  0  0  0  0  0
    2.7043    2.8980   -1.0376 H   0  0  0  0  0  0  0  0  0  0  0  0
    5.0557    3.6545   -0.8757 H   0  0  0  0  0  0  0  0  0  0  0  0
    6.9072    2.0274   -1.1482 H   0  0  0  0  0  0  0  0  0  0  0  0
    6.4217   -0.3454   -1.5858 H   0  0  0  0  0  0  0  0  0  0  0  0
    0.2957   -4.5147    2.2525 H   0  0  0  0  0  0  0  0  0  0  0  0
    0.4337   -4.2405    3.9799 H   0  0  0  0  0  0  0  0  0  0  0  0
   -0.2396   -2.7547    0.8875 H   0  0  0  0  0  0  0  0  0  0  0  0
   -1.4861   -1.9363   -0.8301 H   0  0  0  0  0  0  0  0  0  0  0  0
   -3.1118   -0.3559   -1.6874 H   0  0  0  0  0  0  0  0  0  0  0  0
   -3.5553    1.6241   -2.3281 H   0  0  0  0  0  0  0  0  0  0  0  0
   -3.2068    3.0328   -1.3082 H   0  0  0  0  0  0  0  0  0  0  0  0
   -4.8523    3.6020   -3.0617 H   0  0  0  0  0  0  0  0  0  0  0  0
   -5.9228    2.2862   -2.5556 H   0  0  0  0  0  0  0  0  0  0  0  0
   -7.0390    2.4584   -0.4375 H   0  0  0  0  0  0  0  0  0  0  0  0
   -6.7409    3.8939    0.5518 H   0  0  0  0  0  0  0  0  0  0  0  0
   -4.4214    3.2139    0.9942 H   0  0  0  0  0  0  0  0  0  0  0  0
   -5.5442    1.8891    1.4270 H   0  0  0  0  0  0  0  0  0  0  0  0
   -3.5188    1.3371    2.2581 H   0  0  0  0  0  0  0  0  0  0  0  0
   -1.9725   -0.2817    3.1203 H   0  0  0  0  0  0  0  0  0  0  0  0
  1  2  1  0
  2  3  1  0
  3  4  1  0
  4  5  1  0
  5  6  2  0
  6  7  1  0
  7  8  2  0
  8  9  1  0
  9 10  2  0
  3 11  2  0
 11 12  1  0
 12 13  2  0
 13 14  1  0
 14 15  1  0
 15 16  1  0
 16 17  2  0
 16 18  1  0
 18 19  1  0
 19 20  2  0
 20 21  1  0
 21 22  2  0
 22 23  1  0
 23 24  1  0
 24 25  1  0
 25 26  1  0
 26 27  1  0
 27 28  1  0
 22 29  1  0
 29 30  2  0
 13  2  1  0
 30 19  1  0
 10  5  1  0
 28 23  1  0
  1 31  1  0
  1 32  1  0
  1 33  1  0
  4 34  1  0
  4 35  1  0
  6 36  1  0
  7 37  1  0
  8 38  1  0
  9 39  1  0
 10 40  1  0
 15 41  1  0
 15 42  1  0
 18 43  1  0
 20 44  1  0
 21 45  1  0
 24 46  1  0
 24 47  1  0
 25 48  1  0
 25 49  1  0
 27 50  1  0
 27 51  1  0
 28 52  1  0
 28 53  1  0
 29 54  1  0
 30 55  1  0
M  END
$$$$
