
     RDKit          3D

 45 47  0  0  0  0  0  0  0  0999 V2000
   -4.1297    0.7775    1.8081 O   0  0  0  0  0  0  0  0  0  0  0  0
   -3.3302    0.6061    0.8878 C   0  0  0  0  0  0  0  0  0  0  0  0
   -3.7705    0.4198   -0.5596 C   0  0  0  0  0  0  0  0  0  0  0  0
   -5.2519    0.6117   -0.7938 C   0  0  0  0  0  0  0  0  0  0  0  0
   -5.7813    1.9005   -0.9637 C   0  0  0  0  0  0  0  0  0  0  0  0
   -7.1511    2.0804   -1.1663 C   0  0  0  0  0  0  0  0  0  0  0  0
   -7.9977    0.9747   -1.1994 C   0  0  0  0  0  0  0  0  0  0  0  0
   -9.6852    1.1971   -1.4518 Cl  0  0  0  0  0  0  0  0  0  0  0  0
   -7.4873   -0.3101   -1.0270 C   0  0  0  0  0  0  0  0  0  0  0  0
   -6.1179   -0.4915   -0.8204 C   0  0  0  0  0  0  0  0  0  0  0  0
   -1.8873    0.5638    1.1576 C   0  0  0  0  0  0  0  0  0  0  0  0
   -1.3154    0.7497    2.4017 C   0  0  0  0  0  0  0  0  0  0  0  0
    0.0429    0.6375    2.2853 N   0  0  0  0  0  0  0  0  0  0  0  0
    0.3892    0.3989    0.9746 C   0  0  0  0  0  0  0  0  0  0  0  0
    1.7295    0.2135    0.4574 C   0  0  0  0  0  0  0  0  0  0  0  0
    1.9557   -0.3213   -0.6229 O   0  0  0  0  0  0  0  0  0  0  0  0
    2.7386    0.6992    1.2620 N   0  0  0  0  0  0  0  0  0  0  0  0
    4.1307    0.6874    0.8454 C   0  0  0  0  0  0  0  0  0  0  0  0
    4.8712   -0.5611    1.3273 C   0  0  0  0  0  0  0  0  0  0  0  0
    4.7093   -1.7809    0.4180 C   0  0  0  0  0  0  0  0  0  0  0  0
    5.4113   -1.6560   -0.8428 N   0  0  0  0  0  0  0  0  0  0  0  0
    6.7615   -1.7726   -1.0269 C   0  0  0  0  0  0  0  0  0  0  0  0
    6.9507   -1.6015   -2.3782 C   0  0  0  0  0  0  0  0  0  0  0  0
    5.7544   -1.3957   -3.0143 N   0  0  0  0  0  0  0  0  0  0  0  0
    4.8434   -1.4456   -2.0678 C   0  0  0  0  0  0  0  0  0  0  0  0
   -0.8023    0.3282    0.2660 C   0  0  0  0  0  0  0  0  0  0  0  0
   -3.4778   -0.5871   -0.8816 H   0  0  0  0  0  0  0  0  0  0  0  0
   -3.2255    1.1326   -1.1897 H   0  0  0  0  0  0  0  0  0  0  0  0
   -5.1319    2.7734   -0.9310 H   0  0  0  0  0  0  0  0  0  0  0  0
   -7.5501    3.0829   -1.2912 H   0  0  0  0  0  0  0  0  0  0  0  0
   -8.1486   -1.1722   -1.0463 H   0  0  0  0  0  0  0  0  0  0  0  0
   -5.7353   -1.5001   -0.6735 H   0  0  0  0  0  0  0  0  0  0  0  0
   -1.7774    0.9432    3.3628 H   0  0  0  0  0  0  0  0  0  0  0  0
    0.6906    0.6786    3.0609 H   0  0  0  0  0  0  0  0  0  0  0  0
    2.4916    1.3459    1.9948 H   0  0  0  0  0  0  0  0  0  0  0  0
    4.5847    1.5704    1.3089 H   0  0  0  0  0  0  0  0  0  0  0  0
    4.1986    0.8171   -0.2391 H   0  0  0  0  0  0  0  0  0  0  0  0
    4.5255   -0.8270    2.3346 H   0  0  0  0  0  0  0  0  0  0  0  0
    5.9373   -0.3207    1.4135 H   0  0  0  0  0  0  0  0  0  0  0  0
    5.1287   -2.6644    0.9156 H   0  0  0  0  0  0  0  0  0  0  0  0
    3.6585   -2.0045    0.2106 H   0  0  0  0  0  0  0  0  0  0  0  0
    7.4520   -1.9582   -0.2174 H   0  0  0  0  0  0  0  0  0  0  0  0
    7.8830   -1.6182   -2.9277 H   0  0  0  0  0  0  0  0  0  0  0  0
    3.7759   -1.3314   -2.2130 H   0  0  0  0  0  0  0  0  0  0  0  0
   -0.8600    0.1298   -0.7981 H   0  0  0  0  0  0  0  0  0  0  0  0
  1  2  2  0
  2  3  1  0
  3  4  1  0
  4  5  2  0
  5  6  1  0
  6  7  2  0
  7  8  1  0
  7  9  1  0
  9 10  2  0
  2 11  1  0
 11 12  2  0
 12 13  1  0
 13 14  1  0
 14 15  1  0
 15 16  2  0
 15 17  1  0
 17 18  1  0
 18 19  1  0
 19 20  1  0
 20 21  1  0
 21 22  1  0
 22 23  2  0
 23 24  1  0
 24 25  2  0
 14 26  2  0
 10  4  1  0
 26 11  1  0
 25 21  1  0
  3 27  1  0
  3 28  1  0
  5 29  1  0
  6 30  1  0
  9 31  1  0
 10 32  1  0
 12 33  1  0
 13 34  1  0
 17 35  1  0
 18 36  1  0
 18 37  1  0
 19 38  1  0
 19 39  1  0
 20 40  1  0
 20 41  1  0
 22 42  1  0
 23 43  1  0
 25 44  1  0
 26 45  1  0
M  END
$$$$
