
     RDKit          3D

 43 46  0  0  0  0  0  0  0  0999 V2000
    6.4276    2.1294    0.4109 C   0  0  0  0  0  0  0  0  0  0  0  0
    5.0305    1.5803    0.4323 C   0  0  0  0  0  0  0  0  0  0  0  0
    4.1342    1.9549    1.4370 C   0  0  0  0  0  0  0  0  0  0  0  0
    2.8429    1.4199    1.4723 C   0  0  0  0  0  0  0  0  0  0  0  0
    2.4377    0.4904    0.5074 C   0  0  0  0  0  0  0  0  0  0  0  0
    0.9841   -0.1031    0.5547 C   0  0  0  0  0  0  0  0  0  0  0  0
   -0.0209    0.2474    1.4492 C   0  0  0  0  0  0  0  0  0  0  0  0
   -1.1773   -0.4723    1.1411 N   0  0  0  0  0  4  0  0  0  0  0  0
   -2.4595   -0.4053    1.8373 C   0  0  0  0  0  0  0  0  0  0  0  0
   -3.5339    0.0377    0.8754 C   0  0  0  0  0  0  0  0  0  0  0  0
   -4.7079   -0.7133    0.7233 C   0  0  0  0  0  0  0  0  0  0  0  0
   -5.7036   -0.3013   -0.1684 C   0  0  0  0  0  0  0  0  0  0  0  0
   -5.5451    0.8682   -0.9170 C   0  0  0  0  0  0  0  0  0  0  0  0
   -6.8086    1.3047   -2.0073 Cl  0  0  0  0  0  0  0  0  0  0  0  0
   -4.3862    1.6329   -0.7645 C   0  0  0  0  0  0  0  0  0  0  0  0
   -4.1060    3.0863   -1.6526 Cl  0  0  0  0  0  0  0  0  0  0  0  0
   -3.3915    1.2217    0.1317 C   0  0  0  0  0  0  0  0  0  0  0  0
   -0.8873   -1.2582    0.1087 C   0  0  0  0  0  0  0  0  0  0  0  0
    0.3812   -1.0634   -0.2378 N   0  0  0  0  0  0  0  0  0  0  0  0
    0.7748   -1.9088   -1.3564 C   0  0  0  0  0  0  0  0  0  0  0  0
   -0.3923   -2.9285   -1.4680 C   0  0  0  0  0  0  0  0  0  0  0  0
   -1.5734   -2.2688   -0.7293 C   0  0  0  0  0  0  0  0  0  0  0  0
    3.3331    0.1069   -0.4912 C   0  0  0  0  0  0  0  0  0  0  0  0
    4.6238    0.6446   -0.5236 C   0  0  0  0  0  0  0  0  0  0  0  0
    6.7814    2.2498   -0.6190 H   0  0  0  0  0  0  0  0  0  0  0  0
    6.4693    3.1156    0.8862 H   0  0  0  0  0  0  0  0  0  0  0  0
    7.1038    1.4525    0.9430 H   0  0  0  0  0  0  0  0  0  0  0  0
    4.4385    2.6703    2.1998 H   0  0  0  0  0  0  0  0  0  0  0  0
    2.1855    1.7485    2.2718 H   0  0  0  0  0  0  0  0  0  0  0  0
   -0.0655    0.9428    2.2704 H   0  0  0  0  0  0  0  0  0  0  0  0
   -2.6675   -1.4012    2.2439 H   0  0  0  0  0  0  0  0  0  0  0  0
   -2.3963    0.2990    2.6739 H   0  0  0  0  0  0  0  0  0  0  0  0
   -4.8704   -1.6255    1.2970 H   0  0  0  0  0  0  0  0  0  0  0  0
   -6.6098   -0.8964   -0.2738 H   0  0  0  0  0  0  0  0  0  0  0  0
   -2.4978    1.8333    0.2444 H   0  0  0  0  0  0  0  0  0  0  0  0
    0.8480   -1.2914   -2.2563 H   0  0  0  0  0  0  0  0  0  0  0  0
    1.7196   -2.4170   -1.1515 H   0  0  0  0  0  0  0  0  0  0  0  0
   -0.6289   -3.1905   -2.5026 H   0  0  0  0  0  0  0  0  0  0  0  0
   -0.1111   -3.8493   -0.9433 H   0  0  0  0  0  0  0  0  0  0  0  0
   -2.2335   -1.7219   -1.4055 H   0  0  0  0  0  0  0  0  0  0  0  0
   -2.1218   -2.9556   -0.0838 H   0  0  0  0  0  0  0  0  0  0  0  0
    3.0655   -0.5970   -1.2680 H   0  0  0  0  0  0  0  0  0  0  0  0
    5.3145    0.3318   -1.3058 H   0  0  0  0  0  0  0  0  0  0  0  0
  1  2  1  0
  2  3  2  0
  3  4  1  0
  4  5  2  0
  5  6  1  0
  6  7  2  0
  7  8  1  0
  8  9  1  0
  9 10  1  0
 10 11  2  0
 11 12  1  0
 12 13  2  0
 13 14  1  0
 13 15  1  0
 15 16  1  0
 15 17  2  0
  8 18  2  0
 18 19  1  0
 19 20  1  0
 20 21  1  0
 21 22  1  0
  5 23  1  0
 23 24  2  0
 24  2  1  0
 19  6  1  0
 17 10  1  0
 22 18  1  0
  1 25  1  0
  1 26  1  0
  1 27  1  0
  3 28  1  0
  4 29  1  0
  7 30  1  0
  9 31  1  0
  9 32  1  0
 11 33  1  0
 12 34  1  0
 17 35  1  0
 20 36  1  0
 20 37  1  0
 21 38  1  0
 21 39  1  0
 22 40  1  0
 22 41  1  0
 23 42  1  0
 24 43  1  0
M  CHG  1   8   1
M  END
$$$$
