
     RDKit          3D

 47 49  0  0  0  0  0  0  0  0999 V2000
   -2.6918   -3.5286   -0.0138 O   0  0  0  0  0  0  0  0  0  0  0  0
   -3.0320   -2.3488   -0.0130 C   0  0  0  0  0  0  0  0  0  0  0  0
   -4.5118   -1.9683   -0.1328 C   0  0  0  0  0  0  0  0  0  0  0  0
   -4.6876   -0.5523   -0.1294 O   0  0  0  0  0  0  0  0  0  0  0  0
   -5.9702   -0.0885   -0.2307 C   0  0  0  0  0  0  0  0  0  0  0  0
   -6.0886    1.3050   -0.2212 C   0  0  0  0  0  0  0  0  0  0  0  0
   -7.3415    1.9146   -0.3181 C   0  0  0  0  0  0  0  0  0  0  0  0
   -8.4826    1.1250   -0.4251 C   0  0  0  0  0  0  0  0  0  0  0  0
  -10.1819    1.9409   -0.5568 Br  0  0  0  0  0  0  0  0  0  0  0  0
   -8.3781   -0.2643   -0.4357 C   0  0  0  0  0  0  0  0  0  0  0  0
   -7.1210   -0.8719   -0.3385 C   0  0  0  0  0  0  0  0  0  0  0  0
   -2.1990   -1.2495    0.0885 N   0  0  0  0  0  0  0  0  0  0  0  0
   -0.7991   -1.2258    0.2168 C   0  0  0  0  0  0  0  0  0  0  0  0
   -0.0022   -2.3693    0.2798 C   0  0  0  0  0  0  0  0  0  0  0  0
    1.3880   -2.2588    0.4079 C   0  0  0  0  0  0  0  0  0  0  0  0
    2.0002   -1.0020    0.4640 C   0  0  0  0  0  0  0  0  0  0  0  0
    3.4862   -0.9393    0.6027 C   0  0  0  0  0  0  0  0  0  0  0  0
    4.0536   -1.8575    1.1826 O   0  0  0  0  0  0  0  0  0  0  0  0
    4.0841    0.1619    0.0210 N   0  0  0  0  0  0  0  0  0  0  0  0
    5.4585    0.5175    0.0098 C   0  0  0  0  0  0  0  0  0  0  0  0
    6.4278   -0.2346    0.6853 C   0  0  0  0  0  0  0  0  0  0  0  0
    7.7765    0.1351    0.6588 C   0  0  0  0  0  0  0  0  0  0  0  0
    8.1810    1.2655   -0.0415 C   0  0  0  0  0  0  0  0  0  0  0  0
    7.2348    2.0333   -0.7170 C   0  0  0  0  0  0  0  0  0  0  0  0
    5.8756    1.6713   -0.6970 C   0  0  0  0  0  0  0  0  0  0  0  0
    4.8817    2.5147   -1.4177 C   0  0  0  0  0  0  0  0  0  0  0  0
    3.6748    2.3349   -1.4301 O   0  0  0  0  0  0  0  0  0  0  0  0
    5.4339    3.5396   -2.0911 O   0  0  0  0  0  0  0  0  0  0  0  0
    1.2034    0.1472    0.4181 C   0  0  0  0  0  0  0  0  0  0  0  0
   -0.1861    0.0316    0.2914 C   0  0  0  0  0  0  0  0  0  0  0  0
   -5.0267   -2.4145    0.7258 H   0  0  0  0  0  0  0  0  0  0  0  0
   -4.8745   -2.3905   -1.0771 H   0  0  0  0  0  0  0  0  0  0  0  0
   -5.1991    1.9245   -0.1376 H   0  0  0  0  0  0  0  0  0  0  0  0
   -7.4137    2.9988   -0.3089 H   0  0  0  0  0  0  0  0  0  0  0  0
   -9.2671   -0.8847   -0.5191 H   0  0  0  0  0  0  0  0  0  0  0  0
   -7.0819   -1.9565   -0.3503 H   0  0  0  0  0  0  0  0  0  0  0  0
   -2.6786   -0.3540    0.0611 H   0  0  0  0  0  0  0  0  0  0  0  0
   -0.4280   -3.3672    0.2364 H   0  0  0  0  0  0  0  0  0  0  0  0
    1.9911   -3.1638    0.4612 H   0  0  0  0  0  0  0  0  0  0  0  0
    3.4829    0.7798   -0.5240 H   0  0  0  0  0  0  0  0  0  0  0  0
    6.1673   -1.1245    1.2506 H   0  0  0  0  0  0  0  0  0  0  0  0
    8.5087   -0.4686    1.1907 H   0  0  0  0  0  0  0  0  0  0  0  0
    9.2303    1.5494   -0.0600 H   0  0  0  0  0  0  0  0  0  0  0  0
    7.5693    2.9165   -1.2565 H   0  0  0  0  0  0  0  0  0  0  0  0
    4.6775    3.9948   -2.5166 H   0  0  0  0  0  0  0  0  0  0  0  0
    1.6370    1.1403    0.5022 H   0  0  0  0  0  0  0  0  0  0  0  0
   -0.7810    0.9414    0.2583 H   0  0  0  0  0  0  0  0  0  0  0  0
  1  2  2  0
  2  3  1  0
  3  4  1  0
  4  5  1  0
  5  6  2  0
  6  7  1  0
  7  8  2  0
  8  9  1  0
  8 10  1  0
 10 11  2  0
  2 12  1  0
 12 13  1  0
 13 14  2  0
 14 15  1  0
 15 16  2  0
 16 17  1  0
 17 18  2  0
 17 19  1  0
 19 20  1  0
 20 21  2  0
 21 22  1  0
 22 23  2  0
 23 24  1  0
 24 25  2  0
 25 26  1  0
 26 27  2  0
 26 28  1  0
 16 29  1  0
 29 30  2  0
 11  5  1  0
 30 13  1  0
 25 20  1  0
  3 31  1  0
  3 32  1  0
  6 33  1  0
  7 34  1  0
 10 35  1  0
 11 36  1  0
 12 37  1  0
 14 38  1  0
 15 39  1  0
 19 40  1  0
 21 41  1  0
 22 42  1  0
 23 43  1  0
 24 44  1  0
 28 45  1  0
 29 46  1  0
 30 47  1  0
M  END
$$$$
