
     RDKit          3D

 37 38  0  0  0  0  0  0  0  0999 V2000
   -5.2355    1.0812   -1.9923 C   0  0  0  0  0  0  0  0  0  0  0  0
   -4.7387    0.2538   -0.9506 O   0  0  0  0  0  0  0  0  0  0  0  0
   -3.4616    0.4840   -0.5033 C   0  0  0  0  0  0  0  0  0  0  0  0
   -2.6176    1.4822   -1.0028 C   0  0  0  0  0  0  0  0  0  0  0  0
   -1.3280    1.6426   -0.4872 C   0  0  0  0  0  0  0  0  0  0  0  0
   -0.8705    0.7979    0.5282 C   0  0  0  0  0  0  0  0  0  0  0  0
    0.4951    0.9299    1.1070 C   0  0  0  0  0  0  0  0  0  0  0  0
    0.7099    0.5743    2.2602 O   0  0  0  0  0  0  0  0  0  0  0  0
    1.4699    1.4256    0.2671 N   0  0  0  0  0  0  0  0  0  0  0  0
    2.8551    1.4804    0.6766 C   0  0  0  0  0  0  0  0  0  0  0  0
    3.6055    0.2646    0.1943 C   0  0  0  0  0  0  0  0  0  0  0  0
    3.5645   -0.9285    0.9289 C   0  0  0  0  0  0  0  0  0  0  0  0
    4.2366   -2.0658    0.4752 C   0  0  0  0  0  0  0  0  0  0  0  0
    4.9536   -2.0271   -0.7230 C   0  0  0  0  0  0  0  0  0  0  0  0
    5.7598   -3.4698   -1.2264 Cl  0  0  0  0  0  0  0  0  0  0  0  0
    4.9943   -0.8447   -1.4691 C   0  0  0  0  0  0  0  0  0  0  0  0
    5.8525   -0.7207   -2.9643 Cl  0  0  0  0  0  0  0  0  0  0  0  0
    4.3202    0.2942   -1.0123 C   0  0  0  0  0  0  0  0  0  0  0  0
   -1.7167   -0.1916    1.0455 C   0  0  0  0  0  0  0  0  0  0  0  0
   -3.0087   -0.3566    0.5350 C   0  0  0  0  0  0  0  0  0  0  0  0
   -3.8991   -1.3056    0.9738 O   0  0  0  0  0  0  0  0  0  0  0  0
   -3.5129   -2.1110    2.0789 C   0  0  0  0  0  0  0  0  0  0  0  0
   -5.2846    2.1282   -1.6756 H   0  0  0  0  0  0  0  0  0  0  0  0
   -6.2548    0.7555   -2.2211 H   0  0  0  0  0  0  0  0  0  0  0  0
   -4.6389    0.9702   -2.9038 H   0  0  0  0  0  0  0  0  0  0  0  0
   -2.9381    2.1585   -1.7885 H   0  0  0  0  0  0  0  0  0  0  0  0
   -0.7082    2.4477   -0.8713 H   0  0  0  0  0  0  0  0  0  0  0  0
    1.2816    1.4745   -0.7239 H   0  0  0  0  0  0  0  0  0  0  0  0
    3.2862    2.3900    0.2439 H   0  0  0  0  0  0  0  0  0  0  0  0
    2.9354    1.5710    1.7658 H   0  0  0  0  0  0  0  0  0  0  0  0
    2.9996   -0.9765    1.8604 H   0  0  0  0  0  0  0  0  0  0  0  0
    4.1923   -2.9806    1.0619 H   0  0  0  0  0  0  0  0  0  0  0  0
    4.3543    1.2090   -1.6003 H   0  0  0  0  0  0  0  0  0  0  0  0
   -1.3385   -0.8236    1.8433 H   0  0  0  0  0  0  0  0  0  0  0  0
   -4.3506   -2.7730    2.3188 H   0  0  0  0  0  0  0  0  0  0  0  0
   -3.3093   -1.4991    2.9639 H   0  0  0  0  0  0  0  0  0  0  0  0
   -2.6542   -2.7411    1.8255 H   0  0  0  0  0  0  0  0  0  0  0  0
  1  2  1  0
  2  3  1  0
  3  4  2  0
  4  5  1  0
  5  6  2  0
  6  7  1  0
  7  8  2  0
  7  9  1  0
  9 10  1  0
 10 11  1  0
 11 12  2  0
 12 13  1  0
 13 14  2  0
 14 15  1  0
 14 16  1  0
 16 17  1  0
 16 18  2  0
  6 19  1  0
 19 20  2  0
 20 21  1  0
 21 22  1  0
 20  3  1  0
 18 11  1  0
  1 23  1  0
  1 24  1  0
  1 25  1  0
  4 26  1  0
  5 27  1  0
  9 28  1  0
 10 29  1  0
 10 30  1  0
 12 31  1  0
 13 32  1  0
 18 33  1  0
 19 34  1  0
 22 35  1  0
 22 36  1  0
 22 37  1  0
M  END
$$$$
