
     RDKit          3D

 39 40  0  0  0  0  0  0  0  0999 V2000
    6.5752   -1.9149    1.3861 C   0  0  0  0  0  0  0  0  0  0  0  0
    5.1845   -1.3610    1.4913 C   0  0  0  0  0  0  0  0  0  0  0  0
    4.9057   -0.0600    1.0569 C   0  0  0  0  0  0  0  0  0  0  0  0
    3.6044    0.4447    1.1238 C   0  0  0  0  0  0  0  0  0  0  0  0
    2.5624   -0.3494    1.6187 C   0  0  0  0  0  0  0  0  0  0  0  0
    1.1952    0.2342    1.6655 C   0  0  0  0  0  0  0  0  0  0  0  0
    0.9163    1.3466    1.2419 O   0  0  0  0  0  0  0  0  0  0  0  0
    0.3185   -0.6310    2.2292 O   0  0  0  0  0  0  0  0  0  0  0  0
   -1.0245   -0.1570    2.3370 C   0  0  0  0  0  0  0  0  0  0  0  0
   -1.8029   -0.2345    1.0217 C   0  0  0  0  0  0  0  0  0  0  0  0
   -2.5745   -1.1554    0.7681 O   0  0  0  0  0  0  0  0  0  0  0  0
   -1.5707    0.8169    0.1619 N   0  0  0  0  0  0  0  0  0  0  0  0
   -2.1283    0.8519   -1.1770 C   0  0  0  0  0  0  0  0  0  0  0  0
   -3.6301    1.1589   -1.1992 C   0  0  0  0  0  0  0  0  0  0  0  0
   -4.1223    1.3759   -2.5494 N   0  0  0  0  0  0  0  0  0  0  0  0
   -4.5602    0.3663   -3.3699 C   0  0  0  0  0  0  0  0  0  0  0  0
   -4.5781   -0.9082   -2.8937 O   0  0  0  0  0  0  0  0  0  0  0  0
   -4.9258    0.7631   -4.5940 C   0  0  0  0  0  0  0  0  0  0  0  0
   -4.7172    2.4777   -4.7876 S   0  0  0  0  0  0  0  0  0  0  0  0
   -4.0898    2.6310   -3.1340 C   0  0  0  0  0  0  0  0  0  0  0  0
   -3.6964    3.6809   -2.6537 O   0  0  0  0  0  0  0  0  0  0  0  0
    2.8358   -1.6568    2.0396 C   0  0  0  0  0  0  0  0  0  0  0  0
    4.1388   -2.1591    1.9707 C   0  0  0  0  0  0  0  0  0  0  0  0
    6.7610   -2.6553    2.1712 H   0  0  0  0  0  0  0  0  0  0  0  0
    6.7152   -2.3904    0.4105 H   0  0  0  0  0  0  0  0  0  0  0  0
    7.3213   -1.1222    1.5045 H   0  0  0  0  0  0  0  0  0  0  0  0
    5.7005    0.5708    0.6634 H   0  0  0  0  0  0  0  0  0  0  0  0
    3.4097    1.4607    0.7853 H   0  0  0  0  0  0  0  0  0  0  0  0
   -1.5390   -0.7896    3.0688 H   0  0  0  0  0  0  0  0  0  0  0  0
   -1.0534    0.8644    2.7359 H   0  0  0  0  0  0  0  0  0  0  0  0
   -0.7567    1.4034    0.3571 H   0  0  0  0  0  0  0  0  0  0  0  0
   -1.5755    1.6209   -1.7282 H   0  0  0  0  0  0  0  0  0  0  0  0
   -1.9279   -0.1105   -1.6622 H   0  0  0  0  0  0  0  0  0  0  0  0
   -4.2105    0.3624   -0.7202 H   0  0  0  0  0  0  0  0  0  0  0  0
   -3.8164    2.0704   -0.6169 H   0  0  0  0  0  0  0  0  0  0  0  0
   -4.9261   -1.4963   -3.5844 H   0  0  0  0  0  0  0  0  0  0  0  0
   -5.2964    0.1315   -5.3877 H   0  0  0  0  0  0  0  0  0  0  0  0
    2.0462   -2.3010    2.4184 H   0  0  0  0  0  0  0  0  0  0  0  0
    4.3319   -3.1802    2.2943 H   0  0  0  0  0  0  0  0  0  0  0  0
  1  2  1  0
  2  3  2  0
  3  4  1  0
  4  5  2  0
  5  6  1  0
  6  7  2  0
  6  8  1  0
  8  9  1  0
  9 10  1  0
 10 11  2  0
 10 12  1  0
 12 13  1  0
 13 14  1  0
 14 15  1  0
 15 16  1  0
 16 17  1  0
 16 18  2  0
 18 19  1  0
 19 20  1  0
 20 21  2  0
  5 22  1  0
 22 23  2  0
 23  2  1  0
 20 15  1  0
  1 24  1  0
  1 25  1  0
  1 26  1  0
  3 27  1  0
  4 28  1  0
  9 29  1  0
  9 30  1  0
 12 31  1  0
 13 32  1  0
 13 33  1  0
 14 34  1  0
 14 35  1  0
 17 36  1  0
 18 37  1  0
 22 38  1  0
 23 39  1  0
M  END
$$$$
