
     RDKit          3D

 54 57  0  0  0  0  0  0  0  0999 V2000
    0.9274    2.0580   -0.3459 O   0  0  0  0  0  0  0  0  0  0  0  0
   -0.0392    1.5224   -0.8819 C   0  0  0  0  0  0  0  0  0  0  0  0
   -1.2999    2.3317   -1.2163 C   0  0  0  0  0  0  0  0  0  0  0  0
   -2.4597    1.9690   -0.4653 O   0  0  0  0  0  0  0  0  0  0  0  0
   -3.1300    0.8806   -0.9099 C   0  0  0  0  0  0  0  0  0  0  0  0
   -2.7834    0.1805   -1.8508 O   0  0  0  0  0  0  0  0  0  0  0  0
   -4.3452    0.6269   -0.0920 C   0  0  0  0  0  0  0  0  0  0  0  0
   -5.1629   -0.4588   -0.4410 C   0  0  0  0  0  0  0  0  0  0  0  0
   -6.3119   -0.7438    0.3009 C   0  0  0  0  0  0  0  0  0  0  0  0
   -6.6454    0.0518    1.3941 C   0  0  0  0  0  0  0  0  0  0  0  0
   -5.8486    1.1513    1.7295 C   0  0  0  0  0  0  0  0  0  0  0  0
   -4.6930    1.4322    1.0005 C   0  0  0  0  0  0  0  0  0  0  0  0
   -6.1364    1.9959    2.7713 O   0  0  0  0  0  0  0  0  0  0  0  0
   -7.4841    1.8267    3.2272 C   0  0  0  0  0  0  0  0  0  0  0  0
   -7.8233    0.3518    3.3653 C   0  0  0  0  0  0  0  0  0  0  0  0
   -7.7730   -0.2991    2.0901 O   0  0  0  0  0  0  0  0  0  0  0  0
   -0.1161    0.2022   -1.2888 N   0  0  0  0  0  0  0  0  0  0  0  0
    0.8422   -0.8138   -1.1142 C   0  0  0  0  0  0  0  0  0  0  0  0
    0.5747   -2.0496   -1.7211 C   0  0  0  0  0  0  0  0  0  0  0  0
    1.4747   -3.1132   -1.6127 C   0  0  0  0  0  0  0  0  0  0  0  0
    2.6542   -2.9525   -0.8923 C   0  0  0  0  0  0  0  0  0  0  0  0
    2.9212   -1.7240   -0.2830 C   0  0  0  0  0  0  0  0  0  0  0  0
    4.4058   -1.5375    0.6727 S   0  0  0  0  0  6  0  0  0  0  0  0
    4.7840   -2.8510    1.1523 O   0  0  0  0  0  0  0  0  0  0  0  0
    4.2375   -0.4362    1.5959 O   0  0  0  0  0  0  0  0  0  0  0  0
    5.5555   -1.0631   -0.4980 N   0  0  0  0  0  0  0  0  0  0  0  0
    5.2471    0.2207   -1.2151 C   0  0  0  0  0  0  0  0  0  0  0  0
    6.5116    0.7879   -1.8685 C   0  0  0  0  0  0  0  0  0  0  0  0
    7.5321    1.1297   -0.9206 O   0  0  0  0  0  0  0  0  0  0  0  0
    7.4921    0.3246    0.2668 C   0  0  0  0  0  0  0  0  0  0  0  0
    6.9707   -1.0912    0.0084 C   0  0  0  0  0  0  0  0  0  0  0  0
    2.0156   -0.6598   -0.3760 C   0  0  0  0  0  0  0  0  0  0  0  0
   -1.4938    2.2835   -2.2952 H   0  0  0  0  0  0  0  0  0  0  0  0
   -1.0901    3.3828   -0.9883 H   0  0  0  0  0  0  0  0  0  0  0  0
   -4.9082   -1.0915   -1.2893 H   0  0  0  0  0  0  0  0  0  0  0  0
   -6.9385   -1.5908    0.0339 H   0  0  0  0  0  0  0  0  0  0  0  0
   -4.0829    2.2830    1.2920 H   0  0  0  0  0  0  0  0  0  0  0  0
   -7.5716    2.3279    4.1963 H   0  0  0  0  0  0  0  0  0  0  0  0
   -8.1561    2.3288    2.5203 H   0  0  0  0  0  0  0  0  0  0  0  0
   -7.1295   -0.1584    4.0449 H   0  0  0  0  0  0  0  0  0  0  0  0
   -8.8374    0.2316    3.7591 H   0  0  0  0  0  0  0  0  0  0  0  0
   -0.9700   -0.0638   -1.7830 H   0  0  0  0  0  0  0  0  0  0  0  0
   -0.3399   -2.1989   -2.2916 H   0  0  0  0  0  0  0  0  0  0  0  0
    1.2522   -4.0653   -2.0885 H   0  0  0  0  0  0  0  0  0  0  0  0
    3.3538   -3.7810   -0.8030 H   0  0  0  0  0  0  0  0  0  0  0  0
    4.5026    0.0207   -1.9918 H   0  0  0  0  0  0  0  0  0  0  0  0
    4.8462    0.9596   -0.5129 H   0  0  0  0  0  0  0  0  0  0  0  0
    6.9379    0.0669   -2.5758 H   0  0  0  0  0  0  0  0  0  0  0  0
    6.2713    1.6951   -2.4319 H   0  0  0  0  0  0  0  0  0  0  0  0
    8.5104    0.2844    0.6662 H   0  0  0  0  0  0  0  0  0  0  0  0
    6.8703    0.8422    1.0060 H   0  0  0  0  0  0  0  0  0  0  0  0
    7.0593   -1.6908    0.9195 H   0  0  0  0  0  0  0  0  0  0  0  0
    7.5767   -1.5849   -0.7607 H   0  0  0  0  0  0  0  0  0  0  0  0
    2.2427    0.2689    0.1387 H   0  0  0  0  0  0  0  0  0  0  0  0
  1  2  2  0
  2  3  1  0
  3  4  1  0
  4  5  1  0
  5  6  2  0
  5  7  1  0
  7  8  2  0
  8  9  1  0
  9 10  2  0
 10 11  1  0
 11 12  2  0
 11 13  1  0
 13 14  1  0
 14 15  1  0
 15 16  1  0
  2 17  1  0
 17 18  1  0
 18 19  2  0
 19 20  1  0
 20 21  2  0
 21 22  1  0
 22 23  1  0
 23 24  2  0
 23 25  2  0
 23 26  1  0
 26 27  1  0
 27 28  1  0
 28 29  1  0
 29 30  1  0
 30 31  1  0
 22 32  2  0
 12  7  1  0
 32 18  1  0
 16 10  1  0
 31 26  1  0
  3 33  1  0
  3 34  1  0
  8 35  1  0
  9 36  1  0
 12 37  1  0
 14 38  1  0
 14 39  1  0
 15 40  1  0
 15 41  1  0
 17 42  1  0
 19 43  1  0
 20 44  1  0
 21 45  1  0
 27 46  1  0
 27 47  1  0
 28 48  1  0
 28 49  1  0
 30 50  1  0
 30 51  1  0
 31 52  1  0
 31 53  1  0
 32 54  1  0
M  END
$$$$
