
     RDKit          3D

 53 55  0  0  0  0  0  0  0  0999 V2000
   -5.6600    0.9058    1.2624 C   0  0  0  0  0  0  0  0  0  0  0  0
   -6.1450   -0.4352    1.3438 O   0  0  0  0  0  0  0  0  0  0  0  0
   -5.8167   -1.1492    0.2213 C   0  0  0  0  0  0  0  0  0  0  0  0
   -6.4168   -0.8385   -1.0026 C   0  0  0  0  0  0  0  0  0  0  0  0
   -6.1172   -1.5909   -2.1369 C   0  0  0  0  0  0  0  0  0  0  0  0
   -5.2317   -2.6621   -2.0453 C   0  0  0  0  0  0  0  0  0  0  0  0
   -4.6495   -2.9852   -0.8176 C   0  0  0  0  0  0  0  0  0  0  0  0
   -4.9375   -2.2348    0.3361 C   0  0  0  0  0  0  0  0  0  0  0  0
   -4.2960   -2.6024    1.6501 C   0  0  0  0  0  0  0  0  0  0  0  0
   -2.8659   -2.4131    1.6094 N   0  0  0  0  0  0  0  0  0  0  0  0
   -2.2594   -1.2526    2.0248 C   0  0  0  0  0  0  0  0  0  0  0  0
   -2.7876   -0.3073    2.5923 O   0  0  0  0  0  0  0  0  0  0  0  0
   -0.7502   -1.2057    1.6935 C   0  0  0  0  0  0  0  0  0  0  0  0
   -0.2362   -2.0968    1.0325 O   0  0  0  0  0  0  0  0  0  0  0  0
   -0.1077   -0.0922    2.1802 N   0  0  0  0  0  0  0  0  0  0  0  0
    1.2628    0.2197    1.8128 C   0  0  0  0  0  0  0  0  0  0  0  0
    1.4246    0.6474    0.3411 C   0  0  0  0  0  0  0  0  0  0  0  0
    0.5791    1.7904    0.0884 O   0  0  0  0  0  0  0  0  0  0  0  0
    1.2016    2.4646   -1.0059 C   0  0  0  0  0  0  0  0  0  0  0  0
    2.6737    2.3896   -0.6699 C   0  0  0  0  0  0  0  0  0  0  0  0
    2.8062    1.1141    0.0676 N   0  0  0  0  0  0  0  0  0  0  0  0
    3.7919   -0.0752   -0.6149 S   0  0  0  0  0  6  0  0  0  0  0  0
    3.4070   -0.2063   -2.0039 O   0  0  0  0  0  0  0  0  0  0  0  0
    3.8145   -1.2108    0.2783 O   0  0  0  0  0  0  0  0  0  0  0  0
    5.3986    0.6799   -0.5440 C   0  0  0  0  0  0  0  0  0  0  0  0
    5.9668    0.9441    0.7069 C   0  0  0  0  0  0  0  0  0  0  0  0
    7.2281    1.5376    0.7770 C   0  0  0  0  0  0  0  0  0  0  0  0
    7.9094    1.8557   -0.3992 C   0  0  0  0  0  0  0  0  0  0  0  0
    9.6171    2.6608   -0.3019 Br  0  0  0  0  0  0  0  0  0  0  0  0
    7.3445    1.5835   -1.6468 C   0  0  0  0  0  0  0  0  0  0  0  0
    6.0830    0.9898   -1.7229 C   0  0  0  0  0  0  0  0  0  0  0  0
   -4.6383    0.9512    0.8683 H   0  0  0  0  0  0  0  0  0  0  0  0
   -5.6518    1.3206    2.2747 H   0  0  0  0  0  0  0  0  0  0  0  0
   -6.3306    1.5186    0.6513 H   0  0  0  0  0  0  0  0  0  0  0  0
   -7.1288   -0.0216   -1.0726 H   0  0  0  0  0  0  0  0  0  0  0  0
   -6.5817   -1.3480   -3.0888 H   0  0  0  0  0  0  0  0  0  0  0  0
   -4.9997   -3.2524   -2.9282 H   0  0  0  0  0  0  0  0  0  0  0  0
   -3.9690   -3.8322   -0.7644 H   0  0  0  0  0  0  0  0  0  0  0  0
   -4.4806   -3.6627    1.8567 H   0  0  0  0  0  0  0  0  0  0  0  0
   -4.7125   -2.0345    2.4880 H   0  0  0  0  0  0  0  0  0  0  0  0
   -2.2908   -3.0444    1.0603 H   0  0  0  0  0  0  0  0  0  0  0  0
   -0.7089    0.6439    2.5426 H   0  0  0  0  0  0  0  0  0  0  0  0
    1.8815   -0.6575    2.0275 H   0  0  0  0  0  0  0  0  0  0  0  0
    1.5786    1.0301    2.4794 H   0  0  0  0  0  0  0  0  0  0  0  0
    1.1113   -0.1468   -0.3467 H   0  0  0  0  0  0  0  0  0  0  0  0
    0.8336    3.4911   -1.0792 H   0  0  0  0  0  0  0  0  0  0  0  0
    0.9654    1.9297   -1.9327 H   0  0  0  0  0  0  0  0  0  0  0  0
    2.9567    3.1959    0.0160 H   0  0  0  0  0  0  0  0  0  0  0  0
    3.2975    2.4694   -1.5631 H   0  0  0  0  0  0  0  0  0  0  0  0
    5.4354    0.6867    1.6209 H   0  0  0  0  0  0  0  0  0  0  0  0
    7.6721    1.7428    1.7481 H   0  0  0  0  0  0  0  0  0  0  0  0
    7.8804    1.8249   -2.5618 H   0  0  0  0  0  0  0  0  0  0  0  0
    5.6488    0.7707   -2.6962 H   0  0  0  0  0  0  0  0  0  0  0  0
  1  2  1  0
  2  3  1  0
  3  4  2  0
  4  5  1  0
  5  6  2  0
  6  7  1  0
  7  8  2  0
  8  9  1  0
  9 10  1  0
 10 11  1  0
 11 12  2  0
 11 13  1  0
 13 14  2  0
 13 15  1  0
 15 16  1  0
 16 17  1  0
 17 18  1  0
 18 19  1  0
 19 20  1  0
 20 21  1  0
 21 22  1  0
 22 23  2  0
 22 24  2  0
 22 25  1  0
 25 26  2  0
 26 27  1  0
 27 28  2  0
 28 29  1  0
 28 30  1  0
 30 31  2  0
  8  3  1  0
 21 17  1  0
 31 25  1  0
  1 32  1  0
  1 33  1  0
  1 34  1  0
  4 35  1  0
  5 36  1  0
  6 37  1  0
  7 38  1  0
  9 39  1  0
  9 40  1  0
 10 41  1  0
 15 42  1  0
 16 43  1  0
 16 44  1  0
 17 45  1  0
 19 46  1  0
 19 47  1  0
 20 48  1  0
 20 49  1  0
 26 50  1  0
 27 51  1  0
 30 52  1  0
 31 53  1  0
M  END
$$$$
