
     RDKit          3D

 62 65  0  0  0  0  0  0  0  0999 V2000
   -4.1620   -3.0169   -0.1753 C   0  0  0  0  0  0  0  0  0  0  0  0
   -4.2307   -1.7208   -0.9686 C   0  0  0  0  0  0  0  0  0  0  0  0
   -3.8297   -0.5846   -0.1466 N   0  0  0  0  0  0  0  0  0  0  0  0
   -2.5338   -0.0820    0.0864 C   0  0  0  0  0  0  0  0  0  0  0  0
   -1.4138   -0.5578   -0.4984 C   0  0  0  0  0  0  0  0  0  0  0  0
   -0.0473   -0.1027   -0.3343 C   0  0  0  0  0  0  0  0  0  0  0  0
    0.9775   -0.6686   -0.9882 C   0  0  0  0  0  0  0  0  0  0  0  0
    2.4075   -0.2705   -0.8804 C   0  0  0  0  0  0  0  0  0  0  0  0
    3.3610   -0.7928   -1.6024 N   0  0  0  0  0  4  0  0  0  0  0  0
    3.2954   -1.7917   -2.6909 C   0  0  0  0  0  0  0  0  0  0  0  0
    3.4838   -3.1865   -2.1241 C   0  0  0  0  0  0  0  0  0  0  0  0
    4.6613   -0.2214   -1.2111 C   0  0  0  0  0  0  0  0  0  0  0  0
    5.9238   -0.5152   -1.6987 C   0  0  0  0  0  0  0  0  0  0  0  0
    7.0085    0.1698   -1.1451 C   0  0  0  0  0  0  0  0  0  0  0  0
    6.8122    1.1172   -0.1283 C   0  0  0  0  0  0  0  0  0  0  0  0
    5.5308    1.3940    0.3524 C   0  0  0  0  0  0  0  0  0  0  0  0
    4.4592    0.7103   -0.2030 C   0  0  0  0  0  0  0  0  0  0  0  0
    2.9838    0.7949    0.1090 C   0  0  0  0  0  0  0  0  0  0  0  0
    2.7464    0.4080    1.5720 C   0  0  0  0  0  0  0  0  0  0  0  0
    2.4866    2.2096   -0.2090 C   0  0  0  0  0  0  0  0  0  0  0  0
   -2.6509    1.0911    1.1209 C   0  0  0  0  0  0  0  0  0  0  0  0
   -1.9011    0.8041    2.4309 C   0  0  0  0  0  0  0  0  0  0  0  0
   -2.2544    2.4469    0.5189 C   0  0  0  0  0  0  0  0  0  0  0  0
   -4.1496    1.0928    1.4044 C   0  0  0  0  0  0  0  0  0  0  0  0
   -4.8750    1.9098    2.2653 C   0  0  0  0  0  0  0  0  0  0  0  0
   -6.2505    1.7104    2.3670 C   0  0  0  0  0  0  0  0  0  0  0  0
   -6.8770    0.7074    1.6169 C   0  0  0  0  0  0  0  0  0  0  0  0
   -6.1366   -0.1073    0.7525 C   0  0  0  0  0  0  0  0  0  0  0  0
   -4.7686    0.0886    0.6440 C   0  0  0  0  0  0  0  0  0  0  0  0
   -4.4522   -3.8628   -0.8062 H   0  0  0  0  0  0  0  0  0  0  0  0
   -4.8333   -2.9920    0.6890 H   0  0  0  0  0  0  0  0  0  0  0  0
   -3.1479   -3.2016    0.1946 H   0  0  0  0  0  0  0  0  0  0  0  0
   -3.5826   -1.8009   -1.8487 H   0  0  0  0  0  0  0  0  0  0  0  0
   -5.2381   -1.5845   -1.3787 H   0  0  0  0  0  0  0  0  0  0  0  0
   -1.5346   -1.3898   -1.1889 H   0  0  0  0  0  0  0  0  0  0  0  0
    0.1033    0.7238    0.3423 H   0  0  0  0  0  0  0  0  0  0  0  0
    0.7554   -1.5005   -1.6526 H   0  0  0  0  0  0  0  0  0  0  0  0
    4.0523   -1.5547   -3.4453 H   0  0  0  0  0  0  0  0  0  0  0  0
    2.3239   -1.7040   -3.1871 H   0  0  0  0  0  0  0  0  0  0  0  0
    2.7169   -3.4242   -1.3785 H   0  0  0  0  0  0  0  0  0  0  0  0
    4.4618   -3.3007   -1.6443 H   0  0  0  0  0  0  0  0  0  0  0  0
    3.4148   -3.9294   -2.9252 H   0  0  0  0  0  0  0  0  0  0  0  0
    6.1057   -1.2469   -2.4780 H   0  0  0  0  0  0  0  0  0  0  0  0
    8.0194   -0.0296   -1.5001 H   0  0  0  0  0  0  0  0  0  0  0  0
    7.6714    1.6408    0.2913 H   0  0  0  0  0  0  0  0  0  0  0  0
    5.3941    2.1290    1.1423 H   0  0  0  0  0  0  0  0  0  0  0  0
    1.6930    0.4806    1.8533 H   0  0  0  0  0  0  0  0  0  0  0  0
    3.0613   -0.6243    1.7672 H   0  0  0  0  0  0  0  0  0  0  0  0
    3.3046    1.0577    2.2561 H   0  0  0  0  0  0  0  0  0  0  0  0
    1.4331    2.3483    0.0433 H   0  0  0  0  0  0  0  0  0  0  0  0
    2.5950    2.4403   -1.2757 H   0  0  0  0  0  0  0  0  0  0  0  0
    3.0471    2.9681    0.3501 H   0  0  0  0  0  0  0  0  0  0  0  0
   -0.8164    0.8068    2.2994 H   0  0  0  0  0  0  0  0  0  0  0  0
   -2.1261    1.5586    3.1941 H   0  0  0  0  0  0  0  0  0  0  0  0
   -2.1803   -0.1715    2.8476 H   0  0  0  0  0  0  0  0  0  0  0  0
   -2.7963    2.6460   -0.4138 H   0  0  0  0  0  0  0  0  0  0  0  0
   -1.1857    2.5049    0.2961 H   0  0  0  0  0  0  0  0  0  0  0  0
   -2.4799    3.2706    1.2066 H   0  0  0  0  0  0  0  0  0  0  0  0
   -4.3915    2.6856    2.8497 H   0  0  0  0  0  0  0  0  0  0  0  0
   -6.8423    2.3343    3.0330 H   0  0  0  0  0  0  0  0  0  0  0  0
   -7.9511    0.5610    1.7072 H   0  0  0  0  0  0  0  0  0  0  0  0
   -6.6516   -0.8752    0.1875 H   0  0  0  0  0  0  0  0  0  0  0  0
  1  2  1  0
  2  3  1  0
  3  4  1  0
  4  5  2  3
  5  6  1  0
  6  7  2  3
  7  8  1  0
  8  9  2  0
  9 10  1  0
 10 11  1  0
  9 12  1  0
 12 13  2  0
 13 14  1  0
 14 15  2  0
 15 16  1  0
 16 17  2  0
 17 18  1  0
 18 19  1  0
 18 20  1  0
  4 21  1  0
 21 22  1  0
 21 23  1  0
 21 24  1  0
 24 25  2  0
 25 26  1  0
 26 27  2  0
 27 28  1  0
 28 29  2  0
 29  3  1  0
 18  8  1  0
 29 24  1  0
 17 12  1  0
  1 30  1  0
  1 31  1  0
  1 32  1  0
  2 33  1  0
  2 34  1  0
  5 35  1  0
  6 36  1  0
  7 37  1  0
 10 38  1  0
 10 39  1  0
 11 40  1  0
 11 41  1  0
 11 42  1  0
 13 43  1  0
 14 44  1  0
 15 45  1  0
 16 46  1  0
 19 47  1  0
 19 48  1  0
 19 49  1  0
 20 50  1  0
 20 51  1  0
 20 52  1  0
 22 53  1  0
 22 54  1  0
 22 55  1  0
 23 56  1  0
 23 57  1  0
 23 58  1  0
 25 59  1  0
 26 60  1  0
 27 61  1  0
 28 62  1  0
M  CHG  1   9   1
M  END
$$$$
