
     RDKit          3D

 64 67  0  0  0  0  0  0  0  0999 V2000
    7.6132   -3.4311   -1.2202 C   0  0  0  0  0  0  0  0  0  0  0  0
    7.4006   -2.0512   -0.9545 O   0  0  0  0  0  0  0  0  0  0  0  0
    6.2325   -1.7169   -0.3248 C   0  0  0  0  0  0  0  0  0  0  0  0
    5.2216   -2.6013    0.0479 C   0  0  0  0  0  0  0  0  0  0  0  0
    4.0759   -2.1300    0.6985 C   0  0  0  0  0  0  0  0  0  0  0  0
    3.9291   -0.7713    0.9758 C   0  0  0  0  0  0  0  0  0  0  0  0
    2.8105   -0.2228    1.6379 N   0  0  0  0  0  0  0  0  0  0  0  0
    1.6520   -0.8505    2.0420 C   0  0  0  0  0  0  0  0  0  0  0  0
    1.3817   -2.0421    1.8993 O   0  0  0  0  0  0  0  0  0  0  0  0
    0.7064    0.0533    2.8204 C   0  0  0  0  0  0  0  0  0  0  0  0
    0.3787    1.6441    2.0036 S   0  0  0  0  0  0  0  0  0  0  0  0
   -0.3620    1.0728    0.5523 C   0  0  0  0  0  0  0  0  0  0  0  0
    0.2840    0.7325   -0.5343 N   0  0  0  0  0  0  0  0  0  0  0  0
   -0.6371    0.2425   -1.4244 N   0  0  0  0  0  0  0  0  0  0  0  0
   -1.8284    0.2837   -0.8552 C   0  0  0  0  0  0  0  0  0  0  0  0
   -3.0834   -0.2665   -1.4452 C   0  0  0  0  0  0  0  0  0  0  0  0
   -3.5565   -1.5231   -0.7680 C   0  0  0  0  0  0  0  0  0  0  0  0
   -4.7869   -1.7793   -0.1857 C   0  0  0  0  0  0  0  0  0  0  0  0
   -4.7646   -3.0926    0.3314 C   0  0  0  0  0  0  0  0  0  0  0  0
   -3.5270   -3.6189    0.0438 C   0  0  0  0  0  0  0  0  0  0  0  0
   -2.8027   -2.6735   -0.6406 N   0  0  0  0  0  0  0  0  0  0  0  0
   -1.4544   -2.8970   -1.1327 C   0  0  0  0  0  0  0  0  0  0  0  0
   -1.7066    0.8809    0.3804 N   0  0  0  0  0  0  0  0  0  0  0  0
   -2.7682    1.2115    1.3096 C   0  0  0  0  0  0  0  0  0  0  0  0
   -3.1370    2.6989    1.3143 C   0  0  0  0  0  0  0  0  0  0  0  0
   -3.8888    3.1123    0.0730 C   0  0  0  0  0  0  0  0  0  0  0  0
   -5.2813    2.9612    0.0072 C   0  0  0  0  0  0  0  0  0  0  0  0
   -5.9737    3.3032   -1.1548 C   0  0  0  0  0  0  0  0  0  0  0  0
   -5.2818    3.7945   -2.2606 C   0  0  0  0  0  0  0  0  0  0  0  0
   -3.8971    3.9456   -2.2063 C   0  0  0  0  0  0  0  0  0  0  0  0
   -3.2020    3.6078   -1.0442 C   0  0  0  0  0  0  0  0  0  0  0  0
    4.9445    0.1274    0.5914 C   0  0  0  0  0  0  0  0  0  0  0  0
    4.7209    1.4466    0.9158 O   0  0  0  0  0  0  0  0  0  0  0  0
    5.5731    2.4051    0.3052 C   0  0  0  0  0  0  0  0  0  0  0  0
    6.0891   -0.3528   -0.0517 C   0  0  0  0  0  0  0  0  0  0  0  0
    6.8614   -3.8170   -1.9169 H   0  0  0  0  0  0  0  0  0  0  0  0
    7.6324   -4.0145   -0.2939 H   0  0  0  0  0  0  0  0  0  0  0  0
    8.5921   -3.5309   -1.6977 H   0  0  0  0  0  0  0  0  0  0  0  0
    5.2874   -3.6666   -0.1491 H   0  0  0  0  0  0  0  0  0  0  0  0
    3.3126   -2.8497    0.9757 H   0  0  0  0  0  0  0  0  0  0  0  0
    2.8448    0.7912    1.7165 H   0  0  0  0  0  0  0  0  0  0  0  0
    1.1469    0.2447    3.8047 H   0  0  0  0  0  0  0  0  0  0  0  0
   -0.2426   -0.4713    2.9751 H   0  0  0  0  0  0  0  0  0  0  0  0
   -3.8747    0.4910   -1.4054 H   0  0  0  0  0  0  0  0  0  0  0  0
   -2.9232   -0.4777   -2.5104 H   0  0  0  0  0  0  0  0  0  0  0  0
   -5.6161   -1.0836   -0.1408 H   0  0  0  0  0  0  0  0  0  0  0  0
   -5.5628   -3.6058    0.8525 H   0  0  0  0  0  0  0  0  0  0  0  0
   -3.1072   -4.5918    0.2621 H   0  0  0  0  0  0  0  0  0  0  0  0
   -1.2900   -3.9718   -1.2483 H   0  0  0  0  0  0  0  0  0  0  0  0
   -0.7530   -2.4953   -0.3974 H   0  0  0  0  0  0  0  0  0  0  0  0
   -1.3384   -2.4134   -2.1044 H   0  0  0  0  0  0  0  0  0  0  0  0
   -2.4328    0.9064    2.3079 H   0  0  0  0  0  0  0  0  0  0  0  0
   -3.6445    0.5982    1.0814 H   0  0  0  0  0  0  0  0  0  0  0  0
   -3.7669    2.9060    2.1899 H   0  0  0  0  0  0  0  0  0  0  0  0
   -2.2488    3.3318    1.4322 H   0  0  0  0  0  0  0  0  0  0  0  0
   -5.8365    2.5743    0.8595 H   0  0  0  0  0  0  0  0  0  0  0  0
   -7.0543    3.1862   -1.1997 H   0  0  0  0  0  0  0  0  0  0  0  0
   -5.8228    4.0593   -3.1655 H   0  0  0  0  0  0  0  0  0  0  0  0
   -3.3572    4.3231   -3.0715 H   0  0  0  0  0  0  0  0  0  0  0  0
   -2.1188    3.7225   -1.0249 H   0  0  0  0  0  0  0  0  0  0  0  0
    5.5649    2.3115   -0.7865 H   0  0  0  0  0  0  0  0  0  0  0  0
    5.1894    3.3983    0.5568 H   0  0  0  0  0  0  0  0  0  0  0  0
    6.5900    2.3328    0.7008 H   0  0  0  0  0  0  0  0  0  0  0  0
    6.8948    0.3093   -0.3491 H   0  0  0  0  0  0  0  0  0  0  0  0
  1  2  1  0
  2  3  1  0
  3  4  2  0
  4  5  1  0
  5  6  2  0
  6  7  1  0
  7  8  1  0
  8  9  2  0
  8 10  1  0
 10 11  1  0
 11 12  1  0
 12 13  2  0
 13 14  1  0
 14 15  2  0
 15 16  1  0
 16 17  1  0
 17 18  2  0
 18 19  1  0
 19 20  2  0
 20 21  1  0
 21 22  1  0
 15 23  1  0
 23 24  1  0
 24 25  1  0
 25 26  1  0
 26 27  2  0
 27 28  1  0
 28 29  2  0
 29 30  1  0
 30 31  2  0
  6 32  1  0
 32 33  1  0
 33 34  1  0
 32 35  2  0
 35  3  1  0
 23 12  1  0
 31 26  1  0
 21 17  1  0
  1 36  1  0
  1 37  1  0
  1 38  1  0
  4 39  1  0
  5 40  1  0
  7 41  1  0
 10 42  1  0
 10 43  1  0
 16 44  1  0
 16 45  1  0
 18 46  1  0
 19 47  1  0
 20 48  1  0
 22 49  1  0
 22 50  1  0
 22 51  1  0
 24 52  1  0
 24 53  1  0
 25 54  1  0
 25 55  1  0
 27 56  1  0
 28 57  1  0
 29 58  1  0
 30 59  1  0
 31 60  1  0
 34 61  1  0
 34 62  1  0
 34 63  1  0
 35 64  1  0
M  END
$$$$
