
     RDKit          3D

 56 58  0  0  0  0  0  0  0  0999 V2000
    5.7477    2.2717   -1.0167 C   0  0  0  0  0  0  0  0  0  0  0  0
    4.4784    1.9982   -1.5955 O   0  0  0  0  0  0  0  0  0  0  0  0
    3.9792    0.7348   -1.4392 C   0  0  0  0  0  0  0  0  0  0  0  0
    4.6340   -0.3283   -0.8170 C   0  0  0  0  0  0  0  0  0  0  0  0
    4.0144   -1.5789   -0.7204 C   0  0  0  0  0  0  0  0  0  0  0  0
    2.7369   -1.7746   -1.2482 C   0  0  0  0  0  0  0  0  0  0  0  0
    2.0452   -2.9650   -1.2159 O   0  0  0  0  0  0  0  0  0  0  0  0
    2.7048   -4.0825   -0.6354 C   0  0  0  0  0  0  0  0  0  0  0  0
    2.0709   -0.7029   -1.8802 C   0  0  0  0  0  0  0  0  0  0  0  0
    0.7834   -0.9725   -2.3962 N   0  0  0  0  0  0  0  0  0  0  0  0
   -0.0853   -0.1148   -3.0404 C   0  0  0  0  0  0  0  0  0  0  0  0
    0.1055    1.0779   -3.2670 O   0  0  0  0  0  0  0  0  0  0  0  0
   -1.3862   -0.7900   -3.4591 C   0  0  0  0  0  0  0  0  0  0  0  0
   -2.7842   -0.1452   -2.4940 S   0  0  0  0  0  0  0  0  0  0  0  0
   -2.1447   -0.4111   -0.8840 C   0  0  0  0  0  0  0  0  0  0  0  0
   -1.7216   -1.6056   -0.6267 N   0  0  0  0  0  0  0  0  0  0  0  0
   -1.2112   -1.8665    0.6486 C   0  0  0  0  0  0  0  0  0  0  0  0
   -0.6957   -3.1342    0.9274 C   0  0  0  0  0  0  0  0  0  0  0  0
   -0.1766   -3.4290    2.1906 C   0  0  0  0  0  0  0  0  0  0  0  0
   -0.1694   -2.4553    3.1879 C   0  0  0  0  0  0  0  0  0  0  0  0
   -0.6903   -1.1901    2.9235 C   0  0  0  0  0  0  0  0  0  0  0  0
   -1.2082   -0.9069    1.6544 C   0  0  0  0  0  0  0  0  0  0  0  0
   -1.7732    0.4141    1.3385 C   0  0  0  0  0  0  0  0  0  0  0  0
   -1.9469    1.2190    2.2516 O   0  0  0  0  0  0  0  0  0  0  0  0
   -2.1329    0.6427    0.0130 N   0  0  0  0  0  0  0  0  0  0  0  0
   -2.5703    2.0117   -0.3284 C   0  0  0  0  0  0  0  0  0  0  0  0
   -4.0622    2.2400   -0.0345 C   0  0  0  0  0  0  0  0  0  0  0  0
   -4.3055    2.5443    1.3662 N   0  0  0  0  0  0  0  0  0  0  0  0
   -4.2105    3.8413    1.8217 C   0  0  0  0  0  0  0  0  0  0  0  0
   -4.2586    3.9653    3.3201 C   0  0  0  0  0  0  0  0  0  0  0  0
   -4.0858    4.8154    1.0859 O   0  0  0  0  0  0  0  0  0  0  0  0
    2.6997    0.5412   -1.9715 C   0  0  0  0  0  0  0  0  0  0  0  0
    5.7328    2.1091    0.0654 H   0  0  0  0  0  0  0  0  0  0  0  0
    6.5334    1.6785   -1.4940 H   0  0  0  0  0  0  0  0  0  0  0  0
    5.9729    3.3293   -1.1910 H   0  0  0  0  0  0  0  0  0  0  0  0
    5.6288   -0.2184   -0.3975 H   0  0  0  0  0  0  0  0  0  0  0  0
    4.5611   -2.3758   -0.2282 H   0  0  0  0  0  0  0  0  0  0  0  0
    2.0212   -4.9349   -0.6776 H   0  0  0  0  0  0  0  0  0  0  0  0
    2.9464   -3.9041    0.4164 H   0  0  0  0  0  0  0  0  0  0  0  0
    3.6023   -4.3490   -1.2050 H   0  0  0  0  0  0  0  0  0  0  0  0
    0.4625   -1.9174   -2.1922 H   0  0  0  0  0  0  0  0  0  0  0  0
   -1.3308   -1.8788   -3.3602 H   0  0  0  0  0  0  0  0  0  0  0  0
   -1.5537   -0.5707   -4.5188 H   0  0  0  0  0  0  0  0  0  0  0  0
   -0.6985   -3.8956    0.1523 H   0  0  0  0  0  0  0  0  0  0  0  0
    0.2226   -4.4199    2.3955 H   0  0  0  0  0  0  0  0  0  0  0  0
    0.2377   -2.6819    4.1710 H   0  0  0  0  0  0  0  0  0  0  0  0
   -0.6863   -0.4264    3.6988 H   0  0  0  0  0  0  0  0  0  0  0  0
   -2.3674    2.2122   -1.3840 H   0  0  0  0  0  0  0  0  0  0  0  0
   -1.9580    2.7249    0.2380 H   0  0  0  0  0  0  0  0  0  0  0  0
   -4.6600    1.3561   -0.2815 H   0  0  0  0  0  0  0  0  0  0  0  0
   -4.4250    3.0785   -0.6409 H   0  0  0  0  0  0  0  0  0  0  0  0
   -4.0258    1.8289    2.0345 H   0  0  0  0  0  0  0  0  0  0  0  0
   -4.7882    3.1194    3.7693 H   0  0  0  0  0  0  0  0  0  0  0  0
   -4.7912    4.8833    3.5887 H   0  0  0  0  0  0  0  0  0  0  0  0
   -3.2373    4.0030    3.7092 H   0  0  0  0  0  0  0  0  0  0  0  0
    2.2199    1.3855   -2.4570 H   0  0  0  0  0  0  0  0  0  0  0  0
  1  2  1  0
  2  3  1  0
  3  4  2  0
  4  5  1  0
  5  6  2  0
  6  7  1  0
  7  8  1  0
  6  9  1  0
  9 10  1  0
 10 11  1  0
 11 12  2  0
 11 13  1  0
 13 14  1  0
 14 15  1  0
 15 16  2  0
 16 17  1  0
 17 18  2  0
 18 19  1  0
 19 20  2  0
 20 21  1  0
 21 22  2  0
 22 23  1  0
 23 24  2  0
 23 25  1  0
 25 26  1  0
 26 27  1  0
 27 28  1  0
 28 29  1  0
 29 30  1  0
 29 31  2  0
  9 32  2  0
 32  3  1  0
 25 15  1  0
 22 17  1  0
  1 33  1  0
  1 34  1  0
  1 35  1  0
  4 36  1  0
  5 37  1  0
  8 38  1  0
  8 39  1  0
  8 40  1  0
 10 41  1  0
 13 42  1  0
 13 43  1  0
 18 44  1  0
 19 45  1  0
 20 46  1  0
 21 47  1  0
 26 48  1  0
 26 49  1  0
 27 50  1  0
 27 51  1  0
 28 52  1  0
 30 53  1  0
 30 54  1  0
 30 55  1  0
 32 56  1  0
M  END
$$$$
