
     RDKit          3D

 59 63  0  0  0  0  0  0  0  0999 V2000
   -4.2460   -2.8858    2.8107 C   0  0  0  0  0  0  0  0  0  0  0  0
   -3.5051   -1.6033    2.4586 C   0  0  0  0  0  0  0  0  0  0  0  0
   -4.0289   -0.9472    1.1729 C   0  0  0  0  0  0  0  0  0  0  0  0
   -3.7743   -1.7585   -0.0139 N   0  0  0  0  0  0  0  0  0  0  0  0
   -2.4503   -1.7582   -0.4449 C   0  0  0  0  0  0  0  0  0  0  0  0
   -2.0618   -2.8798   -1.0659 N   0  0  0  0  0  0  0  0  0  0  0  0
   -0.8083   -2.8856   -1.5181 C   0  0  0  0  0  0  0  0  0  0  0  0
    0.0946   -1.9134   -1.3514 N   0  0  0  0  0  0  0  0  0  0  0  0
   -0.2996   -0.8052   -0.6855 C   0  0  0  0  0  0  0  0  0  0  0  0
    0.7165    0.1091   -0.3197 N   0  0  0  0  0  0  0  0  0  0  0  0
    1.0627   -0.0797    1.1220 C   0  0  0  0  0  0  0  0  0  0  0  0
    2.5131    0.3502    1.4288 C   0  0  0  0  0  0  0  0  0  0  0  0
    3.4614   -0.4771    0.6611 N   0  0  0  0  0  0  0  0  0  0  0  0
    4.8091   -0.2243    0.9020 C   0  0  0  0  0  0  0  0  0  0  0  0
    5.7982   -1.0491    0.3621 C   0  0  0  0  0  0  0  0  0  0  0  0
    7.1445   -0.7979    0.6269 C   0  0  0  0  0  0  0  0  0  0  0  0
    7.4850    0.2715    1.4383 C   0  0  0  0  0  0  0  0  0  0  0  0
    6.4574    1.0357    1.9547 C   0  0  0  0  0  0  0  0  0  0  0  0
    5.1474    0.8060    1.7094 N   0  0  0  0  0  0  0  0  0  0  0  0
    3.0459   -0.8186   -0.7165 C   0  0  0  0  0  0  0  0  0  0  0  0
    1.9004    0.0902   -1.2180 C   0  0  0  0  0  0  0  0  0  0  0  0
   -1.6270   -0.6410   -0.2561 C   0  0  0  0  0  0  0  0  0  0  0  0
   -2.1877    0.5380    0.3604 N   0  0  0  0  0  0  0  0  0  0  0  0
   -1.6917    1.8728    0.0245 C   0  0  0  0  0  0  0  0  0  0  0  0
   -2.1530    2.3390   -1.3437 C   0  0  0  0  0  0  0  0  0  0  0  0
   -3.4441    2.8608   -1.5213 C   0  0  0  0  0  0  0  0  0  0  0  0
   -3.8795    3.2716   -2.7833 C   0  0  0  0  0  0  0  0  0  0  0  0
   -3.0256    3.1611   -3.8776 C   0  0  0  0  0  0  0  0  0  0  0  0
   -3.6132    3.7139   -5.5871 Br  0  0  0  0  0  0  0  0  0  0  0  0
   -1.7413    2.6455   -3.7214 C   0  0  0  0  0  0  0  0  0  0  0  0
   -1.3079    2.2361   -2.4582 C   0  0  0  0  0  0  0  0  0  0  0  0
   -3.4266    0.4612    1.0099 C   0  0  0  0  0  0  0  0  0  0  0  0
   -3.9951    1.4407    1.5004 O   0  0  0  0  0  0  0  0  0  0  0  0
   -4.0896   -3.6598    2.0532 H   0  0  0  0  0  0  0  0  0  0  0  0
   -5.3216   -2.7050    2.9044 H   0  0  0  0  0  0  0  0  0  0  0  0
   -3.8845   -3.2777    3.7668 H   0  0  0  0  0  0  0  0  0  0  0  0
   -2.4324   -1.8195    2.3869 H   0  0  0  0  0  0  0  0  0  0  0  0
   -3.6175   -0.8992    3.2929 H   0  0  0  0  0  0  0  0  0  0  0  0
   -5.1153   -0.8140    1.2472 H   0  0  0  0  0  0  0  0  0  0  0  0
   -4.1548   -2.6974   -0.0480 H   0  0  0  0  0  0  0  0  0  0  0  0
   -0.4847   -3.7687   -2.0577 H   0  0  0  0  0  0  0  0  0  0  0  0
    0.9505   -1.1334    1.4159 H   0  0  0  0  0  0  0  0  0  0  0  0
    0.3793    0.5117    1.7416 H   0  0  0  0  0  0  0  0  0  0  0  0
    2.6882    0.2234    2.5043 H   0  0  0  0  0  0  0  0  0  0  0  0
    2.6364    1.4130    1.1813 H   0  0  0  0  0  0  0  0  0  0  0  0
    5.5301   -1.9071   -0.2448 H   0  0  0  0  0  0  0  0  0  0  0  0
    7.9132   -1.4409    0.2092 H   0  0  0  0  0  0  0  0  0  0  0  0
    8.5189    0.4977    1.6703 H   0  0  0  0  0  0  0  0  0  0  0  0
    6.6615    1.8819    2.6042 H   0  0  0  0  0  0  0  0  0  0  0  0
    3.8723   -0.7251   -1.4312 H   0  0  0  0  0  0  0  0  0  0  0  0
    2.7281   -1.8671   -0.7229 H   0  0  0  0  0  0  0  0  0  0  0  0
    1.6290   -0.1660   -2.2502 H   0  0  0  0  0  0  0  0  0  0  0  0
    2.2756    1.1212   -1.2680 H   0  0  0  0  0  0  0  0  0  0  0  0
   -0.6090    1.9517    0.1130 H   0  0  0  0  0  0  0  0  0  0  0  0
   -2.0615    2.5931    0.7662 H   0  0  0  0  0  0  0  0  0  0  0  0
   -4.1215    2.9494   -0.6733 H   0  0  0  0  0  0  0  0  0  0  0  0
   -4.8834    3.6710   -2.8988 H   0  0  0  0  0  0  0  0  0  0  0  0
   -1.0724    2.5550   -4.5728 H   0  0  0  0  0  0  0  0  0  0  0  0
   -0.3041    1.8332   -2.3496 H   0  0  0  0  0  0  0  0  0  0  0  0
  1  2  1  0
  2  3  1  0
  3  4  1  0
  4  5  1  0
  5  6  2  0
  6  7  1  0
  7  8  2  0
  8  9  1  0
  9 10  1  0
 10 11  1  0
 11 12  1  0
 12 13  1  0
 13 14  1  0
 14 15  2  0
 15 16  1  0
 16 17  2  0
 17 18  1  0
 18 19  2  0
 13 20  1  0
 20 21  1  0
  9 22  2  0
 22 23  1  0
 23 24  1  0
 24 25  1  0
 25 26  2  0
 26 27  1  0
 27 28  2  0
 28 29  1  0
 28 30  1  0
 30 31  2  0
 23 32  1  0
 32 33  2  0
 32  3  1  0
 22  5  1  0
 31 25  1  0
 21 10  1  0
 19 14  1  0
  1 34  1  0
  1 35  1  0
  1 36  1  0
  2 37  1  0
  2 38  1  0
  3 39  1  0
  4 40  1  0
  7 41  1  0
 11 42  1  0
 11 43  1  0
 12 44  1  0
 12 45  1  0
 15 46  1  0
 16 47  1  0
 17 48  1  0
 18 49  1  0
 20 50  1  0
 20 51  1  0
 21 52  1  0
 21 53  1  0
 24 54  1  0
 24 55  1  0
 26 56  1  0
 27 57  1  0
 30 58  1  0
 31 59  1  0
M  END
$$$$
