
     RDKit          3D

 32 32  0  0  0  0  0  0  0  0999 V2000
   -4.3595   -1.8123   -1.5502 C   0  0  0  0  0  0  0  0  0  0  0  0
   -3.9310   -0.7093   -1.7586 C   0  0  0  0  0  0  0  0  0  0  0  0
   -3.4266    0.6466   -2.0285 C   0  0  0  0  0  0  0  0  0  0  0  0
   -1.9788    0.7527   -2.2130 N   0  0  0  0  0  0  0  0  0  0  0  0
   -1.4508   -0.1003   -3.2688 C   0  0  0  0  0  0  0  0  0  0  0  0
   -1.1755    0.7531   -0.9870 C   0  0  0  0  0  0  0  0  0  0  0  0
   -1.0547   -0.5720   -0.2212 C   0  0  0  0  0  0  0  0  0  0  0  0
   -0.1480   -0.4344    1.0032 C   0  0  0  0  0  0  0  0  0  0  0  0
    1.1770   -0.1412    0.5661 O   0  0  0  0  0  0  0  0  0  0  0  0
    2.1424    0.0580    1.5165 C   0  0  0  0  0  0  0  0  0  0  0  0
    1.9389   -0.0748    2.8941 C   0  0  0  0  0  0  0  0  0  0  0  0
    2.9917    0.1478    3.7886 C   0  0  0  0  0  0  0  0  0  0  0  0
    4.2511    0.5023    3.3104 C   0  0  0  0  0  0  0  0  0  0  0  0
    5.5386    0.7735    4.4184 Cl  0  0  0  0  0  0  0  0  0  0  0  0
    4.4734    0.6372    1.9446 C   0  0  0  0  0  0  0  0  0  0  0  0
    3.4215    0.4146    1.0528 C   0  0  0  0  0  0  0  0  0  0  0  0
    3.7453    0.5952   -0.6376 Cl  0  0  0  0  0  0  0  0  0  0  0  0
   -4.7381   -2.7917   -1.3692 H   0  0  0  0  0  0  0  0  0  0  0  0
   -3.7484    1.3248   -1.2286 H   0  0  0  0  0  0  0  0  0  0  0  0
   -3.9159    1.0247   -2.9353 H   0  0  0  0  0  0  0  0  0  0  0  0
   -1.5111   -1.1668   -3.0293 H   0  0  0  0  0  0  0  0  0  0  0  0
   -1.9915    0.0690   -4.2068 H   0  0  0  0  0  0  0  0  0  0  0  0
   -0.4011    0.1421   -3.4695 H   0  0  0  0  0  0  0  0  0  0  0  0
   -0.1705    1.1069   -1.2514 H   0  0  0  0  0  0  0  0  0  0  0  0
   -1.5710    1.5211   -0.3093 H   0  0  0  0  0  0  0  0  0  0  0  0
   -0.6428   -1.3453   -0.8791 H   0  0  0  0  0  0  0  0  0  0  0  0
   -2.0369   -0.9044    0.1255 H   0  0  0  0  0  0  0  0  0  0  0  0
   -0.5248    0.3665    1.6507 H   0  0  0  0  0  0  0  0  0  0  0  0
   -0.1546   -1.3853    1.5493 H   0  0  0  0  0  0  0  0  0  0  0  0
    0.9748   -0.3531    3.3077 H   0  0  0  0  0  0  0  0  0  0  0  0
    2.8207    0.0412    4.8573 H   0  0  0  0  0  0  0  0  0  0  0  0
    5.4565    0.9132    1.5739 H   0  0  0  0  0  0  0  0  0  0  0  0
  1  2  3  0
  2  3  1  0
  3  4  1  0
  4  5  1  0
  4  6  1  0
  6  7  1  0
  7  8  1  0
  8  9  1  0
  9 10  1  0
 10 11  2  0
 11 12  1  0
 12 13  2  0
 13 14  1  0
 13 15  1  0
 15 16  2  0
 16 17  1  0
 16 10  1  0
  1 18  1  0
  3 19  1  0
  3 20  1  0
  5 21  1  0
  5 22  1  0
  5 23  1  0
  6 24  1  0
  6 25  1  0
  7 26  1  0
  7 27  1  0
  8 28  1  0
  8 29  1  0
 11 30  1  0
 12 31  1  0
 15 32  1  0
M  END
$$$$
