
     RDKit          3D

 60 65  0  0  0  0  0  0  0  0999 V2000
    3.0358   -3.4581    3.7600 O   0  0  0  0  0  0  0  0  0  0  0  0
    3.0190   -2.8719    2.6834 C   0  0  0  0  0  0  0  0  0  0  0  0
    1.8436   -2.3626    2.1435 N   0  0  0  0  0  0  0  0  0  0  0  0
    1.7675   -1.6772    0.9318 C   0  0  0  0  0  0  0  0  0  0  0  0
    0.3653   -1.2238    0.5490 C   0  0  0  0  0  0  0  0  0  0  0  0
    0.3806   -0.1502   -0.5467 C   0  0  0  0  0  0  0  0  0  0  0  0
   -1.0358    0.2349   -0.9599 C   0  0  0  0  0  0  0  0  0  0  0  0
   -1.7523   -0.9813   -1.4074 N   0  0  0  0  0  0  0  0  0  0  0  0
   -3.1278   -0.7416   -2.3888 S   0  0  0  0  0  6  0  0  0  0  0  0
   -3.6321   -2.0418   -2.7777 O   0  0  0  0  0  0  0  0  0  0  0  0
   -2.8090    0.2638   -3.3799 O   0  0  0  0  0  0  0  0  0  0  0  0
   -4.3069   -0.0287   -1.2611 C   0  0  0  0  0  0  0  0  0  0  0  0
   -5.2137   -0.8588   -0.5913 C   0  0  0  0  0  0  0  0  0  0  0  0
   -6.1471   -0.2964    0.2805 C   0  0  0  0  0  0  0  0  0  0  0  0
   -6.1780    1.0851    0.4688 C   0  0  0  0  0  0  0  0  0  0  0  0
   -5.2995    1.9125   -0.2411 C   0  0  0  0  0  0  0  0  0  0  0  0
   -4.3567    1.3595   -1.1038 C   0  0  0  0  0  0  0  0  0  0  0  0
   -5.3053    3.2791   -0.1318 O   0  0  0  0  0  0  0  0  0  0  0  0
   -6.5235    3.7457    0.4610 C   0  0  0  0  0  0  0  0  0  0  0  0
   -6.8597    2.9304    1.6984 C   0  0  0  0  0  0  0  0  0  0  0  0
   -7.1084    1.5621    1.3554 O   0  0  0  0  0  0  0  0  0  0  0  0
   -1.8634   -2.0122   -0.3521 C   0  0  0  0  0  0  0  0  0  0  0  0
   -0.4653   -2.4322    0.0945 C   0  0  0  0  0  0  0  0  0  0  0  0
    2.7922   -1.4562    0.1558 N   0  0  0  0  0  0  0  0  0  0  0  0
    3.9525   -1.9408    0.6620 C   0  0  0  0  0  0  0  0  0  0  0  0
    4.1541   -2.6197    1.8392 C   0  0  0  0  0  0  0  0  0  0  0  0
    5.4674   -2.9416    1.9888 N   0  0  0  0  0  0  0  0  0  0  0  0
    6.1139   -2.4742    0.9201 N   0  0  0  0  0  0  0  0  0  0  0  0
    5.2049   -1.8568    0.1248 N   0  0  0  0  0  0  0  0  0  0  0  0
    5.6001   -1.2574   -1.1321 C   0  0  0  0  0  0  0  0  0  0  0  0
    5.7634    0.2378   -1.0025 C   0  0  0  0  0  0  0  0  0  0  0  0
    6.9387    0.7811   -0.4572 C   0  0  0  0  0  0  0  0  0  0  0  0
    7.0808    2.1629   -0.3229 C   0  0  0  0  0  0  0  0  0  0  0  0
    6.0497    3.0011   -0.7284 C   0  0  0  0  0  0  0  0  0  0  0  0
    6.1861    4.3272   -0.5967 F   0  0  0  0  0  0  0  0  0  0  0  0
    4.8762    2.4842   -1.2640 C   0  0  0  0  0  0  0  0  0  0  0  0
    4.7304    1.1031   -1.3996 C   0  0  0  0  0  0  0  0  0  0  0  0
    1.0243   -2.5099    2.7139 H   0  0  0  0  0  0  0  0  0  0  0  0
   -0.1000   -0.7992    1.4493 H   0  0  0  0  0  0  0  0  0  0  0  0
    0.9172    0.7390   -0.1947 H   0  0  0  0  0  0  0  0  0  0  0  0
    0.9211   -0.5170   -1.4292 H   0  0  0  0  0  0  0  0  0  0  0  0
   -0.9700    0.9673   -1.7705 H   0  0  0  0  0  0  0  0  0  0  0  0
   -1.5635    0.6976   -0.1186 H   0  0  0  0  0  0  0  0  0  0  0  0
   -5.2027   -1.9357   -0.7458 H   0  0  0  0  0  0  0  0  0  0  0  0
   -6.8508   -0.9320    0.8122 H   0  0  0  0  0  0  0  0  0  0  0  0
   -3.6843    2.0103   -1.6574 H   0  0  0  0  0  0  0  0  0  0  0  0
   -6.3812    4.7977    0.7272 H   0  0  0  0  0  0  0  0  0  0  0  0
   -7.3221    3.6875   -0.2888 H   0  0  0  0  0  0  0  0  0  0  0  0
   -7.7634    3.3215    2.1757 H   0  0  0  0  0  0  0  0  0  0  0  0
   -6.0448    2.9612    2.4318 H   0  0  0  0  0  0  0  0  0  0  0  0
   -2.4275   -1.6185    0.5006 H   0  0  0  0  0  0  0  0  0  0  0  0
   -2.3841   -2.8983   -0.7283 H   0  0  0  0  0  0  0  0  0  0  0  0
    0.0472   -2.9401   -0.7333 H   0  0  0  0  0  0  0  0  0  0  0  0
   -0.5498   -3.1666    0.9043 H   0  0  0  0  0  0  0  0  0  0  0  0
    4.8400   -1.5122   -1.8796 H   0  0  0  0  0  0  0  0  0  0  0  0
    6.5384   -1.7213   -1.4583 H   0  0  0  0  0  0  0  0  0  0  0  0
    7.7460    0.1293   -0.1262 H   0  0  0  0  0  0  0  0  0  0  0  0
    7.9858    2.5889    0.0989 H   0  0  0  0  0  0  0  0  0  0  0  0
    4.0831    3.1590   -1.5692 H   0  0  0  0  0  0  0  0  0  0  0  0
    3.8033    0.7047   -1.8088 H   0  0  0  0  0  0  0  0  0  0  0  0
  1  2  2  0
  2  3  1  0
  3  4  1  0
  4  5  1  0
  5  6  1  0
  6  7  1  0
  7  8  1  0
  8  9  1  0
  9 10  2  0
  9 11  2  0
  9 12  1  0
 12 13  2  0
 13 14  1  0
 14 15  2  0
 15 16  1  0
 16 17  2  0
 16 18  1  0
 18 19  1  0
 19 20  1  0
 20 21  1  0
  8 22  1  0
 22 23  1  0
  4 24  2  0
 24 25  1  0
 25 26  2  0
 26 27  1  0
 27 28  2  0
 28 29  1  0
 29 30  1  0
 30 31  1  0
 31 32  2  0
 32 33  1  0
 33 34  2  0
 34 35  1  0
 34 36  1  0
 36 37  2  0
 26  2  1  0
 37 31  1  0
 23  5  1  0
 29 25  1  0
 17 12  1  0
 21 15  1  0
  3 38  1  0
  5 39  1  0
  6 40  1  0
  6 41  1  0
  7 42  1  0
  7 43  1  0
 13 44  1  0
 14 45  1  0
 17 46  1  0
 19 47  1  0
 19 48  1  0
 20 49  1  0
 20 50  1  0
 22 51  1  0
 22 52  1  0
 23 53  1  0
 23 54  1  0
 30 55  1  0
 30 56  1  0
 32 57  1  0
 33 58  1  0
 36 59  1  0
 37 60  1  0
M  END
$$$$
