
     RDKit          3D

 73 75  0  0  0  0  0  0  0  0999 V2000
   -0.8498   -1.5516   -4.7858 C   0  0  0  0  0  0  0  0  0  0  0  0
   -1.4045   -0.4016   -3.9531 C   0  0  0  0  0  0  0  0  0  0  0  0
   -0.9943   -0.3972   -2.4709 C   0  0  0  0  0  0  0  0  0  0  0  0
    0.8243   -0.3545   -2.2452 S   0  0  0  0  0  0  0  0  0  0  0  0
    0.9836    1.2347   -1.5425 C   0  0  0  0  0  0  0  0  0  0  0  0
    0.5612    2.2240   -2.2578 N   0  0  0  0  0  0  0  0  0  0  0  0
    0.6942    3.5186   -1.7521 C   0  0  0  0  0  0  0  0  0  0  0  0
    0.3020    4.5928   -2.5531 C   0  0  0  0  0  0  0  0  0  0  0  0
    0.4197    5.9087   -2.0897 C   0  0  0  0  0  0  0  0  0  0  0  0
    0.0577    7.0187   -2.8126 O   0  0  0  0  0  0  0  0  0  0  0  0
   -0.3621    6.8256   -4.1563 C   0  0  0  0  0  0  0  0  0  0  0  0
    0.9329    6.1510   -0.7977 C   0  0  0  0  0  0  0  0  0  0  0  0
    1.0247    7.4704   -0.4243 O   0  0  0  0  0  0  0  0  0  0  0  0
    1.6165    7.7647    0.8337 C   0  0  0  0  0  0  0  0  0  0  0  0
    1.3148    5.0750    0.0076 C   0  0  0  0  0  0  0  0  0  0  0  0
    1.1989    3.7696   -0.4824 C   0  0  0  0  0  0  0  0  0  0  0  0
    1.6134    2.6098    0.3261 C   0  0  0  0  0  0  0  0  0  0  0  0
    1.9763    2.7901    1.4846 O   0  0  0  0  0  0  0  0  0  0  0  0
    1.5415    1.3580   -0.2830 N   0  0  0  0  0  0  0  0  0  0  0  0
    1.9743    0.2170    0.5389 C   0  0  0  0  0  0  0  0  0  0  0  0
    0.8448   -0.2850    1.4448 C   0  0  0  0  0  0  0  0  0  0  0  0
    1.2437   -1.5080    2.2287 C   0  0  0  0  0  0  0  0  0  0  0  0
    1.8013   -1.3836    3.5032 C   0  0  0  0  0  0  0  0  0  0  0  0
    2.1637   -2.5203    4.2312 C   0  0  0  0  0  0  0  0  0  0  0  0
    1.9692   -3.7998    3.6987 C   0  0  0  0  0  0  0  0  0  0  0  0
    2.2763   -4.9692    4.3523 O   0  0  0  0  0  0  0  0  0  0  0  0
    2.9067   -4.8652    5.6226 C   0  0  0  0  0  0  0  0  0  0  0  0
    1.4096   -3.9351    2.4129 C   0  0  0  0  0  0  0  0  0  0  0  0
    1.2329   -5.2228    1.9602 O   0  0  0  0  0  0  0  0  0  0  0  0
    0.5864   -5.3917    0.7066 C   0  0  0  0  0  0  0  0  0  0  0  0
    1.0672   -2.7890    1.6840 C   0  0  0  0  0  0  0  0  0  0  0  0
   -1.5950   -1.5844   -1.6993 C   0  0  0  0  0  0  0  0  0  0  0  0
   -0.9350   -2.5080   -1.2274 O   0  0  0  0  0  0  0  0  0  0  0  0
   -2.9701   -1.5232   -1.5560 N   0  0  0  0  0  0  0  0  0  0  0  0
   -3.6975   -2.5364   -0.8165 C   0  0  0  0  0  0  0  0  0  0  0  0
   -3.8458   -2.1829    0.6637 C   0  0  0  0  0  0  0  0  0  0  0  0
   -4.5867   -3.2015    1.3403 O   0  0  0  0  0  0  0  0  0  0  0  0
   -3.7329   -4.1673    1.9415 C   0  0  0  0  0  0  0  0  0  0  0  0
    0.2313   -1.4637   -4.9268 H   0  0  0  0  0  0  0  0  0  0  0  0
   -1.0700   -2.5238   -4.3350 H   0  0  0  0  0  0  0  0  0  0  0  0
   -1.3093   -1.5418   -5.7798 H   0  0  0  0  0  0  0  0  0  0  0  0
   -1.0941    0.5455   -4.4138 H   0  0  0  0  0  0  0  0  0  0  0  0
   -2.4962   -0.4291   -4.0311 H   0  0  0  0  0  0  0  0  0  0  0  0
   -1.4261    0.5022   -2.0099 H   0  0  0  0  0  0  0  0  0  0  0  0
   -0.0932    4.3702   -3.5391 H   0  0  0  0  0  0  0  0  0  0  0  0
   -1.2953    6.2542   -4.1981 H   0  0  0  0  0  0  0  0  0  0  0  0
   -0.5545    7.8107   -4.5921 H   0  0  0  0  0  0  0  0  0  0  0  0
    0.4225    6.3485   -4.7533 H   0  0  0  0  0  0  0  0  0  0  0  0
    1.6885    8.8538    0.9292 H   0  0  0  0  0  0  0  0  0  0  0  0
    2.6307    7.3633    0.8994 H   0  0  0  0  0  0  0  0  0  0  0  0
    0.9931    7.3989    1.6559 H   0  0  0  0  0  0  0  0  0  0  0  0
    1.7079    5.2253    1.0075 H   0  0  0  0  0  0  0  0  0  0  0  0
    2.3583   -0.5885   -0.0954 H   0  0  0  0  0  0  0  0  0  0  0  0
    2.8273    0.5295    1.1557 H   0  0  0  0  0  0  0  0  0  0  0  0
   -0.0530   -0.5128    0.8555 H   0  0  0  0  0  0  0  0  0  0  0  0
    0.5312    0.5059    2.1381 H   0  0  0  0  0  0  0  0  0  0  0  0
    1.9489   -0.4014    3.9495 H   0  0  0  0  0  0  0  0  0  0  0  0
    2.5826   -2.3757    5.2204 H   0  0  0  0  0  0  0  0  0  0  0  0
    3.8571   -4.3271    5.5556 H   0  0  0  0  0  0  0  0  0  0  0  0
    2.2375   -4.4018    6.3549 H   0  0  0  0  0  0  0  0  0  0  0  0
    3.1257   -5.8801    5.9705 H   0  0  0  0  0  0  0  0  0  0  0  0
   -0.4117   -4.9407    0.7053 H   0  0  0  0  0  0  0  0  0  0  0  0
    1.1989   -5.0053   -0.1151 H   0  0  0  0  0  0  0  0  0  0  0  0
    0.4602   -6.4662    0.5475 H   0  0  0  0  0  0  0  0  0  0  0  0
    0.6533   -2.8723    0.6854 H   0  0  0  0  0  0  0  0  0  0  0  0
   -3.4887   -0.7371   -1.9262 H   0  0  0  0  0  0  0  0  0  0  0  0
   -4.6820   -2.6504   -1.2892 H   0  0  0  0  0  0  0  0  0  0  0  0
   -3.1840   -3.5019   -0.9197 H   0  0  0  0  0  0  0  0  0  0  0  0
   -2.8733   -2.0078    1.1431 H   0  0  0  0  0  0  0  0  0  0  0  0
   -4.4160   -1.2519    0.7561 H   0  0  0  0  0  0  0  0  0  0  0  0
   -4.3601   -4.9614    2.3617 H   0  0  0  0  0  0  0  0  0  0  0  0
   -3.0542   -4.6054    1.2016 H   0  0  0  0  0  0  0  0  0  0  0  0
   -3.1572   -3.7119    2.7556 H   0  0  0  0  0  0  0  0  0  0  0  0
  1  2  1  0
  2  3  1  0
  3  4  1  0
  4  5  1  0
  5  6  2  0
  6  7  1  0
  7  8  2  0
  8  9  1  0
  9 10  1  0
 10 11  1  0
  9 12  2  0
 12 13  1  0
 13 14  1  0
 12 15  1  0
 15 16  2  0
 16 17  1  0
 17 18  2  0
 17 19  1  0
 19 20  1  0
 20 21  1  0
 21 22  1  0
 22 23  2  0
 23 24  1  0
 24 25  2  0
 25 26  1  0
 26 27  1  0
 25 28  1  0
 28 29  1  0
 29 30  1  0
 28 31  2  0
  3 32  1  0
 32 33  2  0
 32 34  1  0
 34 35  1  0
 35 36  1  0
 36 37  1  0
 37 38  1  0
 19  5  1  0
 31 22  1  0
 16  7  1  0
  1 39  1  0
  1 40  1  0
  1 41  1  0
  2 42  1  0
  2 43  1  0
  3 44  1  0
  8 45  1  0
 11 46  1  0
 11 47  1  0
 11 48  1  0
 14 49  1  0
 14 50  1  0
 14 51  1  0
 15 52  1  0
 20 53  1  0
 20 54  1  0
 21 55  1  0
 21 56  1  0
 23 57  1  0
 24 58  1  0
 27 59  1  0
 27 60  1  0
 27 61  1  0
 30 62  1  0
 30 63  1  0
 30 64  1  0
 31 65  1  0
 34 66  1  0
 35 67  1  0
 35 68  1  0
 36 69  1  0
 36 70  1  0
 38 71  1  0
 38 72  1  0
 38 73  1  0
M  END
$$$$
