
     RDKit          3D

 56 61  0  0  0  0  0  0  0  0999 V2000
   -5.0983   -3.0132    0.8780 C   0  0  0  0  0  0  0  0  0  0  0  0
   -3.9601   -2.1575    1.3473 C   0  0  0  0  0  0  0  0  0  0  0  0
   -3.9841   -1.5239    2.6051 C   0  0  0  0  0  0  0  0  0  0  0  0
   -5.3381   -1.6966    3.6692 Cl  0  0  0  0  0  0  0  0  0  0  0  0
   -2.9107   -0.7284    3.0533 C   0  0  0  0  0  0  0  0  0  0  0  0
   -1.7784   -0.5421    2.2602 C   0  0  0  0  0  0  0  0  0  0  0  0
   -1.7448   -1.1581    1.0203 C   0  0  0  0  0  0  0  0  0  0  0  0
   -2.8161   -1.9542    0.5853 C   0  0  0  0  0  0  0  0  0  0  0  0
   -2.5256   -2.4773   -0.6740 N   0  0  0  0  0  0  0  0  0  0  0  0
   -1.2616   -2.0875   -1.1190 C   0  0  0  0  0  0  0  0  0  0  0  0
   -0.7324   -2.4685   -2.1518 O   0  0  0  0  0  0  0  0  0  0  0  0
   -0.6787   -1.1445   -0.0360 C   0  0  0  0  0  0  0  0  0  0  0  0
    0.6667   -1.5844    0.4344 N   0  0  0  0  0  0  0  0  0  0  0  0
    1.7099   -0.6517   -0.1185 C   0  0  2  0  0  0  0  0  0  0  0  0
    2.7706   -0.3252    0.9431 C   0  0  0  0  0  0  0  0  0  0  0  0
    3.6902   -1.4903    1.2302 C   0  0  0  0  0  0  0  0  0  0  0  0
    3.4032   -2.3793    2.2748 C   0  0  0  0  0  0  0  0  0  0  0  0
    4.2408   -3.4658    2.5296 C   0  0  0  0  0  0  0  0  0  0  0  0
    5.3708   -3.6754    1.7418 C   0  0  0  0  0  0  0  0  0  0  0  0
    5.6635   -2.7998    0.6978 C   0  0  0  0  0  0  0  0  0  0  0  0
    4.8269   -1.7125    0.4408 C   0  0  0  0  0  0  0  0  0  0  0  0
    0.9015    0.5182   -0.5408 C   0  0  0  0  0  0  0  0  0  0  0  0
   -0.4614    0.2358   -0.4985 C   0  0  0  0  0  0  0  0  0  0  0  0
   -1.1568    1.3468   -0.9044 C   0  0  0  0  0  0  0  0  0  0  0  0
   -2.4710    1.5538   -0.9536 O   0  0  0  0  0  0  0  0  0  0  0  0
   -0.2099    2.3441   -1.2316 N   0  0  0  0  0  0  0  0  0  0  0  0
   -0.4971    3.6741   -1.7001 C   0  0  0  0  0  0  0  0  0  0  0  0
   -1.7074    3.9648   -2.3468 C   0  0  0  0  0  0  0  0  0  0  0  0
   -1.9842    5.2592   -2.8003 C   0  0  0  0  0  0  0  0  0  0  0  0
   -1.0582    6.2805   -2.6127 C   0  0  0  0  0  0  0  0  0  0  0  0
    0.1465    6.0082   -1.9721 C   0  0  0  0  0  0  0  0  0  0  0  0
    0.4268    4.7144   -1.5193 C   0  0  0  0  0  0  0  0  0  0  0  0
    1.0736    1.7917   -1.0165 C   0  0  0  0  0  0  0  0  0  0  0  0
    2.1973    2.4406   -1.3125 O   0  0  0  0  0  0  0  0  0  0  0  0
   -6.0336   -2.4439    0.8864 H   0  0  0  0  0  0  0  0  0  0  0  0
   -5.2012   -3.8925    1.5221 H   0  0  0  0  0  0  0  0  0  0  0  0
   -4.9575   -3.3721   -0.1452 H   0  0  0  0  0  0  0  0  0  0  0  0
   -2.9571   -0.2528    4.0312 H   0  0  0  0  0  0  0  0  0  0  0  0
   -0.9475    0.0666    2.6057 H   0  0  0  0  0  0  0  0  0  0  0  0
   -3.1009   -3.1163   -1.2025 H   0  0  0  0  0  0  0  0  0  0  0  0
    0.8560   -2.5153    0.0624 H   0  0  0  0  0  0  0  0  0  0  0  0
    2.1641   -1.1097   -1.0066 H   0  0  0  0  0  0  0  0  0  0  0  0
    3.3855    0.5236    0.6167 H   0  0  0  0  0  0  0  0  0  0  0  0
    2.2974    0.0122    1.8759 H   0  0  0  0  0  0  0  0  0  0  0  0
    2.5193   -2.2317    2.8923 H   0  0  0  0  0  0  0  0  0  0  0  0
    4.0100   -4.1495    3.3423 H   0  0  0  0  0  0  0  0  0  0  0  0
    6.0229   -4.5217    1.9410 H   0  0  0  0  0  0  0  0  0  0  0  0
    6.5446   -2.9647    0.0831 H   0  0  0  0  0  0  0  0  0  0  0  0
    5.0713   -1.0410   -0.3787 H   0  0  0  0  0  0  0  0  0  0  0  0
   -2.9194    0.7823   -0.5666 H   0  0  0  0  0  0  0  0  0  0  0  0
   -2.4462    3.1957   -2.5490 H   0  0  0  0  0  0  0  0  0  0  0  0
   -2.9241    5.4633   -3.3065 H   0  0  0  0  0  0  0  0  0  0  0  0
   -1.2745    7.2852   -2.9649 H   0  0  0  0  0  0  0  0  0  0  0  0
    0.8716    6.8027   -1.8167 H   0  0  0  0  0  0  0  0  0  0  0  0
    1.3648    4.5601   -0.9951 H   0  0  0  0  0  0  0  0  0  0  0  0
    2.9411    1.8234   -1.2130 H   0  0  0  0  0  0  0  0  0  0  0  0
  1  2  1  0
  2  3  2  0
  3  4  1  0
  3  5  1  0
  5  6  2  0
  6  7  1  0
  7  8  2  0
  8  9  1  0
  9 10  1  0
 10 11  2  0
 10 12  1  0
 12 13  1  0
 13 14  1  0
 14 15  1  0
 15 16  1  0
 16 17  2  0
 17 18  1  0
 18 19  2  0
 19 20  1  0
 20 21  2  0
 14 22  1  0
 22 23  1  0
 23 24  2  0
 24 25  1  0
 24 26  1  0
 26 27  1  0
 27 28  2  0
 28 29  1  0
 29 30  2  0
 30 31  1  0
 31 32  2  0
 26 33  1  0
 33 34  1  0
  8  2  1  0
 23 12  1  0
 32 27  1  0
 12  7  1  0
 21 16  1  0
 33 22  2  0
  1 35  1  0
  1 36  1  0
  1 37  1  0
  5 38  1  0
  6 39  1  0
  9 40  1  0
 13 41  1  0
 14 42  1  6
 15 43  1  0
 15 44  1  0
 17 45  1  0
 18 46  1  0
 19 47  1  0
 20 48  1  0
 21 49  1  0
 25 50  1  0
 28 51  1  0
 29 52  1  0
 30 53  1  0
 31 54  1  0
 32 55  1  0
 34 56  1  0
M  END
$$$$
