
     RDKit          3D

 33 35  0  0  0  0  0  0  0  0999 V2000
    3.1821   -0.5960   -2.2199 O   0  0  0  0  0  0  0  0  0  0  0  0
    3.6950   -0.6378   -0.9516 C   0  0  0  0  0  0  0  0  0  0  0  0
    5.0803   -0.7465   -0.8476 C   0  0  0  0  0  0  0  0  0  0  0  0
    5.6791   -0.8196    0.4092 C   0  0  0  0  0  0  0  0  0  0  0  0
    4.8908   -0.7840    1.5586 C   0  0  0  0  0  0  0  0  0  0  0  0
    3.5020   -0.6693    1.4523 C   0  0  0  0  0  0  0  0  0  0  0  0
    2.8887   -0.5879    0.1951 C   0  0  0  0  0  0  0  0  0  0  0  0
    1.4295   -0.4483    0.1437 C   0  0  0  0  0  0  0  0  0  0  0  0
    0.8435    0.6888   -0.2656 C   0  0  0  0  0  0  0  0  0  0  0  0
   -0.6112    0.8871   -0.3304 C   0  0  0  0  0  0  0  0  0  0  0  0
   -1.1267    2.1238   -0.6976 C   0  0  0  0  0  0  0  0  0  0  0  0
   -2.5086    2.2830   -0.7586 C   0  0  0  0  0  0  0  0  0  0  0  0
   -3.3456    1.2047   -0.4534 C   0  0  0  0  0  0  0  0  0  0  0  0
   -4.7493    1.3079   -0.4980 C   0  0  0  0  0  0  0  0  0  0  0  0
   -5.5502    0.2077   -0.1864 C   0  0  0  0  0  0  0  0  0  0  0  0
   -4.9571   -0.9985    0.1707 C   0  0  0  0  0  0  0  0  0  0  0  0
   -3.5688   -1.0862    0.2107 C   0  0  0  0  0  0  0  0  0  0  0  0
   -3.0079   -2.2897    0.5670 O   0  0  0  0  0  0  0  0  0  0  0  0
   -2.7367   -0.0121   -0.0932 C   0  0  0  0  0  0  0  0  0  0  0  0
   -1.3971   -0.1746   -0.0328 N   0  0  0  0  0  0  0  0  0  0  0  0
    2.2148   -0.6725   -2.1552 H   0  0  0  0  0  0  0  0  0  0  0  0
    5.6898   -0.7814   -1.7462 H   0  0  0  0  0  0  0  0  0  0  0  0
    6.7593   -0.9079    0.4910 H   0  0  0  0  0  0  0  0  0  0  0  0
    5.3567   -0.8432    2.5390 H   0  0  0  0  0  0  0  0  0  0  0  0
    2.9025   -0.6356    2.3595 H   0  0  0  0  0  0  0  0  0  0  0  0
    0.8535   -1.3057    0.4812 H   0  0  0  0  0  0  0  0  0  0  0  0
    1.4562    1.5350   -0.5674 H   0  0  0  0  0  0  0  0  0  0  0  0
   -0.4751    2.9589   -0.9332 H   0  0  0  0  0  0  0  0  0  0  0  0
   -2.9238    3.2464   -1.0433 H   0  0  0  0  0  0  0  0  0  0  0  0
   -5.2249    2.2461   -0.7758 H   0  0  0  0  0  0  0  0  0  0  0  0
   -6.6334    0.2919   -0.2221 H   0  0  0  0  0  0  0  0  0  0  0  0
   -5.5642   -1.8647    0.4164 H   0  0  0  0  0  0  0  0  0  0  0  0
   -2.0429   -2.1197    0.5297 H   0  0  0  0  0  0  0  0  0  0  0  0
  1  2  1  0
  2  3  2  0
  3  4  1  0
  4  5  2  0
  5  6  1  0
  6  7  2  0
  7  8  1  0
  8  9  2  0
  9 10  1  0
 10 11  2  0
 11 12  1  0
 12 13  2  0
 13 14  1  0
 14 15  2  0
 15 16  1  0
 16 17  2  0
 17 18  1  0
 17 19  1  0
 19 20  2  0
  7  2  1  0
 20 10  1  0
 19 13  1  0
  1 21  1  0
  3 22  1  0
  4 23  1  0
  5 24  1  0
  6 25  1  0
  8 26  1  0
  9 27  1  0
 11 28  1  0
 12 29  1  0
 14 30  1  0
 15 31  1  0
 16 32  1  0
 18 33  1  0
M  END
$$$$
