
     RDKit          3D

 49 53  0  0  0  0  0  0  0  0999 V2000
    6.0487    0.7619    1.1551 C   0  0  0  0  0  0  0  0  0  0  0  0
    4.8947   -0.0585    0.6742 C   0  0  0  0  0  0  0  0  0  0  0  0
    4.9014   -0.6454   -0.9268 S   0  0  0  0  0  0  0  0  0  0  0  0
    3.3964   -1.4030   -0.7304 C   0  0  0  0  0  0  0  0  0  0  0  0
    2.8566   -2.0763   -1.7608 N   0  0  0  0  0  0  0  0  0  0  0  0
    1.6805   -2.6207   -1.4601 C   0  0  0  0  0  0  0  0  0  0  0  0
    1.0299   -2.5441   -0.2950 N   0  0  0  0  0  0  0  0  0  0  0  0
    1.6007   -1.8503    0.7119 C   0  0  0  0  0  0  0  0  0  0  0  0
    0.7250   -1.7906    2.2483 S   0  0  0  0  0  0  0  0  0  0  0  0
   -0.8845   -1.0464    1.7207 C   0  0  0  0  0  0  0  0  0  0  0  0
   -1.7576   -2.1051    1.0488 C   0  0  0  0  0  0  0  0  0  0  0  0
   -0.6515    0.2536    0.9095 C   0  0  0  0  0  0  0  0  0  0  0  0
    0.3208    0.9885    1.1037 O   0  0  0  0  0  0  0  0  0  0  0  0
   -1.6634    0.5643   -0.0081 N   0  0  0  0  0  0  0  0  0  0  0  0
   -2.9536    0.9894    0.4718 C   0  0  0  0  0  0  0  0  0  0  0  0
   -3.0960    1.3811    1.8218 C   0  0  0  0  0  0  0  0  0  0  0  0
   -4.3248    1.7910    2.3470 C   0  0  0  0  0  0  0  0  0  0  0  0
   -5.4450    1.8282    1.5320 C   0  0  0  0  0  0  0  0  0  0  0  0
   -5.3271    1.4677    0.1928 C   0  0  0  0  0  0  0  0  0  0  0  0
   -4.0919    1.0600   -0.3437 C   0  0  0  0  0  0  0  0  0  0  0  0
   -4.0879    0.6121   -2.0544 S   0  0  0  0  0  0  0  0  0  0  0  0
   -2.3533    0.6989   -2.4067 C   0  0  0  0  0  0  0  0  0  0  0  0
   -2.0029    0.7478   -3.7697 C   0  0  0  0  0  0  0  0  0  0  0  0
   -0.6705    0.7365   -4.1696 C   0  0  0  0  0  0  0  0  0  0  0  0
    0.3239    0.6691   -3.2080 C   0  0  0  0  0  0  0  0  0  0  0  0
   -0.0190    0.6211   -1.8530 C   0  0  0  0  0  0  0  0  0  0  0  0
   -1.3601    0.6442   -1.4151 C   0  0  0  0  0  0  0  0  0  0  0  0
    2.8557   -1.2347    0.5379 C   0  0  0  0  0  0  0  0  0  0  0  0
    3.7496   -0.4323    1.3685 C   0  0  0  0  0  0  0  0  0  0  0  0
    3.4799   -0.0399    2.7895 C   0  0  0  0  0  0  0  0  0  0  0  0
    5.7051    1.7574    1.4553 H   0  0  0  0  0  0  0  0  0  0  0  0
    6.8194    0.8931    0.3885 H   0  0  0  0  0  0  0  0  0  0  0  0
    6.5186    0.2822    2.0201 H   0  0  0  0  0  0  0  0  0  0  0  0
    1.1925   -3.1845   -2.2489 H   0  0  0  0  0  0  0  0  0  0  0  0
   -1.3718   -0.7547    2.6571 H   0  0  0  0  0  0  0  0  0  0  0  0
   -1.7366   -3.0564    1.5919 H   0  0  0  0  0  0  0  0  0  0  0  0
   -1.4722   -2.2888    0.0092 H   0  0  0  0  0  0  0  0  0  0  0  0
   -2.8046   -1.7838    1.0302 H   0  0  0  0  0  0  0  0  0  0  0  0
   -2.2409    1.4208    2.4933 H   0  0  0  0  0  0  0  0  0  0  0  0
   -4.3978    2.0928    3.3892 H   0  0  0  0  0  0  0  0  0  0  0  0
   -6.4048    2.1471    1.9300 H   0  0  0  0  0  0  0  0  0  0  0  0
   -6.2131    1.5094   -0.4389 H   0  0  0  0  0  0  0  0  0  0  0  0
   -2.7763    0.7838   -4.5351 H   0  0  0  0  0  0  0  0  0  0  0  0
   -0.4133    0.7740   -5.2247 H   0  0  0  0  0  0  0  0  0  0  0  0
    1.3719    0.6559   -3.5002 H   0  0  0  0  0  0  0  0  0  0  0  0
    0.8097    0.5900   -1.1513 H   0  0  0  0  0  0  0  0  0  0  0  0
    3.3846   -0.9285    3.4209 H   0  0  0  0  0  0  0  0  0  0  0  0
    4.2893    0.5657    3.2087 H   0  0  0  0  0  0  0  0  0  0  0  0
    2.5653    0.5566    2.8576 H   0  0  0  0  0  0  0  0  0  0  0  0
  1  2  1  0
  2  3  1  0
  3  4  1  0
  4  5  2  0
  5  6  1  0
  6  7  2  0
  7  8  1  0
  8  9  1  0
  9 10  1  0
 10 11  1  0
 10 12  1  0
 12 13  2  0
 12 14  1  0
 14 15  1  0
 15 16  2  0
 16 17  1  0
 17 18  2  0
 18 19  1  0
 19 20  2  0
 20 21  1  0
 21 22  1  0
 22 23  2  0
 23 24  1  0
 24 25  2  0
 25 26  1  0
 26 27  2  0
  8 28  2  0
 28 29  1  0
 29 30  1  0
 29  2  2  0
 28  4  1  0
 27 14  1  0
 20 15  1  0
 27 22  1  0
  1 31  1  0
  1 32  1  0
  1 33  1  0
  6 34  1  0
 10 35  1  0
 11 36  1  0
 11 37  1  0
 11 38  1  0
 16 39  1  0
 17 40  1  0
 18 41  1  0
 19 42  1  0
 23 43  1  0
 24 44  1  0
 25 45  1  0
 26 46  1  0
 30 47  1  0
 30 48  1  0
 30 49  1  0
M  END
$$$$
