
     RDKit          3D

 28 28  0  0  0  0  0  0  0  0999 V2000
   -2.8745   -0.6362   -0.8644 C   0  0  0  0  0  0  0  0  0  0  0  0
   -1.8927   -0.0817    0.1768 C   0  0  0  0  0  0  0  0  0  0  0  0
   -1.2163   -1.2313    0.9329 C   0  0  0  0  0  0  0  0  0  0  0  0
   -2.6855    0.7726    1.1831 C   0  0  0  0  0  0  0  0  0  0  0  0
   -0.8122    0.7917   -0.5043 C   0  0  0  0  0  0  0  0  0  0  0  0
   -0.5421    1.9116   -0.0611 O   0  0  0  0  0  0  0  0  0  0  0  0
   -0.1370    0.2242   -1.7507 C   0  0  0  0  0  0  0  0  0  0  0  0
    1.4334    1.0388   -2.1535 S   0  0  0  0  0  0  0  0  0  0  0  0
    2.3792    0.6165   -0.7124 C   0  0  0  0  0  0  0  0  0  0  0  0
    3.4584    1.3758   -0.4596 N   0  0  0  0  0  0  0  0  0  0  0  0
    4.1860    1.0444    0.6214 C   0  0  0  0  0  0  0  0  0  0  0  0
    3.8876   -0.0181    1.4388 C   0  0  0  0  0  0  0  0  0  0  0  0
    2.7772   -0.7438    1.0811 C   0  0  0  0  0  0  0  0  0  0  0  0
    2.0100   -0.4566    0.0124 N   0  0  0  0  0  0  0  0  0  0  0  0
   -3.3035    0.1705   -1.4697 H   0  0  0  0  0  0  0  0  0  0  0  0
   -2.3872   -1.3372   -1.5507 H   0  0  0  0  0  0  0  0  0  0  0  0
   -3.7002   -1.1737   -0.3846 H   0  0  0  0  0  0  0  0  0  0  0  0
   -0.6780   -1.9030    0.2563 H   0  0  0  0  0  0  0  0  0  0  0  0
   -0.4909   -0.8506    1.6606 H   0  0  0  0  0  0  0  0  0  0  0  0
   -1.9519   -1.8344    1.4770 H   0  0  0  0  0  0  0  0  0  0  0  0
   -3.1646    1.6248    0.6872 H   0  0  0  0  0  0  0  0  0  0  0  0
   -3.4703    0.1854    1.6732 H   0  0  0  0  0  0  0  0  0  0  0  0
   -2.0336    1.1737    1.9678 H   0  0  0  0  0  0  0  0  0  0  0  0
    0.0333   -0.8497   -1.6438 H   0  0  0  0  0  0  0  0  0  0  0  0
   -0.8166    0.3766   -2.5948 H   0  0  0  0  0  0  0  0  0  0  0  0
    5.0445    1.6812    0.8143 H   0  0  0  0  0  0  0  0  0  0  0  0
    4.4869   -0.2661    2.3032 H   0  0  0  0  0  0  0  0  0  0  0  0
    2.4609   -1.6054    1.6620 H   0  0  0  0  0  0  0  0  0  0  0  0
  1  2  1  0
  2  3  1  0
  2  4  1  0
  2  5  1  0
  5  6  2  0
  5  7  1  0
  7  8  1  0
  8  9  1  0
  9 10  2  0
 10 11  1  0
 11 12  2  0
 12 13  1  0
 13 14  2  0
 14  9  1  0
  1 15  1  0
  1 16  1  0
  1 17  1  0
  3 18  1  0
  3 19  1  0
  3 20  1  0
  4 21  1  0
  4 22  1  0
  4 23  1  0
  7 24  1  0
  7 25  1  0
 11 26  1  0
 12 27  1  0
 13 28  1  0
M  END
$$$$
