
     RDKit          3D

 74 79  0  0  0  0  0  0  0  0999 V2000
    9.1429    0.7492    2.2346 C   0  0  0  0  0  0  0  0  0  0  0  0
    7.7858    0.6007    2.6318 O   0  0  0  0  0  0  0  0  0  0  0  0
    6.8598    0.4805    1.6325 C   0  0  0  0  0  0  0  0  0  0  0  0
    7.1128    0.5388    0.2652 C   0  0  0  0  0  0  0  0  0  0  0  0
    6.0625    0.3932   -0.6533 C   0  0  0  0  0  0  0  0  0  0  0  0
    4.7358    0.1918   -0.2348 C   0  0  0  0  0  0  0  0  0  0  0  0
    3.6468    0.0168   -1.2172 C   0  0  0  0  0  0  0  0  0  0  0  0
    2.3462    0.4216   -0.9743 C   0  0  0  0  0  0  0  0  0  0  0  0
    1.3521    0.1320   -1.9175 C   0  0  0  0  0  0  0  0  0  0  0  0
   -0.0488    0.5391   -1.5888 C   0  0  0  0  0  0  0  0  0  0  0  0
   -0.7693    1.0107   -2.4567 O   0  0  0  0  0  0  0  0  0  0  0  0
   -0.3962    0.3337   -0.2723 N   0  0  0  0  0  0  0  0  0  0  0  0
   -1.5788    0.6958    0.4003 C   0  0  0  0  0  0  0  0  0  0  0  0
   -2.6558    1.3406   -0.2009 C   0  0  0  0  0  0  0  0  0  0  0  0
   -3.7822    1.6457    0.5692 C   0  0  0  0  0  0  0  0  0  0  0  0
   -5.1671    2.4661   -0.1951 S   0  0  0  0  0  6  0  0  0  0  0  0
   -4.6709    3.2093   -1.3323 O   0  0  0  0  0  0  0  0  0  0  0  0
   -5.9122    3.1271    0.8574 O   0  0  0  0  0  0  0  0  0  0  0  0
   -6.1108    1.1841   -0.7780 N   0  0  0  0  0  0  0  0  0  0  0  0
   -6.7776    0.3185    0.2313 C   0  0  0  0  0  0  0  0  0  0  0  0
   -7.8371   -0.5407   -0.4669 C   0  0  0  0  0  0  0  0  0  0  0  0
   -7.2435   -1.3485   -1.4947 O   0  0  0  0  0  0  0  0  0  0  0  0
   -6.6339   -0.5152   -2.4981 C   0  0  0  0  0  0  0  0  0  0  0  0
   -5.5408    0.3793   -1.8983 C   0  0  0  0  0  0  0  0  0  0  0  0
   -3.8188    1.3585    1.9378 C   0  0  0  0  0  0  0  0  0  0  0  0
   -2.7345    0.7189    2.5403 C   0  0  0  0  0  0  0  0  0  0  0  0
   -1.6065    0.3754    1.7826 C   0  0  0  0  0  0  0  0  0  0  0  0
   -0.4775   -0.2801    2.3378 N   0  0  0  0  0  0  0  0  0  0  0  0
   -0.7502   -1.7101    2.6288 C   0  0  0  0  0  0  0  0  0  0  0  0
    0.4106   -2.2882    3.4510 C   0  0  0  0  0  0  0  0  0  0  0  0
    0.5781   -1.6538    4.7298 O   0  0  0  0  0  0  0  0  0  0  0  0
    0.0363   -0.3260    4.7876 C   0  0  0  0  0  0  0  0  0  0  0  0
    0.1646    0.4445    3.4649 C   0  0  0  0  0  0  0  0  0  0  0  0
    1.6852   -0.5156   -3.1313 C   0  0  0  0  0  0  0  0  0  0  0  0
    0.7720   -0.8652   -4.1611 C   0  0  0  0  0  0  0  0  0  0  0  0
    1.1999   -1.4958   -5.3289 C   0  0  0  0  0  0  0  0  0  0  0  0
    2.5436   -1.7960   -5.4877 C   0  0  0  0  0  0  0  0  0  0  0  0
    3.4467   -1.4706   -4.4749 C   0  0  0  0  0  0  0  0  0  0  0  0
    3.0451   -0.8434   -3.3024 C   0  0  0  0  0  0  0  0  0  0  0  0
    3.9852   -0.5934   -2.3760 N   0  0  0  0  0  0  0  0  0  0  0  0
    4.5045    0.1329    1.1505 C   0  0  0  0  0  0  0  0  0  0  0  0
    5.5516    0.2764    2.0686 C   0  0  0  0  0  0  0  0  0  0  0  0
    9.4823   -0.1140    1.6534 H   0  0  0  0  0  0  0  0  0  0  0  0
    9.7533    0.7978    3.1425 H   0  0  0  0  0  0  0  0  0  0  0  0
    9.2886    1.6801    1.6796 H   0  0  0  0  0  0  0  0  0  0  0  0
    8.1115    0.6916   -0.1282 H   0  0  0  0  0  0  0  0  0  0  0  0
    6.2901    0.4372   -1.7184 H   0  0  0  0  0  0  0  0  0  0  0  0
    2.1097    0.9723   -0.0690 H   0  0  0  0  0  0  0  0  0  0  0  0
    0.2538   -0.1377    0.3528 H   0  0  0  0  0  0  0  0  0  0  0  0
   -2.6383    1.6096   -1.2522 H   0  0  0  0  0  0  0  0  0  0  0  0
   -6.0322   -0.3306    0.7014 H   0  0  0  0  0  0  0  0  0  0  0  0
   -7.2654    0.9265    0.9997 H   0  0  0  0  0  0  0  0  0  0  0  0
   -8.6295    0.0798   -0.9050 H   0  0  0  0  0  0  0  0  0  0  0  0
   -8.3017   -1.2185    0.2580 H   0  0  0  0  0  0  0  0  0  0  0  0
   -7.4140    0.0816   -2.9866 H   0  0  0  0  0  0  0  0  0  0  0  0
   -6.1955   -1.1798   -3.2515 H   0  0  0  0  0  0  0  0  0  0  0  0
   -4.7301   -0.2491   -1.5177 H   0  0  0  0  0  0  0  0  0  0  0  0
   -5.1540    1.0371   -2.6793 H   0  0  0  0  0  0  0  0  0  0  0  0
   -4.6842    1.6284    2.5380 H   0  0  0  0  0  0  0  0  0  0  0  0
   -2.7802    0.4919    3.6005 H   0  0  0  0  0  0  0  0  0  0  0  0
   -0.8479   -2.2617    1.6870 H   0  0  0  0  0  0  0  0  0  0  0  0
   -1.6813   -1.8270    3.1965 H   0  0  0  0  0  0  0  0  0  0  0  0
    0.2525   -3.3556    3.6328 H   0  0  0  0  0  0  0  0  0  0  0  0
    1.3551   -2.1821    2.9051 H   0  0  0  0  0  0  0  0  0  0  0  0
   -1.0134   -0.4073    5.0912 H   0  0  0  0  0  0  0  0  0  0  0  0
    0.5628    0.2088    5.5850 H   0  0  0  0  0  0  0  0  0  0  0  0
    1.2288    0.5347    3.2140 H   0  0  0  0  0  0  0  0  0  0  0  0
   -0.2200    1.4653    3.5787 H   0  0  0  0  0  0  0  0  0  0  0  0
   -0.2879   -0.6371   -4.0682 H   0  0  0  0  0  0  0  0  0  0  0  0
    0.4865   -1.7437   -6.1098 H   0  0  0  0  0  0  0  0  0  0  0  0
    2.8946   -2.2817   -6.3948 H   0  0  0  0  0  0  0  0  0  0  0  0
    4.4976   -1.7184   -4.6057 H   0  0  0  0  0  0  0  0  0  0  0  0
    3.5071   -0.0522    1.5427 H   0  0  0  0  0  0  0  0  0  0  0  0
    5.3457    0.2153    3.1342 H   0  0  0  0  0  0  0  0  0  0  0  0
  1  2  1  0
  2  3  1  0
  3  4  2  0
  4  5  1  0
  5  6  2  0
  6  7  1  0
  7  8  2  0
  8  9  1  0
  9 10  1  0
 10 11  2  0
 10 12  1  0
 12 13  1  0
 13 14  2  0
 14 15  1  0
 15 16  1  0
 16 17  2  0
 16 18  2  0
 16 19  1  0
 19 20  1  0
 20 21  1  0
 21 22  1  0
 22 23  1  0
 23 24  1  0
 15 25  2  0
 25 26  1  0
 26 27  2  0
 27 28  1  0
 28 29  1  0
 29 30  1  0
 30 31  1  0
 31 32  1  0
 32 33  1  0
  9 34  2  0
 34 35  1  0
 35 36  2  0
 36 37  1  0
 37 38  2  0
 38 39  1  0
 39 40  2  0
  6 41  1  0
 41 42  2  0
 42  3  1  0
 40  7  1  0
 27 13  1  0
 33 28  1  0
 39 34  1  0
 24 19  1  0
  1 43  1  0
  1 44  1  0
  1 45  1  0
  4 46  1  0
  5 47  1  0
  8 48  1  0
 12 49  1  0
 14 50  1  0
 20 51  1  0
 20 52  1  0
 21 53  1  0
 21 54  1  0
 23 55  1  0
 23 56  1  0
 24 57  1  0
 24 58  1  0
 25 59  1  0
 26 60  1  0
 29 61  1  0
 29 62  1  0
 30 63  1  0
 30 64  1  0
 32 65  1  0
 32 66  1  0
 33 67  1  0
 33 68  1  0
 35 69  1  0
 36 70  1  0
 37 71  1  0
 38 72  1  0
 41 73  1  0
 42 74  1  0
M  END
$$$$
