
     RDKit          3D

 64 67  0  0  0  0  0  0  0  0999 V2000
    9.8161    0.3539   -2.3218 C   0  0  0  0  0  0  0  0  0  0  0  0
    8.9486    1.1980   -1.5710 O   0  0  0  0  0  0  0  0  0  0  0  0
    7.8554    0.6047   -0.9954 C   0  0  0  0  0  0  0  0  0  0  0  0
    7.5864   -0.7619   -0.9581 C   0  0  0  0  0  0  0  0  0  0  0  0
    6.4179   -1.2392   -0.3448 C   0  0  0  0  0  0  0  0  0  0  0  0
    5.5099   -0.3580    0.2459 C   0  0  0  0  0  0  0  0  0  0  0  0
    4.3102   -0.7515    0.8688 N   0  0  0  0  0  0  0  0  0  0  0  0
    3.7815   -2.0272    0.9706 C   0  0  0  0  0  0  0  0  0  0  0  0
    4.2995   -3.0712    0.5788 O   0  0  0  0  0  0  0  0  0  0  0  0
    2.4235   -2.0562    1.6828 C   0  0  0  0  0  0  0  0  0  0  0  0
    1.3894   -1.3111    0.9588 N   0  0  0  0  0  0  0  0  0  0  0  0
    0.7755   -2.0056   -0.1693 C   0  0  0  0  0  0  0  0  0  0  0  0
    1.2280    0.0295    1.2463 C   0  0  0  0  0  0  0  0  0  0  0  0
    2.0766    0.6645    1.8718 O   0  0  0  0  0  0  0  0  0  0  0  0
    0.0110    0.7388    0.7789 C   0  0  0  0  0  0  0  0  0  0  0  0
   -1.2151    0.2094    0.9096 C   0  0  0  0  0  0  0  0  0  0  0  0
   -2.4400    0.8570    0.5695 C   0  0  0  0  0  0  0  0  0  0  0  0
   -2.7300    2.1911    0.7398 C   0  0  0  0  0  0  0  0  0  0  0  0
   -4.0534    2.3584    0.3908 N   0  0  0  0  0  0  0  0  0  0  0  0
   -4.8500    3.5346    0.4956 C   0  0  0  0  0  0  0  0  0  0  0  0
   -6.1896    3.4963    0.0727 C   0  0  0  0  0  0  0  0  0  0  0  0
   -7.0072    4.6206    0.2058 C   0  0  0  0  0  0  0  0  0  0  0  0
   -6.5012    5.7882    0.7733 C   0  0  0  0  0  0  0  0  0  0  0  0
   -5.1686    5.8392    1.1834 C   0  0  0  0  0  0  0  0  0  0  0  0
   -4.3422    4.7167    1.0518 C   0  0  0  0  0  0  0  0  0  0  0  0
   -4.5968    1.1997   -0.0571 N   0  0  0  0  0  0  0  0  0  0  0  0
   -3.6349    0.2760    0.0624 C   0  0  0  0  0  0  0  0  0  0  0  0
   -3.8953   -1.1155   -0.3028 C   0  0  0  0  0  0  0  0  0  0  0  0
   -3.0308   -1.8025   -1.1675 C   0  0  0  0  0  0  0  0  0  0  0  0
   -3.2799   -3.1390   -1.4977 C   0  0  0  0  0  0  0  0  0  0  0  0
   -4.3951   -3.8064   -0.9716 C   0  0  0  0  0  0  0  0  0  0  0  0
   -4.6834   -5.2266   -1.3641 C   0  0  0  0  0  0  0  0  0  0  0  0
   -5.2752   -3.1100   -0.1330 C   0  0  0  0  0  0  0  0  0  0  0  0
   -5.0253   -1.7750    0.2033 C   0  0  0  0  0  0  0  0  0  0  0  0
    5.7932    1.0101    0.2222 C   0  0  0  0  0  0  0  0  0  0  0  0
    6.9548    1.4839   -0.3936 C   0  0  0  0  0  0  0  0  0  0  0  0
   10.5724    0.9873   -2.8000 H   0  0  0  0  0  0  0  0  0  0  0  0
    9.2744   -0.1696   -3.1186 H   0  0  0  0  0  0  0  0  0  0  0  0
   10.3405   -0.3501   -1.6626 H   0  0  0  0  0  0  0  0  0  0  0  0
    8.2617   -1.4874   -1.3989 H   0  0  0  0  0  0  0  0  0  0  0  0
    6.2520   -2.3119   -0.3429 H   0  0  0  0  0  0  0  0  0  0  0  0
    3.7398   -0.0030    1.2695 H   0  0  0  0  0  0  0  0  0  0  0  0
    2.0919   -3.0973    1.7912 H   0  0  0  0  0  0  0  0  0  0  0  0
    2.5491   -1.6423    2.6935 H   0  0  0  0  0  0  0  0  0  0  0  0
    0.2243   -1.3232   -0.8305 H   0  0  0  0  0  0  0  0  0  0  0  0
    0.0980   -2.7755    0.2277 H   0  0  0  0  0  0  0  0  0  0  0  0
    1.5606   -2.4917   -0.7635 H   0  0  0  0  0  0  0  0  0  0  0  0
    0.1720    1.7564    0.4395 H   0  0  0  0  0  0  0  0  0  0  0  0
   -1.3115   -0.7980    1.3117 H   0  0  0  0  0  0  0  0  0  0  0  0
   -2.1326    3.0059    1.1192 H   0  0  0  0  0  0  0  0  0  0  0  0
   -6.6119    2.5917   -0.3634 H   0  0  0  0  0  0  0  0  0  0  0  0
   -8.0437    4.5727   -0.1134 H   0  0  0  0  0  0  0  0  0  0  0  0
   -7.1441    6.6577    0.8860 H   0  0  0  0  0  0  0  0  0  0  0  0
   -4.7804    6.7503    1.6372 H   0  0  0  0  0  0  0  0  0  0  0  0
   -3.3169    4.8009    1.3973 H   0  0  0  0  0  0  0  0  0  0  0  0
   -2.1757   -1.2940   -1.6142 H   0  0  0  0  0  0  0  0  0  0  0  0
   -2.6043   -3.6541   -2.1793 H   0  0  0  0  0  0  0  0  0  0  0  0
   -5.1808   -5.7665   -0.5488 H   0  0  0  0  0  0  0  0  0  0  0  0
   -5.3280   -5.2451   -2.2500 H   0  0  0  0  0  0  0  0  0  0  0  0
   -3.7580   -5.7661   -1.5925 H   0  0  0  0  0  0  0  0  0  0  0  0
   -6.1649   -3.5992    0.2594 H   0  0  0  0  0  0  0  0  0  0  0  0
   -5.7170   -1.2424    0.8571 H   0  0  0  0  0  0  0  0  0  0  0  0
    5.1156    1.7293    0.6748 H   0  0  0  0  0  0  0  0  0  0  0  0
    7.1539    2.5517   -0.4105 H   0  0  0  0  0  0  0  0  0  0  0  0
  1  2  1  0
  2  3  1  0
  3  4  2  0
  4  5  1  0
  5  6  2  0
  6  7  1  0
  7  8  1  0
  8  9  2  0
  8 10  1  0
 10 11  1  0
 11 12  1  0
 11 13  1  0
 13 14  2  0
 13 15  1  0
 15 16  2  3
 16 17  1  0
 17 18  2  0
 18 19  1  0
 19 20  1  0
 20 21  2  0
 21 22  1  0
 22 23  2  0
 23 24  1  0
 24 25  2  0
 19 26  1  0
 26 27  2  0
 27 28  1  0
 28 29  2  0
 29 30  1  0
 30 31  2  0
 31 32  1  0
 31 33  1  0
 33 34  2  0
  6 35  1  0
 35 36  2  0
 36  3  1  0
 27 17  1  0
 34 28  1  0
 25 20  1  0
  1 37  1  0
  1 38  1  0
  1 39  1  0
  4 40  1  0
  5 41  1  0
  7 42  1  0
 10 43  1  0
 10 44  1  0
 12 45  1  0
 12 46  1  0
 12 47  1  0
 15 48  1  0
 16 49  1  0
 18 50  1  0
 21 51  1  0
 22 52  1  0
 23 53  1  0
 24 54  1  0
 25 55  1  0
 29 56  1  0
 30 57  1  0
 32 58  1  0
 32 59  1  0
 32 60  1  0
 33 61  1  0
 34 62  1  0
 35 63  1  0
 36 64  1  0
M  END
$$$$
