
     RDKit          3D

 33 34  0  0  0  0  0  0  0  0999 V2000
   -1.7572    4.1950    0.4642 C   0  0  0  0  0  0  0  0  0  0  0  0
   -0.9852    3.0220    0.2068 O   0  0  0  0  0  0  0  0  0  0  0  0
   -0.5256    2.4230    1.3310 C   0  0  0  0  0  0  0  0  0  0  0  0
   -0.5961    2.8269    2.4780 O   0  0  0  0  0  0  0  0  0  0  0  0
    0.2389    1.2351    0.9341 C   0  0  0  0  0  0  0  0  0  0  0  0
    1.5983    1.2456    1.2404 C   0  0  0  0  0  0  0  0  0  0  0  0
    2.3515    0.1748    0.8198 C   0  0  0  0  0  0  0  0  0  0  0  0
    3.6953    0.2112    1.1220 O   0  0  0  0  0  0  0  0  0  0  0  0
    4.4068   -0.9386    0.6743 C   0  0  0  0  0  0  0  0  0  0  0  0
    1.8408   -0.8648    0.1298 N   0  0  0  0  0  0  0  0  0  0  0  0
    0.5107   -0.8690   -0.1448 C   0  0  0  0  0  0  0  0  0  0  0  0
   -0.3291    0.1520    0.2581 C   0  0  0  0  0  0  0  0  0  0  0  0
   -1.7671    0.0139   -0.0001 C   0  0  0  0  0  0  0  0  0  0  0  0
   -2.5671    0.7404    0.5807 O   0  0  0  0  0  0  0  0  0  0  0  0
   -2.1486   -0.9961   -0.8701 N   0  0  0  0  0  0  0  0  0  0  0  0
   -3.5591   -1.0986   -1.2008 C   0  0  0  0  0  0  0  0  0  0  0  0
   -1.3293   -2.0516   -1.2469 C   0  0  0  0  0  0  0  0  0  0  0  0
   -1.7675   -3.0182   -1.8734 O   0  0  0  0  0  0  0  0  0  0  0  0
   -0.0046   -1.9657   -0.8649 N   0  0  0  0  0  0  0  0  0  0  0  0
    0.9255   -3.0241   -1.2322 C   0  0  0  0  0  0  0  0  0  0  0  0
   -2.1426    4.5633   -0.4905 H   0  0  0  0  0  0  0  0  0  0  0  0
   -1.1293    4.9733    0.9090 H   0  0  0  0  0  0  0  0  0  0  0  0
   -2.6072    3.9640    1.1143 H   0  0  0  0  0  0  0  0  0  0  0  0
    2.0544    2.0694    1.7798 H   0  0  0  0  0  0  0  0  0  0  0  0
    5.4535   -0.8193    0.9704 H   0  0  0  0  0  0  0  0  0  0  0  0
    4.0274   -1.8499    1.1496 H   0  0  0  0  0  0  0  0  0  0  0  0
    4.3765   -1.0227   -0.4176 H   0  0  0  0  0  0  0  0  0  0  0  0
   -4.0420   -0.1173   -1.1756 H   0  0  0  0  0  0  0  0  0  0  0  0
   -3.6904   -1.5287   -2.1985 H   0  0  0  0  0  0  0  0  0  0  0  0
   -4.0401   -1.7527   -0.4665 H   0  0  0  0  0  0  0  0  0  0  0  0
    1.7013   -2.6139   -1.8872 H   0  0  0  0  0  0  0  0  0  0  0  0
    1.3800   -3.4408   -0.3273 H   0  0  0  0  0  0  0  0  0  0  0  0
    0.4272   -3.8381   -1.7659 H   0  0  0  0  0  0  0  0  0  0  0  0
  1  2  1  0
  2  3  1  0
  3  4  2  0
  3  5  1  0
  5  6  2  0
  6  7  1  0
  7  8  1  0
  8  9  1  0
  7 10  2  0
 10 11  1  0
 11 12  2  0
 12 13  1  0
 13 14  2  0
 13 15  1  0
 15 16  1  0
 15 17  1  0
 17 18  2  0
 17 19  1  0
 19 20  1  0
 12  5  1  0
 19 11  1  0
  1 21  1  0
  1 22  1  0
  1 23  1  0
  6 24  1  0
  9 25  1  0
  9 26  1  0
  9 27  1  0
 16 28  1  0
 16 29  1  0
 16 30  1  0
 20 31  1  0
 20 32  1  0
 20 33  1  0
M  END
$$$$
