
     RDKit          3D

 87 91  0  0  0  0  0  0  0  0999 V2000
    3.2327    3.8286   -4.4120 C   0  0  0  0  0  0  0  0  0  0  0  0
    2.7447    5.2091   -4.0185 C   0  0  0  0  0  0  0  0  0  0  0  0
    1.4950    5.1224   -3.1832 C   0  0  0  0  0  0  0  0  0  0  0  0
    0.3789    5.4221   -3.5829 O   0  0  0  0  0  0  0  0  0  0  0  0
    1.7895    4.6553   -1.9378 O   0  0  0  0  0  0  0  0  0  0  0  0
    0.6650    4.4337   -1.0673 C   0  0  0  0  0  0  0  0  0  0  0  0
    0.0227    3.0855   -1.3787 C   0  0  1  0  0  0  0  0  0  0  0  0
    0.9909    1.9123   -1.1892 C   0  0  0  0  0  0  0  0  0  0  0  0
    0.1079    0.6157   -1.2249 C   0  0  2  0  0  0  0  0  0  0  0  0
    0.6210   -0.2623   -0.2138 O   0  0  0  0  0  0  0  0  0  0  0  0
    1.8654   -0.7678   -0.4515 C   0  0  0  0  0  0  0  0  0  0  0  0
    2.5354   -0.5833   -1.4554 O   0  0  0  0  0  0  0  0  0  0  0  0
    2.3765   -1.6200    0.6393 C   0  0  0  0  0  0  0  0  0  0  0  0
    1.7691   -1.8174    1.8175 C   0  0  0  0  0  0  0  0  0  0  0  0
    2.2887   -2.6938    2.8770 C   0  0  0  0  0  0  0  0  0  0  0  0
    3.6590   -2.8534    3.1215 C   0  0  0  0  0  0  0  0  0  0  0  0
    4.1054   -3.6893    4.1489 C   0  0  0  0  0  0  0  0  0  0  0  0
    3.1875   -4.3654    4.9492 C   0  0  0  0  0  0  0  0  0  0  0  0
    1.8223   -4.1990    4.7305 C   0  0  0  0  0  0  0  0  0  0  0  0
    1.3763   -3.3622    3.7043 C   0  0  0  0  0  0  0  0  0  0  0  0
    0.0648    0.0360   -2.6789 C   0  0  0  0  0  0  0  0  0  0  0  0
    0.6255    0.6489   -3.5991 O   0  0  0  0  0  0  0  0  0  0  0  0
   -0.7714   -1.1698   -3.0788 C   0  0  0  0  0  0  0  0  0  0  0  0
   -1.0967   -1.1071   -4.5657 C   0  0  0  0  0  0  0  0  0  0  0  0
   -1.2391   -2.2360   -2.3959 C   0  0  0  0  0  0  0  0  0  0  0  0
   -1.1034   -2.7185   -1.0149 C   0  0  0  0  0  0  0  0  0  0  0  0
   -2.3408   -3.0033   -0.1899 C   0  0  2  0  0  0  0  0  0  0  0  0
   -2.4271   -2.6714    1.2762 C   0  0  0  0  0  0  0  0  0  0  0  0
   -3.1884   -1.3712    1.5510 C   0  0  0  0  0  0  0  0  0  0  0  0
   -2.3493   -0.1518    1.2448 C   0  0  2  0  0  0  0  0  0  0  0  0
   -1.3999    0.2696    2.3210 C   0  0  0  0  0  0  0  0  0  0  0  0
   -3.1263    0.9581    0.7512 O   0  0  0  0  0  0  0  0  0  0  0  0
   -2.2928    0.3100   -0.2105 C   0  0  1  0  0  0  0  0  0  0  0  0
   -1.3191    1.1928   -0.9184 C   0  0  1  0  0  0  0  0  0  0  0  0
   -1.1577    2.6695   -0.4932 C   0  0  1  0  0  0  0  0  0  0  0  0
   -0.8112    2.8016    0.8913 O   0  0  0  0  0  0  0  0  0  0  0  0
   -1.2249    3.9467    1.5113 C   0  0  0  0  0  0  0  0  0  0  0  0
   -1.8234    4.8637    0.9699 O   0  0  0  0  0  0  0  0  0  0  0  0
   -0.7961    3.9251    2.9588 C   0  0  0  0  0  0  0  0  0  0  0  0
   -0.9366    5.2866    3.6158 C   0  0  0  0  0  0  0  0  0  0  0  0
   -1.4814   -4.1647   -0.6671 C   0  0  0  0  0  0  0  0  0  0  0  0
   -0.5605   -4.8892    0.2896 C   0  0  0  0  0  0  0  0  0  0  0  0
   -2.1140   -5.1048   -1.6705 C   0  0  0  0  0  0  0  0  0  0  0  0
    3.5093    3.2410   -3.5303 H   0  0  0  0  0  0  0  0  0  0  0  0
    4.1109    3.9018   -5.0603 H   0  0  0  0  0  0  0  0  0  0  0  0
    2.4543    3.2761   -4.9487 H   0  0  0  0  0  0  0  0  0  0  0  0
    3.5108    5.7586   -3.4610 H   0  0  0  0  0  0  0  0  0  0  0  0
    2.5179    5.7972   -4.9148 H   0  0  0  0  0  0  0  0  0  0  0  0
   -0.0566    5.2544   -1.1537 H   0  0  0  0  0  0  0  0  0  0  0  0
    1.0624    4.4580   -0.0473 H   0  0  0  0  0  0  0  0  0  0  0  0
   -0.3008    3.0879   -2.4283 H   0  0  0  0  0  0  0  0  0  0  0  0
    1.5030    2.0005   -0.2204 H   0  0  0  0  0  0  0  0  0  0  0  0
    1.7769    1.9227   -1.9515 H   0  0  0  0  0  0  0  0  0  0  0  0
    3.3176   -2.1015    0.3957 H   0  0  0  0  0  0  0  0  0  0  0  0
    0.8194   -1.3449    2.0289 H   0  0  0  0  0  0  0  0  0  0  0  0
    4.3992   -2.3236    2.5271 H   0  0  0  0  0  0  0  0  0  0  0  0
    5.1716   -3.8089    4.3255 H   0  0  0  0  0  0  0  0  0  0  0  0
    3.5379   -5.0155    5.7468 H   0  0  0  0  0  0  0  0  0  0  0  0
    1.1035   -4.7207    5.3571 H   0  0  0  0  0  0  0  0  0  0  0  0
    0.3056   -3.2489    3.5512 H   0  0  0  0  0  0  0  0  0  0  0  0
   -1.7882   -1.8951   -4.8853 H   0  0  0  0  0  0  0  0  0  0  0  0
   -0.1842   -1.2190   -5.1620 H   0  0  0  0  0  0  0  0  0  0  0  0
   -1.5702   -0.1506   -4.8155 H   0  0  0  0  0  0  0  0  0  0  0  0
   -1.8240   -2.9185   -3.0127 H   0  0  0  0  0  0  0  0  0  0  0  0
   -0.2223   -2.3692   -0.5050 H   0  0  0  0  0  0  0  0  0  0  0  0
   -3.3120   -2.8910   -0.6660 H   0  0  0  0  0  0  0  0  0  0  0  0
   -1.4328   -2.6206    1.7283 H   0  0  0  0  0  0  0  0  0  0  0  0
   -2.9608   -3.4908    1.7706 H   0  0  0  0  0  0  0  0  0  0  0  0
   -3.4762   -1.3421    2.6094 H   0  0  0  0  0  0  0  0  0  0  0  0
   -4.1232   -1.3543    0.9777 H   0  0  0  0  0  0  0  0  0  0  0  0
   -0.4661    0.6673    1.9264 H   0  0  0  0  0  0  0  0  0  0  0  0
   -1.1368   -0.5739    2.9662 H   0  0  0  0  0  0  0  0  0  0  0  0
   -1.8637    1.0218    2.9645 H   0  0  0  0  0  0  0  0  0  0  0  0
   -2.8123   -0.3126   -0.9320 H   0  0  0  0  0  0  0  0  0  0  0  0
   -1.8011    1.3083   -1.9057 H   0  0  0  0  0  0  0  0  0  0  0  0
   -2.0699    3.2293   -0.7313 H   0  0  0  0  0  0  0  0  0  0  0  0
    0.2537    3.6169    3.0053 H   0  0  0  0  0  0  0  0  0  0  0  0
   -1.4080    3.1964    3.4967 H   0  0  0  0  0  0  0  0  0  0  0  0
   -1.9848    5.6002    3.6527 H   0  0  0  0  0  0  0  0  0  0  0  0
   -0.3758    6.0503    3.0657 H   0  0  0  0  0  0  0  0  0  0  0  0
   -0.5555    5.2543    4.6407 H   0  0  0  0  0  0  0  0  0  0  0  0
   -0.0058   -4.2077    0.9385 H   0  0  0  0  0  0  0  0  0  0  0  0
    0.1756   -5.4773   -0.2682 H   0  0  0  0  0  0  0  0  0  0  0  0
   -1.1336   -5.5708    0.9266 H   0  0  0  0  0  0  0  0  0  0  0  0
   -2.9513   -4.6490   -2.2089 H   0  0  0  0  0  0  0  0  0  0  0  0
   -1.3692   -5.4366   -2.4011 H   0  0  0  0  0  0  0  0  0  0  0  0
   -2.5083   -5.9914   -1.1626 H   0  0  0  0  0  0  0  0  0  0  0  0
  1  2  1  0
  2  3  1  0
  3  4  2  0
  3  5  1  0
  5  6  1  0
  6  7  1  0
  7  8  1  0
  8  9  1  0
  9 10  1  1
 10 11  1  0
 11 12  2  0
 11 13  1  0
 13 14  2  0
 14 15  1  0
 15 16  2  0
 16 17  1  0
 17 18  2  0
 18 19  1  0
 19 20  2  0
  9 21  1  0
 21 22  2  0
 21 23  1  0
 23 24  1  0
 23 25  2  3
 25 26  1  0
 26 27  1  0
 27 28  1  0
 28 29  1  0
 29 30  1  0
 30 31  1  1
 30 32  1  0
 32 33  1  0
 33 34  1  0
 34 35  1  0
 35 36  1  0
 36 37  1  0
 37 38  2  0
 37 39  1  0
 39 40  1  0
 27 41  1  0
 41 42  1  0
 41 43  1  0
 35  7  1  0
 34  9  1  0
 20 15  1  0
 41 26  1  0
 33 30  1  0
  1 44  1  0
  1 45  1  0
  1 46  1  0
  2 47  1  0
  2 48  1  0
  6 49  1  0
  6 50  1  0
  7 51  1  6
  8 52  1  0
  8 53  1  0
 13 54  1  0
 14 55  1  0
 16 56  1  0
 17 57  1  0
 18 58  1  0
 19 59  1  0
 20 60  1  0
 24 61  1  0
 24 62  1  0
 24 63  1  0
 25 64  1  0
 26 65  1  0
 27 66  1  6
 28 67  1  0
 28 68  1  0
 29 69  1  0
 29 70  1  0
 31 71  1  0
 31 72  1  0
 31 73  1  0
 33 74  1  6
 34 75  1  6
 35 76  1  6
 39 77  1  0
 39 78  1  0
 40 79  1  0
 40 80  1  0
 40 81  1  0
 42 82  1  0
 42 83  1  0
 42 84  1  0
 43 85  1  0
 43 86  1  0
 43 87  1  0
M  END
$$$$
