
     RDKit          3D

 57 59  0  0  0  0  0  0  0  0999 V2000
   -9.7848    1.0834   -1.8766 C   0  0  0  0  0  0  0  0  0  0  0  0
   -8.8161    1.3916   -0.8819 O   0  0  0  0  0  0  0  0  0  0  0  0
   -7.7012    0.6007   -0.8356 C   0  0  0  0  0  0  0  0  0  0  0  0
   -7.4170   -0.4681   -1.6895 C   0  0  0  0  0  0  0  0  0  0  0  0
   -6.2334   -1.1976   -1.5346 C   0  0  0  0  0  0  0  0  0  0  0  0
   -5.3354   -0.8501   -0.5231 C   0  0  0  0  0  0  0  0  0  0  0  0
   -3.8279   -1.7600   -0.3148 S   0  0  0  0  0  6  0  0  0  0  0  0
   -3.7385   -2.1471    1.0758 O   0  0  0  0  0  0  0  0  0  0  0  0
   -3.7268   -2.7389   -1.3764 O   0  0  0  0  0  0  0  0  0  0  0  0
   -2.6488   -0.5887   -0.6039 N   0  0  0  0  0  0  0  0  0  0  0  0
   -2.5523   -0.0409   -1.9721 C   0  0  0  0  0  0  0  0  0  0  0  0
   -1.2046   -0.5237   -2.4560 C   0  0  0  0  0  0  0  0  0  0  0  0
   -0.4111   -0.5383   -1.2698 O   0  0  0  0  0  0  0  0  0  0  0  0
   -1.2816   -1.0288   -0.2353 C   0  0  0  0  0  0  0  0  0  0  0  0
   -0.8745   -0.4451    1.1334 C   0  0  0  0  0  0  0  0  0  0  0  0
    0.4238   -0.9091    1.5909 N   0  0  0  0  0  0  0  0  0  0  0  0
    1.5878   -0.2291    1.3118 C   0  0  0  0  0  0  0  0  0  0  0  0
    1.6806    0.8809    0.8083 O   0  0  0  0  0  0  0  0  0  0  0  0
    2.8615   -1.0108    1.7083 C   0  0  0  0  0  0  0  0  0  0  0  0
    2.7702   -2.1628    2.1110 O   0  0  0  0  0  0  0  0  0  0  0  0
    4.0214   -0.2942    1.5484 N   0  0  0  0  0  0  0  0  0  0  0  0
    5.3126   -0.9246    1.6393 C   0  0  0  0  0  0  0  0  0  0  0  0
    6.4063    0.1009    1.7906 C   0  0  0  0  0  0  0  0  0  0  0  0
    6.8053    0.4870    3.0821 C   0  0  0  0  0  0  0  0  0  0  0  0
    7.8003    1.4454    3.2620 C   0  0  0  0  0  0  0  0  0  0  0  0
    8.4011    2.0334    2.1538 C   0  0  0  0  0  0  0  0  0  0  0  0
    8.0047    1.6705    0.8640 C   0  0  0  0  0  0  0  0  0  0  0  0
    7.0048    0.7108    0.6721 C   0  0  0  0  0  0  0  0  0  0  0  0
    6.5388    0.3039   -0.5507 O   0  0  0  0  0  0  0  0  0  0  0  0
    7.1008    0.9167   -1.7041 C   0  0  0  0  0  0  0  0  0  0  0  0
   -5.6120    0.2105    0.3410 C   0  0  0  0  0  0  0  0  0  0  0  0
   -6.7949    0.9328    0.1775 C   0  0  0  0  0  0  0  0  0  0  0  0
  -10.6046    1.8014   -1.7784 H   0  0  0  0  0  0  0  0  0  0  0  0
   -9.3666    1.1917   -2.8827 H   0  0  0  0  0  0  0  0  0  0  0  0
  -10.1997    0.0816   -1.7257 H   0  0  0  0  0  0  0  0  0  0  0  0
   -8.0967   -0.7614   -2.4831 H   0  0  0  0  0  0  0  0  0  0  0  0
   -6.0260   -2.0312   -2.2022 H   0  0  0  0  0  0  0  0  0  0  0  0
   -2.5680    1.0517   -1.8905 H   0  0  0  0  0  0  0  0  0  0  0  0
   -3.3602   -0.3421   -2.6426 H   0  0  0  0  0  0  0  0  0  0  0  0
   -1.2551   -1.5413   -2.8597 H   0  0  0  0  0  0  0  0  0  0  0  0
   -0.7586    0.1381   -3.2031 H   0  0  0  0  0  0  0  0  0  0  0  0
   -1.1883   -2.1218   -0.2299 H   0  0  0  0  0  0  0  0  0  0  0  0
   -1.5969   -0.7293    1.9044 H   0  0  0  0  0  0  0  0  0  0  0  0
   -0.8517    0.6494    1.0774 H   0  0  0  0  0  0  0  0  0  0  0  0
    0.5323   -1.8549    1.9492 H   0  0  0  0  0  0  0  0  0  0  0  0
    3.9384    0.5813    1.0382 H   0  0  0  0  0  0  0  0  0  0  0  0
    5.3161   -1.6195    2.4880 H   0  0  0  0  0  0  0  0  0  0  0  0
    5.4604   -1.5399    0.7447 H   0  0  0  0  0  0  0  0  0  0  0  0
    6.3346    0.0395    3.9553 H   0  0  0  0  0  0  0  0  0  0  0  0
    8.1030    1.7344    4.2651 H   0  0  0  0  0  0  0  0  0  0  0  0
    9.1774    2.7818    2.2917 H   0  0  0  0  0  0  0  0  0  0  0  0
    8.4958    2.1602    0.0298 H   0  0  0  0  0  0  0  0  0  0  0  0
    8.1717    0.7021   -1.7828 H   0  0  0  0  0  0  0  0  0  0  0  0
    6.9096    1.9947   -1.7119 H   0  0  0  0  0  0  0  0  0  0  0  0
    6.6105    0.4860   -2.5825 H   0  0  0  0  0  0  0  0  0  0  0  0
   -4.9194    0.4755    1.1365 H   0  0  0  0  0  0  0  0  0  0  0  0
   -7.0172    1.7613    0.8467 H   0  0  0  0  0  0  0  0  0  0  0  0
  1  2  1  0
  2  3  1  0
  3  4  2  0
  4  5  1  0
  5  6  2  0
  6  7  1  0
  7  8  2  0
  7  9  2  0
  7 10  1  0
 10 11  1  0
 11 12  1  0
 12 13  1  0
 13 14  1  0
 14 15  1  0
 15 16  1  0
 16 17  1  0
 17 18  2  0
 17 19  1  0
 19 20  2  0
 19 21  1  0
 21 22  1  0
 22 23  1  0
 23 24  2  0
 24 25  1  0
 25 26  2  0
 26 27  1  0
 27 28  2  0
 28 29  1  0
 29 30  1  0
  6 31  1  0
 31 32  2  0
 32  3  1  0
 14 10  1  0
 28 23  1  0
  1 33  1  0
  1 34  1  0
  1 35  1  0
  4 36  1  0
  5 37  1  0
 11 38  1  0
 11 39  1  0
 12 40  1  0
 12 41  1  0
 14 42  1  0
 15 43  1  0
 15 44  1  0
 16 45  1  0
 21 46  1  0
 22 47  1  0
 22 48  1  0
 24 49  1  0
 25 50  1  0
 26 51  1  0
 27 52  1  0
 30 53  1  0
 30 54  1  0
 30 55  1  0
 31 56  1  0
 32 57  1  0
M  END
$$$$
