
     RDKit          3D

 58 61  0  0  0  0  0  0  0  0999 V2000
   -4.4336    3.6312    2.9589 C   0  0  0  0  0  0  0  0  0  0  0  0
   -3.8293    4.2235    1.8161 O   0  0  0  0  0  0  0  0  0  0  0  0
   -3.3389    3.3721    0.8638 C   0  0  0  0  0  0  0  0  0  0  0  0
   -2.7805    4.0040   -0.2497 C   0  0  0  0  0  0  0  0  0  0  0  0
   -2.2408    3.2563   -1.2956 C   0  0  0  0  0  0  0  0  0  0  0  0
   -2.2573    1.8640   -1.2331 C   0  0  0  0  0  0  0  0  0  0  0  0
   -2.8130    1.2121   -0.1246 C   0  0  0  0  0  0  0  0  0  0  0  0
   -2.8118   -0.2555   -0.0553 C   0  0  0  0  0  0  0  0  0  0  0  0
   -4.3177   -1.0690   -0.0546 S   0  0  0  0  0  0  0  0  0  0  0  0
   -3.5847   -2.6195    0.0063 C   0  0  0  0  0  0  0  0  0  0  0  0
   -4.2429   -3.8641    0.0355 C   0  0  0  0  0  0  0  0  0  0  0  0
   -3.4845   -5.0392    0.0902 C   0  0  0  0  0  0  0  0  0  0  0  0
   -2.0980   -4.9848    0.1189 C   0  0  0  0  0  0  0  0  0  0  0  0
   -1.2511   -6.0579    0.1744 O   0  0  0  0  0  0  0  0  0  0  0  0
   -1.8469   -7.3480    0.2280 C   0  0  0  0  0  0  0  0  0  0  0  0
   -1.4567   -3.7406    0.0889 C   0  0  0  0  0  0  0  0  0  0  0  0
   -2.1931   -2.5279    0.0264 C   0  0  0  0  0  0  0  0  0  0  0  0
   -1.7519   -1.1496   -0.0152 C   0  0  0  0  0  0  0  0  0  0  0  0
   -0.3626   -0.6998   -0.0166 C   0  0  0  0  0  0  0  0  0  0  0  0
    0.1576    0.0115    1.0680 C   0  0  0  0  0  0  0  0  0  0  0  0
    1.4885    0.4354    1.0512 C   0  0  0  0  0  0  0  0  0  0  0  0
    2.3139    0.1540   -0.0405 C   0  0  0  0  0  0  0  0  0  0  0  0
    3.5909    0.6274    0.0752 O   0  0  0  0  0  0  0  0  0  0  0  0
    4.4638    0.4362   -1.0395 C   0  0  0  0  0  0  0  0  0  0  0  0
    5.8380    1.0704   -0.7415 C   0  0  0  0  0  0  0  0  0  0  0  0
    5.9695    2.5388   -0.8155 N   0  0  0  0  0  0  0  0  0  0  0  0
    5.1207    3.2285    0.1535 C   0  0  0  0  0  0  0  0  0  0  0  0
    5.7492    3.0609   -2.1607 C   0  0  0  0  0  0  0  0  0  0  0  0
    1.7980   -0.5638   -1.1197 C   0  0  0  0  0  0  0  0  0  0  0  0
    0.4645   -0.9892   -1.1077 C   0  0  0  0  0  0  0  0  0  0  0  0
   -3.3520    1.9770    0.9242 C   0  0  0  0  0  0  0  0  0  0  0  0
   -5.3040    3.0288    2.6786 H   0  0  0  0  0  0  0  0  0  0  0  0
   -4.7836    4.4393    3.6084 H   0  0  0  0  0  0  0  0  0  0  0  0
   -3.7079    3.0391    3.5263 H   0  0  0  0  0  0  0  0  0  0  0  0
   -2.7659    5.0901   -0.3006 H   0  0  0  0  0  0  0  0  0  0  0  0
   -1.8075    3.7586   -2.1561 H   0  0  0  0  0  0  0  0  0  0  0  0
   -1.8337    1.2897   -2.0537 H   0  0  0  0  0  0  0  0  0  0  0  0
   -5.3283   -3.9142    0.0165 H   0  0  0  0  0  0  0  0  0  0  0  0
   -4.0201   -5.9828    0.1109 H   0  0  0  0  0  0  0  0  0  0  0  0
   -1.0410   -8.0865    0.2780 H   0  0  0  0  0  0  0  0  0  0  0  0
   -2.4602   -7.4628    1.1279 H   0  0  0  0  0  0  0  0  0  0  0  0
   -2.4292   -7.5513   -0.6768 H   0  0  0  0  0  0  0  0  0  0  0  0
   -0.3696   -3.7073    0.1187 H   0  0  0  0  0  0  0  0  0  0  0  0
   -0.4636    0.2419    1.9299 H   0  0  0  0  0  0  0  0  0  0  0  0
    1.8851    0.9917    1.8971 H   0  0  0  0  0  0  0  0  0  0  0  0
    4.6182   -0.6400   -1.1875 H   0  0  0  0  0  0  0  0  0  0  0  0
    4.0327    0.8621   -1.9519 H   0  0  0  0  0  0  0  0  0  0  0  0
    6.5678    0.6391   -1.4387 H   0  0  0  0  0  0  0  0  0  0  0  0
    6.1616    0.7540    0.2586 H   0  0  0  0  0  0  0  0  0  0  0  0
    4.0555    3.1556   -0.0897 H   0  0  0  0  0  0  0  0  0  0  0  0
    5.3816    4.2923    0.1915 H   0  0  0  0  0  0  0  0  0  0  0  0
    5.2788    2.8335    1.1631 H   0  0  0  0  0  0  0  0  0  0  0  0
    6.4005    2.5579   -2.8840 H   0  0  0  0  0  0  0  0  0  0  0  0
    4.7118    2.9509   -2.4936 H   0  0  0  0  0  0  0  0  0  0  0  0
    6.0039    4.1261   -2.2006 H   0  0  0  0  0  0  0  0  0  0  0  0
    2.4028   -0.8125   -1.9849 H   0  0  0  0  0  0  0  0  0  0  0  0
    0.0761   -1.5455   -1.9581 H   0  0  0  0  0  0  0  0  0  0  0  0
   -3.7690    1.4579    1.7810 H   0  0  0  0  0  0  0  0  0  0  0  0
  1  2  1  0
  2  3  1  0
  3  4  2  0
  4  5  1  0
  5  6  2  0
  6  7  1  0
  7  8  1  0
  8  9  1  0
  9 10  1  0
 10 11  2  0
 11 12  1  0
 12 13  2  0
 13 14  1  0
 14 15  1  0
 13 16  1  0
 16 17  2  0
 17 18  1  0
 18 19  1  0
 19 20  2  0
 20 21  1  0
 21 22  2  0
 22 23  1  0
 23 24  1  0
 24 25  1  0
 25 26  1  0
 26 27  1  0
 26 28  1  0
 22 29  1  0
 29 30  2  0
  7 31  2  0
 31  3  1  0
 18  8  2  0
 30 19  1  0
 17 10  1  0
  1 32  1  0
  1 33  1  0
  1 34  1  0
  4 35  1  0
  5 36  1  0
  6 37  1  0
 11 38  1  0
 12 39  1  0
 15 40  1  0
 15 41  1  0
 15 42  1  0
 16 43  1  0
 20 44  1  0
 21 45  1  0
 24 46  1  0
 24 47  1  0
 25 48  1  0
 25 49  1  0
 27 50  1  0
 27 51  1  0
 27 52  1  0
 28 53  1  0
 28 54  1  0
 28 55  1  0
 29 56  1  0
 30 57  1  0
 31 58  1  0
M  END
$$$$
