
     RDKit          3D

 58 63  0  0  0  0  0  0  0  0999 V2000
    6.4910   -2.4544    2.7698 C   0  0  0  0  0  0  0  0  0  0  0  0
    6.0446   -1.6366    1.6069 C   0  0  0  0  0  0  0  0  0  0  0  0
    6.7331   -0.6464    0.9380 C   0  0  0  0  0  0  0  0  0  0  0  0
    5.9762   -0.0987   -0.1378 C   0  0  0  0  0  0  0  0  0  0  0  0
    4.7153   -0.6552   -0.2327 C   0  0  0  0  0  0  0  0  0  0  0  0
    3.7057   -0.3680   -1.2400 C   0  0  0  0  0  0  0  0  0  0  0  0
    4.0022   -0.3154   -2.4354 O   0  0  0  0  0  0  0  0  0  0  0  0
    2.3877   -0.1202   -0.8318 N   0  0  0  0  0  0  0  0  0  0  0  0
    1.3665   -0.0096   -1.8654 C   0  0  0  0  0  0  0  0  0  0  0  0
   -0.0302   -0.1797   -1.2781 C   0  0  0  0  0  0  0  0  0  0  0  0
   -0.3586    0.9475   -0.2599 C   0  0  0  0  0  0  0  0  0  0  0  0
    0.9386    1.3502    0.5102 C   0  0  0  0  0  0  0  0  0  0  0  0
    1.9941    0.2471    0.5285 C   0  0  0  0  0  0  0  0  0  0  0  0
   -0.7682    2.0681   -1.0911 O   0  0  0  0  0  0  0  0  0  0  0  0
   -1.3437    3.1233   -0.4435 C   0  0  0  0  0  0  0  0  0  0  0  0
   -1.3755    4.3294   -1.1430 C   0  0  0  0  0  0  0  0  0  0  0  0
   -1.9318    5.4661   -0.5518 C   0  0  0  0  0  0  0  0  0  0  0  0
   -2.4604    5.3908    0.7369 C   0  0  0  0  0  0  0  0  0  0  0  0
   -3.1437    6.7930    1.4605 Cl  0  0  0  0  0  0  0  0  0  0  0  0
   -2.4463    4.1870    1.4367 C   0  0  0  0  0  0  0  0  0  0  0  0
   -1.8933    3.0519    0.8343 C   0  0  0  0  0  0  0  0  0  0  0  0
   -1.9081    1.7541    1.5332 C   0  0  0  0  0  0  0  0  0  0  0  0
   -2.2638    1.7048    2.7063 O   0  0  0  0  0  0  0  0  0  0  0  0
   -1.5190    0.5414    0.6925 C   0  0  0  0  0  0  0  0  0  0  0  0
   -2.7847    0.0246    0.0196 C   0  0  0  0  0  0  0  0  0  0  0  0
   -2.6589   -1.4234    0.3414 C   0  0  0  0  0  0  0  0  0  0  0  0
   -3.5460   -2.4413   -0.2683 C   0  0  0  0  0  0  0  0  0  0  0  0
   -4.6136   -2.0794   -1.0978 C   0  0  0  0  0  0  0  0  0  0  0  0
   -5.4279   -3.0662   -1.6602 C   0  0  0  0  0  0  0  0  0  0  0  0
   -5.1810   -4.4127   -1.3964 C   0  0  0  0  0  0  0  0  0  0  0  0
   -4.1215   -4.7776   -0.5683 C   0  0  0  0  0  0  0  0  0  0  0  0
   -3.3057   -3.7952   -0.0041 C   0  0  0  0  0  0  0  0  0  0  0  0
   -1.7220   -1.7143    1.1856 N   0  0  0  0  0  0  0  0  0  0  0  0
   -1.0949   -0.5084    1.5689 O   0  0  0  0  0  0  0  0  0  0  0  0
    4.5006   -1.9038    0.9199 S   0  0  0  0  0  0  0  0  0  0  0  0
    5.7843   -2.3680    3.6019 H   0  0  0  0  0  0  0  0  0  0  0  0
    6.5751   -3.5101    2.4911 H   0  0  0  0  0  0  0  0  0  0  0  0
    7.4711   -2.1223    3.1279 H   0  0  0  0  0  0  0  0  0  0  0  0
    7.7393   -0.3376    1.1956 H   0  0  0  0  0  0  0  0  0  0  0  0
    6.3326    0.6714   -0.8119 H   0  0  0  0  0  0  0  0  0  0  0  0
    1.5462   -0.7751   -2.6291 H   0  0  0  0  0  0  0  0  0  0  0  0
    1.4769    0.9689   -2.3480 H   0  0  0  0  0  0  0  0  0  0  0  0
   -0.0726   -1.1663   -0.8045 H   0  0  0  0  0  0  0  0  0  0  0  0
   -0.7544   -0.1773   -2.1014 H   0  0  0  0  0  0  0  0  0  0  0  0
    0.7157    1.6358    1.5444 H   0  0  0  0  0  0  0  0  0  0  0  0
    1.3811    2.2417    0.0447 H   0  0  0  0  0  0  0  0  0  0  0  0
    1.6066   -0.6514    1.0204 H   0  0  0  0  0  0  0  0  0  0  0  0
    2.8613    0.6012    1.0935 H   0  0  0  0  0  0  0  0  0  0  0  0
   -0.9565    4.3908   -2.1451 H   0  0  0  0  0  0  0  0  0  0  0  0
   -1.9466    6.4059   -1.0989 H   0  0  0  0  0  0  0  0  0  0  0  0
   -2.8688    4.1279    2.4376 H   0  0  0  0  0  0  0  0  0  0  0  0
   -3.7045    0.4069    0.4760 H   0  0  0  0  0  0  0  0  0  0  0  0
   -2.8157    0.2109   -1.0562 H   0  0  0  0  0  0  0  0  0  0  0  0
   -4.8388   -1.0404   -1.3167 H   0  0  0  0  0  0  0  0  0  0  0  0
   -6.2589   -2.7853   -2.3028 H   0  0  0  0  0  0  0  0  0  0  0  0
   -5.8171   -5.1788   -1.8335 H   0  0  0  0  0  0  0  0  0  0  0  0
   -3.9297   -5.8269   -0.3583 H   0  0  0  0  0  0  0  0  0  0  0  0
   -2.4834   -4.0947    0.6430 H   0  0  0  0  0  0  0  0  0  0  0  0
  1  2  1  0
  2  3  2  0
  3  4  1  0
  4  5  2  0
  5  6  1  0
  6  7  2  0
  6  8  1  0
  8  9  1  0
  9 10  1  0
 10 11  1  0
 11 12  1  0
 12 13  1  0
 11 14  1  0
 14 15  1  0
 15 16  2  0
 16 17  1  0
 17 18  2  0
 18 19  1  0
 18 20  1  0
 20 21  2  0
 21 22  1  0
 22 23  2  0
 22 24  1  0
 24 25  1  0
 25 26  1  0
 26 27  1  0
 27 28  2  0
 28 29  1  0
 29 30  2  0
 30 31  1  0
 31 32  2  0
 26 33  2  0
 33 34  1  0
  5 35  1  0
 35  2  1  0
 13  8  1  0
 21 15  1  0
 34 24  1  0
 24 11  1  0
 32 27  1  0
  1 36  1  0
  1 37  1  0
  1 38  1  0
  3 39  1  0
  4 40  1  0
  9 41  1  0
  9 42  1  0
 10 43  1  0
 10 44  1  0
 12 45  1  0
 12 46  1  0
 13 47  1  0
 13 48  1  0
 16 49  1  0
 17 50  1  0
 20 51  1  0
 25 52  1  0
 25 53  1  0
 28 54  1  0
 29 55  1  0
 30 56  1  0
 31 57  1  0
 32 58  1  0
M  END
$$$$
