
     RDKit          3D

 39 40  0  0  0  0  0  0  0  0999 V2000
    5.7976   -0.7093    0.5796 C   0  0  0  0  0  0  0  0  0  0  0  0
    5.6365    0.6518   -0.0849 C   0  0  0  0  0  0  0  0  0  0  0  0
    4.7506    0.5965   -1.3388 C   0  0  0  0  0  0  0  0  0  0  0  0
    4.7457    1.9417   -2.0658 C   0  0  0  0  0  0  0  0  0  0  0  0
    3.3185    0.1469   -1.0316 C   0  0  0  0  0  0  0  0  0  0  0  0
    2.8853   -0.8853   -1.5352 O   0  0  0  0  0  0  0  0  0  0  0  0
    2.6403    0.9896   -0.1830 N   0  0  0  0  0  0  0  0  0  0  0  0
    1.3564    0.8410    0.2780 C   0  0  0  0  0  0  0  0  0  0  0  0
    0.8032    1.7197    1.0849 N   0  0  0  0  0  0  0  0  0  0  0  0
   -0.4891    1.3750    1.4262 N   0  0  0  0  0  0  0  0  0  0  0  0
   -0.8605    0.2446    0.8615 C   0  0  0  0  0  0  0  0  0  0  0  0
   -2.2006   -0.3901    1.0304 C   0  0  0  0  0  0  0  0  0  0  0  0
   -3.2258    0.2356    0.0836 C   0  0  0  0  0  0  0  0  0  0  0  0
   -4.5864   -0.3958    0.2452 C   0  0  0  0  0  0  0  0  0  0  0  0
   -5.4938    0.1064    1.1875 C   0  0  0  0  0  0  0  0  0  0  0  0
   -6.7440   -0.4915    1.3524 C   0  0  0  0  0  0  0  0  0  0  0  0
   -7.0964   -1.5974    0.5810 C   0  0  0  0  0  0  0  0  0  0  0  0
   -6.1989   -2.1072   -0.3554 C   0  0  0  0  0  0  0  0  0  0  0  0
   -4.9480   -1.5111   -0.5221 C   0  0  0  0  0  0  0  0  0  0  0  0
    0.3486   -0.4701   -0.1260 S   0  0  0  0  0  0  0  0  0  0  0  0
    6.4823   -0.6334    1.4304 H   0  0  0  0  0  0  0  0  0  0  0  0
    6.2096   -1.4419   -0.1217 H   0  0  0  0  0  0  0  0  0  0  0  0
    4.8415   -1.0882    0.9532 H   0  0  0  0  0  0  0  0  0  0  0  0
    5.2361    1.3603    0.6492 H   0  0  0  0  0  0  0  0  0  0  0  0
    6.6322    1.0184   -0.3637 H   0  0  0  0  0  0  0  0  0  0  0  0
    5.1731   -0.1470   -2.0284 H   0  0  0  0  0  0  0  0  0  0  0  0
    4.0669    1.9173   -2.9252 H   0  0  0  0  0  0  0  0  0  0  0  0
    5.7484    2.1840   -2.4338 H   0  0  0  0  0  0  0  0  0  0  0  0
    4.4239    2.7590   -1.4119 H   0  0  0  0  0  0  0  0  0  0  0  0
    3.0891    1.8241    0.1669 H   0  0  0  0  0  0  0  0  0  0  0  0
   -2.5220   -0.2580    2.0716 H   0  0  0  0  0  0  0  0  0  0  0  0
   -2.1387   -1.4733    0.8658 H   0  0  0  0  0  0  0  0  0  0  0  0
   -2.8996    0.1323   -0.9598 H   0  0  0  0  0  0  0  0  0  0  0  0
   -3.3030    1.3166    0.2610 H   0  0  0  0  0  0  0  0  0  0  0  0
   -5.2328    0.9678    1.7987 H   0  0  0  0  0  0  0  0  0  0  0  0
   -7.4434   -0.0941    2.0833 H   0  0  0  0  0  0  0  0  0  0  0  0
   -8.0704   -2.0619    0.7097 H   0  0  0  0  0  0  0  0  0  0  0  0
   -6.4734   -2.9702   -0.9564 H   0  0  0  0  0  0  0  0  0  0  0  0
   -4.2587   -1.9226   -1.2561 H   0  0  0  0  0  0  0  0  0  0  0  0
  1  2  1  0
  2  3  1  0
  3  4  1  0
  3  5  1  0
  5  6  2  0
  5  7  1  0
  7  8  1  0
  8  9  2  0
  9 10  1  0
 10 11  2  0
 11 12  1  0
 12 13  1  0
 13 14  1  0
 14 15  2  0
 15 16  1  0
 16 17  2  0
 17 18  1  0
 18 19  2  0
 11 20  1  0
 20  8  1  0
 19 14  1  0
  1 21  1  0
  1 22  1  0
  1 23  1  0
  2 24  1  0
  2 25  1  0
  3 26  1  0
  4 27  1  0
  4 28  1  0
  4 29  1  0
  7 30  1  0
 12 31  1  0
 12 32  1  0
 13 33  1  0
 13 34  1  0
 15 35  1  0
 16 36  1  0
 17 37  1  0
 18 38  1  0
 19 39  1  0
M  END
$$$$
