
     RDKit          3D

 56 60  0  0  0  0  0  0  0  0999 V2000
   -4.5299   -1.6692   -3.4796 C   0  0  0  0  0  0  0  0  0  0  0  0
   -3.3488   -1.3096   -2.6244 C   0  0  0  0  0  0  0  0  0  0  0  0
   -2.1426   -1.9953   -2.8429 C   0  0  0  0  0  0  0  0  0  0  0  0
   -0.9953   -1.7050   -2.0967 C   0  0  0  0  0  0  0  0  0  0  0  0
   -1.0078   -0.7192   -1.1031 C   0  0  0  0  0  0  0  0  0  0  0  0
    0.2100   -0.4090   -0.3369 C   0  0  0  0  0  0  0  0  0  0  0  0
    1.2353    0.0242   -1.1019 N   0  0  0  0  0  0  0  0  0  0  0  0
    2.4191    0.3936   -0.5268 N   0  0  0  0  0  0  0  0  0  0  0  0
    2.5932    0.3355    0.8093 C   0  0  0  0  0  0  0  0  0  0  0  0
    3.8097    0.7901    1.3920 N   0  0  0  0  0  0  0  0  0  0  0  0
    5.0206    1.1005    0.7289 C   0  0  0  0  0  0  0  0  0  0  0  0
    5.4523    0.3966   -0.4167 C   0  0  0  0  0  0  0  0  0  0  0  0
    6.6826    0.6724   -1.0258 C   0  0  0  0  0  0  0  0  0  0  0  0
    7.4736    1.6444   -0.4599 C   0  0  0  0  0  0  0  0  0  0  0  0
    7.0828    2.3181    0.6700 C   0  0  0  0  0  0  0  0  0  0  0  0
    5.8786    2.0596    1.2930 C   0  0  0  0  0  0  0  0  0  0  0  0
    8.0088    3.2288    1.0773 O   0  0  0  0  0  0  0  0  0  0  0  0
    9.0113    3.0721    0.0514 C   0  0  0  0  0  0  0  0  0  0  0  0
    8.6938    2.0427   -0.9069 O   0  0  0  0  0  0  0  0  0  0  0  0
    1.5659   -0.1570    1.6483 C   0  0  0  0  0  0  0  0  0  0  0  0
    1.7161   -0.3011    3.0518 C   0  0  0  0  0  0  0  0  0  0  0  0
    0.6906   -0.7982    3.8566 C   0  0  0  0  0  0  0  0  0  0  0  0
   -0.5116   -1.1745    3.2802 C   0  0  0  0  0  0  0  0  0  0  0  0
   -0.6860   -1.0516    1.9015 C   0  0  0  0  0  0  0  0  0  0  0  0
    0.3365   -0.5406    1.0601 C   0  0  0  0  0  0  0  0  0  0  0  0
   -2.2050   -0.0215   -0.8928 C   0  0  0  0  0  0  0  0  0  0  0  0
   -3.3694   -0.3200   -1.6279 C   0  0  0  0  0  0  0  0  0  0  0  0
   -4.8169    0.6388   -1.2064 S   0  0  0  0  0  6  0  0  0  0  0  0
   -4.3986    2.0177   -1.0967 O   0  0  0  0  0  0  0  0  0  0  0  0
   -5.9503    0.2519   -2.0148 O   0  0  0  0  0  0  0  0  0  0  0  0
   -5.1086    0.1091    0.3653 N   0  0  0  0  0  0  0  0  0  0  0  0
   -5.9439   -1.0874    0.5575 C   0  0  0  0  0  0  0  0  0  0  0  0
   -7.3907   -0.6683    0.8158 C   0  0  0  0  0  0  0  0  0  0  0  0
   -7.4595    0.1454    1.9906 O   0  0  0  0  0  0  0  0  0  0  0  0
   -4.8748   -0.7986   -4.0433 H   0  0  0  0  0  0  0  0  0  0  0  0
   -4.2720   -2.4359   -4.2178 H   0  0  0  0  0  0  0  0  0  0  0  0
   -5.3384   -2.0775   -2.8674 H   0  0  0  0  0  0  0  0  0  0  0  0
   -2.0777   -2.7631   -3.6136 H   0  0  0  0  0  0  0  0  0  0  0  0
   -0.0762   -2.2507   -2.3069 H   0  0  0  0  0  0  0  0  0  0  0  0
    3.5818    1.4912    2.0903 H   0  0  0  0  0  0  0  0  0  0  0  0
    4.8297   -0.3866   -0.8449 H   0  0  0  0  0  0  0  0  0  0  0  0
    7.0015    0.1336   -1.9095 H   0  0  0  0  0  0  0  0  0  0  0  0
    5.6145    2.6030    2.1923 H   0  0  0  0  0  0  0  0  0  0  0  0
    9.9671    2.8265    0.5302 H   0  0  0  0  0  0  0  0  0  0  0  0
    9.1205    4.0241   -0.4807 H   0  0  0  0  0  0  0  0  0  0  0  0
    2.6576   -0.0464    3.5357 H   0  0  0  0  0  0  0  0  0  0  0  0
    0.8415   -0.9042    4.9284 H   0  0  0  0  0  0  0  0  0  0  0  0
   -1.3121   -1.5746    3.8981 H   0  0  0  0  0  0  0  0  0  0  0  0
   -1.6361   -1.3795    1.4840 H   0  0  0  0  0  0  0  0  0  0  0  0
   -2.2340    0.7749   -0.1513 H   0  0  0  0  0  0  0  0  0  0  0  0
   -5.2957    0.8871    1.0032 H   0  0  0  0  0  0  0  0  0  0  0  0
   -5.5520   -1.6100    1.4357 H   0  0  0  0  0  0  0  0  0  0  0  0
   -5.8714   -1.7725   -0.2895 H   0  0  0  0  0  0  0  0  0  0  0  0
   -7.7932   -0.0824   -0.0158 H   0  0  0  0  0  0  0  0  0  0  0  0
   -8.0287   -1.5452    0.9623 H   0  0  0  0  0  0  0  0  0  0  0  0
   -7.2678   -0.4267    2.7517 H   0  0  0  0  0  0  0  0  0  0  0  0
  1  2  1  0
  2  3  2  0
  3  4  1  0
  4  5  2  0
  5  6  1  0
  6  7  2  0
  7  8  1  0
  8  9  2  0
  9 10  1  0
 10 11  1  0
 11 12  2  0
 12 13  1  0
 13 14  2  0
 14 15  1  0
 15 16  2  0
 15 17  1  0
 17 18  1  0
 18 19  1  0
  9 20  1  0
 20 21  2  0
 21 22  1  0
 22 23  2  0
 23 24  1  0
 24 25  2  0
  5 26  1  0
 26 27  2  0
 27 28  1  0
 28 29  2  0
 28 30  2  0
 28 31  1  0
 31 32  1  0
 32 33  1  0
 33 34  1  0
 27  2  1  0
 25  6  1  0
 16 11  1  0
 25 20  1  0
 19 14  1  0
  1 35  1  0
  1 36  1  0
  1 37  1  0
  3 38  1  0
  4 39  1  0
 10 40  1  0
 12 41  1  0
 13 42  1  0
 16 43  1  0
 18 44  1  0
 18 45  1  0
 21 46  1  0
 22 47  1  0
 23 48  1  0
 24 49  1  0
 26 50  1  0
 31 51  1  0
 32 52  1  0
 32 53  1  0
 33 54  1  0
 33 55  1  0
 34 56  1  0
M  END
$$$$
