
     RDKit          3D

 53 55  0  0  0  0  0  0  0  0999 V2000
   -6.9483   -4.7951    4.3710 C   0  0  0  0  0  0  0  0  0  0  0  0
   -5.8214   -5.0224    3.5333 O   0  0  0  0  0  0  0  0  0  0  0  0
   -5.0201   -3.9469    3.2671 C   0  0  0  0  0  0  0  0  0  0  0  0
   -3.8606   -4.2503    2.5436 C   0  0  0  0  0  0  0  0  0  0  0  0
   -2.9523   -3.2487    2.2001 C   0  0  0  0  0  0  0  0  0  0  0  0
   -3.2134   -1.9322    2.5818 C   0  0  0  0  0  0  0  0  0  0  0  0
   -2.0586   -0.6610    2.1365 S   0  0  0  0  0  6  0  0  0  0  0  0
   -0.7390   -1.1273    2.4960 O   0  0  0  0  0  0  0  0  0  0  0  0
   -2.5638    0.6083    2.6163 O   0  0  0  0  0  0  0  0  0  0  0  0
   -2.1735   -0.6342    0.4668 N   0  0  0  0  0  0  0  0  0  0  0  0
   -3.4641   -0.3024   -0.1553 C   0  0  0  0  0  0  0  0  0  0  0  0
   -3.1111    0.7199   -1.2116 C   0  0  0  0  0  0  0  0  0  0  0  0
   -1.7513    0.4342   -1.5430 O   0  0  0  0  0  0  0  0  0  0  0  0
   -1.1138    0.0495   -0.3026 C   0  0  0  0  0  0  0  0  0  0  0  0
   -0.5075    1.3159    0.3590 C   0  0  0  0  0  0  0  0  0  0  0  0
    0.3548    2.0733   -0.5342 N   0  0  0  0  0  0  0  0  0  0  0  0
    1.5894    1.6013   -0.9142 C   0  0  0  0  0  0  0  0  0  0  0  0
    2.1450    0.6063   -0.4733 O   0  0  0  0  0  0  0  0  0  0  0  0
    2.2655    2.4475   -2.0160 C   0  0  0  0  0  0  0  0  0  0  0  0
    1.6288    3.3027   -2.6130 O   0  0  0  0  0  0  0  0  0  0  0  0
    3.5861    2.1304   -2.2189 N   0  0  0  0  0  0  0  0  0  0  0  0
    4.3406    2.7099   -3.2972 C   0  0  0  0  0  0  0  0  0  0  0  0
    5.8141    2.4686   -3.1111 C   0  0  0  0  0  0  0  0  0  0  0  0
    6.5417    3.2366   -2.1889 C   0  0  0  0  0  0  0  0  0  0  0  0
    7.9031    3.0060   -1.9966 C   0  0  0  0  0  0  0  0  0  0  0  0
    8.5364    2.0052   -2.7205 C   0  0  0  0  0  0  0  0  0  0  0  0
    9.8435    1.7846   -2.5358 F   0  0  0  0  0  0  0  0  0  0  0  0
    7.8331    1.2280   -3.6312 C   0  0  0  0  0  0  0  0  0  0  0  0
    6.4707    1.4563   -3.8254 C   0  0  0  0  0  0  0  0  0  0  0  0
   -4.3637   -1.6152    3.3076 C   0  0  0  0  0  0  0  0  0  0  0  0
   -5.2666   -2.6274    3.6500 C   0  0  0  0  0  0  0  0  0  0  0  0
   -6.6424   -4.4213    5.3541 H   0  0  0  0  0  0  0  0  0  0  0  0
   -7.6618   -4.1139    3.8961 H   0  0  0  0  0  0  0  0  0  0  0  0
   -7.4537   -5.7532    4.5220 H   0  0  0  0  0  0  0  0  0  0  0  0
   -3.6606   -5.2810    2.2559 H   0  0  0  0  0  0  0  0  0  0  0  0
   -2.0525   -3.4980    1.6426 H   0  0  0  0  0  0  0  0  0  0  0  0
   -3.8621   -1.2122   -0.6156 H   0  0  0  0  0  0  0  0  0  0  0  0
   -4.2123    0.0885    0.5384 H   0  0  0  0  0  0  0  0  0  0  0  0
   -3.7399    0.6420   -2.1020 H   0  0  0  0  0  0  0  0  0  0  0  0
   -3.1763    1.7426   -0.8242 H   0  0  0  0  0  0  0  0  0  0  0  0
   -0.3257   -0.6658   -0.5556 H   0  0  0  0  0  0  0  0  0  0  0  0
    0.0822    1.0470    1.2405 H   0  0  0  0  0  0  0  0  0  0  0  0
   -1.2945    2.0108    0.6693 H   0  0  0  0  0  0  0  0  0  0  0  0
   -0.0510    2.7797   -1.1415 H   0  0  0  0  0  0  0  0  0  0  0  0
    3.9320    1.3025   -1.7425 H   0  0  0  0  0  0  0  0  0  0  0  0
    3.9844    2.2659   -4.2335 H   0  0  0  0  0  0  0  0  0  0  0  0
    4.1337    3.7851   -3.3565 H   0  0  0  0  0  0  0  0  0  0  0  0
    6.0455    4.0157   -1.6154 H   0  0  0  0  0  0  0  0  0  0  0  0
    8.4712    3.5968   -1.2869 H   0  0  0  0  0  0  0  0  0  0  0  0
    8.3493    0.4493   -4.1817 H   0  0  0  0  0  0  0  0  0  0  0  0
    5.9258    0.8401   -4.5355 H   0  0  0  0  0  0  0  0  0  0  0  0
   -4.5659   -0.5912    3.6133 H   0  0  0  0  0  0  0  0  0  0  0  0
   -6.1490   -2.3530    4.2183 H   0  0  0  0  0  0  0  0  0  0  0  0
  1  2  1  0
  2  3  1  0
  3  4  2  0
  4  5  1  0
  5  6  2  0
  6  7  1  0
  7  8  2  0
  7  9  2  0
  7 10  1  0
 10 11  1  0
 11 12  1  0
 12 13  1  0
 13 14  1  0
 14 15  1  0
 15 16  1  0
 16 17  1  0
 17 18  2  0
 17 19  1  0
 19 20  2  0
 19 21  1  0
 21 22  1  0
 22 23  1  0
 23 24  2  0
 24 25  1  0
 25 26  2  0
 26 27  1  0
 26 28  1  0
 28 29  2  0
  6 30  1  0
 30 31  2  0
 31  3  1  0
 14 10  1  0
 29 23  1  0
  1 32  1  0
  1 33  1  0
  1 34  1  0
  4 35  1  0
  5 36  1  0
 11 37  1  0
 11 38  1  0
 12 39  1  0
 12 40  1  0
 14 41  1  0
 15 42  1  0
 15 43  1  0
 16 44  1  0
 21 45  1  0
 22 46  1  0
 22 47  1  0
 24 48  1  0
 25 49  1  0
 28 50  1  0
 29 51  1  0
 30 52  1  0
 31 53  1  0
M  END
$$$$
