
     RDKit          3D

 42 44  0  0  0  0  0  0  0  0999 V2000
   -6.5907    1.4877   -1.7149 C   0  0  0  0  0  0  0  0  0  0  0  0
   -5.4367    1.0944   -0.9841 O   0  0  0  0  0  0  0  0  0  0  0  0
   -5.4972   -0.0874   -0.2865 C   0  0  0  0  0  0  0  0  0  0  0  0
   -6.6190   -0.9249   -0.2504 C   0  0  0  0  0  0  0  0  0  0  0  0
   -6.5955   -2.1108    0.4876 C   0  0  0  0  0  0  0  0  0  0  0  0
   -5.4555   -2.4682    1.1997 C   0  0  0  0  0  0  0  0  0  0  0  0
   -4.3316   -1.6427    1.1716 C   0  0  0  0  0  0  0  0  0  0  0  0
   -4.3320   -0.4548    0.4215 C   0  0  0  0  0  0  0  0  0  0  0  0
   -3.1480    0.4261    0.4229 C   0  0  0  0  0  0  0  0  0  0  0  0
   -1.8883   -0.0230    0.3181 C   0  0  0  0  0  0  0  0  0  0  0  0
   -0.7227    0.8645    0.2983 C   0  0  0  0  0  0  0  0  0  0  0  0
    0.5117    0.4982    0.1955 N   0  0  0  0  0  0  0  0  0  0  0  0
    1.1815    1.6929    0.2271 C   0  0  0  0  0  0  0  0  0  0  0  0
    2.5035    1.8914    0.1523 C   0  0  0  0  0  0  0  0  0  0  0  0
    3.4780    0.8286    0.0176 C   0  0  0  0  0  0  0  0  0  0  0  0
    4.7990    1.0567   -0.0524 C   0  0  0  0  0  0  0  0  0  0  0  0
    5.8102   -0.0011   -0.1957 C   0  0  0  0  0  0  0  0  0  0  0  0
    6.9550    0.2565   -0.9615 C   0  0  0  0  0  0  0  0  0  0  0  0
    7.9531   -0.7117   -1.0991 C   0  0  0  0  0  0  0  0  0  0  0  0
    7.8222   -1.9438   -0.4625 C   0  0  0  0  0  0  0  0  0  0  0  0
    6.6966   -2.2066    0.3152 C   0  0  0  0  0  0  0  0  0  0  0  0
    5.6980   -1.2385    0.4522 C   0  0  0  0  0  0  0  0  0  0  0  0
    0.2233    2.8203    0.3631 C   0  0  0  0  0  0  0  0  0  0  0  0
    0.4379    4.0137    0.4275 O   0  0  0  0  0  0  0  0  0  0  0  0
   -0.9807    2.1890    0.4018 O   0  0  0  0  0  0  0  0  0  0  0  0
   -7.4445    1.6482   -1.0485 H   0  0  0  0  0  0  0  0  0  0  0  0
   -6.8288    0.7608   -2.4984 H   0  0  0  0  0  0  0  0  0  0  0  0
   -6.3674    2.4410   -2.2035 H   0  0  0  0  0  0  0  0  0  0  0  0
   -7.5313   -0.6834   -0.7854 H   0  0  0  0  0  0  0  0  0  0  0  0
   -7.4726   -2.7529    0.5097 H   0  0  0  0  0  0  0  0  0  0  0  0
   -5.4418   -3.3859    1.7822 H   0  0  0  0  0  0  0  0  0  0  0  0
   -3.4592   -1.9323    1.7527 H   0  0  0  0  0  0  0  0  0  0  0  0
   -3.3674    1.4903    0.4807 H   0  0  0  0  0  0  0  0  0  0  0  0
   -1.6586   -1.0789    0.2243 H   0  0  0  0  0  0  0  0  0  0  0  0
    2.8839    2.9108    0.1937 H   0  0  0  0  0  0  0  0  0  0  0  0
    3.0880   -0.1866   -0.0389 H   0  0  0  0  0  0  0  0  0  0  0  0
    5.1865    2.0726   -0.0237 H   0  0  0  0  0  0  0  0  0  0  0  0
    7.0759    1.2120   -1.4669 H   0  0  0  0  0  0  0  0  0  0  0  0
    8.8323   -0.5020   -1.7027 H   0  0  0  0  0  0  0  0  0  0  0  0
    8.5987   -2.6968   -0.5683 H   0  0  0  0  0  0  0  0  0  0  0  0
    6.5959   -3.1635    0.8205 H   0  0  0  0  0  0  0  0  0  0  0  0
    4.8379   -1.4599    1.0794 H   0  0  0  0  0  0  0  0  0  0  0  0
  1  2  1  0
  2  3  1  0
  3  4  2  0
  4  5  1  0
  5  6  2  0
  6  7  1  0
  7  8  2  0
  8  9  1  0
  9 10  2  3
 10 11  1  0
 11 12  2  0
 12 13  1  0
 13 14  2  3
 14 15  1  0
 15 16  2  3
 16 17  1  0
 17 18  2  0
 18 19  1  0
 19 20  2  0
 20 21  1  0
 21 22  2  0
 13 23  1  0
 23 24  2  0
 23 25  1  0
  8  3  1  0
 25 11  1  0
 22 17  1  0
  1 26  1  0
  1 27  1  0
  1 28  1  0
  4 29  1  0
  5 30  1  0
  6 31  1  0
  7 32  1  0
  9 33  1  0
 10 34  1  0
 14 35  1  0
 15 36  1  0
 16 37  1  0
 18 38  1  0
 19 39  1  0
 20 40  1  0
 21 41  1  0
 22 42  1  0
M  END
$$$$
