
     RDKit          3D

 58 63  0  0  0  0  0  0  0  0999 V2000
    7.4925    0.3324   -1.8086 C   0  0  0  0  0  0  0  0  0  0  0  0
    6.2721    0.7886   -1.0854 C   0  0  0  0  0  0  0  0  0  0  0  0
    5.6406    2.0127   -1.1539 C   0  0  0  0  0  0  0  0  0  0  0  0
    4.5022    2.0788   -0.2995 C   0  0  0  0  0  0  0  0  0  0  0  0
    4.2704    0.8892    0.3636 C   0  0  0  0  0  0  0  0  0  0  0  0
    3.2295    0.6212    1.3449 C   0  0  0  0  0  0  0  0  0  0  0  0
    2.9287    1.4596    2.1959 O   0  0  0  0  0  0  0  0  0  0  0  0
    2.5514   -0.6084    1.2869 N   0  0  0  0  0  0  0  0  0  0  0  0
    1.6531   -0.9456    2.3834 C   0  0  0  0  0  0  0  0  0  0  0  0
    0.2255   -0.5019    2.0641 C   0  0  0  0  0  0  0  0  0  0  0  0
   -0.2687   -1.0834    0.7081 C   0  0  0  0  0  0  0  0  0  0  0  0
    0.7857   -0.7933   -0.3957 C   0  0  0  0  0  0  0  0  0  0  0  0
    2.1926   -1.2359    0.0189 C   0  0  0  0  0  0  0  0  0  0  0  0
   -0.3063   -2.5179    0.9405 O   0  0  0  0  0  0  0  0  0  0  0  0
   -1.0804   -3.2804    0.1188 C   0  0  0  0  0  0  0  0  0  0  0  0
   -0.8986   -4.6603    0.2138 C   0  0  0  0  0  0  0  0  0  0  0  0
   -1.6302   -5.5225   -0.6070 C   0  0  0  0  0  0  0  0  0  0  0  0
   -2.5455   -5.0009   -1.5211 C   0  0  0  0  0  0  0  0  0  0  0  0
   -3.4377   -6.0649   -2.5354 Cl  0  0  0  0  0  0  0  0  0  0  0  0
   -2.7421   -3.6261   -1.6157 C   0  0  0  0  0  0  0  0  0  0  0  0
   -2.0116   -2.7740   -0.7812 C   0  0  0  0  0  0  0  0  0  0  0  0
   -2.2087   -1.3201   -0.8436 C   0  0  0  0  0  0  0  0  0  0  0  0
   -2.7640   -0.8231   -1.8198 O   0  0  0  0  0  0  0  0  0  0  0  0
   -1.6726   -0.5241    0.3407 C   0  0  0  0  0  0  0  0  0  0  0  0
   -1.7330    0.9725    0.0668 C   0  0  0  0  0  0  0  0  0  0  0  0
   -3.0381    1.2735    0.7223 C   0  0  0  0  0  0  0  0  0  0  0  0
   -3.7393    2.5647    0.5269 C   0  0  0  0  0  0  0  0  0  0  0  0
   -3.1647    3.6077   -0.2094 C   0  0  0  0  0  0  0  0  0  0  0  0
   -3.8549    4.8140   -0.3708 C   0  0  0  0  0  0  0  0  0  0  0  0
   -5.1148    4.9785    0.2029 C   0  0  0  0  0  0  0  0  0  0  0  0
   -5.9578    6.4640    0.0011 Cl  0  0  0  0  0  0  0  0  0  0  0  0
   -5.6932    3.9474    0.9390 C   0  0  0  0  0  0  0  0  0  0  0  0
   -5.0057    2.7415    1.1017 C   0  0  0  0  0  0  0  0  0  0  0  0
   -3.4890    0.3354    1.4927 N   0  0  0  0  0  0  0  0  0  0  0  0
   -2.5785   -0.7409    1.4357 O   0  0  0  0  0  0  0  0  0  0  0  0
    5.4937   -0.2610    0.0195 S   0  0  0  0  0  0  0  0  0  0  0  0
    7.2805   -0.5623   -2.4033 H   0  0  0  0  0  0  0  0  0  0  0  0
    8.2978    0.1015   -1.1035 H   0  0  0  0  0  0  0  0  0  0  0  0
    7.8560    1.1085   -2.4902 H   0  0  0  0  0  0  0  0  0  0  0  0
    5.9870    2.8314   -1.7738 H   0  0  0  0  0  0  0  0  0  0  0  0
    3.8769    2.9553   -0.1750 H   0  0  0  0  0  0  0  0  0  0  0  0
    1.7034   -2.0300    2.5361 H   0  0  0  0  0  0  0  0  0  0  0  0
    1.9940   -0.4768    3.3132 H   0  0  0  0  0  0  0  0  0  0  0  0
    0.1984    0.5920    2.0536 H   0  0  0  0  0  0  0  0  0  0  0  0
   -0.4229   -0.8384    2.8821 H   0  0  0  0  0  0  0  0  0  0  0  0
    0.5316   -1.3121   -1.3268 H   0  0  0  0  0  0  0  0  0  0  0  0
    0.8073    0.2805   -0.6180 H   0  0  0  0  0  0  0  0  0  0  0  0
    2.2443   -2.3226    0.1498 H   0  0  0  0  0  0  0  0  0  0  0  0
    2.8830   -0.9665   -0.7821 H   0  0  0  0  0  0  0  0  0  0  0  0
   -0.1831   -5.0680    0.9243 H   0  0  0  0  0  0  0  0  0  0  0  0
   -1.4811   -6.5968   -0.5288 H   0  0  0  0  0  0  0  0  0  0  0  0
   -3.4625   -3.2193   -2.3216 H   0  0  0  0  0  0  0  0  0  0  0  0
   -1.7240    1.2332   -0.9941 H   0  0  0  0  0  0  0  0  0  0  0  0
   -0.9589    1.5486    0.5788 H   0  0  0  0  0  0  0  0  0  0  0  0
   -2.1835    3.5110   -0.6642 H   0  0  0  0  0  0  0  0  0  0  0  0
   -3.4045    5.6207   -0.9440 H   0  0  0  0  0  0  0  0  0  0  0  0
   -6.6752    4.0718    1.3882 H   0  0  0  0  0  0  0  0  0  0  0  0
   -5.4669    1.9413    1.6783 H   0  0  0  0  0  0  0  0  0  0  0  0
  1  2  1  0
  2  3  2  0
  3  4  1  0
  4  5  2  0
  5  6  1  0
  6  7  2  0
  6  8  1  0
  8  9  1  0
  9 10  1  0
 10 11  1  0
 11 12  1  0
 12 13  1  0
 11 14  1  0
 14 15  1  0
 15 16  2  0
 16 17  1  0
 17 18  2  0
 18 19  1  0
 18 20  1  0
 20 21  2  0
 21 22  1  0
 22 23  2  0
 22 24  1  0
 24 25  1  0
 25 26  1  0
 26 27  1  0
 27 28  2  0
 28 29  1  0
 29 30  2  0
 30 31  1  0
 30 32  1  0
 32 33  2  0
 26 34  2  0
 34 35  1  0
  5 36  1  0
 36  2  1  0
 13  8  1  0
 21 15  1  0
 35 24  1  0
 24 11  1  0
 33 27  1  0
  1 37  1  0
  1 38  1  0
  1 39  1  0
  3 40  1  0
  4 41  1  0
  9 42  1  0
  9 43  1  0
 10 44  1  0
 10 45  1  0
 12 46  1  0
 12 47  1  0
 13 48  1  0
 13 49  1  0
 16 50  1  0
 17 51  1  0
 20 52  1  0
 25 53  1  0
 25 54  1  0
 28 55  1  0
 29 56  1  0
 32 57  1  0
 33 58  1  0
M  END
$$$$
