
     RDKit          3D

 44 47  0  0  0  0  0  0  0  0999 V2000
   -0.5027   -0.7584   -1.3448 O   0  0  0  0  0  0  0  0  0  0  0  0
   -1.4759   -0.4656   -0.6659 C   0  0  0  0  0  0  0  0  0  0  0  0
   -2.3455   -1.3326   -0.0335 O   0  0  0  0  0  0  0  0  0  0  0  0
   -1.9157   -2.6633   -0.0966 C   0  0  0  0  0  0  0  0  0  0  0  0
   -2.4430   -3.4738   -1.1059 C   0  0  0  0  0  0  0  0  0  0  0  0
   -2.0590   -4.8106   -1.1755 C   0  0  0  0  0  0  0  0  0  0  0  0
   -1.1635   -5.3288   -0.2369 C   0  0  0  0  0  0  0  0  0  0  0  0
   -0.6559   -4.5153    0.7834 C   0  0  0  0  0  0  0  0  0  0  0  0
   -1.0357   -3.1735    0.8720 C   0  0  0  0  0  0  0  0  0  0  0  0
   -0.5422   -2.3495    1.9780 C   0  0  0  0  0  0  0  0  0  0  0  0
    0.6189   -1.6783    1.9966 C   0  0  0  0  0  0  0  0  0  0  0  0
    1.6343   -1.6951    0.8984 C   0  0  0  0  0  0  0  0  0  0  0  0
    2.0223   -2.7641    0.4348 O   0  0  0  0  0  0  0  0  0  0  0  0
    2.1493   -0.4111    0.4805 C   0  0  0  0  0  0  0  0  0  0  0  0
    3.0238   -0.0801   -0.5336 C   0  0  0  0  0  0  0  0  0  0  0  0
    3.1571    1.3324   -0.5211 C   0  0  0  0  0  0  0  0  0  0  0  0
    3.8735    2.2819   -1.2675 C   0  0  0  0  0  0  0  0  0  0  0  0
    3.7402    3.6394   -0.9365 C   0  0  0  0  0  0  0  0  0  0  0  0
    2.9088    4.0492    0.1079 C   0  0  0  0  0  0  0  0  0  0  0  0
    2.1836    3.1185    0.8592 C   0  0  0  0  0  0  0  0  0  0  0  0
    2.3443    1.7794    0.5107 C   0  0  0  0  0  0  0  0  0  0  0  0
    1.7380    0.7309    1.1208 O   0  0  0  0  0  0  0  0  0  0  0  0
   -1.8903    0.9410   -0.4081 C   0  0  0  0  0  0  0  0  0  0  0  0
   -2.9120    1.2746    0.4915 C   0  0  0  0  0  0  0  0  0  0  0  0
   -3.2545    2.6151    0.6996 C   0  0  0  0  0  0  0  0  0  0  0  0
   -2.5774    3.6274    0.0176 C   0  0  0  0  0  0  0  0  0  0  0  0
   -1.5546    3.3045   -0.8720 C   0  0  0  0  0  0  0  0  0  0  0  0
   -1.2099    1.9663   -1.0842 C   0  0  0  0  0  0  0  0  0  0  0  0
   -3.1362   -3.0658   -1.8382 H   0  0  0  0  0  0  0  0  0  0  0  0
   -2.4509   -5.4494   -1.9664 H   0  0  0  0  0  0  0  0  0  0  0  0
   -0.8537   -6.3675   -0.3009 H   0  0  0  0  0  0  0  0  0  0  0  0
    0.0456   -4.9343    1.5003 H   0  0  0  0  0  0  0  0  0  0  0  0
   -1.2252   -2.2658    2.8191 H   0  0  0  0  0  0  0  0  0  0  0  0
    0.8612   -1.0406    2.8374 H   0  0  0  0  0  0  0  0  0  0  0  0
    3.4932   -0.7855   -1.2053 H   0  0  0  0  0  0  0  0  0  0  0  0
    4.5221    1.9736   -2.0803 H   0  0  0  0  0  0  0  0  0  0  0  0
    4.2999    4.3823   -1.4990 H   0  0  0  0  0  0  0  0  0  0  0  0
    2.8268    5.1083    0.3461 H   0  0  0  0  0  0  0  0  0  0  0  0
    1.5345    3.4179    1.6711 H   0  0  0  0  0  0  0  0  0  0  0  0
   -3.4455    0.5075    1.0441 H   0  0  0  0  0  0  0  0  0  0  0  0
   -4.0505    2.8687    1.3958 H   0  0  0  0  0  0  0  0  0  0  0  0
   -2.8467    4.6704    0.1807 H   0  0  0  0  0  0  0  0  0  0  0  0
   -1.0243    4.0934   -1.4029 H   0  0  0  0  0  0  0  0  0  0  0  0
   -0.4068    1.7260   -1.7775 H   0  0  0  0  0  0  0  0  0  0  0  0
  1  2  2  0
  2  3  1  0
  3  4  1  0
  4  5  2  0
  5  6  1  0
  6  7  2  0
  7  8  1  0
  8  9  2  0
  9 10  1  0
 10 11  2  3
 11 12  1  0
 12 13  2  0
 12 14  1  0
 14 15  2  0
 15 16  1  0
 16 17  2  0
 17 18  1  0
 18 19  2  0
 19 20  1  0
 20 21  2  0
 21 22  1  0
  2 23  1  0
 23 24  2  0
 24 25  1  0
 25 26  2  0
 26 27  1  0
 27 28  2  0
  9  4  1  0
 22 14  1  0
 28 23  1  0
 21 16  1  0
  5 29  1  0
  6 30  1  0
  7 31  1  0
  8 32  1  0
 10 33  1  0
 11 34  1  0
 15 35  1  0
 17 36  1  0
 18 37  1  0
 19 38  1  0
 20 39  1  0
 24 40  1  0
 25 41  1  0
 26 42  1  0
 27 43  1  0
 28 44  1  0
M  END
$$$$
