
     RDKit          3D

 58 63  0  0  0  0  0  0  0  0999 V2000
    6.7283   -3.8996    0.2339 C   0  0  0  0  0  0  0  0  0  0  0  0
    5.7438   -2.8350    0.5766 C   0  0  0  0  0  0  0  0  0  0  0  0
    4.7449   -2.8620    1.5263 C   0  0  0  0  0  0  0  0  0  0  0  0
    4.0092   -1.6417    1.5678 C   0  0  0  0  0  0  0  0  0  0  0  0
    4.4530   -0.7248    0.6328 C   0  0  0  0  0  0  0  0  0  0  0  0
    3.9851    0.6277    0.3598 C   0  0  0  0  0  0  0  0  0  0  0  0
    4.7627    1.5675    0.1840 O   0  0  0  0  0  0  0  0  0  0  0  0
    2.5992    0.8465    0.3203 N   0  0  0  0  0  0  0  0  0  0  0  0
    1.6099   -0.2085    0.1010 C   0  0  0  0  0  0  0  0  0  0  0  0
    0.4579    0.2951   -0.7616 C   0  0  0  0  0  0  0  0  0  0  0  0
   -0.3057    1.4945   -0.1273 C   0  0  0  0  0  0  0  0  0  0  0  0
    0.6911    2.3429    0.7259 C   0  0  0  0  0  0  0  0  0  0  0  0
    2.1268    2.2223    0.2275 C   0  0  0  0  0  0  0  0  0  0  0  0
   -0.7454    2.2789   -1.2705 O   0  0  0  0  0  0  0  0  0  0  0  0
   -1.6441    3.2764   -1.0120 C   0  0  0  0  0  0  0  0  0  0  0  0
   -1.7943    4.2416   -2.0068 C   0  0  0  0  0  0  0  0  0  0  0  0
   -2.6713    5.3119   -1.8144 C   0  0  0  0  0  0  0  0  0  0  0  0
   -3.3990    5.4112   -0.6278 C   0  0  0  0  0  0  0  0  0  0  0  0
   -4.4752    6.7324   -0.3972 Cl  0  0  0  0  0  0  0  0  0  0  0  0
   -3.2664    4.4446    0.3657 C   0  0  0  0  0  0  0  0  0  0  0  0
   -2.3930    3.3721    0.1611 C   0  0  0  0  0  0  0  0  0  0  0  0
   -2.2661    2.3067    1.1736 C   0  0  0  0  0  0  0  0  0  0  0  0
   -2.7713    2.4558    2.2806 O   0  0  0  0  0  0  0  0  0  0  0  0
   -1.5433    1.0475    0.7068 C   0  0  0  0  0  0  0  0  0  0  0  0
   -2.5688    0.1807   -0.0184 C   0  0  0  0  0  0  0  0  0  0  0  0
   -2.2596   -1.1366    0.6031 C   0  0  0  0  0  0  0  0  0  0  0  0
   -2.8352   -2.4017    0.0903 C   0  0  0  0  0  0  0  0  0  0  0  0
   -2.4412   -3.6117    0.6753 C   0  0  0  0  0  0  0  0  0  0  0  0
   -2.9611   -4.8206    0.2096 C   0  0  0  0  0  0  0  0  0  0  0  0
   -3.8768   -4.8267   -0.8407 C   0  0  0  0  0  0  0  0  0  0  0  0
   -4.2761   -3.6252   -1.4246 C   0  0  0  0  0  0  0  0  0  0  0  0
   -3.7590   -2.4125   -0.9610 C   0  0  0  0  0  0  0  0  0  0  0  0
   -1.4480   -1.0839    1.6096 N   0  0  0  0  0  0  0  0  0  0  0  0
   -1.1344    0.2745    1.8381 O   0  0  0  0  0  0  0  0  0  0  0  0
    5.7864   -1.3381   -0.2506 S   0  0  0  0  0  0  0  0  0  0  0  0
    6.6278   -4.1986   -0.8145 H   0  0  0  0  0  0  0  0  0  0  0  0
    6.5718   -4.7899    0.8521 H   0  0  0  0  0  0  0  0  0  0  0  0
    7.7525   -3.5510    0.4022 H   0  0  0  0  0  0  0  0  0  0  0  0
    4.5559   -3.7108    2.1728 H   0  0  0  0  0  0  0  0  0  0  0  0
    3.1998   -1.4452    2.2609 H   0  0  0  0  0  0  0  0  0  0  0  0
    2.0777   -1.0622   -0.3992 H   0  0  0  0  0  0  0  0  0  0  0  0
    1.2560   -0.5396    1.0812 H   0  0  0  0  0  0  0  0  0  0  0  0
    0.8688    0.6033   -1.7344 H   0  0  0  0  0  0  0  0  0  0  0  0
   -0.2112   -0.5349   -1.0033 H   0  0  0  0  0  0  0  0  0  0  0  0
    0.4202    3.4041    0.7210 H   0  0  0  0  0  0  0  0  0  0  0  0
    0.6721    2.0136    1.7724 H   0  0  0  0  0  0  0  0  0  0  0  0
    2.7797    2.8712    0.8226 H   0  0  0  0  0  0  0  0  0  0  0  0
    2.2108    2.5424   -0.8180 H   0  0  0  0  0  0  0  0  0  0  0  0
   -1.2194    4.1717   -2.9276 H   0  0  0  0  0  0  0  0  0  0  0  0
   -2.7783    6.0668   -2.5900 H   0  0  0  0  0  0  0  0  0  0  0  0
   -3.8414    4.5184    1.2864 H   0  0  0  0  0  0  0  0  0  0  0  0
   -2.4408    0.1707   -1.1034 H   0  0  0  0  0  0  0  0  0  0  0  0
   -3.6052    0.4444    0.2202 H   0  0  0  0  0  0  0  0  0  0  0  0
   -1.7305   -3.6223    1.4994 H   0  0  0  0  0  0  0  0  0  0  0  0
   -2.6528   -5.7564    0.6695 H   0  0  0  0  0  0  0  0  0  0  0  0
   -4.2828   -5.7687   -1.2014 H   0  0  0  0  0  0  0  0  0  0  0  0
   -4.9951   -3.6339   -2.2404 H   0  0  0  0  0  0  0  0  0  0  0  0
   -4.0983   -1.4952   -1.4322 H   0  0  0  0  0  0  0  0  0  0  0  0
  1  2  1  0
  2  3  2  0
  3  4  1  0
  4  5  2  0
  5  6  1  0
  6  7  2  0
  6  8  1  0
  8  9  1  0
  9 10  1  0
 10 11  1  0
 11 12  1  0
 12 13  1  0
 11 14  1  0
 14 15  1  0
 15 16  2  0
 16 17  1  0
 17 18  2  0
 18 19  1  0
 18 20  1  0
 20 21  2  0
 21 22  1  0
 22 23  2  0
 22 24  1  0
 24 25  1  0
 25 26  1  0
 26 27  1  0
 27 28  2  0
 28 29  1  0
 29 30  2  0
 30 31  1  0
 31 32  2  0
 26 33  2  0
 33 34  1  0
  5 35  1  0
 35  2  1  0
 13  8  1  0
 21 15  1  0
 34 24  1  0
 24 11  1  0
 32 27  1  0
  1 36  1  0
  1 37  1  0
  1 38  1  0
  3 39  1  0
  4 40  1  0
  9 41  1  0
  9 42  1  0
 10 43  1  0
 10 44  1  0
 12 45  1  0
 12 46  1  0
 13 47  1  0
 13 48  1  0
 16 49  1  0
 17 50  1  0
 20 51  1  0
 25 52  1  0
 25 53  1  0
 28 54  1  0
 29 55  1  0
 30 56  1  0
 31 57  1  0
 32 58  1  0
M  END
$$$$
