
     RDKit          3D

 46 49  0  0  0  0  0  0  0  0999 V2000
    1.7247    1.1786    0.9590 O   0  0  0  0  0  0  0  0  0  0  0  0
    1.9094    1.5451   -0.1954 C   0  0  0  0  0  0  0  0  0  0  0  0
    0.8130    1.6369   -1.2480 C   0  0  0  0  0  0  0  0  0  0  0  0
   -0.4338    0.9972   -0.7874 N   0  0  0  0  0  4  0  0  0  0  0  0
   -1.6544    1.6189   -0.5355 C   0  0  0  0  0  0  0  0  0  0  0  0
   -2.5558    0.6698   -0.0642 C   0  0  0  0  0  0  0  0  0  0  0  0
   -4.0616    0.9197    0.3186 C   0  0  0  0  0  0  0  0  0  0  0  0
   -4.8859   -0.1372    0.7071 C   0  0  0  0  0  0  0  0  0  0  0  0
   -6.2244    0.1000    1.0428 C   0  0  0  0  0  0  0  0  0  0  0  0
   -6.7505    1.3928    0.9912 C   0  0  0  0  0  0  0  0  0  0  0  0
   -8.4076    1.6078    1.4179 Cl  0  0  0  0  0  0  0  0  0  0  0  0
   -5.9298    2.4525    0.5987 C   0  0  0  0  0  0  0  0  0  0  0  0
   -6.4981    4.0807    0.5042 Cl  0  0  0  0  0  0  0  0  0  0  0  0
   -4.5894    2.2159    0.2620 C   0  0  0  0  0  0  0  0  0  0  0  0
   -1.8047   -0.4915   -0.0275 N   0  0  0  0  0  0  0  0  0  0  0  0
   -0.5617   -0.2845   -0.4552 C   0  0  0  0  0  0  0  0  0  0  0  0
    0.2747   -1.5081   -0.4397 C   0  0  0  0  0  0  0  0  0  0  0  0
   -0.5746   -2.4655    0.4180 C   0  0  0  0  0  0  0  0  0  0  0  0
   -2.0106   -1.8745    0.3825 C   0  0  0  0  0  0  0  0  0  0  0  0
    3.1067    1.8808   -0.7444 O   0  0  0  0  0  0  0  0  0  0  0  0
    4.2546    1.6142    0.0777 C   0  0  0  0  0  0  0  0  0  0  0  0
    4.6378    0.1642   -0.0739 C   0  0  0  0  0  0  0  0  0  0  0  0
    5.1559   -0.3090   -1.2882 C   0  0  0  0  0  0  0  0  0  0  0  0
    5.4859   -1.6566   -1.4385 C   0  0  0  0  0  0  0  0  0  0  0  0
    5.2992   -2.5433   -0.3798 C   0  0  0  0  0  0  0  0  0  0  0  0
    4.7826   -2.0845    0.8304 C   0  0  0  0  0  0  0  0  0  0  0  0
    4.4513   -0.7374    0.9832 C   0  0  0  0  0  0  0  0  0  0  0  0
    1.1301    1.1114   -2.1545 H   0  0  0  0  0  0  0  0  0  0  0  0
    0.6184    2.6896   -1.4724 H   0  0  0  0  0  0  0  0  0  0  0  0
   -1.7312    2.6746   -0.7344 H   0  0  0  0  0  0  0  0  0  0  0  0
   -4.5318   -1.1599    0.7500 H   0  0  0  0  0  0  0  0  0  0  0  0
   -6.8584   -0.7331    1.3433 H   0  0  0  0  0  0  0  0  0  0  0  0
   -3.9800    3.0649   -0.0350 H   0  0  0  0  0  0  0  0  0  0  0  0
    1.2475   -1.2876   -0.0025 H   0  0  0  0  0  0  0  0  0  0  0  0
    0.3597   -1.8384   -1.4772 H   0  0  0  0  0  0  0  0  0  0  0  0
   -0.2069   -2.4428    1.4508 H   0  0  0  0  0  0  0  0  0  0  0  0
   -0.5333   -3.5009    0.0696 H   0  0  0  0  0  0  0  0  0  0  0  0
   -2.6257   -2.3764   -0.3701 H   0  0  0  0  0  0  0  0  0  0  0  0
   -2.4793   -1.9255    1.3678 H   0  0  0  0  0  0  0  0  0  0  0  0
    4.0723    1.8940    1.1223 H   0  0  0  0  0  0  0  0  0  0  0  0
    5.0739    2.2496   -0.2773 H   0  0  0  0  0  0  0  0  0  0  0  0
    5.3164    0.3723   -2.1216 H   0  0  0  0  0  0  0  0  0  0  0  0
    5.9022   -2.0142   -2.3776 H   0  0  0  0  0  0  0  0  0  0  0  0
    5.5712   -3.5902   -0.4935 H   0  0  0  0  0  0  0  0  0  0  0  0
    4.6510   -2.7750    1.6602 H   0  0  0  0  0  0  0  0  0  0  0  0
    4.0511   -0.3954    1.9363 H   0  0  0  0  0  0  0  0  0  0  0  0
  1  2  2  0
  2  3  1  0
  3  4  1  0
  4  5  1  0
  5  6  2  0
  6  7  1  0
  7  8  2  0
  8  9  1  0
  9 10  2  0
 10 11  1  0
 10 12  1  0
 12 13  1  0
 12 14  2  0
  6 15  1  0
 15 16  1  0
 16 17  1  0
 17 18  1  0
 18 19  1  0
  2 20  1  0
 20 21  1  0
 21 22  1  0
 22 23  2  0
 23 24  1  0
 24 25  2  0
 25 26  1  0
 26 27  2  0
 16  4  2  0
 27 22  1  0
 14  7  1  0
 19 15  1  0
  3 28  1  0
  3 29  1  0
  5 30  1  0
  8 31  1  0
  9 32  1  0
 14 33  1  0
 17 34  1  0
 17 35  1  0
 18 36  1  0
 18 37  1  0
 19 38  1  0
 19 39  1  0
 21 40  1  0
 21 41  1  0
 23 42  1  0
 24 43  1  0
 25 44  1  0
 26 45  1  0
 27 46  1  0
M  CHG  1   4   1
M  END
$$$$
