
     RDKit          3D

 57 60  0  0  0  0  0  0  0  0999 V2000
   -7.7132    3.6744    1.3726 C   0  0  0  0  0  0  0  0  0  0  0  0
   -7.4220    2.3502    2.0622 C   0  0  0  0  0  0  0  0  0  0  0  0
   -6.2809    1.6161    1.4068 C   0  0  0  0  0  0  0  0  0  0  0  0
   -6.5191    0.7146    0.3665 C   0  0  0  0  0  0  0  0  0  0  0  0
   -5.4556    0.0457   -0.2497 C   0  0  0  0  0  0  0  0  0  0  0  0
   -4.1213    0.2592    0.1420 C   0  0  0  0  0  0  0  0  0  0  0  0
   -3.0156   -0.4578   -0.5294 C   0  0  0  0  0  0  0  0  0  0  0  0
   -1.7396    0.0623   -0.6542 C   0  0  0  0  0  0  0  0  0  0  0  0
   -0.7659   -0.7054   -1.2951 C   0  0  0  0  0  0  0  0  0  0  0  0
    0.5961   -0.1261   -1.3423 C   0  0  0  0  0  0  0  0  0  0  0  0
    0.7386    0.9708   -1.8644 O   0  0  0  0  0  0  0  0  0  0  0  0
    1.5548   -0.8964   -0.7123 N   0  0  0  0  0  0  0  0  0  0  0  0
    2.9339   -0.6263   -0.6070 C   0  0  0  0  0  0  0  0  0  0  0  0
    3.7061   -1.5277    0.1393 C   0  0  0  0  0  0  0  0  0  0  0  0
    5.0819   -1.3345    0.2906 C   0  0  0  0  0  0  0  0  0  0  0  0
    5.6904   -0.2272   -0.3005 C   0  0  0  0  0  0  0  0  0  0  0  0
    7.4404    0.0109   -0.1380 S   0  0  0  0  0  6  0  0  0  0  0  0
    7.8898    0.7422   -1.3053 O   0  0  0  0  0  0  0  0  0  0  0  0
    8.0611   -1.2402    0.2337 O   0  0  0  0  0  0  0  0  0  0  0  0
    7.5642    1.0848    1.1225 N   0  0  0  0  0  0  0  0  0  0  0  0
    7.1925    0.8244    2.4456 C   0  0  0  0  0  0  0  0  0  0  0  0
    7.4797    1.9548    3.3928 C   0  0  0  0  0  0  0  0  0  0  0  0
    6.6606   -0.2147    2.8066 O   0  0  0  0  0  0  0  0  0  0  0  0
    4.9383    0.6671   -1.0644 C   0  0  0  0  0  0  0  0  0  0  0  0
    3.5611    0.4670   -1.2107 C   0  0  0  0  0  0  0  0  0  0  0  0
   -1.0729   -1.9638   -1.8542 C   0  0  0  0  0  0  0  0  0  0  0  0
   -0.1685   -2.7785   -2.5842 C   0  0  0  0  0  0  0  0  0  0  0  0
   -0.5639   -4.0146   -3.0913 C   0  0  0  0  0  0  0  0  0  0  0  0
   -1.8643   -4.4510   -2.8861 C   0  0  0  0  0  0  0  0  0  0  0  0
   -2.7624   -3.6426   -2.1858 C   0  0  0  0  0  0  0  0  0  0  0  0
   -2.3949   -2.4054   -1.6737 C   0  0  0  0  0  0  0  0  0  0  0  0
   -3.3248   -1.6818   -1.0280 N   0  0  0  0  0  0  0  0  0  0  0  0
   -3.9011    1.1697    1.1912 C   0  0  0  0  0  0  0  0  0  0  0  0
   -4.9622    1.8411    1.8118 C   0  0  0  0  0  0  0  0  0  0  0  0
   -6.8427    4.3385    1.4037 H   0  0  0  0  0  0  0  0  0  0  0  0
   -7.9834    3.5243    0.3218 H   0  0  0  0  0  0  0  0  0  0  0  0
   -8.5462    4.1837    1.8677 H   0  0  0  0  0  0  0  0  0  0  0  0
   -7.1884    2.5261    3.1193 H   0  0  0  0  0  0  0  0  0  0  0  0
   -8.3207    1.7215    2.0512 H   0  0  0  0  0  0  0  0  0  0  0  0
   -7.5336    0.5223    0.0246 H   0  0  0  0  0  0  0  0  0  0  0  0
   -5.6766   -0.6529   -1.0559 H   0  0  0  0  0  0  0  0  0  0  0  0
   -1.4882    1.0478   -0.2755 H   0  0  0  0  0  0  0  0  0  0  0  0
    1.2313   -1.7381   -0.2489 H   0  0  0  0  0  0  0  0  0  0  0  0
    3.2505   -2.3907    0.6188 H   0  0  0  0  0  0  0  0  0  0  0  0
    5.6659   -2.0399    0.8797 H   0  0  0  0  0  0  0  0  0  0  0  0
    7.9603    1.9774    0.8472 H   0  0  0  0  0  0  0  0  0  0  0  0
    7.1902    1.6685    4.4078 H   0  0  0  0  0  0  0  0  0  0  0  0
    6.9088    2.8386    3.0957 H   0  0  0  0  0  0  0  0  0  0  0  0
    8.5488    2.1841    3.3816 H   0  0  0  0  0  0  0  0  0  0  0  0
    5.4081    1.5166   -1.5553 H   0  0  0  0  0  0  0  0  0  0  0  0
    3.0065    1.1799   -1.8140 H   0  0  0  0  0  0  0  0  0  0  0  0
    0.8491   -2.4468   -2.7830 H   0  0  0  0  0  0  0  0  0  0  0  0
    0.1383   -4.6276   -3.6512 H   0  0  0  0  0  0  0  0  0  0  0  0
   -2.1900   -5.4114   -3.2774 H   0  0  0  0  0  0  0  0  0  0  0  0
   -3.7847   -3.9862   -2.0404 H   0  0  0  0  0  0  0  0  0  0  0  0
   -2.8958    1.3634    1.5577 H   0  0  0  0  0  0  0  0  0  0  0  0
   -4.7487    2.5395    2.6182 H   0  0  0  0  0  0  0  0  0  0  0  0
  1  2  1  0
  2  3  1  0
  3  4  2  0
  4  5  1  0
  5  6  2  0
  6  7  1  0
  7  8  2  0
  8  9  1  0
  9 10  1  0
 10 11  2  0
 10 12  1  0
 12 13  1  0
 13 14  2  0
 14 15  1  0
 15 16  2  0
 16 17  1  0
 17 18  2  0
 17 19  2  0
 17 20  1  0
 20 21  1  0
 21 22  1  0
 21 23  2  0
 16 24  1  0
 24 25  2  0
  9 26  2  0
 26 27  1  0
 27 28  2  0
 28 29  1  0
 29 30  2  0
 30 31  1  0
 31 32  2  0
  6 33  1  0
 33 34  2  0
 34  3  1  0
 32  7  1  0
 25 13  1  0
 31 26  1  0
  1 35  1  0
  1 36  1  0
  1 37  1  0
  2 38  1  0
  2 39  1  0
  4 40  1  0
  5 41  1  0
  8 42  1  0
 12 43  1  0
 14 44  1  0
 15 45  1  0
 20 46  1  0
 22 47  1  0
 22 48  1  0
 22 49  1  0
 24 50  1  0
 25 51  1  0
 27 52  1  0
 28 53  1  0
 29 54  1  0
 30 55  1  0
 33 56  1  0
 34 57  1  0
M  END
$$$$
