
     RDKit          3D

 36 37  0  0  0  0  0  0  0  0999 V2000
    1.5361    1.6827   -0.4881 O   0  0  0  0  0  0  0  0  0  0  0  0
    0.8298    0.6815   -0.5089 C   0  0  0  0  0  0  0  0  0  0  0  0
   -0.4088    0.5723   -1.4033 C   0  0  0  0  0  0  0  0  0  0  0  0
   -1.6443    0.7750   -0.7181 O   0  0  0  0  0  0  0  0  0  0  0  0
   -2.0755   -0.2748    0.0207 C   0  0  0  0  0  0  0  0  0  0  0  0
   -1.4757   -1.3318    0.1728 O   0  0  0  0  0  0  0  0  0  0  0  0
   -3.3915    0.0104    0.6508 C   0  0  0  0  0  0  0  0  0  0  0  0
   -4.0163   -1.0246    1.3645 C   0  0  0  0  0  0  0  0  0  0  0  0
   -5.2470   -0.8142    1.9905 C   0  0  0  0  0  0  0  0  0  0  0  0
   -5.8570    0.4341    1.9064 C   0  0  0  0  0  0  0  0  0  0  0  0
   -7.5197    0.7160    2.7592 Br  0  0  0  0  0  0  0  0  0  0  0  0
   -5.2466    1.4724    1.2044 C   0  0  0  0  0  0  0  0  0  0  0  0
   -4.0104    1.2637    0.5781 C   0  0  0  0  0  0  0  0  0  0  0  0
    1.1011   -0.4557    0.2280 N   0  0  0  0  0  0  0  0  0  0  0  0
    2.1848   -0.5050    1.1982 C   0  0  0  0  0  0  0  0  0  0  0  0
    3.4631   -1.1515    0.6396 C   0  0  0  0  0  0  0  0  0  0  0  0
    4.1613   -0.3170   -0.3202 N   0  0  0  0  0  0  0  0  0  0  0  0
    3.9273   -0.2580   -1.6777 C   0  0  0  0  0  0  0  0  0  0  0  0
    3.0009   -1.0507   -2.2847 O   0  0  0  0  0  0  0  0  0  0  0  0
    4.6644    0.6440   -2.3331 C   0  0  0  0  0  0  0  0  0  0  0  0
    5.7154    1.5062   -1.2578 S   0  0  0  0  0  0  0  0  0  0  0  0
    5.0867    0.6158    0.1387 C   0  0  0  0  0  0  0  0  0  0  0  0
    5.4439    0.8029    1.2924 O   0  0  0  0  0  0  0  0  0  0  0  0
   -0.4082   -0.3910   -1.9299 H   0  0  0  0  0  0  0  0  0  0  0  0
   -0.3312    1.3478   -2.1729 H   0  0  0  0  0  0  0  0  0  0  0  0
   -3.5452   -2.0035    1.4420 H   0  0  0  0  0  0  0  0  0  0  0  0
   -5.7172   -1.6274    2.5425 H   0  0  0  0  0  0  0  0  0  0  0  0
   -5.7204    2.4501    1.1474 H   0  0  0  0  0  0  0  0  0  0  0  0
   -3.5454    2.0889    0.0439 H   0  0  0  0  0  0  0  0  0  0  0  0
    0.3393   -1.1325    0.3180 H   0  0  0  0  0  0  0  0  0  0  0  0
    1.8126   -1.1068    2.0372 H   0  0  0  0  0  0  0  0  0  0  0  0
    2.3879    0.5033    1.5747 H   0  0  0  0  0  0  0  0  0  0  0  0
    4.1421   -1.3390    1.4800 H   0  0  0  0  0  0  0  0  0  0  0  0
    3.2513   -2.1284    0.1887 H   0  0  0  0  0  0  0  0  0  0  0  0
    2.5043   -1.4979   -1.5847 H   0  0  0  0  0  0  0  0  0  0  0  0
    4.6082    0.8428   -3.3938 H   0  0  0  0  0  0  0  0  0  0  0  0
  1  2  2  0
  2  3  1  0
  3  4  1  0
  4  5  1  0
  5  6  2  0
  5  7  1  0
  7  8  2  0
  8  9  1  0
  9 10  2  0
 10 11  1  0
 10 12  1  0
 12 13  2  0
  2 14  1  0
 14 15  1  0
 15 16  1  0
 16 17  1  0
 17 18  1  0
 18 19  1  0
 18 20  2  0
 20 21  1  0
 21 22  1  0
 22 23  2  0
 13  7  1  0
 22 17  1  0
  3 24  1  0
  3 25  1  0
  8 26  1  0
  9 27  1  0
 12 28  1  0
 13 29  1  0
 14 30  1  0
 15 31  1  0
 15 32  1  0
 16 33  1  0
 16 34  1  0
 19 35  1  0
 20 36  1  0
M  END
$$$$
