
     RDKit          3D

 61 65  0  0  0  0  0  0  0  0999 V2000
    6.3864   -4.2275    2.2635 C   0  0  0  0  0  0  0  0  0  0  0  0
    5.1702   -3.4479    1.8570 C   0  0  0  0  0  0  0  0  0  0  0  0
    4.3072   -3.9362    0.8726 C   0  0  0  0  0  0  0  0  0  0  0  0
    3.1910   -3.1930    0.4750 C   0  0  0  0  0  0  0  0  0  0  0  0
    2.9156   -1.9385    1.0426 C   0  0  0  0  0  0  0  0  0  0  0  0
    1.7425   -1.1580    0.6236 C   0  0  0  0  0  0  0  0  0  0  0  0
    1.8608    0.1661    0.2093 C   0  0  0  0  0  0  0  0  0  0  0  0
    0.7386    0.9077   -0.1870 C   0  0  0  0  0  0  0  0  0  0  0  0
    0.8824    2.3109   -0.5887 C   0  0  0  0  0  0  0  0  0  0  0  0
    1.3597    2.6429   -1.8672 C   0  0  0  0  0  0  0  0  0  0  0  0
    1.4997    3.9785   -2.2528 C   0  0  0  0  0  0  0  0  0  0  0  0
    1.1878    5.0100   -1.3622 C   0  0  0  0  0  0  0  0  0  0  0  0
    1.3083    6.4447   -1.7886 C   0  0  0  0  0  0  0  0  0  0  0  0
    0.7177    4.6878   -0.0856 C   0  0  0  0  0  0  0  0  0  0  0  0
    0.5778    3.3529    0.3022 C   0  0  0  0  0  0  0  0  0  0  0  0
   -0.5053    0.3362   -0.1800 N   0  0  0  0  0  4  0  0  0  0  0  0
   -1.6575    1.1014   -0.5953 C   0  0  0  0  0  0  0  0  0  0  0  0
   -1.8752    1.3051   -1.9595 C   0  0  0  0  0  0  0  0  0  0  0  0
   -2.9875    2.0458   -2.3526 C   0  0  0  0  0  0  0  0  0  0  0  0
   -3.8576    2.5651   -1.3894 C   0  0  0  0  0  0  0  0  0  0  0  0
   -3.6240    2.3500   -0.0279 C   0  0  0  0  0  0  0  0  0  0  0  0
   -2.5150    1.6128    0.3809 C   0  0  0  0  0  0  0  0  0  0  0  0
   -0.6518   -0.9645    0.2207 C   0  0  0  0  0  0  0  0  0  0  0  0
   -1.9845   -1.5763    0.2010 C   0  0  0  0  0  0  0  0  0  0  0  0
   -2.7148   -1.7355    1.3900 C   0  0  0  0  0  0  0  0  0  0  0  0
   -3.9845   -2.3182    1.3756 C   0  0  0  0  0  0  0  0  0  0  0  0
   -4.5504   -2.7557    0.1745 C   0  0  0  0  0  0  0  0  0  0  0  0
   -5.9009   -3.4122    0.1675 C   0  0  0  0  0  0  0  0  0  0  0  0
   -3.8146   -2.6338   -1.0080 C   0  0  0  0  0  0  0  0  0  0  0  0
   -2.5445   -2.0517   -0.9959 C   0  0  0  0  0  0  0  0  0  0  0  0
    0.4645   -1.7111    0.6241 C   0  0  0  0  0  0  0  0  0  0  0  0
    3.7984   -1.4517    2.0202 C   0  0  0  0  0  0  0  0  0  0  0  0
    4.9140   -2.1946    2.4194 C   0  0  0  0  0  0  0  0  0  0  0  0
    6.2429   -5.2991    2.0905 H   0  0  0  0  0  0  0  0  0  0  0  0
    7.2551   -3.8918    1.6890 H   0  0  0  0  0  0  0  0  0  0  0  0
    6.5924   -4.0954    3.3308 H   0  0  0  0  0  0  0  0  0  0  0  0
    4.4996   -4.9008    0.4062 H   0  0  0  0  0  0  0  0  0  0  0  0
    2.5482   -3.6079   -0.2987 H   0  0  0  0  0  0  0  0  0  0  0  0
    2.8434    0.6405    0.1890 H   0  0  0  0  0  0  0  0  0  0  0  0
    1.6279    1.8681   -2.5840 H   0  0  0  0  0  0  0  0  0  0  0  0
    1.8613    4.2126   -3.2532 H   0  0  0  0  0  0  0  0  0  0  0  0
    1.5374    7.0887   -0.9330 H   0  0  0  0  0  0  0  0  0  0  0  0
    2.1184    6.5694   -2.5148 H   0  0  0  0  0  0  0  0  0  0  0  0
    0.3705    6.7792   -2.2427 H   0  0  0  0  0  0  0  0  0  0  0  0
    0.4646    5.4799    0.6180 H   0  0  0  0  0  0  0  0  0  0  0  0
    0.2293    3.1442    1.3124 H   0  0  0  0  0  0  0  0  0  0  0  0
   -1.2063    0.8999   -2.7118 H   0  0  0  0  0  0  0  0  0  0  0  0
   -3.1850    2.2242   -3.4084 H   0  0  0  0  0  0  0  0  0  0  0  0
   -4.7265    3.1433   -1.7029 H   0  0  0  0  0  0  0  0  0  0  0  0
   -4.3130    2.7615    0.7080 H   0  0  0  0  0  0  0  0  0  0  0  0
   -2.3358    1.4538    1.4393 H   0  0  0  0  0  0  0  0  0  0  0  0
   -2.3065   -1.4115    2.3463 H   0  0  0  0  0  0  0  0  0  0  0  0
   -4.5317   -2.4349    2.3104 H   0  0  0  0  0  0  0  0  0  0  0  0
   -6.3947   -3.2824   -0.8015 H   0  0  0  0  0  0  0  0  0  0  0  0
   -6.5528   -2.9663    0.9260 H   0  0  0  0  0  0  0  0  0  0  0  0
   -5.7979   -4.4825    0.3715 H   0  0  0  0  0  0  0  0  0  0  0  0
   -4.2281   -2.9985   -1.9474 H   0  0  0  0  0  0  0  0  0  0  0  0
   -2.0001   -1.9843   -1.9362 H   0  0  0  0  0  0  0  0  0  0  0  0
    0.3228   -2.7443    0.9456 H   0  0  0  0  0  0  0  0  0  0  0  0
    3.6273   -0.4881    2.4958 H   0  0  0  0  0  0  0  0  0  0  0  0
    5.5826   -1.7893    3.1770 H   0  0  0  0  0  0  0  0  0  0  0  0
  1  2  1  0
  2  3  2  0
  3  4  1  0
  4  5  2  0
  5  6  1  0
  6  7  2  0
  7  8  1  0
  8  9  1  0
  9 10  2  0
 10 11  1  0
 11 12  2  0
 12 13  1  0
 12 14  1  0
 14 15  2  0
  8 16  2  0
 16 17  1  0
 17 18  2  0
 18 19  1  0
 19 20  2  0
 20 21  1  0
 21 22  2  0
 16 23  1  0
 23 24  1  0
 24 25  2  0
 25 26  1  0
 26 27  2  0
 27 28  1  0
 27 29  1  0
 29 30  2  0
 23 31  2  0
  5 32  1  0
 32 33  2  0
 33  2  1  0
 31  6  1  0
 15  9  1  0
 22 17  1  0
 30 24  1  0
  1 34  1  0
  1 35  1  0
  1 36  1  0
  3 37  1  0
  4 38  1  0
  7 39  1  0
 10 40  1  0
 11 41  1  0
 13 42  1  0
 13 43  1  0
 13 44  1  0
 14 45  1  0
 15 46  1  0
 18 47  1  0
 19 48  1  0
 20 49  1  0
 21 50  1  0
 22 51  1  0
 25 52  1  0
 26 53  1  0
 28 54  1  0
 28 55  1  0
 28 56  1  0
 29 57  1  0
 30 58  1  0
 31 59  1  0
 32 60  1  0
 33 61  1  0
M  CHG  1  16   1
M  END
$$$$
