
     RDKit          3D

 33 35  0  0  0  0  0  0  0  0999 V2000
    6.0131   -0.4580    0.4463 C   0  0  0  0  0  0  0  0  0  0  0  0
    4.9346    0.2967   -0.0927 O   0  0  0  0  0  0  0  0  0  0  0  0
    3.6706   -0.1154    0.2271 C   0  0  0  0  0  0  0  0  0  0  0  0
    3.3421   -1.2106    1.0250 C   0  0  0  0  0  0  0  0  0  0  0  0
    2.0008   -1.5158    1.2780 C   0  0  0  0  0  0  0  0  0  0  0  0
    0.9789   -0.7330    0.7275 C   0  0  0  0  0  0  0  0  0  0  0  0
    1.2984    0.3634   -0.0834 C   0  0  0  0  0  0  0  0  0  0  0  0
    2.6476    0.6684   -0.3174 C   0  0  0  0  0  0  0  0  0  0  0  0
    0.2147    1.2407   -0.6433 C   0  0  0  0  0  0  0  0  0  0  0  0
   -1.0526    0.4386   -0.9289 C   0  0  0  0  0  0  0  0  0  0  0  0
   -1.5046   -0.3314    0.2801 C   0  0  0  0  0  0  0  0  0  0  0  0
   -2.7497   -0.4322    0.7816 C   0  0  0  0  0  0  0  0  0  0  0  0
   -3.9104    0.1499    0.2041 C   0  0  0  0  0  0  0  0  0  0  0  0
   -4.3393    0.2210   -1.1180 C   0  0  0  0  0  0  0  0  0  0  0  0
   -5.5888    0.8849   -1.1400 C   0  0  0  0  0  0  0  0  0  0  0  0
   -5.8796    1.1732    0.1675 C   0  0  0  0  0  0  0  0  0  0  0  0
   -4.8917    0.7285    0.9797 O   0  0  0  0  0  0  0  0  0  0  0  0
   -0.4369   -1.0716    1.0334 C   0  0  0  0  0  0  0  0  0  0  0  0
   -0.6998   -1.9376    1.8613 O   0  0  0  0  0  0  0  0  0  0  0  0
    5.9940   -1.4900    0.0806 H   0  0  0  0  0  0  0  0  0  0  0  0
    6.9458   -0.0004    0.1027 H   0  0  0  0  0  0  0  0  0  0  0  0
    6.0096   -0.4253    1.5408 H   0  0  0  0  0  0  0  0  0  0  0  0
    4.1009   -1.8448    1.4713 H   0  0  0  0  0  0  0  0  0  0  0  0
    1.7562   -2.3671    1.9112 H   0  0  0  0  0  0  0  0  0  0  0  0
    2.9152    1.5279   -0.9296 H   0  0  0  0  0  0  0  0  0  0  0  0
    0.0058    2.0439    0.0743 H   0  0  0  0  0  0  0  0  0  0  0  0
    0.5511    1.7091   -1.5761 H   0  0  0  0  0  0  0  0  0  0  0  0
   -1.8130    1.1421   -1.2799 H   0  0  0  0  0  0  0  0  0  0  0  0
   -0.8688   -0.2709   -1.7463 H   0  0  0  0  0  0  0  0  0  0  0  0
   -2.9206   -0.9732    1.7111 H   0  0  0  0  0  0  0  0  0  0  0  0
   -3.8096   -0.1792   -1.9714 H   0  0  0  0  0  0  0  0  0  0  0  0
   -6.2045    1.1108   -1.9989 H   0  0  0  0  0  0  0  0  0  0  0  0
   -6.7093    1.6574    0.6633 H   0  0  0  0  0  0  0  0  0  0  0  0
  1  2  1  0
  2  3  1  0
  3  4  2  0
  4  5  1  0
  5  6  2  0
  6  7  1  0
  7  8  2  0
  7  9  1  0
  9 10  1  0
 10 11  1  0
 11 12  2  3
 12 13  1  0
 13 14  2  0
 14 15  1  0
 15 16  2  0
 16 17  1  0
 11 18  1  0
 18 19  2  0
  8  3  1  0
 17 13  1  0
 18  6  1  0
  1 20  1  0
  1 21  1  0
  1 22  1  0
  4 23  1  0
  5 24  1  0
  8 25  1  0
  9 26  1  0
  9 27  1  0
 10 28  1  0
 10 29  1  0
 12 30  1  0
 14 31  1  0
 15 32  1  0
 16 33  1  0
M  END
$$$$
