
     RDKit          3D

 37 39  0  0  0  0  0  0  0  0999 V2000
   -4.0724    1.1861    1.7357 O   0  0  0  0  0  0  0  0  0  0  0  0
   -4.3250    0.4274    0.8039 C   0  0  0  0  0  0  0  0  0  0  0  0
   -3.3681   -0.1756    0.0040 N   0  0  0  0  0  0  0  0  0  0  0  0
   -1.9670   -0.0584    0.0734 C   0  0  0  0  0  0  0  0  0  0  0  0
   -1.2891    0.7273    1.0026 C   0  0  0  0  0  0  0  0  0  0  0  0
    0.1113    0.7842    0.9971 C   0  0  0  0  0  0  0  0  0  0  0  0
    0.8585    0.0577    0.0641 C   0  0  0  0  0  0  0  0  0  0  0  0
    2.2622    0.1727    0.1328 N   0  0  0  0  0  0  0  0  0  0  0  0
    3.1987   -0.4185   -0.6914 C   0  0  0  0  0  0  0  0  0  0  0  0
    2.9671   -1.1767   -1.6273 O   0  0  0  0  0  0  0  0  0  0  0  0
    4.6310   -0.1476   -0.3633 C   0  0  0  0  0  0  0  0  0  0  0  0
    5.5272   -1.2104   -0.5847 C   0  0  0  0  0  0  0  0  0  0  0  0
    6.8894   -1.0693   -0.3101 C   0  0  0  0  0  0  0  0  0  0  0  0
    7.3690    0.1399    0.1818 C   0  0  0  0  0  0  0  0  0  0  0  0
    9.0449    0.3194    0.5224 Cl  0  0  0  0  0  0  0  0  0  0  0  0
    6.5010    1.2084    0.3951 C   0  0  0  0  0  0  0  0  0  0  0  0
    5.1338    1.0703    0.1199 C   0  0  0  0  0  0  0  0  0  0  0  0
    4.1543    2.4719    0.3765 Cl  0  0  0  0  0  0  0  0  0  0  0  0
    0.1805   -0.7278   -0.8651 C   0  0  0  0  0  0  0  0  0  0  0  0
   -1.2197   -0.7844   -0.8601 C   0  0  0  0  0  0  0  0  0  0  0  0
   -5.7082    0.0915    0.4584 C   0  0  0  0  0  0  0  0  0  0  0  0
   -6.8499    0.5530    1.0910 C   0  0  0  0  0  0  0  0  0  0  0  0
   -8.0471    0.0393    0.5149 C   0  0  0  0  0  0  0  0  0  0  0  0
   -7.7868   -0.8013   -0.5429 C   0  0  0  0  0  0  0  0  0  0  0  0
   -6.1106   -0.9653   -0.8334 S   0  0  0  0  0  0  0  0  0  0  0  0
   -3.7331   -0.7782   -0.7235 H   0  0  0  0  0  0  0  0  0  0  0  0
   -1.8144    1.3138    1.7495 H   0  0  0  0  0  0  0  0  0  0  0  0
    0.6013    1.4115    1.7377 H   0  0  0  0  0  0  0  0  0  0  0  0
    2.6110    0.7909    0.8562 H   0  0  0  0  0  0  0  0  0  0  0  0
    5.1613   -2.1606   -0.9742 H   0  0  0  0  0  0  0  0  0  0  0  0
    7.5645   -1.9036   -0.4857 H   0  0  0  0  0  0  0  0  0  0  0  0
    6.8917    2.1528    0.7677 H   0  0  0  0  0  0  0  0  0  0  0  0
    0.7079   -1.3123   -1.6122 H   0  0  0  0  0  0  0  0  0  0  0  0
   -1.7093   -1.4092   -1.6031 H   0  0  0  0  0  0  0  0  0  0  0  0
   -6.8174    1.2338    1.9349 H   0  0  0  0  0  0  0  0  0  0  0  0
   -9.0466    0.2754    0.8598 H   0  0  0  0  0  0  0  0  0  0  0  0
   -8.5016   -1.3282   -1.1606 H   0  0  0  0  0  0  0  0  0  0  0  0
  1  2  2  0
  2  3  1  0
  3  4  1  0
  4  5  2  0
  5  6  1  0
  6  7  2  0
  7  8  1  0
  8  9  1  0
  9 10  2  0
  9 11  1  0
 11 12  2  0
 12 13  1  0
 13 14  2  0
 14 15  1  0
 14 16  1  0
 16 17  2  0
 17 18  1  0
  7 19  1  0
 19 20  2  0
  2 21  1  0
 21 22  2  0
 22 23  1  0
 23 24  2  0
 24 25  1  0
 20  4  1  0
 25 21  1  0
 17 11  1  0
  3 26  1  0
  5 27  1  0
  6 28  1  0
  8 29  1  0
 12 30  1  0
 13 31  1  0
 16 32  1  0
 19 33  1  0
 20 34  1  0
 22 35  1  0
 23 36  1  0
 24 37  1  0
M  END
$$$$
