
     RDKit          3D

 38 39  0  0  0  0  0  0  0  0999 V2000
   -4.8094    2.1879   -0.6509 C   0  0  0  0  0  0  0  0  0  0  0  0
   -4.6043    1.3196    0.3483 C   0  0  0  0  0  0  0  0  0  0  0  0
   -3.5456    1.4742    1.4031 C   0  0  0  0  0  0  0  0  0  0  0  0
   -2.5666    0.3239    1.4022 C   0  0  0  0  0  0  0  0  0  0  0  0
   -2.7129   -0.7394    2.3005 C   0  0  0  0  0  0  0  0  0  0  0  0
   -1.8142   -1.8048    2.2812 C   0  0  0  0  0  0  0  0  0  0  0  0
   -0.7668   -1.8179    1.3626 C   0  0  0  0  0  0  0  0  0  0  0  0
    0.0625   -2.9058    1.4163 O   0  0  0  0  0  0  0  0  0  0  0  0
   -0.5945   -0.7750    0.4379 C   0  0  0  0  0  0  0  0  0  0  0  0
    0.4850   -0.7680   -0.5622 C   0  0  0  0  0  0  0  0  0  0  0  0
    1.5422    0.1515   -0.4336 C   0  0  0  0  0  0  0  0  0  0  0  0
    2.6029    0.1876   -1.3548 C   0  0  0  0  0  0  0  0  0  0  0  0
    3.7334    1.1735   -1.1773 C   0  0  0  0  0  0  0  0  0  0  0  0
    4.7476    0.7000   -0.1750 C   0  0  0  0  0  0  0  0  0  0  0  0
    5.0606    1.3541    0.9514 C   0  0  0  0  0  0  0  0  0  0  0  0
    2.6092   -0.7227   -2.4180 C   0  0  0  0  0  0  0  0  0  0  0  0
    1.5699   -1.6401   -2.5643 C   0  0  0  0  0  0  0  0  0  0  0  0
    0.5203   -1.6577   -1.6482 C   0  0  0  0  0  0  0  0  0  0  0  0
   -0.4526   -2.5946   -1.8710 O   0  0  0  0  0  0  0  0  0  0  0  0
   -1.5107    0.2921    0.4754 C   0  0  0  0  0  0  0  0  0  0  0  0
   -4.2033    3.0810   -0.7670 H   0  0  0  0  0  0  0  0  0  0  0  0
   -5.5946    2.0170   -1.3813 H   0  0  0  0  0  0  0  0  0  0  0  0
   -5.2416    0.4403    0.4203 H   0  0  0  0  0  0  0  0  0  0  0  0
   -2.9924    2.4138    1.2774 H   0  0  0  0  0  0  0  0  0  0  0  0
   -4.0328    1.5454    2.3836 H   0  0  0  0  0  0  0  0  0  0  0  0
   -3.5274   -0.7456    3.0214 H   0  0  0  0  0  0  0  0  0  0  0  0
   -1.9283   -2.6269    2.9830 H   0  0  0  0  0  0  0  0  0  0  0  0
    0.7977   -2.7779    0.7910 H   0  0  0  0  0  0  0  0  0  0  0  0
    1.5476    0.8455    0.4069 H   0  0  0  0  0  0  0  0  0  0  0  0
    4.2372    1.3366   -2.1382 H   0  0  0  0  0  0  0  0  0  0  0  0
    3.3159    2.1475   -0.8917 H   0  0  0  0  0  0  0  0  0  0  0  0
    5.2561   -0.2358   -0.3986 H   0  0  0  0  0  0  0  0  0  0  0  0
    4.5843    2.2917    1.2205 H   0  0  0  0  0  0  0  0  0  0  0  0
    5.8055    0.9565    1.6343 H   0  0  0  0  0  0  0  0  0  0  0  0
    3.4232   -0.7240   -3.1395 H   0  0  0  0  0  0  0  0  0  0  0  0
    1.5758   -2.3428   -3.3934 H   0  0  0  0  0  0  0  0  0  0  0  0
   -1.1699   -2.4700   -1.2247 H   0  0  0  0  0  0  0  0  0  0  0  0
   -1.4090    1.1091   -0.2389 H   0  0  0  0  0  0  0  0  0  0  0  0
  1  2  2  0
  2  3  1  0
  3  4  1  0
  4  5  2  0
  5  6  1  0
  6  7  2  0
  7  8  1  0
  7  9  1  0
  9 10  1  0
 10 11  2  0
 11 12  1  0
 12 13  1  0
 13 14  1  0
 14 15  2  0
 12 16  2  0
 16 17  1  0
 17 18  2  0
 18 19  1  0
  9 20  2  0
 20  4  1  0
 18 10  1  0
  1 21  1  0
  1 22  1  0
  2 23  1  0
  3 24  1  0
  3 25  1  0
  5 26  1  0
  6 27  1  0
  8 28  1  0
 11 29  1  0
 13 30  1  0
 13 31  1  0
 14 32  1  0
 15 33  1  0
 15 34  1  0
 16 35  1  0
 17 36  1  0
 19 37  1  0
 20 38  1  0
M  END
$$$$
