
     RDKit          3D

 53 52  0  0  0  0  0  0  0  0999 V2000
   -2.0654    1.4616    2.2471 C   0  0  0  0  0  0  0  0  0  0  0  0
   -2.1929    0.4143    1.1399 C   0  0  0  0  0  0  0  0  0  0  0  0
   -2.1228   -0.9869    1.7396 C   0  0  0  0  0  0  0  0  0  0  0  0
   -3.4921    0.6556    0.3434 C   0  0  0  0  0  0  0  0  0  0  0  0
   -3.7182   -0.2947   -0.8332 C   0  0  0  0  0  0  0  0  0  0  0  0
   -2.6362   -0.2664   -1.7952 N   0  0  0  0  0  0  0  0  0  0  0  0
   -2.5330    0.7261   -2.7483 C   0  0  0  0  0  0  0  0  0  0  0  0
   -3.3483    1.6319   -2.8609 O   0  0  0  0  0  0  0  0  0  0  0  0
   -1.3444    0.5316   -3.6662 C   0  0  0  0  0  0  0  0  0  0  0  0
   -0.9739    1.7677   -4.4777 C   0  0  0  0  0  0  0  0  0  0  0  0
   -0.2322    3.1554   -3.5387 S   0  0  0  0  0  0  0  0  0  0  0  0
    1.2134    2.3314   -2.7915 C   0  0  0  0  0  0  0  0  0  0  0  0
    0.9557    2.0832   -1.3120 C   0  0  0  0  0  0  0  0  0  0  0  0
    2.0054    1.1755   -0.7137 C   0  0  0  0  0  0  0  0  0  0  0  0
    2.8660    0.6075   -1.3767 O   0  0  0  0  0  0  0  0  0  0  0  0
    1.8699    1.0207    0.6487 N   0  0  0  0  0  0  0  0  0  0  0  0
    2.7379    0.1450    1.4069 C   0  0  0  0  0  0  0  0  0  0  0  0
    2.2310   -1.2944    1.3800 C   0  0  0  0  0  0  0  0  0  0  0  0
    3.2008   -2.3021    2.0191 C   0  0  0  0  0  0  0  0  0  0  0  0
    2.6439   -3.7175    1.8630 C   0  0  0  0  0  0  0  0  0  0  0  0
    3.4636   -2.0088    3.4962 C   0  0  0  0  0  0  0  0  0  0  0  0
   -2.8868    1.3792    2.9675 H   0  0  0  0  0  0  0  0  0  0  0  0
   -2.0762    2.4731    1.8299 H   0  0  0  0  0  0  0  0  0  0  0  0
   -1.1216    1.3361    2.7914 H   0  0  0  0  0  0  0  0  0  0  0  0
   -1.3353    0.5371    0.4726 H   0  0  0  0  0  0  0  0  0  0  0  0
   -3.0092   -1.2098    2.3429 H   0  0  0  0  0  0  0  0  0  0  0  0
   -1.2403   -1.0893    2.3807 H   0  0  0  0  0  0  0  0  0  0  0  0
   -2.0463   -1.7466    0.9595 H   0  0  0  0  0  0  0  0  0  0  0  0
   -4.3518    0.5722    1.0172 H   0  0  0  0  0  0  0  0  0  0  0  0
   -3.4948    1.6845   -0.0267 H   0  0  0  0  0  0  0  0  0  0  0  0
   -3.8305   -1.3284   -0.4900 H   0  0  0  0  0  0  0  0  0  0  0  0
   -4.6495   -0.0205   -1.3467 H   0  0  0  0  0  0  0  0  0  0  0  0
   -1.9632   -1.0156   -1.7795 H   0  0  0  0  0  0  0  0  0  0  0  0
   -0.4904    0.1552   -3.0950 H   0  0  0  0  0  0  0  0  0  0  0  0
   -1.6254   -0.2645   -4.3666 H   0  0  0  0  0  0  0  0  0  0  0  0
   -0.2530    1.4813   -5.2546 H   0  0  0  0  0  0  0  0  0  0  0  0
   -1.8550    2.1640   -4.9949 H   0  0  0  0  0  0  0  0  0  0  0  0
    1.4503    1.4146   -3.3399 H   0  0  0  0  0  0  0  0  0  0  0  0
    2.0768    2.9967   -2.9045 H   0  0  0  0  0  0  0  0  0  0  0  0
    0.9601    3.0320   -0.7636 H   0  0  0  0  0  0  0  0  0  0  0  0
   -0.0139    1.6004   -1.1574 H   0  0  0  0  0  0  0  0  0  0  0  0
    1.1349    1.5156    1.1358 H   0  0  0  0  0  0  0  0  0  0  0  0
    2.7622    0.5360    2.4290 H   0  0  0  0  0  0  0  0  0  0  0  0
    3.7490    0.2057    0.9938 H   0  0  0  0  0  0  0  0  0  0  0  0
    1.2575   -1.3439    1.8819 H   0  0  0  0  0  0  0  0  0  0  0  0
    2.0475   -1.5933    0.3385 H   0  0  0  0  0  0  0  0  0  0  0  0
    4.1574   -2.2576    1.4825 H   0  0  0  0  0  0  0  0  0  0  0  0
    1.6956   -3.8277    2.3957 H   0  0  0  0  0  0  0  0  0  0  0  0
    2.4711   -3.9529    0.8087 H   0  0  0  0  0  0  0  0  0  0  0  0
    3.3433   -4.4624    2.2593 H   0  0  0  0  0  0  0  0  0  0  0  0
    2.5293   -1.9798    4.0647 H   0  0  0  0  0  0  0  0  0  0  0  0
    3.9730   -1.0513    3.6272 H   0  0  0  0  0  0  0  0  0  0  0  0
    4.1073   -2.7770    3.9392 H   0  0  0  0  0  0  0  0  0  0  0  0
  1  2  1  0
  2  3  1  0
  2  4  1  0
  4  5  1  0
  5  6  1  0
  6  7  1  0
  7  8  2  0
  7  9  1  0
  9 10  1  0
 10 11  1  0
 11 12  1  0
 12 13  1  0
 13 14  1  0
 14 15  2  0
 14 16  1  0
 16 17  1  0
 17 18  1  0
 18 19  1  0
 19 20  1  0
 19 21  1  0
  1 22  1  0
  1 23  1  0
  1 24  1  0
  2 25  1  0
  3 26  1  0
  3 27  1  0
  3 28  1  0
  4 29  1  0
  4 30  1  0
  5 31  1  0
  5 32  1  0
  6 33  1  0
  9 34  1  0
  9 35  1  0
 10 36  1  0
 10 37  1  0
 12 38  1  0
 12 39  1  0
 13 40  1  0
 13 41  1  0
 16 42  1  0
 17 43  1  0
 17 44  1  0
 18 45  1  0
 18 46  1  0
 19 47  1  0
 20 48  1  0
 20 49  1  0
 20 50  1  0
 21 51  1  0
 21 52  1  0
 21 53  1  0
M  END
$$$$
