
     RDKit          3D

 64 67  0  0  0  0  0  0  0  0999 V2000
    8.7023   -1.6447    2.2699 C   0  0  0  0  0  0  0  0  0  0  0  0
    7.4004   -2.1553    2.0078 O   0  0  0  0  0  0  0  0  0  0  0  0
    6.6497   -1.4833    1.0824 C   0  0  0  0  0  0  0  0  0  0  0  0
    7.0241   -0.3263    0.4015 C   0  0  0  0  0  0  0  0  0  0  0  0
    6.1547    0.2629   -0.5283 C   0  0  0  0  0  0  0  0  0  0  0  0
    4.9026   -0.2947   -0.7842 C   0  0  0  0  0  0  0  0  0  0  0  0
    3.9715    0.2413   -1.6924 N   0  0  0  0  0  0  0  0  0  0  0  0
    4.0957    1.3812   -2.4687 C   0  0  0  0  0  0  0  0  0  0  0  0
    5.0731    2.1219   -2.5377 O   0  0  0  0  0  0  0  0  0  0  0  0
    2.8462    1.6605   -3.3133 C   0  0  0  0  0  0  0  0  0  0  0  0
    1.6872    1.9879   -2.4763 N   0  0  0  0  0  0  0  0  0  0  0  0
    1.5764    3.3804   -2.0569 C   0  0  0  0  0  0  0  0  0  0  0  0
    0.8849    0.9484   -2.0432 C   0  0  0  0  0  0  0  0  0  0  0  0
    1.2166   -0.2290   -2.1909 O   0  0  0  0  0  0  0  0  0  0  0  0
   -0.3999    1.3013   -1.3925 C   0  0  0  0  0  0  0  0  0  0  0  0
   -1.0815    0.3720   -0.7053 C   0  0  0  0  0  0  0  0  0  0  0  0
   -2.3352    0.5849   -0.0553 C   0  0  0  0  0  0  0  0  0  0  0  0
   -2.8094    1.7933    0.4044 C   0  0  0  0  0  0  0  0  0  0  0  0
   -4.0236    1.5494    1.0044 N   0  0  0  0  0  0  0  0  0  0  0  0
   -4.8933    2.4887    1.6302 C   0  0  0  0  0  0  0  0  0  0  0  0
   -6.1285    2.0530    2.1313 C   0  0  0  0  0  0  0  0  0  0  0  0
   -6.9994    2.9555    2.7445 C   0  0  0  0  0  0  0  0  0  0  0  0
   -6.6437    4.2976    2.8629 C   0  0  0  0  0  0  0  0  0  0  0  0
   -5.4183    4.7385    2.3707 C   0  0  0  0  0  0  0  0  0  0  0  0
   -4.5421    3.8407    1.7538 C   0  0  0  0  0  0  0  0  0  0  0  0
   -4.3458    0.2351    0.9483 N   0  0  0  0  0  0  0  0  0  0  0  0
   -3.3347   -0.3646    0.2993 C   0  0  0  0  0  0  0  0  0  0  0  0
   -3.3747   -1.8065    0.0469 C   0  0  0  0  0  0  0  0  0  0  0  0
   -3.7835   -2.6833    1.0595 C   0  0  0  0  0  0  0  0  0  0  0  0
   -3.8278   -4.0611    0.8321 C   0  0  0  0  0  0  0  0  0  0  0  0
   -3.4659   -4.5865   -0.4126 C   0  0  0  0  0  0  0  0  0  0  0  0
   -3.5452   -6.0659   -0.6541 C   0  0  0  0  0  0  0  0  0  0  0  0
   -3.0822   -3.7108   -1.4343 C   0  0  0  0  0  0  0  0  0  0  0  0
   -3.0319   -2.3330   -1.2052 C   0  0  0  0  0  0  0  0  0  0  0  0
    4.5292   -1.4553   -0.0982 C   0  0  0  0  0  0  0  0  0  0  0  0
    5.3979   -2.0427    0.8270 C   0  0  0  0  0  0  0  0  0  0  0  0
    9.1734   -2.2971    3.0117 H   0  0  0  0  0  0  0  0  0  0  0  0
    9.3234   -1.6627    1.3685 H   0  0  0  0  0  0  0  0  0  0  0  0
    8.6531   -0.6367    2.6961 H   0  0  0  0  0  0  0  0  0  0  0  0
    7.9833    0.1519    0.5667 H   0  0  0  0  0  0  0  0  0  0  0  0
    6.4907    1.1630   -1.0351 H   0  0  0  0  0  0  0  0  0  0  0  0
    3.0837   -0.2564   -1.7786 H   0  0  0  0  0  0  0  0  0  0  0  0
    2.6362    0.7778   -3.9286 H   0  0  0  0  0  0  0  0  0  0  0  0
    3.0424    2.4970   -3.9929 H   0  0  0  0  0  0  0  0  0  0  0  0
    2.5687    3.7605   -1.7979 H   0  0  0  0  0  0  0  0  0  0  0  0
    1.1724    3.9589   -2.8917 H   0  0  0  0  0  0  0  0  0  0  0  0
    0.9360    3.4995   -1.1816 H   0  0  0  0  0  0  0  0  0  0  0  0
   -0.7932    2.2990   -1.5299 H   0  0  0  0  0  0  0  0  0  0  0  0
   -0.6667   -0.6350   -0.6368 H   0  0  0  0  0  0  0  0  0  0  0  0
   -2.3834    2.7828    0.3663 H   0  0  0  0  0  0  0  0  0  0  0  0
   -6.4297    1.0098    2.0460 H   0  0  0  0  0  0  0  0  0  0  0  0
   -7.9562    2.6104    3.1270 H   0  0  0  0  0  0  0  0  0  0  0  0
   -7.3234    4.9971    3.3423 H   0  0  0  0  0  0  0  0  0  0  0  0
   -5.1426    5.7868    2.4700 H   0  0  0  0  0  0  0  0  0  0  0  0
   -3.5984    4.2299    1.3916 H   0  0  0  0  0  0  0  0  0  0  0  0
   -4.0731   -2.2950    2.0331 H   0  0  0  0  0  0  0  0  0  0  0  0
   -4.1505   -4.7191    1.6359 H   0  0  0  0  0  0  0  0  0  0  0  0
   -2.9391   -6.3631   -1.5165 H   0  0  0  0  0  0  0  0  0  0  0  0
   -4.5805   -6.3594   -0.8391 H   0  0  0  0  0  0  0  0  0  0  0  0
   -3.1656   -6.6159    0.2144 H   0  0  0  0  0  0  0  0  0  0  0  0
   -2.8220   -4.0936   -2.4182 H   0  0  0  0  0  0  0  0  0  0  0  0
   -2.7395   -1.6779   -2.0218 H   0  0  0  0  0  0  0  0  0  0  0  0
    3.5612   -1.9185   -0.2698 H   0  0  0  0  0  0  0  0  0  0  0  0
    5.0940   -2.9453    1.3519 H   0  0  0  0  0  0  0  0  0  0  0  0
  1  2  1  0
  2  3  1  0
  3  4  2  0
  4  5  1  0
  5  6  2  0
  6  7  1  0
  7  8  1  0
  8  9  2  0
  8 10  1  0
 10 11  1  0
 11 12  1  0
 11 13  1  0
 13 14  2  0
 13 15  1  0
 15 16  2  3
 16 17  1  0
 17 18  2  0
 18 19  1  0
 19 20  1  0
 20 21  2  0
 21 22  1  0
 22 23  2  0
 23 24  1  0
 24 25  2  0
 19 26  1  0
 26 27  2  0
 27 28  1  0
 28 29  2  0
 29 30  1  0
 30 31  2  0
 31 32  1  0
 31 33  1  0
 33 34  2  0
  6 35  1  0
 35 36  2  0
 36  3  1  0
 27 17  1  0
 34 28  1  0
 25 20  1  0
  1 37  1  0
  1 38  1  0
  1 39  1  0
  4 40  1  0
  5 41  1  0
  7 42  1  0
 10 43  1  0
 10 44  1  0
 12 45  1  0
 12 46  1  0
 12 47  1  0
 15 48  1  0
 16 49  1  0
 18 50  1  0
 21 51  1  0
 22 52  1  0
 23 53  1  0
 24 54  1  0
 25 55  1  0
 29 56  1  0
 30 57  1  0
 32 58  1  0
 32 59  1  0
 32 60  1  0
 33 61  1  0
 34 62  1  0
 35 63  1  0
 36 64  1  0
M  END
$$$$
