
     RDKit          3D

 53 55  0  0  0  0  0  0  0  0999 V2000
    8.8175    1.3719    0.6199 C   0  0  0  0  0  0  0  0  0  0  0  0
    7.9749    1.2487    1.7586 O   0  0  0  0  0  0  0  0  0  0  0  0
    6.7830    0.6027    1.5861 C   0  0  0  0  0  0  0  0  0  0  0  0
    6.0159    0.4783    2.7487 C   0  0  0  0  0  0  0  0  0  0  0  0
    4.7749   -0.1597    2.7221 C   0  0  0  0  0  0  0  0  0  0  0  0
    4.2881   -0.6591    1.5140 C   0  0  0  0  0  0  0  0  0  0  0  0
    2.7230   -1.5112    1.4776 S   0  0  0  0  0  6  0  0  0  0  0  0
    2.4795   -2.0206    2.8090 O   0  0  0  0  0  0  0  0  0  0  0  0
    2.7355   -2.3892    0.3280 O   0  0  0  0  0  0  0  0  0  0  0  0
    1.6022   -0.3043    1.1780 N   0  0  0  0  0  0  0  0  0  0  0  0
    1.3810    0.7610    2.1595 C   0  0  0  0  0  0  0  0  0  0  0  0
    1.6511    2.0192    1.3648 C   0  0  0  0  0  0  0  0  0  0  0  0
    1.2248    1.6905    0.0403 O   0  0  0  0  0  0  0  0  0  0  0  0
    1.5854    0.3095   -0.1603 C   0  0  0  0  0  0  0  0  0  0  0  0
    0.5541   -0.3719   -1.0804 C   0  0  0  0  0  0  0  0  0  0  0  0
   -0.7598   -0.5012   -0.4680 N   0  0  0  0  0  0  0  0  0  0  0  0
   -1.8992   -0.6677   -1.2191 C   0  0  0  0  0  0  0  0  0  0  0  0
   -1.9786   -0.5980   -2.4394 O   0  0  0  0  0  0  0  0  0  0  0  0
   -3.1649   -0.9673   -0.3833 C   0  0  0  0  0  0  0  0  0  0  0  0
   -3.0776   -1.1804    0.8175 O   0  0  0  0  0  0  0  0  0  0  0  0
   -4.3206   -0.9507   -1.1254 N   0  0  0  0  0  0  0  0  0  0  0  0
   -5.5941   -1.3656   -0.5820 C   0  0  0  0  0  0  0  0  0  0  0  0
   -6.7545   -0.6594   -1.2481 C   0  0  0  0  0  0  0  0  0  0  0  0
   -6.6681    0.7247   -1.5029 C   0  0  0  0  0  0  0  0  0  0  0  0
   -7.7273    1.4228   -2.0897 C   0  0  0  0  0  0  0  0  0  0  0  0
   -8.9028    0.7564   -2.4157 C   0  0  0  0  0  0  0  0  0  0  0  0
   -9.0199   -0.6075   -2.1520 C   0  0  0  0  0  0  0  0  0  0  0  0
   -7.9575   -1.3112   -1.5665 C   0  0  0  0  0  0  0  0  0  0  0  0
   -8.2076   -2.9919   -1.2477 Cl  0  0  0  0  0  0  0  0  0  0  0  0
    5.0596   -0.5670    0.3522 C   0  0  0  0  0  0  0  0  0  0  0  0
    6.3029    0.0729    0.3887 C   0  0  0  0  0  0  0  0  0  0  0  0
    9.7259    1.8969    0.9298 H   0  0  0  0  0  0  0  0  0  0  0  0
    9.1133    0.3901    0.2413 H   0  0  0  0  0  0  0  0  0  0  0  0
    8.3388    1.9689   -0.1607 H   0  0  0  0  0  0  0  0  0  0  0  0
    6.3998    0.8707    3.6869 H   0  0  0  0  0  0  0  0  0  0  0  0
    4.2103   -0.2716    3.6445 H   0  0  0  0  0  0  0  0  0  0  0  0
    2.0015    0.6995    3.0540 H   0  0  0  0  0  0  0  0  0  0  0  0
    0.3319    0.7152    2.4697 H   0  0  0  0  0  0  0  0  0  0  0  0
    1.0994    2.8865    1.7365 H   0  0  0  0  0  0  0  0  0  0  0  0
    2.7194    2.2605    1.3358 H   0  0  0  0  0  0  0  0  0  0  0  0
    2.5689    0.3067   -0.6372 H   0  0  0  0  0  0  0  0  0  0  0  0
    0.4460    0.2001   -2.0085 H   0  0  0  0  0  0  0  0  0  0  0  0
    0.8780   -1.3849   -1.3416 H   0  0  0  0  0  0  0  0  0  0  0  0
   -0.8126   -0.7666    0.5130 H   0  0  0  0  0  0  0  0  0  0  0  0
   -4.2014   -0.8946   -2.1336 H   0  0  0  0  0  0  0  0  0  0  0  0
   -5.6317   -2.4498   -0.7384 H   0  0  0  0  0  0  0  0  0  0  0  0
   -5.6205   -1.1778    0.4979 H   0  0  0  0  0  0  0  0  0  0  0  0
   -5.7655    1.2744   -1.2363 H   0  0  0  0  0  0  0  0  0  0  0  0
   -7.6339    2.4890   -2.2850 H   0  0  0  0  0  0  0  0  0  0  0  0
   -9.7308    1.2998   -2.8674 H   0  0  0  0  0  0  0  0  0  0  0  0
   -9.9453   -1.1190   -2.3990 H   0  0  0  0  0  0  0  0  0  0  0  0
    4.7119   -0.9982   -0.5831 H   0  0  0  0  0  0  0  0  0  0  0  0
    6.8758    0.1297   -0.5310 H   0  0  0  0  0  0  0  0  0  0  0  0
  1  2  1  0
  2  3  1  0
  3  4  2  0
  4  5  1  0
  5  6  2  0
  6  7  1  0
  7  8  2  0
  7  9  2  0
  7 10  1  0
 10 11  1  0
 11 12  1  0
 12 13  1  0
 13 14  1  0
 14 15  1  0
 15 16  1  0
 16 17  1  0
 17 18  2  0
 17 19  1  0
 19 20  2  0
 19 21  1  0
 21 22  1  0
 22 23  1  0
 23 24  2  0
 24 25  1  0
 25 26  2  0
 26 27  1  0
 27 28  2  0
 28 29  1  0
  6 30  1  0
 30 31  2  0
 31  3  1  0
 14 10  1  0
 28 23  1  0
  1 32  1  0
  1 33  1  0
  1 34  1  0
  4 35  1  0
  5 36  1  0
 11 37  1  0
 11 38  1  0
 12 39  1  0
 12 40  1  0
 14 41  1  0
 15 42  1  0
 15 43  1  0
 16 44  1  0
 21 45  1  0
 22 46  1  0
 22 47  1  0
 24 48  1  0
 25 49  1  0
 26 50  1  0
 27 51  1  0
 30 52  1  0
 31 53  1  0
M  END
$$$$
