
     RDKit          3D

 49 51  0  0  0  0  0  0  0  0999 V2000
    2.4244   -1.0380    0.9503 O   0  0  0  0  0  0  0  0  0  0  0  0
    2.8969   -0.3974    0.0215 C   0  0  0  0  0  0  0  0  0  0  0  0
    4.1822   -0.4803   -0.4576 N   0  0  0  0  0  0  0  0  0  0  0  0
    5.1114   -1.4822   -0.0061 C   0  0  0  0  0  0  0  0  0  0  0  0
    5.1223   -2.6646   -0.9390 C   0  0  0  0  0  0  0  0  0  0  0  0
    4.1892   -3.6996   -0.7804 C   0  0  0  0  0  0  0  0  0  0  0  0
    4.1810   -4.7864   -1.6556 C   0  0  0  0  0  0  0  0  0  0  0  0
    5.0999   -4.8465   -2.7015 C   0  0  0  0  0  0  0  0  0  0  0  0
    6.0250   -3.8187   -2.8757 C   0  0  0  0  0  0  0  0  0  0  0  0
    6.0348   -2.7303   -2.0015 C   0  0  0  0  0  0  0  0  0  0  0  0
    2.0221    0.6231   -0.7437 C   0  0  0  0  0  0  0  0  0  0  0  0
    2.4940    1.2633   -1.6730 O   0  0  0  0  0  0  0  0  0  0  0  0
    0.7390    0.7148   -0.2662 N   0  0  0  0  0  0  0  0  0  0  0  0
   -0.1909    1.7346   -0.7241 C   0  0  0  0  0  0  0  0  0  0  0  0
   -1.6548    1.4082   -0.3729 C   0  0  0  0  0  0  0  0  0  0  0  0
   -2.1066    0.2886   -1.1582 O   0  0  0  0  0  0  0  0  0  0  0  0
   -3.0117   -0.4415   -0.3261 C   0  0  0  0  0  0  0  0  0  0  0  0
   -2.4169   -0.3256    1.0593 C   0  0  0  0  0  0  0  0  0  0  0  0
   -1.7858    0.9966    1.0360 N   0  0  0  0  0  0  0  0  0  0  0  0
   -2.2014    2.1599    2.1646 S   0  0  0  0  0  6  0  0  0  0  0  0
   -2.1671    1.5415    3.4720 O   0  0  0  0  0  0  0  0  0  0  0  0
   -1.4301    3.3489    1.8734 O   0  0  0  0  0  0  0  0  0  0  0  0
   -3.9081    2.5306    1.8011 C   0  0  0  0  0  0  0  0  0  0  0  0
   -4.9232    1.8007    2.4301 C   0  0  0  0  0  0  0  0  0  0  0  0
   -6.2597    2.1069    2.1659 C   0  0  0  0  0  0  0  0  0  0  0  0
   -6.5719    3.1501    1.2935 C   0  0  0  0  0  0  0  0  0  0  0  0
   -8.3819    3.5624    0.9379 Br  0  0  0  0  0  0  0  0  0  0  0  0
   -5.5612    3.8998    0.6906 C   0  0  0  0  0  0  0  0  0  0  0  0
   -4.2231    3.5976    0.9523 C   0  0  0  0  0  0  0  0  0  0  0  0
    4.3758    0.0360   -1.3107 H   0  0  0  0  0  0  0  0  0  0  0  0
    4.8628   -1.8033    1.0119 H   0  0  0  0  0  0  0  0  0  0  0  0
    6.1029   -1.0180    0.0328 H   0  0  0  0  0  0  0  0  0  0  0  0
    3.4600   -3.6582    0.0273 H   0  0  0  0  0  0  0  0  0  0  0  0
    3.4547   -5.5839   -1.5226 H   0  0  0  0  0  0  0  0  0  0  0  0
    5.0920   -5.6925   -3.3837 H   0  0  0  0  0  0  0  0  0  0  0  0
    6.7377   -3.8635   -3.6952 H   0  0  0  0  0  0  0  0  0  0  0  0
    6.7592   -1.9337   -2.1552 H   0  0  0  0  0  0  0  0  0  0  0  0
    0.5436    0.2392    0.6120 H   0  0  0  0  0  0  0  0  0  0  0  0
   -0.0753    1.8416   -1.8083 H   0  0  0  0  0  0  0  0  0  0  0  0
    0.1182    2.6736   -0.2534 H   0  0  0  0  0  0  0  0  0  0  0  0
   -2.2988    2.2535   -0.6283 H   0  0  0  0  0  0  0  0  0  0  0  0
   -3.0917   -1.4759   -0.6702 H   0  0  0  0  0  0  0  0  0  0  0  0
   -3.9973    0.0334   -0.3857 H   0  0  0  0  0  0  0  0  0  0  0  0
   -1.6280   -1.0716    1.2059 H   0  0  0  0  0  0  0  0  0  0  0  0
   -3.1644   -0.4650    1.8418 H   0  0  0  0  0  0  0  0  0  0  0  0
   -4.6850    1.0053    3.1335 H   0  0  0  0  0  0  0  0  0  0  0  0
   -7.0481    1.5376    2.6528 H   0  0  0  0  0  0  0  0  0  0  0  0
   -5.8056    4.7261    0.0269 H   0  0  0  0  0  0  0  0  0  0  0  0
   -3.4404    4.2032    0.5000 H   0  0  0  0  0  0  0  0  0  0  0  0
  1  2  2  0
  2  3  1  0
  3  4  1  0
  4  5  1  0
  5  6  2  0
  6  7  1  0
  7  8  2  0
  8  9  1  0
  9 10  2  0
  2 11  1  0
 11 12  2  0
 11 13  1  0
 13 14  1  0
 14 15  1  0
 15 16  1  0
 16 17  1  0
 17 18  1  0
 18 19  1  0
 19 20  1  0
 20 21  2  0
 20 22  2  0
 20 23  1  0
 23 24  2  0
 24 25  1  0
 25 26  2  0
 26 27  1  0
 26 28  1  0
 28 29  2  0
 10  5  1  0
 19 15  1  0
 29 23  1  0
  3 30  1  0
  4 31  1  0
  4 32  1  0
  6 33  1  0
  7 34  1  0
  8 35  1  0
  9 36  1  0
 10 37  1  0
 13 38  1  0
 14 39  1  0
 14 40  1  0
 15 41  1  0
 17 42  1  0
 17 43  1  0
 18 44  1  0
 18 45  1  0
 24 46  1  0
 25 47  1  0
 28 48  1  0
 29 49  1  0
M  END
$$$$
