
     RDKit          3D

 51 55  0  0  0  0  0  0  0  0999 V2000
   -8.3292   -0.7793    1.1618 F   0  0  0  0  0  0  0  0  0  0  0  0
   -7.2154   -0.5625    0.4492 C   0  0  0  0  0  0  0  0  0  0  0  0
   -6.9969   -1.2885   -0.7151 C   0  0  0  0  0  0  0  0  0  0  0  0
   -5.8367   -1.0646   -1.4531 C   0  0  0  0  0  0  0  0  0  0  0  0
   -4.9077   -0.1142   -1.0207 C   0  0  0  0  0  0  0  0  0  0  0  0
   -5.1289    0.6231    0.1524 C   0  0  0  0  0  0  0  0  0  0  0  0
   -4.1181    1.6436    0.6223 C   0  0  0  0  0  0  0  0  0  0  0  0
   -2.9452    1.0309    1.4131 C   0  0  0  0  0  0  0  0  0  0  0  0
   -1.9936    0.2738    0.5834 N   0  0  0  0  0  0  0  0  0  0  0  0
   -1.2073   -0.6656    1.4138 C   0  0  0  0  0  0  0  0  0  0  0  0
    0.1264   -1.0858    0.7663 C   0  0  0  0  0  0  0  0  0  0  0  0
    1.0093    0.0830    0.5983 N   0  0  0  0  0  0  0  0  0  0  0  0
    2.3397   -0.1169    0.2412 C   0  0  0  0  0  0  0  0  0  0  0  0
    2.6811   -1.2965   -0.2185 N   0  0  0  0  0  0  0  0  0  0  0  0
    3.9987   -1.5578   -0.6377 C   0  0  0  0  0  0  0  0  0  0  0  0
    4.2965   -2.8280   -1.1353 C   0  0  0  0  0  0  0  0  0  0  0  0
    5.5856   -3.1376   -1.5770 C   0  0  0  0  0  0  0  0  0  0  0  0
    6.5932   -2.1739   -1.5250 C   0  0  0  0  0  0  0  0  0  0  0  0
    6.3179   -0.8982   -1.0311 C   0  0  0  0  0  0  0  0  0  0  0  0
    5.0229   -0.6036   -0.5934 C   0  0  0  0  0  0  0  0  0  0  0  0
    4.6620    0.6477   -0.0687 N   0  0  0  0  0  0  0  0  0  0  0  0
    5.4384    1.7650    0.1297 C   0  0  0  0  0  0  0  0  0  0  0  0
    4.6645    2.7234    0.7452 C   0  0  0  0  0  0  0  0  0  0  0  0
    3.3721    2.1735    0.9097 C   0  0  0  0  0  0  0  0  0  0  0  0
    3.3761    0.9018    0.3612 C   0  0  0  0  0  0  0  0  0  0  0  0
    0.3159    1.3504    0.3290 C   0  0  0  0  0  0  0  0  0  0  0  0
   -1.1080    1.1305   -0.2329 C   0  0  0  0  0  0  0  0  0  0  0  0
   -6.2966    0.3856    0.8894 C   0  0  0  0  0  0  0  0  0  0  0  0
   -7.7271   -2.0236   -1.0365 H   0  0  0  0  0  0  0  0  0  0  0  0
   -5.6502   -1.6310   -2.3617 H   0  0  0  0  0  0  0  0  0  0  0  0
   -3.9989    0.0423   -1.5992 H   0  0  0  0  0  0  0  0  0  0  0  0
   -4.6276    2.3685    1.2710 H   0  0  0  0  0  0  0  0  0  0  0  0
   -3.7673    2.2274   -0.2366 H   0  0  0  0  0  0  0  0  0  0  0  0
   -2.4150    1.8289    1.9490 H   0  0  0  0  0  0  0  0  0  0  0  0
   -3.3718    0.3700    2.1801 H   0  0  0  0  0  0  0  0  0  0  0  0
   -0.9807   -0.2136    2.3895 H   0  0  0  0  0  0  0  0  0  0  0  0
   -1.8142   -1.5590    1.6005 H   0  0  0  0  0  0  0  0  0  0  0  0
   -0.0586   -1.5632   -0.2041 H   0  0  0  0  0  0  0  0  0  0  0  0
    0.6107   -1.8224    1.4185 H   0  0  0  0  0  0  0  0  0  0  0  0
    3.5126   -3.5794   -1.1790 H   0  0  0  0  0  0  0  0  0  0  0  0
    5.8006   -4.1312   -1.9616 H   0  0  0  0  0  0  0  0  0  0  0  0
    7.5951   -2.4192   -1.8691 H   0  0  0  0  0  0  0  0  0  0  0  0
    7.1184   -0.1670   -0.9977 H   0  0  0  0  0  0  0  0  0  0  0  0
    6.4793    1.7942   -0.1574 H   0  0  0  0  0  0  0  0  0  0  0  0
    4.9997    3.7055    1.0532 H   0  0  0  0  0  0  0  0  0  0  0  0
    2.5323    2.6609    1.3841 H   0  0  0  0  0  0  0  0  0  0  0  0
    0.8688    1.9483   -0.4042 H   0  0  0  0  0  0  0  0  0  0  0  0
    0.2549    1.9266    1.2593 H   0  0  0  0  0  0  0  0  0  0  0  0
   -1.0119    0.6423   -1.2119 H   0  0  0  0  0  0  0  0  0  0  0  0
   -1.5622    2.1063   -0.4375 H   0  0  0  0  0  0  0  0  0  0  0  0
   -6.5039    0.9293    1.8059 H   0  0  0  0  0  0  0  0  0  0  0  0
  1  2  1  0
  2  3  2  0
  3  4  1  0
  4  5  2  0
  5  6  1  0
  6  7  1  0
  7  8  1  0
  8  9  1  0
  9 10  1  0
 10 11  1  0
 11 12  1  0
 12 13  1  0
 13 14  2  0
 14 15  1  0
 15 16  2  0
 16 17  1  0
 17 18  2  0
 18 19  1  0
 19 20  2  0
 20 21  1  0
 21 22  1  0
 22 23  2  0
 23 24  1  0
 24 25  2  0
 12 26  1  0
 26 27  1  0
  6 28  2  0
 28  2  1  0
 27  9  1  0
 25 13  1  0
 20 15  1  0
 25 21  1  0
  3 29  1  0
  4 30  1  0
  5 31  1  0
  7 32  1  0
  7 33  1  0
  8 34  1  0
  8 35  1  0
 10 36  1  0
 10 37  1  0
 11 38  1  0
 11 39  1  0
 16 40  1  0
 17 41  1  0
 18 42  1  0
 19 43  1  0
 22 44  1  0
 23 45  1  0
 24 46  1  0
 26 47  1  0
 26 48  1  0
 27 49  1  0
 27 50  1  0
 28 51  1  0
M  END
$$$$
