
     RDKit          3D

 53 55  0  0  0  0  0  0  0  0999 V2000
   -3.8701   -1.2202    3.6304 C   0  0  0  0  0  0  0  0  0  0  0  0
   -3.9320   -1.2558    2.2102 O   0  0  0  0  0  0  0  0  0  0  0  0
   -5.0359   -0.7062    1.6090 C   0  0  0  0  0  0  0  0  0  0  0  0
   -6.1486   -0.2060    2.2935 C   0  0  0  0  0  0  0  0  0  0  0  0
   -7.2268    0.3419    1.5913 C   0  0  0  0  0  0  0  0  0  0  0  0
   -7.2024    0.3970    0.2011 C   0  0  0  0  0  0  0  0  0  0  0  0
   -6.0998   -0.0986   -0.4908 C   0  0  0  0  0  0  0  0  0  0  0  0
   -5.0124   -0.6631    0.2017 C   0  0  0  0  0  0  0  0  0  0  0  0
   -3.8251   -1.1580   -0.5829 C   0  0  0  0  0  0  0  0  0  0  0  0
   -2.8920   -0.0904   -0.8341 N   0  0  0  0  0  0  0  0  0  0  0  0
   -1.8087   -0.2692   -1.6585 C   0  0  0  0  0  0  0  0  0  0  0  0
   -1.5951   -1.2364   -2.3765 O   0  0  0  0  0  0  0  0  0  0  0  0
   -0.7890    0.8898   -1.6018 C   0  0  0  0  0  0  0  0  0  0  0  0
   -0.8905    1.7541   -0.7438 O   0  0  0  0  0  0  0  0  0  0  0  0
    0.1843    0.8074   -2.5711 N   0  0  0  0  0  0  0  0  0  0  0  0
    1.4253    1.5630   -2.4721 C   0  0  0  0  0  0  0  0  0  0  0  0
    2.5566    0.7583   -1.7940 C   0  0  0  0  0  0  0  0  0  0  0  0
    2.8105   -0.4295   -2.5755 O   0  0  0  0  0  0  0  0  0  0  0  0
    3.1003   -1.4743   -1.6403 C   0  0  0  0  0  0  0  0  0  0  0  0
    2.2257   -1.1648   -0.4463 C   0  0  0  0  0  0  0  0  0  0  0  0
    2.1770    0.2958   -0.4533 N   0  0  0  0  0  0  0  0  0  0  0  0
    2.6980    1.1778    0.8682 S   0  0  0  0  0  6  0  0  0  0  0  0
    2.0949    0.6099    2.0555 O   0  0  0  0  0  0  0  0  0  0  0  0
    2.5777    2.5846    0.5500 O   0  0  0  0  0  0  0  0  0  0  0  0
    4.4465    0.8139    0.9526 C   0  0  0  0  0  0  0  0  0  0  0  0
    4.8929   -0.2618    1.7296 C   0  0  0  0  0  0  0  0  0  0  0  0
    6.2600   -0.5348    1.8096 C   0  0  0  0  0  0  0  0  0  0  0  0
    7.1703    0.2773    1.1312 C   0  0  0  0  0  0  0  0  0  0  0  0
    9.0196   -0.0983    1.2368 Br  0  0  0  0  0  0  0  0  0  0  0  0
    6.7292    1.3704    0.3834 C   0  0  0  0  0  0  0  0  0  0  0  0
    5.3630    1.6486    0.3016 C   0  0  0  0  0  0  0  0  0  0  0  0
   -2.9128   -1.6563    3.9351 H   0  0  0  0  0  0  0  0  0  0  0  0
   -4.6671   -1.8286    4.0749 H   0  0  0  0  0  0  0  0  0  0  0  0
   -3.8983   -0.1917    4.0032 H   0  0  0  0  0  0  0  0  0  0  0  0
   -6.2095   -0.2265    3.3768 H   0  0  0  0  0  0  0  0  0  0  0  0
   -8.0844    0.7299    2.1342 H   0  0  0  0  0  0  0  0  0  0  0  0
   -8.0373    0.8289   -0.3445 H   0  0  0  0  0  0  0  0  0  0  0  0
   -6.0835   -0.0389   -1.5779 H   0  0  0  0  0  0  0  0  0  0  0  0
   -3.2997   -1.9685   -0.0651 H   0  0  0  0  0  0  0  0  0  0  0  0
   -4.1499   -1.5758   -1.5446 H   0  0  0  0  0  0  0  0  0  0  0  0
   -2.8142    0.6655   -0.1577 H   0  0  0  0  0  0  0  0  0  0  0  0
    0.1928   -0.0550   -3.1111 H   0  0  0  0  0  0  0  0  0  0  0  0
    1.7152    1.7999   -3.5021 H   0  0  0  0  0  0  0  0  0  0  0  0
    1.2398    2.4981   -1.9320 H   0  0  0  0  0  0  0  0  0  0  0  0
    3.4791    1.3434   -1.7926 H   0  0  0  0  0  0  0  0  0  0  0  0
    4.1654   -1.4257   -1.3883 H   0  0  0  0  0  0  0  0  0  0  0  0
    2.8825   -2.4496   -2.0839 H   0  0  0  0  0  0  0  0  0  0  0  0
    1.2080   -1.5379   -0.6043 H   0  0  0  0  0  0  0  0  0  0  0  0
    2.6085   -1.6093    0.4738 H   0  0  0  0  0  0  0  0  0  0  0  0
    4.1885   -0.8823    2.2804 H   0  0  0  0  0  0  0  0  0  0  0  0
    6.6061   -1.3733    2.4095 H   0  0  0  0  0  0  0  0  0  0  0  0
    7.4404    2.0145   -0.1292 H   0  0  0  0  0  0  0  0  0  0  0  0
    5.0268    2.5168   -0.2629 H   0  0  0  0  0  0  0  0  0  0  0  0
  1  2  1  0
  2  3  1  0
  3  4  2  0
  4  5  1  0
  5  6  2  0
  6  7  1  0
  7  8  2  0
  8  9  1  0
  9 10  1  0
 10 11  1  0
 11 12  2  0
 11 13  1  0
 13 14  2  0
 13 15  1  0
 15 16  1  0
 16 17  1  0
 17 18  1  0
 18 19  1  0
 19 20  1  0
 20 21  1  0
 21 22  1  0
 22 23  2  0
 22 24  2  0
 22 25  1  0
 25 26  2  0
 26 27  1  0
 27 28  2  0
 28 29  1  0
 28 30  1  0
 30 31  2  0
  8  3  1  0
 21 17  1  0
 31 25  1  0
  1 32  1  0
  1 33  1  0
  1 34  1  0
  4 35  1  0
  5 36  1  0
  6 37  1  0
  7 38  1  0
  9 39  1  0
  9 40  1  0
 10 41  1  0
 15 42  1  0
 16 43  1  0
 16 44  1  0
 17 45  1  0
 19 46  1  0
 19 47  1  0
 20 48  1  0
 20 49  1  0
 26 50  1  0
 27 51  1  0
 30 52  1  0
 31 53  1  0
M  END
$$$$
