
     RDKit          3D

 51 55  0  0  0  0  0  0  0  0999 V2000
    7.5457   -0.2462   -0.7814 C   0  0  0  0  0  0  0  0  0  0  0  0
    6.7651   -0.9433    0.1389 C   0  0  0  0  0  0  0  0  0  0  0  0
    5.5133   -0.4501    0.5098 C   0  0  0  0  0  0  0  0  0  0  0  0
    5.0333    0.7486   -0.0351 C   0  0  0  0  0  0  0  0  0  0  0  0
    3.6685    1.2724    0.3474 C   0  0  0  0  0  0  0  0  0  0  0  0
    2.5701    0.6935   -0.5617 C   0  0  0  0  0  0  0  0  0  0  0  0
    1.2386    1.2670   -0.2926 N   0  0  0  0  0  0  0  0  0  0  0  0
    0.2823    0.9361   -1.3783 C   0  0  0  0  0  0  0  0  0  0  0  0
   -0.1868   -0.5383   -1.4119 C   0  0  0  0  0  0  0  0  0  0  0  0
   -0.7619   -0.9391   -0.1121 N   0  0  0  0  0  0  0  0  0  0  0  0
   -2.1264   -0.7354    0.0961 C   0  0  0  0  0  0  0  0  0  0  0  0
   -2.5168    0.0476    1.0699 N   0  0  0  0  0  0  0  0  0  0  0  0
   -3.8859    0.3014    1.2833 C   0  0  0  0  0  0  0  0  0  0  0  0
   -4.2464    1.1619    2.3219 C   0  0  0  0  0  0  0  0  0  0  0  0
   -5.5897    1.4560    2.5713 C   0  0  0  0  0  0  0  0  0  0  0  0
   -6.5894    0.8894    1.7796 C   0  0  0  0  0  0  0  0  0  0  0  0
   -6.2526    0.0268    0.7359 C   0  0  0  0  0  0  0  0  0  0  0  0
   -4.9046   -0.2571    0.4981 C   0  0  0  0  0  0  0  0  0  0  0  0
   -4.4775   -1.1215   -0.5225 N   0  0  0  0  0  0  0  0  0  0  0  0
   -5.2190   -1.8366   -1.4332 C   0  0  0  0  0  0  0  0  0  0  0  0
   -4.3539   -2.5972   -2.1902 C   0  0  0  0  0  0  0  0  0  0  0  0
   -3.0446   -2.3228   -1.7320 C   0  0  0  0  0  0  0  0  0  0  0  0
   -3.1403   -1.3792   -0.7244 C   0  0  0  0  0  0  0  0  0  0  0  0
    0.1683   -0.6616    1.0022 C   0  0  0  0  0  0  0  0  0  0  0  0
    0.6495    0.8084    0.9914 C   0  0  0  0  0  0  0  0  0  0  0  0
    5.8240    1.4395   -0.9631 C   0  0  0  0  0  0  0  0  0  0  0  0
    7.0754    0.9443   -1.3324 C   0  0  0  0  0  0  0  0  0  0  0  0
    8.5209   -0.6302   -1.0688 H   0  0  0  0  0  0  0  0  0  0  0  0
    7.1321   -1.8717    0.5687 H   0  0  0  0  0  0  0  0  0  0  0  0
    4.9158   -1.0060    1.2286 H   0  0  0  0  0  0  0  0  0  0  0  0
    3.6699    2.3684    0.2873 H   0  0  0  0  0  0  0  0  0  0  0  0
    3.4844    1.0260    1.3993 H   0  0  0  0  0  0  0  0  0  0  0  0
    2.5647   -0.4007   -0.4926 H   0  0  0  0  0  0  0  0  0  0  0  0
    2.8474    0.9305   -1.5980 H   0  0  0  0  0  0  0  0  0  0  0  0
   -0.5976    1.5820   -1.2570 H   0  0  0  0  0  0  0  0  0  0  0  0
    0.7111    1.2062   -2.3511 H   0  0  0  0  0  0  0  0  0  0  0  0
   -0.9066   -0.6558   -2.2278 H   0  0  0  0  0  0  0  0  0  0  0  0
    0.6555   -1.2000   -1.6450 H   0  0  0  0  0  0  0  0  0  0  0  0
   -3.4700    1.6068    2.9386 H   0  0  0  0  0  0  0  0  0  0  0  0
   -5.8533    2.1283    3.3838 H   0  0  0  0  0  0  0  0  0  0  0  0
   -7.6331    1.1210    1.9780 H   0  0  0  0  0  0  0  0  0  0  0  0
   -7.0470   -0.4033    0.1353 H   0  0  0  0  0  0  0  0  0  0  0  0
   -6.2966   -1.7706   -1.4680 H   0  0  0  0  0  0  0  0  0  0  0  0
   -4.6384   -3.2829   -2.9780 H   0  0  0  0  0  0  0  0  0  0  0  0
   -2.1272   -2.7667   -2.0953 H   0  0  0  0  0  0  0  0  0  0  0  0
    1.0276   -1.3368    0.9125 H   0  0  0  0  0  0  0  0  0  0  0  0
   -0.2960   -0.8982    1.9672 H   0  0  0  0  0  0  0  0  0  0  0  0
    1.3482    0.9677    1.8191 H   0  0  0  0  0  0  0  0  0  0  0  0
   -0.2023    1.4646    1.2116 H   0  0  0  0  0  0  0  0  0  0  0  0
    5.4688    2.3689   -1.4030 H   0  0  0  0  0  0  0  0  0  0  0  0
    7.6836    1.4883   -2.0504 H   0  0  0  0  0  0  0  0  0  0  0  0
  1  2  2  0
  2  3  1  0
  3  4  2  0
  4  5  1  0
  5  6  1  0
  6  7  1  0
  7  8  1  0
  8  9  1  0
  9 10  1  0
 10 11  1  0
 11 12  2  0
 12 13  1  0
 13 14  2  0
 14 15  1  0
 15 16  2  0
 16 17  1  0
 17 18  2  0
 18 19  1  0
 19 20  1  0
 20 21  2  0
 21 22  1  0
 22 23  2  0
 10 24  1  0
 24 25  1  0
  4 26  1  0
 26 27  2  0
 27  1  1  0
 25  7  1  0
 23 11  1  0
 18 13  1  0
 23 19  1  0
  1 28  1  0
  2 29  1  0
  3 30  1  0
  5 31  1  0
  5 32  1  0
  6 33  1  0
  6 34  1  0
  8 35  1  0
  8 36  1  0
  9 37  1  0
  9 38  1  0
 14 39  1  0
 15 40  1  0
 16 41  1  0
 17 42  1  0
 20 43  1  0
 21 44  1  0
 22 45  1  0
 24 46  1  0
 24 47  1  0
 25 48  1  0
 25 49  1  0
 26 50  1  0
 27 51  1  0
M  END
$$$$
