
     RDKit          3D

 54 56  0  0  0  0  0  0  0  0999 V2000
    9.4737    0.6089    1.2311 C   0  0  0  0  0  0  0  0  0  0  0  0
    8.2423    1.3101    1.3450 O   0  0  0  0  0  0  0  0  0  0  0  0
    7.1740    0.7982    0.6615 C   0  0  0  0  0  0  0  0  0  0  0  0
    7.1785   -0.3502   -0.1298 C   0  0  0  0  0  0  0  0  0  0  0  0
    6.0083   -0.7657   -0.7758 C   0  0  0  0  0  0  0  0  0  0  0  0
    4.8213   -0.0359   -0.6421 C   0  0  0  0  0  0  0  0  0  0  0  0
    3.5546   -0.4927   -1.3212 C   0  0  0  0  0  0  0  0  0  0  0  0
    2.6777   -1.3182   -0.3734 C   0  0  0  0  0  0  0  0  0  0  0  0
    1.4058   -1.8365   -1.0454 C   0  0  0  0  0  0  0  0  0  0  0  0
    0.4730   -0.7479   -1.4204 C   0  0  0  0  0  0  0  0  0  0  0  0
    0.0591    0.2857   -0.7197 N   0  0  0  0  0  0  0  0  0  0  0  0
   -0.7960    0.9874   -1.5395 N   0  0  0  0  0  0  0  0  0  0  0  0
   -0.8580    0.3275   -2.6790 C   0  0  0  0  0  0  0  0  0  0  0  0
   -1.8230    0.8021   -4.0380 S   0  0  0  0  0  0  0  0  0  0  0  0
   -2.9664    1.9616   -3.2386 C   0  0  0  0  0  0  0  0  0  0  0  0
   -3.9863    1.2091   -2.3957 C   0  0  0  0  0  0  0  0  0  0  0  0
   -4.9528    0.6677   -2.9270 O   0  0  0  0  0  0  0  0  0  0  0  0
   -3.6990    1.2195   -1.0418 N   0  0  0  0  0  0  0  0  0  0  0  0
   -4.4522    0.6563    0.0182 C   0  0  0  0  0  0  0  0  0  0  0  0
   -5.6670   -0.0084   -0.1751 C   0  0  0  0  0  0  0  0  0  0  0  0
   -6.3854   -0.5630    0.9034 C   0  0  0  0  0  0  0  0  0  0  0  0
   -7.6861   -1.2701    0.6286 C   0  0  0  0  0  0  0  0  0  0  0  0
   -5.8797   -0.4447    2.2108 C   0  0  0  0  0  0  0  0  0  0  0  0
   -6.6108   -1.0196    3.3928 C   0  0  0  0  0  0  0  0  0  0  0  0
   -4.6670    0.2272    2.4112 C   0  0  0  0  0  0  0  0  0  0  0  0
   -3.9652    0.7714    1.3303 C   0  0  0  0  0  0  0  0  0  0  0  0
   -2.3453    1.6931    1.7168 Br  0  0  0  0  0  0  0  0  0  0  0  0
   -0.0612   -0.7857   -2.6786 O   0  0  0  0  0  0  0  0  0  0  0  0
    4.8205    1.1129    0.1565 C   0  0  0  0  0  0  0  0  0  0  0  0
    5.9896    1.5245    0.8002 C   0  0  0  0  0  0  0  0  0  0  0  0
    9.3891   -0.4062    1.6324 H   0  0  0  0  0  0  0  0  0  0  0  0
   10.2184    1.1417    1.8300 H   0  0  0  0  0  0  0  0  0  0  0  0
    9.8266    0.5969    0.1946 H   0  0  0  0  0  0  0  0  0  0  0  0
    8.0739   -0.9471   -0.2654 H   0  0  0  0  0  0  0  0  0  0  0  0
    6.0329   -1.6664   -1.3852 H   0  0  0  0  0  0  0  0  0  0  0  0
    3.8068   -1.0842   -2.2104 H   0  0  0  0  0  0  0  0  0  0  0  0
    3.0133    0.3880   -1.6880 H   0  0  0  0  0  0  0  0  0  0  0  0
    2.4179   -0.7236    0.5122 H   0  0  0  0  0  0  0  0  0  0  0  0
    3.2516   -2.1801   -0.0090 H   0  0  0  0  0  0  0  0  0  0  0  0
    1.6695   -2.4324   -1.9272 H   0  0  0  0  0  0  0  0  0  0  0  0
    0.8865   -2.5087   -0.3521 H   0  0  0  0  0  0  0  0  0  0  0  0
   -2.4301    2.7114   -2.6482 H   0  0  0  0  0  0  0  0  0  0  0  0
   -3.5140    2.5074   -4.0146 H   0  0  0  0  0  0  0  0  0  0  0  0
   -2.7989    1.6062   -0.7575 H   0  0  0  0  0  0  0  0  0  0  0  0
   -6.0869   -0.1165   -1.1709 H   0  0  0  0  0  0  0  0  0  0  0  0
   -7.9201   -1.2852   -0.4413 H   0  0  0  0  0  0  0  0  0  0  0  0
   -8.5097   -0.7609    1.1389 H   0  0  0  0  0  0  0  0  0  0  0  0
   -7.6324   -2.3097    0.9670 H   0  0  0  0  0  0  0  0  0  0  0  0
   -6.7077   -2.1049    3.2883 H   0  0  0  0  0  0  0  0  0  0  0  0
   -7.6049   -0.5698    3.4811 H   0  0  0  0  0  0  0  0  0  0  0  0
   -6.0773   -0.8252    4.3295 H   0  0  0  0  0  0  0  0  0  0  0  0
   -4.2679    0.3302    3.4181 H   0  0  0  0  0  0  0  0  0  0  0  0
    3.9103    1.6950    0.2852 H   0  0  0  0  0  0  0  0  0  0  0  0
    5.9764    2.4197    1.4173 H   0  0  0  0  0  0  0  0  0  0  0  0
  1  2  1  0
  2  3  1  0
  3  4  2  0
  4  5  1  0
  5  6  2  0
  6  7  1  0
  7  8  1  0
  8  9  1  0
  9 10  1  0
 10 11  2  0
 11 12  1  0
 12 13  2  0
 13 14  1  0
 14 15  1  0
 15 16  1  0
 16 17  2  0
 16 18  1  0
 18 19  1  0
 19 20  2  0
 20 21  1  0
 21 22  1  0
 21 23  2  0
 23 24  1  0
 23 25  1  0
 25 26  2  0
 26 27  1  0
 13 28  1  0
  6 29  1  0
 29 30  2  0
 30  3  1  0
 28 10  1  0
 26 19  1  0
  1 31  1  0
  1 32  1  0
  1 33  1  0
  4 34  1  0
  5 35  1  0
  7 36  1  0
  7 37  1  0
  8 38  1  0
  8 39  1  0
  9 40  1  0
  9 41  1  0
 15 42  1  0
 15 43  1  0
 18 44  1  0
 20 45  1  0
 22 46  1  0
 22 47  1  0
 22 48  1  0
 24 49  1  0
 24 50  1  0
 24 51  1  0
 25 52  1  0
 29 53  1  0
 30 54  1  0
M  END
$$$$
