
     RDKit          3D

 36 37  0  0  0  0  0  0  0  0999 V2000
    0.9580    2.4969   -2.4817 O   0  0  0  0  0  0  0  0  0  0  0  0
    0.6777    1.5108   -1.8060 C   0  0  0  0  0  0  0  0  0  0  0  0
   -0.2170    0.3897   -2.3323 C   0  0  0  0  0  0  0  0  0  0  0  0
   -1.4162    0.2220   -1.5743 O   0  0  0  0  0  0  0  0  0  0  0  0
   -1.4045   -0.7544   -0.6400 C   0  0  0  0  0  0  0  0  0  0  0  0
   -0.4707   -1.4759   -0.3349 O   0  0  0  0  0  0  0  0  0  0  0  0
   -2.7497   -0.8141   -0.0398 C   0  0  0  0  0  0  0  0  0  0  0  0
   -3.8435   -1.0632   -0.8838 C   0  0  0  0  0  0  0  0  0  0  0  0
   -5.1261   -1.1419   -0.3453 C   0  0  0  0  0  0  0  0  0  0  0  0
   -6.4667   -1.4501   -1.3779 Cl  0  0  0  0  0  0  0  0  0  0  0  0
   -5.3290   -0.9732    1.0233 C   0  0  0  0  0  0  0  0  0  0  0  0
   -4.2395   -0.7248    1.8627 C   0  0  0  0  0  0  0  0  0  0  0  0
   -2.9449   -0.6461    1.3347 C   0  0  0  0  0  0  0  0  0  0  0  0
   -1.6523   -0.2993    2.4222 Cl  0  0  0  0  0  0  0  0  0  0  0  0
    1.1760    1.3038   -0.5413 N   0  0  0  0  0  0  0  0  0  0  0  0
    2.1870    2.1769    0.0341 C   0  0  0  0  0  0  0  0  0  0  0  0
    2.7519    1.6501    1.3602 C   0  0  0  0  0  0  0  0  0  0  0  0
    3.4634    0.3890    1.2001 N   0  0  0  0  0  0  0  0  0  0  0  0
    2.8389   -0.8332    1.1684 C   0  0  0  0  0  0  0  0  0  0  0  0
    1.4959   -0.8714    1.3769 O   0  0  0  0  0  0  0  0  0  0  0  0
    3.6408   -1.8681    0.8952 C   0  0  0  0  0  0  0  0  0  0  0  0
    5.2820   -1.3422    0.6618 S   0  0  0  0  0  0  0  0  0  0  0  0
    4.8204    0.3544    0.9199 C   0  0  0  0  0  0  0  0  0  0  0  0
    5.5961    1.2926    0.8390 O   0  0  0  0  0  0  0  0  0  0  0  0
   -0.5189    0.6504   -3.3528 H   0  0  0  0  0  0  0  0  0  0  0  0
    0.3654   -0.5372   -2.4000 H   0  0  0  0  0  0  0  0  0  0  0  0
   -3.6930   -1.1985   -1.9524 H   0  0  0  0  0  0  0  0  0  0  0  0
   -6.3314   -1.0344    1.4445 H   0  0  0  0  0  0  0  0  0  0  0  0
   -4.4095   -0.5867    2.9289 H   0  0  0  0  0  0  0  0  0  0  0  0
    0.9642    0.4343   -0.0550 H   0  0  0  0  0  0  0  0  0  0  0  0
    1.7240    3.1570    0.1862 H   0  0  0  0  0  0  0  0  0  0  0  0
    2.9886    2.3009   -0.7047 H   0  0  0  0  0  0  0  0  0  0  0  0
    3.4514    2.3923    1.7615 H   0  0  0  0  0  0  0  0  0  0  0  0
    1.9533    1.5235    2.1006 H   0  0  0  0  0  0  0  0  0  0  0  0
    1.1340   -1.7265    1.0748 H   0  0  0  0  0  0  0  0  0  0  0  0
    3.3439   -2.9034    0.8182 H   0  0  0  0  0  0  0  0  0  0  0  0
  1  2  2  0
  2  3  1  0
  3  4  1  0
  4  5  1  0
  5  6  2  0
  5  7  1  0
  7  8  2  0
  8  9  1  0
  9 10  1  0
  9 11  2  0
 11 12  1  0
 12 13  2  0
 13 14  1  0
  2 15  1  0
 15 16  1  0
 16 17  1  0
 17 18  1  0
 18 19  1  0
 19 20  1  0
 19 21  2  0
 21 22  1  0
 22 23  1  0
 23 24  2  0
 13  7  1  0
 23 18  1  0
  3 25  1  0
  3 26  1  0
  8 27  1  0
 11 28  1  0
 12 29  1  0
 15 30  1  0
 16 31  1  0
 16 32  1  0
 17 33  1  0
 17 34  1  0
 20 35  1  0
 21 36  1  0
M  END
$$$$
