
     RDKit          3D

 52 55  0  0  0  0  0  0  0  0999 V2000
    7.3577    0.9681   -0.4080 C   0  0  0  0  0  0  0  0  0  0  0  0
    6.8879    0.1485    0.6545 O   0  0  0  0  0  0  0  0  0  0  0  0
    5.5337    0.0663    0.8208 C   0  0  0  0  0  0  0  0  0  0  0  0
    4.5691    0.7058    0.0449 C   0  0  0  0  0  0  0  0  0  0  0  0
    3.2084    0.5358    0.3344 C   0  0  0  0  0  0  0  0  0  0  0  0
    2.7931   -0.2721    1.3996 C   0  0  0  0  0  0  0  0  0  0  0  0
    1.4073   -0.3698    1.6291 N   0  0  0  0  0  0  0  0  0  0  0  0
    0.7510   -1.1593    2.5555 C   0  0  0  0  0  0  0  0  0  0  0  0
    1.2794   -1.9338    3.3501 O   0  0  0  0  0  0  0  0  0  0  0  0
   -0.7575   -0.9578    2.5673 C   0  0  0  0  0  0  0  0  0  0  0  0
   -1.5198   -1.5063    1.0167 S   0  0  0  0  0  0  0  0  0  0  0  0
   -1.7155    0.0313    0.1760 C   0  0  0  0  0  0  0  0  0  0  0  0
   -0.7558    0.8971    0.3362 N   0  0  0  0  0  0  0  0  0  0  0  0
   -0.9554    2.1271   -0.2188 C   0  0  0  0  0  0  0  0  0  0  0  0
   -2.0599    2.5131   -0.8545 C   0  0  0  0  0  0  0  0  0  0  0  0
   -3.1674    1.5541   -1.0408 C   0  0  0  0  0  0  0  0  0  0  0  0
   -4.2069    1.8962   -1.6022 O   0  0  0  0  0  0  0  0  0  0  0  0
   -2.8947    0.2764   -0.5364 N   0  0  0  0  0  0  0  0  0  0  0  0
   -3.8401   -0.7547   -0.8399 C   0  0  0  0  0  0  0  0  0  0  0  0
   -5.1641   -0.6262   -0.3924 C   0  0  0  0  0  0  0  0  0  0  0  0
   -6.1001   -1.6212   -0.6675 C   0  0  0  0  0  0  0  0  0  0  0  0
   -5.7250   -2.7426   -1.4018 C   0  0  0  0  0  0  0  0  0  0  0  0
   -4.4178   -2.8671   -1.8813 C   0  0  0  0  0  0  0  0  0  0  0  0
   -3.4693   -1.8731   -1.6181 C   0  0  0  0  0  0  0  0  0  0  0  0
   -2.1907   -1.8671   -2.1199 O   0  0  0  0  0  0  0  0  0  0  0  0
   -1.7517   -3.0382   -2.7997 C   0  0  0  0  0  0  0  0  0  0  0  0
   -2.0594    4.1326   -1.4220 S   0  0  0  0  0  0  0  0  0  0  0  0
   -0.5471    4.5272   -0.4757 C   0  0  0  0  0  0  0  0  0  0  0  0
    0.1039    3.1861   -0.1225 C   0  0  0  0  0  0  0  0  0  0  0  0
    3.7619   -0.9145    2.1690 C   0  0  0  0  0  0  0  0  0  0  0  0
    5.1216   -0.7442    1.8796 C   0  0  0  0  0  0  0  0  0  0  0  0
    7.0584    2.0113   -0.2640 H   0  0  0  0  0  0  0  0  0  0  0  0
    8.4513    0.9322   -0.3992 H   0  0  0  0  0  0  0  0  0  0  0  0
    7.0191    0.5894   -1.3778 H   0  0  0  0  0  0  0  0  0  0  0  0
    4.8369    1.3408   -0.7926 H   0  0  0  0  0  0  0  0  0  0  0  0
    2.4772    1.0398   -0.2931 H   0  0  0  0  0  0  0  0  0  0  0  0
    0.8051    0.1725    1.0101 H   0  0  0  0  0  0  0  0  0  0  0  0
   -0.9952    0.0835    2.8095 H   0  0  0  0  0  0  0  0  0  0  0  0
   -1.1717   -1.5749    3.3721 H   0  0  0  0  0  0  0  0  0  0  0  0
   -5.4736    0.2474    0.1772 H   0  0  0  0  0  0  0  0  0  0  0  0
   -7.1236   -1.5171   -0.3164 H   0  0  0  0  0  0  0  0  0  0  0  0
   -6.4573   -3.5164   -1.6203 H   0  0  0  0  0  0  0  0  0  0  0  0
   -4.1809   -3.7436   -2.4758 H   0  0  0  0  0  0  0  0  0  0  0  0
   -1.8126   -3.9194   -2.1521 H   0  0  0  0  0  0  0  0  0  0  0  0
   -0.7002   -2.8945   -3.0683 H   0  0  0  0  0  0  0  0  0  0  0  0
   -2.3144   -3.1867   -3.7280 H   0  0  0  0  0  0  0  0  0  0  0  0
    0.1243    5.1638   -1.0588 H   0  0  0  0  0  0  0  0  0  0  0  0
   -0.8359    5.0658    0.4332 H   0  0  0  0  0  0  0  0  0  0  0  0
    0.9118    2.9594   -0.8279 H   0  0  0  0  0  0  0  0  0  0  0  0
    0.5411    3.2307    0.8806 H   0  0  0  0  0  0  0  0  0  0  0  0
    3.4988   -1.5512    3.0071 H   0  0  0  0  0  0  0  0  0  0  0  0
    5.8644   -1.2506    2.4921 H   0  0  0  0  0  0  0  0  0  0  0  0
  1  2  1  0
  2  3  1  0
  3  4  2  0
  4  5  1  0
  5  6  2  0
  6  7  1  0
  7  8  1  0
  8  9  2  0
  8 10  1  0
 10 11  1  0
 11 12  1  0
 12 13  2  0
 13 14  1  0
 14 15  2  0
 15 16  1  0
 16 17  2  0
 16 18  1  0
 18 19  1  0
 19 20  2  0
 20 21  1  0
 21 22  2  0
 22 23  1  0
 23 24  2  0
 24 25  1  0
 25 26  1  0
 15 27  1  0
 27 28  1  0
 28 29  1  0
  6 30  1  0
 30 31  2  0
 31  3  1  0
 18 12  1  0
 24 19  1  0
 29 14  1  0
  1 32  1  0
  1 33  1  0
  1 34  1  0
  4 35  1  0
  5 36  1  0
  7 37  1  0
 10 38  1  0
 10 39  1  0
 20 40  1  0
 21 41  1  0
 22 42  1  0
 23 43  1  0
 26 44  1  0
 26 45  1  0
 26 46  1  0
 28 47  1  0
 28 48  1  0
 29 49  1  0
 29 50  1  0
 30 51  1  0
 31 52  1  0
M  END
$$$$
