
     RDKit          3D

 60 64  0  0  0  0  0  0  0  0999 V2000
   -2.0748   -0.5934    2.1669 C   0  0  0  0  0  0  0  0  0  0  0  0
   -2.2773   -0.8998    0.7547 N   0  0  0  0  0  0  0  0  0  0  0  0
   -3.5046   -1.4672    0.3992 C   0  0  0  0  0  0  0  0  0  0  0  0
   -4.3449   -1.8058    1.2346 O   0  0  0  0  0  0  0  0  0  0  0  0
   -3.8035   -1.6213   -1.0616 C   0  0  0  0  0  0  0  0  0  0  0  0
   -5.0162   -1.3789   -1.5926 C   0  0  0  0  0  0  0  0  0  0  0  0
   -6.1863   -0.8437   -0.8893 C   0  0  0  0  0  0  0  0  0  0  0  0
   -7.3393   -1.6258   -0.7745 C   0  0  0  0  0  0  0  0  0  0  0  0
   -8.4701   -1.1243   -0.1239 C   0  0  0  0  0  0  0  0  0  0  0  0
   -8.4699    0.1732    0.4100 C   0  0  0  0  0  0  0  0  0  0  0  0
   -9.6805    0.7053    1.1360 C   0  0  0  0  0  0  0  0  0  0  0  0
  -10.8525    0.1821    0.6769 F   0  0  0  0  0  0  0  0  0  0  0  0
   -9.8152    2.0577    1.0296 F   0  0  0  0  0  0  0  0  0  0  0  0
   -9.6492    0.4374    2.4703 F   0  0  0  0  0  0  0  0  0  0  0  0
   -7.3102    0.9538    0.2898 C   0  0  0  0  0  0  0  0  0  0  0  0
   -6.1795    0.4517   -0.3604 C   0  0  0  0  0  0  0  0  0  0  0  0
   -2.5259   -2.2010   -2.0650 S   0  0  0  0  0  0  0  0  0  0  0  0
   -1.2566   -1.0963   -1.4920 C   0  0  0  0  0  0  0  0  0  0  0  0
   -0.2281   -0.7829   -2.3968 C   0  0  0  0  0  0  0  0  0  0  0  0
    0.8301    0.0374   -2.0132 C   0  0  0  0  0  0  0  0  0  0  0  0
    0.8752    0.5280   -0.7094 C   0  0  0  0  0  0  0  0  0  0  0  0
    1.9695    1.4279   -0.2714 C   0  0  0  0  0  0  0  0  0  0  0  0
    1.6650    2.4287    0.3731 O   0  0  0  0  0  0  0  0  0  0  0  0
    3.2805    1.1160   -0.6312 N   0  0  0  0  0  0  0  0  0  0  0  0
    4.3204    2.0818   -0.2571 C   0  0  0  0  0  0  0  0  0  0  0  0
    4.9022    1.7546    1.1346 C   0  0  0  0  0  0  0  0  0  0  0  0
    5.4054    0.3572    1.1886 N   0  0  0  0  0  0  0  0  0  0  0  0
    6.6824    0.1755    0.6324 C   0  0  0  0  0  0  0  0  0  0  0  0
    7.7718    0.8775    1.1534 C   0  0  0  0  0  0  0  0  0  0  0  0
    9.0450    0.6964    0.6145 C   0  0  0  0  0  0  0  0  0  0  0  0
    9.2141   -0.1933   -0.4332 C   0  0  0  0  0  0  0  0  0  0  0  0
    8.0978   -0.8686   -0.8873 C   0  0  0  0  0  0  0  0  0  0  0  0
    6.8551   -0.7051   -0.3783 N   0  0  0  0  0  0  0  0  0  0  0  0
    4.3953   -0.6338    0.7436 C   0  0  0  0  0  0  0  0  0  0  0  0
    3.7773   -0.2736   -0.6293 C   0  0  0  0  0  0  0  0  0  0  0  0
   -0.1572    0.2342    0.1921 C   0  0  0  0  0  0  0  0  0  0  0  0
   -1.2389   -0.5824   -0.1822 C   0  0  0  0  0  0  0  0  0  0  0  0
   -1.1081   -0.9866    2.4974 H   0  0  0  0  0  0  0  0  0  0  0  0
   -2.1168    0.4914    2.3071 H   0  0  0  0  0  0  0  0  0  0  0  0
   -2.8435   -1.0415    2.8025 H   0  0  0  0  0  0  0  0  0  0  0  0
   -5.1923   -1.5601   -2.6513 H   0  0  0  0  0  0  0  0  0  0  0  0
   -7.3609   -2.6370   -1.1751 H   0  0  0  0  0  0  0  0  0  0  0  0
   -9.3531   -1.7551   -0.0312 H   0  0  0  0  0  0  0  0  0  0  0  0
   -7.2814    1.9600    0.7055 H   0  0  0  0  0  0  0  0  0  0  0  0
   -5.2949    1.0789   -0.4445 H   0  0  0  0  0  0  0  0  0  0  0  0
   -0.2476   -1.1766   -3.4116 H   0  0  0  0  0  0  0  0  0  0  0  0
    1.6074    0.2922   -2.7296 H   0  0  0  0  0  0  0  0  0  0  0  0
    3.9141    3.0990   -0.2646 H   0  0  0  0  0  0  0  0  0  0  0  0
    5.1026    2.0340   -1.0238 H   0  0  0  0  0  0  0  0  0  0  0  0
    4.1121    1.8523    1.8899 H   0  0  0  0  0  0  0  0  0  0  0  0
    5.6704    2.4885    1.4004 H   0  0  0  0  0  0  0  0  0  0  0  0
    7.6417    1.5451    1.9987 H   0  0  0  0  0  0  0  0  0  0  0  0
    9.8933    1.2386    1.0216 H   0  0  0  0  0  0  0  0  0  0  0  0
   10.1881   -0.3653   -0.8759 H   0  0  0  0  0  0  0  0  0  0  0  0
    8.1716   -1.5863   -1.6991 H   0  0  0  0  0  0  0  0  0  0  0  0
    4.8009   -1.6532    0.7342 H   0  0  0  0  0  0  0  0  0  0  0  0
    3.5936   -0.6391    1.4939 H   0  0  0  0  0  0  0  0  0  0  0  0
    2.9784   -0.9858   -0.8453 H   0  0  0  0  0  0  0  0  0  0  0  0
    4.5152   -0.3506   -1.4342 H   0  0  0  0  0  0  0  0  0  0  0  0
   -0.0969    0.6781    1.1826 H   0  0  0  0  0  0  0  0  0  0  0  0
  1  2  1  0
  2  3  1  0
  3  4  2  0
  3  5  1  0
  5  6  2  3
  6  7  1  0
  7  8  2  0
  8  9  1  0
  9 10  2  0
 10 11  1  0
 11 12  1  0
 11 13  1  0
 11 14  1  0
 10 15  1  0
 15 16  2  0
  5 17  1  0
 17 18  1  0
 18 19  2  0
 19 20  1  0
 20 21  2  0
 21 22  1  0
 22 23  2  0
 22 24  1  0
 24 25  1  0
 25 26  1  0
 26 27  1  0
 27 28  1  0
 28 29  2  0
 29 30  1  0
 30 31  2  0
 31 32  1  0
 32 33  2  0
 27 34  1  0
 34 35  1  0
 21 36  1  0
 36 37  2  0
 37  2  1  0
 16  7  1  0
 37 18  1  0
 35 24  1  0
 33 28  1  0
  1 38  1  0
  1 39  1  0
  1 40  1  0
  6 41  1  0
  8 42  1  0
  9 43  1  0
 15 44  1  0
 16 45  1  0
 19 46  1  0
 20 47  1  0
 25 48  1  0
 25 49  1  0
 26 50  1  0
 26 51  1  0
 29 52  1  0
 30 53  1  0
 31 54  1  0
 32 55  1  0
 34 56  1  0
 34 57  1  0
 35 58  1  0
 35 59  1  0
 36 60  1  0
M  END
$$$$
