
     RDKit          3D

 52 54  0  0  0  0  0  0  0  0999 V2000
    7.4702   -3.7218   -2.8262 C   0  0  0  0  0  0  0  0  0  0  0  0
    6.1371   -3.3810   -2.2295 C   0  0  0  0  0  0  0  0  0  0  0  0
    4.9907   -3.3254   -3.0307 C   0  0  0  0  0  0  0  0  0  0  0  0
    3.7560   -2.9734   -2.4787 C   0  0  0  0  0  0  0  0  0  0  0  0
    3.6471   -2.6685   -1.1153 C   0  0  0  0  0  0  0  0  0  0  0  0
    2.3269   -2.2551   -0.5256 C   0  0  0  0  0  0  0  0  0  0  0  0
    2.1829   -0.8245   -0.5476 N   0  0  0  0  0  0  0  0  0  0  0  0
    1.1495   -0.1929    0.0981 C   0  0  0  0  0  0  0  0  0  0  0  0
    0.3302   -0.7183    0.8398 O   0  0  0  0  0  0  0  0  0  0  0  0
    1.0653    1.3207   -0.2004 C   0  0  0  0  0  0  0  0  0  0  0  0
    1.7246    1.8019   -1.1103 O   0  0  0  0  0  0  0  0  0  0  0  0
    0.2017    1.9912    0.6334 N   0  0  0  0  0  0  0  0  0  0  0  0
   -0.3139    3.3121    0.2968 C   0  0  0  0  0  0  0  0  0  0  0  0
   -1.6784    3.2370   -0.4215 C   0  0  0  0  0  0  0  0  0  0  0  0
   -1.5318    2.6224   -1.7135 O   0  0  0  0  0  0  0  0  0  0  0  0
   -2.7855    1.9886   -1.9721 C   0  0  0  0  0  0  0  0  0  0  0  0
   -3.1684    1.4038   -0.6317 C   0  0  0  0  0  0  0  0  0  0  0  0
   -2.6198    2.3715    0.3409 N   0  0  0  0  0  0  0  0  0  0  0  0
   -3.7160    3.2458    1.2784 S   0  0  0  0  0  6  0  0  0  0  0  0
   -4.7290    3.7626    0.3822 O   0  0  0  0  0  0  0  0  0  0  0  0
   -2.9575    4.1212    2.1450 O   0  0  0  0  0  0  0  0  0  0  0  0
   -4.4409    1.9849    2.2949 C   0  0  0  0  0  0  0  0  0  0  0  0
   -5.8056    1.6963    2.1914 C   0  0  0  0  0  0  0  0  0  0  0  0
   -6.3576    0.6997    2.9987 C   0  0  0  0  0  0  0  0  0  0  0  0
   -5.5447    0.0056    3.8981 C   0  0  0  0  0  0  0  0  0  0  0  0
   -6.2968   -1.3437    4.9878 Br  0  0  0  0  0  0  0  0  0  0  0  0
   -4.1833    0.2996    4.0040 C   0  0  0  0  0  0  0  0  0  0  0  0
   -3.6265    1.2958    3.2002 C   0  0  0  0  0  0  0  0  0  0  0  0
    4.8008   -2.7011   -0.3198 C   0  0  0  0  0  0  0  0  0  0  0  0
    6.0348   -3.0532   -0.8726 C   0  0  0  0  0  0  0  0  0  0  0  0
    7.3546   -4.3393   -3.7241 H   0  0  0  0  0  0  0  0  0  0  0  0
    8.0782   -4.2921   -2.1153 H   0  0  0  0  0  0  0  0  0  0  0  0
    8.0048   -2.8055   -3.0970 H   0  0  0  0  0  0  0  0  0  0  0  0
    5.0512   -3.5530   -4.0934 H   0  0  0  0  0  0  0  0  0  0  0  0
    2.8802   -2.9328   -3.1237 H   0  0  0  0  0  0  0  0  0  0  0  0
    1.4946   -2.6908   -1.0920 H   0  0  0  0  0  0  0  0  0  0  0  0
    2.2284   -2.6154    0.5062 H   0  0  0  0  0  0  0  0  0  0  0  0
    2.6989   -0.2735   -1.2290 H   0  0  0  0  0  0  0  0  0  0  0  0
   -0.3843    1.3995    1.2158 H   0  0  0  0  0  0  0  0  0  0  0  0
   -0.4101    3.8550    1.2419 H   0  0  0  0  0  0  0  0  0  0  0  0
    0.4139    3.8298   -0.3367 H   0  0  0  0  0  0  0  0  0  0  0  0
   -2.0773    4.2451   -0.5839 H   0  0  0  0  0  0  0  0  0  0  0  0
   -3.5023    2.7465   -2.3076 H   0  0  0  0  0  0  0  0  0  0  0  0
   -2.6730    1.2299   -2.7510 H   0  0  0  0  0  0  0  0  0  0  0  0
   -2.6590    0.4479   -0.4654 H   0  0  0  0  0  0  0  0  0  0  0  0
   -4.2446    1.2336   -0.5499 H   0  0  0  0  0  0  0  0  0  0  0  0
   -6.4418    2.2381    1.4934 H   0  0  0  0  0  0  0  0  0  0  0  0
   -7.4187    0.4738    2.9239 H   0  0  0  0  0  0  0  0  0  0  0  0
   -3.5513   -0.2390    4.7069 H   0  0  0  0  0  0  0  0  0  0  0  0
   -2.5672    1.5327    3.2865 H   0  0  0  0  0  0  0  0  0  0  0  0
    4.7450   -2.4446    0.7370 H   0  0  0  0  0  0  0  0  0  0  0  0
    6.9180   -3.0657   -0.2371 H   0  0  0  0  0  0  0  0  0  0  0  0
  1  2  1  0
  2  3  2  0
  3  4  1  0
  4  5  2  0
  5  6  1  0
  6  7  1  0
  7  8  1  0
  8  9  2  0
  8 10  1  0
 10 11  2  0
 10 12  1  0
 12 13  1  0
 13 14  1  0
 14 15  1  0
 15 16  1  0
 16 17  1  0
 17 18  1  0
 18 19  1  0
 19 20  2  0
 19 21  2  0
 19 22  1  0
 22 23  2  0
 23 24  1  0
 24 25  2  0
 25 26  1  0
 25 27  1  0
 27 28  2  0
  5 29  1  0
 29 30  2  0
 30  2  1  0
 18 14  1  0
 28 22  1  0
  1 31  1  0
  1 32  1  0
  1 33  1  0
  3 34  1  0
  4 35  1  0
  6 36  1  0
  6 37  1  0
  7 38  1  0
 12 39  1  0
 13 40  1  0
 13 41  1  0
 14 42  1  0
 16 43  1  0
 16 44  1  0
 17 45  1  0
 17 46  1  0
 23 47  1  0
 24 48  1  0
 27 49  1  0
 28 50  1  0
 29 51  1  0
 30 52  1  0
M  END
$$$$
