
     RDKit          3D

 46 48  0  0  0  0  0  0  0  0999 V2000
    2.1788    3.0068   -2.9649 C   0  0  0  0  0  0  0  0  0  0  0  0
    1.6781    2.1265   -1.8377 C   0  0  0  0  0  0  0  0  0  0  0  0
    2.6443    1.1702   -1.2160 C   0  0  0  0  0  0  0  0  0  0  0  0
    3.5658    0.5279   -1.9483 C   0  0  0  0  0  0  0  0  0  0  0  0
    4.5509   -0.4031   -1.3803 C   0  0  0  0  0  0  0  0  0  0  0  0
    5.8465   -0.4219   -1.9134 C   0  0  0  0  0  0  0  0  0  0  0  0
    6.8064   -1.3090   -1.4201 C   0  0  0  0  0  0  0  0  0  0  0  0
    6.4773   -2.1943   -0.3963 C   0  0  0  0  0  0  0  0  0  0  0  0
    5.1879   -2.1969    0.1310 C   0  0  0  0  0  0  0  0  0  0  0  0
    4.2273   -1.3094   -0.3617 C   0  0  0  0  0  0  0  0  0  0  0  0
    0.4393    2.2899   -1.4880 N   0  0  0  0  0  0  0  0  0  0  0  0
   -0.0940    1.4772   -0.5341 N   0  0  0  0  0  0  0  0  0  0  0  0
   -1.3913    1.6743   -0.1005 C   0  0  0  0  0  0  0  0  0  0  0  0
   -2.1350    2.5980   -0.4009 O   0  0  0  0  0  0  0  0  0  0  0  0
   -1.8522    0.6429    0.8670 C   0  0  0  0  0  0  0  0  0  0  0  0
   -1.6933   -0.8336    0.6113 C   0  0  0  0  0  0  0  0  0  0  0  0
   -3.0800   -0.2208    0.5601 C   0  0  0  0  0  0  0  0  0  0  0  0
   -3.7415   -0.1201   -0.7965 C   0  0  0  0  0  0  0  0  0  0  0  0
   -4.0466   -0.4874    1.7071 C   0  0  0  0  0  0  0  0  0  0  0  0
   -4.3500   -1.7936    2.1274 C   0  0  0  0  0  0  0  0  0  0  0  0
   -5.2435   -2.0329    3.1749 C   0  0  0  0  0  0  0  0  0  0  0  0
   -5.8593   -0.9655    3.8220 C   0  0  0  0  0  0  0  0  0  0  0  0
   -5.5851    0.3380    3.4189 C   0  0  0  0  0  0  0  0  0  0  0  0
   -4.6909    0.5710    2.3712 C   0  0  0  0  0  0  0  0  0  0  0  0
    3.2501    3.2022   -2.8670 H   0  0  0  0  0  0  0  0  0  0  0  0
    1.9819    2.5135   -3.9210 H   0  0  0  0  0  0  0  0  0  0  0  0
    1.6542    3.9672   -2.9482 H   0  0  0  0  0  0  0  0  0  0  0  0
    2.5681    1.0442   -0.1425 H   0  0  0  0  0  0  0  0  0  0  0  0
    3.6361    0.6802   -3.0229 H   0  0  0  0  0  0  0  0  0  0  0  0
    6.1254    0.2606   -2.7134 H   0  0  0  0  0  0  0  0  0  0  0  0
    7.8106   -1.3088   -1.8366 H   0  0  0  0  0  0  0  0  0  0  0  0
    7.2240   -2.8854   -0.0133 H   0  0  0  0  0  0  0  0  0  0  0  0
    4.9276   -2.8946    0.9229 H   0  0  0  0  0  0  0  0  0  0  0  0
    3.2241   -1.3473    0.0538 H   0  0  0  0  0  0  0  0  0  0  0  0
    0.4094    0.6529   -0.2365 H   0  0  0  0  0  0  0  0  0  0  0  0
   -1.7402    0.9730    1.8963 H   0  0  0  0  0  0  0  0  0  0  0  0
   -1.2581   -1.1689   -0.3237 H   0  0  0  0  0  0  0  0  0  0  0  0
   -1.4313   -1.4607    1.4569 H   0  0  0  0  0  0  0  0  0  0  0  0
   -3.0126   -0.0090   -1.6064 H   0  0  0  0  0  0  0  0  0  0  0  0
   -4.4181    0.7404   -0.8310 H   0  0  0  0  0  0  0  0  0  0  0  0
   -4.3246   -1.0238   -1.0051 H   0  0  0  0  0  0  0  0  0  0  0  0
   -3.8855   -2.6399    1.6261 H   0  0  0  0  0  0  0  0  0  0  0  0
   -5.4606   -3.0529    3.4805 H   0  0  0  0  0  0  0  0  0  0  0  0
   -6.5567   -1.1490    4.6349 H   0  0  0  0  0  0  0  0  0  0  0  0
   -6.0690    1.1759    3.9137 H   0  0  0  0  0  0  0  0  0  0  0  0
   -4.4946    1.5960    2.0597 H   0  0  0  0  0  0  0  0  0  0  0  0
  1  2  1  0
  2  3  1  0
  3  4  2  3
  4  5  1  0
  5  6  2  0
  6  7  1  0
  7  8  2  0
  8  9  1  0
  9 10  2  0
  2 11  2  3
 11 12  1  0
 12 13  1  0
 13 14  2  0
 13 15  1  0
 15 16  1  0
 16 17  1  0
 17 18  1  0
 17 19  1  0
 19 20  2  0
 20 21  1  0
 21 22  2  0
 22 23  1  0
 23 24  2  0
 10  5  1  0
 17 15  1  0
 24 19  1  0
  1 25  1  0
  1 26  1  0
  1 27  1  0
  3 28  1  0
  4 29  1  0
  6 30  1  0
  7 31  1  0
  8 32  1  0
  9 33  1  0
 10 34  1  0
 12 35  1  0
 15 36  1  0
 16 37  1  0
 16 38  1  0
 18 39  1  0
 18 40  1  0
 18 41  1  0
 20 42  1  0
 21 43  1  0
 22 44  1  0
 23 45  1  0
 24 46  1  0
M  END
$$$$
