
     RDKit          3D

 39 39  0  0  0  0  0  0  0  0999 V2000
    0.1722   -3.9434    1.3406 C   0  0  0  0  0  0  0  0  0  0  0  0
   -0.9083   -3.8145    0.2837 C   0  0  0  0  0  0  0  0  0  0  0  0
   -0.7392   -2.5945   -0.4517 O   0  0  0  0  0  0  0  0  0  0  0  0
   -1.3142   -1.4774    0.0751 C   0  0  0  0  0  0  0  0  0  0  0  0
   -1.9601   -1.4592    1.1233 O   0  0  0  0  0  0  0  0  0  0  0  0
   -1.0641   -0.2135   -0.7738 C   0  0  0  0  0  0  0  0  0  0  0  0
   -1.2534    0.9564    0.1014 N   0  0  0  0  0  0  0  0  0  0  0  0
   -1.2372    2.2416   -0.3733 C   0  0  0  0  0  0  0  0  0  0  0  0
   -0.9608    2.5151   -1.5344 O   0  0  0  0  0  0  0  0  0  0  0  0
   -1.5782    3.2712    0.6844 C   0  0  0  0  0  0  0  0  0  0  0  0
   -1.5353    4.6894    0.1448 C   0  0  0  0  0  0  0  0  0  0  0  0
    0.3187   -0.1278   -1.3143 N   0  0  0  0  0  0  0  0  0  0  0  0
    1.4885   -0.0683   -0.5593 C   0  0  0  0  0  0  0  0  0  0  0  0
    2.6871    0.1895   -1.2456 C   0  0  0  0  0  0  0  0  0  0  0  0
    3.9223    0.2080   -0.5912 C   0  0  0  0  0  0  0  0  0  0  0  0
    3.9872   -0.0533    0.7716 C   0  0  0  0  0  0  0  0  0  0  0  0
    2.8184   -0.3386    1.4689 C   0  0  0  0  0  0  0  0  0  0  0  0
    1.5844   -0.3555    0.8057 C   0  0  0  0  0  0  0  0  0  0  0  0
   -2.1537   -0.3592   -1.8914 C   0  0  0  0  0  0  0  0  0  0  0  0
   -1.9802    0.5214   -2.9067 F   0  0  0  0  0  0  0  0  0  0  0  0
   -3.4004   -0.1452   -1.3938 F   0  0  0  0  0  0  0  0  0  0  0  0
   -2.1699   -1.5886   -2.4636 F   0  0  0  0  0  0  0  0  0  0  0  0
    0.0958   -3.1402    2.0801 H   0  0  0  0  0  0  0  0  0  0  0  0
    0.0942   -4.9027    1.8598 H   0  0  0  0  0  0  0  0  0  0  0  0
    1.1658   -3.8661    0.8869 H   0  0  0  0  0  0  0  0  0  0  0  0
   -1.9100   -3.8771    0.7238 H   0  0  0  0  0  0  0  0  0  0  0  0
   -0.8203   -4.6357   -0.4350 H   0  0  0  0  0  0  0  0  0  0  0  0
   -1.6798    0.7687    1.0027 H   0  0  0  0  0  0  0  0  0  0  0  0
   -0.8643    3.1712    1.5096 H   0  0  0  0  0  0  0  0  0  0  0  0
   -2.5818    3.0560    1.0679 H   0  0  0  0  0  0  0  0  0  0  0  0
   -1.7859    5.4053    0.9335 H   0  0  0  0  0  0  0  0  0  0  0  0
   -2.2491    4.8197   -0.6754 H   0  0  0  0  0  0  0  0  0  0  0  0
   -0.5385    4.9348   -0.2364 H   0  0  0  0  0  0  0  0  0  0  0  0
    0.3354    0.5963   -2.0398 H   0  0  0  0  0  0  0  0  0  0  0  0
    2.6669    0.3782   -2.3172 H   0  0  0  0  0  0  0  0  0  0  0  0
    4.8289    0.4193   -1.1516 H   0  0  0  0  0  0  0  0  0  0  0  0
    4.9440   -0.0428    1.2860 H   0  0  0  0  0  0  0  0  0  0  0  0
    2.8622   -0.5537    2.5336 H   0  0  0  0  0  0  0  0  0  0  0  0
    0.7125   -0.5848    1.4064 H   0  0  0  0  0  0  0  0  0  0  0  0
  1  2  1  0
  2  3  1  0
  3  4  1  0
  4  5  2  0
  4  6  1  0
  6  7  1  0
  7  8  1  0
  8  9  2  0
  8 10  1  0
 10 11  1  0
  6 12  1  0
 12 13  1  0
 13 14  2  0
 14 15  1  0
 15 16  2  0
 16 17  1  0
 17 18  2  0
  6 19  1  0
 19 20  1  0
 19 21  1  0
 19 22  1  0
 18 13  1  0
  1 23  1  0
  1 24  1  0
  1 25  1  0
  2 26  1  0
  2 27  1  0
  7 28  1  0
 10 29  1  0
 10 30  1  0
 11 31  1  0
 11 32  1  0
 11 33  1  0
 12 34  1  0
 14 35  1  0
 15 36  1  0
 16 37  1  0
 17 38  1  0
 18 39  1  0
M  END
$$$$
