
     RDKit          3D

 30 31  0  0  0  0  0  0  0  0999 V2000
   -4.4605    1.9308   -0.7009 C   0  0  0  0  0  0  0  0  0  0  0  0
   -4.2117    0.5602   -0.2008 C   0  0  0  0  0  0  0  0  0  0  0  0
   -5.2785   -0.0714    0.3635 O   0  0  0  0  0  0  0  0  0  0  0  0
   -4.8567   -1.2983    0.7512 C   0  0  0  0  0  0  0  0  0  0  0  0
   -3.5277   -1.4670    0.4444 C   0  0  0  0  0  0  0  0  0  0  0  0
   -3.0902   -0.2563   -0.1769 C   0  0  0  0  0  0  0  0  0  0  0  0
   -1.7838    0.1162   -0.7019 C   0  0  0  0  0  0  0  0  0  0  0  0
   -1.5697    1.1828   -1.2761 O   0  0  0  0  0  0  0  0  0  0  0  0
   -0.7856   -0.8186   -0.4988 N   0  0  0  0  0  0  0  0  0  0  0  0
    0.5404   -0.4385   -0.7620 N   0  0  0  0  0  0  0  0  0  0  0  0
    1.5245   -0.9541    0.0571 C   0  0  0  0  0  0  0  0  0  0  0  0
    1.2832   -1.8362    0.8808 O   0  0  0  0  0  0  0  0  0  0  0  0
    2.8985   -0.4026   -0.0821 C   0  0  0  0  0  0  0  0  0  0  0  0
    3.9182   -0.9409    0.7179 C   0  0  0  0  0  0  0  0  0  0  0  0
    5.2255   -0.4552    0.6221 C   0  0  0  0  0  0  0  0  0  0  0  0
    5.5257    0.5718   -0.2720 C   0  0  0  0  0  0  0  0  0  0  0  0
    4.5190    1.1133   -1.0698 C   0  0  0  0  0  0  0  0  0  0  0  0
    3.2164    0.6257   -0.9712 C   0  0  0  0  0  0  0  0  0  0  0  0
    2.2779    1.1788   -1.7544 F   0  0  0  0  0  0  0  0  0  0  0  0
   -3.7976    2.6462   -0.2047 H   0  0  0  0  0  0  0  0  0  0  0  0
   -4.2848    1.9824   -1.7797 H   0  0  0  0  0  0  0  0  0  0  0  0
   -5.4930    2.2416   -0.5121 H   0  0  0  0  0  0  0  0  0  0  0  0
   -5.6045   -1.9238    1.2189 H   0  0  0  0  0  0  0  0  0  0  0  0
   -2.9550   -2.3615    0.6441 H   0  0  0  0  0  0  0  0  0  0  0  0
   -0.8903   -1.5718    0.1769 H   0  0  0  0  0  0  0  0  0  0  0  0
    0.6704    0.4051   -1.3247 H   0  0  0  0  0  0  0  0  0  0  0  0
    3.6985   -1.7433    1.4207 H   0  0  0  0  0  0  0  0  0  0  0  0
    6.0084   -0.8800    1.2469 H   0  0  0  0  0  0  0  0  0  0  0  0
    6.5428    0.9499   -0.3460 H   0  0  0  0  0  0  0  0  0  0  0  0
    4.7399    1.9146   -1.7689 H   0  0  0  0  0  0  0  0  0  0  0  0
  1  2  1  0
  2  3  1  0
  3  4  1  0
  4  5  2  0
  5  6  1  0
  6  7  1  0
  7  8  2  0
  7  9  1  0
  9 10  1  0
 10 11  1  0
 11 12  2  0
 11 13  1  0
 13 14  2  0
 14 15  1  0
 15 16  2  0
 16 17  1  0
 17 18  2  0
 18 19  1  0
  6  2  2  0
 18 13  1  0
  1 20  1  0
  1 21  1  0
  1 22  1  0
  4 23  1  0
  5 24  1  0
  9 25  1  0
 10 26  1  0
 14 27  1  0
 15 28  1  0
 16 29  1  0
 17 30  1  0
M  END
$$$$
