
     RDKit          3D

 67 72  0  0  0  0  0  0  0  0999 V2000
    2.7552    0.2292   -2.9359 O   0  0  0  0  0  0  0  0  0  0  0  0
    2.3456    0.1935   -1.7720 C   0  0  0  0  0  0  0  0  0  0  0  0
    3.3111    0.2941   -0.5763 C   0  0  0  0  0  0  0  0  0  0  0  0
    4.6371    0.9489   -1.0067 C   0  0  0  0  0  0  0  0  0  0  0  0
    5.6854    0.9337    0.0854 C   0  0  0  0  0  0  0  0  0  0  0  0
    6.3722   -0.2492    0.3964 C   0  0  0  0  0  0  0  0  0  0  0  0
    7.3138   -0.2677    1.4254 C   0  0  0  0  0  0  0  0  0  0  0  0
    7.5789    0.8938    2.1509 C   0  0  0  0  0  0  0  0  0  0  0  0
    6.9042    2.0758    1.8476 C   0  0  0  0  0  0  0  0  0  0  0  0
    5.9621    2.0971    0.8189 C   0  0  0  0  0  0  0  0  0  0  0  0
    2.7007    1.0462    0.5161 N   0  0  0  0  0  0  0  0  0  0  0  0
    1.4617    0.5165    0.8869 C   0  0  0  0  0  0  0  0  0  0  0  0
    1.2259    0.5524    2.2052 N   0  0  0  0  0  0  0  0  0  0  0  0
    0.0207    0.1417    2.5855 C   0  0  0  0  0  0  0  0  0  0  0  0
   -0.9700   -0.2253    1.7690 N   0  0  0  0  0  0  0  0  0  0  0  0
   -0.7360   -0.2055    0.4384 C   0  0  0  0  0  0  0  0  0  0  0  0
   -1.8605   -0.3836   -0.3864 N   0  0  0  0  0  0  0  0  0  0  0  0
   -2.3691    0.9186   -0.9085 C   0  0  0  0  0  0  0  0  0  0  0  0
   -3.2577    1.6756    0.1014 C   0  0  0  0  0  0  0  0  0  0  0  0
   -4.3897    0.8232    0.5237 N   0  0  0  0  0  0  0  0  0  0  0  0
   -5.4292    1.4332    1.2486 C   0  0  0  0  0  0  0  0  0  0  0  0
   -6.6742    0.7872    1.3367 C   0  0  0  0  0  0  0  0  0  0  0  0
   -7.7471    1.3500    2.0352 C   0  0  0  0  0  0  0  0  0  0  0  0
   -7.5971    2.5807    2.6637 C   0  0  0  0  0  0  0  0  0  0  0  0
   -6.3793    3.2480    2.5836 C   0  0  0  0  0  0  0  0  0  0  0  0
   -5.3107    2.6808    1.8796 C   0  0  0  0  0  0  0  0  0  0  0  0
   -3.9223   -0.4481    1.1360 C   0  0  0  0  0  0  0  0  0  0  0  0
   -2.9556   -1.2076    0.1926 C   0  0  0  0  0  0  0  0  0  0  0  0
    0.5444    0.0666   -0.0767 C   0  0  0  0  0  0  0  0  0  0  0  0
    0.9987   -0.0645   -1.4477 N   0  0  0  0  0  0  0  0  0  0  0  0
    0.1992   -0.6458   -2.5187 C   0  0  0  0  0  0  0  0  0  0  0  0
    0.4728   -2.1275   -2.7168 C   0  0  0  0  0  0  0  0  0  0  0  0
    1.3204   -2.5602   -3.7506 C   0  0  0  0  0  0  0  0  0  0  0  0
    1.5787   -3.9196   -3.9417 C   0  0  0  0  0  0  0  0  0  0  0  0
    0.9943   -4.8591   -3.0970 C   0  0  0  0  0  0  0  0  0  0  0  0
    1.3082   -6.5346   -3.3310 Cl  0  0  0  0  0  0  0  0  0  0  0  0
    0.1568   -4.4490   -2.0615 C   0  0  0  0  0  0  0  0  0  0  0  0
   -0.1016   -3.0885   -1.8735 C   0  0  0  0  0  0  0  0  0  0  0  0
    3.5108   -0.7365   -0.2464 H   0  0  0  0  0  0  0  0  0  0  0  0
    5.0551    0.4314   -1.8805 H   0  0  0  0  0  0  0  0  0  0  0  0
    4.4579    1.9832   -1.3342 H   0  0  0  0  0  0  0  0  0  0  0  0
    6.1788   -1.1642   -0.1609 H   0  0  0  0  0  0  0  0  0  0  0  0
    7.8423   -1.1879    1.6621 H   0  0  0  0  0  0  0  0  0  0  0  0
    8.3118    0.8789    2.9531 H   0  0  0  0  0  0  0  0  0  0  0  0
    7.1124    2.9808    2.4138 H   0  0  0  0  0  0  0  0  0  0  0  0
    5.4393    3.0264    0.5956 H   0  0  0  0  0  0  0  0  0  0  0  0
    3.2687    1.1255    1.3584 H   0  0  0  0  0  0  0  0  0  0  0  0
   -0.1832    0.1227    3.6504 H   0  0  0  0  0  0  0  0  0  0  0  0
   -1.5482    1.5704   -1.2340 H   0  0  0  0  0  0  0  0  0  0  0  0
   -2.9652    0.7012   -1.8048 H   0  0  0  0  0  0  0  0  0  0  0  0
   -3.6320    2.5794   -0.3960 H   0  0  0  0  0  0  0  0  0  0  0  0
   -2.6582    1.9801    0.9690 H   0  0  0  0  0  0  0  0  0  0  0  0
   -6.8267   -0.1628    0.8300 H   0  0  0  0  0  0  0  0  0  0  0  0
   -8.6976    0.8267    2.0783 H   0  0  0  0  0  0  0  0  0  0  0  0
   -8.4254    3.0231    3.2085 H   0  0  0  0  0  0  0  0  0  0  0  0
   -6.2546    4.2121    3.0691 H   0  0  0  0  0  0  0  0  0  0  0  0
   -4.3775    3.2336    1.8555 H   0  0  0  0  0  0  0  0  0  0  0  0
   -4.7638   -1.1209    1.3427 H   0  0  0  0  0  0  0  0  0  0  0  0
   -3.4428   -0.2361    2.0995 H   0  0  0  0  0  0  0  0  0  0  0  0
   -3.5423   -1.5900   -0.6537 H   0  0  0  0  0  0  0  0  0  0  0  0
   -2.5507   -2.0941    0.6988 H   0  0  0  0  0  0  0  0  0  0  0  0
    0.4462   -0.1197   -3.4514 H   0  0  0  0  0  0  0  0  0  0  0  0
   -0.8685   -0.4795   -2.4213 H   0  0  0  0  0  0  0  0  0  0  0  0
    1.7906   -1.8353   -4.4137 H   0  0  0  0  0  0  0  0  0  0  0  0
    2.2336   -4.2342   -4.7506 H   0  0  0  0  0  0  0  0  0  0  0  0
   -0.3004   -5.1797   -1.3994 H   0  0  0  0  0  0  0  0  0  0  0  0
   -0.7585   -2.7855   -1.0630 H   0  0  0  0  0  0  0  0  0  0  0  0
  1  2  2  0
  2  3  1  0
  3  4  1  0
  4  5  1  0
  5  6  2  0
  6  7  1  0
  7  8  2  0
  8  9  1  0
  9 10  2  0
  3 11  1  0
 11 12  1  0
 12 13  2  0
 13 14  1  0
 14 15  2  0
 15 16  1  0
 16 17  1  0
 17 18  1  0
 18 19  1  0
 19 20  1  0
 20 21  1  0
 21 22  2  0
 22 23  1  0
 23 24  2  0
 24 25  1  0
 25 26  2  0
 20 27  1  0
 27 28  1  0
 16 29  2  0
 29 30  1  0
 30 31  1  0
 31 32  1  0
 32 33  2  0
 33 34  1  0
 34 35  2  0
 35 36  1  0
 35 37  1  0
 37 38  2  0
 30  2  1  0
 38 32  1  0
 10  5  1  0
 29 12  1  0
 28 17  1  0
 26 21  1  0
  3 39  1  0
  4 40  1  0
  4 41  1  0
  6 42  1  0
  7 43  1  0
  8 44  1  0
  9 45  1  0
 10 46  1  0
 11 47  1  0
 14 48  1  0
 18 49  1  0
 18 50  1  0
 19 51  1  0
 19 52  1  0
 22 53  1  0
 23 54  1  0
 24 55  1  0
 25 56  1  0
 26 57  1  0
 27 58  1  0
 27 59  1  0
 28 60  1  0
 28 61  1  0
 31 62  1  0
 31 63  1  0
 33 64  1  0
 34 65  1  0
 37 66  1  0
 38 67  1  0
M  END
$$$$
