
     RDKit          3D

 58 60  0  0  0  0  0  0  0  0999 V2000
    4.8969   -2.6180   -4.6999 C   0  0  0  0  0  0  0  0  0  0  0  0
    5.1892   -2.1595   -3.3015 C   0  0  0  0  0  0  0  0  0  0  0  0
    5.4766   -0.8171   -3.0346 C   0  0  0  0  0  0  0  0  0  0  0  0
    5.7279   -0.3933   -1.7272 C   0  0  0  0  0  0  0  0  0  0  0  0
    5.6890   -1.3027   -0.6627 C   0  0  0  0  0  0  0  0  0  0  0  0
    5.9566   -0.8391    0.7504 C   0  0  0  0  0  0  0  0  0  0  0  0
    4.7226   -0.9064    1.6536 C   0  0  0  0  0  0  0  0  0  0  0  0
    3.6519   -0.0288    1.2097 N   0  0  0  0  0  0  0  0  0  0  0  0
    2.6034    0.2699    2.0545 C   0  0  0  0  0  0  0  0  0  0  0  0
    2.5682   -0.0657    3.2341 O   0  0  0  0  0  0  0  0  0  0  0  0
    1.4863    1.0293    1.3698 C   0  0  0  0  0  0  0  0  0  0  0  0
    0.4327    1.5231    2.3559 C   0  0  0  0  0  0  0  0  0  0  0  0
   -0.2953    0.3820    2.9383 N   0  0  0  0  0  0  0  0  0  0  0  0
   -1.7502    0.6919    3.7213 S   0  0  0  0  0  6  0  0  0  0  0  0
   -1.7620    2.0690    4.1572 O   0  0  0  0  0  0  0  0  0  0  0  0
   -1.9752   -0.4048    4.6354 O   0  0  0  0  0  0  0  0  0  0  0  0
   -2.9082    0.5093    2.3878 C   0  0  0  0  0  0  0  0  0  0  0  0
   -3.3479   -0.7636    2.0262 C   0  0  0  0  0  0  0  0  0  0  0  0
   -4.2844   -0.9062    0.9966 C   0  0  0  0  0  0  0  0  0  0  0  0
   -4.7957    0.2165    0.3221 C   0  0  0  0  0  0  0  0  0  0  0  0
   -4.3438    1.4803    0.7053 C   0  0  0  0  0  0  0  0  0  0  0  0
   -3.4077    1.6372    1.7389 C   0  0  0  0  0  0  0  0  0  0  0  0
   -4.8585    2.6713    0.0111 C   0  0  0  0  0  0  0  0  0  0  0  0
   -4.4181    3.7756    0.3204 O   0  0  0  0  0  0  0  0  0  0  0  0
   -5.8152    2.4582   -0.9673 N   0  0  0  0  0  0  0  0  0  0  0  0
   -6.3689    3.6130   -1.6520 C   0  0  0  0  0  0  0  0  0  0  0  0
   -6.2767    1.2120   -1.3769 C   0  0  0  0  0  0  0  0  0  0  0  0
   -7.1101    1.1042   -2.2800 O   0  0  0  0  0  0  0  0  0  0  0  0
   -5.7497    0.1009   -0.7240 N   0  0  0  0  0  0  0  0  0  0  0  0
   -6.2150   -1.2198   -1.1313 C   0  0  0  0  0  0  0  0  0  0  0  0
    5.3926   -2.6455   -0.9309 C   0  0  0  0  0  0  0  0  0  0  0  0
    5.1370   -3.0681   -2.2376 C   0  0  0  0  0  0  0  0  0  0  0  0
    3.8149   -2.6850   -4.8535 H   0  0  0  0  0  0  0  0  0  0  0  0
    5.3139   -1.9241   -5.4385 H   0  0  0  0  0  0  0  0  0  0  0  0
    5.3461   -3.6002   -4.8843 H   0  0  0  0  0  0  0  0  0  0  0  0
    5.5151   -0.0922   -3.8453 H   0  0  0  0  0  0  0  0  0  0  0  0
    5.9592    0.6539   -1.5492 H   0  0  0  0  0  0  0  0  0  0  0  0
    6.7550   -1.4619    1.1740 H   0  0  0  0  0  0  0  0  0  0  0  0
    6.3428    0.1879    0.7375 H   0  0  0  0  0  0  0  0  0  0  0  0
    5.0028   -0.6235    2.6746 H   0  0  0  0  0  0  0  0  0  0  0  0
    4.3130   -1.9213    1.6980 H   0  0  0  0  0  0  0  0  0  0  0  0
    3.4690   -0.0033    0.2124 H   0  0  0  0  0  0  0  0  0  0  0  0
    1.9257    1.8905    0.8532 H   0  0  0  0  0  0  0  0  0  0  0  0
    1.0314    0.3713    0.6204 H   0  0  0  0  0  0  0  0  0  0  0  0
    0.9026    2.0988    3.1616 H   0  0  0  0  0  0  0  0  0  0  0  0
   -0.2663    2.1731    1.8187 H   0  0  0  0  0  0  0  0  0  0  0  0
    0.2911   -0.2608    3.4865 H   0  0  0  0  0  0  0  0  0  0  0  0
   -2.9703   -1.6457    2.5396 H   0  0  0  0  0  0  0  0  0  0  0  0
   -4.6013   -1.9148    0.7481 H   0  0  0  0  0  0  0  0  0  0  0  0
   -3.0785    2.6333    2.0323 H   0  0  0  0  0  0  0  0  0  0  0  0
   -6.1629    3.5269   -2.7240 H   0  0  0  0  0  0  0  0  0  0  0  0
   -7.4548    3.6226   -1.5084 H   0  0  0  0  0  0  0  0  0  0  0  0
   -5.9560    4.5567   -1.2865 H   0  0  0  0  0  0  0  0  0  0  0  0
   -5.3622   -1.8172   -1.4722 H   0  0  0  0  0  0  0  0  0  0  0  0
   -6.7092   -1.7081   -0.2843 H   0  0  0  0  0  0  0  0  0  0  0  0
   -6.9347   -1.1705   -1.9535 H   0  0  0  0  0  0  0  0  0  0  0  0
    5.3613   -3.3760   -0.1250 H   0  0  0  0  0  0  0  0  0  0  0  0
    4.9042   -4.1150   -2.4226 H   0  0  0  0  0  0  0  0  0  0  0  0
  1  2  1  0
  2  3  2  0
  3  4  1  0
  4  5  2  0
  5  6  1  0
  6  7  1  0
  7  8  1  0
  8  9  1  0
  9 10  2  0
  9 11  1  0
 11 12  1  0
 12 13  1  0
 13 14  1  0
 14 15  2  0
 14 16  2  0
 14 17  1  0
 17 18  2  0
 18 19  1  0
 19 20  2  0
 20 21  1  0
 21 22  2  0
 21 23  1  0
 23 24  2  0
 23 25  1  0
 25 26  1  0
 25 27  1  0
 27 28  2  0
 27 29  1  0
 29 30  1  0
  5 31  1  0
 31 32  2  0
 32  2  1  0
 22 17  1  0
 29 20  1  0
  1 33  1  0
  1 34  1  0
  1 35  1  0
  3 36  1  0
  4 37  1  0
  6 38  1  0
  6 39  1  0
  7 40  1  0
  7 41  1  0
  8 42  1  0
 11 43  1  0
 11 44  1  0
 12 45  1  0
 12 46  1  0
 13 47  1  0
 18 48  1  0
 19 49  1  0
 22 50  1  0
 26 51  1  0
 26 52  1  0
 26 53  1  0
 30 54  1  0
 30 55  1  0
 30 56  1  0
 31 57  1  0
 32 58  1  0
M  END
$$$$
