
     RDKit          3D

 37 37  0  0  0  0  0  0  0  0999 V2000
   -3.1231   -3.5501   -1.2358 C   0  0  0  0  0  0  0  0  0  0  0  0
   -2.8622   -2.1601   -1.0383 O   0  0  0  0  0  0  0  0  0  0  0  0
   -1.7504   -1.9065   -0.2919 C   0  0  0  0  0  0  0  0  0  0  0  0
   -1.0374   -2.7591    0.2273 O   0  0  0  0  0  0  0  0  0  0  0  0
   -1.5417   -0.3969   -0.1344 C   0  0  0  0  0  0  0  0  0  0  0  0
   -2.4129    0.1157    1.0160 C   0  0  0  0  0  0  0  0  0  0  0  0
   -2.3717    1.6396    1.1084 C   0  0  0  0  0  0  0  0  0  0  0  0
   -3.4062    2.2591    2.4777 S   0  0  0  0  0  0  0  0  0  0  0  0
   -5.0436    2.0775    1.7273 C   0  0  0  0  0  0  0  0  0  0  0  0
   -0.1205   -0.1610    0.1293 N   0  0  0  0  0  0  0  0  0  0  0  0
    0.7424   -0.0040   -0.9243 C   0  0  0  0  0  0  0  0  0  0  0  0
    0.3818    0.1173   -2.0870 O   0  0  0  0  0  0  0  0  0  0  0  0
    2.0441    0.0578   -0.5155 N   0  0  0  0  0  0  0  0  0  0  0  0
    3.1002    0.1242   -1.4980 C   0  0  0  0  0  0  0  0  0  0  0  0
    4.3858    0.3971   -0.7879 C   0  0  0  0  0  0  0  0  0  0  0  0
    4.9088    1.6182   -0.4073 C   0  0  0  0  0  0  0  0  0  0  0  0
    6.1622    1.4885    0.2572 C   0  0  0  0  0  0  0  0  0  0  0  0
    6.5547    0.1733    0.3637 C   0  0  0  0  0  0  0  0  0  0  0  0
    5.4157   -0.8952   -0.3322 S   0  0  0  0  0  0  0  0  0  0  0  0
   -4.0119   -3.6417   -1.8662 H   0  0  0  0  0  0  0  0  0  0  0  0
   -3.3251   -4.0405   -0.2784 H   0  0  0  0  0  0  0  0  0  0  0  0
   -2.2837   -4.0300   -1.7488 H   0  0  0  0  0  0  0  0  0  0  0  0
   -1.8181    0.0899   -1.0771 H   0  0  0  0  0  0  0  0  0  0  0  0
   -2.0754   -0.3280    1.9623 H   0  0  0  0  0  0  0  0  0  0  0  0
   -3.4437   -0.2238    0.8589 H   0  0  0  0  0  0  0  0  0  0  0  0
   -1.3492    1.9784    1.3044 H   0  0  0  0  0  0  0  0  0  0  0  0
   -2.6949    2.1048    0.1712 H   0  0  0  0  0  0  0  0  0  0  0  0
   -5.7930    2.4987    2.4030 H   0  0  0  0  0  0  0  0  0  0  0  0
   -5.0921    2.6181    0.7786 H   0  0  0  0  0  0  0  0  0  0  0  0
   -5.2828    1.0239    1.5662 H   0  0  0  0  0  0  0  0  0  0  0  0
    0.2588   -0.6885    0.9043 H   0  0  0  0  0  0  0  0  0  0  0  0
    2.2751   -0.3603    0.3721 H   0  0  0  0  0  0  0  0  0  0  0  0
    2.8749    0.9211   -2.2160 H   0  0  0  0  0  0  0  0  0  0  0  0
    3.1219   -0.8235   -2.0478 H   0  0  0  0  0  0  0  0  0  0  0  0
    4.4106    2.5621   -0.5963 H   0  0  0  0  0  0  0  0  0  0  0  0
    6.7458    2.3178    0.6378 H   0  0  0  0  0  0  0  0  0  0  0  0
    7.4566   -0.2141    0.8175 H   0  0  0  0  0  0  0  0  0  0  0  0
  1  2  1  0
  2  3  1  0
  3  4  2  0
  3  5  1  0
  5  6  1  0
  6  7  1  0
  7  8  1  0
  8  9  1  0
  5 10  1  0
 10 11  1  0
 11 12  2  0
 11 13  1  0
 13 14  1  0
 14 15  1  0
 15 16  2  0
 16 17  1  0
 17 18  2  0
 18 19  1  0
 19 15  1  0
  1 20  1  0
  1 21  1  0
  1 22  1  0
  5 23  1  0
  6 24  1  0
  6 25  1  0
  7 26  1  0
  7 27  1  0
  9 28  1  0
  9 29  1  0
  9 30  1  0
 10 31  1  0
 13 32  1  0
 14 33  1  0
 14 34  1  0
 16 35  1  0
 17 36  1  0
 18 37  1  0
M  END
$$$$
