
     RDKit          3D

 32 32  0  0  0  0  0  0  0  0999 V2000
   -4.8639   -2.0513   -0.2549 C   0  0  0  0  0  0  0  0  0  0  0  0
   -4.0284   -1.3221    0.2072 C   0  0  0  0  0  0  0  0  0  0  0  0
   -3.0033   -0.4344    0.7812 C   0  0  0  0  0  0  0  0  0  0  0  0
   -2.5225    0.6217   -0.1274 N   0  0  0  0  0  0  0  0  0  0  0  0
   -3.5859    1.5791   -0.4404 C   0  0  0  0  0  0  0  0  0  0  0  0
   -1.8985    0.1174   -1.3601 C   0  0  0  0  0  0  0  0  0  0  0  0
   -0.6255   -0.7056   -1.1413 C   0  0  0  0  0  0  0  0  0  0  0  0
    0.4545    0.0622   -0.3832 C   0  0  0  0  0  0  0  0  0  0  0  0
    1.6167   -0.7673   -0.3257 O   0  0  0  0  0  0  0  0  0  0  0  0
    2.7243   -0.2771    0.3143 C   0  0  0  0  0  0  0  0  0  0  0  0
    2.7954    0.9786    0.9275 C   0  0  0  0  0  0  0  0  0  0  0  0
    3.9738    1.3919    1.5587 C   0  0  0  0  0  0  0  0  0  0  0  0
    5.0853    0.5529    1.5800 C   0  0  0  0  0  0  0  0  0  0  0  0
    6.5295    1.0698    2.3584 Cl  0  0  0  0  0  0  0  0  0  0  0  0
    5.0344   -0.6987    0.9765 C   0  0  0  0  0  0  0  0  0  0  0  0
    3.8571   -1.1101    0.3467 C   0  0  0  0  0  0  0  0  0  0  0  0
    3.8428   -2.6760   -0.3902 Cl  0  0  0  0  0  0  0  0  0  0  0  0
   -5.6037   -2.6988   -0.6659 H   0  0  0  0  0  0  0  0  0  0  0  0
   -2.1555   -1.0342    1.1313 H   0  0  0  0  0  0  0  0  0  0  0  0
   -3.4023    0.0349    1.6896 H   0  0  0  0  0  0  0  0  0  0  0  0
   -4.3869    1.1391   -1.0447 H   0  0  0  0  0  0  0  0  0  0  0  0
   -3.1775    2.4342   -0.9910 H   0  0  0  0  0  0  0  0  0  0  0  0
   -4.0258    1.9857    0.4772 H   0  0  0  0  0  0  0  0  0  0  0  0
   -1.6196    0.9745   -1.9878 H   0  0  0  0  0  0  0  0  0  0  0  0
   -2.6092   -0.4715   -1.9533 H   0  0  0  0  0  0  0  0  0  0  0  0
   -0.8446   -1.6473   -0.6240 H   0  0  0  0  0  0  0  0  0  0  0  0
   -0.2266   -1.0058   -2.1192 H   0  0  0  0  0  0  0  0  0  0  0  0
    0.1107    0.2862    0.6329 H   0  0  0  0  0  0  0  0  0  0  0  0
    0.6860    0.9914   -0.9174 H   0  0  0  0  0  0  0  0  0  0  0  0
    1.9518    1.6619    0.9345 H   0  0  0  0  0  0  0  0  0  0  0  0
    4.0150    2.3703    2.0317 H   0  0  0  0  0  0  0  0  0  0  0  0
    5.9025   -1.3514    0.9945 H   0  0  0  0  0  0  0  0  0  0  0  0
  1  2  3  0
  2  3  1  0
  3  4  1  0
  4  5  1  0
  4  6  1  0
  6  7  1  0
  7  8  1  0
  8  9  1  0
  9 10  1  0
 10 11  2  0
 11 12  1  0
 12 13  2  0
 13 14  1  0
 13 15  1  0
 15 16  2  0
 16 17  1  0
 16 10  1  0
  1 18  1  0
  3 19  1  0
  3 20  1  0
  5 21  1  0
  5 22  1  0
  5 23  1  0
  6 24  1  0
  6 25  1  0
  7 26  1  0
  7 27  1  0
  8 28  1  0
  8 29  1  0
 11 30  1  0
 12 31  1  0
 15 32  1  0
M  END
$$$$
