
     RDKit          3D

 54 58  0  0  0  0  0  0  0  0999 V2000
    5.1335    2.4108    0.2547 F   0  0  0  0  0  0  0  0  0  0  0  0
    6.1163    1.4799    0.0973 C   0  0  0  0  0  0  0  0  0  0  0  0
    7.2273    2.1804   -0.2721 F   0  0  0  0  0  0  0  0  0  0  0  0
    6.3869    1.0058    1.3465 F   0  0  0  0  0  0  0  0  0  0  0  0
    5.7335    0.3876   -0.8804 C   0  0  0  0  0  0  0  0  0  0  0  0
    6.4120    0.3166   -2.1138 C   0  0  0  0  0  0  0  0  0  0  0  0
    6.0989   -0.6660   -3.0495 C   0  0  0  0  0  0  0  0  0  0  0  0
    5.1032   -1.5917   -2.7671 C   0  0  0  0  0  0  0  0  0  0  0  0
    4.4169   -1.5362   -1.5524 C   0  0  0  0  0  0  0  0  0  0  0  0
    4.7049   -0.5483   -0.5952 C   0  0  0  0  0  0  0  0  0  0  0  0
    3.9763   -0.4989    0.7400 C   0  0  0  0  0  0  0  0  0  0  0  0
    2.6790   -1.3218    0.9211 C   0  0  0  0  0  0  0  0  0  0  0  0
    1.5849   -0.9894   -0.0056 N   0  0  0  0  0  0  0  0  0  0  0  0
    0.4218   -1.8856    0.1634 C   0  0  0  0  0  0  0  0  0  0  0  0
   -0.7193   -1.3312    1.0451 C   0  0  0  0  0  0  0  0  0  0  0  0
   -1.2095   -0.0316    0.5627 N   0  0  0  0  0  0  0  0  0  0  0  0
   -2.5694    0.2616    0.5081 C   0  0  0  0  0  0  0  0  0  0  0  0
   -3.0096    0.9454   -0.5204 N   0  0  0  0  0  0  0  0  0  0  0  0
   -4.3776    1.2425   -0.6618 C   0  0  0  0  0  0  0  0  0  0  0  0
   -4.7875    1.9588   -1.7882 C   0  0  0  0  0  0  0  0  0  0  0  0
   -6.1355    2.2703   -1.9847 C   0  0  0  0  0  0  0  0  0  0  0  0
   -7.0903    1.8653   -1.0516 C   0  0  0  0  0  0  0  0  0  0  0  0
   -6.7030    1.1488    0.0815 C   0  0  0  0  0  0  0  0  0  0  0  0
   -5.3504    0.8443    0.2637 C   0  0  0  0  0  0  0  0  0  0  0  0
   -4.8713    0.1413    1.3806 N   0  0  0  0  0  0  0  0  0  0  0  0
   -5.5636   -0.3516    2.4614 C   0  0  0  0  0  0  0  0  0  0  0  0
   -4.6560   -0.8964    3.3421 C   0  0  0  0  0  0  0  0  0  0  0  0
   -3.3730   -0.7426    2.7674 C   0  0  0  0  0  0  0  0  0  0  0  0
   -3.5283   -0.1354    1.5325 C   0  0  0  0  0  0  0  0  0  0  0  0
   -0.2836    0.6882   -0.3320 C   0  0  0  0  0  0  0  0  0  0  0  0
    1.1794    0.4319    0.0841 C   0  0  0  0  0  0  0  0  0  0  0  0
    7.1965    1.0344   -2.3511 H   0  0  0  0  0  0  0  0  0  0  0  0
    6.6304   -0.7085   -3.9966 H   0  0  0  0  0  0  0  0  0  0  0  0
    4.8530   -2.3607   -3.4938 H   0  0  0  0  0  0  0  0  0  0  0  0
    3.6413   -2.2781   -1.3773 H   0  0  0  0  0  0  0  0  0  0  0  0
    4.6854   -0.8487    1.5019 H   0  0  0  0  0  0  0  0  0  0  0  0
    3.7475    0.5455    0.9804 H   0  0  0  0  0  0  0  0  0  0  0  0
    2.9359   -2.3831    0.8097 H   0  0  0  0  0  0  0  0  0  0  0  0
    2.3372   -1.1981    1.9575 H   0  0  0  0  0  0  0  0  0  0  0  0
    0.0151   -2.0728   -0.8395 H   0  0  0  0  0  0  0  0  0  0  0  0
    0.7295   -2.8697    0.5381 H   0  0  0  0  0  0  0  0  0  0  0  0
   -0.3615   -1.2165    2.0745 H   0  0  0  0  0  0  0  0  0  0  0  0
   -1.5252   -2.0739    1.0465 H   0  0  0  0  0  0  0  0  0  0  0  0
   -4.0457    2.2732   -2.5176 H   0  0  0  0  0  0  0  0  0  0  0  0
   -6.4376    2.8286   -2.8671 H   0  0  0  0  0  0  0  0  0  0  0  0
   -8.1381    2.1103   -1.2080 H   0  0  0  0  0  0  0  0  0  0  0  0
   -7.4631    0.8477    0.7943 H   0  0  0  0  0  0  0  0  0  0  0  0
   -6.6374   -0.2639    2.5388 H   0  0  0  0  0  0  0  0  0  0  0  0
   -4.8927   -1.3431    4.2992 H   0  0  0  0  0  0  0  0  0  0  0  0
   -2.4376   -1.0432    3.2173 H   0  0  0  0  0  0  0  0  0  0  0  0
   -0.4418    0.3755   -1.3717 H   0  0  0  0  0  0  0  0  0  0  0  0
   -0.4749    1.7663   -0.2712 H   0  0  0  0  0  0  0  0  0  0  0  0
    1.8392    1.0289   -0.5554 H   0  0  0  0  0  0  0  0  0  0  0  0
    1.2980    0.7972    1.1134 H   0  0  0  0  0  0  0  0  0  0  0  0
  1  2  1  0
  2  3  1  0
  2  4  1  0
  2  5  1  0
  5  6  2  0
  6  7  1  0
  7  8  2  0
  8  9  1  0
  9 10  2  0
 10 11  1  0
 11 12  1  0
 12 13  1  0
 13 14  1  0
 14 15  1  0
 15 16  1  0
 16 17  1  0
 17 18  2  0
 18 19  1  0
 19 20  2  0
 20 21  1  0
 21 22  2  0
 22 23  1  0
 23 24  2  0
 24 25  1  0
 25 26  1  0
 26 27  2  0
 27 28  1  0
 28 29  2  0
 16 30  1  0
 30 31  1  0
 10  5  1  0
 31 13  1  0
 29 17  1  0
 24 19  1  0
 29 25  1  0
  6 32  1  0
  7 33  1  0
  8 34  1  0
  9 35  1  0
 11 36  1  0
 11 37  1  0
 12 38  1  0
 12 39  1  0
 14 40  1  0
 14 41  1  0
 15 42  1  0
 15 43  1  0
 20 44  1  0
 21 45  1  0
 22 46  1  0
 23 47  1  0
 26 48  1  0
 27 49  1  0
 28 50  1  0
 30 51  1  0
 30 52  1  0
 31 53  1  0
 31 54  1  0
M  END
$$$$
