
     RDKit          3D

 61 65  0  0  0  0  0  0  0  0999 V2000
   -8.8774    2.5271   -2.6434 C   0  0  0  0  0  0  0  0  0  0  0  0
   -7.8239    1.7203   -1.9389 C   0  0  0  0  0  0  0  0  0  0  0  0
   -6.9509    0.9086   -2.6631 C   0  0  0  0  0  0  0  0  0  0  0  0
   -5.9552    0.1721   -2.0071 C   0  0  0  0  0  0  0  0  0  0  0  0
   -5.7933    0.2370   -0.6111 C   0  0  0  0  0  0  0  0  0  0  0  0
   -4.7531   -0.5400    0.0938 C   0  0  0  0  0  0  0  0  0  0  0  0
   -3.5106   -0.8027   -0.4562 C   0  0  0  0  0  0  0  0  0  0  0  0
   -2.6019   -1.5519    0.2880 C   0  0  0  0  0  0  0  0  0  0  0  0
   -1.2617   -1.7440   -0.3086 C   0  0  0  0  0  0  0  0  0  0  0  0
   -1.1779   -2.3476   -1.3682 O   0  0  0  0  0  0  0  0  0  0  0  0
   -0.2487   -1.1341    0.4051 N   0  0  0  0  0  0  0  0  0  0  0  0
    1.1286   -1.1445    0.1102 C   0  0  0  0  0  0  0  0  0  0  0  0
    1.6985   -1.9087   -0.9123 C   0  0  0  0  0  0  0  0  0  0  0  0
    3.0792   -1.8783   -1.1374 C   0  0  0  0  0  0  0  0  0  0  0  0
    3.8896   -1.0695   -0.3420 C   0  0  0  0  0  0  0  0  0  0  0  0
    5.6489   -1.0509   -0.5970 S   0  0  0  0  0  6  0  0  0  0  0  0
    5.9850   -2.1681   -1.4529 O   0  0  0  0  0  0  0  0  0  0  0  0
    6.2601   -0.8553    0.7008 O   0  0  0  0  0  0  0  0  0  0  0  0
    5.8033    0.3507   -1.5542 N   0  0  0  0  0  0  0  0  0  0  0  0
    7.1041    0.9753   -1.3361 C   0  0  0  0  0  0  0  0  0  0  0  0
    8.2270    0.6354   -2.0158 O   0  0  0  0  0  0  0  0  0  0  0  0
    9.2797    1.4200   -1.5869 N   0  0  0  0  0  0  0  0  0  0  0  0
    8.7712    2.2286   -0.6483 C   0  0  0  0  0  0  0  0  0  0  0  0
    9.6499    3.2081    0.0315 C   0  0  0  0  0  0  0  0  0  0  0  0
    7.3768    2.0054   -0.4653 C   0  0  0  0  0  0  0  0  0  0  0  0
    6.4489    2.6969    0.4577 C   0  0  0  0  0  0  0  0  0  0  0  0
    3.3364   -0.3084    0.6894 C   0  0  0  0  0  0  0  0  0  0  0  0
    1.9579   -0.3498    0.9125 C   0  0  0  0  0  0  0  0  0  0  0  0
   -2.9397   -2.0736    1.5544 C   0  0  0  0  0  0  0  0  0  0  0  0
   -2.1054   -2.9086    2.3423 C   0  0  0  0  0  0  0  0  0  0  0  0
   -2.5256   -3.3693    3.5867 C   0  0  0  0  0  0  0  0  0  0  0  0
   -3.7771   -3.0064    4.0635 C   0  0  0  0  0  0  0  0  0  0  0  0
   -4.6046   -2.1958    3.2854 C   0  0  0  0  0  0  0  0  0  0  0  0
   -4.2161   -1.7324    2.0339 C   0  0  0  0  0  0  0  0  0  0  0  0
   -5.0811   -0.9775    1.3346 N   0  0  0  0  0  0  0  0  0  0  0  0
   -6.6752    1.0681    0.0988 C   0  0  0  0  0  0  0  0  0  0  0  0
   -7.6713    1.8071   -0.5535 C   0  0  0  0  0  0  0  0  0  0  0  0
   -9.7440    2.6937   -1.9938 H   0  0  0  0  0  0  0  0  0  0  0  0
   -9.2380    2.0010   -3.5348 H   0  0  0  0  0  0  0  0  0  0  0  0
   -8.4682    3.4988   -2.9435 H   0  0  0  0  0  0  0  0  0  0  0  0
   -7.0444    0.8300   -3.7446 H   0  0  0  0  0  0  0  0  0  0  0  0
   -5.3203   -0.4727   -2.6087 H   0  0  0  0  0  0  0  0  0  0  0  0
   -3.2307   -0.4217   -1.4329 H   0  0  0  0  0  0  0  0  0  0  0  0
   -0.5289   -0.5826    1.2090 H   0  0  0  0  0  0  0  0  0  0  0  0
    1.0964   -2.5552   -1.5462 H   0  0  0  0  0  0  0  0  0  0  0  0
    3.5022   -2.4926   -1.9297 H   0  0  0  0  0  0  0  0  0  0  0  0
    5.7730    0.0151   -2.5222 H   0  0  0  0  0  0  0  0  0  0  0  0
    9.5665    4.1858   -0.4533 H   0  0  0  0  0  0  0  0  0  0  0  0
   10.6970    2.8933   -0.0062 H   0  0  0  0  0  0  0  0  0  0  0  0
    9.3746    3.3192    1.0845 H   0  0  0  0  0  0  0  0  0  0  0  0
    5.4599    2.8235    0.0028 H   0  0  0  0  0  0  0  0  0  0  0  0
    6.8228    3.6860    0.7199 H   0  0  0  0  0  0  0  0  0  0  0  0
    6.3291    2.1243    1.3812 H   0  0  0  0  0  0  0  0  0  0  0  0
    3.9674    0.3134    1.3217 H   0  0  0  0  0  0  0  0  0  0  0  0
    1.5423    0.2533    1.7166 H   0  0  0  0  0  0  0  0  0  0  0  0
   -1.1296   -3.2258    1.9756 H   0  0  0  0  0  0  0  0  0  0  0  0
   -1.8885   -4.0243    4.1738 H   0  0  0  0  0  0  0  0  0  0  0  0
   -4.1219   -3.3646    5.0303 H   0  0  0  0  0  0  0  0  0  0  0  0
   -5.5922   -1.9306    3.6598 H   0  0  0  0  0  0  0  0  0  0  0  0
   -6.5893    1.1483    1.1806 H   0  0  0  0  0  0  0  0  0  0  0  0
   -8.3297    2.4409    0.0330 H   0  0  0  0  0  0  0  0  0  0  0  0
  1  2  1  0
  2  3  2  0
  3  4  1  0
  4  5  2  0
  5  6  1  0
  6  7  2  0
  7  8  1  0
  8  9  1  0
  9 10  2  0
  9 11  1  0
 11 12  1  0
 12 13  2  0
 13 14  1  0
 14 15  2  0
 15 16  1  0
 16 17  2  0
 16 18  2  0
 16 19  1  0
 19 20  1  0
 20 21  1  0
 21 22  1  0
 22 23  2  0
 23 24  1  0
 23 25  1  0
 25 26  1  0
 15 27  1  0
 27 28  2  0
  8 29  2  0
 29 30  1  0
 30 31  2  0
 31 32  1  0
 32 33  2  0
 33 34  1  0
 34 35  2  0
  5 36  1  0
 36 37  2  0
 37  2  1  0
 35  6  1  0
 28 12  1  0
 34 29  1  0
 25 20  2  0
  1 38  1  0
  1 39  1  0
  1 40  1  0
  3 41  1  0
  4 42  1  0
  7 43  1  0
 11 44  1  0
 13 45  1  0
 14 46  1  0
 19 47  1  0
 24 48  1  0
 24 49  1  0
 24 50  1  0
 26 51  1  0
 26 52  1  0
 26 53  1  0
 27 54  1  0
 28 55  1  0
 30 56  1  0
 31 57  1  0
 32 58  1  0
 33 59  1  0
 36 60  1  0
 37 61  1  0
M  END
$$$$
