
     RDKit          3D

 52 54  0  0  0  0  0  0  0  0999 V2000
    2.0799   -2.1507    3.1354 C   0  0  0  0  0  0  0  0  0  0  0  0
    2.2585   -1.7261    1.7078 C   0  0  0  0  0  0  0  0  0  0  0  0
    3.3131   -0.8829    1.3411 C   0  0  0  0  0  0  0  0  0  0  0  0
    3.4968   -0.5161    0.0052 C   0  0  0  0  0  0  0  0  0  0  0  0
    2.6341   -0.9956   -0.9898 C   0  0  0  0  0  0  0  0  0  0  0  0
    2.7939   -0.5588   -2.4251 C   0  0  0  0  0  0  0  0  0  0  0  0
    2.2756    0.7720   -2.6088 N   0  0  0  0  0  0  0  0  0  0  0  0
    0.9280    0.9941   -2.7778 C   0  0  0  0  0  0  0  0  0  0  0  0
    0.0813    0.1574   -3.0612 O   0  0  0  0  0  0  0  0  0  0  0  0
    0.5083    2.4475   -2.4586 C   0  0  0  0  0  0  0  0  0  0  0  0
    1.3618    3.2930   -2.2363 O   0  0  0  0  0  0  0  0  0  0  0  0
   -0.8564    2.6054   -2.3730 N   0  0  0  0  0  0  0  0  0  0  0  0
   -1.4287    3.6055   -1.4803 C   0  0  0  0  0  0  0  0  0  0  0  0
   -1.3151    3.2204    0.0168 C   0  0  0  0  0  0  0  0  0  0  0  0
   -0.0336    3.6059    0.5408 O   0  0  0  0  0  0  0  0  0  0  0  0
    0.2170    2.7041    1.6199 C   0  0  0  0  0  0  0  0  0  0  0  0
   -0.2851    1.3772    1.1001 C   0  0  0  0  0  0  0  0  0  0  0  0
   -1.4011    1.7487    0.2069 N   0  0  0  0  0  0  0  0  0  0  0  0
   -2.9401    1.1954    0.5864 S   0  0  0  0  0  6  0  0  0  0  0  0
   -3.1845    1.5264    1.9741 O   0  0  0  0  0  0  0  0  0  0  0  0
   -3.8353    1.6343   -0.4614 O   0  0  0  0  0  0  0  0  0  0  0  0
   -2.7648   -0.5647    0.4411 C   0  0  0  0  0  0  0  0  0  0  0  0
   -2.4648   -1.1171   -0.8085 C   0  0  0  0  0  0  0  0  0  0  0  0
   -2.3168   -2.4993   -0.9327 C   0  0  0  0  0  0  0  0  0  0  0  0
   -2.4725   -3.3148    0.1884 C   0  0  0  0  0  0  0  0  0  0  0  0
   -2.2527   -5.1847    0.0217 Br  0  0  0  0  0  0  0  0  0  0  0  0
   -2.7805   -2.7638    1.4338 C   0  0  0  0  0  0  0  0  0  0  0  0
   -2.9299   -1.3814    1.5635 C   0  0  0  0  0  0  0  0  0  0  0  0
    1.5846   -1.8468   -0.6204 C   0  0  0  0  0  0  0  0  0  0  0  0
    1.4045   -2.2164    0.7143 C   0  0  0  0  0  0  0  0  0  0  0  0
    1.0175   -2.2716    3.3735 H   0  0  0  0  0  0  0  0  0  0  0  0
    2.5934   -3.1005    3.3120 H   0  0  0  0  0  0  0  0  0  0  0  0
    2.4823   -1.3987    3.8220 H   0  0  0  0  0  0  0  0  0  0  0  0
    4.0031   -0.5071    2.0940 H   0  0  0  0  0  0  0  0  0  0  0  0
    4.3181    0.1485   -0.2537 H   0  0  0  0  0  0  0  0  0  0  0  0
    2.2802   -1.2510   -3.1019 H   0  0  0  0  0  0  0  0  0  0  0  0
    3.8532   -0.5514   -2.7016 H   0  0  0  0  0  0  0  0  0  0  0  0
    2.7956    1.5594   -2.2317 H   0  0  0  0  0  0  0  0  0  0  0  0
   -1.3745    1.7349   -2.4544 H   0  0  0  0  0  0  0  0  0  0  0  0
   -0.9358    4.5656   -1.6671 H   0  0  0  0  0  0  0  0  0  0  0  0
   -2.4833    3.6861   -1.7624 H   0  0  0  0  0  0  0  0  0  0  0  0
   -2.0683    3.7618    0.6012 H   0  0  0  0  0  0  0  0  0  0  0  0
   -0.3492    3.0383    2.4968 H   0  0  0  0  0  0  0  0  0  0  0  0
    1.2826    2.6899    1.8643 H   0  0  0  0  0  0  0  0  0  0  0  0
   -0.5544    0.6972    1.9112 H   0  0  0  0  0  0  0  0  0  0  0  0
    0.4785    0.8925    0.4847 H   0  0  0  0  0  0  0  0  0  0  0  0
   -2.3405   -0.4828   -1.6839 H   0  0  0  0  0  0  0  0  0  0  0  0
   -2.0771   -2.9263   -1.9037 H   0  0  0  0  0  0  0  0  0  0  0  0
   -2.9081   -3.4014    2.3052 H   0  0  0  0  0  0  0  0  0  0  0  0
   -3.1750   -0.9556    2.5338 H   0  0  0  0  0  0  0  0  0  0  0  0
    0.8945   -2.2223   -1.3740 H   0  0  0  0  0  0  0  0  0  0  0  0
    0.5914   -2.8910    0.9725 H   0  0  0  0  0  0  0  0  0  0  0  0
  1  2  1  0
  2  3  2  0
  3  4  1  0
  4  5  2  0
  5  6  1  0
  6  7  1  0
  7  8  1  0
  8  9  2  0
  8 10  1  0
 10 11  2  0
 10 12  1  0
 12 13  1  0
 13 14  1  0
 14 15  1  0
 15 16  1  0
 16 17  1  0
 17 18  1  0
 18 19  1  0
 19 20  2  0
 19 21  2  0
 19 22  1  0
 22 23  2  0
 23 24  1  0
 24 25  2  0
 25 26  1  0
 25 27  1  0
 27 28  2  0
  5 29  1  0
 29 30  2  0
 30  2  1  0
 18 14  1  0
 28 22  1  0
  1 31  1  0
  1 32  1  0
  1 33  1  0
  3 34  1  0
  4 35  1  0
  6 36  1  0
  6 37  1  0
  7 38  1  0
 12 39  1  0
 13 40  1  0
 13 41  1  0
 14 42  1  0
 16 43  1  0
 16 44  1  0
 17 45  1  0
 17 46  1  0
 23 47  1  0
 24 48  1  0
 27 49  1  0
 28 50  1  0
 29 51  1  0
 30 52  1  0
M  END
$$$$
