
     RDKit          3D

 37 38  0  0  0  0  0  0  0  0999 V2000
   -5.6042   -0.4379   -2.5139 C   0  0  0  0  0  0  0  0  0  0  0  0
   -5.0418   -0.0410   -1.2235 N   0  0  0  0  0  0  0  0  0  0  0  0
   -5.9425   -0.1685   -0.0783 C   0  0  0  0  0  0  0  0  0  0  0  0
   -3.6613   -0.1298   -1.0211 C   0  0  0  0  0  0  0  0  0  0  0  0
   -2.7579   -0.3018   -2.0836 C   0  0  0  0  0  0  0  0  0  0  0  0
   -1.3690   -0.3689   -1.8879 C   0  0  0  0  0  0  0  0  0  0  0  0
   -0.8228   -0.2430   -0.6119 C   0  0  0  0  0  0  0  0  0  0  0  0
    0.6334   -0.3387   -0.4413 C   0  0  0  0  0  0  0  0  0  0  0  0
    1.3296    0.4446    0.3986 C   0  0  0  0  0  0  0  0  0  0  0  0
    2.7841    0.3676    0.5756 C   0  0  0  0  0  0  0  0  0  0  0  0
    3.3249    0.5771    1.8430 C   0  0  0  0  0  0  0  0  0  0  0  0
    4.7032    0.5344    2.0226 C   0  0  0  0  0  0  0  0  0  0  0  0
    5.5263    0.2986    0.9770 N   0  0  0  0  0  4  0  0  0  0  0  0
    6.9834    0.2691    1.1887 C   0  0  0  0  0  0  0  0  0  0  0  0
    5.0276    0.1177   -0.2659 C   0  0  0  0  0  0  0  0  0  0  0  0
    3.6558    0.1501   -0.4906 C   0  0  0  0  0  0  0  0  0  0  0  0
   -1.6956   -0.0755    0.4621 C   0  0  0  0  0  0  0  0  0  0  0  0
   -3.0830   -0.0116    0.2544 C   0  0  0  0  0  0  0  0  0  0  0  0
   -5.2170    0.1889   -3.3244 H   0  0  0  0  0  0  0  0  0  0  0  0
   -6.6925   -0.3105   -2.5307 H   0  0  0  0  0  0  0  0  0  0  0  0
   -5.3913   -1.4910   -2.7280 H   0  0  0  0  0  0  0  0  0  0  0  0
   -5.8165   -1.1389    0.4145 H   0  0  0  0  0  0  0  0  0  0  0  0
   -5.7790    0.6367    0.6458 H   0  0  0  0  0  0  0  0  0  0  0  0
   -6.9916   -0.0876   -0.3846 H   0  0  0  0  0  0  0  0  0  0  0  0
   -3.1112   -0.3873   -3.1069 H   0  0  0  0  0  0  0  0  0  0  0  0
   -0.7293   -0.5068   -2.7562 H   0  0  0  0  0  0  0  0  0  0  0  0
    1.1180   -1.0910   -1.0583 H   0  0  0  0  0  0  0  0  0  0  0  0
    0.8146    1.1906    1.0025 H   0  0  0  0  0  0  0  0  0  0  0  0
    2.6790    0.7669    2.6987 H   0  0  0  0  0  0  0  0  0  0  0  0
    5.1559    0.6907    2.9977 H   0  0  0  0  0  0  0  0  0  0  0  0
    7.4371   -0.4104    0.4626 H   0  0  0  0  0  0  0  0  0  0  0  0
    7.1915   -0.0910    2.1995 H   0  0  0  0  0  0  0  0  0  0  0  0
    7.3543    1.2881    1.0538 H   0  0  0  0  0  0  0  0  0  0  0  0
    5.7336   -0.0457   -1.0754 H   0  0  0  0  0  0  0  0  0  0  0  0
    3.2791    0.0180   -1.5030 H   0  0  0  0  0  0  0  0  0  0  0  0
   -1.3226    0.0018    1.4797 H   0  0  0  0  0  0  0  0  0  0  0  0
   -3.7021    0.1355    1.1343 H   0  0  0  0  0  0  0  0  0  0  0  0
  1  2  1  0
  2  3  1  0
  2  4  1  0
  4  5  2  0
  5  6  1  0
  6  7  2  0
  7  8  1  0
  8  9  2  3
  9 10  1  0
 10 11  2  0
 11 12  1  0
 12 13  2  0
 13 14  1  0
 13 15  1  0
 15 16  2  0
  7 17  1  0
 17 18  2  0
 18  4  1  0
 16 10  1  0
  1 19  1  0
  1 20  1  0
  1 21  1  0
  3 22  1  0
  3 23  1  0
  3 24  1  0
  5 25  1  0
  6 26  1  0
  8 27  1  0
  9 28  1  0
 11 29  1  0
 12 30  1  0
 14 31  1  0
 14 32  1  0
 14 33  1  0
 15 34  1  0
 16 35  1  0
 17 36  1  0
 18 37  1  0
M  CHG  1  13   1
M  END
$$$$
