
     RDKit          3D

 33 34  0  0  0  0  0  0  0  0999 V2000
   -1.1826    2.4894    0.8667 C   0  0  0  0  0  0  0  0  0  0  0  0
   -1.8735    1.7789   -0.2898 C   0  0  0  0  0  0  0  0  0  0  0  0
   -1.6227    0.3251   -0.3396 N   0  0  0  0  0  0  0  0  0  0  0  0
   -2.2454   -0.5079    0.7020 C   0  0  0  0  0  0  0  0  0  0  0  0
   -3.7432   -0.6417    0.4529 C   0  0  0  0  0  0  0  0  0  0  0  0
   -0.2827   -0.0016   -0.6929 C   0  0  0  0  0  0  0  0  0  0  0  0
    0.0201    0.1101   -2.0669 C   0  0  0  0  0  0  0  0  0  0  0  0
    1.2826   -0.1870   -2.5504 C   0  0  0  0  0  0  0  0  0  0  0  0
    2.2581   -0.5935   -1.6422 C   0  0  0  0  0  0  0  0  0  0  0  0
    3.5696   -0.8824   -2.1918 N   0  0  0  0  0  4  0  0  0  0  0  0
    4.5091   -0.1614   -1.8307 O   0  0  0  0  0  0  0  0  0  0  0  0
    3.6468   -1.8182   -2.9986 O   0  0  0  0  0  1  0  0  0  0  0  0
    2.0151   -0.7231   -0.2514 C   0  0  0  0  0  0  0  0  0  0  0  0
    2.9856   -1.1459    0.6930 C   0  0  0  0  0  0  0  0  0  0  0  0
    2.6804   -1.2333    2.0428 C   0  0  0  0  0  0  0  0  0  0  0  0
    1.4059   -0.8970    2.4256 C   0  0  0  0  0  0  0  0  0  0  0  0
    0.4505   -0.5008    1.5606 N   0  0  0  0  0  0  0  0  0  0  0  0
    0.7195   -0.4169    0.2335 C   0  0  0  0  0  0  0  0  0  0  0  0
   -0.0933    2.4189    0.7930 H   0  0  0  0  0  0  0  0  0  0  0  0
   -1.4855    2.0805    1.8348 H   0  0  0  0  0  0  0  0  0  0  0  0
   -1.4445    3.5526    0.8587 H   0  0  0  0  0  0  0  0  0  0  0  0
   -1.5676    2.2482   -1.2333 H   0  0  0  0  0  0  0  0  0  0  0  0
   -2.9519    1.9574   -0.2177 H   0  0  0  0  0  0  0  0  0  0  0  0
   -1.8341   -1.5252    0.6780 H   0  0  0  0  0  0  0  0  0  0  0  0
   -2.0808   -0.0992    1.7043 H   0  0  0  0  0  0  0  0  0  0  0  0
   -3.9420   -1.0092   -0.5593 H   0  0  0  0  0  0  0  0  0  0  0  0
   -4.1819   -1.3475    1.1657 H   0  0  0  0  0  0  0  0  0  0  0  0
   -4.2604    0.3147    0.5732 H   0  0  0  0  0  0  0  0  0  0  0  0
   -0.7616    0.4133   -2.7612 H   0  0  0  0  0  0  0  0  0  0  0  0
    1.4926   -0.1049   -3.6139 H   0  0  0  0  0  0  0  0  0  0  0  0
    3.9979   -1.4065    0.3887 H   0  0  0  0  0  0  0  0  0  0  0  0
    3.4194   -1.5493    2.7699 H   0  0  0  0  0  0  0  0  0  0  0  0
    1.1006   -0.9365    3.4671 H   0  0  0  0  0  0  0  0  0  0  0  0
  1  2  1  0
  2  3  1  0
  3  4  1  0
  4  5  1  0
  3  6  1  0
  6  7  2  0
  7  8  1  0
  8  9  2  0
  9 10  1  0
 10 11  2  0
 10 12  1  0
  9 13  1  0
 13 14  2  0
 14 15  1  0
 15 16  2  0
 16 17  1  0
 17 18  2  0
 18  6  1  0
 18 13  1  0
  1 19  1  0
  1 20  1  0
  1 21  1  0
  2 22  1  0
  2 23  1  0
  4 24  1  0
  4 25  1  0
  5 26  1  0
  5 27  1  0
  5 28  1  0
  7 29  1  0
  8 30  1  0
 14 31  1  0
 15 32  1  0
 16 33  1  0
M  CHG  2  10   1  12  -1
M  END
$$$$
