
     RDKit          3D

 44 46  0  0  0  0  0  0  0  0999 V2000
   -2.3943    3.4324   -1.1011 C   0  0  0  0  0  0  0  0  0  0  0  0
   -2.0093    2.4087   -2.1720 C   0  0  0  0  0  0  0  0  0  0  0  0
   -3.0189    2.4167   -3.3228 C   0  0  0  0  0  0  0  0  0  0  0  0
   -1.8444    1.0220   -1.5746 C   0  0  0  0  0  0  0  0  0  0  0  0
   -0.5787    0.4140   -1.5721 C   0  0  0  0  0  0  0  0  0  0  0  0
   -0.3958   -0.8533   -1.0166 C   0  0  0  0  0  0  0  0  0  0  0  0
   -1.4809   -1.5144   -0.4392 C   0  0  0  0  0  0  0  0  0  0  0  0
   -1.2499   -3.1152    0.2874 S   0  0  0  0  0  6  0  0  0  0  0  0
   -0.0269   -3.6974   -0.2218 O   0  0  0  0  0  0  0  0  0  0  0  0
   -2.5064   -3.8291    0.1826 O   0  0  0  0  0  0  0  0  0  0  0  0
   -1.0628   -2.7571    1.9333 N   0  0  0  0  0  0  0  0  0  0  0  0
    0.2101   -2.2945    2.3657 C   0  0  0  0  0  0  0  0  0  0  0  0
    1.1849   -3.2102    2.7590 C   0  0  0  0  0  0  0  0  0  0  0  0
    2.4571   -2.7604    3.1155 C   0  0  0  0  0  0  0  0  0  0  0  0
    2.7498   -1.3961    3.0605 C   0  0  0  0  0  0  0  0  0  0  0  0
    4.0007   -0.9620    3.4073 O   0  0  0  0  0  0  0  0  0  0  0  0
    1.7785   -0.4701    2.6527 C   0  0  0  0  0  0  0  0  0  0  0  0
    2.1136    1.2797    2.5388 S   0  0  0  0  0  0  0  0  0  0  0  0
    2.9038    1.3837    0.9848 C   0  0  0  0  0  0  0  0  0  0  0  0
    2.8465    0.4087    0.0192 N   0  0  0  0  0  0  0  0  0  0  0  0
    3.5648    0.9107   -0.9561 C   0  0  0  0  0  0  0  0  0  0  0  0
    4.0133    2.1411   -0.5992 N   0  0  0  0  0  0  0  0  0  0  0  0
    3.5885    2.4772    0.6266 N   0  0  0  0  0  0  0  0  0  0  0  0
    0.4999   -0.9314    2.3173 C   0  0  0  0  0  0  0  0  0  0  0  0
   -2.7512   -0.9359   -0.4456 C   0  0  0  0  0  0  0  0  0  0  0  0
   -2.9280    0.3297   -1.0087 C   0  0  0  0  0  0  0  0  0  0  0  0
   -1.6622    3.4405   -0.2859 H   0  0  0  0  0  0  0  0  0  0  0  0
   -3.3761    3.2184   -0.6650 H   0  0  0  0  0  0  0  0  0  0  0  0
   -2.4322    4.4403   -1.5282 H   0  0  0  0  0  0  0  0  0  0  0  0
   -1.0447    2.7251   -2.5901 H   0  0  0  0  0  0  0  0  0  0  0  0
   -2.7437    1.6847   -4.0903 H   0  0  0  0  0  0  0  0  0  0  0  0
   -4.0324    2.1786   -2.9821 H   0  0  0  0  0  0  0  0  0  0  0  0
   -3.0527    3.4034   -3.7974 H   0  0  0  0  0  0  0  0  0  0  0  0
    0.2824    0.9277   -1.9945 H   0  0  0  0  0  0  0  0  0  0  0  0
    0.5970   -1.3000   -1.0149 H   0  0  0  0  0  0  0  0  0  0  0  0
   -1.5328   -3.4577    2.5046 H   0  0  0  0  0  0  0  0  0  0  0  0
    0.9712   -4.2756    2.7685 H   0  0  0  0  0  0  0  0  0  0  0  0
    3.2075   -3.4849    3.4170 H   0  0  0  0  0  0  0  0  0  0  0  0
    4.5674   -1.7286    3.5879 H   0  0  0  0  0  0  0  0  0  0  0  0
    3.7852    0.4465   -1.9066 H   0  0  0  0  0  0  0  0  0  0  0  0
    4.5901    2.7908   -1.1211 H   0  0  0  0  0  0  0  0  0  0  0  0
   -0.2657   -0.2253    2.0062 H   0  0  0  0  0  0  0  0  0  0  0  0
   -3.6013   -1.4559   -0.0099 H   0  0  0  0  0  0  0  0  0  0  0  0
   -3.9208    0.7744   -0.9970 H   0  0  0  0  0  0  0  0  0  0  0  0
  1  2  1  0
  2  3  1  0
  2  4  1  0
  4  5  2  0
  5  6  1  0
  6  7  2  0
  7  8  1  0
  8  9  2  0
  8 10  2  0
  8 11  1  0
 11 12  1  0
 12 13  2  0
 13 14  1  0
 14 15  2  0
 15 16  1  0
 15 17  1  0
 17 18  1  0
 18 19  1  0
 19 20  1  0
 20 21  2  0
 21 22  1  0
 22 23  1  0
 17 24  2  0
  7 25  1  0
 25 26  2  0
 26  4  1  0
 24 12  1  0
 23 19  2  0
  1 27  1  0
  1 28  1  0
  1 29  1  0
  2 30  1  0
  3 31  1  0
  3 32  1  0
  3 33  1  0
  5 34  1  0
  6 35  1  0
 11 36  1  0
 13 37  1  0
 14 38  1  0
 16 39  1  0
 21 40  1  0
 22 41  1  0
 24 42  1  0
 25 43  1  0
 26 44  1  0
M  END
$$$$
