
     RDKit          3D

 44 45  0  0  0  0  0  0  0  0999 V2000
   -7.1228   -0.7905    2.6348 C   0  0  0  0  0  0  0  0  0  0  0  0
   -7.1230   -0.7480    1.1134 C   0  0  0  0  0  0  0  0  0  0  0  0
   -6.4830    0.5260    0.5682 C   0  0  0  0  0  0  0  0  0  0  0  0
   -5.1201    0.6475    1.0034 O   0  0  0  0  0  0  0  0  0  0  0  0
   -4.1981    0.0039    0.2470 C   0  0  0  0  0  0  0  0  0  0  0  0
   -4.4215   -0.6539   -0.7571 O   0  0  0  0  0  0  0  0  0  0  0  0
   -2.8330    0.1959    0.8061 C   0  0  0  0  0  0  0  0  0  0  0  0
   -2.5919    0.9437    1.9627 C   0  0  0  0  0  0  0  0  0  0  0  0
   -1.2882    1.0852    2.4359 C   0  0  0  0  0  0  0  0  0  0  0  0
   -0.2214    0.4833    1.7606 C   0  0  0  0  0  0  0  0  0  0  0  0
   -0.4450   -0.2672    0.6053 C   0  0  0  0  0  0  0  0  0  0  0  0
    0.5731   -0.9050   -0.1354 N   0  0  0  0  0  0  0  0  0  0  0  0
    1.9363   -0.9189    0.1385 C   0  0  0  0  0  0  0  0  0  0  0  0
    2.4859   -0.3735    1.0892 O   0  0  0  0  0  0  0  0  0  0  0  0
    2.7215   -1.7084   -0.9248 C   0  0  0  0  0  0  0  0  0  0  0  0
    4.1237   -1.8014   -0.7424 O   0  0  0  0  0  0  0  0  0  0  0  0
    4.9016   -0.7422   -1.1158 C   0  0  0  0  0  0  0  0  0  0  0  0
    4.4478    0.5131   -1.5265 C   0  0  0  0  0  0  0  0  0  0  0  0
    5.3623    1.5142   -1.8769 C   0  0  0  0  0  0  0  0  0  0  0  0
    6.7370    1.2544   -1.8119 C   0  0  0  0  0  0  0  0  0  0  0  0
    7.6957    2.3033   -2.1802 N   0  0  0  0  0  4  0  0  0  0  0  0
    8.9033    2.0404   -2.0869 O   0  0  0  0  0  0  0  0  0  0  0  0
    7.2411    3.3890   -2.5689 O   0  0  0  0  0  1  0  0  0  0  0  0
    7.2014    0.0026   -1.3965 C   0  0  0  0  0  0  0  0  0  0  0  0
    6.2783   -0.9870   -1.0490 C   0  0  0  0  0  0  0  0  0  0  0  0
   -1.7569   -0.4059    0.1341 C   0  0  0  0  0  0  0  0  0  0  0  0
   -7.6562    0.0701    3.0506 H   0  0  0  0  0  0  0  0  0  0  0  0
   -7.6199   -1.7001    2.9866 H   0  0  0  0  0  0  0  0  0  0  0  0
   -6.1034   -0.7893    3.0333 H   0  0  0  0  0  0  0  0  0  0  0  0
   -8.1540   -0.8179    0.7495 H   0  0  0  0  0  0  0  0  0  0  0  0
   -6.5826   -1.6263    0.7432 H   0  0  0  0  0  0  0  0  0  0  0  0
   -7.0181    1.4052    0.9434 H   0  0  0  0  0  0  0  0  0  0  0  0
   -6.5478    0.5604   -0.5259 H   0  0  0  0  0  0  0  0  0  0  0  0
   -3.4045    1.4202    2.5054 H   0  0  0  0  0  0  0  0  0  0  0  0
   -1.0954    1.6656    3.3357 H   0  0  0  0  0  0  0  0  0  0  0  0
    0.7748    0.6227    2.1699 H   0  0  0  0  0  0  0  0  0  0  0  0
    0.2636   -1.4221   -0.9501 H   0  0  0  0  0  0  0  0  0  0  0  0
    2.4782   -1.3327   -1.9267 H   0  0  0  0  0  0  0  0  0  0  0  0
    2.3434   -2.7375   -0.8836 H   0  0  0  0  0  0  0  0  0  0  0  0
    3.3918    0.7588   -1.5675 H   0  0  0  0  0  0  0  0  0  0  0  0
    4.9862    2.4873   -2.1871 H   0  0  0  0  0  0  0  0  0  0  0  0
    8.2646   -0.2182   -1.3334 H   0  0  0  0  0  0  0  0  0  0  0  0
    6.6345   -1.9608   -0.7182 H   0  0  0  0  0  0  0  0  0  0  0  0
   -1.9594   -0.9860   -0.7643 H   0  0  0  0  0  0  0  0  0  0  0  0
  1  2  1  0
  2  3  1  0
  3  4  1  0
  4  5  1  0
  5  6  2  0
  5  7  1  0
  7  8  2  0
  8  9  1  0
  9 10  2  0
 10 11  1  0
 11 12  1  0
 12 13  1  0
 13 14  2  0
 13 15  1  0
 15 16  1  0
 16 17  1  0
 17 18  2  0
 18 19  1  0
 19 20  2  0
 20 21  1  0
 21 22  2  0
 21 23  1  0
 20 24  1  0
 24 25  2  0
 11 26  2  0
 26  7  1  0
 25 17  1  0
  1 27  1  0
  1 28  1  0
  1 29  1  0
  2 30  1  0
  2 31  1  0
  3 32  1  0
  3 33  1  0
  8 34  1  0
  9 35  1  0
 10 36  1  0
 12 37  1  0
 15 38  1  0
 15 39  1  0
 18 40  1  0
 19 41  1  0
 24 42  1  0
 25 43  1  0
 26 44  1  0
M  CHG  2  21   1  23  -1
M  END
$$$$
