
     RDKit          3D

 23 23  0  0  0  0  0  0  0  0999 V2000
    0.3711    2.0925   -0.6281 O   0  0  0  0  0  0  0  0  0  0  0  0
   -0.7889    1.7717   -0.4515 C   0  0  0  0  0  0  0  0  0  0  0  0
   -1.7556    2.7036   -0.3414 O   0  0  0  0  0  0  0  0  0  0  0  0
   -1.3318    0.3964   -0.3449 C   0  0  0  0  0  0  0  0  0  0  0  0
   -2.6347    0.1369   -0.8055 C   0  0  0  0  0  0  0  0  0  0  0  0
   -3.1652   -1.1514   -0.7363 C   0  0  0  0  0  0  0  0  0  0  0  0
   -2.4025   -2.1863   -0.2035 C   0  0  0  0  0  0  0  0  0  0  0  0
   -1.1089   -1.9331    0.2577 C   0  0  0  0  0  0  0  0  0  0  0  0
   -0.5502   -0.6491    0.1833 C   0  0  0  0  0  0  0  0  0  0  0  0
    0.7394   -0.4753    0.7216 N   0  0  0  0  0  0  0  0  0  0  0  0
    1.7081   -0.3516   -0.1315 C   0  0  0  0  0  0  0  0  0  0  0  0
    3.1108   -0.1500    0.3375 C   0  0  0  0  0  0  0  0  0  0  0  0
    3.6470    1.0343   -0.3867 N   0  0  0  0  0  4  0  0  0  0  0  0
    3.8956    2.0465    0.2802 O   0  0  0  0  0  0  0  0  0  0  0  0
    3.8610    0.9002   -1.6002 O   0  0  0  0  0  1  0  0  0  0  0  0
   -1.2680    3.5525   -0.4003 H   0  0  0  0  0  0  0  0  0  0  0  0
   -3.2417    0.9381   -1.2219 H   0  0  0  0  0  0  0  0  0  0  0  0
   -4.1747   -1.3443   -1.0919 H   0  0  0  0  0  0  0  0  0  0  0  0
   -2.8159   -3.1898   -0.1361 H   0  0  0  0  0  0  0  0  0  0  0  0
   -0.5287   -2.7437    0.6927 H   0  0  0  0  0  0  0  0  0  0  0  0
    1.5397   -0.4264   -1.2230 H   0  0  0  0  0  0  0  0  0  0  0  0
    3.1629    0.0344    1.4131 H   0  0  0  0  0  0  0  0  0  0  0  0
    3.7309   -1.0061    0.0604 H   0  0  0  0  0  0  0  0  0  0  0  0
  1  2  2  0
  2  3  1  0
  2  4  1  0
  4  5  2  0
  5  6  1  0
  6  7  2  0
  7  8  1  0
  8  9  2  0
  9 10  1  0
 10 11  2  3
 11 12  1  0
 12 13  1  0
 13 14  2  0
 13 15  1  0
  9  4  1  0
  3 16  1  0
  5 17  1  0
  6 18  1  0
  7 19  1  0
  8 20  1  0
 11 21  1  0
 12 22  1  0
 12 23  1  0
M  CHG  2  13   1  15  -1
M  END
$$$$
