
     RDKit          3D

 59 62  0  0  0  0  0  0  0  0999 V2000
    9.4125   -2.2287    2.4317 C   0  0  0  0  0  0  0  0  0  0  0  0
    8.1014   -1.5708    2.1207 C   0  0  0  0  0  0  0  0  0  0  0  0
    7.3203   -1.0170    3.1375 C   0  0  0  0  0  0  0  0  0  0  0  0
    6.0830   -0.4247    2.8500 C   0  0  0  0  0  0  0  0  0  0  0  0
    5.6089   -0.3778    1.5343 C   0  0  0  0  0  0  0  0  0  0  0  0
    4.3515    0.2104    1.1908 N   0  0  0  0  0  0  0  0  0  0  0  0
    3.7851   -0.1187   -0.0029 N   0  0  0  0  0  0  0  0  0  0  0  0
    2.5538    0.3946    0.0435 C   0  0  0  0  0  0  0  0  0  0  0  0
    1.5180    0.2519   -0.9714 C   0  0  0  0  0  0  0  0  0  0  0  0
    1.6481   -0.4240   -1.9907 O   0  0  0  0  0  0  0  0  0  0  0  0
    0.3458    0.9701   -0.6552 N   0  0  0  0  0  0  0  0  0  0  0  0
   -0.8028    0.8857   -1.5531 C   0  0  0  0  0  0  0  0  0  0  0  0
   -1.6833   -0.3190   -1.2103 C   0  0  0  0  0  0  0  0  0  0  0  0
   -2.7693   -0.5831   -2.2507 C   0  0  0  0  0  0  0  0  0  0  0  0
   -3.8886    0.4412   -2.2420 C   0  0  0  0  0  0  0  0  0  0  0  0
   -3.8673    1.4646   -1.5699 O   0  0  0  0  0  0  0  0  0  0  0  0
   -4.9161    0.1079   -3.0941 N   0  0  0  0  0  0  0  0  0  0  0  0
   -6.1302    0.8897   -3.1742 C   0  0  0  0  0  0  0  0  0  0  0  0
   -7.2771    0.0144   -2.8241 C   0  0  0  0  0  0  0  0  0  0  0  0
   -8.1489   -0.7571   -3.5673 C   0  0  0  0  0  0  0  0  0  0  0  0
   -9.0398   -1.3592   -2.6432 C   0  0  0  0  0  0  0  0  0  0  0  0
   -8.6571   -0.9204   -1.3937 C   0  0  0  0  0  0  0  0  0  0  0  0
   -9.1634   -1.1591   -0.0279 C   0  0  0  0  0  0  0  0  0  0  0  0
   -7.5830   -0.0889   -1.4983 O   0  0  0  0  0  0  0  0  0  0  0  0
    0.1390    1.6930    0.5240 N   0  0  0  0  0  0  0  0  0  0  0  0
    1.0734    1.7919    1.4268 C   0  0  0  0  0  0  0  0  0  0  0  0
    0.7802    2.5803    2.6720 C   0  0  0  0  0  0  0  0  0  0  0  0
    2.3442    1.1468    1.2038 C   0  0  0  0  0  0  0  0  0  0  0  0
    3.5434    1.1111    1.8960 C   0  0  0  0  0  0  0  0  0  0  0  0
    3.9763    1.8800    3.0926 C   0  0  0  0  0  0  0  0  0  0  0  0
    6.3762   -0.9750    0.5203 C   0  0  0  0  0  0  0  0  0  0  0  0
    7.6117   -1.5610    0.8113 C   0  0  0  0  0  0  0  0  0  0  0  0
    9.2775   -3.3112    2.5106 H   0  0  0  0  0  0  0  0  0  0  0  0
    9.8274   -1.8577    3.3751 H   0  0  0  0  0  0  0  0  0  0  0  0
   10.1456   -2.0148    1.6476 H   0  0  0  0  0  0  0  0  0  0  0  0
    7.6633   -1.0521    4.1698 H   0  0  0  0  0  0  0  0  0  0  0  0
    5.5032   -0.0622    3.6891 H   0  0  0  0  0  0  0  0  0  0  0  0
   -1.3595    1.8258   -1.4812 H   0  0  0  0  0  0  0  0  0  0  0  0
   -0.4361    0.8027   -2.5831 H   0  0  0  0  0  0  0  0  0  0  0  0
   -2.1308   -0.1788   -0.2178 H   0  0  0  0  0  0  0  0  0  0  0  0
   -1.0543   -1.2159   -1.1412 H   0  0  0  0  0  0  0  0  0  0  0  0
   -2.3353   -0.6198   -3.2569 H   0  0  0  0  0  0  0  0  0  0  0  0
   -3.2170   -1.5630   -2.0431 H   0  0  0  0  0  0  0  0  0  0  0  0
   -4.8987   -0.7862   -3.5675 H   0  0  0  0  0  0  0  0  0  0  0  0
   -6.0884    1.7638   -2.5151 H   0  0  0  0  0  0  0  0  0  0  0  0
   -6.2235    1.2391   -4.2090 H   0  0  0  0  0  0  0  0  0  0  0  0
   -8.1472   -0.8664   -4.6436 H   0  0  0  0  0  0  0  0  0  0  0  0
   -9.8629   -2.0269   -2.8593 H   0  0  0  0  0  0  0  0  0  0  0  0
   -8.3800   -1.5910    0.6028 H   0  0  0  0  0  0  0  0  0  0  0  0
  -10.0116   -1.8514   -0.0386 H   0  0  0  0  0  0  0  0  0  0  0  0
   -9.4950   -0.2188    0.4250 H   0  0  0  0  0  0  0  0  0  0  0  0
    1.2934    3.5447    2.6234 H   0  0  0  0  0  0  0  0  0  0  0  0
   -0.2949    2.7634    2.7587 H   0  0  0  0  0  0  0  0  0  0  0  0
    1.1089    2.0312    3.5594 H   0  0  0  0  0  0  0  0  0  0  0  0
    3.4664    2.8459    3.1438 H   0  0  0  0  0  0  0  0  0  0  0  0
    3.7444    1.3309    4.0107 H   0  0  0  0  0  0  0  0  0  0  0  0
    5.0441    2.1131    3.0633 H   0  0  0  0  0  0  0  0  0  0  0  0
    6.0293   -0.9833   -0.5130 H   0  0  0  0  0  0  0  0  0  0  0  0
    8.1859   -2.0101    0.0047 H   0  0  0  0  0  0  0  0  0  0  0  0
  1  2  1  0
  2  3  2  0
  3  4  1  0
  4  5  2  0
  5  6  1  0
  6  7  1  0
  7  8  2  0
  8  9  1  0
  9 10  2  0
  9 11  1  0
 11 12  1  0
 12 13  1  0
 13 14  1  0
 14 15  1  0
 15 16  2  0
 15 17  1  0
 17 18  1  0
 18 19  1  0
 19 20  2  0
 20 21  1  0
 21 22  2  0
 22 23  1  0
 22 24  1  0
 11 25  1  0
 25 26  2  0
 26 27  1  0
 26 28  1  0
 28 29  2  0
 29 30  1  0
  5 31  1  0
 31 32  2  0
 32  2  1  0
 29  6  1  0
 28  8  1  0
 24 19  1  0
  1 33  1  0
  1 34  1  0
  1 35  1  0
  3 36  1  0
  4 37  1  0
 12 38  1  0
 12 39  1  0
 13 40  1  0
 13 41  1  0
 14 42  1  0
 14 43  1  0
 17 44  1  0
 18 45  1  0
 18 46  1  0
 20 47  1  0
 21 48  1  0
 23 49  1  0
 23 50  1  0
 23 51  1  0
 27 52  1  0
 27 53  1  0
 27 54  1  0
 30 55  1  0
 30 56  1  0
 30 57  1  0
 31 58  1  0
 32 59  1  0
M  END
$$$$
