
     RDKit          3D

 53 55  0  0  0  0  0  0  0  0999 V2000
   -4.9854   -5.0655    4.9922 C   0  0  0  0  0  0  0  0  0  0  0  0
   -5.6642   -4.0332    4.2877 O   0  0  0  0  0  0  0  0  0  0  0  0
   -4.9743   -3.4097    3.2848 C   0  0  0  0  0  0  0  0  0  0  0  0
   -5.6979   -2.4195    2.6101 C   0  0  0  0  0  0  0  0  0  0  0  0
   -5.1189   -1.6978    1.5646 C   0  0  0  0  0  0  0  0  0  0  0  0
   -3.8005   -1.9699    1.2001 C   0  0  0  0  0  0  0  0  0  0  0  0
   -3.0293   -1.0641   -0.1159 S   0  0  0  0  0  6  0  0  0  0  0  0
   -3.9814   -0.1075   -0.6405 O   0  0  0  0  0  0  0  0  0  0  0  0
   -2.3744   -2.0223   -0.9770 O   0  0  0  0  0  0  0  0  0  0  0  0
   -1.8508   -0.1919    0.6910 N   0  0  0  0  0  0  0  0  0  0  0  0
   -2.2561    0.7762    1.7216 C   0  0  0  0  0  0  0  0  0  0  0  0
   -1.4475    2.0140    1.4035 C   0  0  0  0  0  0  0  0  0  0  0  0
   -0.2955    1.5217    0.7155 O   0  0  0  0  0  0  0  0  0  0  0  0
   -0.7600    0.4172   -0.0960 C   0  0  0  0  0  0  0  0  0  0  0  0
   -1.1560    0.9599   -1.4957 C   0  0  0  0  0  0  0  0  0  0  0  0
   -0.0990    1.7365   -2.1243 N   0  0  0  0  0  0  0  0  0  0  0  0
    1.0368    1.1377   -2.6170 C   0  0  0  0  0  0  0  0  0  0  0  0
    1.2236   -0.0656   -2.7278 O   0  0  0  0  0  0  0  0  0  0  0  0
    2.1429    2.1373   -3.0238 C   0  0  0  0  0  0  0  0  0  0  0  0
    2.0008    3.3321   -2.8045 O   0  0  0  0  0  0  0  0  0  0  0  0
    3.2318    1.5367   -3.6087 N   0  0  0  0  0  0  0  0  0  0  0  0
    4.4441    2.2548   -3.9002 C   0  0  0  0  0  0  0  0  0  0  0  0
    5.4442    2.0931   -2.7840 C   0  0  0  0  0  0  0  0  0  0  0  0
    6.4041    1.0694   -2.8266 C   0  0  0  0  0  0  0  0  0  0  0  0
    7.3103    0.9090   -1.7770 C   0  0  0  0  0  0  0  0  0  0  0  0
    7.2526    1.7645   -0.6834 C   0  0  0  0  0  0  0  0  0  0  0  0
    8.1212    1.6065    0.3236 F   0  0  0  0  0  0  0  0  0  0  0  0
    6.3044    2.7776   -0.6170 C   0  0  0  0  0  0  0  0  0  0  0  0
    5.3976    2.9408   -1.6650 C   0  0  0  0  0  0  0  0  0  0  0  0
   -3.0684   -2.9618    1.8585 C   0  0  0  0  0  0  0  0  0  0  0  0
   -3.6577   -3.6795    2.9038 C   0  0  0  0  0  0  0  0  0  0  0  0
   -4.1084   -4.6732    5.5176 H   0  0  0  0  0  0  0  0  0  0  0  0
   -5.6730   -5.4646    5.7441 H   0  0  0  0  0  0  0  0  0  0  0  0
   -4.7113   -5.8869    4.3221 H   0  0  0  0  0  0  0  0  0  0  0  0
   -6.7256   -2.2133    2.9022 H   0  0  0  0  0  0  0  0  0  0  0  0
   -5.7001   -0.9372    1.0486 H   0  0  0  0  0  0  0  0  0  0  0  0
   -1.9718    0.3700    2.6984 H   0  0  0  0  0  0  0  0  0  0  0  0
   -3.3265    0.9969    1.7385 H   0  0  0  0  0  0  0  0  0  0  0  0
   -1.9921    2.6954    0.7407 H   0  0  0  0  0  0  0  0  0  0  0  0
   -1.1458    2.5642    2.2992 H   0  0  0  0  0  0  0  0  0  0  0  0
    0.0705   -0.2907   -0.1812 H   0  0  0  0  0  0  0  0  0  0  0  0
   -1.4122    0.1382   -2.1716 H   0  0  0  0  0  0  0  0  0  0  0  0
   -2.0176    1.6316   -1.4270 H   0  0  0  0  0  0  0  0  0  0  0  0
   -0.0188    2.7296   -1.9198 H   0  0  0  0  0  0  0  0  0  0  0  0
    3.2377    0.5202   -3.6055 H   0  0  0  0  0  0  0  0  0  0  0  0
    4.2290    3.3166   -4.0665 H   0  0  0  0  0  0  0  0  0  0  0  0
    4.8483    1.8541   -4.8363 H   0  0  0  0  0  0  0  0  0  0  0  0
    6.4500    0.3910   -3.6757 H   0  0  0  0  0  0  0  0  0  0  0  0
    8.0568    0.1217   -1.8033 H   0  0  0  0  0  0  0  0  0  0  0  0
    6.2731    3.4298    0.2496 H   0  0  0  0  0  0  0  0  0  0  0  0
    4.6479    3.7284   -1.6059 H   0  0  0  0  0  0  0  0  0  0  0  0
   -2.0438   -3.1782    1.5623 H   0  0  0  0  0  0  0  0  0  0  0  0
   -3.0635   -4.4419    3.3970 H   0  0  0  0  0  0  0  0  0  0  0  0
  1  2  1  0
  2  3  1  0
  3  4  2  0
  4  5  1  0
  5  6  2  0
  6  7  1  0
  7  8  2  0
  7  9  2  0
  7 10  1  0
 10 11  1  0
 11 12  1  0
 12 13  1  0
 13 14  1  0
 14 15  1  0
 15 16  1  0
 16 17  1  0
 17 18  2  0
 17 19  1  0
 19 20  2  0
 19 21  1  0
 21 22  1  0
 22 23  1  0
 23 24  2  0
 24 25  1  0
 25 26  2  0
 26 27  1  0
 26 28  1  0
 28 29  2  0
  6 30  1  0
 30 31  2  0
 31  3  1  0
 14 10  1  0
 29 23  1  0
  1 32  1  0
  1 33  1  0
  1 34  1  0
  4 35  1  0
  5 36  1  0
 11 37  1  0
 11 38  1  0
 12 39  1  0
 12 40  1  0
 14 41  1  0
 15 42  1  0
 15 43  1  0
 16 44  1  0
 21 45  1  0
 22 46  1  0
 22 47  1  0
 24 48  1  0
 25 49  1  0
 28 50  1  0
 29 51  1  0
 30 52  1  0
 31 53  1  0
M  END
$$$$
