
     RDKit          3D

 39 42  0  0  0  0  0  0  0  0999 V2000
    6.0759    0.4754   -0.5664 C   0  0  0  0  0  0  0  0  0  0  0  0
    5.8346   -0.4454    0.4677 C   0  0  0  0  0  0  0  0  0  0  0  0
    4.5377   -0.8900    0.7450 C   0  0  0  0  0  0  0  0  0  0  0  0
    3.4955   -0.4010   -0.0244 C   0  0  0  0  0  0  0  0  0  0  0  0
    3.7451    0.5239   -1.0618 C   0  0  0  0  0  0  0  0  0  0  0  0
    5.0259    0.9693   -1.3430 C   0  0  0  0  0  0  0  0  0  0  0  0
    2.4496    0.9030   -1.7496 C   0  0  0  0  0  0  0  0  0  0  0  0
    1.4330    0.0837   -0.9799 C   0  0  0  0  0  0  0  0  0  0  0  0
    0.0609    0.0268   -1.1692 C   0  0  0  0  0  0  0  0  0  0  0  0
   -0.6953   -0.8065   -0.3302 C   0  0  0  0  0  0  0  0  0  0  0  0
   -2.1983   -0.9075   -0.5024 C   0  0  0  0  0  0  0  0  0  0  0  0
   -2.9510   -0.4953    0.6925 N   0  0  0  0  0  0  0  0  0  0  0  0
   -4.3945   -0.7829    0.5548 C   0  0  0  0  0  0  0  0  0  0  0  0
   -5.2284    0.4439    0.1546 C   0  0  0  0  0  0  0  0  0  0  0  0
   -5.1314    1.5235    1.0930 O   0  0  0  0  0  0  0  0  0  0  0  0
   -3.8938    1.5277    1.8194 C   0  0  0  0  0  0  0  0  0  0  0  0
   -2.7321    0.9358    1.0077 C   0  0  0  0  0  0  0  0  0  0  0  0
   -0.0468   -1.5623    0.6742 C   0  0  0  0  0  0  0  0  0  0  0  0
    1.3391   -1.4973    0.8570 C   0  0  0  0  0  0  0  0  0  0  0  0
    2.0739   -0.6715    0.0253 C   0  0  0  0  0  0  0  0  0  0  0  0
    7.0934    0.8059   -0.7624 H   0  0  0  0  0  0  0  0  0  0  0  0
    6.6680   -0.8166    1.0598 H   0  0  0  0  0  0  0  0  0  0  0  0
    4.3619   -1.6006    1.5453 H   0  0  0  0  0  0  0  0  0  0  0  0
    5.2127    1.6800   -2.1410 H   0  0  0  0  0  0  0  0  0  0  0  0
    2.4688    0.6055   -2.8021 H   0  0  0  0  0  0  0  0  0  0  0  0
    2.2498    1.9725   -1.6360 H   0  0  0  0  0  0  0  0  0  0  0  0
   -0.4111    0.6174   -1.9479 H   0  0  0  0  0  0  0  0  0  0  0  0
   -2.5218   -0.3332   -1.3806 H   0  0  0  0  0  0  0  0  0  0  0  0
   -2.4121   -1.9606   -0.7298 H   0  0  0  0  0  0  0  0  0  0  0  0
   -4.5798   -1.6082   -0.1427 H   0  0  0  0  0  0  0  0  0  0  0  0
   -4.7437   -1.1297    1.5357 H   0  0  0  0  0  0  0  0  0  0  0  0
   -4.9201    0.8183   -0.8285 H   0  0  0  0  0  0  0  0  0  0  0  0
   -6.2860    0.1708    0.0803 H   0  0  0  0  0  0  0  0  0  0  0  0
   -3.6756    2.5669    2.0859 H   0  0  0  0  0  0  0  0  0  0  0  0
   -4.0409    0.9761    2.7554 H   0  0  0  0  0  0  0  0  0  0  0  0
   -2.6364    1.5218    0.0839 H   0  0  0  0  0  0  0  0  0  0  0  0
   -1.8028    1.0446    1.5772 H   0  0  0  0  0  0  0  0  0  0  0  0
   -0.6390   -2.2019    1.3270 H   0  0  0  0  0  0  0  0  0  0  0  0
    1.8149   -2.0822    1.6363 H   0  0  0  0  0  0  0  0  0  0  0  0
  1  2  2  0
  2  3  1  0
  3  4  2  0
  4  5  1  0
  5  6  2  0
  5  7  1  0
  7  8  1  0
  8  9  2  0
  9 10  1  0
 10 11  1  0
 11 12  1  0
 12 13  1  0
 13 14  1  0
 14 15  1  0
 15 16  1  0
 16 17  1  0
 10 18  2  0
 18 19  1  0
 19 20  2  0
  6  1  1  0
 20  8  1  0
 20  4  1  0
 17 12  1  0
  1 21  1  0
  2 22  1  0
  3 23  1  0
  6 24  1  0
  7 25  1  0
  7 26  1  0
  9 27  1  0
 11 28  1  0
 11 29  1  0
 13 30  1  0
 13 31  1  0
 14 32  1  0
 14 33  1  0
 16 34  1  0
 16 35  1  0
 17 36  1  0
 17 37  1  0
 18 38  1  0
 19 39  1  0
M  END
$$$$
