
     RDKit          3D

 44 46  0  0  0  0  0  0  0  0999 V2000
   -3.5517   -0.1660   -4.1527 C   0  0  0  0  0  0  0  0  0  0  0  0
   -3.4016   -0.7137   -2.7633 C   0  0  0  0  0  0  0  0  0  0  0  0
   -3.5904    0.1191   -1.6518 C   0  0  0  0  0  0  0  0  0  0  0  0
   -3.4183   -0.3766   -0.3589 C   0  0  0  0  0  0  0  0  0  0  0  0
   -3.0298   -1.7062   -0.1787 C   0  0  0  0  0  0  0  0  0  0  0  0
   -2.7932   -2.3436    1.4644 S   0  0  0  0  0  6  0  0  0  0  0  0
   -3.0515   -3.7680    1.4216 O   0  0  0  0  0  0  0  0  0  0  0  0
   -3.4980   -1.4829    2.3906 O   0  0  0  0  0  0  0  0  0  0  0  0
   -1.1257   -2.1766    1.6998 N   0  0  0  0  0  0  0  0  0  0  0  0
   -0.5329   -0.8944    1.5236 C   0  0  0  0  0  0  0  0  0  0  0  0
   -0.8170    0.1439    2.4107 C   0  0  0  0  0  0  0  0  0  0  0  0
   -0.2753    1.4243    2.2172 C   0  0  0  0  0  0  0  0  0  0  0  0
   -0.6138    2.5120    3.1960 C   0  0  0  0  0  0  0  0  0  0  0  0
    0.5616    1.6372    1.1094 C   0  0  0  0  0  0  0  0  0  0  0  0
    1.1128    2.8689    0.8667 O   0  0  0  0  0  0  0  0  0  0  0  0
    0.8520    0.5932    0.2123 C   0  0  0  0  0  0  0  0  0  0  0  0
    1.8913    0.8323   -1.2241 S   0  0  0  0  0  0  0  0  0  0  0  0
    3.4889    0.5959   -0.5597 C   0  0  0  0  0  0  0  0  0  0  0  0
    3.7437   -0.2070    0.4816 N   0  0  0  0  0  0  0  0  0  0  0  0
    5.0734   -0.0838    0.5984 N   0  0  0  0  0  0  0  0  0  0  0  0
    5.5864    0.7354   -0.3647 C   0  0  0  0  0  0  0  0  0  0  0  0
    7.0266    1.0390   -0.4827 C   0  0  0  0  0  0  0  0  0  0  0  0
    4.6018    1.1693   -1.1199 N   0  0  0  0  0  0  0  0  0  0  0  0
    0.2940   -0.6727    0.4255 C   0  0  0  0  0  0  0  0  0  0  0  0
   -2.8432   -2.5505   -1.2763 C   0  0  0  0  0  0  0  0  0  0  0  0
   -3.0201   -2.0482   -2.5664 C   0  0  0  0  0  0  0  0  0  0  0  0
   -2.5954    0.2364   -4.5009 H   0  0  0  0  0  0  0  0  0  0  0  0
   -3.8818   -0.9461   -4.8467 H   0  0  0  0  0  0  0  0  0  0  0  0
   -4.3025    0.6308   -4.1794 H   0  0  0  0  0  0  0  0  0  0  0  0
   -3.8736    1.1610   -1.7886 H   0  0  0  0  0  0  0  0  0  0  0  0
   -3.5745    0.2795    0.4944 H   0  0  0  0  0  0  0  0  0  0  0  0
   -0.6148   -2.9828    1.3431 H   0  0  0  0  0  0  0  0  0  0  0  0
   -1.4653   -0.0479    3.2643 H   0  0  0  0  0  0  0  0  0  0  0  0
    0.2936    2.8691    3.6934 H   0  0  0  0  0  0  0  0  0  0  0  0
   -1.1022    3.3461    2.6818 H   0  0  0  0  0  0  0  0  0  0  0  0
   -1.2997    2.1589    3.9734 H   0  0  0  0  0  0  0  0  0  0  0  0
    0.8970    3.4815    1.5847 H   0  0  0  0  0  0  0  0  0  0  0  0
    5.5563   -0.5818    1.3375 H   0  0  0  0  0  0  0  0  0  0  0  0
    7.3961    1.5191    0.4286 H   0  0  0  0  0  0  0  0  0  0  0  0
    7.6017    0.1235   -0.6519 H   0  0  0  0  0  0  0  0  0  0  0  0
    7.2102    1.7162   -1.3225 H   0  0  0  0  0  0  0  0  0  0  0  0
    0.5079   -1.4782   -0.2712 H   0  0  0  0  0  0  0  0  0  0  0  0
   -2.5609   -3.5915   -1.1387 H   0  0  0  0  0  0  0  0  0  0  0  0
   -2.8621   -2.7042   -3.4202 H   0  0  0  0  0  0  0  0  0  0  0  0
  1  2  1  0
  2  3  2  0
  3  4  1  0
  4  5  2  0
  5  6  1  0
  6  7  2  0
  6  8  2  0
  6  9  1  0
  9 10  1  0
 10 11  2  0
 11 12  1  0
 12 13  1  0
 12 14  2  0
 14 15  1  0
 14 16  1  0
 16 17  1  0
 17 18  1  0
 18 19  2  0
 19 20  1  0
 20 21  1  0
 21 22  1  0
 21 23  2  0
 16 24  2  0
  5 25  1  0
 25 26  2  0
 26  2  1  0
 24 10  1  0
 23 18  1  0
  1 27  1  0
  1 28  1  0
  1 29  1  0
  3 30  1  0
  4 31  1  0
  9 32  1  0
 11 33  1  0
 13 34  1  0
 13 35  1  0
 13 36  1  0
 15 37  1  0
 20 38  1  0
 22 39  1  0
 22 40  1  0
 22 41  1  0
 24 42  1  0
 25 43  1  0
 26 44  1  0
M  END
$$$$
