
     RDKit          3D

 34 35  0  0  0  0  0  0  0  0999 V2000
    2.6341    3.2530    1.8823 C   0  0  0  0  0  0  0  0  0  0  0  0
    2.1608    1.9604    1.2507 C   0  0  0  0  0  0  0  0  0  0  0  0
    0.9352    1.9429    0.8129 N   0  0  0  0  0  0  0  0  0  0  0  0
    0.4604    0.8438    0.1645 N   0  0  0  0  0  0  0  0  0  0  0  0
   -0.8552    0.8139   -0.2903 C   0  0  0  0  0  0  0  0  0  0  0  0
   -1.6438    1.7469   -0.1946 O   0  0  0  0  0  0  0  0  0  0  0  0
   -1.1652   -0.5036   -0.9694 C   0  0  0  0  0  0  0  0  0  0  0  0
   -2.6322   -0.7450   -1.3170 C   0  0  0  0  0  0  0  0  0  0  0  0
   -3.2501    0.3003   -2.2433 C   0  0  0  0  0  0  0  0  0  0  0  0
   -3.4083   -0.8729   -0.1144 O   0  0  0  0  0  0  0  0  0  0  0  0
   -4.2369   -2.0123   -0.3256 C   0  0  0  0  0  0  0  0  0  0  0  0
   -3.3643   -2.9092   -1.1564 C   0  0  0  0  0  0  0  0  0  0  0  0
   -2.6893   -2.0075   -2.0342 O   0  0  0  0  0  0  0  0  0  0  0  0
    3.1454    0.8909    1.1554 C   0  0  0  0  0  0  0  0  0  0  0  0
    4.4764    0.9965    0.7937 C   0  0  0  0  0  0  0  0  0  0  0  0
    5.1583   -0.2544    0.8430 C   0  0  0  0  0  0  0  0  0  0  0  0
    4.3335   -1.2731    1.2615 C   0  0  0  0  0  0  0  0  0  0  0  0
    2.7525   -0.7191    1.5960 S   0  0  0  0  0  0  0  0  0  0  0  0
    3.2173    3.8211    1.1516 H   0  0  0  0  0  0  0  0  0  0  0  0
    1.7788    3.8589    2.1961 H   0  0  0  0  0  0  0  0  0  0  0  0
    3.2561    3.0447    2.7577 H   0  0  0  0  0  0  0  0  0  0  0  0
    1.0572    0.0274    0.0791 H   0  0  0  0  0  0  0  0  0  0  0  0
   -0.5540   -0.5647   -1.8792 H   0  0  0  0  0  0  0  0  0  0  0  0
   -0.8238   -1.3090   -0.3049 H   0  0  0  0  0  0  0  0  0  0  0  0
   -3.4394    1.2500   -1.7369 H   0  0  0  0  0  0  0  0  0  0  0  0
   -2.6176    0.4747   -3.1200 H   0  0  0  0  0  0  0  0  0  0  0  0
   -4.2203   -0.0470   -2.6184 H   0  0  0  0  0  0  0  0  0  0  0  0
   -5.1317   -1.6948   -0.8717 H   0  0  0  0  0  0  0  0  0  0  0  0
   -4.5340   -2.4579    0.6268 H   0  0  0  0  0  0  0  0  0  0  0  0
   -2.6078   -3.4121   -0.5446 H   0  0  0  0  0  0  0  0  0  0  0  0
   -3.9239   -3.6561   -1.7247 H   0  0  0  0  0  0  0  0  0  0  0  0
    4.9437    1.9276    0.4938 H   0  0  0  0  0  0  0  0  0  0  0  0
    6.2022   -0.3976    0.5898 H   0  0  0  0  0  0  0  0  0  0  0  0
    4.5859   -2.3165    1.3961 H   0  0  0  0  0  0  0  0  0  0  0  0
  1  2  1  0
  2  3  2  3
  3  4  1  0
  4  5  1  0
  5  6  2  0
  5  7  1  0
  7  8  1  0
  8  9  1  0
  8 10  1  0
 10 11  1  0
 11 12  1  0
 12 13  1  0
  2 14  1  0
 14 15  2  0
 15 16  1  0
 16 17  2  0
 17 18  1  0
 13  8  1  0
 18 14  1  0
  1 19  1  0
  1 20  1  0
  1 21  1  0
  4 22  1  0
  7 23  1  0
  7 24  1  0
  9 25  1  0
  9 26  1  0
  9 27  1  0
 11 28  1  0
 11 29  1  0
 12 30  1  0
 12 31  1  0
 15 32  1  0
 16 33  1  0
 17 34  1  0
M  END
$$$$
