
     RDKit          3D

 57 60  0  0  0  0  0  0  0  0999 V2000
   -6.0887   -0.5554   -0.3401 C   0  0  0  0  0  0  0  0  0  0  0  0
   -5.2335   -1.6742    0.2554 C   0  0  0  0  0  0  0  0  0  0  0  0
   -6.0655   -2.9549    0.3784 C   0  0  0  0  0  0  0  0  0  0  0  0
   -3.9968   -1.9137   -0.6210 C   0  0  0  0  0  0  0  0  0  0  0  0
   -3.9784   -2.8418   -1.4361 O   0  0  0  0  0  0  0  0  0  0  0  0
   -2.9319   -1.0282   -0.5131 N   0  0  0  0  0  0  0  0  0  0  0  0
   -2.7927    0.0262    0.5056 C   0  0  0  0  0  0  0  0  0  0  0  0
   -1.3379    0.4897    0.7157 C   0  0  0  0  0  0  0  0  0  0  0  0
   -0.6552    0.8610   -0.5470 N   0  0  0  0  0  0  0  0  0  0  0  0
   -0.5052    2.2666   -0.6836 C   0  0  0  0  0  0  0  0  0  0  0  0
   -1.5639    3.1073   -1.0594 C   0  0  0  0  0  0  0  0  0  0  0  0
   -1.3761    4.4876   -1.1555 C   0  0  0  0  0  0  0  0  0  0  0  0
   -0.1313    5.0444   -0.8684 C   0  0  0  0  0  0  0  0  0  0  0  0
    0.9329    4.2271   -0.4808 C   0  0  0  0  0  0  0  0  0  0  0  0
    0.7540    2.8468   -0.3837 C   0  0  0  0  0  0  0  0  0  0  0  0
    1.7713    1.9424   -0.0093 N   0  0  0  0  0  0  0  0  0  0  0  0
    3.0547    2.2206    0.4048 C   0  0  0  0  0  0  0  0  0  0  0  0
    3.5319    3.3350    0.5893 O   0  0  0  0  0  0  0  0  0  0  0  0
    3.9027    1.0263    0.6989 C   0  0  0  0  0  0  0  0  0  0  0  0
    4.9327    1.1586    1.6417 C   0  0  0  0  0  0  0  0  0  0  0  0
    5.7482    0.0684    1.9574 C   0  0  0  0  0  0  0  0  0  0  0  0
    5.5471   -1.1538    1.3210 C   0  0  0  0  0  0  0  0  0  0  0  0
    4.5203   -1.2933    0.3812 C   0  0  0  0  0  0  0  0  0  0  0  0
    3.7112   -0.2038    0.0535 C   0  0  0  0  0  0  0  0  0  0  0  0
    4.2527   -2.4722   -0.2690 O   0  0  0  0  0  0  0  0  0  0  0  0
    4.8913   -3.5823    0.3736 C   0  0  0  0  0  0  0  0  0  0  0  0
    6.3335   -3.2490    0.7219 C   0  0  0  0  0  0  0  0  0  0  0  0
    6.3940   -2.1753    1.6668 O   0  0  0  0  0  0  0  0  0  0  0  0
   -1.1534    0.1832   -1.7695 C   0  0  0  0  0  0  0  0  0  0  0  0
   -1.7981   -1.1743   -1.4384 C   0  0  0  0  0  0  0  0  0  0  0  0
   -6.4602   -0.8337   -1.3326 H   0  0  0  0  0  0  0  0  0  0  0  0
   -6.9540   -0.3447    0.3020 H   0  0  0  0  0  0  0  0  0  0  0  0
   -5.5222    0.3748   -0.4602 H   0  0  0  0  0  0  0  0  0  0  0  0
   -4.9217   -1.4052    1.2678 H   0  0  0  0  0  0  0  0  0  0  0  0
   -6.9111   -2.8021    1.0595 H   0  0  0  0  0  0  0  0  0  0  0  0
   -6.4629   -3.2760   -0.5909 H   0  0  0  0  0  0  0  0  0  0  0  0
   -5.4569   -3.7763    0.7747 H   0  0  0  0  0  0  0  0  0  0  0  0
   -3.1837   -0.3316    1.4622 H   0  0  0  0  0  0  0  0  0  0  0  0
   -3.4090    0.8719    0.1813 H   0  0  0  0  0  0  0  0  0  0  0  0
   -1.3085    1.3014    1.4561 H   0  0  0  0  0  0  0  0  0  0  0  0
   -0.7668   -0.3417    1.1523 H   0  0  0  0  0  0  0  0  0  0  0  0
   -2.5482    2.7014   -1.2751 H   0  0  0  0  0  0  0  0  0  0  0  0
   -2.2017    5.1298   -1.4527 H   0  0  0  0  0  0  0  0  0  0  0  0
    0.0173    6.1194   -0.9460 H   0  0  0  0  0  0  0  0  0  0  0  0
    1.8906    4.6924   -0.2678 H   0  0  0  0  0  0  0  0  0  0  0  0
    1.4344    0.9839   -0.0137 H   0  0  0  0  0  0  0  0  0  0  0  0
    5.1034    2.1133    2.1344 H   0  0  0  0  0  0  0  0  0  0  0  0
    6.5412    0.1768    2.6938 H   0  0  0  0  0  0  0  0  0  0  0  0
    2.9496   -0.3318   -0.7088 H   0  0  0  0  0  0  0  0  0  0  0  0
    4.8595   -4.4294   -0.3201 H   0  0  0  0  0  0  0  0  0  0  0  0
    4.3105   -3.8515    1.2668 H   0  0  0  0  0  0  0  0  0  0  0  0
    6.8236   -4.1178    1.1747 H   0  0  0  0  0  0  0  0  0  0  0  0
    6.9041   -2.9618   -0.1700 H   0  0  0  0  0  0  0  0  0  0  0  0
   -0.3070    0.0267   -2.4514 H   0  0  0  0  0  0  0  0  0  0  0  0
   -1.8977    0.7902   -2.3017 H   0  0  0  0  0  0  0  0  0  0  0  0
   -1.0704   -1.8372   -0.9534 H   0  0  0  0  0  0  0  0  0  0  0  0
   -2.1218   -1.6603   -2.3648 H   0  0  0  0  0  0  0  0  0  0  0  0
  1  2  1  0
  2  3  1  0
  2  4  1  0
  4  5  2  0
  4  6  1  0
  6  7  1  0
  7  8  1  0
  8  9  1  0
  9 10  1  0
 10 11  2  0
 11 12  1  0
 12 13  2  0
 13 14  1  0
 14 15  2  0
 15 16  1  0
 16 17  1  0
 17 18  2  0
 17 19  1  0
 19 20  2  0
 20 21  1  0
 21 22  2  0
 22 23  1  0
 23 24  2  0
 23 25  1  0
 25 26  1  0
 26 27  1  0
 27 28  1  0
  9 29  1  0
 29 30  1  0
 30  6  1  0
 15 10  1  0
 24 19  1  0
 28 22  1  0
  1 31  1  0
  1 32  1  0
  1 33  1  0
  2 34  1  0
  3 35  1  0
  3 36  1  0
  3 37  1  0
  7 38  1  0
  7 39  1  0
  8 40  1  0
  8 41  1  0
 11 42  1  0
 12 43  1  0
 13 44  1  0
 14 45  1  0
 16 46  1  0
 20 47  1  0
 21 48  1  0
 24 49  1  0
 26 50  1  0
 26 51  1  0
 27 52  1  0
 27 53  1  0
 29 54  1  0
 29 55  1  0
 30 56  1  0
 30 57  1  0
M  END
$$$$
