
     RDKit          3D

 45 48  0  0  0  0  0  0  0  0999 V2000
    0.1771    1.7477    3.2235 C   0  0  0  0  0  0  0  0  0  0  0  0
    0.8235    0.4619    2.7324 C   0  0  0  0  0  0  0  0  0  0  0  0
    1.6293    0.7871    1.5934 O   0  0  0  0  0  0  0  0  0  0  0  0
    2.4637   -0.2545    1.2692 C   0  0  0  0  0  0  0  0  0  0  0  0
    3.7586   -0.1858    1.8021 C   0  0  0  0  0  0  0  0  0  0  0  0
    4.6876   -1.1830    1.5211 C   0  0  0  0  0  0  0  0  0  0  0  0
    4.3287   -2.2433    0.6968 C   0  0  0  0  0  0  0  0  0  0  0  0
    3.0437   -2.2970    0.1468 C   0  0  0  0  0  0  0  0  0  0  0  0
    2.0754   -1.2979    0.4049 C   0  0  0  0  0  0  0  0  0  0  0  0
    0.7477   -1.3841   -0.2345 C   0  0  0  0  0  0  0  0  0  0  0  0
    0.2895   -2.6239   -0.5369 N   0  0  0  0  0  0  0  0  0  0  0  0
   -0.9238   -2.6900   -1.1413 C   0  0  0  0  0  0  0  0  0  0  0  0
   -1.4366   -4.0476   -1.4778 C   0  0  0  0  0  0  0  0  0  0  0  0
   -0.6263   -5.0918   -1.1231 N   0  0  0  0  0  0  0  0  0  0  0  0
   -2.5130   -4.2256   -2.0332 O   0  0  0  0  0  0  0  0  0  0  0  0
   -1.6507   -1.5734   -1.4269 C   0  0  0  0  0  0  0  0  0  0  0  0
   -2.8929   -1.3843   -2.0083 N   0  0  0  0  0  0  0  0  0  0  0  0
   -3.1664   -0.0098   -2.0433 C   0  0  0  0  0  0  0  0  0  0  0  0
   -4.2016    0.4469   -2.4991 O   0  0  0  0  0  0  0  0  0  0  0  0
   -2.0341    0.6459   -1.4669 N   0  0  0  0  0  0  0  0  0  0  0  0
   -1.8524    2.0456   -1.2867 C   0  0  0  0  0  0  0  0  0  0  0  0
   -0.6759    2.6057   -0.7625 C   0  0  0  0  0  0  0  0  0  0  0  0
   -0.5263    3.9891   -0.5909 C   0  0  0  0  0  0  0  0  0  0  0  0
   -1.5509    4.8536   -0.9464 C   0  0  0  0  0  0  0  0  0  0  0  0
   -2.7249    4.3325   -1.4731 C   0  0  0  0  0  0  0  0  0  0  0  0
   -2.8708    2.9483   -1.6384 C   0  0  0  0  0  0  0  0  0  0  0  0
   -1.1068   -0.3598   -1.0874 C   0  0  0  0  0  0  0  0  0  0  0  0
    0.0843   -0.2401   -0.4959 N   0  0  0  0  0  0  0  0  0  0  0  0
    0.9405    2.4888    3.4853 H   0  0  0  0  0  0  0  0  0  0  0  0
   -0.4462    1.5593    4.1018 H   0  0  0  0  0  0  0  0  0  0  0  0
   -0.4443    2.1901    2.4388 H   0  0  0  0  0  0  0  0  0  0  0  0
    1.4339    0.0314    3.5397 H   0  0  0  0  0  0  0  0  0  0  0  0
    0.0428   -0.2551    2.4505 H   0  0  0  0  0  0  0  0  0  0  0  0
    4.0372    0.6518    2.4371 H   0  0  0  0  0  0  0  0  0  0  0  0
    5.6895   -1.1280    1.9380 H   0  0  0  0  0  0  0  0  0  0  0  0
    5.0504   -3.0226    0.4656 H   0  0  0  0  0  0  0  0  0  0  0  0
    2.8041   -3.1294   -0.5146 H   0  0  0  0  0  0  0  0  0  0  0  0
   -0.9535   -6.0365   -1.2646 H   0  0  0  0  0  0  0  0  0  0  0  0
    0.2172   -4.9242   -0.5849 H   0  0  0  0  0  0  0  0  0  0  0  0
   -3.5097   -2.1124   -2.3438 H   0  0  0  0  0  0  0  0  0  0  0  0
    0.1736    2.0019   -0.4696 H   0  0  0  0  0  0  0  0  0  0  0  0
    0.4008    4.3807   -0.1790 H   0  0  0  0  0  0  0  0  0  0  0  0
   -1.4361    5.9266   -0.8148 H   0  0  0  0  0  0  0  0  0  0  0  0
   -3.5391    4.9953   -1.7540 H   0  0  0  0  0  0  0  0  0  0  0  0
   -3.8169    2.6097   -2.0495 H   0  0  0  0  0  0  0  0  0  0  0  0
  1  2  1  0
  2  3  1  0
  3  4  1  0
  4  5  2  0
  5  6  1  0
  6  7  2  0
  7  8  1  0
  8  9  2  0
  9 10  1  0
 10 11  2  0
 11 12  1  0
 12 13  1  0
 13 14  1  0
 13 15  2  0
 12 16  2  0
 16 17  1  0
 17 18  1  0
 18 19  2  0
 18 20  1  0
 20 21  1  0
 21 22  2  0
 22 23  1  0
 23 24  2  0
 24 25  1  0
 25 26  2  0
 20 27  1  0
 27 28  2  0
  9  4  1  0
 28 10  1  0
 27 16  1  0
 26 21  1  0
  1 29  1  0
  1 30  1  0
  1 31  1  0
  2 32  1  0
  2 33  1  0
  5 34  1  0
  6 35  1  0
  7 36  1  0
  8 37  1  0
 14 38  1  0
 14 39  1  0
 17 40  1  0
 22 41  1  0
 23 42  1  0
 24 43  1  0
 25 44  1  0
 26 45  1  0
M  END
$$$$
