
     RDKit          3D

 43 45  0  0  0  0  0  0  0  0999 V2000
   -1.0869    3.0353    2.5925 C   0  0  0  0  0  0  0  0  0  0  0  0
   -2.0897    2.2970    1.7555 C   0  0  0  0  0  0  0  0  0  0  0  0
   -2.7752    1.3690    2.1654 O   0  0  0  0  0  0  0  0  0  0  0  0
   -2.1140    2.8644    0.4867 O   0  0  0  0  0  0  0  0  0  0  0  0
   -2.9546    2.1902   -0.4066 C   0  0  0  0  0  0  0  0  0  0  0  0
   -4.1964    2.7630   -0.6855 C   0  0  0  0  0  0  0  0  0  0  0  0
   -5.0428    2.1451   -1.6057 C   0  0  0  0  0  0  0  0  0  0  0  0
   -4.6384    0.9752   -2.2518 C   0  0  0  0  0  0  0  0  0  0  0  0
   -3.3833    0.4196   -1.9836 C   0  0  0  0  0  0  0  0  0  0  0  0
   -2.5238    1.0267   -1.0604 C   0  0  0  0  0  0  0  0  0  0  0  0
   -1.2074    0.4421   -0.8005 C   0  0  0  0  0  0  0  0  0  0  0  0
   -0.1577    0.6646   -1.6070 C   0  0  0  0  0  0  0  0  0  0  0  0
    1.1831    0.1181   -1.3566 C   0  0  0  0  0  0  0  0  0  0  0  0
    2.2089    0.3366   -2.2645 C   0  0  0  0  0  0  0  0  0  0  0  0
    3.4657   -0.1949   -1.9897 C   0  0  0  0  0  0  0  0  0  0  0  0
    3.6704   -0.9370   -0.8198 C   0  0  0  0  0  0  0  0  0  0  0  0
    4.9291   -1.4868   -0.5055 C   0  0  0  0  0  0  0  0  0  0  0  0
    5.1169   -2.2114    0.6722 C   0  0  0  0  0  0  0  0  0  0  0  0
    4.0493   -2.3985    1.5412 C   0  0  0  0  0  0  0  0  0  0  0  0
    2.8018   -1.8653    1.2074 C   0  0  0  0  0  0  0  0  0  0  0  0
    1.7518   -2.0487    2.1198 O   0  0  0  0  0  0  0  0  0  0  0  0
    0.8579   -3.0198    1.6848 C   0  0  0  0  0  0  0  0  0  0  0  0
   -0.3644   -2.9743    2.5533 C   0  0  0  0  0  0  0  0  0  0  0  0
    1.0298   -3.8286    0.7811 O   0  0  0  0  0  0  0  0  0  0  0  0
    2.5755   -1.1159    0.0483 C   0  0  0  0  0  0  0  0  0  0  0  0
    1.3606   -0.5844   -0.2149 N   0  0  0  0  0  0  0  0  0  0  0  0
   -0.9424    2.5025    3.5378 H   0  0  0  0  0  0  0  0  0  0  0  0
   -0.1253    3.0732    2.0739 H   0  0  0  0  0  0  0  0  0  0  0  0
   -1.4516    4.0431    2.8051 H   0  0  0  0  0  0  0  0  0  0  0  0
   -4.5049    3.6773   -0.1869 H   0  0  0  0  0  0  0  0  0  0  0  0
   -6.0176    2.5751   -1.8215 H   0  0  0  0  0  0  0  0  0  0  0  0
   -5.3007    0.4934   -2.9675 H   0  0  0  0  0  0  0  0  0  0  0  0
   -3.0837   -0.4947   -2.4931 H   0  0  0  0  0  0  0  0  0  0  0  0
   -1.1281   -0.1680    0.0965 H   0  0  0  0  0  0  0  0  0  0  0  0
   -0.2724    1.2806   -2.4941 H   0  0  0  0  0  0  0  0  0  0  0  0
    2.0471    0.9100   -3.1721 H   0  0  0  0  0  0  0  0  0  0  0  0
    4.2791   -0.0277   -2.6919 H   0  0  0  0  0  0  0  0  0  0  0  0
    5.7728   -1.3491   -1.1799 H   0  0  0  0  0  0  0  0  0  0  0  0
    6.0928   -2.6286    0.9067 H   0  0  0  0  0  0  0  0  0  0  0  0
    4.1784   -2.9588    2.4610 H   0  0  0  0  0  0  0  0  0  0  0  0
   -1.1088   -3.6770    2.1682 H   0  0  0  0  0  0  0  0  0  0  0  0
   -0.1034   -3.2621    3.5744 H   0  0  0  0  0  0  0  0  0  0  0  0
   -0.7975   -1.9703    2.5347 H   0  0  0  0  0  0  0  0  0  0  0  0
  1  2  1  0
  2  3  2  0
  2  4  1  0
  4  5  1  0
  5  6  2  0
  6  7  1  0
  7  8  2  0
  8  9  1  0
  9 10  2  0
 10 11  1  0
 11 12  2  0
 12 13  1  0
 13 14  2  0
 14 15  1  0
 15 16  2  0
 16 17  1  0
 17 18  2  0
 18 19  1  0
 19 20  2  0
 20 21  1  0
 21 22  1  0
 22 23  1  0
 22 24  2  0
 20 25  1  0
 25 26  2  0
 10  5  1  0
 26 13  1  0
 25 16  1  0
  1 27  1  0
  1 28  1  0
  1 29  1  0
  6 30  1  0
  7 31  1  0
  8 32  1  0
  9 33  1  0
 11 34  1  0
 12 35  1  0
 14 36  1  0
 15 37  1  0
 17 38  1  0
 18 39  1  0
 19 40  1  0
 23 41  1  0
 23 42  1  0
 23 43  1  0
M  END
$$$$
