
     RDKit          3D

 28 29  0  0  0  0  0  0  0  0999 V2000
    4.6546   -1.5232    1.2996 C   0  0  0  0  0  0  0  0  0  0  0  0
    4.1299   -0.1112    1.4806 C   0  0  0  0  0  0  0  0  0  0  0  0
    2.8229    0.0094    0.9008 O   0  0  0  0  0  0  0  0  0  0  0  0
    2.7941    0.3155   -0.4283 C   0  0  0  0  0  0  0  0  0  0  0  0
    3.7782    0.4835   -1.1348 O   0  0  0  0  0  0  0  0  0  0  0  0
    1.4227    0.4058   -0.8675 C   0  0  0  0  0  0  0  0  0  0  0  0
    0.9363    0.6931   -2.1318 C   0  0  0  0  0  0  0  0  0  0  0  0
   -0.4796    0.6682   -2.0751 C   0  0  0  0  0  0  0  0  0  0  0  0
   -0.8379    0.3660   -0.7776 C   0  0  0  0  0  0  0  0  0  0  0  0
   -2.1229    0.2155   -0.1725 C   0  0  0  0  0  0  0  0  0  0  0  0
   -3.3767    0.3341   -0.7331 C   0  0  0  0  0  0  0  0  0  0  0  0
   -4.2796    0.0829    0.3230 C   0  0  0  0  0  0  0  0  0  0  0  0
   -5.7585    0.0779    0.2901 C   0  0  0  0  0  0  0  0  0  0  0  0
   -3.6301   -0.1743    1.4625 N   0  0  0  0  0  0  0  0  0  0  0  0
   -2.2863   -0.0913    1.1524 O   0  0  0  0  0  0  0  0  0  0  0  0
    0.3226    0.2105   -0.0607 N   0  0  0  0  0  0  0  0  0  0  0  0
    4.7675   -1.7678    0.2388 H   0  0  0  0  0  0  0  0  0  0  0  0
    5.6246   -1.6423    1.7905 H   0  0  0  0  0  0  0  0  0  0  0  0
    3.9533   -2.2507    1.7213 H   0  0  0  0  0  0  0  0  0  0  0  0
    4.0267    0.1082    2.5484 H   0  0  0  0  0  0  0  0  0  0  0  0
    4.8216    0.6312    1.0661 H   0  0  0  0  0  0  0  0  0  0  0  0
    1.5481    0.8987   -3.0024 H   0  0  0  0  0  0  0  0  0  0  0  0
   -1.1565    0.8525   -2.8995 H   0  0  0  0  0  0  0  0  0  0  0  0
   -3.6069    0.5691   -1.7610 H   0  0  0  0  0  0  0  0  0  0  0  0
   -6.1318    0.3060   -0.7134 H   0  0  0  0  0  0  0  0  0  0  0  0
   -6.1616    0.8272    0.9789 H   0  0  0  0  0  0  0  0  0  0  0  0
   -6.1468   -0.9039    0.5798 H   0  0  0  0  0  0  0  0  0  0  0  0
    0.3722   -0.0166    0.9250 H   0  0  0  0  0  0  0  0  0  0  0  0
  1  2  1  0
  2  3  1  0
  3  4  1  0
  4  5  2  0
  4  6  1  0
  6  7  2  0
  7  8  1  0
  8  9  2  0
  9 10  1  0
 10 11  2  0
 11 12  1  0
 12 13  1  0
 12 14  2  0
 14 15  1  0
  9 16  1  0
 16  6  1  0
 15 10  1  0
  1 17  1  0
  1 18  1  0
  1 19  1  0
  2 20  1  0
  2 21  1  0
  7 22  1  0
  8 23  1  0
 11 24  1  0
 13 25  1  0
 13 26  1  0
 13 27  1  0
 16 28  1  0
M  END
$$$$
