
     RDKit          3D

 42 43  0  0  0  0  0  0  0  0999 V2000
   -5.5082    1.9566    1.0187 C   0  0  0  0  0  0  0  0  0  0  0  0
   -4.4573    0.8944    0.9569 C   0  0  0  0  0  0  0  0  0  0  0  0
   -4.0433    0.1958   -0.1206 C   0  0  0  0  0  0  0  0  0  0  0  0
   -4.6261    0.3273   -1.5034 C   0  0  0  0  0  0  0  0  0  0  0  0
   -2.9371   -0.8386    0.0082 C   0  0  0  0  0  0  0  0  0  0  0  0
   -1.7720   -0.5440   -0.8364 N   0  0  0  0  0  0  0  0  0  0  0  0
   -0.8211   -1.6766   -0.8629 C   0  0  0  0  0  0  0  0  0  0  0  0
    0.3747   -1.5784    0.1137 C   0  0  0  0  0  0  0  0  0  0  0  0
    1.1350   -0.3363   -0.0983 N   0  0  0  0  0  0  0  0  0  0  0  0
    2.4897   -0.2626    0.1789 C   0  0  0  0  0  0  0  0  0  0  0  0
    3.3235    0.6919   -0.4238 C   0  0  0  0  0  0  0  0  0  0  0  0
    4.6947    0.7703   -0.1413 C   0  0  0  0  0  0  0  0  0  0  0  0
    5.2809   -0.1032    0.7739 C   0  0  0  0  0  0  0  0  0  0  0  0
    6.7516   -0.0454    1.0548 C   0  0  0  0  0  0  0  0  0  0  0  0
    4.4765   -1.0681    1.3785 C   0  0  0  0  0  0  0  0  0  0  0  0
    3.1069   -1.1378    1.0866 C   0  0  0  0  0  0  0  0  0  0  0  0
    0.4106    0.7683   -0.7474 C   0  0  0  0  0  0  0  0  0  0  0  0
   -1.0958    0.7028   -0.4033 C   0  0  0  0  0  0  0  0  0  0  0  0
   -5.1006    2.8423    1.5170 H   0  0  0  0  0  0  0  0  0  0  0  0
   -6.3616    1.6007    1.6039 H   0  0  0  0  0  0  0  0  0  0  0  0
   -5.8693    2.2747    0.0391 H   0  0  0  0  0  0  0  0  0  0  0  0
   -3.9758    0.7001    1.9150 H   0  0  0  0  0  0  0  0  0  0  0  0
   -5.5590    0.8949   -1.5259 H   0  0  0  0  0  0  0  0  0  0  0  0
   -4.8552   -0.6629   -1.9123 H   0  0  0  0  0  0  0  0  0  0  0  0
   -3.9159    0.8214   -2.1739 H   0  0  0  0  0  0  0  0  0  0  0  0
   -2.6301   -0.9649    1.0552 H   0  0  0  0  0  0  0  0  0  0  0  0
   -3.3740   -1.8002   -0.2941 H   0  0  0  0  0  0  0  0  0  0  0  0
   -0.4168   -1.7223   -1.8832 H   0  0  0  0  0  0  0  0  0  0  0  0
   -1.3357   -2.6342   -0.7152 H   0  0  0  0  0  0  0  0  0  0  0  0
    0.0157   -1.6145    1.1491 H   0  0  0  0  0  0  0  0  0  0  0  0
    1.0069   -2.4578   -0.0595 H   0  0  0  0  0  0  0  0  0  0  0  0
    2.9255    1.3887   -1.1557 H   0  0  0  0  0  0  0  0  0  0  0  0
    5.2960    1.5209   -0.6487 H   0  0  0  0  0  0  0  0  0  0  0  0
    7.2923   -0.6894    0.3545 H   0  0  0  0  0  0  0  0  0  0  0  0
    6.9674   -0.3742    2.0769 H   0  0  0  0  0  0  0  0  0  0  0  0
    7.1281    0.9783    0.9572 H   0  0  0  0  0  0  0  0  0  0  0  0
    4.9018   -1.7733    2.0884 H   0  0  0  0  0  0  0  0  0  0  0  0
    2.5226   -1.8893    1.6099 H   0  0  0  0  0  0  0  0  0  0  0  0
    0.5540    0.7216   -1.8338 H   0  0  0  0  0  0  0  0  0  0  0  0
    0.7830    1.7374   -0.3941 H   0  0  0  0  0  0  0  0  0  0  0  0
   -1.5985    1.5580   -0.8696 H   0  0  0  0  0  0  0  0  0  0  0  0
   -1.1837    0.8272    0.6852 H   0  0  0  0  0  0  0  0  0  0  0  0
  1  2  1  0
  2  3  2  3
  3  4  1  0
  3  5  1  0
  5  6  1  0
  6  7  1  0
  7  8  1  0
  8  9  1  0
  9 10  1  0
 10 11  2  0
 11 12  1  0
 12 13  2  0
 13 14  1  0
 13 15  1  0
 15 16  2  0
  9 17  1  0
 17 18  1  0
 18  6  1  0
 16 10  1  0
  1 19  1  0
  1 20  1  0
  1 21  1  0
  2 22  1  0
  4 23  1  0
  4 24  1  0
  4 25  1  0
  5 26  1  0
  5 27  1  0
  7 28  1  0
  7 29  1  0
  8 30  1  0
  8 31  1  0
 11 32  1  0
 12 33  1  0
 14 34  1  0
 14 35  1  0
 14 36  1  0
 15 37  1  0
 16 38  1  0
 17 39  1  0
 17 40  1  0
 18 41  1  0
 18 42  1  0
M  END
$$$$
