
     RDKit          3D

 46 48  0  0  0  0  0  0  0  0999 V2000
   -6.7258    1.8545    1.7497 C   0  0  0  0  0  0  0  0  0  0  0  0
   -5.7989    1.0190    2.4306 O   0  0  0  0  0  0  0  0  0  0  0  0
   -4.9917    0.2247    1.6623 C   0  0  0  0  0  0  0  0  0  0  0  0
   -4.0769   -0.5395    2.3865 C   0  0  0  0  0  0  0  0  0  0  0  0
   -3.1929   -1.3963    1.7314 C   0  0  0  0  0  0  0  0  0  0  0  0
   -3.2082   -1.4932    0.3347 C   0  0  0  0  0  0  0  0  0  0  0  0
   -2.2845   -2.4171   -0.3433 C   0  0  0  0  0  0  0  0  0  0  0  0
   -0.9477   -2.3311   -0.3645 C   0  0  0  0  0  0  0  0  0  0  0  0
    0.0541   -1.1313    0.3816 S   0  0  0  0  0  0  0  0  0  0  0  0
    1.4929   -1.8758   -0.2339 C   0  0  0  0  0  0  0  0  0  0  0  0
    2.7522   -1.4577   -0.0652 C   0  0  0  0  0  0  0  0  0  0  0  0
    3.1551   -0.2899    0.7619 C   0  0  0  0  0  0  0  0  0  0  0  0
    2.6380   -0.0516    1.8464 O   0  0  0  0  0  0  0  0  0  0  0  0
    4.2911    0.5383    0.2701 C   0  0  0  0  0  0  0  0  0  0  0  0
    4.6413    0.6030   -1.0843 C   0  0  0  0  0  0  0  0  0  0  0  0
    5.7156    1.3994   -1.4937 C   0  0  0  0  0  0  0  0  0  0  0  0
    6.4398    2.1525   -0.5617 C   0  0  0  0  0  0  0  0  0  0  0  0
    7.6112    2.9825   -0.9985 C   0  0  0  0  0  0  0  0  0  0  0  0
    6.0868    2.0855    0.7907 C   0  0  0  0  0  0  0  0  0  0  0  0
    5.0137    1.2918    1.2029 C   0  0  0  0  0  0  0  0  0  0  0  0
    1.1965   -2.9774   -0.9857 N   0  0  0  0  0  0  0  0  0  0  0  0
   -0.1264   -3.3190   -1.1132 C   0  0  0  0  0  0  0  0  0  0  0  0
   -0.5383   -4.2798   -1.7419 O   0  0  0  0  0  0  0  0  0  0  0  0
   -4.1369   -0.7326   -0.4034 C   0  0  0  0  0  0  0  0  0  0  0  0
   -4.0994   -0.8994   -1.7669 O   0  0  0  0  0  0  0  0  0  0  0  0
   -4.9793   -0.1094   -2.5543 C   0  0  0  0  0  0  0  0  0  0  0  0
   -5.0220    0.1243    0.2681 C   0  0  0  0  0  0  0  0  0  0  0  0
   -6.2109    2.5638    1.0934 H   0  0  0  0  0  0  0  0  0  0  0  0
   -7.4576    1.2595    1.1935 H   0  0  0  0  0  0  0  0  0  0  0  0
   -7.2705    2.4327    2.5023 H   0  0  0  0  0  0  0  0  0  0  0  0
   -4.0508   -0.4672    3.4711 H   0  0  0  0  0  0  0  0  0  0  0  0
   -2.4935   -1.9844    2.3212 H   0  0  0  0  0  0  0  0  0  0  0  0
   -2.7792   -3.2103   -0.9018 H   0  0  0  0  0  0  0  0  0  0  0  0
    3.5710   -1.9870   -0.5399 H   0  0  0  0  0  0  0  0  0  0  0  0
    4.0834    0.0604   -1.8420 H   0  0  0  0  0  0  0  0  0  0  0  0
    5.9787    1.4369   -2.5491 H   0  0  0  0  0  0  0  0  0  0  0  0
    8.5306    2.3921   -0.9386 H   0  0  0  0  0  0  0  0  0  0  0  0
    7.4815    3.3315   -2.0284 H   0  0  0  0  0  0  0  0  0  0  0  0
    7.7174    3.8702   -0.3661 H   0  0  0  0  0  0  0  0  0  0  0  0
    6.6408    2.6556    1.5338 H   0  0  0  0  0  0  0  0  0  0  0  0
    4.7453    1.2618    2.2577 H   0  0  0  0  0  0  0  0  0  0  0  0
    1.8915   -3.5581   -1.4312 H   0  0  0  0  0  0  0  0  0  0  0  0
   -4.7950   -0.3513   -3.6055 H   0  0  0  0  0  0  0  0  0  0  0  0
   -6.0253   -0.3493   -2.3372 H   0  0  0  0  0  0  0  0  0  0  0  0
   -4.7802    0.9588   -2.4196 H   0  0  0  0  0  0  0  0  0  0  0  0
   -5.7366    0.7099   -0.2940 H   0  0  0  0  0  0  0  0  0  0  0  0
  1  2  1  0
  2  3  1  0
  3  4  2  0
  4  5  1  0
  5  6  2  0
  6  7  1  0
  7  8  2  3
  8  9  1  0
  9 10  1  0
 10 11  2  3
 11 12  1  0
 12 13  2  0
 12 14  1  0
 14 15  2  0
 15 16  1  0
 16 17  2  0
 17 18  1  0
 17 19  1  0
 19 20  2  0
 10 21  1  0
 21 22  1  0
 22 23  2  0
  6 24  1  0
 24 25  1  0
 25 26  1  0
 24 27  2  0
 27  3  1  0
 22  8  1  0
 20 14  1  0
  1 28  1  0
  1 29  1  0
  1 30  1  0
  4 31  1  0
  5 32  1  0
  7 33  1  0
 11 34  1  0
 15 35  1  0
 16 36  1  0
 18 37  1  0
 18 38  1  0
 18 39  1  0
 19 40  1  0
 20 41  1  0
 21 42  1  0
 26 43  1  0
 26 44  1  0
 26 45  1  0
 27 46  1  0
M  END
$$$$
