
     RDKit          3D

 56 58  0  0  0  0  0  0  0  0999 V2000
    8.2041   -2.0447    1.7392 C   0  0  0  0  0  0  0  0  0  0  0  0
    8.2175   -1.7466    0.3490 O   0  0  0  0  0  0  0  0  0  0  0  0
    7.2904   -0.8460   -0.0980 C   0  0  0  0  0  0  0  0  0  0  0  0
    7.3470   -0.5814   -1.4682 C   0  0  0  0  0  0  0  0  0  0  0  0
    6.4580    0.3197   -2.0596 C   0  0  0  0  0  0  0  0  0  0  0  0
    5.4991    0.9787   -1.2818 C   0  0  0  0  0  0  0  0  0  0  0  0
    4.5203    1.9350   -1.9107 C   0  0  0  0  0  0  0  0  0  0  0  0
    3.3056    1.2582   -2.2810 N   0  0  0  0  0  0  0  0  0  0  0  0
    2.2031    1.2201   -1.4617 C   0  0  0  0  0  0  0  0  0  0  0  0
    2.0557    1.8308   -0.4122 O   0  0  0  0  0  0  0  0  0  0  0  0
    1.0853    0.2859   -1.9805 C   0  0  0  0  0  0  0  0  0  0  0  0
    1.2459   -0.3505   -3.0124 O   0  0  0  0  0  0  0  0  0  0  0  0
   -0.0354    0.2760   -1.1876 N   0  0  0  0  0  0  0  0  0  0  0  0
   -1.2671   -0.3820   -1.5946 C   0  0  0  0  0  0  0  0  0  0  0  0
   -2.2285   -0.6534   -0.4172 C   0  0  0  0  0  0  0  0  0  0  0  0
   -1.7264   -1.7362    0.3947 O   0  0  0  0  0  0  0  0  0  0  0  0
   -1.1990   -1.1550    1.5928 C   0  0  0  0  0  0  0  0  0  0  0  0
   -2.0710    0.0571    1.8342 C   0  0  0  0  0  0  0  0  0  0  0  0
   -2.3265    0.5167    0.4706 N   0  0  0  0  0  0  0  0  0  0  0  0
   -3.5137    1.6563    0.1724 S   0  0  0  0  0  6  0  0  0  0  0  0
   -3.3330    2.7312    1.1246 O   0  0  0  0  0  0  0  0  0  0  0  0
   -3.5219    1.9132   -1.2520 O   0  0  0  0  0  0  0  0  0  0  0  0
   -5.0404    0.8360    0.5775 C   0  0  0  0  0  0  0  0  0  0  0  0
   -5.7626    0.1775   -0.4213 C   0  0  0  0  0  0  0  0  0  0  0  0
   -6.9751   -0.4373   -0.1040 C   0  0  0  0  0  0  0  0  0  0  0  0
   -7.4864   -0.3706    1.1992 C   0  0  0  0  0  0  0  0  0  0  0  0
   -8.7768   -1.0565    1.5424 C   0  0  0  0  0  0  0  0  0  0  0  0
   -6.7611    0.3079    2.1877 C   0  0  0  0  0  0  0  0  0  0  0  0
   -5.5477    0.9241    1.8770 C   0  0  0  0  0  0  0  0  0  0  0  0
    5.4383    0.7025    0.0910 C   0  0  0  0  0  0  0  0  0  0  0  0
    6.3297   -0.2012    0.6802 C   0  0  0  0  0  0  0  0  0  0  0  0
    8.4136   -1.1514    2.3370 H   0  0  0  0  0  0  0  0  0  0  0  0
    9.0011   -2.7690    1.9334 H   0  0  0  0  0  0  0  0  0  0  0  0
    7.2560   -2.5059    2.0350 H   0  0  0  0  0  0  0  0  0  0  0  0
    8.0903   -1.0850   -2.0816 H   0  0  0  0  0  0  0  0  0  0  0  0
    6.5224    0.5007   -3.1300 H   0  0  0  0  0  0  0  0  0  0  0  0
    4.3019    2.7614   -1.2245 H   0  0  0  0  0  0  0  0  0  0  0  0
    4.9449    2.3722   -2.8210 H   0  0  0  0  0  0  0  0  0  0  0  0
    3.3130    0.5981   -3.0534 H   0  0  0  0  0  0  0  0  0  0  0  0
   -0.0883    0.9954   -0.4694 H   0  0  0  0  0  0  0  0  0  0  0  0
   -1.0076   -1.3217   -2.0947 H   0  0  0  0  0  0  0  0  0  0  0  0
   -1.7394    0.2748   -2.3322 H   0  0  0  0  0  0  0  0  0  0  0  0
   -3.1977   -0.9826   -0.7982 H   0  0  0  0  0  0  0  0  0  0  0  0
   -0.1537   -0.8787    1.4179 H   0  0  0  0  0  0  0  0  0  0  0  0
   -1.2411   -1.8786    2.4112 H   0  0  0  0  0  0  0  0  0  0  0  0
   -2.9987   -0.2521    2.3228 H   0  0  0  0  0  0  0  0  0  0  0  0
   -1.5634    0.8095    2.4417 H   0  0  0  0  0  0  0  0  0  0  0  0
   -5.3978    0.1424   -1.4453 H   0  0  0  0  0  0  0  0  0  0  0  0
   -7.5277   -0.9594   -0.8831 H   0  0  0  0  0  0  0  0  0  0  0  0
   -9.2926   -0.5350    2.3555 H   0  0  0  0  0  0  0  0  0  0  0  0
   -8.5810   -2.0878    1.8513 H   0  0  0  0  0  0  0  0  0  0  0  0
   -9.4546   -1.0665    0.6822 H   0  0  0  0  0  0  0  0  0  0  0  0
   -7.1455    0.3704    3.2041 H   0  0  0  0  0  0  0  0  0  0  0  0
   -5.0111    1.4714    2.6490 H   0  0  0  0  0  0  0  0  0  0  0  0
    4.6876    1.1907    0.7112 H   0  0  0  0  0  0  0  0  0  0  0  0
    6.2422   -0.3787    1.7466 H   0  0  0  0  0  0  0  0  0  0  0  0
  1  2  1  0
  2  3  1  0
  3  4  2  0
  4  5  1  0
  5  6  2  0
  6  7  1  0
  7  8  1  0
  8  9  1  0
  9 10  2  0
  9 11  1  0
 11 12  2  0
 11 13  1  0
 13 14  1  0
 14 15  1  0
 15 16  1  0
 16 17  1  0
 17 18  1  0
 18 19  1  0
 19 20  1  0
 20 21  2  0
 20 22  2  0
 20 23  1  0
 23 24  2  0
 24 25  1  0
 25 26  2  0
 26 27  1  0
 26 28  1  0
 28 29  2  0
  6 30  1  0
 30 31  2  0
 31  3  1  0
 19 15  1  0
 29 23  1  0
  1 32  1  0
  1 33  1  0
  1 34  1  0
  4 35  1  0
  5 36  1  0
  7 37  1  0
  7 38  1  0
  8 39  1  0
 13 40  1  0
 14 41  1  0
 14 42  1  0
 15 43  1  0
 17 44  1  0
 17 45  1  0
 18 46  1  0
 18 47  1  0
 24 48  1  0
 25 49  1  0
 27 50  1  0
 27 51  1  0
 27 52  1  0
 28 53  1  0
 29 54  1  0
 30 55  1  0
 31 56  1  0
M  END
$$$$
