
     RDKit          3D

 23 23  0  0  0  0  0  0  0  0999 V2000
    0.3505    2.1209   -0.4453 O   0  0  0  0  0  0  0  0  0  0  0  0
   -0.7533    1.7228   -0.7664 C   0  0  0  0  0  0  0  0  0  0  0  0
   -1.6404    2.5456   -1.3588 O   0  0  0  0  0  0  0  0  0  0  0  0
   -1.3061    0.3612   -0.5718 C   0  0  0  0  0  0  0  0  0  0  0  0
   -2.6862    0.2076   -0.3506 C   0  0  0  0  0  0  0  0  0  0  0  0
   -3.2322   -1.0595   -0.1447 C   0  0  0  0  0  0  0  0  0  0  0  0
   -2.4071   -2.1800   -0.1630 C   0  0  0  0  0  0  0  0  0  0  0  0
   -1.0362   -2.0329   -0.3849 C   0  0  0  0  0  0  0  0  0  0  0  0
   -0.4640   -0.7675   -0.5785 C   0  0  0  0  0  0  0  0  0  0  0  0
    0.9172   -0.7193   -0.8491 N   0  0  0  0  0  0  0  0  0  0  0  0
    1.6800   -0.3129    0.1175 C   0  0  0  0  0  0  0  0  0  0  0  0
    3.1572   -0.2137   -0.0723 C   0  0  0  0  0  0  0  0  0  0  0  0
    3.5623    1.1507    0.3625 N   0  0  0  0  0  4  0  0  0  0  0  0
    3.5016    1.3936    1.5765 O   0  0  0  0  0  0  0  0  0  0  0  0
    3.9846    1.9244   -0.5059 O   0  0  0  0  0  1  0  0  0  0  0  0
   -1.1490    3.3891   -1.4520 H   0  0  0  0  0  0  0  0  0  0  0  0
   -3.3419    1.0757   -0.3364 H   0  0  0  0  0  0  0  0  0  0  0  0
   -4.3009   -1.1711    0.0231 H   0  0  0  0  0  0  0  0  0  0  0  0
   -2.8296   -3.1710   -0.0152 H   0  0  0  0  0  0  0  0  0  0  0  0
   -0.4028   -2.9165   -0.4194 H   0  0  0  0  0  0  0  0  0  0  0  0
    1.2749   -0.0629    1.1169 H   0  0  0  0  0  0  0  0  0  0  0  0
    3.6725   -0.9258    0.5769 H   0  0  0  0  0  0  0  0  0  0  0  0
    3.4490   -0.3583   -1.1152 H   0  0  0  0  0  0  0  0  0  0  0  0
  1  2  2  0
  2  3  1  0
  2  4  1  0
  4  5  2  0
  5  6  1  0
  6  7  2  0
  7  8  1  0
  8  9  2  0
  9 10  1  0
 10 11  2  3
 11 12  1  0
 12 13  1  0
 13 14  2  0
 13 15  1  0
  9  4  1  0
  3 16  1  0
  5 17  1  0
  6 18  1  0
  7 19  1  0
  8 20  1  0
 11 21  1  0
 12 22  1  0
 12 23  1  0
M  CHG  2  13   1  15  -1
M  END
$$$$
