
     RDKit          3D

 57 59  0  0  0  0  0  0  0  0999 V2000
   -8.0491   -0.3995   -1.6058 C   0  0  0  0  0  0  0  0  0  0  0  0
   -7.0576   -1.4113   -1.7087 O   0  0  0  0  0  0  0  0  0  0  0  0
   -5.7421   -1.0200   -1.7164 C   0  0  0  0  0  0  0  0  0  0  0  0
   -5.3111    0.3036   -1.5674 C   0  0  0  0  0  0  0  0  0  0  0  0
   -3.9485    0.6070   -1.5783 C   0  0  0  0  0  0  0  0  0  0  0  0
   -3.0130   -0.4197   -1.7171 C   0  0  0  0  0  0  0  0  0  0  0  0
   -1.2715   -0.0283   -1.7446 S   0  0  0  0  0  6  0  0  0  0  0  0
   -1.1576    1.3538   -2.1580 O   0  0  0  0  0  0  0  0  0  0  0  0
   -0.6131   -1.0958   -2.4656 O   0  0  0  0  0  0  0  0  0  0  0  0
   -0.8184   -0.1260   -0.1383 N   0  0  0  0  0  0  0  0  0  0  0  0
   -1.3699    0.7936    0.8555 C   0  0  0  0  0  0  0  0  0  0  0  0
   -1.9940   -0.1433    1.8652 C   0  0  0  0  0  0  0  0  0  0  0  0
   -1.1441   -1.2948    1.8482 O   0  0  0  0  0  0  0  0  0  0  0  0
   -0.7108   -1.4540    0.4795 C   0  0  0  0  0  0  0  0  0  0  0  0
    0.7428   -1.9760    0.4802 C   0  0  0  0  0  0  0  0  0  0  0  0
    1.6690   -1.0471    1.1132 N   0  0  0  0  0  0  0  0  0  0  0  0
    2.3732   -0.1198    0.3804 C   0  0  0  0  0  0  0  0  0  0  0  0
    2.5513   -0.1291   -0.8288 O   0  0  0  0  0  0  0  0  0  0  0  0
    2.9596    1.0261    1.2349 C   0  0  0  0  0  0  0  0  0  0  0  0
    2.7223    1.0816    2.4338 O   0  0  0  0  0  0  0  0  0  0  0  0
    3.7211    1.9106    0.5111 N   0  0  0  0  0  0  0  0  0  0  0  0
    4.4705    2.9745    1.1230 C   0  0  0  0  0  0  0  0  0  0  0  0
    5.9008    2.5601    1.3560 C   0  0  0  0  0  0  0  0  0  0  0  0
    6.2548    1.8696    2.5270 C   0  0  0  0  0  0  0  0  0  0  0  0
    7.5735    1.4652    2.7373 C   0  0  0  0  0  0  0  0  0  0  0  0
    8.5366    1.7435    1.7754 C   0  0  0  0  0  0  0  0  0  0  0  0
    9.8025    1.3551    1.9773 F   0  0  0  0  0  0  0  0  0  0  0  0
    8.2058    2.4156    0.6047 C   0  0  0  0  0  0  0  0  0  0  0  0
    6.8873    2.8212    0.3916 C   0  0  0  0  0  0  0  0  0  0  0  0
   -3.4284   -1.7420   -1.9043 C   0  0  0  0  0  0  0  0  0  0  0  0
   -4.7923   -2.0488   -1.8976 C   0  0  0  0  0  0  0  0  0  0  0  0
   -5.2972   -3.3168   -2.0465 O   0  0  0  0  0  0  0  0  0  0  0  0
   -4.4016   -4.3389   -2.4620 C   0  0  0  0  0  0  0  0  0  0  0  0
   -9.0286   -0.8860   -1.6426 H   0  0  0  0  0  0  0  0  0  0  0  0
   -7.9760    0.1279   -0.6491 H   0  0  0  0  0  0  0  0  0  0  0  0
   -7.9923    0.2976   -2.4483 H   0  0  0  0  0  0  0  0  0  0  0  0
   -6.0130    1.1229   -1.4489 H   0  0  0  0  0  0  0  0  0  0  0  0
   -3.6299    1.6434   -1.4857 H   0  0  0  0  0  0  0  0  0  0  0  0
   -0.5365    1.3466    1.3028 H   0  0  0  0  0  0  0  0  0  0  0  0
   -2.0864    1.5182    0.4661 H   0  0  0  0  0  0  0  0  0  0  0  0
   -2.0349    0.2809    2.8717 H   0  0  0  0  0  0  0  0  0  0  0  0
   -3.0012   -0.4526    1.5649 H   0  0  0  0  0  0  0  0  0  0  0  0
   -1.3740   -2.1899    0.0178 H   0  0  0  0  0  0  0  0  0  0  0  0
    1.0777   -2.1808   -0.5414 H   0  0  0  0  0  0  0  0  0  0  0  0
    0.7985   -2.9014    1.0629 H   0  0  0  0  0  0  0  0  0  0  0  0
    1.5201   -0.8157    2.0922 H   0  0  0  0  0  0  0  0  0  0  0  0
    3.8778    1.6738   -0.4651 H   0  0  0  0  0  0  0  0  0  0  0  0
    4.4276    3.8385    0.4509 H   0  0  0  0  0  0  0  0  0  0  0  0
    4.0037    3.2745    2.0683 H   0  0  0  0  0  0  0  0  0  0  0  0
    5.4989    1.6408    3.2770 H   0  0  0  0  0  0  0  0  0  0  0  0
    7.8529    0.9329    3.6407 H   0  0  0  0  0  0  0  0  0  0  0  0
    8.9748    2.6159   -0.1345 H   0  0  0  0  0  0  0  0  0  0  0  0
    6.6338    3.3400   -0.5304 H   0  0  0  0  0  0  0  0  0  0  0  0
   -2.6798   -2.5131   -2.0539 H   0  0  0  0  0  0  0  0  0  0  0  0
   -3.6702   -4.5602   -1.6780 H   0  0  0  0  0  0  0  0  0  0  0  0
   -4.9875   -5.2467   -2.6352 H   0  0  0  0  0  0  0  0  0  0  0  0
   -3.9068   -4.0773   -3.4033 H   0  0  0  0  0  0  0  0  0  0  0  0
  1  2  1  0
  2  3  1  0
  3  4  2  0
  4  5  1  0
  5  6  2  0
  6  7  1  0
  7  8  2  0
  7  9  2  0
  7 10  1  0
 10 11  1  0
 11 12  1  0
 12 13  1  0
 13 14  1  0
 14 15  1  0
 15 16  1  0
 16 17  1  0
 17 18  2  0
 17 19  1  0
 19 20  2  0
 19 21  1  0
 21 22  1  0
 22 23  1  0
 23 24  2  0
 24 25  1  0
 25 26  2  0
 26 27  1  0
 26 28  1  0
 28 29  2  0
  6 30  1  0
 30 31  2  0
 31 32  1  0
 32 33  1  0
 31  3  1  0
 14 10  1  0
 29 23  1  0
  1 34  1  0
  1 35  1  0
  1 36  1  0
  4 37  1  0
  5 38  1  0
 11 39  1  0
 11 40  1  0
 12 41  1  0
 12 42  1  0
 14 43  1  0
 15 44  1  0
 15 45  1  0
 16 46  1  0
 21 47  1  0
 22 48  1  0
 22 49  1  0
 24 50  1  0
 25 51  1  0
 28 52  1  0
 29 53  1  0
 30 54  1  0
 33 55  1  0
 33 56  1  0
 33 57  1  0
M  END
$$$$
