
     RDKit          3D

 56 59  0  0  0  0  0  0  0  0999 V2000
    5.5411    5.1776   -0.9073 C   0  0  0  0  0  0  0  0  0  0  0  0
    4.8118    4.0512   -0.1971 C   0  0  0  0  0  0  0  0  0  0  0  0
    4.6110    2.9966   -1.1360 O   0  0  0  0  0  0  0  0  0  0  0  0
    3.9498    1.8855   -0.6907 C   0  0  0  0  0  0  0  0  0  0  0  0
    3.7500    0.8992   -1.6592 C   0  0  0  0  0  0  0  0  0  0  0  0
    3.0866   -0.2890   -1.3424 C   0  0  0  0  0  0  0  0  0  0  0  0
    2.6218   -0.5071   -0.0418 C   0  0  0  0  0  0  0  0  0  0  0  0
    1.9238   -1.7414    0.2946 C   0  0  0  0  0  0  0  0  0  0  0  0
    0.5644   -1.9869    0.4395 C   0  0  0  0  0  0  0  0  0  0  0  0
   -0.5526   -1.0525    0.3220 C   0  0  0  0  0  0  0  0  0  0  0  0
   -0.3999    0.1554    0.1617 O   0  0  0  0  0  0  0  0  0  0  0  0
   -1.7934   -1.6876    0.4277 N   0  0  0  0  0  0  0  0  0  0  0  0
   -2.9056   -0.9534    0.7463 N   0  0  0  0  0  0  0  0  0  0  0  0
   -3.4869   -0.2982   -0.2210 C   0  0  0  0  0  0  0  0  0  0  0  0
   -3.0830   -0.3704   -1.6796 C   0  0  0  0  0  0  0  0  0  0  0  0
   -4.6358    0.5796    0.1272 C   0  0  0  0  0  0  0  0  0  0  0  0
   -4.4336    1.5190    1.1484 C   0  0  0  0  0  0  0  0  0  0  0  0
   -5.4641    2.3797    1.5169 C   0  0  0  0  0  0  0  0  0  0  0  0
   -6.6953    2.2972    0.8715 C   0  0  0  0  0  0  0  0  0  0  0  0
   -6.9041    1.3501   -0.1379 C   0  0  0  0  0  0  0  0  0  0  0  0
   -5.8794    0.4755   -0.5185 C   0  0  0  0  0  0  0  0  0  0  0  0
   -6.0079   -0.5025   -1.4689 O   0  0  0  0  0  0  0  0  0  0  0  0
   -7.2723   -0.6430   -2.1039 C   0  0  0  0  0  0  0  0  0  0  0  0
    0.3704   -3.3134    0.7256 N   0  0  0  0  0  0  0  0  0  0  0  0
    1.5491   -3.9055    0.7719 N   0  0  0  0  0  0  0  0  0  0  0  0
    2.5267   -2.9795    0.5353 N   0  0  0  0  0  0  0  0  0  0  0  0
    3.9000   -3.3320    0.5811 C   0  0  0  0  0  0  0  0  0  0  0  0
    4.8577   -2.4158    0.4383 N   0  0  0  0  0  0  0  0  0  0  0  0
    6.0426   -3.1373    0.5642 O   0  0  0  0  0  0  0  0  0  0  0  0
    5.7902   -4.4864    0.7903 N   0  0  0  0  0  0  0  0  0  0  0  0
    4.4632   -4.6048    0.7937 C   0  0  0  0  0  0  0  0  0  0  0  0
    3.8066   -5.7672    0.9715 N   0  0  0  0  0  0  0  0  0  0  0  0
    2.8153    0.4831    0.9271 C   0  0  0  0  0  0  0  0  0  0  0  0
    3.4781    1.6735    0.6046 C   0  0  0  0  0  0  0  0  0  0  0  0
    5.7200    6.0157   -0.2279 H   0  0  0  0  0  0  0  0  0  0  0  0
    6.5022    4.8281   -1.2987 H   0  0  0  0  0  0  0  0  0  0  0  0
    4.9589    5.5342   -1.7635 H   0  0  0  0  0  0  0  0  0  0  0  0
    3.8483    4.4242    0.1690 H   0  0  0  0  0  0  0  0  0  0  0  0
    5.4246    3.7019    0.6419 H   0  0  0  0  0  0  0  0  0  0  0  0
    4.1119    1.0598   -2.6718 H   0  0  0  0  0  0  0  0  0  0  0  0
    2.9411   -1.0342   -2.1201 H   0  0  0  0  0  0  0  0  0  0  0  0
   -1.7500   -2.5867    0.9040 H   0  0  0  0  0  0  0  0  0  0  0  0
   -3.6740    0.3102   -2.2982 H   0  0  0  0  0  0  0  0  0  0  0  0
   -2.0366   -0.0856   -1.8040 H   0  0  0  0  0  0  0  0  0  0  0  0
   -3.2232   -1.3922   -2.0438 H   0  0  0  0  0  0  0  0  0  0  0  0
   -3.4691    1.5815    1.6486 H   0  0  0  0  0  0  0  0  0  0  0  0
   -5.3060    3.1115    2.3049 H   0  0  0  0  0  0  0  0  0  0  0  0
   -7.5016    2.9686    1.1584 H   0  0  0  0  0  0  0  0  0  0  0  0
   -7.8847    1.3197   -0.6018 H   0  0  0  0  0  0  0  0  0  0  0  0
   -7.5337    0.2598   -2.6655 H   0  0  0  0  0  0  0  0  0  0  0  0
   -7.1970   -1.4684   -2.8181 H   0  0  0  0  0  0  0  0  0  0  0  0
   -8.0521   -0.9004   -1.3796 H   0  0  0  0  0  0  0  0  0  0  0  0
    4.3183   -6.5713    1.3197 H   0  0  0  0  0  0  0  0  0  0  0  0
    2.8077   -5.7838    1.1706 H   0  0  0  0  0  0  0  0  0  0  0  0
    2.4456    0.3444    1.9403 H   0  0  0  0  0  0  0  0  0  0  0  0
    3.6031    2.4131    1.3879 H   0  0  0  0  0  0  0  0  0  0  0  0
  1  2  1  0
  2  3  1  0
  3  4  1  0
  4  5  2  0
  5  6  1  0
  6  7  2  0
  7  8  1  0
  8  9  2  0
  9 10  1  0
 10 11  2  0
 10 12  1  0
 12 13  1  0
 13 14  2  3
 14 15  1  0
 14 16  1  0
 16 17  2  0
 17 18  1  0
 18 19  2  0
 19 20  1  0
 20 21  2  0
 21 22  1  0
 22 23  1  0
  9 24  1  0
 24 25  2  0
 25 26  1  0
 26 27  1  0
 27 28  2  0
 28 29  1  0
 29 30  1  0
 30 31  2  0
 31 32  1  0
  7 33  1  0
 33 34  2  0
 34  4  1  0
 26  8  1  0
 31 27  1  0
 21 16  1  0
  1 35  1  0
  1 36  1  0
  1 37  1  0
  2 38  1  0
  2 39  1  0
  5 40  1  0
  6 41  1  0
 12 42  1  0
 15 43  1  0
 15 44  1  0
 15 45  1  0
 17 46  1  0
 18 47  1  0
 19 48  1  0
 20 49  1  0
 23 50  1  0
 23 51  1  0
 23 52  1  0
 32 53  1  0
 32 54  1  0
 33 55  1  0
 34 56  1  0
M  END
$$$$
