
     RDKit          3D

 19 19  0  0  0  0  0  0  0  0999 V2000
   -3.0018    0.6181   -0.8143 C   0  0  0  0  0  0  0  0  0  0  0  0
   -2.1329   -0.5063   -0.2672 C   0  0  0  0  0  0  0  0  0  0  0  0
   -1.2481   -1.1752   -1.3211 C   0  0  0  0  0  0  0  0  0  0  0  0
    0.0044   -0.0731   -2.0490 S   0  0  0  0  0  0  0  0  0  0  0  0
    1.1721    0.0386   -0.7518 C   0  0  0  0  0  0  0  0  0  0  0  0
    1.1524   -0.7443    0.3038 N   0  0  0  0  0  0  0  0  0  0  0  0
    2.1791   -0.4530    1.1815 N   0  0  0  0  0  0  0  0  0  0  0  0
    2.9392    0.5299    0.7543 C   0  0  0  0  0  0  0  0  0  0  0  0
    4.0145    1.0052    1.4123 N   0  0  0  0  0  0  0  0  0  0  0  0
    2.4570    1.1717   -0.7641 S   0  0  0  0  0  0  0  0  0  0  0  0
   -3.6801    0.9797   -0.0347 H   0  0  0  0  0  0  0  0  0  0  0  0
   -3.6101    0.2705   -1.6554 H   0  0  0  0  0  0  0  0  0  0  0  0
   -2.4010    1.4687   -1.1492 H   0  0  0  0  0  0  0  0  0  0  0  0
   -1.5307   -0.1289    0.5669 H   0  0  0  0  0  0  0  0  0  0  0  0
   -2.7952   -1.2726    0.1545 H   0  0  0  0  0  0  0  0  0  0  0  0
   -0.7579   -2.0580   -0.8967 H   0  0  0  0  0  0  0  0  0  0  0  0
   -1.8771   -1.5362   -2.1425 H   0  0  0  0  0  0  0  0  0  0  0  0
    4.3870    0.3945    2.1322 H   0  0  0  0  0  0  0  0  0  0  0  0
    4.7292    1.4710    0.8657 H   0  0  0  0  0  0  0  0  0  0  0  0
  1  2  1  0
  2  3  1  0
  3  4  1  0
  4  5  1  0
  5  6  2  0
  6  7  1  0
  7  8  2  0
  8  9  1  0
  8 10  1  0
 10  5  1  0
  1 11  1  0
  1 12  1  0
  1 13  1  0
  2 14  1  0
  2 15  1  0
  3 16  1  0
  3 17  1  0
  9 18  1  0
  9 19  1  0
M  END
$$$$
