
     RDKit          3D

 33 34  0  0  0  0  0  0  0  0999 V2000
   -2.9744   -0.4158    1.6328 C   0  0  0  0  0  0  0  0  0  0  0  0
   -2.3697   -0.5682    0.2435 C   0  0  0  0  0  0  0  0  0  0  0  0
   -1.4847    0.5684   -0.0677 N   0  0  0  0  0  0  0  0  0  0  0  0
   -2.1479    1.7916   -0.5363 C   0  0  0  0  0  0  0  0  0  0  0  0
   -1.4299    3.0373   -0.0362 C   0  0  0  0  0  0  0  0  0  0  0  0
   -0.1901    0.2111   -0.5181 C   0  0  0  0  0  0  0  0  0  0  0  0
    0.2589    0.6469   -1.7820 C   0  0  0  0  0  0  0  0  0  0  0  0
    1.5209    0.3198   -2.2558 C   0  0  0  0  0  0  0  0  0  0  0  0
    2.3559   -0.4511   -1.4518 C   0  0  0  0  0  0  0  0  0  0  0  0
    3.6678   -0.7580   -1.9906 N   0  0  0  0  0  4  0  0  0  0  0  0
    3.7036   -1.4263   -3.0324 O   0  0  0  0  0  0  0  0  0  0  0  0
    4.6515   -0.3127   -1.3851 O   0  0  0  0  0  1  0  0  0  0  0  0
    1.9694   -0.9254   -0.1768 C   0  0  0  0  0  0  0  0  0  0  0  0
    2.7900   -1.7268    0.6586 C   0  0  0  0  0  0  0  0  0  0  0  0
    2.3493   -2.1455    1.9045 C   0  0  0  0  0  0  0  0  0  0  0  0
    1.0912   -1.7576    2.2912 C   0  0  0  0  0  0  0  0  0  0  0  0
    0.2761   -1.0085    1.5221 N   0  0  0  0  0  0  0  0  0  0  0  0
    0.6776   -0.5862    0.2974 C   0  0  0  0  0  0  0  0  0  0  0  0
   -3.6069   -1.2783    1.8652 H   0  0  0  0  0  0  0  0  0  0  0  0
   -2.1998   -0.3435    2.4020 H   0  0  0  0  0  0  0  0  0  0  0  0
   -3.5947    0.4831    1.7040 H   0  0  0  0  0  0  0  0  0  0  0  0
   -3.1764   -0.6125   -0.4996 H   0  0  0  0  0  0  0  0  0  0  0  0
   -1.8605   -1.5371    0.1769 H   0  0  0  0  0  0  0  0  0  0  0  0
   -2.2574    1.8046   -1.6258 H   0  0  0  0  0  0  0  0  0  0  0  0
   -3.1706    1.8298   -0.1417 H   0  0  0  0  0  0  0  0  0  0  0  0
   -0.4204    3.1223   -0.4493 H   0  0  0  0  0  0  0  0  0  0  0  0
   -1.3453    3.0266    1.0557 H   0  0  0  0  0  0  0  0  0  0  0  0
   -1.9859    3.9346   -0.3259 H   0  0  0  0  0  0  0  0  0  0  0  0
   -0.3826    1.2358   -2.4302 H   0  0  0  0  0  0  0  0  0  0  0  0
    1.8385    0.6634   -3.2377 H   0  0  0  0  0  0  0  0  0  0  0  0
    3.7897   -2.0290    0.3518 H   0  0  0  0  0  0  0  0  0  0  0  0
    2.9736   -2.7501    2.5518 H   0  0  0  0  0  0  0  0  0  0  0  0
    0.6830   -2.0427    3.2563 H   0  0  0  0  0  0  0  0  0  0  0  0
  1  2  1  0
  2  3  1  0
  3  4  1  0
  4  5  1  0
  3  6  1  0
  6  7  2  0
  7  8  1  0
  8  9  2  0
  9 10  1  0
 10 11  2  0
 10 12  1  0
  9 13  1  0
 13 14  2  0
 14 15  1  0
 15 16  2  0
 16 17  1  0
 17 18  2  0
 18  6  1  0
 18 13  1  0
  1 19  1  0
  1 20  1  0
  1 21  1  0
  2 22  1  0
  2 23  1  0
  4 24  1  0
  4 25  1  0
  5 26  1  0
  5 27  1  0
  5 28  1  0
  7 29  1  0
  8 30  1  0
 14 31  1  0
 15 32  1  0
 16 33  1  0
M  CHG  2  10   1  12  -1
M  END
$$$$
