
     RDKit          3D

 37 39  0  0  0  0  0  0  0  0999 V2000
    5.9960    0.1255   -0.7043 C   0  0  0  0  0  0  0  0  0  0  0  0
    5.4609   -0.1863    0.5757 O   0  0  0  0  0  0  0  0  0  0  0  0
    4.0983   -0.2365    0.6940 C   0  0  0  0  0  0  0  0  0  0  0  0
    3.6480   -0.5712    1.9808 C   0  0  0  0  0  0  0  0  0  0  0  0
    2.2864   -0.6645    2.2641 C   0  0  0  0  0  0  0  0  0  0  0  0
    1.3882   -0.4144    1.2399 C   0  0  0  0  0  0  0  0  0  0  0  0
    1.8103   -0.0733   -0.0636 C   0  0  0  0  0  0  0  0  0  0  0  0
    3.1763    0.0129   -0.3310 C   0  0  0  0  0  0  0  0  0  0  0  0
    0.7444    0.1514   -0.9667 N   0  0  0  0  0  0  0  0  0  0  0  0
    1.0448    0.3178   -2.3790 C   0  0  0  0  0  0  0  0  0  0  0  0
   -0.4973   -0.0796   -0.3699 C   0  0  0  0  0  0  0  0  0  0  0  0
   -1.7019    0.0005   -0.9666 C   0  0  0  0  0  0  0  0  0  0  0  0
   -2.9915   -0.2497   -0.3154 C   0  0  0  0  0  0  0  0  0  0  0  0
   -3.5478   -1.5335   -0.3669 C   0  0  0  0  0  0  0  0  0  0  0  0
   -4.7593   -1.7918    0.2601 C   0  0  0  0  0  0  0  0  0  0  0  0
   -5.4012   -0.7665    0.9356 C   0  0  0  0  0  0  0  0  0  0  0  0
   -4.8236    0.4966    0.9672 C   0  0  0  0  0  0  0  0  0  0  0  0
   -3.6475    0.7461    0.3427 N   0  0  0  0  0  4  0  0  0  0  0  0
   -3.0839    2.1097    0.4165 C   0  0  0  0  0  0  0  0  0  0  0  0
   -0.3910   -0.4947    1.3681 S   0  0  0  0  0  0  0  0  0  0  0  0
    5.7077   -0.6266   -1.4461 H   0  0  0  0  0  0  0  0  0  0  0  0
    5.6965    1.1296   -1.0221 H   0  0  0  0  0  0  0  0  0  0  0  0
    7.0871    0.1129   -0.6232 H   0  0  0  0  0  0  0  0  0  0  0  0
    4.3755   -0.7640    2.7675 H   0  0  0  0  0  0  0  0  0  0  0  0
    1.9501   -0.9307    3.2606 H   0  0  0  0  0  0  0  0  0  0  0  0
    3.5177    0.2733   -1.3241 H   0  0  0  0  0  0  0  0  0  0  0  0
    1.7592    1.1334   -2.5370 H   0  0  0  0  0  0  0  0  0  0  0  0
    0.1562    0.5757   -2.9625 H   0  0  0  0  0  0  0  0  0  0  0  0
    1.4589   -0.6060   -2.7979 H   0  0  0  0  0  0  0  0  0  0  0  0
   -1.7815    0.2482   -2.0199 H   0  0  0  0  0  0  0  0  0  0  0  0
   -3.0303   -2.3398   -0.8849 H   0  0  0  0  0  0  0  0  0  0  0  0
   -5.1933   -2.7903    0.2295 H   0  0  0  0  0  0  0  0  0  0  0  0
   -6.3467   -0.9512    1.4417 H   0  0  0  0  0  0  0  0  0  0  0  0
   -5.3005    1.3173    1.4964 H   0  0  0  0  0  0  0  0  0  0  0  0
   -2.2369    2.0923    1.1054 H   0  0  0  0  0  0  0  0  0  0  0  0
   -2.7844    2.4235   -0.5866 H   0  0  0  0  0  0  0  0  0  0  0  0
   -3.8438    2.8037    0.7855 H   0  0  0  0  0  0  0  0  0  0  0  0
  1  2  1  0
  2  3  1  0
  3  4  2  0
  4  5  1  0
  5  6  2  0
  6  7  1  0
  7  8  2  0
  7  9  1  0
  9 10  1  0
  9 11  1  0
 11 12  2  3
 12 13  1  0
 13 14  2  0
 14 15  1  0
 15 16  2  0
 16 17  1  0
 17 18  2  0
 18 19  1  0
 11 20  1  0
  8  3  1  0
 18 13  1  0
 20  6  1  0
  1 21  1  0
  1 22  1  0
  1 23  1  0
  4 24  1  0
  5 25  1  0
  8 26  1  0
 10 27  1  0
 10 28  1  0
 10 29  1  0
 12 30  1  0
 14 31  1  0
 15 32  1  0
 16 33  1  0
 17 34  1  0
 19 35  1  0
 19 36  1  0
 19 37  1  0
M  CHG  1  18   1
M  END
$$$$
