
     RDKit          3D

 61 63  0  0  0  0  0  0  0  0999 V2000
  -10.1125   -0.9847   -0.0416 C   0  0  0  0  0  0  0  0  0  0  0  0
   -9.2378    0.0558    0.3750 O   0  0  0  0  0  0  0  0  0  0  0  0
   -7.9523   -0.3005    0.6757 C   0  0  0  0  0  0  0  0  0  0  0  0
   -7.4208   -1.5886    0.6143 C   0  0  0  0  0  0  0  0  0  0  0  0
   -6.0812   -1.8152    0.9533 C   0  0  0  0  0  0  0  0  0  0  0  0
   -5.2587   -0.7585    1.3653 C   0  0  0  0  0  0  0  0  0  0  0  0
   -3.8136   -0.9953    1.7161 C   0  0  0  0  0  0  0  0  0  0  0  0
   -2.9642   -0.8031    0.5726 N   0  0  0  0  0  0  0  0  0  0  0  0
   -2.3096    0.3794    0.3269 C   0  0  0  0  0  0  0  0  0  0  0  0
   -2.2927    1.3661    1.0495 O   0  0  0  0  0  0  0  0  0  0  0  0
   -1.5438    0.3854   -1.0170 C   0  0  0  0  0  0  0  0  0  0  0  0
   -1.6971   -0.5298   -1.8144 O   0  0  0  0  0  0  0  0  0  0  0  0
   -0.7124    1.4727   -1.1752 N   0  0  0  0  0  0  0  0  0  0  0  0
    0.2478    1.5428   -2.2584 C   0  0  0  0  0  0  0  0  0  0  0  0
    1.6527    0.9945   -1.9184 C   0  0  0  0  0  0  0  0  0  0  0  0
    2.4186    0.9139   -3.1354 O   0  0  0  0  0  0  0  0  0  0  0  0
    3.0924   -0.3483   -3.1283 C   0  0  0  0  0  0  0  0  0  0  0  0
    2.1813   -1.2680   -2.3475 C   0  0  0  0  0  0  0  0  0  0  0  0
    1.5869   -0.3652   -1.3657 N   0  0  0  0  0  0  0  0  0  0  0  0
    1.8592   -0.5805    0.2697 S   0  0  0  0  0  6  0  0  0  0  0  0
    1.5981   -1.9678    0.5877 O   0  0  0  0  0  0  0  0  0  0  0  0
    1.1865    0.4880    0.9785 O   0  0  0  0  0  0  0  0  0  0  0  0
    3.6121   -0.3192    0.4562 C   0  0  0  0  0  0  0  0  0  0  0  0
    4.4819   -1.4068    0.3661 C   0  0  0  0  0  0  0  0  0  0  0  0
    5.8547   -1.2082    0.5228 C   0  0  0  0  0  0  0  0  0  0  0  0
    6.3580    0.0705    0.7893 C   0  0  0  0  0  0  0  0  0  0  0  0
    7.6905    0.3600    0.9478 O   0  0  0  0  0  0  0  0  0  0  0  0
    8.6150   -0.7170    0.8810 C   0  0  0  0  0  0  0  0  0  0  0  0
    5.4693    1.1605    0.9164 C   0  0  0  0  0  0  0  0  0  0  0  0
    6.0448    2.3767    1.1892 O   0  0  0  0  0  0  0  0  0  0  0  0
    5.1826    3.4738    1.4567 C   0  0  0  0  0  0  0  0  0  0  0  0
    4.0954    0.9583    0.7574 C   0  0  0  0  0  0  0  0  0  0  0  0
   -5.7954    0.5338    1.4121 C   0  0  0  0  0  0  0  0  0  0  0  0
   -7.1317    0.7567    1.0736 C   0  0  0  0  0  0  0  0  0  0  0  0
  -11.0914   -0.5388   -0.2422 H   0  0  0  0  0  0  0  0  0  0  0  0
   -9.7618   -1.4482   -0.9696 H   0  0  0  0  0  0  0  0  0  0  0  0
  -10.2431   -1.7309    0.7491 H   0  0  0  0  0  0  0  0  0  0  0  0
   -8.0187   -2.4392    0.3055 H   0  0  0  0  0  0  0  0  0  0  0  0
   -5.6848   -2.8264    0.8932 H   0  0  0  0  0  0  0  0  0  0  0  0
   -3.5072   -0.3328    2.5337 H   0  0  0  0  0  0  0  0  0  0  0  0
   -3.6699   -2.0241    2.0631 H   0  0  0  0  0  0  0  0  0  0  0  0
   -2.9638   -1.4840   -0.1807 H   0  0  0  0  0  0  0  0  0  0  0  0
   -0.5966    2.0500   -0.3440 H   0  0  0  0  0  0  0  0  0  0  0  0
   -0.1559    1.0086   -3.1272 H   0  0  0  0  0  0  0  0  0  0  0  0
    0.3326    2.5943   -2.5539 H   0  0  0  0  0  0  0  0  0  0  0  0
    2.1687    1.6884   -1.2496 H   0  0  0  0  0  0  0  0  0  0  0  0
    4.0599   -0.2160   -2.6321 H   0  0  0  0  0  0  0  0  0  0  0  0
    3.2638   -0.6888   -4.1530 H   0  0  0  0  0  0  0  0  0  0  0  0
    1.3763   -1.6518   -2.9846 H   0  0  0  0  0  0  0  0  0  0  0  0
    2.7140   -2.1215   -1.9248 H   0  0  0  0  0  0  0  0  0  0  0  0
    4.1038   -2.4105    0.1812 H   0  0  0  0  0  0  0  0  0  0  0  0
    6.5061   -2.0721    0.4373 H   0  0  0  0  0  0  0  0  0  0  0  0
    8.6137   -1.1752   -0.1121 H   0  0  0  0  0  0  0  0  0  0  0  0
    9.6140   -0.3113    1.0596 H   0  0  0  0  0  0  0  0  0  0  0  0
    8.4151   -1.4602    1.6601 H   0  0  0  0  0  0  0  0  0  0  0  0
    5.8065    4.3337    1.7192 H   0  0  0  0  0  0  0  0  0  0  0  0
    4.5267    3.2655    2.3084 H   0  0  0  0  0  0  0  0  0  0  0  0
    4.6042    3.7423    0.5671 H   0  0  0  0  0  0  0  0  0  0  0  0
    3.3914    1.7760    0.8652 H   0  0  0  0  0  0  0  0  0  0  0  0
   -5.1724    1.3755    1.7096 H   0  0  0  0  0  0  0  0  0  0  0  0
   -7.5356    1.7650    1.1176 H   0  0  0  0  0  0  0  0  0  0  0  0
  1  2  1  0
  2  3  1  0
  3  4  2  0
  4  5  1  0
  5  6  2  0
  6  7  1  0
  7  8  1  0
  8  9  1  0
  9 10  2  0
  9 11  1  0
 11 12  2  0
 11 13  1  0
 13 14  1  0
 14 15  1  0
 15 16  1  0
 16 17  1  0
 17 18  1  0
 18 19  1  0
 19 20  1  0
 20 21  2  0
 20 22  2  0
 20 23  1  0
 23 24  2  0
 24 25  1  0
 25 26  2  0
 26 27  1  0
 27 28  1  0
 26 29  1  0
 29 30  1  0
 30 31  1  0
 29 32  2  0
  6 33  1  0
 33 34  2  0
 34  3  1  0
 19 15  1  0
 32 23  1  0
  1 35  1  0
  1 36  1  0
  1 37  1  0
  4 38  1  0
  5 39  1  0
  7 40  1  0
  7 41  1  0
  8 42  1  0
 13 43  1  0
 14 44  1  0
 14 45  1  0
 15 46  1  0
 17 47  1  0
 17 48  1  0
 18 49  1  0
 18 50  1  0
 24 51  1  0
 25 52  1  0
 28 53  1  0
 28 54  1  0
 28 55  1  0
 31 56  1  0
 31 57  1  0
 31 58  1  0
 32 59  1  0
 33 60  1  0
 34 61  1  0
M  END
$$$$
