
     RDKit          3D

 36 37  0  0  0  0  0  0  0  0999 V2000
    0.2401   -0.5476   -1.1783 O   0  0  0  0  0  0  0  0  0  0  0  0
   -0.2842   -0.4845   -0.0689 C   0  0  0  0  0  0  0  0  0  0  0  0
   -0.0384    0.6714    0.9043 C   0  0  0  0  0  0  0  0  0  0  0  0
    1.1951    1.3443    0.6628 O   0  0  0  0  0  0  0  0  0  0  0  0
    2.2807    0.6485    1.0868 C   0  0  0  0  0  0  0  0  0  0  0  0
    2.2697   -0.3782    1.7426 O   0  0  0  0  0  0  0  0  0  0  0  0
    3.4983    1.3516    0.6358 C   0  0  0  0  0  0  0  0  0  0  0  0
    3.6270    2.7195    0.9295 C   0  0  0  0  0  0  0  0  0  0  0  0
    4.7744    3.4158    0.5477 C   0  0  0  0  0  0  0  0  0  0  0  0
    5.7973    2.7519   -0.1260 C   0  0  0  0  0  0  0  0  0  0  0  0
    5.6739    1.3926   -0.4217 C   0  0  0  0  0  0  0  0  0  0  0  0
    4.5258    0.6866   -0.0422 C   0  0  0  0  0  0  0  0  0  0  0  0
    4.4330   -1.1447   -0.5336 Br  0  0  0  0  0  0  0  0  0  0  0  0
   -1.1652   -1.4374    0.4013 N   0  0  0  0  0  0  0  0  0  0  0  0
   -1.6026   -2.5339   -0.4436 C   0  0  0  0  0  0  0  0  0  0  0  0
   -2.6766   -2.1129   -1.4561 C   0  0  0  0  0  0  0  0  0  0  0  0
   -3.9257   -1.7229   -0.8169 N   0  0  0  0  0  0  0  0  0  0  0  0
   -4.3100   -0.4228   -0.5974 C   0  0  0  0  0  0  0  0  0  0  0  0
   -3.4876    0.5908   -0.9863 O   0  0  0  0  0  0  0  0  0  0  0  0
   -5.4985   -0.2890    0.0023 C   0  0  0  0  0  0  0  0  0  0  0  0
   -6.2090   -1.8365    0.3465 S   0  0  0  0  0  0  0  0  0  0  0  0
   -4.8184   -2.6800   -0.3614 C   0  0  0  0  0  0  0  0  0  0  0  0
   -4.7095   -3.8939   -0.4024 O   0  0  0  0  0  0  0  0  0  0  0  0
   -0.0998    0.3306    1.9447 H   0  0  0  0  0  0  0  0  0  0  0  0
   -0.8423    1.3997    0.7525 H   0  0  0  0  0  0  0  0  0  0  0  0
    2.8366    3.2444    1.4613 H   0  0  0  0  0  0  0  0  0  0  0  0
    4.8711    4.4746    0.7768 H   0  0  0  0  0  0  0  0  0  0  0  0
    6.6923    3.2925   -0.4256 H   0  0  0  0  0  0  0  0  0  0  0  0
    6.4788    0.8916   -0.9552 H   0  0  0  0  0  0  0  0  0  0  0  0
   -1.6654   -1.2734    1.2644 H   0  0  0  0  0  0  0  0  0  0  0  0
   -1.9749   -3.3204    0.2209 H   0  0  0  0  0  0  0  0  0  0  0  0
   -0.7320   -2.9271   -0.9802 H   0  0  0  0  0  0  0  0  0  0  0  0
   -2.3200   -1.3037   -2.1027 H   0  0  0  0  0  0  0  0  0  0  0  0
   -2.8914   -2.9706   -2.1053 H   0  0  0  0  0  0  0  0  0  0  0  0
   -3.9599    1.4329   -0.8727 H   0  0  0  0  0  0  0  0  0  0  0  0
   -5.9829    0.6400    0.2639 H   0  0  0  0  0  0  0  0  0  0  0  0
  1  2  2  0
  2  3  1  0
  3  4  1  0
  4  5  1  0
  5  6  2  0
  5  7  1  0
  7  8  2  0
  8  9  1  0
  9 10  2  0
 10 11  1  0
 11 12  2  0
 12 13  1  0
  2 14  1  0
 14 15  1  0
 15 16  1  0
 16 17  1  0
 17 18  1  0
 18 19  1  0
 18 20  2  0
 20 21  1  0
 21 22  1  0
 22 23  2  0
 12  7  1  0
 22 17  1  0
  3 24  1  0
  3 25  1  0
  8 26  1  0
  9 27  1  0
 10 28  1  0
 11 29  1  0
 14 30  1  0
 15 31  1  0
 15 32  1  0
 16 33  1  0
 16 34  1  0
 19 35  1  0
 20 36  1  0
M  END
$$$$
