
     RDKit          3D

 60 62  0  0  0  0  0  0  0  0999 V2000
   -4.8142    0.9745   -4.2572 C   0  0  0  0  0  0  0  0  0  0  0  0
   -3.9530    1.4997   -3.1434 C   0  0  0  0  0  0  0  0  0  0  0  0
   -2.5644    1.5791   -3.3055 C   0  0  0  0  0  0  0  0  0  0  0  0
   -1.7652    2.0503   -2.2642 C   0  0  0  0  0  0  0  0  0  0  0  0
   -2.3445    2.4255   -1.0368 C   0  0  0  0  0  0  0  0  0  0  0  0
   -1.2312    3.0091    0.2346 S   0  0  0  0  0  6  0  0  0  0  0  0
   -1.9240    3.9807    1.0695 O   0  0  0  0  0  0  0  0  0  0  0  0
    0.0389    3.3531   -0.3863 O   0  0  0  0  0  0  0  0  0  0  0  0
   -1.0232    1.6394    1.1805 N   0  0  0  0  0  0  0  0  0  0  0  0
   -0.4753    0.4310    0.6596 C   0  0  0  0  0  0  0  0  0  0  0  0
    0.8549    0.4345    0.2235 C   0  0  0  0  0  0  0  0  0  0  0  0
    1.4561   -0.7259   -0.2814 C   0  0  0  0  0  0  0  0  0  0  0  0
    2.9100   -0.6837   -0.7420 C   0  0  0  0  0  0  0  0  0  0  0  0
    3.7989   -0.3587    0.4375 C   0  0  0  0  0  0  0  0  0  0  0  0
    4.2575    0.7623    0.6614 O   0  0  0  0  0  0  0  0  0  0  0  0
    3.9619   -1.4741    1.2268 O   0  0  0  0  0  0  0  0  0  0  0  0
    4.6517   -1.2767    2.4767 C   0  0  0  0  0  0  0  0  0  0  0  0
    3.6268   -0.8742    3.5406 C   0  0  0  0  0  0  0  0  0  0  0  0
    5.3220   -2.5994    2.8364 C   0  0  0  0  0  0  0  0  0  0  0  0
    3.1317    0.2594   -1.9180 C   0  0  0  0  0  0  0  0  0  0  0  0
    2.1942    0.7197   -2.5829 O   0  0  0  0  0  0  0  0  0  0  0  0
    4.5831    0.5390   -2.2719 C   0  0  0  0  0  0  0  0  0  0  0  0
    5.0022    1.7790   -1.8748 F   0  0  0  0  0  0  0  0  0  0  0  0
    4.8060    0.4720   -3.6219 F   0  0  0  0  0  0  0  0  0  0  0  0
    5.4377   -0.3718   -1.7114 F   0  0  0  0  0  0  0  0  0  0  0  0
    0.7042   -1.9097   -0.3048 C   0  0  0  0  0  0  0  0  0  0  0  0
    1.3728   -3.0293   -0.7541 O   0  0  0  0  0  0  0  0  0  0  0  0
   -0.6537   -1.9528    0.1303 C   0  0  0  0  0  0  0  0  0  0  0  0
   -1.4561   -3.1223    0.0948 C   0  0  0  0  0  0  0  0  0  0  0  0
   -2.7869   -3.1207    0.5184 C   0  0  0  0  0  0  0  0  0  0  0  0
   -3.3608   -1.9497    0.9942 C   0  0  0  0  0  0  0  0  0  0  0  0
   -2.5957   -0.7887    1.0568 C   0  0  0  0  0  0  0  0  0  0  0  0
   -1.2458   -0.7563    0.6258 C   0  0  0  0  0  0  0  0  0  0  0  0
   -3.7418    2.3376   -0.8456 C   0  0  0  0  0  0  0  0  0  0  0  0
   -4.4393    2.7242    0.4353 C   0  0  0  0  0  0  0  0  0  0  0  0
   -4.5297    1.8734   -1.9159 C   0  0  0  0  0  0  0  0  0  0  0  0
   -4.3504    1.1812   -5.2331 H   0  0  0  0  0  0  0  0  0  0  0  0
   -4.9570   -0.1118   -4.1491 H   0  0  0  0  0  0  0  0  0  0  0  0
   -5.7967    1.4630   -4.2463 H   0  0  0  0  0  0  0  0  0  0  0  0
   -2.0959    1.2802   -4.2451 H   0  0  0  0  0  0  0  0  0  0  0  0
   -0.6827    2.1065   -2.4183 H   0  0  0  0  0  0  0  0  0  0  0  0
   -1.3790    1.6904    2.1535 H   0  0  0  0  0  0  0  0  0  0  0  0
    1.4298    1.3584    0.2815 H   0  0  0  0  0  0  0  0  0  0  0  0
    3.2317   -1.6600   -1.1196 H   0  0  0  0  0  0  0  0  0  0  0  0
    5.4273   -0.5028    2.3794 H   0  0  0  0  0  0  0  0  0  0  0  0
    3.1610    0.0809    3.2870 H   0  0  0  0  0  0  0  0  0  0  0  0
    4.0890   -0.7836    4.5323 H   0  0  0  0  0  0  0  0  0  0  0  0
    2.8236   -1.6182    3.5947 H   0  0  0  0  0  0  0  0  0  0  0  0
    5.8726   -2.5245    3.7785 H   0  0  0  0  0  0  0  0  0  0  0  0
    6.0193   -2.9027    2.0359 H   0  0  0  0  0  0  0  0  0  0  0  0
    4.5898   -3.4159    2.9230 H   0  0  0  0  0  0  0  0  0  0  0  0
    0.8431   -3.8211   -0.5974 H   0  0  0  0  0  0  0  0  0  0  0  0
   -1.0646   -4.0724   -0.2698 H   0  0  0  0  0  0  0  0  0  0  0  0
   -3.3753   -4.0292    0.4601 H   0  0  0  0  0  0  0  0  0  0  0  0
   -4.4012   -1.9311    1.3125 H   0  0  0  0  0  0  0  0  0  0  0  0
   -3.0848    0.1155    1.4209 H   0  0  0  0  0  0  0  0  0  0  0  0
   -4.4375    3.8132    0.5626 H   0  0  0  0  0  0  0  0  0  0  0  0
   -3.9645    2.2359    1.2941 H   0  0  0  0  0  0  0  0  0  0  0  0
   -5.4880    2.3942    0.4382 H   0  0  0  0  0  0  0  0  0  0  0  0
   -5.6153    1.8040   -1.7966 H   0  0  0  0  0  0  0  0  0  0  0  0
  1  2  1  0
  2  3  2  0
  3  4  1  0
  4  5  2  0
  5  6  1  0
  6  7  2  0
  6  8  2  0
  6  9  1  0
  9 10  1  0
 10 11  2  0
 11 12  1  0
 12 13  1  0
 13 14  1  0
 14 15  2  0
 14 16  1  0
 16 17  1  0
 17 18  1  0
 17 19  1  0
 13 20  1  0
 20 21  2  0
 20 22  1  0
 22 23  1  0
 22 24  1  0
 22 25  1  0
 12 26  2  0
 26 27  1  0
 26 28  1  0
 28 29  2  0
 29 30  1  0
 30 31  2  0
 31 32  1  0
 32 33  2  0
  5 34  1  0
 34 35  1  0
 34 36  2  0
 36  2  1  0
 33 10  1  0
 33 28  1  0
  1 37  1  0
  1 38  1  0
  1 39  1  0
  3 40  1  0
  4 41  1  0
  9 42  1  0
 11 43  1  0
 13 44  1  0
 17 45  1  0
 18 46  1  0
 18 47  1  0
 18 48  1  0
 19 49  1  0
 19 50  1  0
 19 51  1  0
 27 52  1  0
 29 53  1  0
 30 54  1  0
 31 55  1  0
 32 56  1  0
 35 57  1  0
 35 58  1  0
 35 59  1  0
 36 60  1  0
M  END
$$$$
