
     RDKit          3D

 48 49  0  0  0  0  0  0  0  0999 V2000
   -4.5763    0.9772   -2.1027 C   0  0  0  0  0  0  0  0  0  0  0  0
   -4.8243   -0.2993   -1.3138 C   0  0  0  0  0  0  0  0  0  0  0  0
   -5.2208   -0.0169    0.0688 N   0  0  0  0  0  0  0  0  0  0  0  0
   -6.6442    0.2005    0.3230 C   0  0  0  0  0  0  0  0  0  0  0  0
   -7.3415   -1.0906    0.7208 C   0  0  0  0  0  0  0  0  0  0  0  0
   -4.3383    0.1400    1.1380 C   0  0  0  0  0  0  0  0  0  0  0  0
   -4.6810    0.4727    2.2697 O   0  0  0  0  0  0  0  0  0  0  0  0
   -2.9000   -0.0945    0.9142 C   0  0  0  0  0  0  0  0  0  0  0  0
   -2.4101   -1.3970    0.8054 C   0  0  0  0  0  0  0  0  0  0  0  0
   -1.0404   -1.6090    0.6164 C   0  0  0  0  0  0  0  0  0  0  0  0
   -0.1585   -0.5261    0.5538 C   0  0  0  0  0  0  0  0  0  0  0  0
    1.2294   -0.6558    0.3692 N   0  0  0  0  0  0  0  0  0  0  0  0
    1.9667   -1.8119    0.1885 C   0  0  0  0  0  0  0  0  0  0  0  0
    1.5325   -2.9595    0.1406 O   0  0  0  0  0  0  0  0  0  0  0  0
    3.4693   -1.5461    0.0441 C   0  0  0  0  0  0  0  0  0  0  0  0
    3.7418   -0.1476    0.0668 O   0  0  0  0  0  0  0  0  0  0  0  0
    5.0431    0.2613   -0.0469 C   0  0  0  0  0  0  0  0  0  0  0  0
    6.1375   -0.5983   -0.1878 C   0  0  0  0  0  0  0  0  0  0  0  0
    7.4338   -0.0806   -0.2971 C   0  0  0  0  0  0  0  0  0  0  0  0
    7.6368    1.3052   -0.2656 C   0  0  0  0  0  0  0  0  0  0  0  0
    8.9974    1.8448   -0.3814 N   0  0  0  0  0  4  0  0  0  0  0  0
    9.9276    1.0359   -0.5024 O   0  0  0  0  0  0  0  0  0  0  0  0
    9.1320    3.0755   -0.3516 O   0  0  0  0  0  1  0  0  0  0  0  0
    6.5546    2.1786   -0.1254 C   0  0  0  0  0  0  0  0  0  0  0  0
    5.2660    1.6510   -0.0172 C   0  0  0  0  0  0  0  0  0  0  0  0
    3.9468    2.7586    0.1548 Cl  0  0  0  0  0  0  0  0  0  0  0  0
   -0.6628    0.7758    0.6916 C   0  0  0  0  0  0  0  0  0  0  0  0
   -2.0301    0.9946    0.8781 C   0  0  0  0  0  0  0  0  0  0  0  0
   -3.7790    1.5752   -1.6509 H   0  0  0  0  0  0  0  0  0  0  0  0
   -4.2835    0.7375   -3.1295 H   0  0  0  0  0  0  0  0  0  0  0  0
   -5.4762    1.5993   -2.1419 H   0  0  0  0  0  0  0  0  0  0  0  0
   -3.9207   -0.9121   -1.3346 H   0  0  0  0  0  0  0  0  0  0  0  0
   -5.6156   -0.8903   -1.7884 H   0  0  0  0  0  0  0  0  0  0  0  0
   -6.7668    0.9370    1.1249 H   0  0  0  0  0  0  0  0  0  0  0  0
   -7.1088    0.6236   -0.5742 H   0  0  0  0  0  0  0  0  0  0  0  0
   -7.2575   -1.8434   -0.0697 H   0  0  0  0  0  0  0  0  0  0  0  0
   -8.4040   -0.9074    0.9076 H   0  0  0  0  0  0  0  0  0  0  0  0
   -6.9011   -1.5120    1.6304 H   0  0  0  0  0  0  0  0  0  0  0  0
   -3.0864   -2.2454    0.8715 H   0  0  0  0  0  0  0  0  0  0  0  0
   -0.6926   -2.6341    0.5328 H   0  0  0  0  0  0  0  0  0  0  0  0
    1.7746    0.2030    0.3593 H   0  0  0  0  0  0  0  0  0  0  0  0
    3.7826   -1.9753   -0.9143 H   0  0  0  0  0  0  0  0  0  0  0  0
    3.9668   -2.0429    0.8847 H   0  0  0  0  0  0  0  0  0  0  0  0
    6.0218   -1.6783   -0.2166 H   0  0  0  0  0  0  0  0  0  0  0  0
    8.2701   -0.7703   -0.4059 H   0  0  0  0  0  0  0  0  0  0  0  0
    6.7003    3.2565   -0.0995 H   0  0  0  0  0  0  0  0  0  0  0  0
    0.0018    1.6363    0.6626 H   0  0  0  0  0  0  0  0  0  0  0  0
   -2.4130    2.0046    1.0002 H   0  0  0  0  0  0  0  0  0  0  0  0
  1  2  1  0
  2  3  1  0
  3  4  1  0
  4  5  1  0
  3  6  1  0
  6  7  2  0
  6  8  1  0
  8  9  2  0
  9 10  1  0
 10 11  2  0
 11 12  1  0
 12 13  1  0
 13 14  2  0
 13 15  1  0
 15 16  1  0
 16 17  1  0
 17 18  2  0
 18 19  1  0
 19 20  2  0
 20 21  1  0
 21 22  2  0
 21 23  1  0
 20 24  1  0
 24 25  2  0
 25 26  1  0
 11 27  1  0
 27 28  2  0
 28  8  1  0
 25 17  1  0
  1 29  1  0
  1 30  1  0
  1 31  1  0
  2 32  1  0
  2 33  1  0
  4 34  1  0
  4 35  1  0
  5 36  1  0
  5 37  1  0
  5 38  1  0
  9 39  1  0
 10 40  1  0
 12 41  1  0
 15 42  1  0
 15 43  1  0
 18 44  1  0
 19 45  1  0
 24 46  1  0
 27 47  1  0
 28 48  1  0
M  CHG  2  21   1  23  -1
M  END
$$$$
