
     RDKit          3D

 53 55  0  0  0  0  0  0  0  0999 V2000
    9.2521   -1.1444    1.3647 C   0  0  0  0  0  0  0  0  0  0  0  0
    8.0190   -1.6731    0.8931 O   0  0  0  0  0  0  0  0  0  0  0  0
    6.8845   -0.9777    1.2083 C   0  0  0  0  0  0  0  0  0  0  0  0
    5.6970   -1.5716    0.7663 C   0  0  0  0  0  0  0  0  0  0  0  0
    4.4628   -0.9704    1.0172 C   0  0  0  0  0  0  0  0  0  0  0  0
    4.4222    0.2400    1.7111 C   0  0  0  0  0  0  0  0  0  0  0  0
    2.8515    1.0033    2.0185 S   0  0  0  0  0  6  0  0  0  0  0  0
    1.9862    0.0037    2.6024 O   0  0  0  0  0  0  0  0  0  0  0  0
    3.0745    2.2793    2.6652 O   0  0  0  0  0  0  0  0  0  0  0  0
    2.2935    1.3308    0.4584 N   0  0  0  0  0  0  0  0  0  0  0  0
    3.0364    2.3365   -0.3292 C   0  0  0  0  0  0  0  0  0  0  0  0
    2.0411    3.4609   -0.5035 C   0  0  0  0  0  0  0  0  0  0  0  0
    0.7846    2.7837   -0.5722 O   0  0  0  0  0  0  0  0  0  0  0  0
    0.8712    1.7397    0.4215 C   0  0  0  0  0  0  0  0  0  0  0  0
   -0.0319    0.5721   -0.0055 C   0  0  0  0  0  0  0  0  0  0  0  0
   -1.4206    0.9723   -0.1570 N   0  0  0  0  0  0  0  0  0  0  0  0
   -2.4360    0.0484   -0.2287 C   0  0  0  0  0  0  0  0  0  0  0  0
   -2.3401   -1.1495   -0.0037 O   0  0  0  0  0  0  0  0  0  0  0  0
   -3.7954    0.6514   -0.6520 C   0  0  0  0  0  0  0  0  0  0  0  0
   -3.8875    1.8439   -0.9074 O   0  0  0  0  0  0  0  0  0  0  0  0
   -4.8165   -0.2674   -0.6939 N   0  0  0  0  0  0  0  0  0  0  0  0
   -6.1859    0.1439   -0.8575 C   0  0  0  0  0  0  0  0  0  0  0  0
   -7.0684   -1.0219   -1.2138 C   0  0  0  0  0  0  0  0  0  0  0  0
   -7.3145   -1.2963   -2.5714 C   0  0  0  0  0  0  0  0  0  0  0  0
   -8.1135   -2.3761   -2.9521 C   0  0  0  0  0  0  0  0  0  0  0  0
   -8.6725   -3.2045   -1.9833 C   0  0  0  0  0  0  0  0  0  0  0  0
   -8.4276   -2.9562   -0.6334 C   0  0  0  0  0  0  0  0  0  0  0  0
   -7.6273   -1.8752   -0.2494 C   0  0  0  0  0  0  0  0  0  0  0  0
   -7.3472   -1.6484    1.4403 Cl  0  0  0  0  0  0  0  0  0  0  0  0
    5.5984    0.8419    2.1637 C   0  0  0  0  0  0  0  0  0  0  0  0
    6.8305    0.2303    1.9087 C   0  0  0  0  0  0  0  0  0  0  0  0
    9.4560   -0.1646    0.9203 H   0  0  0  0  0  0  0  0  0  0  0  0
    9.2684   -1.0943    2.4585 H   0  0  0  0  0  0  0  0  0  0  0  0
   10.0496   -1.8247    1.0506 H   0  0  0  0  0  0  0  0  0  0  0  0
    5.7368   -2.5154    0.2265 H   0  0  0  0  0  0  0  0  0  0  0  0
    3.5468   -1.4473    0.6758 H   0  0  0  0  0  0  0  0  0  0  0  0
    3.2815    1.8813   -1.2954 H   0  0  0  0  0  0  0  0  0  0  0  0
    3.9663    2.6812    0.1286 H   0  0  0  0  0  0  0  0  0  0  0  0
    2.0313    4.1368    0.3590 H   0  0  0  0  0  0  0  0  0  0  0  0
    2.2096    4.0413   -1.4141 H   0  0  0  0  0  0  0  0  0  0  0  0
    0.5322    2.1706    1.3714 H   0  0  0  0  0  0  0  0  0  0  0  0
    0.2840    0.1863   -0.9823 H   0  0  0  0  0  0  0  0  0  0  0  0
    0.0253   -0.2552    0.7096 H   0  0  0  0  0  0  0  0  0  0  0  0
   -1.6225    1.8885   -0.5546 H   0  0  0  0  0  0  0  0  0  0  0  0
   -4.6052   -1.1856   -0.3106 H   0  0  0  0  0  0  0  0  0  0  0  0
   -6.5154    0.6359    0.0641 H   0  0  0  0  0  0  0  0  0  0  0  0
   -6.2350    0.9140   -1.6375 H   0  0  0  0  0  0  0  0  0  0  0  0
   -6.8780   -0.6653   -3.3443 H   0  0  0  0  0  0  0  0  0  0  0  0
   -8.2956   -2.5717   -4.0063 H   0  0  0  0  0  0  0  0  0  0  0  0
   -9.2933   -4.0468   -2.2781 H   0  0  0  0  0  0  0  0  0  0  0  0
   -8.8599   -3.6133    0.1173 H   0  0  0  0  0  0  0  0  0  0  0  0
    5.5687    1.7786    2.7161 H   0  0  0  0  0  0  0  0  0  0  0  0
    7.7281    0.7203    2.2723 H   0  0  0  0  0  0  0  0  0  0  0  0
  1  2  1  0
  2  3  1  0
  3  4  2  0
  4  5  1  0
  5  6  2  0
  6  7  1  0
  7  8  2  0
  7  9  2  0
  7 10  1  0
 10 11  1  0
 11 12  1  0
 12 13  1  0
 13 14  1  0
 14 15  1  0
 15 16  1  0
 16 17  1  0
 17 18  2  0
 17 19  1  0
 19 20  2  0
 19 21  1  0
 21 22  1  0
 22 23  1  0
 23 24  2  0
 24 25  1  0
 25 26  2  0
 26 27  1  0
 27 28  2  0
 28 29  1  0
  6 30  1  0
 30 31  2  0
 31  3  1  0
 14 10  1  0
 28 23  1  0
  1 32  1  0
  1 33  1  0
  1 34  1  0
  4 35  1  0
  5 36  1  0
 11 37  1  0
 11 38  1  0
 12 39  1  0
 12 40  1  0
 14 41  1  0
 15 42  1  0
 15 43  1  0
 16 44  1  0
 21 45  1  0
 22 46  1  0
 22 47  1  0
 24 48  1  0
 25 49  1  0
 26 50  1  0
 27 51  1  0
 30 52  1  0
 31 53  1  0
M  END
$$$$
