
     RDKit          3D

 42 46  0  0  0  0  0  0  0  0999 V2000
    4.9823    2.1786    0.5733 C   0  0  0  0  0  0  0  0  0  0  0  0
    5.1674    1.1478   -0.3453 C   0  0  0  0  0  0  0  0  0  0  0  0
    4.1220    0.2622   -0.6462 C   0  0  0  0  0  0  0  0  0  0  0  0
    4.3003   -0.7734   -1.5686 C   0  0  0  0  0  0  0  0  0  0  0  0
    3.2551   -1.6481   -1.8632 C   0  0  0  0  0  0  0  0  0  0  0  0
    2.0070   -1.5104   -1.2422 C   0  0  0  0  0  0  0  0  0  0  0  0
    0.9677   -2.3904   -1.5480 C   0  0  0  0  0  0  0  0  0  0  0  0
   -0.2714   -2.2563   -0.9310 C   0  0  0  0  0  0  0  0  0  0  0  0
   -0.5102   -1.2401    0.0130 C   0  0  0  0  0  0  0  0  0  0  0  0
   -1.9006   -1.1939    0.6293 C   0  0  0  0  0  0  0  0  0  0  0  0
   -2.9509   -0.8317   -0.3368 N   0  0  0  0  0  0  0  0  0  0  0  0
   -2.7728    0.5453   -0.8514 C   0  0  0  0  0  0  0  0  0  0  0  0
   -4.0909    1.1321   -1.3775 C   0  0  0  0  0  0  0  0  0  0  0  0
   -5.0787    1.2786   -0.3466 O   0  0  0  0  0  0  0  0  0  0  0  0
   -4.9459    0.3089    0.7009 C   0  0  0  0  0  0  0  0  0  0  0  0
   -4.3046   -1.0057    0.2307 C   0  0  0  0  0  0  0  0  0  0  0  0
    0.5318   -0.3238    0.3356 C   0  0  0  0  0  0  0  0  0  0  0  0
    0.3941    0.7399    1.2545 C   0  0  0  0  0  0  0  0  0  0  0  0
    1.4467    1.6141    1.5415 C   0  0  0  0  0  0  0  0  0  0  0  0
    2.6867    1.4644    0.9196 C   0  0  0  0  0  0  0  0  0  0  0  0
    3.7492    2.3363    1.2018 C   0  0  0  0  0  0  0  0  0  0  0  0
    2.8662    0.4166   -0.0094 C   0  0  0  0  0  0  0  0  0  0  0  0
    1.7948   -0.4726   -0.3017 C   0  0  0  0  0  0  0  0  0  0  0  0
    5.7990    2.8593    0.7988 H   0  0  0  0  0  0  0  0  0  0  0  0
    6.1368    1.0404   -0.8269 H   0  0  0  0  0  0  0  0  0  0  0  0
    5.2562   -0.9095   -2.0693 H   0  0  0  0  0  0  0  0  0  0  0  0
    3.4263   -2.4422   -2.5870 H   0  0  0  0  0  0  0  0  0  0  0  0
    1.1095   -3.1888   -2.2726 H   0  0  0  0  0  0  0  0  0  0  0  0
   -1.0704   -2.9482   -1.1934 H   0  0  0  0  0  0  0  0  0  0  0  0
   -2.0954   -2.2074    1.0085 H   0  0  0  0  0  0  0  0  0  0  0  0
   -1.9482   -0.5527    1.5141 H   0  0  0  0  0  0  0  0  0  0  0  0
   -2.0325    0.5401   -1.6587 H   0  0  0  0  0  0  0  0  0  0  0  0
   -2.4078    1.2076   -0.0560 H   0  0  0  0  0  0  0  0  0  0  0  0
   -4.5117    0.5044   -2.1718 H   0  0  0  0  0  0  0  0  0  0  0  0
   -3.9169    2.1246   -1.8057 H   0  0  0  0  0  0  0  0  0  0  0  0
   -4.3586    0.7589    1.5099 H   0  0  0  0  0  0  0  0  0  0  0  0
   -5.9485    0.1170    1.0965 H   0  0  0  0  0  0  0  0  0  0  0  0
   -4.9304   -1.4262   -0.5667 H   0  0  0  0  0  0  0  0  0  0  0  0
   -4.3138   -1.7406    1.0442 H   0  0  0  0  0  0  0  0  0  0  0  0
   -0.5437    0.9219    1.7704 H   0  0  0  0  0  0  0  0  0  0  0  0
    1.2820    2.4158    2.2582 H   0  0  0  0  0  0  0  0  0  0  0  0
    3.6226    3.1472    1.9156 H   0  0  0  0  0  0  0  0  0  0  0  0
  1  2  2  0
  2  3  1  0
  3  4  2  0
  4  5  1  0
  5  6  2  0
  6  7  1  0
  7  8  2  0
  8  9  1  0
  9 10  1  0
 10 11  1  0
 11 12  1  0
 12 13  1  0
 13 14  1  0
 14 15  1  0
 15 16  1  0
  9 17  2  0
 17 18  1  0
 18 19  2  0
 19 20  1  0
 20 21  2  0
 20 22  1  0
 22 23  2  0
 21  1  1  0
 22  3  1  0
 23  6  1  0
 16 11  1  0
 23 17  1  0
  1 24  1  0
  2 25  1  0
  4 26  1  0
  5 27  1  0
  7 28  1  0
  8 29  1  0
 10 30  1  0
 10 31  1  0
 12 32  1  0
 12 33  1  0
 13 34  1  0
 13 35  1  0
 15 36  1  0
 15 37  1  0
 16 38  1  0
 16 39  1  0
 18 40  1  0
 19 41  1  0
 21 42  1  0
M  END
$$$$
