
     RDKit          3D

 57 60  0  0  0  0  0  0  0  0999 V2000
   -7.7525    0.7458    3.6760 C   0  0  0  0  0  0  0  0  0  0  0  0
   -7.4289    1.7523    2.5828 C   0  0  0  0  0  0  0  0  0  0  0  0
   -6.2857    1.2905    1.7166 C   0  0  0  0  0  0  0  0  0  0  0  0
   -4.9617    1.5124    2.1071 C   0  0  0  0  0  0  0  0  0  0  0  0
   -3.8988    1.0660    1.3116 C   0  0  0  0  0  0  0  0  0  0  0  0
   -4.1230    0.3787    0.1051 C   0  0  0  0  0  0  0  0  0  0  0  0
   -3.0159   -0.1053   -0.7480 C   0  0  0  0  0  0  0  0  0  0  0  0
   -1.7794   -0.4746   -0.2493 C   0  0  0  0  0  0  0  0  0  0  0  0
   -0.7999   -0.9050   -1.1457 C   0  0  0  0  0  0  0  0  0  0  0  0
    0.5252   -1.2193   -0.5640 C   0  0  0  0  0  0  0  0  0  0  0  0
    0.5816   -2.0658    0.3166 O   0  0  0  0  0  0  0  0  0  0  0  0
    1.5543   -0.4457   -1.0663 N   0  0  0  0  0  0  0  0  0  0  0  0
    2.9205   -0.5151   -0.7272 C   0  0  0  0  0  0  0  0  0  0  0  0
    3.4562   -1.4455    0.1670 C   0  0  0  0  0  0  0  0  0  0  0  0
    4.8279   -1.4569    0.4454 C   0  0  0  0  0  0  0  0  0  0  0  0
    5.6669   -0.5229   -0.1626 C   0  0  0  0  0  0  0  0  0  0  0  0
    7.4119   -0.5597    0.1555 S   0  0  0  0  0  6  0  0  0  0  0  0
    8.0702    0.0519   -0.9817 O   0  0  0  0  0  0  0  0  0  0  0  0
    7.7916   -1.8784    0.6053 O   0  0  0  0  0  0  0  0  0  0  0  0
    7.5982    0.5278    1.3967 N   0  0  0  0  0  0  0  0  0  0  0  0
    7.1345    0.3459    2.7047 C   0  0  0  0  0  0  0  0  0  0  0  0
    7.5309    1.4426    3.6525 C   0  0  0  0  0  0  0  0  0  0  0  0
    6.4332   -0.5932    3.0483 O   0  0  0  0  0  0  0  0  0  0  0  0
    5.1493    0.4025   -1.0711 C   0  0  0  0  0  0  0  0  0  0  0  0
    3.7787    0.4049   -1.3467 C   0  0  0  0  0  0  0  0  0  0  0  0
   -1.0665   -1.0181   -2.5265 C   0  0  0  0  0  0  0  0  0  0  0  0
   -0.1594   -1.5165   -3.4978 C   0  0  0  0  0  0  0  0  0  0  0  0
   -0.5119   -1.5800   -4.8443 C   0  0  0  0  0  0  0  0  0  0  0  0
   -1.7726   -1.1575   -5.2393 C   0  0  0  0  0  0  0  0  0  0  0  0
   -2.6751   -0.6867   -4.2831 C   0  0  0  0  0  0  0  0  0  0  0  0
   -2.3500   -0.6167   -2.9350 C   0  0  0  0  0  0  0  0  0  0  0  0
   -3.2822   -0.1685   -2.0776 N   0  0  0  0  0  0  0  0  0  0  0  0
   -5.4624    0.1686   -0.2718 C   0  0  0  0  0  0  0  0  0  0  0  0
   -6.5279    0.6110    0.5203 C   0  0  0  0  0  0  0  0  0  0  0  0
   -6.8935    0.5844    4.3353 H   0  0  0  0  0  0  0  0  0  0  0  0
   -8.0357   -0.2232    3.2505 H   0  0  0  0  0  0  0  0  0  0  0  0
   -8.5865    1.1056    4.2867 H   0  0  0  0  0  0  0  0  0  0  0  0
   -7.1805    2.7217    3.0309 H   0  0  0  0  0  0  0  0  0  0  0  0
   -8.3185    1.9227    1.9651 H   0  0  0  0  0  0  0  0  0  0  0  0
   -4.7455    2.0377    3.0350 H   0  0  0  0  0  0  0  0  0  0  0  0
   -2.8880    1.2807    1.6502 H   0  0  0  0  0  0  0  0  0  0  0  0
   -1.5630   -0.4444    0.8139 H   0  0  0  0  0  0  0  0  0  0  0  0
    1.2993    0.2666   -1.7406 H   0  0  0  0  0  0  0  0  0  0  0  0
    2.8343   -2.1846    0.6642 H   0  0  0  0  0  0  0  0  0  0  0  0
    5.2264   -2.1918    1.1438 H   0  0  0  0  0  0  0  0  0  0  0  0
    8.1502    1.3384    1.1369 H   0  0  0  0  0  0  0  0  0  0  0  0
    6.9537    2.3439    3.4283 H   0  0  0  0  0  0  0  0  0  0  0  0
    7.3272    1.1310    4.6808 H   0  0  0  0  0  0  0  0  0  0  0  0
    8.6000    1.6571    3.5560 H   0  0  0  0  0  0  0  0  0  0  0  0
    5.7993    1.1154   -1.5731 H   0  0  0  0  0  0  0  0  0  0  0  0
    3.3939    1.1331   -2.0569 H   0  0  0  0  0  0  0  0  0  0  0  0
    0.8246   -1.8824   -3.2092 H   0  0  0  0  0  0  0  0  0  0  0  0
    0.1911   -1.9679   -5.5775 H   0  0  0  0  0  0  0  0  0  0  0  0
   -2.0651   -1.2042   -6.2852 H   0  0  0  0  0  0  0  0  0  0  0  0
   -3.6676   -0.3712   -4.5992 H   0  0  0  0  0  0  0  0  0  0  0  0
   -5.6867   -0.3560   -1.2000 H   0  0  0  0  0  0  0  0  0  0  0  0
   -7.5465    0.4180    0.1911 H   0  0  0  0  0  0  0  0  0  0  0  0
  1  2  1  0
  2  3  1  0
  3  4  2  0
  4  5  1  0
  5  6  2  0
  6  7  1  0
  7  8  2  0
  8  9  1  0
  9 10  1  0
 10 11  2  0
 10 12  1  0
 12 13  1  0
 13 14  2  0
 14 15  1  0
 15 16  2  0
 16 17  1  0
 17 18  2  0
 17 19  2  0
 17 20  1  0
 20 21  1  0
 21 22  1  0
 21 23  2  0
 16 24  1  0
 24 25  2  0
  9 26  2  0
 26 27  1  0
 27 28  2  0
 28 29  1  0
 29 30  2  0
 30 31  1  0
 31 32  2  0
  6 33  1  0
 33 34  2  0
 34  3  1  0
 32  7  1  0
 25 13  1  0
 31 26  1  0
  1 35  1  0
  1 36  1  0
  1 37  1  0
  2 38  1  0
  2 39  1  0
  4 40  1  0
  5 41  1  0
  8 42  1  0
 12 43  1  0
 14 44  1  0
 15 45  1  0
 20 46  1  0
 22 47  1  0
 22 48  1  0
 22 49  1  0
 24 50  1  0
 25 51  1  0
 27 52  1  0
 28 53  1  0
 29 54  1  0
 30 55  1  0
 33 56  1  0
 34 57  1  0
M  END
$$$$
