
     RDKit          3D

 45 48  0  0  0  0  0  0  0  0999 V2000
    4.7425    2.0882   -0.1697 C   0  0  0  0  0  0  0  0  0  0  0  0
    3.8037    1.0564   -0.7703 C   0  0  0  0  0  0  0  0  0  0  0  0
    3.5987    0.0298    0.2122 O   0  0  0  0  0  0  0  0  0  0  0  0
    2.9887   -1.0670   -0.3536 C   0  0  0  0  0  0  0  0  0  0  0  0
    3.8380   -2.0109   -0.9511 C   0  0  0  0  0  0  0  0  0  0  0  0
    3.3111   -3.1569   -1.5406 C   0  0  0  0  0  0  0  0  0  0  0  0
    1.9373   -3.3702   -1.5184 C   0  0  0  0  0  0  0  0  0  0  0  0
    1.0955   -2.4415   -0.8955 C   0  0  0  0  0  0  0  0  0  0  0  0
    1.5932   -1.2661   -0.2837 C   0  0  0  0  0  0  0  0  0  0  0  0
    0.6625   -0.3323    0.3866 C   0  0  0  0  0  0  0  0  0  0  0  0
    1.1590    0.5071    1.3178 N   0  0  0  0  0  0  0  0  0  0  0  0
    0.2842    1.3430    1.9242 C   0  0  0  0  0  0  0  0  0  0  0  0
    0.8487    2.2669    2.9469 C   0  0  0  0  0  0  0  0  0  0  0  0
    2.2023    2.1768    3.1378 N   0  0  0  0  0  0  0  0  0  0  0  0
    0.1514    3.0503    3.5791 O   0  0  0  0  0  0  0  0  0  0  0  0
   -1.0438    1.3389    1.6197 C   0  0  0  0  0  0  0  0  0  0  0  0
   -2.1162    2.0826    2.0830 N   0  0  0  0  0  0  0  0  0  0  0  0
   -3.2751    1.6648    1.4147 C   0  0  0  0  0  0  0  0  0  0  0  0
   -4.3761    2.1467    1.6275 O   0  0  0  0  0  0  0  0  0  0  0  0
   -2.8753    0.6266    0.5165 N   0  0  0  0  0  0  0  0  0  0  0  0
   -3.7143   -0.0984   -0.3775 C   0  0  0  0  0  0  0  0  0  0  0  0
   -3.2581   -1.1851   -1.1423 C   0  0  0  0  0  0  0  0  0  0  0  0
   -4.1061   -1.8831   -2.0146 C   0  0  0  0  0  0  0  0  0  0  0  0
   -5.4322   -1.5045   -2.1330 C   0  0  0  0  0  0  0  0  0  0  0  0
   -6.2423   -2.1722   -2.9617 F   0  0  0  0  0  0  0  0  0  0  0  0
   -5.9230   -0.4417   -1.3985 C   0  0  0  0  0  0  0  0  0  0  0  0
   -5.0700    0.2537   -0.5304 C   0  0  0  0  0  0  0  0  0  0  0  0
   -1.4722    0.4465    0.6681 C   0  0  0  0  0  0  0  0  0  0  0  0
   -0.6455   -0.3951    0.0356 N   0  0  0  0  0  0  0  0  0  0  0  0
    4.3008    2.5255    0.7304 H   0  0  0  0  0  0  0  0  0  0  0  0
    4.9548    2.8878   -0.8880 H   0  0  0  0  0  0  0  0  0  0  0  0
    5.6882    1.6197    0.1299 H   0  0  0  0  0  0  0  0  0  0  0  0
    4.2554    0.6538   -1.6864 H   0  0  0  0  0  0  0  0  0  0  0  0
    2.8473    1.5345   -1.0178 H   0  0  0  0  0  0  0  0  0  0  0  0
    4.9134   -1.8460   -0.9545 H   0  0  0  0  0  0  0  0  0  0  0  0
    3.9704   -3.8822   -2.0103 H   0  0  0  0  0  0  0  0  0  0  0  0
    1.5152   -4.2651   -1.9738 H   0  0  0  0  0  0  0  0  0  0  0  0
    0.0267   -2.6562   -0.8783 H   0  0  0  0  0  0  0  0  0  0  0  0
    2.7373    1.4685    2.6387 H   0  0  0  0  0  0  0  0  0  0  0  0
    2.6424    2.7176    3.8682 H   0  0  0  0  0  0  0  0  0  0  0  0
   -2.0751    2.8084    2.7887 H   0  0  0  0  0  0  0  0  0  0  0  0
   -2.2372   -1.5402   -1.0884 H   0  0  0  0  0  0  0  0  0  0  0  0
   -3.7326   -2.7187   -2.5966 H   0  0  0  0  0  0  0  0  0  0  0  0
   -6.9638   -0.1485   -1.4991 H   0  0  0  0  0  0  0  0  0  0  0  0
   -5.5096    1.0878    0.0084 H   0  0  0  0  0  0  0  0  0  0  0  0
  1  2  1  0
  2  3  1  0
  3  4  1  0
  4  5  2  0
  5  6  1  0
  6  7  2  0
  7  8  1  0
  8  9  2  0
  9 10  1  0
 10 11  2  0
 11 12  1  0
 12 13  1  0
 13 14  1  0
 13 15  2  0
 12 16  2  0
 16 17  1  0
 17 18  1  0
 18 19  2  0
 18 20  1  0
 20 21  1  0
 21 22  2  0
 22 23  1  0
 23 24  2  0
 24 25  1  0
 24 26  1  0
 26 27  2  0
 20 28  1  0
 28 29  2  0
  9  4  1  0
 29 10  1  0
 28 16  1  0
 27 21  1  0
  1 30  1  0
  1 31  1  0
  1 32  1  0
  2 33  1  0
  2 34  1  0
  5 35  1  0
  6 36  1  0
  7 37  1  0
  8 38  1  0
 14 39  1  0
 14 40  1  0
 17 41  1  0
 22 42  1  0
 23 43  1  0
 26 44  1  0
 27 45  1  0
M  END
$$$$
