
     RDKit          3D

 33 35  0  0  0  0  0  0  0  0999 V2000
    5.0208    1.1364   -1.3357 C   0  0  0  0  0  0  0  0  0  0  0  0
    4.3076    0.3818   -0.3310 N   0  0  0  0  0  0  0  0  0  0  0  0
    4.8510   -0.3753    0.6616 C   0  0  0  0  0  0  0  0  0  0  0  0
    3.7792   -0.9030    1.3519 C   0  0  0  0  0  0  0  0  0  0  0  0
    3.8619   -1.7980    2.4555 N   0  0  0  0  0  4  0  0  0  0  0  0
    3.2776   -2.8802    2.3383 O   0  0  0  0  0  0  0  0  0  0  0  0
    4.5762   -1.4420    3.4008 O   0  0  0  0  0  1  0  0  0  0  0  0
    2.6235   -0.3838    0.7306 C   0  0  0  0  0  0  0  0  0  0  0  0
    1.2153   -0.5685    1.1197 C   0  0  0  0  0  0  0  0  0  0  0  0
    0.9161   -1.1164    2.1704 O   0  0  0  0  0  0  0  0  0  0  0  0
    0.3660   -0.0202    0.1755 N   0  0  0  0  0  0  0  0  0  0  0  0
   -1.0178    0.0064    0.1850 C   0  0  0  0  0  0  0  0  0  0  0  0
   -1.9132   -0.7343    1.4535 S   0  0  0  0  0  0  0  0  0  0  0  0
   -3.3560   -0.2841    0.7479 C   0  0  0  0  0  0  0  0  0  0  0  0
   -3.2113    0.4098   -0.4197 C   0  0  0  0  0  0  0  0  0  0  0  0
   -1.8525    0.5885   -0.7644 C   0  0  0  0  0  0  0  0  0  0  0  0
   -1.3867    1.2750   -1.9295 C   0  0  0  0  0  0  0  0  0  0  0  0
   -0.9909    1.8283   -2.8698 N   0  0  0  0  0  0  0  0  0  0  0  0
   -4.5324    0.7788   -0.9882 C   0  0  0  0  0  0  0  0  0  0  0  0
   -5.5111   -0.1085   -0.1550 C   0  0  0  0  0  0  0  0  0  0  0  0
   -4.7629   -0.4990    1.1573 C   0  0  0  0  0  0  0  0  0  0  0  0
    2.9589    0.3893   -0.3303 N   0  0  0  0  0  0  0  0  0  0  0  0
    4.7359    0.7537   -2.3188 H   0  0  0  0  0  0  0  0  0  0  0  0
    4.7435    2.1887   -1.2357 H   0  0  0  0  0  0  0  0  0  0  0  0
    6.0963    1.0166   -1.1844 H   0  0  0  0  0  0  0  0  0  0  0  0
    5.9191   -0.4890    0.7909 H   0  0  0  0  0  0  0  0  0  0  0  0
    0.8523    0.4300   -0.5993 H   0  0  0  0  0  0  0  0  0  0  0  0
   -4.6122    0.5590   -2.0563 H   0  0  0  0  0  0  0  0  0  0  0  0
   -4.7394    1.8405   -0.8178 H   0  0  0  0  0  0  0  0  0  0  0  0
   -6.4625    0.3951    0.0427 H   0  0  0  0  0  0  0  0  0  0  0  0
   -5.7340   -1.0216   -0.7230 H   0  0  0  0  0  0  0  0  0  0  0  0
   -5.0391    0.1773    1.9726 H   0  0  0  0  0  0  0  0  0  0  0  0
   -4.9792   -1.5314    1.4447 H   0  0  0  0  0  0  0  0  0  0  0  0
  1  2  1  0
  2  3  1  0
  3  4  2  0
  4  5  1  0
  5  6  2  0
  5  7  1  0
  4  8  1  0
  8  9  1  0
  9 10  2  0
  9 11  1  0
 11 12  1  0
 12 13  1  0
 13 14  1  0
 14 15  2  0
 15 16  1  0
 16 17  1  0
 17 18  3  0
 15 19  1  0
 19 20  1  0
 20 21  1  0
  8 22  2  0
 22  2  1  0
 16 12  2  0
 21 14  1  0
  1 23  1  0
  1 24  1  0
  1 25  1  0
  3 26  1  0
 11 27  1  0
 19 28  1  0
 19 29  1  0
 20 30  1  0
 20 31  1  0
 21 32  1  0
 21 33  1  0
M  CHG  2   5   1   7  -1
M  END
$$$$
