
     RDKit          3D

 44 47  0  0  0  0  0  0  0  0999 V2000
   -5.9065   -0.4956    3.1154 C   0  0  0  0  0  0  0  0  0  0  0  0
   -5.4003   -1.0020    1.7777 C   0  0  0  0  0  0  0  0  0  0  0  0
   -4.6549    0.0510    1.1499 O   0  0  0  0  0  0  0  0  0  0  0  0
   -3.4330   -0.3691    0.7021 C   0  0  0  0  0  0  0  0  0  0  0  0
   -2.4346   -0.6980    1.6182 C   0  0  0  0  0  0  0  0  0  0  0  0
   -1.1767   -1.1039    1.1663 C   0  0  0  0  0  0  0  0  0  0  0  0
   -0.8985   -1.1563   -0.2038 C   0  0  0  0  0  0  0  0  0  0  0  0
    0.4142   -1.5765   -0.7086 C   0  0  0  0  0  0  0  0  0  0  0  0
    1.5932   -0.9950   -0.4411 C   0  0  0  0  0  0  0  0  0  0  0  0
    1.8816    0.4115    0.5673 S   0  0  0  0  0  0  0  0  0  0  0  0
    3.5589    0.2984    0.2361 C   0  0  0  0  0  0  0  0  0  0  0  0
    4.6195    0.9633    0.5928 N   0  0  0  0  0  0  0  0  0  0  0  0
    5.6153    0.2731   -0.0857 C   0  0  0  0  0  0  0  0  0  0  0  0
    7.1192    0.6917    0.0077 C   0  0  0  0  0  0  0  0  0  0  0  0
    7.6079    1.7489    0.7508 C   0  0  0  0  0  0  0  0  0  0  0  0
    9.0097    1.7734    0.5526 C   0  0  0  0  0  0  0  0  0  0  0  0
    9.2909    0.7323   -0.3001 C   0  0  0  0  0  0  0  0  0  0  0  0
    8.1546    0.0702   -0.6337 O   0  0  0  0  0  0  0  0  0  0  0  0
    5.1890   -0.7731   -0.8228 N   0  0  0  0  0  0  0  0  0  0  0  0
    3.8684   -0.7214   -0.5878 N   0  0  0  0  0  0  0  0  0  0  0  0
    2.8514   -1.5291   -1.0494 C   0  0  0  0  0  0  0  0  0  0  0  0
    3.0099   -2.4728   -1.8025 O   0  0  0  0  0  0  0  0  0  0  0  0
   -1.9068   -0.8276   -1.1219 C   0  0  0  0  0  0  0  0  0  0  0  0
   -3.1586   -0.4021   -0.6691 C   0  0  0  0  0  0  0  0  0  0  0  0
   -4.0860   -0.0915   -1.6296 O   0  0  0  0  0  0  0  0  0  0  0  0
   -4.4297    1.2992   -1.5948 C   0  0  0  0  0  0  0  0  0  0  0  0
   -5.1250    1.6380   -2.8999 C   0  0  0  0  0  0  0  0  0  0  0  0
   -5.0715   -0.2823    3.7901 H   0  0  0  0  0  0  0  0  0  0  0  0
   -6.4603    0.4403    2.9889 H   0  0  0  0  0  0  0  0  0  0  0  0
   -6.5608   -1.2326    3.5876 H   0  0  0  0  0  0  0  0  0  0  0  0
   -6.2503   -1.2382    1.1272 H   0  0  0  0  0  0  0  0  0  0  0  0
   -4.8250   -1.9247    1.9185 H   0  0  0  0  0  0  0  0  0  0  0  0
   -2.6290   -0.6313    2.6843 H   0  0  0  0  0  0  0  0  0  0  0  0
   -0.4189   -1.3708    1.9006 H   0  0  0  0  0  0  0  0  0  0  0  0
    0.3802   -2.4293   -1.3872 H   0  0  0  0  0  0  0  0  0  0  0  0
    7.0147    2.4185    1.3588 H   0  0  0  0  0  0  0  0  0  0  0  0
    9.7254    2.4643    0.9750 H   0  0  0  0  0  0  0  0  0  0  0  0
   10.2007    0.3485   -0.7414 H   0  0  0  0  0  0  0  0  0  0  0  0
   -1.7224   -0.8737   -2.1950 H   0  0  0  0  0  0  0  0  0  0  0  0
   -5.1139    1.5065   -0.7688 H   0  0  0  0  0  0  0  0  0  0  0  0
   -3.5326    1.9214   -1.4911 H   0  0  0  0  0  0  0  0  0  0  0  0
   -5.3749    2.7013   -2.9401 H   0  0  0  0  0  0  0  0  0  0  0  0
   -4.4898    1.3902   -3.7554 H   0  0  0  0  0  0  0  0  0  0  0  0
   -6.0447    1.0554   -3.0074 H   0  0  0  0  0  0  0  0  0  0  0  0
  1  2  1  0
  2  3  1  0
  3  4  1  0
  4  5  2  0
  5  6  1  0
  6  7  2  0
  7  8  1  0
  8  9  2  3
  9 10  1  0
 10 11  1  0
 11 12  2  0
 12 13  1  0
 13 14  1  0
 14 15  2  0
 15 16  1  0
 16 17  2  0
 17 18  1  0
 13 19  2  0
 19 20  1  0
 20 21  1  0
 21 22  2  0
  7 23  1  0
 23 24  2  0
 24 25  1  0
 25 26  1  0
 26 27  1  0
 24  4  1  0
 21  9  1  0
 20 11  1  0
 18 14  1  0
  1 28  1  0
  1 29  1  0
  1 30  1  0
  2 31  1  0
  2 32  1  0
  5 33  1  0
  6 34  1  0
  8 35  1  0
 15 36  1  0
 16 37  1  0
 17 38  1  0
 23 39  1  0
 26 40  1  0
 26 41  1  0
 27 42  1  0
 27 43  1  0
 27 44  1  0
M  END
$$$$
