
     RDKit          3D

 57 59  0  0  0  0  0  0  0  0999 V2000
   -9.2908   -0.0250   -3.1834 C   0  0  0  0  0  0  0  0  0  0  0  0
   -8.2693   -0.9587   -2.8558 O   0  0  0  0  0  0  0  0  0  0  0  0
   -7.3779   -0.5888   -1.8871 C   0  0  0  0  0  0  0  0  0  0  0  0
   -6.4217   -1.5617   -1.5750 C   0  0  0  0  0  0  0  0  0  0  0  0
   -5.4475   -1.3190   -0.6056 C   0  0  0  0  0  0  0  0  0  0  0  0
   -5.4288   -0.0864    0.0490 C   0  0  0  0  0  0  0  0  0  0  0  0
   -4.1855    0.2199    1.2763 S   0  0  0  0  0  6  0  0  0  0  0  0
   -4.4338    1.5158    1.8704 O   0  0  0  0  0  0  0  0  0  0  0  0
   -4.0718   -0.9680    2.0942 O   0  0  0  0  0  0  0  0  0  0  0  0
   -2.7860    0.3369    0.3483 N   0  0  0  0  0  0  0  0  0  0  0  0
   -2.6869    1.4350   -0.6246 C   0  0  0  0  0  0  0  0  0  0  0  0
   -1.1922    1.5512   -0.8125 C   0  0  0  0  0  0  0  0  0  0  0  0
   -0.6704    1.3374    0.4994 O   0  0  0  0  0  0  0  0  0  0  0  0
   -1.5375    0.3812    1.1432 C   0  0  0  0  0  0  0  0  0  0  0  0
   -0.8804   -1.0192    1.1714 C   0  0  0  0  0  0  0  0  0  0  0  0
    0.4089   -1.0383    1.8382 N   0  0  0  0  0  0  0  0  0  0  0  0
    1.5818   -0.7949    1.1580 C   0  0  0  0  0  0  0  0  0  0  0  0
    1.7129   -0.7172   -0.0555 O   0  0  0  0  0  0  0  0  0  0  0  0
    2.8061   -0.6257    2.0871 C   0  0  0  0  0  0  0  0  0  0  0  0
    2.6784   -0.7586    3.2967 O   0  0  0  0  0  0  0  0  0  0  0  0
    3.9701   -0.3371    1.4193 N   0  0  0  0  0  0  0  0  0  0  0  0
    5.2476   -0.3762    2.0818 C   0  0  0  0  0  0  0  0  0  0  0  0
    6.3064    0.3141    1.2608 C   0  0  0  0  0  0  0  0  0  0  0  0
    6.5866    1.6692    1.5080 C   0  0  0  0  0  0  0  0  0  0  0  0
    7.5475    2.3446    0.7585 C   0  0  0  0  0  0  0  0  0  0  0  0
    8.2321    1.6757   -0.2509 C   0  0  0  0  0  0  0  0  0  0  0  0
    7.9538    0.3325   -0.5180 C   0  0  0  0  0  0  0  0  0  0  0  0
    6.9898   -0.3549    0.2276 C   0  0  0  0  0  0  0  0  0  0  0  0
    6.6367   -1.6641    0.0283 O   0  0  0  0  0  0  0  0  0  0  0  0
    7.2949   -2.3686   -1.0168 C   0  0  0  0  0  0  0  0  0  0  0  0
   -6.3821    0.8911   -0.2454 C   0  0  0  0  0  0  0  0  0  0  0  0
   -7.3556    0.6374   -1.2174 C   0  0  0  0  0  0  0  0  0  0  0  0
   -9.9247    0.1876   -2.3163 H   0  0  0  0  0  0  0  0  0  0  0  0
   -8.8654    0.8948   -3.5983 H   0  0  0  0  0  0  0  0  0  0  0  0
   -9.9220   -0.4770   -3.9546 H   0  0  0  0  0  0  0  0  0  0  0  0
   -6.4416   -2.5194   -2.0909 H   0  0  0  0  0  0  0  0  0  0  0  0
   -4.7147   -2.0868   -0.3681 H   0  0  0  0  0  0  0  0  0  0  0  0
   -3.1971    1.2050   -1.5626 H   0  0  0  0  0  0  0  0  0  0  0  0
   -3.0831    2.3652   -0.2043 H   0  0  0  0  0  0  0  0  0  0  0  0
   -0.8014    0.7720   -1.4764 H   0  0  0  0  0  0  0  0  0  0  0  0
   -0.8837    2.5302   -1.1880 H   0  0  0  0  0  0  0  0  0  0  0  0
   -1.6990    0.7466    2.1632 H   0  0  0  0  0  0  0  0  0  0  0  0
   -0.7401   -1.3845    0.1471 H   0  0  0  0  0  0  0  0  0  0  0  0
   -1.5222   -1.7340    1.6954 H   0  0  0  0  0  0  0  0  0  0  0  0
    0.4637   -1.0038    2.8533 H   0  0  0  0  0  0  0  0  0  0  0  0
    3.9398   -0.4203    0.4070 H   0  0  0  0  0  0  0  0  0  0  0  0
    5.1559    0.0932    3.0691 H   0  0  0  0  0  0  0  0  0  0  0  0
    5.5086   -1.4244    2.2681 H   0  0  0  0  0  0  0  0  0  0  0  0
    6.0499    2.2041    2.2894 H   0  0  0  0  0  0  0  0  0  0  0  0
    7.7585    3.3916    0.9608 H   0  0  0  0  0  0  0  0  0  0  0  0
    8.9819    2.2009   -0.8373 H   0  0  0  0  0  0  0  0  0  0  0  0
    8.5069   -0.1465   -1.3190 H   0  0  0  0  0  0  0  0  0  0  0  0
    6.8920   -3.3857   -1.0386 H   0  0  0  0  0  0  0  0  0  0  0  0
    8.3708   -2.4414   -0.8270 H   0  0  0  0  0  0  0  0  0  0  0  0
    7.0931   -1.9103   -1.9904 H   0  0  0  0  0  0  0  0  0  0  0  0
   -6.3789    1.8474    0.2737 H   0  0  0  0  0  0  0  0  0  0  0  0
   -8.0827    1.4158   -1.4262 H   0  0  0  0  0  0  0  0  0  0  0  0
  1  2  1  0
  2  3  1  0
  3  4  2  0
  4  5  1  0
  5  6  2  0
  6  7  1  0
  7  8  2  0
  7  9  2  0
  7 10  1  0
 10 11  1  0
 11 12  1  0
 12 13  1  0
 13 14  1  0
 14 15  1  0
 15 16  1  0
 16 17  1  0
 17 18  2  0
 17 19  1  0
 19 20  2  0
 19 21  1  0
 21 22  1  0
 22 23  1  0
 23 24  2  0
 24 25  1  0
 25 26  2  0
 26 27  1  0
 27 28  2  0
 28 29  1  0
 29 30  1  0
  6 31  1  0
 31 32  2  0
 32  3  1  0
 14 10  1  0
 28 23  1  0
  1 33  1  0
  1 34  1  0
  1 35  1  0
  4 36  1  0
  5 37  1  0
 11 38  1  0
 11 39  1  0
 12 40  1  0
 12 41  1  0
 14 42  1  0
 15 43  1  0
 15 44  1  0
 16 45  1  0
 21 46  1  0
 22 47  1  0
 22 48  1  0
 24 49  1  0
 25 50  1  0
 26 51  1  0
 27 52  1  0
 30 53  1  0
 30 54  1  0
 30 55  1  0
 31 56  1  0
 32 57  1  0
M  END
$$$$
