
     RDKit          3D

 62 66  0  0  0  0  0  0  0  0999 V2000
   -4.5542    6.2079   -1.6173 C   0  0  0  0  0  0  0  0  0  0  0  0
   -3.6468    5.1357   -1.3963 O   0  0  0  0  0  0  0  0  0  0  0  0
   -4.1623    3.9868   -0.8611 C   0  0  0  0  0  0  0  0  0  0  0  0
   -5.4852    3.7778   -0.4961 C   0  0  0  0  0  0  0  0  0  0  0  0
   -5.8912    2.5516    0.0430 C   0  0  0  0  0  0  0  0  0  0  0  0
   -4.9416    1.5262    0.2155 C   0  0  0  0  0  0  0  0  0  0  0  0
   -5.2240   -0.0430    0.8549 S   0  0  0  0  0  0  0  0  0  0  0  0
   -3.5892   -0.5066    0.6696 C   0  0  0  0  0  0  0  0  0  0  0  0
   -3.1936   -1.8523    1.1063 C   0  0  0  0  0  0  0  0  0  0  0  0
   -2.6376   -2.0061    2.3870 C   0  0  0  0  0  0  0  0  0  0  0  0
   -2.2398   -3.2621    2.8407 C   0  0  0  0  0  0  0  0  0  0  0  0
   -2.3917   -4.3738    2.0176 C   0  0  0  0  0  0  0  0  0  0  0  0
   -2.9387   -4.2344    0.7385 C   0  0  0  0  0  0  0  0  0  0  0  0
   -3.3428   -2.9784    0.2703 C   0  0  0  0  0  0  0  0  0  0  0  0
   -3.8727   -2.7493   -0.9750 O   0  0  0  0  0  0  0  0  0  0  0  0
   -4.0899   -3.8738   -1.8150 C   0  0  0  0  0  0  0  0  0  0  0  0
   -2.8237    0.5154    0.1324 C   0  0  0  0  0  0  0  0  0  0  0  0
   -1.3923    0.3591   -0.0998 C   0  0  0  0  0  0  0  0  0  0  0  0
   -0.4745    1.0572    0.6919 C   0  0  0  0  0  0  0  0  0  0  0  0
    0.9006    0.9177    0.4717 C   0  0  0  0  0  0  0  0  0  0  0  0
    1.3669    0.0805   -0.5428 C   0  0  0  0  0  0  0  0  0  0  0  0
    2.6777   -0.1454   -0.8613 O   0  0  0  0  0  0  0  0  0  0  0  0
    3.6645    0.5231   -0.0684 C   0  0  0  0  0  0  0  0  0  0  0  0
    5.0505    0.1281   -0.6046 C   0  0  0  0  0  0  0  0  0  0  0  0
    6.1573    0.7956    0.1081 N   0  0  0  0  0  0  0  0  0  0  0  0
    6.4218    0.1936    1.4252 C   0  0  0  0  0  0  0  0  0  0  0  0
    7.3438   -0.9927    1.1762 C   0  0  0  0  0  0  0  0  0  0  0  0
    7.9743   -0.7294   -0.1835 C   0  0  0  0  0  0  0  0  0  0  0  0
    7.4311    0.6250   -0.6108 C   0  0  0  0  0  0  0  0  0  0  0  0
    0.4473   -0.6111   -1.3358 C   0  0  0  0  0  0  0  0  0  0  0  0
   -0.9258   -0.4736   -1.1201 C   0  0  0  0  0  0  0  0  0  0  0  0
   -3.6032    1.7034   -0.1373 C   0  0  0  0  0  0  0  0  0  0  0  0
   -3.2285    2.9587   -0.6849 C   0  0  0  0  0  0  0  0  0  0  0  0
   -5.3346    5.9244   -2.3312 H   0  0  0  0  0  0  0  0  0  0  0  0
   -3.9904    7.0384   -2.0530 H   0  0  0  0  0  0  0  0  0  0  0  0
   -4.9877    6.5583   -0.6748 H   0  0  0  0  0  0  0  0  0  0  0  0
   -6.2398    4.5483   -0.6163 H   0  0  0  0  0  0  0  0  0  0  0  0
   -6.9288    2.3937    0.3242 H   0  0  0  0  0  0  0  0  0  0  0  0
   -2.5129   -1.1408    3.0341 H   0  0  0  0  0  0  0  0  0  0  0  0
   -1.8107   -3.3709    3.8332 H   0  0  0  0  0  0  0  0  0  0  0  0
   -2.0799   -5.3543    2.3689 H   0  0  0  0  0  0  0  0  0  0  0  0
   -3.0306   -5.1279    0.1303 H   0  0  0  0  0  0  0  0  0  0  0  0
   -3.1438   -4.3598   -2.0747 H   0  0  0  0  0  0  0  0  0  0  0  0
   -4.7880   -4.5822   -1.3568 H   0  0  0  0  0  0  0  0  0  0  0  0
   -4.5436   -3.5143   -2.7437 H   0  0  0  0  0  0  0  0  0  0  0  0
   -0.8234    1.7130    1.4864 H   0  0  0  0  0  0  0  0  0  0  0  0
    1.5766    1.4780    1.1087 H   0  0  0  0  0  0  0  0  0  0  0  0
    3.5404    1.6096   -0.1549 H   0  0  0  0  0  0  0  0  0  0  0  0
    3.5605    0.2157    0.9778 H   0  0  0  0  0  0  0  0  0  0  0  0
    5.1501   -0.9653   -0.6007 H   0  0  0  0  0  0  0  0  0  0  0  0
    5.0723    0.4196   -1.6636 H   0  0  0  0  0  0  0  0  0  0  0  0
    6.9443    0.9351    2.0430 H   0  0  0  0  0  0  0  0  0  0  0  0
    5.5229   -0.0916    1.9797 H   0  0  0  0  0  0  0  0  0  0  0  0
    8.1014   -1.0791    1.9618 H   0  0  0  0  0  0  0  0  0  0  0  0
    6.7776   -1.9307    1.1500 H   0  0  0  0  0  0  0  0  0  0  0  0
    7.6722   -1.5100   -0.8913 H   0  0  0  0  0  0  0  0  0  0  0  0
    9.0676   -0.7281   -0.1315 H   0  0  0  0  0  0  0  0  0  0  0  0
    7.3388    0.7169   -1.6984 H   0  0  0  0  0  0  0  0  0  0  0  0
    8.1206    1.4150   -0.2868 H   0  0  0  0  0  0  0  0  0  0  0  0
    0.8023   -1.2631   -2.1298 H   0  0  0  0  0  0  0  0  0  0  0  0
   -1.6249   -1.0186   -1.7501 H   0  0  0  0  0  0  0  0  0  0  0  0
   -2.1947    3.1271   -0.9793 H   0  0  0  0  0  0  0  0  0  0  0  0
  1  2  1  0
  2  3  1  0
  3  4  2  0
  4  5  1  0
  5  6  2  0
  6  7  1  0
  7  8  1  0
  8  9  1  0
  9 10  2  0
 10 11  1  0
 11 12  2  0
 12 13  1  0
 13 14  2  0
 14 15  1  0
 15 16  1  0
  8 17  2  0
 17 18  1  0
 18 19  2  0
 19 20  1  0
 20 21  2  0
 21 22  1  0
 22 23  1  0
 23 24  1  0
 24 25  1  0
 25 26  1  0
 26 27  1  0
 27 28  1  0
 28 29  1  0
 21 30  1  0
 30 31  2  0
 17 32  1  0
 32 33  2  0
 33  3  1  0
 32  6  1  0
 14  9  1  0
 31 18  1  0
 29 25  1  0
  1 34  1  0
  1 35  1  0
  1 36  1  0
  4 37  1  0
  5 38  1  0
 10 39  1  0
 11 40  1  0
 12 41  1  0
 13 42  1  0
 16 43  1  0
 16 44  1  0
 16 45  1  0
 19 46  1  0
 20 47  1  0
 23 48  1  0
 23 49  1  0
 24 50  1  0
 24 51  1  0
 26 52  1  0
 26 53  1  0
 27 54  1  0
 27 55  1  0
 28 56  1  0
 28 57  1  0
 29 58  1  0
 29 59  1  0
 30 60  1  0
 31 61  1  0
 33 62  1  0
M  END
$$$$
