
     RDKit          3D

 46 48  0  0  0  0  0  0  0  0999 V2000
   -2.7608   -1.1022    3.5687 C   0  0  0  0  0  0  0  0  0  0  0  0
   -2.7641   -1.5830    2.1274 C   0  0  0  0  0  0  0  0  0  0  0  0
   -3.2048   -0.5300    1.2014 N   0  0  0  0  0  4  0  0  0  0  0  0
   -2.3590    0.2693    0.5594 C   0  0  0  0  0  0  0  0  0  0  0  0
   -0.9449    0.2967    0.7126 C   0  0  0  0  0  0  0  0  0  0  0  0
   -0.1053    0.4333   -0.3278 C   0  0  0  0  0  0  0  0  0  0  0  0
    1.3356    0.4477   -0.1672 C   0  0  0  0  0  0  0  0  0  0  0  0
    2.1853    0.5266   -1.2047 C   0  0  0  0  0  0  0  0  0  0  0  0
    3.5826    0.5194   -1.1287 N   0  0  0  0  0  0  0  0  0  0  0  0
    4.2759    0.9531    0.0221 C   0  0  0  0  0  0  0  0  0  0  0  0
    3.7139    2.1673    0.7334 C   0  0  0  0  0  0  0  0  0  0  0  0
    5.3126    0.4407    0.4498 O   0  0  0  0  0  0  0  0  0  0  0  0
    4.3690    0.0271   -2.2498 C   0  0  0  0  0  0  0  0  0  0  0  0
    5.7195    0.3814   -2.4099 C   0  0  0  0  0  0  0  0  0  0  0  0
    6.4684   -0.0745   -3.5010 C   0  0  0  0  0  0  0  0  0  0  0  0
    5.8833   -0.8968   -4.4568 C   0  0  0  0  0  0  0  0  0  0  0  0
    4.5503   -1.2669   -4.3202 C   0  0  0  0  0  0  0  0  0  0  0  0
    3.8017   -0.8099   -3.2290 C   0  0  0  0  0  0  0  0  0  0  0  0
   -3.2139    1.3471   -0.4731 S   0  0  0  0  0  0  0  0  0  0  0  0
   -4.7375    0.6981   -0.0186 C   0  0  0  0  0  0  0  0  0  0  0  0
   -6.0163    1.0736   -0.4583 C   0  0  0  0  0  0  0  0  0  0  0  0
   -7.1185    0.3934    0.0646 C   0  0  0  0  0  0  0  0  0  0  0  0
   -6.9524   -0.6263    0.9957 C   0  0  0  0  0  0  0  0  0  0  0  0
   -5.6737   -0.9969    1.4303 C   0  0  0  0  0  0  0  0  0  0  0  0
   -4.5498   -0.3217    0.9099 C   0  0  0  0  0  0  0  0  0  0  0  0
   -2.4245   -1.9012    4.2361 H   0  0  0  0  0  0  0  0  0  0  0  0
   -2.0930   -0.2445    3.6954 H   0  0  0  0  0  0  0  0  0  0  0  0
   -3.7617   -0.7915    3.8834 H   0  0  0  0  0  0  0  0  0  0  0  0
   -3.4157   -2.4573    2.0204 H   0  0  0  0  0  0  0  0  0  0  0  0
   -1.7642   -1.9335    1.8473 H   0  0  0  0  0  0  0  0  0  0  0  0
   -0.5370    0.1854    1.7147 H   0  0  0  0  0  0  0  0  0  0  0  0
   -0.4762    0.5309   -1.3484 H   0  0  0  0  0  0  0  0  0  0  0  0
    1.7191    0.3438    0.8447 H   0  0  0  0  0  0  0  0  0  0  0  0
    1.7870    0.5486   -2.2171 H   0  0  0  0  0  0  0  0  0  0  0  0
    3.0254    2.7359    0.1037 H   0  0  0  0  0  0  0  0  0  0  0  0
    3.2204    1.8633    1.6593 H   0  0  0  0  0  0  0  0  0  0  0  0
    4.5451    2.8355    0.9815 H   0  0  0  0  0  0  0  0  0  0  0  0
    6.2239    1.0331   -1.7007 H   0  0  0  0  0  0  0  0  0  0  0  0
    7.5121    0.2158   -3.5980 H   0  0  0  0  0  0  0  0  0  0  0  0
    6.4681   -1.2534   -5.3011 H   0  0  0  0  0  0  0  0  0  0  0  0
    4.0935   -1.9216   -5.0583 H   0  0  0  0  0  0  0  0  0  0  0  0
    2.7778   -1.1616   -3.1514 H   0  0  0  0  0  0  0  0  0  0  0  0
   -6.1542    1.8719   -1.1845 H   0  0  0  0  0  0  0  0  0  0  0  0
   -8.1220    0.6683   -0.2616 H   0  0  0  0  0  0  0  0  0  0  0  0
   -7.8300   -1.1391    1.3897 H   0  0  0  0  0  0  0  0  0  0  0  0
   -5.5909   -1.7952    2.1623 H   0  0  0  0  0  0  0  0  0  0  0  0
  1  2  1  0
  2  3  1  0
  3  4  2  0
  4  5  1  0
  5  6  2  3
  6  7  1  0
  7  8  2  3
  8  9  1  0
  9 10  1  0
 10 11  1  0
 10 12  2  0
  9 13  1  0
 13 14  2  0
 14 15  1  0
 15 16  2  0
 16 17  1  0
 17 18  2  0
  4 19  1  0
 19 20  1  0
 20 21  2  0
 21 22  1  0
 22 23  2  0
 23 24  1  0
 24 25  2  0
 25  3  1  0
 18 13  1  0
 25 20  1  0
  1 26  1  0
  1 27  1  0
  1 28  1  0
  2 29  1  0
  2 30  1  0
  5 31  1  0
  6 32  1  0
  7 33  1  0
  8 34  1  0
 11 35  1  0
 11 36  1  0
 11 37  1  0
 14 38  1  0
 15 39  1  0
 16 40  1  0
 17 41  1  0
 18 42  1  0
 21 43  1  0
 22 44  1  0
 23 45  1  0
 24 46  1  0
M  CHG  1   3   1
M  END
$$$$
