
     RDKit          3D

 57 59  0  0  0  0  0  0  0  0999 V2000
    4.6937   -2.1619   -4.0986 C   0  0  0  0  0  0  0  0  0  0  0  0
    5.4855   -1.3596   -3.2319 O   0  0  0  0  0  0  0  0  0  0  0  0
    5.2490   -1.4810   -1.8903 C   0  0  0  0  0  0  0  0  0  0  0  0
    6.0483   -0.6706   -1.0807 C   0  0  0  0  0  0  0  0  0  0  0  0
    5.9125   -0.6927    0.3099 C   0  0  0  0  0  0  0  0  0  0  0  0
    4.9741   -1.5373    0.9137 C   0  0  0  0  0  0  0  0  0  0  0  0
    4.7955   -1.5480    2.4106 C   0  0  0  0  0  0  0  0  0  0  0  0
    3.8113   -0.5783    2.8142 N   0  0  0  0  0  0  0  0  0  0  0  0
    2.4730   -0.8842    2.8858 C   0  0  0  0  0  0  0  0  0  0  0  0
    1.9758   -1.9975    2.7893 O   0  0  0  0  0  0  0  0  0  0  0  0
    1.5703    0.3586    3.0557 C   0  0  0  0  0  0  0  0  0  0  0  0
    2.0735    1.4709    3.1211 O   0  0  0  0  0  0  0  0  0  0  0  0
    0.2291    0.0647    3.0792 N   0  0  0  0  0  0  0  0  0  0  0  0
   -0.7982    1.0873    2.9551 C   0  0  0  0  0  0  0  0  0  0  0  0
   -1.2958    1.2922    1.5036 C   0  0  0  0  0  0  0  0  0  0  0  0
   -0.2980    1.9652    0.7099 O   0  0  0  0  0  0  0  0  0  0  0  0
    0.2265    1.0131   -0.2217 C   0  0  0  0  0  0  0  0  0  0  0  0
   -0.9187    0.0604   -0.4773 C   0  0  0  0  0  0  0  0  0  0  0  0
   -1.5625    0.0092    0.8328 N   0  0  0  0  0  0  0  0  0  0  0  0
   -3.0653   -0.7027    1.0022 S   0  0  0  0  0  6  0  0  0  0  0  0
   -3.0276   -1.9710    0.3054 O   0  0  0  0  0  0  0  0  0  0  0  0
   -3.4318   -0.6306    2.4005 O   0  0  0  0  0  0  0  0  0  0  0  0
   -4.1748    0.3616    0.1040 C   0  0  0  0  0  0  0  0  0  0  0  0
   -4.4363    0.1078   -1.2458 C   0  0  0  0  0  0  0  0  0  0  0  0
   -5.3375    0.9170   -1.9463 C   0  0  0  0  0  0  0  0  0  0  0  0
   -5.9906    1.9656   -1.2956 C   0  0  0  0  0  0  0  0  0  0  0  0
   -6.8897    2.8266   -1.8607 O   0  0  0  0  0  0  0  0  0  0  0  0
   -7.2214    2.6102   -3.2266 C   0  0  0  0  0  0  0  0  0  0  0  0
   -5.7417    2.1932    0.0623 C   0  0  0  0  0  0  0  0  0  0  0  0
   -4.8460    1.3889    0.7697 C   0  0  0  0  0  0  0  0  0  0  0  0
    4.1671   -2.3420    0.0970 C   0  0  0  0  0  0  0  0  0  0  0  0
    4.3060   -2.3179   -1.2952 C   0  0  0  0  0  0  0  0  0  0  0  0
    4.8582   -3.2280   -3.9126 H   0  0  0  0  0  0  0  0  0  0  0  0
    3.6330   -1.9040   -4.0138 H   0  0  0  0  0  0  0  0  0  0  0  0
    5.0058   -1.9518   -5.1263 H   0  0  0  0  0  0  0  0  0  0  0  0
    6.7842   -0.0140   -1.5385 H   0  0  0  0  0  0  0  0  0  0  0  0
    6.5453   -0.0475    0.9142 H   0  0  0  0  0  0  0  0  0  0  0  0
    5.7367   -1.2926    2.9094 H   0  0  0  0  0  0  0  0  0  0  0  0
    4.5033   -2.5475    2.7533 H   0  0  0  0  0  0  0  0  0  0  0  0
    4.0364    0.4118    2.7736 H   0  0  0  0  0  0  0  0  0  0  0  0
   -0.0266   -0.9021    2.8918 H   0  0  0  0  0  0  0  0  0  0  0  0
   -1.6235    0.7678    3.5976 H   0  0  0  0  0  0  0  0  0  0  0  0
   -0.4043    2.0324    3.3443 H   0  0  0  0  0  0  0  0  0  0  0  0
   -2.1685    1.9497    1.5073 H   0  0  0  0  0  0  0  0  0  0  0  0
    1.0818    0.5057    0.2360 H   0  0  0  0  0  0  0  0  0  0  0  0
    0.5650    1.5227   -1.1277 H   0  0  0  0  0  0  0  0  0  0  0  0
   -1.5915    0.4886   -1.2252 H   0  0  0  0  0  0  0  0  0  0  0  0
   -0.5663   -0.9179   -0.8112 H   0  0  0  0  0  0  0  0  0  0  0  0
   -3.9524   -0.7213   -1.7579 H   0  0  0  0  0  0  0  0  0  0  0  0
   -5.5148    0.6957   -2.9942 H   0  0  0  0  0  0  0  0  0  0  0  0
   -7.6806    1.6266   -3.3705 H   0  0  0  0  0  0  0  0  0  0  0  0
   -7.9574    3.3667   -3.5153 H   0  0  0  0  0  0  0  0  0  0  0  0
   -6.3445    2.7350   -3.8700 H   0  0  0  0  0  0  0  0  0  0  0  0
   -6.2632    2.9987    0.5748 H   0  0  0  0  0  0  0  0  0  0  0  0
   -4.6911    1.5671    1.8313 H   0  0  0  0  0  0  0  0  0  0  0  0
    3.4188   -2.9947    0.5458 H   0  0  0  0  0  0  0  0  0  0  0  0
    3.6612   -2.9642   -1.8813 H   0  0  0  0  0  0  0  0  0  0  0  0
  1  2  1  0
  2  3  1  0
  3  4  2  0
  4  5  1  0
  5  6  2  0
  6  7  1  0
  7  8  1  0
  8  9  1  0
  9 10  2  0
  9 11  1  0
 11 12  2  0
 11 13  1  0
 13 14  1  0
 14 15  1  0
 15 16  1  0
 16 17  1  0
 17 18  1  0
 18 19  1  0
 19 20  1  0
 20 21  2  0
 20 22  2  0
 20 23  1  0
 23 24  2  0
 24 25  1  0
 25 26  2  0
 26 27  1  0
 27 28  1  0
 26 29  1  0
 29 30  2  0
  6 31  1  0
 31 32  2  0
 32  3  1  0
 19 15  1  0
 30 23  1  0
  1 33  1  0
  1 34  1  0
  1 35  1  0
  4 36  1  0
  5 37  1  0
  7 38  1  0
  7 39  1  0
  8 40  1  0
 13 41  1  0
 14 42  1  0
 14 43  1  0
 15 44  1  0
 17 45  1  0
 17 46  1  0
 18 47  1  0
 18 48  1  0
 24 49  1  0
 25 50  1  0
 28 51  1  0
 28 52  1  0
 28 53  1  0
 29 54  1  0
 30 55  1  0
 31 56  1  0
 32 57  1  0
M  END
$$$$
