
     RDKit          3D

 40 42  0  0  0  0  0  0  0  0999 V2000
   -6.9838    1.0412   -0.6985 C   0  0  0  0  0  0  0  0  0  0  0  0
   -6.0702    0.9250    0.8237 S   0  0  0  0  0  6  0  0  0  0  0  0
   -4.9635    1.8542    0.7859 O   0  0  0  0  0  0  0  0  0  0  0  0
   -7.0252    0.9342    1.9117 O   0  0  0  0  0  0  0  0  0  0  0  0
   -5.5016   -0.6704    0.7436 N   0  0  0  0  0  0  0  0  0  0  0  0
   -4.1399   -0.8461    0.3635 C   0  0  0  0  0  0  0  0  0  0  0  0
   -3.1407   -0.8493    1.3385 C   0  0  0  0  0  0  0  0  0  0  0  0
   -1.7994   -0.9583    0.9612 C   0  0  0  0  0  0  0  0  0  0  0  0
   -1.4610   -1.0483   -0.3957 C   0  0  0  0  0  0  0  0  0  0  0  0
   -0.0446   -1.1648   -0.8411 C   0  0  0  0  0  0  0  0  0  0  0  0
    0.2006   -1.8864   -1.7996 O   0  0  0  0  0  0  0  0  0  0  0  0
    0.8516   -0.3946   -0.1233 N   0  0  0  0  0  0  0  0  0  0  0  0
    2.2516   -0.3333   -0.2887 C   0  0  0  0  0  0  0  0  0  0  0  0
    2.9688   -1.1438   -1.1728 C   0  0  0  0  0  0  0  0  0  0  0  0
    4.3592   -1.0231   -1.2803 C   0  0  0  0  0  0  0  0  0  0  0  0
    5.0402   -0.0909   -0.5046 C   0  0  0  0  0  0  0  0  0  0  0  0
    4.3359    0.7013    0.4040 C   0  0  0  0  0  0  0  0  0  0  0  0
    2.9481    0.5907    0.5016 C   0  0  0  0  0  0  0  0  0  0  0  0
    4.9395    1.6171    1.2287 O   0  0  0  0  0  0  0  0  0  0  0  0
    6.3559    1.4100    1.2889 C   0  0  0  0  0  0  0  0  0  0  0  0
    6.9268    1.1871   -0.1019 C   0  0  0  0  0  0  0  0  0  0  0  0
    6.3975   -0.0122   -0.6783 O   0  0  0  0  0  0  0  0  0  0  0  0
   -2.4700   -1.0538   -1.3672 C   0  0  0  0  0  0  0  0  0  0  0  0
   -3.8090   -0.9385   -0.9875 C   0  0  0  0  0  0  0  0  0  0  0  0
   -6.2933    0.9540   -1.5385 H   0  0  0  0  0  0  0  0  0  0  0  0
   -7.4719    2.0180   -0.7224 H   0  0  0  0  0  0  0  0  0  0  0  0
   -7.7365    0.2511   -0.7226 H   0  0  0  0  0  0  0  0  0  0  0  0
   -5.7777   -1.1552    1.6006 H   0  0  0  0  0  0  0  0  0  0  0  0
   -3.3944   -0.7574    2.3913 H   0  0  0  0  0  0  0  0  0  0  0  0
   -1.0356   -0.9901    1.7337 H   0  0  0  0  0  0  0  0  0  0  0  0
    0.4630    0.2546    0.5492 H   0  0  0  0  0  0  0  0  0  0  0  0
    2.4760   -1.8830   -1.7969 H   0  0  0  0  0  0  0  0  0  0  0  0
    4.9035   -1.6526   -1.9790 H   0  0  0  0  0  0  0  0  0  0  0  0
    2.4254    1.2302    1.2070 H   0  0  0  0  0  0  0  0  0  0  0  0
    6.8019    2.3005    1.7429 H   0  0  0  0  0  0  0  0  0  0  0  0
    6.5551    0.5547    1.9466 H   0  0  0  0  0  0  0  0  0  0  0  0
    6.6970    2.0265   -0.7699 H   0  0  0  0  0  0  0  0  0  0  0  0
    8.0147    1.0789   -0.0517 H   0  0  0  0  0  0  0  0  0  0  0  0
   -2.2115   -1.1404   -2.4211 H   0  0  0  0  0  0  0  0  0  0  0  0
   -4.5823   -0.9367   -1.7498 H   0  0  0  0  0  0  0  0  0  0  0  0
  1  2  1  0
  2  3  2  0
  2  4  2  0
  2  5  1  0
  5  6  1  0
  6  7  2  0
  7  8  1  0
  8  9  2  0
  9 10  1  0
 10 11  2  0
 10 12  1  0
 12 13  1  0
 13 14  2  0
 14 15  1  0
 15 16  2  0
 16 17  1  0
 17 18  2  0
 17 19  1  0
 19 20  1  0
 20 21  1  0
 21 22  1  0
  9 23  1  0
 23 24  2  0
 24  6  1  0
 18 13  1  0
 22 16  1  0
  1 25  1  0
  1 26  1  0
  1 27  1  0
  5 28  1  0
  7 29  1  0
  8 30  1  0
 12 31  1  0
 14 32  1  0
 15 33  1  0
 18 34  1  0
 20 35  1  0
 20 36  1  0
 21 37  1  0
 21 38  1  0
 23 39  1  0
 24 40  1  0
M  END
$$$$
