
     RDKit          3D

 60 65  0  0  0  0  0  0  0  0999 V2000
   -2.4082    0.7281   -3.3214 O   0  0  0  0  0  0  0  0  0  0  0  0
   -2.6080    0.3720   -2.1652 C   0  0  0  0  0  0  0  0  0  0  0  0
   -1.5683    0.2273   -1.2536 N   0  0  0  0  0  0  0  0  0  0  0  0
   -1.7356   -0.1825    0.0652 C   0  0  0  0  0  0  0  0  0  0  0  0
   -0.4753   -0.2778    0.9136 C   0  0  0  0  0  0  0  0  0  0  0  0
    0.1930    1.0970    1.0800 C   0  0  0  0  0  0  0  0  0  0  0  0
    1.6501    1.1052    0.6273 C   0  0  0  0  0  0  0  0  0  0  0  0
    2.3626    0.0031    1.2927 N   0  0  0  0  0  0  0  0  0  0  0  0
    4.0468    0.1327    1.4778 S   0  0  0  0  0  6  0  0  0  0  0  0
    4.4997   -1.0051    2.2496 O   0  0  0  0  0  0  0  0  0  0  0  0
    4.3557    1.4876    1.8836 O   0  0  0  0  0  0  0  0  0  0  0  0
    4.6444   -0.0691   -0.1880 C   0  0  0  0  0  0  0  0  0  0  0  0
    4.7675    1.0524   -1.0170 C   0  0  0  0  0  0  0  0  0  0  0  0
    5.2639    0.8999   -2.3128 C   0  0  0  0  0  0  0  0  0  0  0  0
    5.6516   -0.3613   -2.7644 C   0  0  0  0  0  0  0  0  0  0  0  0
    5.5239   -1.4787   -1.9308 C   0  0  0  0  0  0  0  0  0  0  0  0
    5.0417   -1.3336   -0.6324 C   0  0  0  0  0  0  0  0  0  0  0  0
    5.8656   -2.7482   -2.3194 O   0  0  0  0  0  0  0  0  0  0  0  0
    6.0466   -2.8369   -3.7381 C   0  0  0  0  0  0  0  0  0  0  0  0
    6.8572   -1.6596   -4.2546 C   0  0  0  0  0  0  0  0  0  0  0  0
    6.1521   -0.4310   -4.0393 O   0  0  0  0  0  0  0  0  0  0  0  0
    1.7998   -1.3550    1.1207 C   0  0  0  0  0  0  0  0  0  0  0  0
    0.4824   -1.3329    0.3524 C   0  0  0  0  0  0  0  0  0  0  0  0
   -2.8898   -0.4776    0.5957 N   0  0  0  0  0  0  0  0  0  0  0  0
   -3.9230   -0.3319   -0.2684 C   0  0  0  0  0  0  0  0  0  0  0  0
   -3.8849    0.0599   -1.5846 C   0  0  0  0  0  0  0  0  0  0  0  0
   -5.1372    0.0793   -2.1159 N   0  0  0  0  0  0  0  0  0  0  0  0
   -5.9817   -0.2911   -1.1524 N   0  0  0  0  0  0  0  0  0  0  0  0
   -5.2536   -0.5224   -0.0302 N   0  0  0  0  0  0  0  0  0  0  0  0
   -5.8952   -0.9438    1.1989 C   0  0  0  0  0  0  0  0  0  0  0  0
   -6.1223    0.2172    2.1291 C   0  0  0  0  0  0  0  0  0  0  0  0
   -7.0775    1.2053    1.8405 C   0  0  0  0  0  0  0  0  0  0  0  0
   -7.2658    2.2834    2.7103 C   0  0  0  0  0  0  0  0  0  0  0  0
   -6.5067    2.3853    3.8762 C   0  0  0  0  0  0  0  0  0  0  0  0
   -5.5572    1.4086    4.1733 C   0  0  0  0  0  0  0  0  0  0  0  0
   -5.3737    0.3381    3.3023 C   0  0  0  0  0  0  0  0  0  0  0  0
   -4.4573   -0.5916    3.6104 F   0  0  0  0  0  0  0  0  0  0  0  0
   -0.6572    0.4436   -1.6274 H   0  0  0  0  0  0  0  0  0  0  0  0
   -0.7918   -0.6127    1.9118 H   0  0  0  0  0  0  0  0  0  0  0  0
   -0.3548    1.8870    0.5547 H   0  0  0  0  0  0  0  0  0  0  0  0
    0.1571    1.3668    2.1434 H   0  0  0  0  0  0  0  0  0  0  0  0
    2.0864    2.0723    0.8967 H   0  0  0  0  0  0  0  0  0  0  0  0
    1.7178    1.0007   -0.4610 H   0  0  0  0  0  0  0  0  0  0  0  0
    4.4949    2.0428   -0.6587 H   0  0  0  0  0  0  0  0  0  0  0  0
    5.3713    1.7643   -2.9631 H   0  0  0  0  0  0  0  0  0  0  0  0
    4.9778   -2.2020    0.0184 H   0  0  0  0  0  0  0  0  0  0  0  0
    6.5680   -3.7761   -3.9475 H   0  0  0  0  0  0  0  0  0  0  0  0
    5.0577   -2.8815   -4.2113 H   0  0  0  0  0  0  0  0  0  0  0  0
    7.0274   -1.7603   -5.3312 H   0  0  0  0  0  0  0  0  0  0  0  0
    7.8339   -1.5938   -3.7585 H   0  0  0  0  0  0  0  0  0  0  0  0
    1.6359   -1.7806    2.1183 H   0  0  0  0  0  0  0  0  0  0  0  0
    2.4979   -2.0105    0.5909 H   0  0  0  0  0  0  0  0  0  0  0  0
    0.0147   -2.3243    0.3935 H   0  0  0  0  0  0  0  0  0  0  0  0
    0.6903   -1.1457   -0.7089 H   0  0  0  0  0  0  0  0  0  0  0  0
   -5.2655   -1.7180    1.6518 H   0  0  0  0  0  0  0  0  0  0  0  0
   -6.8507   -1.4179    0.9437 H   0  0  0  0  0  0  0  0  0  0  0  0
   -7.6765    1.1459    0.9327 H   0  0  0  0  0  0  0  0  0  0  0  0
   -8.0057    3.0473    2.4746 H   0  0  0  0  0  0  0  0  0  0  0  0
   -6.6542    3.2257    4.5506 H   0  0  0  0  0  0  0  0  0  0  0  0
   -4.9581    1.4738    5.0756 H   0  0  0  0  0  0  0  0  0  0  0  0
  1  2  2  0
  2  3  1  0
  3  4  1  0
  4  5  1  0
  5  6  1  0
  6  7  1  0
  7  8  1  0
  8  9  1  0
  9 10  2  0
  9 11  2  0
  9 12  1  0
 12 13  2  0
 13 14  1  0
 14 15  2  0
 15 16  1  0
 16 17  2  0
 16 18  1  0
 18 19  1  0
 19 20  1  0
 20 21  1  0
  8 22  1  0
 22 23  1  0
  4 24  2  0
 24 25  1  0
 25 26  2  0
 26 27  1  0
 27 28  2  0
 28 29  1  0
 29 30  1  0
 30 31  1  0
 31 32  2  0
 32 33  1  0
 33 34  2  0
 34 35  1  0
 35 36  2  0
 36 37  1  0
 26  2  1  0
 36 31  1  0
 23  5  1  0
 29 25  1  0
 17 12  1  0
 21 15  1  0
  3 38  1  0
  5 39  1  0
  6 40  1  0
  6 41  1  0
  7 42  1  0
  7 43  1  0
 13 44  1  0
 14 45  1  0
 17 46  1  0
 19 47  1  0
 19 48  1  0
 20 49  1  0
 20 50  1  0
 22 51  1  0
 22 52  1  0
 23 53  1  0
 23 54  1  0
 30 55  1  0
 30 56  1  0
 32 57  1  0
 33 58  1  0
 34 59  1  0
 35 60  1  0
M  END
$$$$
