
     RDKit          3D

 44 44  0  0  0  0  0  0  0  0999 V2000
   -5.2023    2.5781    0.0623 C   0  0  0  0  0  0  0  0  0  0  0  0
   -4.9707    1.2909   -0.7163 C   0  0  0  0  0  0  0  0  0  0  0  0
   -3.9406    0.4627   -0.0770 N   0  0  0  0  0  0  0  0  0  0  0  0
   -4.4241   -0.5078    0.9142 C   0  0  0  0  0  0  0  0  0  0  0  0
   -4.6800   -1.8628    0.2699 C   0  0  0  0  0  0  0  0  0  0  0  0
   -2.5852    0.6167   -0.3561 C   0  0  0  0  0  0  0  0  0  0  0  0
   -2.0999    1.6467   -1.1796 C   0  0  0  0  0  0  0  0  0  0  0  0
   -0.7356    1.8102   -1.4546 C   0  0  0  0  0  0  0  0  0  0  0  0
    0.1994    0.9316   -0.9203 C   0  0  0  0  0  0  0  0  0  0  0  0
   -0.2355   -0.1151   -0.1192 C   0  0  0  0  0  0  0  0  0  0  0  0
    0.5708   -1.0496    0.4733 O   0  0  0  0  0  0  0  0  0  0  0  0
    1.8176   -1.3175   -0.1529 C   0  0  0  0  0  0  0  0  0  0  0  0
    3.0039   -0.4711    0.3393 C   0  0  0  0  0  0  0  0  0  0  0  0
    2.8679    0.4099    1.1903 O   0  0  0  0  0  0  0  0  0  0  0  0
    4.2572   -0.7332   -0.2218 N   0  0  0  0  0  0  0  0  0  0  0  0
    4.5619   -1.8925   -1.0504 C   0  0  0  0  0  0  0  0  0  0  0  0
    5.3990    0.0438    0.2758 C   0  0  0  0  0  0  0  0  0  0  0  0
    5.9136   -0.4504    1.6279 C   0  0  0  0  0  0  0  0  0  0  0  0
    7.1141    0.2950    2.0191 C   0  0  0  0  0  0  0  0  0  0  0  0
    8.0775    0.8726    2.3102 N   0  0  0  0  0  0  0  0  0  0  0  0
   -1.6047   -0.2494    0.1639 C   0  0  0  0  0  0  0  0  0  0  0  0
   -5.9865    3.1728   -0.4164 H   0  0  0  0  0  0  0  0  0  0  0  0
   -4.2969    3.1902    0.1142 H   0  0  0  0  0  0  0  0  0  0  0  0
   -5.5176    2.3658    1.0893 H   0  0  0  0  0  0  0  0  0  0  0  0
   -5.9167    0.7354   -0.7552 H   0  0  0  0  0  0  0  0  0  0  0  0
   -4.7301    1.5039   -1.7638 H   0  0  0  0  0  0  0  0  0  0  0  0
   -3.7400   -0.5996    1.7651 H   0  0  0  0  0  0  0  0  0  0  0  0
   -5.3658   -0.1513    1.3512 H   0  0  0  0  0  0  0  0  0  0  0  0
   -3.7689   -2.2847   -0.1649 H   0  0  0  0  0  0  0  0  0  0  0  0
   -5.0593   -2.5695    1.0146 H   0  0  0  0  0  0  0  0  0  0  0  0
   -5.4228   -1.7829   -0.5308 H   0  0  0  0  0  0  0  0  0  0  0  0
   -2.7725    2.3761   -1.6193 H   0  0  0  0  0  0  0  0  0  0  0  0
   -0.4085    2.6385   -2.0777 H   0  0  0  0  0  0  0  0  0  0  0  0
    1.2494    1.1065   -1.1234 H   0  0  0  0  0  0  0  0  0  0  0  0
    1.7354   -1.2529   -1.2447 H   0  0  0  0  0  0  0  0  0  0  0  0
    2.0498   -2.3599    0.0943 H   0  0  0  0  0  0  0  0  0  0  0  0
    3.6723   -2.3179   -1.5155 H   0  0  0  0  0  0  0  0  0  0  0  0
    5.0308   -2.6553   -0.4225 H   0  0  0  0  0  0  0  0  0  0  0  0
    5.2540   -1.5937   -1.8431 H   0  0  0  0  0  0  0  0  0  0  0  0
    5.0909    1.0941    0.3622 H   0  0  0  0  0  0  0  0  0  0  0  0
    6.1912    0.0169   -0.4827 H   0  0  0  0  0  0  0  0  0  0  0  0
    6.1498   -1.5192    1.5694 H   0  0  0  0  0  0  0  0  0  0  0  0
    5.1411   -0.3424    2.3970 H   0  0  0  0  0  0  0  0  0  0  0  0
   -1.8833   -1.0799    0.8047 H   0  0  0  0  0  0  0  0  0  0  0  0
  1  2  1  0
  2  3  1  0
  3  4  1  0
  4  5  1  0
  3  6  1  0
  6  7  2  0
  7  8  1  0
  8  9  2  0
  9 10  1  0
 10 11  1  0
 11 12  1  0
 12 13  1  0
 13 14  2  0
 13 15  1  0
 15 16  1  0
 15 17  1  0
 17 18  1  0
 18 19  1  0
 19 20  3  0
 10 21  2  0
 21  6  1  0
  1 22  1  0
  1 23  1  0
  1 24  1  0
  2 25  1  0
  2 26  1  0
  4 27  1  0
  4 28  1  0
  5 29  1  0
  5 30  1  0
  5 31  1  0
  7 32  1  0
  8 33  1  0
  9 34  1  0
 12 35  1  0
 12 36  1  0
 16 37  1  0
 16 38  1  0
 16 39  1  0
 17 40  1  0
 17 41  1  0
 18 42  1  0
 18 43  1  0
 21 44  1  0
M  END
$$$$
