
     RDKit          3D

 73 75  0  0  0  0  0  0  0  0999 V2000
   -2.2723   -2.9298    1.2816 C   0  0  0  0  0  0  0  0  0  0  0  0
   -2.0024   -2.3100   -0.0858 C   0  0  0  0  0  0  0  0  0  0  0  0
   -2.7839   -1.0092   -0.3373 C   0  0  0  0  0  0  0  0  0  0  0  0
   -2.2283    0.3912    0.7089 S   0  0  0  0  0  0  0  0  0  0  0  0
   -0.8445    0.9759   -0.1850 C   0  0  0  0  0  0  0  0  0  0  0  0
   -1.0935    1.7390   -1.1952 N   0  0  0  0  0  0  0  0  0  0  0  0
   -0.0296    2.2171   -1.9611 C   0  0  0  0  0  0  0  0  0  0  0  0
   -0.3084    2.9783   -3.0979 C   0  0  0  0  0  0  0  0  0  0  0  0
    0.7272    3.4659   -3.9040 C   0  0  0  0  0  0  0  0  0  0  0  0
    0.5370    4.2110   -5.0413 O   0  0  0  0  0  0  0  0  0  0  0  0
   -0.7934    4.5913   -5.3651 C   0  0  0  0  0  0  0  0  0  0  0  0
    2.0682    3.1837   -3.5653 C   0  0  0  0  0  0  0  0  0  0  0  0
    3.0246    3.6931   -4.4077 O   0  0  0  0  0  0  0  0  0  0  0  0
    4.3844    3.3914   -4.1247 C   0  0  0  0  0  0  0  0  0  0  0  0
    2.3457    2.4252   -2.4261 C   0  0  0  0  0  0  0  0  0  0  0  0
    1.2922    1.9457   -1.6387 C   0  0  0  0  0  0  0  0  0  0  0  0
    1.5453    1.1320   -0.4378 C   0  0  0  0  0  0  0  0  0  0  0  0
    2.7062    0.9356   -0.0846 O   0  0  0  0  0  0  0  0  0  0  0  0
    0.4299    0.6330    0.2362 N   0  0  0  0  0  0  0  0  0  0  0  0
    0.7140   -0.1183    1.4652 C   0  0  0  0  0  0  0  0  0  0  0  0
    0.8665    0.8090    2.6766 C   0  0  0  0  0  0  0  0  0  0  0  0
    1.0082    0.0215    3.9546 C   0  0  0  0  0  0  0  0  0  0  0  0
    2.2496   -0.5035    4.3270 C   0  0  0  0  0  0  0  0  0  0  0  0
    2.3767   -1.2597    5.4944 C   0  0  0  0  0  0  0  0  0  0  0  0
    1.2643   -1.4998    6.3087 C   0  0  0  0  0  0  0  0  0  0  0  0
    1.2980   -2.2236    7.4754 O   0  0  0  0  0  0  0  0  0  0  0  0
    2.5291   -2.8324    7.8353 C   0  0  0  0  0  0  0  0  0  0  0  0
    0.0102   -0.9713    5.9432 C   0  0  0  0  0  0  0  0  0  0  0  0
   -1.0371   -1.2566    6.7862 O   0  0  0  0  0  0  0  0  0  0  0  0
   -2.2426   -0.5252    6.6016 C   0  0  0  0  0  0  0  0  0  0  0  0
   -0.1099   -0.2232    4.7650 C   0  0  0  0  0  0  0  0  0  0  0  0
   -2.8882   -0.6154   -1.8182 C   0  0  0  0  0  0  0  0  0  0  0  0
   -3.8911   -0.0601   -2.2655 O   0  0  0  0  0  0  0  0  0  0  0  0
   -1.7873   -0.8888   -2.6060 N   0  0  0  0  0  0  0  0  0  0  0  0
   -1.7983   -0.6228   -4.0343 C   0  0  0  0  0  0  0  0  0  0  0  0
   -2.2680   -1.8506   -4.8174 C   0  0  0  0  0  0  0  0  0  0  0  0
   -1.4124   -2.9777   -4.5775 O   0  0  0  0  0  0  0  0  0  0  0  0
   -0.2401   -2.9667   -5.3836 C   0  0  0  0  0  0  0  0  0  0  0  0
   -1.7405   -3.8826    1.3710 H   0  0  0  0  0  0  0  0  0  0  0  0
   -3.3399   -3.1279    1.4176 H   0  0  0  0  0  0  0  0  0  0  0  0
   -1.9361   -2.2848    2.0976 H   0  0  0  0  0  0  0  0  0  0  0  0
   -0.9231   -2.1528   -0.2035 H   0  0  0  0  0  0  0  0  0  0  0  0
   -2.2855   -3.0504   -0.8462 H   0  0  0  0  0  0  0  0  0  0  0  0
   -3.8206   -1.2042   -0.0300 H   0  0  0  0  0  0  0  0  0  0  0  0
   -1.3530    3.1654   -3.3287 H   0  0  0  0  0  0  0  0  0  0  0  0
   -0.7520    5.2247   -6.2566 H   0  0  0  0  0  0  0  0  0  0  0  0
   -1.2452    5.1814   -4.5608 H   0  0  0  0  0  0  0  0  0  0  0  0
   -1.4046    3.7148   -5.6069 H   0  0  0  0  0  0  0  0  0  0  0  0
    4.6889    3.8109   -3.1608 H   0  0  0  0  0  0  0  0  0  0  0  0
    5.0004    3.8595   -4.8995 H   0  0  0  0  0  0  0  0  0  0  0  0
    4.5639    2.3119   -4.1624 H   0  0  0  0  0  0  0  0  0  0  0  0
    3.3631    2.1919   -2.1283 H   0  0  0  0  0  0  0  0  0  0  0  0
   -0.0671   -0.8583    1.6503 H   0  0  0  0  0  0  0  0  0  0  0  0
    1.6356   -0.6983    1.3245 H   0  0  0  0  0  0  0  0  0  0  0  0
    0.0064    1.4859    2.7538 H   0  0  0  0  0  0  0  0  0  0  0  0
    1.7394    1.4625    2.5527 H   0  0  0  0  0  0  0  0  0  0  0  0
    3.1289   -0.3254    3.7104 H   0  0  0  0  0  0  0  0  0  0  0  0
    3.3605   -1.6407    5.7436 H   0  0  0  0  0  0  0  0  0  0  0  0
    2.3683   -3.3848    8.7663 H   0  0  0  0  0  0  0  0  0  0  0  0
    3.3013   -2.0802    8.0263 H   0  0  0  0  0  0  0  0  0  0  0  0
    2.8552   -3.5497    7.0731 H   0  0  0  0  0  0  0  0  0  0  0  0
   -2.9197   -0.7842    7.4202 H   0  0  0  0  0  0  0  0  0  0  0  0
   -2.7341   -0.8090    5.6646 H   0  0  0  0  0  0  0  0  0  0  0  0
   -2.0652    0.5550    6.6466 H   0  0  0  0  0  0  0  0  0  0  0  0
   -1.0701    0.1753    4.4519 H   0  0  0  0  0  0  0  0  0  0  0  0
   -1.1004   -1.5619   -2.2964 H   0  0  0  0  0  0  0  0  0  0  0  0
   -2.4472    0.2321   -4.2485 H   0  0  0  0  0  0  0  0  0  0  0  0
   -0.7738   -0.3521   -4.3037 H   0  0  0  0  0  0  0  0  0  0  0  0
   -3.2713   -2.1403   -4.4861 H   0  0  0  0  0  0  0  0  0  0  0  0
   -2.3237   -1.6337   -5.8903 H   0  0  0  0  0  0  0  0  0  0  0  0
    0.3915   -2.1082   -5.1431 H   0  0  0  0  0  0  0  0  0  0  0  0
   -0.5023   -2.9587   -6.4459 H   0  0  0  0  0  0  0  0  0  0  0  0
    0.3264   -3.8784   -5.1725 H   0  0  0  0  0  0  0  0  0  0  0  0
  1  2  1  0
  2  3  1  0
  3  4  1  0
  4  5  1  0
  5  6  2  0
  6  7  1  0
  7  8  2  0
  8  9  1  0
  9 10  1  0
 10 11  1  0
  9 12  2  0
 12 13  1  0
 13 14  1  0
 12 15  1  0
 15 16  2  0
 16 17  1  0
 17 18  2  0
 17 19  1  0
 19 20  1  0
 20 21  1  0
 21 22  1  0
 22 23  2  0
 23 24  1  0
 24 25  2  0
 25 26  1  0
 26 27  1  0
 25 28  1  0
 28 29  1  0
 29 30  1  0
 28 31  2  0
  3 32  1  0
 32 33  2  0
 32 34  1  0
 34 35  1  0
 35 36  1  0
 36 37  1  0
 37 38  1  0
 19  5  1  0
 31 22  1  0
 16  7  1  0
  1 39  1  0
  1 40  1  0
  1 41  1  0
  2 42  1  0
  2 43  1  0
  3 44  1  0
  8 45  1  0
 11 46  1  0
 11 47  1  0
 11 48  1  0
 14 49  1  0
 14 50  1  0
 14 51  1  0
 15 52  1  0
 20 53  1  0
 20 54  1  0
 21 55  1  0
 21 56  1  0
 23 57  1  0
 24 58  1  0
 27 59  1  0
 27 60  1  0
 27 61  1  0
 30 62  1  0
 30 63  1  0
 30 64  1  0
 31 65  1  0
 34 66  1  0
 35 67  1  0
 35 68  1  0
 36 69  1  0
 36 70  1  0
 38 71  1  0
 38 72  1  0
 38 73  1  0
M  END
$$$$
