
     RDKit          3D

 60 63  0  0  0  0  0  0  0  0999 V2000
   -4.6324   -1.5824    6.0855 C   0  0  0  0  0  0  0  0  0  0  0  0
   -4.9922   -0.5326    5.1951 O   0  0  0  0  0  0  0  0  0  0  0  0
   -4.2376   -0.3956    4.0625 C   0  0  0  0  0  0  0  0  0  0  0  0
   -4.6045    0.6738    3.2419 C   0  0  0  0  0  0  0  0  0  0  0  0
   -3.9124    0.9404    2.0546 C   0  0  0  0  0  0  0  0  0  0  0  0
   -2.8350    0.1302    1.6762 C   0  0  0  0  0  0  0  0  0  0  0  0
   -2.1107    0.4133    0.4843 N   0  0  0  0  0  0  0  0  0  0  0  0
   -2.6314    0.7577   -0.7639 C   0  0  0  0  0  0  0  0  0  0  0  0
   -4.0867    0.7227   -1.1235 C   0  0  0  0  0  0  0  0  0  0  0  0
   -4.3519    0.8412   -2.5985 C   0  0  0  0  0  0  0  0  0  0  0  0
   -4.6808   -0.1484   -3.5147 C   0  0  0  0  0  0  0  0  0  0  0  0
   -4.8291    0.4575   -4.7856 C   0  0  0  0  0  0  0  0  0  0  0  0
   -4.6012    1.8058   -4.6164 C   0  0  0  0  0  0  0  0  0  0  0  0
   -4.2914    2.0334   -3.2968 N   0  0  0  0  0  0  0  0  0  0  0  0
   -3.9245    3.3271   -2.7673 C   0  0  0  0  0  0  0  0  0  0  0  0
   -1.6354    1.0044   -1.5977 N   0  0  0  0  0  0  0  0  0  0  0  0
   -0.4591    0.7774   -0.9486 N   0  0  0  0  0  0  0  0  0  0  0  0
   -0.7398    0.4150    0.2816 C   0  0  0  0  0  0  0  0  0  0  0  0
    0.4647    0.1687    1.5055 S   0  0  0  0  0  0  0  0  0  0  0  0
    1.9574    0.1287    0.4810 C   0  0  0  0  0  0  0  0  0  0  0  0
    3.2035   -0.1126    1.3214 C   0  0  0  0  0  0  0  0  0  0  0  0
    3.2262   -0.7699    2.3617 O   0  0  0  0  0  0  0  0  0  0  0  0
    4.3469    0.4487    0.7778 N   0  0  0  0  0  0  0  0  0  0  0  0
    5.6549    0.1923    1.3559 C   0  0  0  0  0  0  0  0  0  0  0  0
    6.2220   -1.1768    0.9601 C   0  0  0  0  0  0  0  0  0  0  0  0
    6.4865   -1.2833   -0.5270 C   0  0  0  0  0  0  0  0  0  0  0  0
    7.5908   -0.6373   -1.1005 C   0  0  0  0  0  0  0  0  0  0  0  0
    7.8089   -0.6994   -2.4772 C   0  0  0  0  0  0  0  0  0  0  0  0
    6.9275   -1.4114   -3.2940 C   0  0  0  0  0  0  0  0  0  0  0  0
    5.8326   -2.0647   -2.7331 C   0  0  0  0  0  0  0  0  0  0  0  0
    5.6131   -2.0029   -1.3546 C   0  0  0  0  0  0  0  0  0  0  0  0
   -2.4682   -0.9456    2.4946 C   0  0  0  0  0  0  0  0  0  0  0  0
   -3.1676   -1.2058    3.6824 C   0  0  0  0  0  0  0  0  0  0  0  0
   -5.3086   -1.5390    6.9450 H   0  0  0  0  0  0  0  0  0  0  0  0
   -3.6107   -1.4537    6.4578 H   0  0  0  0  0  0  0  0  0  0  0  0
   -4.7596   -2.5603    5.6098 H   0  0  0  0  0  0  0  0  0  0  0  0
   -5.4275    1.3208    3.5431 H   0  0  0  0  0  0  0  0  0  0  0  0
   -4.1986    1.8231    1.4880 H   0  0  0  0  0  0  0  0  0  0  0  0
   -4.5208   -0.2224   -0.7663 H   0  0  0  0  0  0  0  0  0  0  0  0
   -4.6228    1.5307   -0.6149 H   0  0  0  0  0  0  0  0  0  0  0  0
   -4.7885   -1.2073   -3.2943 H   0  0  0  0  0  0  0  0  0  0  0  0
   -5.0744   -0.0335   -5.7234 H   0  0  0  0  0  0  0  0  0  0  0  0
   -4.6074    2.6147   -5.3428 H   0  0  0  0  0  0  0  0  0  0  0  0
   -4.2503    4.1085   -3.4646 H   0  0  0  0  0  0  0  0  0  0  0  0
   -2.8415    3.3536   -2.6531 H   0  0  0  0  0  0  0  0  0  0  0  0
   -4.4202    3.4818   -1.8091 H   0  0  0  0  0  0  0  0  0  0  0  0
    1.8842   -0.6864   -0.2517 H   0  0  0  0  0  0  0  0  0  0  0  0
    2.0578    1.0795   -0.0518 H   0  0  0  0  0  0  0  0  0  0  0  0
    4.3255    0.7367   -0.1931 H   0  0  0  0  0  0  0  0  0  0  0  0
    6.3121    1.0032    1.0251 H   0  0  0  0  0  0  0  0  0  0  0  0
    5.5710    0.2532    2.4472 H   0  0  0  0  0  0  0  0  0  0  0  0
    7.1588   -1.3551    1.4985 H   0  0  0  0  0  0  0  0  0  0  0  0
    5.5381   -1.9748    1.2721 H   0  0  0  0  0  0  0  0  0  0  0  0
    8.2866   -0.0803   -0.4778 H   0  0  0  0  0  0  0  0  0  0  0  0
    8.6637   -0.1928   -2.9148 H   0  0  0  0  0  0  0  0  0  0  0  0
    7.0961   -1.4566   -4.3693 H   0  0  0  0  0  0  0  0  0  0  0  0
    5.1491   -2.6245   -3.3701 H   0  0  0  0  0  0  0  0  0  0  0  0
    4.7506   -2.5179   -0.9328 H   0  0  0  0  0  0  0  0  0  0  0  0
   -1.6598   -1.6219    2.2226 H   0  0  0  0  0  0  0  0  0  0  0  0
   -2.8462   -2.0488    4.2874 H   0  0  0  0  0  0  0  0  0  0  0  0
  1  2  1  0
  2  3  1  0
  3  4  2  0
  4  5  1  0
  5  6  2  0
  6  7  1  0
  7  8  1  0
  8  9  1  0
  9 10  1  0
 10 11  2  0
 11 12  1  0
 12 13  2  0
 13 14  1  0
 14 15  1  0
  8 16  2  0
 16 17  1  0
 17 18  2  0
 18 19  1  0
 19 20  1  0
 20 21  1  0
 21 22  2  0
 21 23  1  0
 23 24  1  0
 24 25  1  0
 25 26  1  0
 26 27  2  0
 27 28  1  0
 28 29  2  0
 29 30  1  0
 30 31  2  0
  6 32  1  0
 32 33  2  0
 33  3  1  0
 18  7  1  0
 31 26  1  0
 14 10  1  0
  1 34  1  0
  1 35  1  0
  1 36  1  0
  4 37  1  0
  5 38  1  0
  9 39  1  0
  9 40  1  0
 11 41  1  0
 12 42  1  0
 13 43  1  0
 15 44  1  0
 15 45  1  0
 15 46  1  0
 20 47  1  0
 20 48  1  0
 23 49  1  0
 24 50  1  0
 24 51  1  0
 25 52  1  0
 25 53  1  0
 27 54  1  0
 28 55  1  0
 29 56  1  0
 30 57  1  0
 31 58  1  0
 32 59  1  0
 33 60  1  0
M  END
$$$$
