
     RDKit          3D

 55 59  0  0  0  0  0  0  0  0999 V2000
    7.5385   -0.2229   -0.2990 C   0  0  0  0  0  0  0  0  0  0  0  0
    7.2569    1.1558   -0.0952 O   0  0  0  0  0  0  0  0  0  0  0  0
    5.9947    1.4779    0.3222 C   0  0  0  0  0  0  0  0  0  0  0  0
    5.8054    2.8312    0.6120 C   0  0  0  0  0  0  0  0  0  0  0  0
    4.5701    3.2960    1.0617 C   0  0  0  0  0  0  0  0  0  0  0  0
    3.5084    2.4059    1.2121 C   0  0  0  0  0  0  0  0  0  0  0  0
    3.6723    1.0504    0.9020 C   0  0  0  0  0  0  0  0  0  0  0  0
    2.5427    0.1385    1.0606 C   0  0  0  0  0  0  0  0  0  0  0  0
    1.7932    0.0303    2.1449 N   0  0  0  0  0  0  0  0  0  0  0  0
    0.8453   -0.9387    1.9276 N   0  0  0  0  0  0  0  0  0  0  0  0
    1.0212   -1.3911    0.7108 C   0  0  0  0  0  0  0  0  0  0  0  0
    0.0592   -2.6055   -0.0524 S   0  0  0  0  0  0  0  0  0  0  0  0
   -1.6093   -1.9424    0.3736 C   0  0  0  0  0  0  0  0  0  0  0  0
   -1.8113   -0.5422   -0.2430 C   0  0  0  0  0  0  0  0  0  0  0  0
   -1.2250   -0.2028   -1.2766 O   0  0  0  0  0  0  0  0  0  0  0  0
   -2.7516    0.3826    0.4113 C   0  0  0  0  0  0  0  0  0  0  0  0
   -3.5201    0.1248    1.5344 C   0  0  0  0  0  0  0  0  0  0  0  0
   -4.2569    1.2420    1.8269 N   0  0  0  0  0  0  0  0  0  0  0  0
   -3.9984    2.2349    0.9145 C   0  0  0  0  0  0  0  0  0  0  0  0
   -4.5215    3.5308    0.8241 C   0  0  0  0  0  0  0  0  0  0  0  0
   -4.0727    4.3410   -0.2220 C   0  0  0  0  0  0  0  0  0  0  0  0
   -3.1376    3.8714   -1.1394 C   0  0  0  0  0  0  0  0  0  0  0  0
   -2.6253    2.5732   -1.0329 C   0  0  0  0  0  0  0  0  0  0  0  0
   -3.0596    1.7300    0.0133 C   0  0  0  0  0  0  0  0  0  0  0  0
   -2.6848   -2.9308   -0.0534 C   0  0  0  0  0  0  0  0  0  0  0  0
   -3.2573   -3.7908    0.8992 C   0  0  0  0  0  0  0  0  0  0  0  0
   -4.2422   -4.7083    0.5297 C   0  0  0  0  0  0  0  0  0  0  0  0
   -4.6631   -4.7846   -0.7958 C   0  0  0  0  0  0  0  0  0  0  0  0
   -4.0957   -3.9486   -1.7546 C   0  0  0  0  0  0  0  0  0  0  0  0
   -3.1097   -3.0304   -1.3889 C   0  0  0  0  0  0  0  0  0  0  0  0
    2.0470   -0.7240    0.1047 N   0  0  0  0  0  0  0  0  0  0  0  0
    2.4597   -0.8259   -1.2717 C   0  0  0  0  0  0  0  0  0  0  0  0
    4.9271    0.5893    0.4702 C   0  0  0  0  0  0  0  0  0  0  0  0
    6.9374   -0.6296   -1.1190 H   0  0  0  0  0  0  0  0  0  0  0  0
    8.5916   -0.3109   -0.5830 H   0  0  0  0  0  0  0  0  0  0  0  0
    7.3924   -0.7975    0.6217 H   0  0  0  0  0  0  0  0  0  0  0  0
    6.6331    3.5274    0.4980 H   0  0  0  0  0  0  0  0  0  0  0  0
    4.4369    4.3482    1.2989 H   0  0  0  0  0  0  0  0  0  0  0  0
    2.5477    2.7718    1.5714 H   0  0  0  0  0  0  0  0  0  0  0  0
   -1.6257   -1.8416    1.4648 H   0  0  0  0  0  0  0  0  0  0  0  0
   -3.6142   -0.7522    2.1606 H   0  0  0  0  0  0  0  0  0  0  0  0
   -4.9009    1.3309    2.6012 H   0  0  0  0  0  0  0  0  0  0  0  0
   -5.2498    3.9007    1.5384 H   0  0  0  0  0  0  0  0  0  0  0  0
   -4.4593    5.3528   -0.3196 H   0  0  0  0  0  0  0  0  0  0  0  0
   -2.7992    4.5156   -1.9470 H   0  0  0  0  0  0  0  0  0  0  0  0
   -1.8950    2.2199   -1.7562 H   0  0  0  0  0  0  0  0  0  0  0  0
   -2.9356   -3.7565    1.9385 H   0  0  0  0  0  0  0  0  0  0  0  0
   -4.6778   -5.3680    1.2759 H   0  0  0  0  0  0  0  0  0  0  0  0
   -5.4284   -5.5005   -1.0836 H   0  0  0  0  0  0  0  0  0  0  0  0
   -4.4175   -4.0135   -2.7911 H   0  0  0  0  0  0  0  0  0  0  0  0
   -2.6740   -2.3978   -2.1612 H   0  0  0  0  0  0  0  0  0  0  0  0
    2.9363    0.1043   -1.5894 H   0  0  0  0  0  0  0  0  0  0  0  0
    3.1605   -1.6598   -1.3583 H   0  0  0  0  0  0  0  0  0  0  0  0
    1.5887   -0.9914   -1.9099 H   0  0  0  0  0  0  0  0  0  0  0  0
    5.0530   -0.4693    0.2703 H   0  0  0  0  0  0  0  0  0  0  0  0
  1  2  1  0
  2  3  1  0
  3  4  2  0
  4  5  1  0
  5  6  2  0
  6  7  1  0
  7  8  1  0
  8  9  2  0
  9 10  1  0
 10 11  2  0
 11 12  1  0
 12 13  1  0
 13 14  1  0
 14 15  2  0
 14 16  1  0
 16 17  2  0
 17 18  1  0
 18 19  1  0
 19 20  2  0
 20 21  1  0
 21 22  2  0
 22 23  1  0
 23 24  2  0
 13 25  1  0
 25 26  2  0
 26 27  1  0
 27 28  2  0
 28 29  1  0
 29 30  2  0
 11 31  1  0
 31 32  1  0
  7 33  2  0
 33  3  1  0
 31  8  1  0
 24 16  1  0
 30 25  1  0
 24 19  1  0
  1 34  1  0
  1 35  1  0
  1 36  1  0
  4 37  1  0
  5 38  1  0
  6 39  1  0
 13 40  1  0
 17 41  1  0
 18 42  1  0
 20 43  1  0
 21 44  1  0
 22 45  1  0
 23 46  1  0
 26 47  1  0
 27 48  1  0
 28 49  1  0
 29 50  1  0
 30 51  1  0
 32 52  1  0
 32 53  1  0
 32 54  1  0
 33 55  1  0
M  END
$$$$
