
     RDKit          3D

 45 47  0  0  0  0  0  0  0  0999 V2000
    7.2499   -1.7120   -0.1931 C   0  0  0  0  0  0  0  0  0  0  0  0
    6.3860   -1.7511    1.0580 C   0  0  0  0  0  0  0  0  0  0  0  0
    5.0129   -1.1018    0.8719 C   0  0  0  0  0  0  0  0  0  0  0  0
    5.0858    0.4058    0.6177 C   0  0  0  0  0  0  0  0  0  0  0  0
    3.7216    1.0149    0.5774 C   0  0  0  0  0  0  0  0  0  0  0  0
    3.0640    1.4526    1.6310 N   0  0  0  0  0  0  0  0  0  0  0  0
    1.8270    1.9623    1.2904 N   0  0  0  0  0  0  0  0  0  0  0  0
    1.5973    1.8887   -0.0017 C   0  0  0  0  0  0  0  0  0  0  0  0
    0.4315    2.3400   -0.5622 N   0  0  0  0  0  0  0  0  0  0  0  0
    0.0578    2.2680   -1.8846 C   0  0  0  0  0  0  0  0  0  0  0  0
    0.7058    1.8010   -2.8160 O   0  0  0  0  0  0  0  0  0  0  0  0
   -1.3188    2.8942   -2.1344 C   0  0  0  0  0  0  0  0  0  0  0  0
   -2.1936    2.8559   -1.0136 O   0  0  0  0  0  0  0  0  0  0  0  0
   -2.8583    1.6888   -0.7560 C   0  0  0  0  0  0  0  0  0  0  0  0
   -2.6800    0.4722   -1.4155 C   0  0  0  0  0  0  0  0  0  0  0  0
   -3.4209   -0.6583   -1.0347 C   0  0  0  0  0  0  0  0  0  0  0  0
   -4.3501   -0.5937    0.0094 C   0  0  0  0  0  0  0  0  0  0  0  0
   -5.1554   -1.7376    0.4571 C   0  0  0  0  0  0  0  0  0  0  0  0
   -5.0086   -3.0732   -0.2099 C   0  0  0  0  0  0  0  0  0  0  0  0
   -6.0153   -1.5518    1.4695 C   0  0  0  0  0  0  0  0  0  0  0  0
   -6.1959   -0.2632    2.1562 C   0  0  0  0  0  0  0  0  0  0  0  0
   -7.0007   -0.1508    3.0736 O   0  0  0  0  0  0  0  0  0  0  0  0
   -5.4205    0.7943    1.7147 O   0  0  0  0  0  0  0  0  0  0  0  0
   -4.5089    0.6326    0.6538 C   0  0  0  0  0  0  0  0  0  0  0  0
   -3.7785    1.7643    0.2878 C   0  0  0  0  0  0  0  0  0  0  0  0
    2.8688    1.2008   -0.9017 S   0  0  0  0  0  0  0  0  0  0  0  0
    7.5286   -0.6876   -0.4568 H   0  0  0  0  0  0  0  0  0  0  0  0
    6.7286   -2.1599   -1.0450 H   0  0  0  0  0  0  0  0  0  0  0  0
    8.1747   -2.2742   -0.0283 H   0  0  0  0  0  0  0  0  0  0  0  0
    6.9189   -1.2677    1.8851 H   0  0  0  0  0  0  0  0  0  0  0  0
    6.2382   -2.7988    1.3459 H   0  0  0  0  0  0  0  0  0  0  0  0
    4.4205   -1.2892    1.7770 H   0  0  0  0  0  0  0  0  0  0  0  0
    4.4818   -1.5967    0.0488 H   0  0  0  0  0  0  0  0  0  0  0  0
    5.6174    0.6144   -0.3175 H   0  0  0  0  0  0  0  0  0  0  0  0
    5.6595    0.8871    1.4193 H   0  0  0  0  0  0  0  0  0  0  0  0
   -0.2366    2.7059    0.1070 H   0  0  0  0  0  0  0  0  0  0  0  0
   -1.1422    3.9510   -2.3657 H   0  0  0  0  0  0  0  0  0  0  0  0
   -1.7843    2.4524   -3.0232 H   0  0  0  0  0  0  0  0  0  0  0  0
   -1.9717    0.3517   -2.2301 H   0  0  0  0  0  0  0  0  0  0  0  0
   -3.2483   -1.5859   -1.5755 H   0  0  0  0  0  0  0  0  0  0  0  0
   -5.6723   -3.8245    0.2326 H   0  0  0  0  0  0  0  0  0  0  0  0
   -5.2597   -3.0064   -1.2738 H   0  0  0  0  0  0  0  0  0  0  0  0
   -3.9842   -3.4475   -0.1097 H   0  0  0  0  0  0  0  0  0  0  0  0
   -6.6390   -2.3538    1.8483 H   0  0  0  0  0  0  0  0  0  0  0  0
   -3.9327    2.7011    0.8169 H   0  0  0  0  0  0  0  0  0  0  0  0
  1  2  1  0
  2  3  1  0
  3  4  1  0
  4  5  1  0
  5  6  2  0
  6  7  1  0
  7  8  2  0
  8  9  1  0
  9 10  1  0
 10 11  2  0
 10 12  1  0
 12 13  1  0
 13 14  1  0
 14 15  2  0
 15 16  1  0
 16 17  2  0
 17 18  1  0
 18 19  1  0
 18 20  2  0
 20 21  1  0
 21 22  2  0
 21 23  1  0
 23 24  1  0
 24 25  2  0
  8 26  1  0
 26  5  1  0
 25 14  1  0
 24 17  1  0
  1 27  1  0
  1 28  1  0
  1 29  1  0
  2 30  1  0
  2 31  1  0
  3 32  1  0
  3 33  1  0
  4 34  1  0
  4 35  1  0
  9 36  1  0
 12 37  1  0
 12 38  1  0
 15 39  1  0
 16 40  1  0
 19 41  1  0
 19 42  1  0
 19 43  1  0
 20 44  1  0
 25 45  1  0
M  END
$$$$
