
     RDKit          3D

 45 48  0  0  0  0  0  0  0  0999 V2000
    0.1818   -0.9535   -3.7046 C   0  0  0  0  0  0  0  0  0  0  0  0
    1.4560   -1.3173   -2.9637 C   0  0  0  0  0  0  0  0  0  0  0  0
    1.4798   -0.5789   -1.7444 O   0  0  0  0  0  0  0  0  0  0  0  0
    2.5054   -0.8168   -0.8631 C   0  0  0  0  0  0  0  0  0  0  0  0
    3.6203   -1.6121   -1.1642 C   0  0  0  0  0  0  0  0  0  0  0  0
    4.6519   -1.7733   -0.2371 C   0  0  0  0  0  0  0  0  0  0  0  0
    4.5857   -1.1378    0.9964 C   0  0  0  0  0  0  0  0  0  0  0  0
    3.4815   -0.3440    1.3058 C   0  0  0  0  0  0  0  0  0  0  0  0
    2.4189   -0.1733    0.3927 C   0  0  0  0  0  0  0  0  0  0  0  0
    1.2693    0.6594    0.7757 C   0  0  0  0  0  0  0  0  0  0  0  0
    1.5427    1.8639    1.3309 N   0  0  0  0  0  0  0  0  0  0  0  0
    0.4703    2.6095    1.6964 C   0  0  0  0  0  0  0  0  0  0  0  0
    0.7503    3.9439    2.2953 C   0  0  0  0  0  0  0  0  0  0  0  0
    2.0730    4.2823    2.3929 N   0  0  0  0  0  0  0  0  0  0  0  0
   -0.1400    4.6949    2.6738 O   0  0  0  0  0  0  0  0  0  0  0  0
   -0.8089    2.1683    1.5296 C   0  0  0  0  0  0  0  0  0  0  0  0
   -2.0412    2.7281    1.8241 N   0  0  0  0  0  0  0  0  0  0  0  0
   -3.0445    1.8254    1.4478 C   0  0  0  0  0  0  0  0  0  0  0  0
   -4.2340    2.0578    1.5880 O   0  0  0  0  0  0  0  0  0  0  0  0
   -2.3813    0.6814    0.9044 N   0  0  0  0  0  0  0  0  0  0  0  0
   -2.9877   -0.4968    0.3863 C   0  0  0  0  0  0  0  0  0  0  0  0
   -2.2565   -1.5230   -0.2393 C   0  0  0  0  0  0  0  0  0  0  0  0
   -2.8811   -2.6727   -0.7425 C   0  0  0  0  0  0  0  0  0  0  0  0
   -4.2531   -2.8149   -0.6291 C   0  0  0  0  0  0  0  0  0  0  0  0
   -4.8503   -3.9122   -1.1103 F   0  0  0  0  0  0  0  0  0  0  0  0
   -5.0102   -1.8279   -0.0229 C   0  0  0  0  0  0  0  0  0  0  0  0
   -4.3807   -0.6807    0.4783 C   0  0  0  0  0  0  0  0  0  0  0  0
   -0.9847    0.9257    0.9714 C   0  0  0  0  0  0  0  0  0  0  0  0
    0.0329    0.1446    0.6032 N   0  0  0  0  0  0  0  0  0  0  0  0
    0.1446    0.1229   -3.9024 H   0  0  0  0  0  0  0  0  0  0  0  0
    0.1169   -1.4902   -4.6553 H   0  0  0  0  0  0  0  0  0  0  0  0
   -0.6986   -1.1968   -3.1012 H   0  0  0  0  0  0  0  0  0  0  0  0
    2.3180   -1.0490   -3.5849 H   0  0  0  0  0  0  0  0  0  0  0  0
    1.4564   -2.3942   -2.7596 H   0  0  0  0  0  0  0  0  0  0  0  0
    3.7231   -2.1144   -2.1206 H   0  0  0  0  0  0  0  0  0  0  0  0
    5.5112   -2.3923   -0.4839 H   0  0  0  0  0  0  0  0  0  0  0  0
    5.3893   -1.2597    1.7183 H   0  0  0  0  0  0  0  0  0  0  0  0
    3.4422    0.1422    2.2795 H   0  0  0  0  0  0  0  0  0  0  0  0
    2.7879    3.6629    2.0276 H   0  0  0  0  0  0  0  0  0  0  0  0
    2.3282    5.1912    2.7531 H   0  0  0  0  0  0  0  0  0  0  0  0
   -2.1961    3.6376    2.2436 H   0  0  0  0  0  0  0  0  0  0  0  0
   -1.1823   -1.4679   -0.3754 H   0  0  0  0  0  0  0  0  0  0  0  0
   -2.2964   -3.4507   -1.2228 H   0  0  0  0  0  0  0  0  0  0  0  0
   -6.0857   -1.9473    0.0620 H   0  0  0  0  0  0  0  0  0  0  0  0
   -5.0243    0.0562    0.9501 H   0  0  0  0  0  0  0  0  0  0  0  0
  1  2  1  0
  2  3  1  0
  3  4  1  0
  4  5  2  0
  5  6  1  0
  6  7  2  0
  7  8  1  0
  8  9  2  0
  9 10  1  0
 10 11  2  0
 11 12  1  0
 12 13  1  0
 13 14  1  0
 13 15  2  0
 12 16  2  0
 16 17  1  0
 17 18  1  0
 18 19  2  0
 18 20  1  0
 20 21  1  0
 21 22  2  0
 22 23  1  0
 23 24  2  0
 24 25  1  0
 24 26  1  0
 26 27  2  0
 20 28  1  0
 28 29  2  0
  9  4  1  0
 29 10  1  0
 28 16  1  0
 27 21  1  0
  1 30  1  0
  1 31  1  0
  1 32  1  0
  2 33  1  0
  2 34  1  0
  5 35  1  0
  6 36  1  0
  7 37  1  0
  8 38  1  0
 14 39  1  0
 14 40  1  0
 17 41  1  0
 22 42  1  0
 23 43  1  0
 26 44  1  0
 27 45  1  0
M  END
$$$$
