
     RDKit          3D

 44 45  0  0  0  0  0  0  0  0999 V2000
   -6.2709    0.2325    2.3720 C   0  0  0  0  0  0  0  0  0  0  0  0
   -6.7774   -0.1852    0.9993 C   0  0  0  0  0  0  0  0  0  0  0  0
   -5.8494    0.2501   -0.1308 C   0  0  0  0  0  0  0  0  0  0  0  0
   -4.6006   -0.4544   -0.0438 O   0  0  0  0  0  0  0  0  0  0  0  0
   -3.5210    0.2674    0.3479 C   0  0  0  0  0  0  0  0  0  0  0  0
   -3.5182    1.4516    0.6405 O   0  0  0  0  0  0  0  0  0  0  0  0
   -2.3066   -0.5956    0.3852 C   0  0  0  0  0  0  0  0  0  0  0  0
   -2.3468   -1.9527    0.0390 C   0  0  0  0  0  0  0  0  0  0  0  0
   -1.1845   -2.7198    0.0902 C   0  0  0  0  0  0  0  0  0  0  0  0
    0.0195   -2.1351    0.4860 C   0  0  0  0  0  0  0  0  0  0  0  0
    0.0781   -0.7794    0.8347 C   0  0  0  0  0  0  0  0  0  0  0  0
    1.3348   -0.2764    1.2206 N   0  0  0  0  0  0  0  0  0  0  0  0
    1.6662    1.0218    1.5675 C   0  0  0  0  0  0  0  0  0  0  0  0
    0.9093    1.9856    1.6185 O   0  0  0  0  0  0  0  0  0  0  0  0
    3.1461    1.1702    1.9401 C   0  0  0  0  0  0  0  0  0  0  0  0
    4.0045    0.1995    1.3494 O   0  0  0  0  0  0  0  0  0  0  0  0
    4.4137    0.4043    0.0600 C   0  0  0  0  0  0  0  0  0  0  0  0
    3.9429    1.3924   -0.8086 C   0  0  0  0  0  0  0  0  0  0  0  0
    4.4392    1.4768   -2.1157 C   0  0  0  0  0  0  0  0  0  0  0  0
    5.4082    0.5650   -2.5524 C   0  0  0  0  0  0  0  0  0  0  0  0
    5.9277    0.6500   -3.9229 N   0  0  0  0  0  4  0  0  0  0  0  0
    5.5223    1.5778   -4.6368 O   0  0  0  0  0  0  0  0  0  0  0  0
    6.7403   -0.2127   -4.2844 O   0  0  0  0  0  1  0  0  0  0  0  0
    5.8817   -0.4301   -1.6906 C   0  0  0  0  0  0  0  0  0  0  0  0
    5.3787   -0.5045   -0.3891 C   0  0  0  0  0  0  0  0  0  0  0  0
   -1.0901   -0.0151    0.7832 C   0  0  0  0  0  0  0  0  0  0  0  0
   -6.1208    1.3156    2.4225 H   0  0  0  0  0  0  0  0  0  0  0  0
   -6.9983   -0.0445    3.1419 H   0  0  0  0  0  0  0  0  0  0  0  0
   -5.3245   -0.2604    2.6150 H   0  0  0  0  0  0  0  0  0  0  0  0
   -6.8857   -1.2761    0.9865 H   0  0  0  0  0  0  0  0  0  0  0  0
   -7.7699    0.2495    0.8368 H   0  0  0  0  0  0  0  0  0  0  0  0
   -6.2982   -0.0266   -1.0909 H   0  0  0  0  0  0  0  0  0  0  0  0
   -5.7227    1.3386   -0.1416 H   0  0  0  0  0  0  0  0  0  0  0  0
   -3.2755   -2.4251   -0.2717 H   0  0  0  0  0  0  0  0  0  0  0  0
   -1.2161   -3.7729   -0.1785 H   0  0  0  0  0  0  0  0  0  0  0  0
    0.9116   -2.7564    0.5163 H   0  0  0  0  0  0  0  0  0  0  0  0
    2.1142   -0.9274    1.2009 H   0  0  0  0  0  0  0  0  0  0  0  0
    3.2083    1.0310    3.0257 H   0  0  0  0  0  0  0  0  0  0  0  0
    3.4907    2.1901    1.7332 H   0  0  0  0  0  0  0  0  0  0  0  0
    3.1848    2.1127   -0.5126 H   0  0  0  0  0  0  0  0  0  0  0  0
    4.0571    2.2539   -2.7758 H   0  0  0  0  0  0  0  0  0  0  0  0
    6.6343   -1.1477   -2.0106 H   0  0  0  0  0  0  0  0  0  0  0  0
    5.7479   -1.2770    0.2830 H   0  0  0  0  0  0  0  0  0  0  0  0
   -1.0852    1.0387    1.0490 H   0  0  0  0  0  0  0  0  0  0  0  0
  1  2  1  0
  2  3  1  0
  3  4  1  0
  4  5  1  0
  5  6  2  0
  5  7  1  0
  7  8  2  0
  8  9  1  0
  9 10  2  0
 10 11  1  0
 11 12  1  0
 12 13  1  0
 13 14  2  0
 13 15  1  0
 15 16  1  0
 16 17  1  0
 17 18  2  0
 18 19  1  0
 19 20  2  0
 20 21  1  0
 21 22  2  0
 21 23  1  0
 20 24  1  0
 24 25  2  0
 11 26  2  0
 26  7  1  0
 25 17  1  0
  1 27  1  0
  1 28  1  0
  1 29  1  0
  2 30  1  0
  2 31  1  0
  3 32  1  0
  3 33  1  0
  8 34  1  0
  9 35  1  0
 10 36  1  0
 12 37  1  0
 15 38  1  0
 15 39  1  0
 18 40  1  0
 19 41  1  0
 24 42  1  0
 25 43  1  0
 26 44  1  0
M  CHG  2  21   1  23  -1
M  END
$$$$
