
     RDKit          3D

 34 34  0  0  0  0  0  0  0  0999 V2000
    4.6069   -1.6230    0.3816 C   0  0  0  0  0  0  0  0  0  0  0  0
    4.0330   -0.3555    0.9949 C   0  0  0  0  0  0  0  0  0  0  0  0
    4.1747    0.8757    0.0951 C   0  0  0  0  0  0  0  0  0  0  0  0
    3.4332    0.7750   -1.2373 C   0  0  0  0  0  0  0  0  0  0  0  0
    2.0505    0.4463   -1.0391 O   0  0  0  0  0  0  0  0  0  0  0  0
    1.2237    1.4906   -0.7881 C   0  0  0  0  0  0  0  0  0  0  0  0
    1.5477    2.6660   -0.7262 O   0  0  0  0  0  0  0  0  0  0  0  0
   -0.1718    1.0151   -0.5858 C   0  0  0  0  0  0  0  0  0  0  0  0
   -1.1667    1.9667   -0.3360 C   0  0  0  0  0  0  0  0  0  0  0  0
   -2.4930    1.5675   -0.1373 C   0  0  0  0  0  0  0  0  0  0  0  0
   -2.8474    0.2133   -0.1844 C   0  0  0  0  0  0  0  0  0  0  0  0
   -4.2047   -0.1039    0.0273 N   0  0  0  0  0  0  0  0  0  0  0  0
   -4.7878   -1.3584    0.0178 C   0  0  0  0  0  0  0  0  0  0  0  0
   -6.2721   -1.2997    0.2817 C   0  0  0  0  0  0  0  0  0  0  0  0
   -4.2320   -2.4291   -0.1980 O   0  0  0  0  0  0  0  0  0  0  0  0
   -1.8524   -0.7341   -0.4323 C   0  0  0  0  0  0  0  0  0  0  0  0
   -0.5226   -0.3385   -0.6320 C   0  0  0  0  0  0  0  0  0  0  0  0
    4.5666   -2.4424    1.1064 H   0  0  0  0  0  0  0  0  0  0  0  0
    4.0394   -1.9336   -0.5006 H   0  0  0  0  0  0  0  0  0  0  0  0
    5.6521   -1.4801    0.0895 H   0  0  0  0  0  0  0  0  0  0  0  0
    2.9799   -0.5192    1.2507 H   0  0  0  0  0  0  0  0  0  0  0  0
    4.5561   -0.1561    1.9379 H   0  0  0  0  0  0  0  0  0  0  0  0
    5.2356    1.0721   -0.0990 H   0  0  0  0  0  0  0  0  0  0  0  0
    3.7891    1.7377    0.6528 H   0  0  0  0  0  0  0  0  0  0  0  0
    3.5355    1.7045   -1.8104 H   0  0  0  0  0  0  0  0  0  0  0  0
    3.8661   -0.0165   -1.8576 H   0  0  0  0  0  0  0  0  0  0  0  0
   -0.9145    3.0250   -0.2946 H   0  0  0  0  0  0  0  0  0  0  0  0
   -3.2396    2.3342    0.0542 H   0  0  0  0  0  0  0  0  0  0  0  0
   -4.8211    0.6808    0.1977 H   0  0  0  0  0  0  0  0  0  0  0  0
   -6.6104   -2.2649    0.6696 H   0  0  0  0  0  0  0  0  0  0  0  0
   -6.7972   -1.0789   -0.6513 H   0  0  0  0  0  0  0  0  0  0  0  0
   -6.5072   -0.5344    1.0270 H   0  0  0  0  0  0  0  0  0  0  0  0
   -2.0740   -1.7964   -0.4770 H   0  0  0  0  0  0  0  0  0  0  0  0
    0.2246   -1.1056   -0.8216 H   0  0  0  0  0  0  0  0  0  0  0  0
  1  2  1  0
  2  3  1  0
  3  4  1  0
  4  5  1  0
  5  6  1  0
  6  7  2  0
  6  8  1  0
  8  9  2  0
  9 10  1  0
 10 11  2  0
 11 12  1  0
 12 13  1  0
 13 14  1  0
 13 15  2  0
 11 16  1  0
 16 17  2  0
 17  8  1  0
  1 18  1  0
  1 19  1  0
  1 20  1  0
  2 21  1  0
  2 22  1  0
  3 23  1  0
  3 24  1  0
  4 25  1  0
  4 26  1  0
  9 27  1  0
 10 28  1  0
 12 29  1  0
 14 30  1  0
 14 31  1  0
 14 32  1  0
 16 33  1  0
 17 34  1  0
M  END
$$$$
