
     RDKit          3D

 45 47  0  0  0  0  0  0  0  0999 V2000
    6.9297   -0.5019    1.8789 C   0  0  0  0  0  0  0  0  0  0  0  0
    6.6013    0.2762    0.6143 C   0  0  0  0  0  0  0  0  0  0  0  0
    6.1562   -0.6103   -0.5541 C   0  0  0  0  0  0  0  0  0  0  0  0
    4.8840   -1.4283   -0.3128 C   0  0  0  0  0  0  0  0  0  0  0  0
    3.6788   -0.5786   -0.0746 C   0  0  0  0  0  0  0  0  0  0  0  0
    3.2099   -0.2585    1.1137 N   0  0  0  0  0  0  0  0  0  0  0  0
    2.0862    0.5383    1.0268 N   0  0  0  0  0  0  0  0  0  0  0  0
    1.7442    0.7816   -0.2188 C   0  0  0  0  0  0  0  0  0  0  0  0
    0.6599    1.5550   -0.5396 N   0  0  0  0  0  0  0  0  0  0  0  0
    0.1769    1.8360   -1.7970 C   0  0  0  0  0  0  0  0  0  0  0  0
    0.6358    1.4599   -2.8710 O   0  0  0  0  0  0  0  0  0  0  0  0
   -1.0502    2.7538   -1.7566 C   0  0  0  0  0  0  0  0  0  0  0  0
   -1.8205    2.6527   -0.5653 O   0  0  0  0  0  0  0  0  0  0  0  0
   -2.6975    1.6094   -0.4529 C   0  0  0  0  0  0  0  0  0  0  0  0
   -2.8372    0.5462   -1.3456 C   0  0  0  0  0  0  0  0  0  0  0  0
   -3.7710   -0.4728   -1.0973 C   0  0  0  0  0  0  0  0  0  0  0  0
   -4.5789   -0.4482    0.0449 C   0  0  0  0  0  0  0  0  0  0  0  0
   -5.5731   -1.4814    0.3636 C   0  0  0  0  0  0  0  0  0  0  0  0
   -5.7702   -2.6504   -0.5554 C   0  0  0  0  0  0  0  0  0  0  0  0
   -6.2897   -1.3476    1.4894 C   0  0  0  0  0  0  0  0  0  0  0  0
   -6.1340   -0.2212    2.4229 C   0  0  0  0  0  0  0  0  0  0  0  0
   -6.8199   -0.1488    3.4359 O   0  0  0  0  0  0  0  0  0  0  0  0
   -5.1873    0.7340    2.0973 O   0  0  0  0  0  0  0  0  0  0  0  0
   -4.4190    0.6235    0.9226 C   0  0  0  0  0  0  0  0  0  0  0  0
   -3.4942    1.6427    0.6900 C   0  0  0  0  0  0  0  0  0  0  0  0
    2.7648    0.0656   -1.3785 S   0  0  0  0  0  0  0  0  0  0  0  0
    7.3414    0.1718    2.6374 H   0  0  0  0  0  0  0  0  0  0  0  0
    6.0385   -0.9724    2.3042 H   0  0  0  0  0  0  0  0  0  0  0  0
    7.6722   -1.2810    1.6796 H   0  0  0  0  0  0  0  0  0  0  0  0
    7.4974    0.8274    0.3040 H   0  0  0  0  0  0  0  0  0  0  0  0
    5.8370    1.0291    0.8364 H   0  0  0  0  0  0  0  0  0  0  0  0
    6.0199    0.0274   -1.4368 H   0  0  0  0  0  0  0  0  0  0  0  0
    6.9708   -1.3036   -0.7991 H   0  0  0  0  0  0  0  0  0  0  0  0
    4.7107   -2.0758   -1.1817 H   0  0  0  0  0  0  0  0  0  0  0  0
    5.0233   -2.1047    0.5382 H   0  0  0  0  0  0  0  0  0  0  0  0
    0.1402    1.8945    0.2621 H   0  0  0  0  0  0  0  0  0  0  0  0
   -0.6713    3.7813   -1.8056 H   0  0  0  0  0  0  0  0  0  0  0  0
   -1.6686    2.6050   -2.6494 H   0  0  0  0  0  0  0  0  0  0  0  0
   -2.2380    0.4630   -2.2478 H   0  0  0  0  0  0  0  0  0  0  0  0
   -3.8449   -1.2825   -1.8194 H   0  0  0  0  0  0  0  0  0  0  0  0
   -6.5430   -3.3336   -0.1853 H   0  0  0  0  0  0  0  0  0  0  0  0
   -4.8458   -3.2297   -0.6518 H   0  0  0  0  0  0  0  0  0  0  0  0
   -6.0844   -2.3150   -1.5496 H   0  0  0  0  0  0  0  0  0  0  0  0
   -7.0391   -2.0741    1.7833 H   0  0  0  0  0  0  0  0  0  0  0  0
   -3.4011    2.4600    1.4004 H   0  0  0  0  0  0  0  0  0  0  0  0
  1  2  1  0
  2  3  1  0
  3  4  1  0
  4  5  1  0
  5  6  2  0
  6  7  1  0
  7  8  2  0
  8  9  1  0
  9 10  1  0
 10 11  2  0
 10 12  1  0
 12 13  1  0
 13 14  1  0
 14 15  2  0
 15 16  1  0
 16 17  2  0
 17 18  1  0
 18 19  1  0
 18 20  2  0
 20 21  1  0
 21 22  2  0
 21 23  1  0
 23 24  1  0
 24 25  2  0
  8 26  1  0
 26  5  1  0
 25 14  1  0
 24 17  1  0
  1 27  1  0
  1 28  1  0
  1 29  1  0
  2 30  1  0
  2 31  1  0
  3 32  1  0
  3 33  1  0
  4 34  1  0
  4 35  1  0
  9 36  1  0
 12 37  1  0
 12 38  1  0
 15 39  1  0
 16 40  1  0
 19 41  1  0
 19 42  1  0
 19 43  1  0
 20 44  1  0
 25 45  1  0
M  END
$$$$
