
     RDKit          3D

 43 46  0  0  0  0  0  0  0  0999 V2000
   -1.5962    0.6859   -1.6007 O   0  0  0  0  0  0  0  0  0  0  0  0
   -1.8532    0.2459   -0.4843 C   0  0  0  0  0  0  0  0  0  0  0  0
   -0.9122   -0.1551    0.4509 N   0  0  0  0  0  0  0  0  0  0  0  0
    0.4946   -0.1394    0.3134 C   0  0  0  0  0  0  0  0  0  0  0  0
    1.2466   -0.5961    1.4008 C   0  0  0  0  0  0  0  0  0  0  0  0
    2.6460   -0.6141    1.3480 C   0  0  0  0  0  0  0  0  0  0  0  0
    3.3260   -0.1759    0.2065 C   0  0  0  0  0  0  0  0  0  0  0  0
    4.7364   -0.2289    0.2404 N   0  0  0  0  0  0  0  0  0  0  0  0
    5.6316    0.1449   -0.7553 C   0  0  0  0  0  0  0  0  0  0  0  0
    5.2847    0.5912   -1.8454 O   0  0  0  0  0  0  0  0  0  0  0  0
    7.0445   -0.0387   -0.3958 C   0  0  0  0  0  0  0  0  0  0  0  0
    7.6405   -0.5188    0.7610 C   0  0  0  0  0  0  0  0  0  0  0  0
    9.0666   -0.5296    0.6883 C   0  0  0  0  0  0  0  0  0  0  0  0
    9.5244   -0.0588   -0.5190 C   0  0  0  0  0  0  0  0  0  0  0  0
    8.2461    0.3919   -1.5549 S   0  0  0  0  0  0  0  0  0  0  0  0
    2.5761    0.2788   -0.8762 C   0  0  0  0  0  0  0  0  0  0  0  0
    1.1729    0.2968   -0.8229 C   0  0  0  0  0  0  0  0  0  0  0  0
   -3.3022    0.1295   -0.0925 C   0  0  0  0  0  0  0  0  0  0  0  0
   -3.7491   -0.3532    1.1437 C   0  0  0  0  0  0  0  0  0  0  0  0
   -5.1200   -0.4270    1.4238 C   0  0  0  0  0  0  0  0  0  0  0  0
   -6.0743   -0.0220    0.4797 C   0  0  0  0  0  0  0  0  0  0  0  0
   -7.4508   -0.0916    0.7497 C   0  0  0  0  0  0  0  0  0  0  0  0
   -8.3854    0.3163   -0.2033 C   0  0  0  0  0  0  0  0  0  0  0  0
   -7.9560    0.7981   -1.4361 C   0  0  0  0  0  0  0  0  0  0  0  0
   -6.5912    0.8730   -1.7185 C   0  0  0  0  0  0  0  0  0  0  0  0
   -5.6385    0.4665   -0.7702 C   0  0  0  0  0  0  0  0  0  0  0  0
   -4.2605    0.5353   -1.0385 C   0  0  0  0  0  0  0  0  0  0  0  0
   -1.2402   -0.5008    1.3369 H   0  0  0  0  0  0  0  0  0  0  0  0
    0.7595   -0.9455    2.3072 H   0  0  0  0  0  0  0  0  0  0  0  0
    3.1899   -0.9770    2.2160 H   0  0  0  0  0  0  0  0  0  0  0  0
    5.1300   -0.5831    1.0971 H   0  0  0  0  0  0  0  0  0  0  0  0
    7.1046   -0.8552    1.6382 H   0  0  0  0  0  0  0  0  0  0  0  0
    9.7220   -0.8662    1.4826 H   0  0  0  0  0  0  0  0  0  0  0  0
   10.5502    0.0436   -0.8463 H   0  0  0  0  0  0  0  0  0  0  0  0
    3.0410    0.6324   -1.7914 H   0  0  0  0  0  0  0  0  0  0  0  0
    0.6467    0.6626   -1.6993 H   0  0  0  0  0  0  0  0  0  0  0  0
   -3.0732   -0.6841    1.9224 H   0  0  0  0  0  0  0  0  0  0  0  0
   -5.4392   -0.8063    2.3929 H   0  0  0  0  0  0  0  0  0  0  0  0
   -7.8068   -0.4652    1.7071 H   0  0  0  0  0  0  0  0  0  0  0  0
   -9.4481    0.2577    0.0174 H   0  0  0  0  0  0  0  0  0  0  0  0
   -8.6819    1.1165   -2.1800 H   0  0  0  0  0  0  0  0  0  0  0  0
   -6.2745    1.2525   -2.6880 H   0  0  0  0  0  0  0  0  0  0  0  0
   -3.9274    0.9133   -2.0052 H   0  0  0  0  0  0  0  0  0  0  0  0
  1  2  2  0
  2  3  1  0
  3  4  1  0
  4  5  2  0
  5  6  1  0
  6  7  2  0
  7  8  1  0
  8  9  1  0
  9 10  2  0
  9 11  1  0
 11 12  2  0
 12 13  1  0
 13 14  2  0
 14 15  1  0
  7 16  1  0
 16 17  2  0
  2 18  1  0
 18 19  2  0
 19 20  1  0
 20 21  2  0
 21 22  1  0
 22 23  2  0
 23 24  1  0
 24 25  2  0
 25 26  1  0
 26 27  2  0
 17  4  1  0
 27 18  1  0
 15 11  1  0
 26 21  1  0
  3 28  1  0
  5 29  1  0
  6 30  1  0
  8 31  1  0
 12 32  1  0
 13 33  1  0
 14 34  1  0
 16 35  1  0
 17 36  1  0
 19 37  1  0
 20 38  1  0
 22 39  1  0
 23 40  1  0
 24 41  1  0
 25 42  1  0
 27 43  1  0
M  END
$$$$
