
     RDKit          3D

 43 45  0  0  0  0  0  0  0  0999 V2000
    6.4824   -1.8330    1.2573 C   0  0  0  0  0  0  0  0  0  0  0  0
    5.6295   -0.7240    0.7141 C   0  0  0  0  0  0  0  0  0  0  0  0
    6.2120    0.4735    0.2842 C   0  0  0  0  0  0  0  0  0  0  0  0
    5.4179    1.5173   -0.2017 C   0  0  0  0  0  0  0  0  0  0  0  0
    6.0456    2.8083   -0.6370 C   0  0  0  0  0  0  0  0  0  0  0  0
    4.0245    1.3631   -0.2182 C   0  0  0  0  0  0  0  0  0  0  0  0
    3.4218    0.1783    0.2261 C   0  0  0  0  0  0  0  0  0  0  0  0
    2.0133    0.1112    0.1653 N   0  0  0  0  0  0  0  0  0  0  0  0
    1.2002   -0.9115    0.6188 C   0  0  0  0  0  0  0  0  0  0  0  0
    1.5439   -1.9205    1.2211 O   0  0  0  0  0  0  0  0  0  0  0  0
   -0.2522   -0.7088    0.3581 C   0  0  0  0  0  0  0  0  0  0  0  0
   -0.7129   -0.1609   -0.8429 C   0  0  0  0  0  0  0  0  0  0  0  0
   -2.0870    0.0057   -1.0513 C   0  0  0  0  0  0  0  0  0  0  0  0
   -3.0161   -0.3727   -0.0706 C   0  0  0  0  0  0  0  0  0  0  0  0
   -4.3799   -0.1672   -0.3693 N   0  0  0  0  0  0  0  0  0  0  0  0
   -5.4787   -0.4091    0.4476 C   0  0  0  0  0  0  0  0  0  0  0  0
   -5.3999   -0.8202    1.6012 O   0  0  0  0  0  0  0  0  0  0  0  0
   -6.7615   -0.1166   -0.1837 C   0  0  0  0  0  0  0  0  0  0  0  0
   -7.1396    0.2692   -1.4612 C   0  0  0  0  0  0  0  0  0  0  0  0
   -8.5517    0.3968   -1.4566 C   0  0  0  0  0  0  0  0  0  0  0  0
   -8.9580    0.0818   -0.1840 C   0  0  0  0  0  0  0  0  0  0  0  0
   -7.8901   -0.2296    0.5897 O   0  0  0  0  0  0  0  0  0  0  0  0
   -2.5464   -0.9352    1.1181 C   0  0  0  0  0  0  0  0  0  0  0  0
   -1.1729   -1.1093    1.3295 C   0  0  0  0  0  0  0  0  0  0  0  0
    4.2326   -0.8588    0.6897 C   0  0  0  0  0  0  0  0  0  0  0  0
    7.4803   -1.8163    0.8066 H   0  0  0  0  0  0  0  0  0  0  0  0
    6.0418   -2.8099    1.0324 H   0  0  0  0  0  0  0  0  0  0  0  0
    6.5833   -1.7299    2.3421 H   0  0  0  0  0  0  0  0  0  0  0  0
    7.2932    0.5917    0.3273 H   0  0  0  0  0  0  0  0  0  0  0  0
    6.1200    3.4934    0.2130 H   0  0  0  0  0  0  0  0  0  0  0  0
    5.4528    3.2843   -1.4252 H   0  0  0  0  0  0  0  0  0  0  0  0
    7.0481    2.6383   -1.0437 H   0  0  0  0  0  0  0  0  0  0  0  0
    3.4114    2.1860   -0.5773 H   0  0  0  0  0  0  0  0  0  0  0  0
    1.5533    0.9392   -0.1881 H   0  0  0  0  0  0  0  0  0  0  0  0
   -0.0208    0.1100   -1.6358 H   0  0  0  0  0  0  0  0  0  0  0  0
   -2.4180    0.4287   -1.9967 H   0  0  0  0  0  0  0  0  0  0  0  0
   -4.5722    0.2233   -1.2792 H   0  0  0  0  0  0  0  0  0  0  0  0
   -6.4909    0.4356   -2.3085 H   0  0  0  0  0  0  0  0  0  0  0  0
   -9.1944    0.6792   -2.2789 H   0  0  0  0  0  0  0  0  0  0  0  0
   -9.9201    0.0317    0.3073 H   0  0  0  0  0  0  0  0  0  0  0  0
   -3.2185   -1.2630    1.9056 H   0  0  0  0  0  0  0  0  0  0  0  0
   -0.8269   -1.5594    2.2586 H   0  0  0  0  0  0  0  0  0  0  0  0
    3.8009   -1.7912    1.0414 H   0  0  0  0  0  0  0  0  0  0  0  0
  1  2  1  0
  2  3  2  0
  3  4  1  0
  4  5  1  0
  4  6  2  0
  6  7  1  0
  7  8  1  0
  8  9  1  0
  9 10  2  0
  9 11  1  0
 11 12  2  0
 12 13  1  0
 13 14  2  0
 14 15  1  0
 15 16  1  0
 16 17  2  0
 16 18  1  0
 18 19  2  0
 19 20  1  0
 20 21  2  0
 21 22  1  0
 14 23  1  0
 23 24  2  0
  7 25  2  0
 25  2  1  0
 24 11  1  0
 22 18  1  0
  1 26  1  0
  1 27  1  0
  1 28  1  0
  3 29  1  0
  5 30  1  0
  5 31  1  0
  5 32  1  0
  6 33  1  0
  8 34  1  0
 12 35  1  0
 13 36  1  0
 15 37  1  0
 19 38  1  0
 20 39  1  0
 21 40  1  0
 23 41  1  0
 24 42  1  0
 25 43  1  0
M  END
$$$$
