
     RDKit          3D

 47 48  0  0  0  0  0  0  0  0999 V2000
    7.4565   -0.6875    0.0258 C   0  0  0  0  0  0  0  0  0  0  0  0
    7.3400   -0.3034   -1.3364 O   0  0  0  0  0  0  0  0  0  0  0  0
    6.1232    0.1582   -1.7651 C   0  0  0  0  0  0  0  0  0  0  0  0
    4.9913    0.3119   -0.9563 C   0  0  0  0  0  0  0  0  0  0  0  0
    3.7831    0.7894   -1.4922 C   0  0  0  0  0  0  0  0  0  0  0  0
    2.5855    0.9873   -0.6611 C   0  0  0  0  0  0  0  0  0  0  0  0
    2.1911    0.1080    0.2718 C   0  0  0  0  0  0  0  0  0  0  0  0
    0.9810    0.2624    1.1290 C   0  0  0  0  0  0  0  0  0  0  0  0
    0.6955   -0.6667    1.8830 O   0  0  0  0  0  0  0  0  0  0  0  0
    0.1437    1.5103    1.0165 C   0  0  0  0  0  0  0  0  0  0  0  0
   -0.8916    1.6650    2.1020 C   0  0  0  0  0  0  0  0  0  0  0  0
   -0.7472    2.4992    2.9986 O   0  0  0  0  0  0  0  0  0  0  0  0
   -2.1457    0.8606    2.0929 C   0  0  0  0  0  0  0  0  0  0  0  0
   -2.4660   -0.0589    1.1711 C   0  0  0  0  0  0  0  0  0  0  0  0
   -3.7144   -0.8348    1.2134 C   0  0  0  0  0  0  0  0  0  0  0  0
   -3.6647   -2.2014    0.9031 C   0  0  0  0  0  0  0  0  0  0  0  0
   -4.8294   -2.9680    0.8989 C   0  0  0  0  0  0  0  0  0  0  0  0
   -6.0414   -2.3615    1.1973 C   0  0  0  0  0  0  0  0  0  0  0  0
   -7.1706   -3.1343    1.1855 O   0  0  0  0  0  0  0  0  0  0  0  0
   -6.1239   -0.9984    1.5014 C   0  0  0  0  0  0  0  0  0  0  0  0
   -7.3896   -0.5420    1.7684 O   0  0  0  0  0  0  0  0  0  0  0  0
   -7.5102    0.8277    2.1353 C   0  0  0  0  0  0  0  0  0  0  0  0
   -4.9540   -0.2358    1.5011 C   0  0  0  0  0  0  0  0  0  0  0  0
    3.7276    1.1405   -2.8465 C   0  0  0  0  0  0  0  0  0  0  0  0
    4.8494    0.9926   -3.6632 C   0  0  0  0  0  0  0  0  0  0  0  0
    6.0358    0.5020   -3.1208 C   0  0  0  0  0  0  0  0  0  0  0  0
    7.1380    0.3552   -3.9202 O   0  0  0  0  0  0  0  0  0  0  0  0
    6.7743   -1.5100    0.2649 H   0  0  0  0  0  0  0  0  0  0  0  0
    8.4779   -1.0458    0.1864 H   0  0  0  0  0  0  0  0  0  0  0  0
    7.2957    0.1669    0.6914 H   0  0  0  0  0  0  0  0  0  0  0  0
    5.0360    0.0752    0.1015 H   0  0  0  0  0  0  0  0  0  0  0  0
    2.0257    1.8937   -0.8728 H   0  0  0  0  0  0  0  0  0  0  0  0
    2.7377   -0.8131    0.4565 H   0  0  0  0  0  0  0  0  0  0  0  0
    0.8029    2.3841    1.0859 H   0  0  0  0  0  0  0  0  0  0  0  0
   -0.3486    1.5440    0.0392 H   0  0  0  0  0  0  0  0  0  0  0  0
   -2.8005    1.0761    2.9327 H   0  0  0  0  0  0  0  0  0  0  0  0
   -1.7972   -0.3139    0.3550 H   0  0  0  0  0  0  0  0  0  0  0  0
   -2.7164   -2.6837    0.6747 H   0  0  0  0  0  0  0  0  0  0  0  0
   -4.7925   -4.0282    0.6672 H   0  0  0  0  0  0  0  0  0  0  0  0
   -7.8957   -2.5243    1.4232 H   0  0  0  0  0  0  0  0  0  0  0  0
   -6.9449    1.0442    3.0478 H   0  0  0  0  0  0  0  0  0  0  0  0
   -8.5662    1.0256    2.3429 H   0  0  0  0  0  0  0  0  0  0  0  0
   -7.2039    1.4834    1.3136 H   0  0  0  0  0  0  0  0  0  0  0  0
   -4.9851    0.8279    1.7112 H   0  0  0  0  0  0  0  0  0  0  0  0
    2.8076    1.5243   -3.2822 H   0  0  0  0  0  0  0  0  0  0  0  0
    4.7815    1.2636   -4.7121 H   0  0  0  0  0  0  0  0  0  0  0  0
    6.9188    0.6321   -4.8228 H   0  0  0  0  0  0  0  0  0  0  0  0
  1  2  1  0
  2  3  1  0
  3  4  2  0
  4  5  1  0
  5  6  1  0
  6  7  2  3
  7  8  1  0
  8  9  2  0
  8 10  1  0
 10 11  1  0
 11 12  2  0
 11 13  1  0
 13 14  2  3
 14 15  1  0
 15 16  2  0
 16 17  1  0
 17 18  2  0
 18 19  1  0
 18 20  1  0
 20 21  1  0
 21 22  1  0
 20 23  2  0
  5 24  2  0
 24 25  1  0
 25 26  2  0
 26 27  1  0
 26  3  1  0
 23 15  1  0
  1 28  1  0
  1 29  1  0
  1 30  1  0
  4 31  1  0
  6 32  1  0
  7 33  1  0
 10 34  1  0
 10 35  1  0
 13 36  1  0
 14 37  1  0
 16 38  1  0
 17 39  1  0
 19 40  1  0
 22 41  1  0
 22 42  1  0
 22 43  1  0
 23 44  1  0
 24 45  1  0
 25 46  1  0
 27 47  1  0
M  END
$$$$
