
     RDKit          3D

 59 62  0  0  0  0  0  0  0  0999 V2000
    6.3181    3.6720    3.9344 C   0  0  0  0  0  0  0  0  0  0  0  0
    6.6804    2.4580    3.2878 O   0  0  0  0  0  0  0  0  0  0  0  0
    5.6576    1.6373    2.9016 C   0  0  0  0  0  0  0  0  0  0  0  0
    4.3036    1.8298    3.1714 C   0  0  0  0  0  0  0  0  0  0  0  0
    3.3592    0.9013    2.7186 C   0  0  0  0  0  0  0  0  0  0  0  0
    3.7559   -0.2261    1.9874 C   0  0  0  0  0  0  0  0  0  0  0  0
    2.6984   -1.1806    1.5356 C   0  0  0  0  0  0  0  0  0  0  0  0
    1.5677   -1.1144    2.0251 O   0  0  0  0  0  0  0  0  0  0  0  0
    3.0116   -2.2316    0.4926 C   0  0  0  0  0  0  0  0  0  0  0  0
    3.2020   -1.5576   -1.1802 S   0  0  0  0  0  0  0  0  0  0  0  0
    1.9756   -0.3410   -1.2015 C   0  0  0  0  0  0  0  0  0  0  0  0
    2.1860    0.9259   -0.9368 N   0  0  0  0  0  0  0  0  0  0  0  0
    0.9715    1.5647   -0.9661 N   0  0  0  0  0  0  0  0  0  0  0  0
    0.0461    0.6716   -1.2600 C   0  0  0  0  0  0  0  0  0  0  0  0
   -1.4271    0.9105   -1.3300 C   0  0  0  0  0  0  0  0  0  0  0  0
   -2.1487    0.2499   -0.2417 N   0  0  0  0  0  0  0  0  0  0  0  0
   -3.5424    0.3656   -0.1367 C   0  0  0  0  0  0  0  0  0  0  0  0
   -4.3559    0.7117   -1.2259 C   0  0  0  0  0  0  0  0  0  0  0  0
   -5.7512    0.7552   -1.1178 C   0  0  0  0  0  0  0  0  0  0  0  0
   -6.3782    0.4347    0.0846 C   0  0  0  0  0  0  0  0  0  0  0  0
   -7.8741    0.4445    0.1931 C   0  0  0  0  0  0  0  0  0  0  0  0
   -5.5876    0.0323    1.1644 C   0  0  0  0  0  0  0  0  0  0  0  0
   -4.1833   -0.0200    1.0630 C   0  0  0  0  0  0  0  0  0  0  0  0
   -3.3964   -0.4849    2.2623 C   0  0  0  0  0  0  0  0  0  0  0  0
    0.6492   -0.5531   -1.4529 N   0  0  0  0  0  0  0  0  0  0  0  0
   -0.0088   -1.7931   -1.8109 C   0  0  0  0  0  0  0  0  0  0  0  0
   -0.0270   -1.9599   -3.2856 C   0  0  0  0  0  0  0  0  0  0  0  0
    0.8528   -2.5127   -4.1942 C   0  0  0  0  0  0  0  0  0  0  0  0
    0.2578   -2.3608   -5.4698 C   0  0  0  0  0  0  0  0  0  0  0  0
   -0.9461   -1.7321   -5.2591 C   0  0  0  0  0  0  0  0  0  0  0  0
   -1.1284   -1.4859   -3.9370 O   0  0  0  0  0  0  0  0  0  0  0  0
    5.1140   -0.4179    1.7178 C   0  0  0  0  0  0  0  0  0  0  0  0
    6.0547    0.5106    2.1772 C   0  0  0  0  0  0  0  0  0  0  0  0
    5.6934    4.2944    3.2856 H   0  0  0  0  0  0  0  0  0  0  0  0
    7.2387    4.2263    4.1435 H   0  0  0  0  0  0  0  0  0  0  0  0
    5.8237    3.4756    4.8913 H   0  0  0  0  0  0  0  0  0  0  0  0
    3.9445    2.6897    3.7271 H   0  0  0  0  0  0  0  0  0  0  0  0
    2.3046    1.0741    2.9286 H   0  0  0  0  0  0  0  0  0  0  0  0
    2.1826   -2.9486    0.4799 H   0  0  0  0  0  0  0  0  0  0  0  0
    3.8982   -2.8047    0.7787 H   0  0  0  0  0  0  0  0  0  0  0  0
   -1.6078    1.9914   -1.2836 H   0  0  0  0  0  0  0  0  0  0  0  0
   -1.7823    0.5578   -2.3039 H   0  0  0  0  0  0  0  0  0  0  0  0
   -1.6983    0.4435    0.6523 H   0  0  0  0  0  0  0  0  0  0  0  0
   -3.9279    0.9572   -2.1927 H   0  0  0  0  0  0  0  0  0  0  0  0
   -6.3415    1.0355   -1.9878 H   0  0  0  0  0  0  0  0  0  0  0  0
   -8.3086    1.2147   -0.4539 H   0  0  0  0  0  0  0  0  0  0  0  0
   -8.2768   -0.5309   -0.0984 H   0  0  0  0  0  0  0  0  0  0  0  0
   -8.1901    0.6665    1.2182 H   0  0  0  0  0  0  0  0  0  0  0  0
   -6.0692   -0.2555    2.0973 H   0  0  0  0  0  0  0  0  0  0  0  0
   -2.8030    0.3408    2.6684 H   0  0  0  0  0  0  0  0  0  0  0  0
   -4.0535   -0.8468    3.0607 H   0  0  0  0  0  0  0  0  0  0  0  0
   -2.7346   -1.3135    1.9885 H   0  0  0  0  0  0  0  0  0  0  0  0
    0.5147   -2.6253   -1.3310 H   0  0  0  0  0  0  0  0  0  0  0  0
   -1.0236   -1.7934   -1.4050 H   0  0  0  0  0  0  0  0  0  0  0  0
    1.8097   -2.9632   -3.9685 H   0  0  0  0  0  0  0  0  0  0  0  0
    0.6568   -2.6696   -6.4261 H   0  0  0  0  0  0  0  0  0  0  0  0
   -1.7454   -1.4064   -5.9105 H   0  0  0  0  0  0  0  0  0  0  0  0
    5.4780   -1.2718    1.1563 H   0  0  0  0  0  0  0  0  0  0  0  0
    7.1104    0.3582    1.9620 H   0  0  0  0  0  0  0  0  0  0  0  0
  1  2  1  0
  2  3  1  0
  3  4  2  0
  4  5  1  0
  5  6  2  0
  6  7  1  0
  7  8  2  0
  7  9  1  0
  9 10  1  0
 10 11  1  0
 11 12  2  0
 12 13  1  0
 13 14  2  0
 14 15  1  0
 15 16  1  0
 16 17  1  0
 17 18  2  0
 18 19  1  0
 19 20  2  0
 20 21  1  0
 20 22  1  0
 22 23  2  0
 23 24  1  0
 14 25  1  0
 25 26  1  0
 26 27  1  0
 27 28  2  0
 28 29  1  0
 29 30  2  0
 30 31  1  0
  6 32  1  0
 32 33  2  0
 33  3  1  0
 25 11  1  0
 31 27  1  0
 23 17  1  0
  1 34  1  0
  1 35  1  0
  1 36  1  0
  4 37  1  0
  5 38  1  0
  9 39  1  0
  9 40  1  0
 15 41  1  0
 15 42  1  0
 16 43  1  0
 18 44  1  0
 19 45  1  0
 21 46  1  0
 21 47  1  0
 21 48  1  0
 22 49  1  0
 24 50  1  0
 24 51  1  0
 24 52  1  0
 26 53  1  0
 26 54  1  0
 28 55  1  0
 29 56  1  0
 30 57  1  0
 32 58  1  0
 33 59  1  0
M  END
$$$$
