
     RDKit          3D

 59 62  0  0  0  0  0  0  0  0999 V2000
   -7.3358   -0.6723    3.4106 C   0  0  0  0  0  0  0  0  0  0  0  0
   -6.5897    0.0650    2.3371 C   0  0  0  0  0  0  0  0  0  0  0  0
   -5.7310    1.1225    2.6693 C   0  0  0  0  0  0  0  0  0  0  0  0
   -5.0614    1.8299    1.6695 C   0  0  0  0  0  0  0  0  0  0  0  0
   -5.2473    1.4762    0.3318 C   0  0  0  0  0  0  0  0  0  0  0  0
   -4.5339    2.2380   -0.7146 C   0  0  0  0  0  0  0  0  0  0  0  0
   -4.7911    3.4333   -0.8279 O   0  0  0  0  0  0  0  0  0  0  0  0
   -3.6025    1.5652   -1.4990 N   0  0  0  0  0  0  0  0  0  0  0  0
   -2.8410    2.3211   -2.5001 C   0  0  0  0  0  0  0  0  0  0  0  0
   -1.3256    2.2554   -2.2276 C   0  0  0  0  0  0  0  0  0  0  0  0
   -0.8366    0.8568   -2.0769 N   0  0  0  0  0  0  0  0  0  0  0  0
    0.3302    0.7127   -1.3232 C   0  0  0  0  0  0  0  0  0  0  0  0
    0.4850   -0.2412   -0.3093 C   0  0  0  0  0  0  0  0  0  0  0  0
    1.6762   -0.3609    0.4261 C   0  0  0  0  0  0  0  0  0  0  0  0
    2.7594    0.4692    0.1605 C   0  0  0  0  0  0  0  0  0  0  0  0
    3.9865    0.4155    0.8473 N   0  0  0  0  0  0  0  0  0  0  0  0
    4.3714   -0.4759    1.8339 C   0  0  0  0  0  0  0  0  0  0  0  0
    3.6842   -1.3743    2.3134 O   0  0  0  0  0  0  0  0  0  0  0  0
    5.7704   -0.2150    2.3748 C   0  0  0  0  0  0  0  0  0  0  0  0
    7.0104    0.0249    1.0537 S   0  0  0  0  0  0  0  0  0  0  0  0
    6.8402   -1.4755    0.0971 C   0  0  0  0  0  0  0  0  0  0  0  0
    6.9417   -1.3761   -1.2973 C   0  0  0  0  0  0  0  0  0  0  0  0
    6.8198   -2.5121   -2.1031 C   0  0  0  0  0  0  0  0  0  0  0  0
    6.6032   -3.7557   -1.5158 C   0  0  0  0  0  0  0  0  0  0  0  0
    6.4534   -5.1556   -2.5030 Cl  0  0  0  0  0  0  0  0  0  0  0  0
    6.5150   -3.8719   -0.1304 C   0  0  0  0  0  0  0  0  0  0  0  0
    6.6405   -2.7345    0.6746 C   0  0  0  0  0  0  0  0  0  0  0  0
    2.6319    1.4218   -0.8502 C   0  0  0  0  0  0  0  0  0  0  0  0
    1.4384    1.5364   -1.5762 C   0  0  0  0  0  0  0  0  0  0  0  0
   -1.8870   -0.1796   -2.0628 C   0  0  0  0  0  0  0  0  0  0  0  0
   -3.0663    0.2336   -1.1646 C   0  0  0  0  0  0  0  0  0  0  0  0
   -6.1297    0.4504   -0.0158 C   0  0  0  0  0  0  0  0  0  0  0  0
   -6.7978   -0.2537    0.9874 C   0  0  0  0  0  0  0  0  0  0  0  0
   -7.4838   -1.7202    3.1301 H   0  0  0  0  0  0  0  0  0  0  0  0
   -6.7767   -0.6650    4.3524 H   0  0  0  0  0  0  0  0  0  0  0  0
   -8.3124   -0.2065    3.5756 H   0  0  0  0  0  0  0  0  0  0  0  0
   -5.5826    1.4051    3.7095 H   0  0  0  0  0  0  0  0  0  0  0  0
   -4.4018    2.6539    1.9303 H   0  0  0  0  0  0  0  0  0  0  0  0
   -3.0696    1.8768   -3.4761 H   0  0  0  0  0  0  0  0  0  0  0  0
   -3.1639    3.3662   -2.5407 H   0  0  0  0  0  0  0  0  0  0  0  0
   -1.1247    2.8217   -1.3082 H   0  0  0  0  0  0  0  0  0  0  0  0
   -0.7957    2.7421   -3.0541 H   0  0  0  0  0  0  0  0  0  0  0  0
   -0.3240   -0.9114   -0.0362 H   0  0  0  0  0  0  0  0  0  0  0  0
    1.7145   -1.1192    1.2018 H   0  0  0  0  0  0  0  0  0  0  0  0
    4.7063    1.0560    0.5303 H   0  0  0  0  0  0  0  0  0  0  0  0
    6.0749   -1.0402    3.0248 H   0  0  0  0  0  0  0  0  0  0  0  0
    5.7349    0.6921    2.9864 H   0  0  0  0  0  0  0  0  0  0  0  0
    7.1140   -0.4124   -1.7724 H   0  0  0  0  0  0  0  0  0  0  0  0
    6.8956   -2.4178   -3.1831 H   0  0  0  0  0  0  0  0  0  0  0  0
    6.3515   -4.8419    0.3318 H   0  0  0  0  0  0  0  0  0  0  0  0
    6.5851   -2.8616    1.7522 H   0  0  0  0  0  0  0  0  0  0  0  0
    3.4544    2.0853   -1.1017 H   0  0  0  0  0  0  0  0  0  0  0  0
    1.3958    2.2744   -2.3733 H   0  0  0  0  0  0  0  0  0  0  0  0
   -1.5108   -1.1697   -1.7847 H   0  0  0  0  0  0  0  0  0  0  0  0
   -2.2484   -0.2966   -3.0932 H   0  0  0  0  0  0  0  0  0  0  0  0
   -2.7483    0.2561   -0.1158 H   0  0  0  0  0  0  0  0  0  0  0  0
   -3.8711   -0.5008   -1.2620 H   0  0  0  0  0  0  0  0  0  0  0  0
   -6.3061    0.2085   -1.0604 H   0  0  0  0  0  0  0  0  0  0  0  0
   -7.4880   -1.0483    0.7121 H   0  0  0  0  0  0  0  0  0  0  0  0
  1  2  1  0
  2  3  2  0
  3  4  1  0
  4  5  2  0
  5  6  1  0
  6  7  2  0
  6  8  1  0
  8  9  1  0
  9 10  1  0
 10 11  1  0
 11 12  1  0
 12 13  2  0
 13 14  1  0
 14 15  2  0
 15 16  1  0
 16 17  1  0
 17 18  2  0
 17 19  1  0
 19 20  1  0
 20 21  1  0
 21 22  2  0
 22 23  1  0
 23 24  2  0
 24 25  1  0
 24 26  1  0
 26 27  2  0
 15 28  1  0
 28 29  2  0
 11 30  1  0
 30 31  1  0
  5 32  1  0
 32 33  2  0
 33  2  1  0
 31  8  1  0
 29 12  1  0
 27 21  1  0
  1 34  1  0
  1 35  1  0
  1 36  1  0
  3 37  1  0
  4 38  1  0
  9 39  1  0
  9 40  1  0
 10 41  1  0
 10 42  1  0
 13 43  1  0
 14 44  1  0
 16 45  1  0
 19 46  1  0
 19 47  1  0
 22 48  1  0
 23 49  1  0
 26 50  1  0
 27 51  1  0
 28 52  1  0
 29 53  1  0
 30 54  1  0
 30 55  1  0
 31 56  1  0
 31 57  1  0
 32 58  1  0
 33 59  1  0
M  END
$$$$
