
     RDKit          3D

 32 32  0  0  0  0  0  0  0  0999 V2000
   -1.4360    1.9092    1.1289 C   0  0  0  0  0  0  0  0  0  0  0  0
   -1.6524    1.6429   -0.0226 C   0  0  0  0  0  0  0  0  0  0  0  0
   -1.9201    1.3458   -1.4396 C   0  0  0  0  0  0  0  0  0  0  0  0
   -1.9826   -0.1017   -1.7227 N   0  0  0  0  0  0  0  0  0  0  0  0
   -2.4800   -0.2994   -3.0873 C   0  0  0  0  0  0  0  0  0  0  0  0
   -0.6673   -0.7526   -1.5591 C   0  0  0  0  0  0  0  0  0  0  0  0
   -0.6508   -1.5897   -0.2745 C   0  0  0  0  0  0  0  0  0  0  0  0
    0.7050   -2.2609   -0.0480 C   0  0  0  0  0  0  0  0  0  0  0  0
    1.7876   -1.3286   -0.0041 O   0  0  0  0  0  0  0  0  0  0  0  0
    1.8637   -0.4705    1.0610 C   0  0  0  0  0  0  0  0  0  0  0  0
    1.4147   -0.7835    2.3476 C   0  0  0  0  0  0  0  0  0  0  0  0
    1.5381    0.1482    3.3835 C   0  0  0  0  0  0  0  0  0  0  0  0
    2.1200    1.3900    3.1388 C   0  0  0  0  0  0  0  0  0  0  0  0
    2.2590    2.5326    4.4168 Cl  0  0  0  0  0  0  0  0  0  0  0  0
    2.5897    1.7109    1.8698 C   0  0  0  0  0  0  0  0  0  0  0  0
    2.4662    0.7793    0.8367 C   0  0  0  0  0  0  0  0  0  0  0  0
    3.0563    1.2243   -0.7276 Cl  0  0  0  0  0  0  0  0  0  0  0  0
   -1.2455    2.1427    2.1507 H   0  0  0  0  0  0  0  0  0  0  0  0
   -1.1720    1.8382   -2.0742 H   0  0  0  0  0  0  0  0  0  0  0  0
   -2.8880    1.8024   -1.6845 H   0  0  0  0  0  0  0  0  0  0  0  0
   -2.5921   -1.3680   -3.3036 H   0  0  0  0  0  0  0  0  0  0  0  0
   -3.4751    0.1440   -3.2057 H   0  0  0  0  0  0  0  0  0  0  0  0
   -1.8130    0.1395   -3.8383 H   0  0  0  0  0  0  0  0  0  0  0  0
    0.1489   -0.0208   -1.5720 H   0  0  0  0  0  0  0  0  0  0  0  0
   -0.4617   -1.4351   -2.3951 H   0  0  0  0  0  0  0  0  0  0  0  0
   -1.4228   -2.3671   -0.3315 H   0  0  0  0  0  0  0  0  0  0  0  0
   -0.8967   -0.9639    0.5880 H   0  0  0  0  0  0  0  0  0  0  0  0
    0.6945   -2.9069    0.8361 H   0  0  0  0  0  0  0  0  0  0  0  0
    0.9116   -2.9280   -0.8935 H   0  0  0  0  0  0  0  0  0  0  0  0
    0.9732   -1.7467    2.5799 H   0  0  0  0  0  0  0  0  0  0  0  0
    1.1808   -0.1050    4.3788 H   0  0  0  0  0  0  0  0  0  0  0  0
    3.0468    2.6784    1.6830 H   0  0  0  0  0  0  0  0  0  0  0  0
  1  2  3  0
  2  3  1  0
  3  4  1  0
  4  5  1  0
  4  6  1  0
  6  7  1  0
  7  8  1  0
  8  9  1  0
  9 10  1  0
 10 11  2  0
 11 12  1  0
 12 13  2  0
 13 14  1  0
 13 15  1  0
 15 16  2  0
 16 17  1  0
 16 10  1  0
  1 18  1  0
  3 19  1  0
  3 20  1  0
  5 21  1  0
  5 22  1  0
  5 23  1  0
  6 24  1  0
  6 25  1  0
  7 26  1  0
  7 27  1  0
  8 28  1  0
  8 29  1  0
 11 30  1  0
 12 31  1  0
 15 32  1  0
M  END
$$$$
