
     RDKit          3D

 58 59  0  0  0  0  0  0  0  0999 V2000
    8.8058   -0.3747   -2.8253 C   0  0  0  0  0  0  0  0  0  0  0  0
    7.4256   -0.5420   -2.2095 C   0  0  0  0  0  0  0  0  0  0  0  0
    7.3150   -1.8569   -1.4342 C   0  0  0  0  0  0  0  0  0  0  0  0
    5.9225   -2.0616   -0.8380 C   0  0  0  0  0  0  0  0  0  0  0  0
    5.6768   -1.0351    0.1227 O   0  0  0  0  0  0  0  0  0  0  0  0
    4.4694   -1.0556    0.7632 C   0  0  0  0  0  0  0  0  0  0  0  0
    4.2872   -0.0273    1.6927 C   0  0  0  0  0  0  0  0  0  0  0  0
    3.0991    0.0769    2.4221 C   0  0  0  0  0  0  0  0  0  0  0  0
    2.0747   -0.8526    2.2172 C   0  0  0  0  0  0  0  0  0  0  0  0
    0.7891   -0.7891    2.9648 C   0  0  0  0  0  0  0  0  0  0  0  0
    0.1337   -1.8064    3.1556 O   0  0  0  0  0  0  0  0  0  0  0  0
    0.3827    0.4643    3.3767 N   0  0  0  0  0  0  0  0  0  0  0  0
   -0.9676    0.6535    3.8913 C   0  0  0  0  0  0  0  0  0  0  0  0
   -1.9782    1.0643    2.8226 C   0  0  0  0  0  0  0  0  0  0  0  0
   -3.1885    1.1174    3.0088 O   0  0  0  0  0  0  0  0  0  0  0  0
   -1.3654    1.4644    1.6691 O   0  0  0  0  0  0  0  0  0  0  0  0
   -2.2741    1.8374    0.6276 C   0  0  0  0  0  0  0  0  0  0  0  0
   -2.9598    0.6221    0.0033 C   0  0  0  0  0  0  0  0  0  0  0  0
   -2.4288   -0.4940    0.0151 O   0  0  0  0  0  0  0  0  0  0  0  0
   -4.3155    0.8036   -0.6061 C   0  0  0  0  0  0  0  0  0  0  0  0
   -5.2431   -0.1730   -0.4922 C   0  0  0  0  0  0  0  0  0  0  0  0
   -4.9783   -1.3680    0.1696 N   0  0  0  0  0  0  0  0  0  0  0  0
   -6.5092    0.0285   -1.0360 N   0  0  0  0  0  0  0  0  0  0  0  0
   -7.5452   -0.9831   -0.8290 C   0  0  0  0  0  0  0  0  0  0  0  0
   -6.8766    1.1725   -1.7395 C   0  0  0  0  0  0  0  0  0  0  0  0
   -8.0023    1.3268   -2.2177 O   0  0  0  0  0  0  0  0  0  0  0  0
   -5.8995    2.1442   -1.8759 N   0  0  0  0  0  0  0  0  0  0  0  0
   -6.2645    3.3480   -2.6011 C   0  0  0  0  0  0  0  0  0  0  0  0
   -4.6439    2.0520   -1.3232 C   0  0  0  0  0  0  0  0  0  0  0  0
   -3.7964    2.9396   -1.4162 O   0  0  0  0  0  0  0  0  0  0  0  0
    2.2607   -1.8913    1.2978 C   0  0  0  0  0  0  0  0  0  0  0  0
    3.4523   -1.9905    0.5702 C   0  0  0  0  0  0  0  0  0  0  0  0
    9.5810   -0.3616   -2.0526 H   0  0  0  0  0  0  0  0  0  0  0  0
    9.0268   -1.1905   -3.5209 H   0  0  0  0  0  0  0  0  0  0  0  0
    8.8619    0.5677   -3.3788 H   0  0  0  0  0  0  0  0  0  0  0  0
    6.6718   -0.5157   -3.0050 H   0  0  0  0  0  0  0  0  0  0  0  0
    7.2267    0.3073   -1.5459 H   0  0  0  0  0  0  0  0  0  0  0  0
    8.0576   -1.8563   -0.6269 H   0  0  0  0  0  0  0  0  0  0  0  0
    7.5462   -2.6976   -2.0984 H   0  0  0  0  0  0  0  0  0  0  0  0
    5.1733   -2.0240   -1.6380 H   0  0  0  0  0  0  0  0  0  0  0  0
    5.8932   -3.0427   -0.3491 H   0  0  0  0  0  0  0  0  0  0  0  0
    5.0848    0.6942    1.8555 H   0  0  0  0  0  0  0  0  0  0  0  0
    3.0042    0.8683    3.1594 H   0  0  0  0  0  0  0  0  0  0  0  0
    0.7991    1.2610    2.9127 H   0  0  0  0  0  0  0  0  0  0  0  0
   -1.3198   -0.2640    4.3714 H   0  0  0  0  0  0  0  0  0  0  0  0
   -0.9134    1.4612    4.6269 H   0  0  0  0  0  0  0  0  0  0  0  0
   -3.0037    2.5585    1.0119 H   0  0  0  0  0  0  0  0  0  0  0  0
   -1.6777    2.3257   -0.1491 H   0  0  0  0  0  0  0  0  0  0  0  0
   -5.3546   -2.1758   -0.3164 H   0  0  0  0  0  0  0  0  0  0  0  0
   -3.9731   -1.5144    0.3347 H   0  0  0  0  0  0  0  0  0  0  0  0
   -7.2805   -1.8844   -1.3912 H   0  0  0  0  0  0  0  0  0  0  0  0
   -7.6264   -1.2143    0.2383 H   0  0  0  0  0  0  0  0  0  0  0  0
   -8.5292   -0.6498   -1.1700 H   0  0  0  0  0  0  0  0  0  0  0  0
   -6.7057    3.0741   -3.5650 H   0  0  0  0  0  0  0  0  0  0  0  0
   -5.4082    4.0031   -2.7794 H   0  0  0  0  0  0  0  0  0  0  0  0
   -7.0149    3.8920   -2.0185 H   0  0  0  0  0  0  0  0  0  0  0  0
    1.4729   -2.6265    1.1416 H   0  0  0  0  0  0  0  0  0  0  0  0
    3.5502   -2.8099   -0.1340 H   0  0  0  0  0  0  0  0  0  0  0  0
  1  2  1  0
  2  3  1  0
  3  4  1  0
  4  5  1  0
  5  6  1  0
  6  7  2  0
  7  8  1  0
  8  9  2  0
  9 10  1  0
 10 11  2  0
 10 12  1  0
 12 13  1  0
 13 14  1  0
 14 15  2  0
 14 16  1  0
 16 17  1  0
 17 18  1  0
 18 19  2  0
 18 20  1  0
 20 21  2  0
 21 22  1  0
 21 23  1  0
 23 24  1  0
 23 25  1  0
 25 26  2  0
 25 27  1  0
 27 28  1  0
 27 29  1  0
 29 30  2  0
  9 31  1  0
 31 32  2  0
 32  6  1  0
 29 20  1  0
  1 33  1  0
  1 34  1  0
  1 35  1  0
  2 36  1  0
  2 37  1  0
  3 38  1  0
  3 39  1  0
  4 40  1  0
  4 41  1  0
  7 42  1  0
  8 43  1  0
 12 44  1  0
 13 45  1  0
 13 46  1  0
 17 47  1  0
 17 48  1  0
 22 49  1  0
 22 50  1  0
 24 51  1  0
 24 52  1  0
 24 53  1  0
 28 54  1  0
 28 55  1  0
 28 56  1  0
 31 57  1  0
 32 58  1  0
M  END
$$$$
