
     RDKit          3D

 57 62  0  0  0  0  0  0  0  0999 V2000
    5.2507   -0.8578    1.9059 C   0  0  0  0  0  0  0  0  0  0  0  0
    5.7076   -0.9714    0.5636 O   0  0  0  0  0  0  0  0  0  0  0  0
    4.7482   -1.1366   -0.4001 C   0  0  0  0  0  0  0  0  0  0  0  0
    5.2573   -1.2595   -1.7098 C   0  0  0  0  0  0  0  0  0  0  0  0
    4.4113   -1.4397   -2.8082 C   0  0  0  0  0  0  0  0  0  0  0  0
    3.0581   -1.4861   -2.5583 C   0  0  0  0  0  0  0  0  0  0  0  0
    2.5299   -1.3558   -1.2708 C   0  0  0  0  0  0  0  0  0  0  0  0
    3.3691   -1.1884   -0.1762 C   0  0  0  0  0  0  0  0  0  0  0  0
    1.0349   -1.4472   -1.3518 C   0  0  0  0  0  0  0  0  0  0  0  0
    0.4387   -2.5268   -0.4926 N   0  0  0  0  0  0  0  0  0  0  0  0
   -0.7010   -1.9468    0.3203 C   0  0  2  0  0  0  0  0  0  0  0  0
   -2.0514   -2.4958   -0.1880 C   0  0  0  0  0  0  0  0  0  0  0  0
   -3.2515   -2.1251    0.6533 C   0  0  0  0  0  0  0  0  0  0  0  0
   -3.3880   -2.6102    1.9611 C   0  0  0  0  0  0  0  0  0  0  0  0
   -4.5043   -2.2727    2.7284 C   0  0  0  0  0  0  0  0  0  0  0  0
   -5.4967   -1.4521    2.1957 C   0  0  0  0  0  0  0  0  0  0  0  0
   -5.3744   -0.9684    0.8948 C   0  0  0  0  0  0  0  0  0  0  0  0
   -4.2584   -1.3038    0.1264 C   0  0  0  0  0  0  0  0  0  0  0  0
   -0.5227   -0.4904    0.1260 C   0  0  0  0  0  0  0  0  0  0  0  0
    0.4340   -0.2090   -0.8438 C   0  0  0  0  0  0  0  0  0  0  0  0
    0.5297    1.1488   -0.9948 C   0  0  0  0  0  0  0  0  0  0  0  0
    1.3703    1.8324   -1.7698 O   0  0  0  0  0  0  0  0  0  0  0  0
   -0.3856    1.7259   -0.0950 N   0  0  0  0  0  0  0  0  0  0  0  0
   -0.6264    3.1216    0.0710 C   0  0  0  0  0  0  0  0  0  0  0  0
   -0.6516    3.9667   -1.0469 C   0  0  0  0  0  0  0  0  0  0  0  0
   -0.8903    5.3323   -0.8826 C   0  0  0  0  0  0  0  0  0  0  0  0
   -1.1010    5.8576    0.3915 C   0  0  0  0  0  0  0  0  0  0  0  0
   -1.0761    5.0198    1.5057 C   0  0  0  0  0  0  0  0  0  0  0  0
   -0.8414    3.6525    1.3497 C   0  0  0  0  0  0  0  0  0  0  0  0
   -1.0158    0.6886    0.6157 C   0  0  0  0  0  0  0  0  0  0  0  0
   -1.9612    0.8655    1.5353 O   0  0  0  0  0  0  0  0  0  0  0  0
    0.7907   -1.6967   -2.8657 C   0  0  0  0  0  0  0  0  0  0  0  0
   -0.2720   -1.9227   -3.4270 O   0  0  0  0  0  0  0  0  0  0  0  0
    2.0414   -1.6802   -3.4855 N   0  0  0  0  0  0  0  0  0  0  0  0
    4.7275   -1.7658    2.2236 H   0  0  0  0  0  0  0  0  0  0  0  0
    6.1286   -0.7380    2.5482 H   0  0  0  0  0  0  0  0  0  0  0  0
    4.6210    0.0287    2.0349 H   0  0  0  0  0  0  0  0  0  0  0  0
    6.3334   -1.2170   -1.8650 H   0  0  0  0  0  0  0  0  0  0  0  0
    4.8146   -1.5401   -3.8085 H   0  0  0  0  0  0  0  0  0  0  0  0
    2.9298   -1.1025    0.8106 H   0  0  0  0  0  0  0  0  0  0  0  0
    0.0632   -3.2346   -1.1225 H   0  0  0  0  0  0  0  0  0  0  0  0
   -0.5332   -2.2183    1.3682 H   0  0  0  0  0  0  0  0  0  0  0  0
   -2.2199   -2.1764   -1.2256 H   0  0  0  0  0  0  0  0  0  0  0  0
   -2.0113   -3.5936   -0.2197 H   0  0  0  0  0  0  0  0  0  0  0  0
   -2.6258   -3.2551    2.3920 H   0  0  0  0  0  0  0  0  0  0  0  0
   -4.5989   -2.6510    3.7426 H   0  0  0  0  0  0  0  0  0  0  0  0
   -6.3651   -1.1909    2.7940 H   0  0  0  0  0  0  0  0  0  0  0  0
   -6.1480   -0.3302    0.4768 H   0  0  0  0  0  0  0  0  0  0  0  0
   -4.1759   -0.9160   -0.8865 H   0  0  0  0  0  0  0  0  0  0  0  0
    1.4983    2.7207   -1.3917 H   0  0  0  0  0  0  0  0  0  0  0  0
   -0.5359    3.5759   -2.0565 H   0  0  0  0  0  0  0  0  0  0  0  0
   -0.9232    5.9863   -1.7510 H   0  0  0  0  0  0  0  0  0  0  0  0
   -1.2859    6.9219    0.5164 H   0  0  0  0  0  0  0  0  0  0  0  0
   -1.2305    5.4343    2.4993 H   0  0  0  0  0  0  0  0  0  0  0  0
   -0.7848    3.0290    2.2403 H   0  0  0  0  0  0  0  0  0  0  0  0
   -2.4456    1.6863    1.3379 H   0  0  0  0  0  0  0  0  0  0  0  0
    2.1655   -1.8218   -4.4758 H   0  0  0  0  0  0  0  0  0  0  0  0
  1  2  1  0
  2  3  1  0
  3  4  2  0
  4  5  1  0
  5  6  2  0
  6  7  1  0
  7  8  2  0
  7  9  1  0
  9 10  1  0
 10 11  1  0
 11 12  1  0
 12 13  1  0
 13 14  2  0
 14 15  1  0
 15 16  2  0
 16 17  1  0
 17 18  2  0
 11 19  1  0
 19 20  1  0
 20 21  2  0
 21 22  1  0
 21 23  1  0
 23 24  1  0
 24 25  2  0
 25 26  1  0
 26 27  2  0
 27 28  1  0
 28 29  2  0
 23 30  1  0
 30 31  1  0
  9 32  1  0
 32 33  2  0
 32 34  1  0
  8  3  1  0
 20  9  1  0
 29 24  1  0
 34  6  1  0
 18 13  1  0
 30 19  2  0
  1 35  1  0
  1 36  1  0
  1 37  1  0
  4 38  1  0
  5 39  1  0
  8 40  1  0
 10 41  1  0
 11 42  1  1
 12 43  1  0
 12 44  1  0
 14 45  1  0
 15 46  1  0
 16 47  1  0
 17 48  1  0
 18 49  1  0
 22 50  1  0
 25 51  1  0
 26 52  1  0
 27 53  1  0
 28 54  1  0
 29 55  1  0
 31 56  1  0
 34 57  1  0
M  END
$$$$
