
     RDKit          3D

 36 35  0  0  0  0  0  0  0  0999 V2000
    1.3610   -2.7858   -0.4928 C   0  0  0  0  0  0  0  0  0  0  0  0
    2.4423   -1.9227   -1.1263 C   0  0  0  0  0  0  0  0  0  0  0  0
    2.4015   -0.5378   -0.6219 N   0  0  0  0  0  0  0  0  0  0  0  0
    3.2708   -0.2910    0.5436 C   0  0  0  0  0  0  0  0  0  0  0  0
    4.6739    0.1251    0.1255 C   0  0  0  0  0  0  0  0  0  0  0  0
    1.6416    0.4630   -1.2657 C   0  0  0  0  0  0  0  0  0  0  0  0
    0.7342    0.2404   -2.6724 S   0  0  0  0  0  0  0  0  0  0  0  0
    1.6841    2.0930   -0.5653 S   0  0  0  0  0  0  0  0  0  0  0  0
    0.2432    1.9601    0.9130 S   0  0  0  0  0  0  0  0  0  0  0  0
   -1.2541    2.2388   -0.0041 C   0  0  0  0  0  0  0  0  0  0  0  0
   -1.6199    3.8181   -0.4784 S   0  0  0  0  0  0  0  0  0  0  0  0
   -2.0641    1.1074   -0.2452 N   0  0  0  0  0  0  0  0  0  0  0  0
   -1.8718   -0.1896    0.4303 C   0  0  0  0  0  0  0  0  0  0  0  0
   -2.4033   -0.2037    1.8572 C   0  0  0  0  0  0  0  0  0  0  0  0
   -3.2199    1.1767   -1.1590 C   0  0  0  0  0  0  0  0  0  0  0  0
   -4.5366    1.4425   -0.4466 C   0  0  0  0  0  0  0  0  0  0  0  0
    0.3607   -2.4084   -0.7247 H   0  0  0  0  0  0  0  0  0  0  0  0
    1.4309   -3.8131   -0.8634 H   0  0  0  0  0  0  0  0  0  0  0  0
    1.4627   -2.8086    0.5970 H   0  0  0  0  0  0  0  0  0  0  0  0
    3.4291   -2.3482   -0.9092 H   0  0  0  0  0  0  0  0  0  0  0  0
    2.3412   -1.9427   -2.2148 H   0  0  0  0  0  0  0  0  0  0  0  0
    3.3186   -1.2082    1.1424 H   0  0  0  0  0  0  0  0  0  0  0  0
    2.8442    0.4687    1.2005 H   0  0  0  0  0  0  0  0  0  0  0  0
    5.1514   -0.6511   -0.4811 H   0  0  0  0  0  0  0  0  0  0  0  0
    5.2969    0.2967    1.0087 H   0  0  0  0  0  0  0  0  0  0  0  0
    4.6601    1.0452   -0.4665 H   0  0  0  0  0  0  0  0  0  0  0  0
   -2.3695   -0.9738   -0.1516 H   0  0  0  0  0  0  0  0  0  0  0  0
   -0.8108   -0.4520    0.4349 H   0  0  0  0  0  0  0  0  0  0  0  0
   -3.4816   -0.0271    1.8850 H   0  0  0  0  0  0  0  0  0  0  0  0
   -2.2118   -1.1777    2.3186 H   0  0  0  0  0  0  0  0  0  0  0  0
   -1.9305    0.5627    2.4777 H   0  0  0  0  0  0  0  0  0  0  0  0
   -3.2790    0.2338   -1.7154 H   0  0  0  0  0  0  0  0  0  0  0  0
   -3.0547    1.9497   -1.9155 H   0  0  0  0  0  0  0  0  0  0  0  0
   -4.4818    2.3320    0.1879 H   0  0  0  0  0  0  0  0  0  0  0  0
   -5.3367    1.5918   -1.1786 H   0  0  0  0  0  0  0  0  0  0  0  0
   -4.8223    0.5958    0.1836 H   0  0  0  0  0  0  0  0  0  0  0  0
  1  2  1  0
  2  3  1  0
  3  4  1  0
  4  5  1  0
  3  6  1  0
  6  7  2  0
  6  8  1  0
  8  9  1  0
  9 10  1  0
 10 11  2  0
 10 12  1  0
 12 13  1  0
 13 14  1  0
 12 15  1  0
 15 16  1  0
  1 17  1  0
  1 18  1  0
  1 19  1  0
  2 20  1  0
  2 21  1  0
  4 22  1  0
  4 23  1  0
  5 24  1  0
  5 25  1  0
  5 26  1  0
 13 27  1  0
 13 28  1  0
 14 29  1  0
 14 30  1  0
 14 31  1  0
 15 32  1  0
 15 33  1  0
 16 34  1  0
 16 35  1  0
 16 36  1  0
M  END
$$$$
