
     RDKit          3D

 60 65  0  0  0  0  0  0  0  0999 V2000
   -0.8883   -2.2636    3.2273 O   0  0  0  0  0  0  0  0  0  0  0  0
   -1.5643   -1.8295    2.3025 C   0  0  0  0  0  0  0  0  0  0  0  0
   -1.0028   -1.3164    1.1363 N   0  0  0  0  0  0  0  0  0  0  0  0
   -1.7348   -0.7705    0.0886 C   0  0  0  0  0  0  0  0  0  0  0  0
   -0.9728   -0.2511   -1.1322 C   0  0  0  0  0  0  0  0  0  0  0  0
    0.2179    0.6478   -0.7842 C   0  0  0  0  0  0  0  0  0  0  0  0
    1.4988    0.2194   -1.4865 C   0  0  0  0  0  0  0  0  0  0  0  0
    1.7797   -1.2236   -1.3037 N   0  0  0  0  0  0  0  0  0  0  0  0
    2.6369   -1.6987    0.0918 S   0  0  0  0  0  6  0  0  0  0  0  0
    2.9745   -3.0971   -0.0468 O   0  0  0  0  0  0  0  0  0  0  0  0
    1.8327   -1.2283    1.2033 O   0  0  0  0  0  0  0  0  0  0  0  0
    4.1383   -0.7702    0.0160 C   0  0  0  0  0  0  0  0  0  0  0  0
    4.4643    0.1228    1.0418 C   0  0  0  0  0  0  0  0  0  0  0  0
    5.6480    0.8577    0.9585 C   0  0  0  0  0  0  0  0  0  0  0  0
    6.4919    0.6962   -0.1408 C   0  0  0  0  0  0  0  0  0  0  0  0
    6.1721   -0.2245   -1.1466 C   0  0  0  0  0  0  0  0  0  0  0  0
    4.9879   -0.9526   -1.0790 C   0  0  0  0  0  0  0  0  0  0  0  0
    6.9743   -0.4549   -2.2342 O   0  0  0  0  0  0  0  0  0  0  0  0
    8.2972    0.0522   -2.0202 C   0  0  0  0  0  0  0  0  0  0  0  0
    8.2426    1.4619   -1.4550 C   0  0  0  0  0  0  0  0  0  0  0  0
    7.6249    1.4683   -0.1625 O   0  0  0  0  0  0  0  0  0  0  0  0
    0.6593   -2.1398   -1.6539 C   0  0  0  0  0  0  0  0  0  0  0  0
   -0.5996   -1.3975   -2.0792 C   0  0  0  0  0  0  0  0  0  0  0  0
   -3.0404   -0.7158    0.0634 N   0  0  0  0  0  0  0  0  0  0  0  0
   -3.6145   -1.2257    1.1800 C   0  0  0  0  0  0  0  0  0  0  0  0
   -3.0003   -1.7730    2.2790 C   0  0  0  0  0  0  0  0  0  0  0  0
   -3.9238   -2.1812    3.1906 N   0  0  0  0  0  0  0  0  0  0  0  0
   -5.1268   -1.9039    2.6874 N   0  0  0  0  0  0  0  0  0  0  0  0
   -4.9444   -1.3108    1.4823 N   0  0  0  0  0  0  0  0  0  0  0  0
   -6.0736   -0.9156    0.6656 C   0  0  0  0  0  0  0  0  0  0  0  0
   -6.4901    0.5022    0.9458 C   0  0  0  0  0  0  0  0  0  0  0  0
   -5.8025    1.5877    0.3815 C   0  0  0  0  0  0  0  0  0  0  0  0
   -6.1921    2.8986    0.6685 C   0  0  0  0  0  0  0  0  0  0  0  0
   -7.2690    3.1396    1.5217 C   0  0  0  0  0  0  0  0  0  0  0  0
   -7.9578    2.0690    2.0881 C   0  0  0  0  0  0  0  0  0  0  0  0
   -7.5650    0.7655    1.7982 C   0  0  0  0  0  0  0  0  0  0  0  0
   -8.2490   -0.2496    2.3438 F   0  0  0  0  0  0  0  0  0  0  0  0
    0.0150   -1.2962    1.1583 H   0  0  0  0  0  0  0  0  0  0  0  0
   -1.6956    0.3758   -1.6759 H   0  0  0  0  0  0  0  0  0  0  0  0
    0.3809    0.7147    0.2960 H   0  0  0  0  0  0  0  0  0  0  0  0
   -0.0121    1.6754   -1.0949 H   0  0  0  0  0  0  0  0  0  0  0  0
    1.4271    0.4171   -2.5636 H   0  0  0  0  0  0  0  0  0  0  0  0
    2.3344    0.8341   -1.1396 H   0  0  0  0  0  0  0  0  0  0  0  0
    3.8114    0.2512    1.9026 H   0  0  0  0  0  0  0  0  0  0  0  0
    5.9119    1.5593    1.7459 H   0  0  0  0  0  0  0  0  0  0  0  0
    4.7391   -1.6629   -1.8636 H   0  0  0  0  0  0  0  0  0  0  0  0
    8.8132    0.0507   -2.9854 H   0  0  0  0  0  0  0  0  0  0  0  0
    8.8291   -0.6313   -1.3465 H   0  0  0  0  0  0  0  0  0  0  0  0
    9.2543    1.8637   -1.3409 H   0  0  0  0  0  0  0  0  0  0  0  0
    7.6790    2.1356   -2.1123 H   0  0  0  0  0  0  0  0  0  0  0  0
    0.9959   -2.7904   -2.4689 H   0  0  0  0  0  0  0  0  0  0  0  0
    0.4114   -2.7934   -0.8101 H   0  0  0  0  0  0  0  0  0  0  0  0
   -0.4439   -0.9849   -3.0850 H   0  0  0  0  0  0  0  0  0  0  0  0
   -1.4276   -2.1112   -2.1690 H   0  0  0  0  0  0  0  0  0  0  0  0
   -6.8892   -1.6238    0.8521 H   0  0  0  0  0  0  0  0  0  0  0  0
   -5.7917   -1.0312   -0.3875 H   0  0  0  0  0  0  0  0  0  0  0  0
   -4.9546    1.4190   -0.2804 H   0  0  0  0  0  0  0  0  0  0  0  0
   -5.6514    3.7338    0.2292 H   0  0  0  0  0  0  0  0  0  0  0  0
   -7.5691    4.1599    1.7469 H   0  0  0  0  0  0  0  0  0  0  0  0
   -8.7968    2.2395    2.7554 H   0  0  0  0  0  0  0  0  0  0  0  0
  1  2  2  0
  2  3  1  0
  3  4  1  0
  4  5  1  0
  5  6  1  0
  6  7  1  0
  7  8  1  0
  8  9  1  0
  9 10  2  0
  9 11  2  0
  9 12  1  0
 12 13  2  0
 13 14  1  0
 14 15  2  0
 15 16  1  0
 16 17  2  0
 16 18  1  0
 18 19  1  0
 19 20  1  0
 20 21  1  0
  8 22  1  0
 22 23  1  0
  4 24  2  0
 24 25  1  0
 25 26  2  0
 26 27  1  0
 27 28  2  0
 28 29  1  0
 29 30  1  0
 30 31  1  0
 31 32  2  0
 32 33  1  0
 33 34  2  0
 34 35  1  0
 35 36  2  0
 36 37  1  0
 26  2  1  0
 36 31  1  0
 23  5  1  0
 29 25  1  0
 17 12  1  0
 21 15  1  0
  3 38  1  0
  5 39  1  0
  6 40  1  0
  6 41  1  0
  7 42  1  0
  7 43  1  0
 13 44  1  0
 14 45  1  0
 17 46  1  0
 19 47  1  0
 19 48  1  0
 20 49  1  0
 20 50  1  0
 22 51  1  0
 22 52  1  0
 23 53  1  0
 23 54  1  0
 30 55  1  0
 30 56  1  0
 32 57  1  0
 33 58  1  0
 34 59  1  0
 35 60  1  0
M  END
$$$$
