
     RDKit          3D

 69 71  0  0  0  0  0  0  0  0999 V2000
   -6.0370   -1.6841   -3.8804 C   0  0  0  0  0  0  0  0  0  0  0  0
   -4.7463   -2.0358   -3.3809 O   0  0  0  0  0  0  0  0  0  0  0  0
   -3.9366   -0.9385   -3.2114 C   0  0  0  0  0  0  0  0  0  0  0  0
   -3.6085   -0.1571   -4.3260 C   0  0  0  0  0  0  0  0  0  0  0  0
   -2.7214    0.9060   -4.2032 C   0  0  0  0  0  0  0  0  0  0  0  0
   -2.1410    1.1811   -2.9684 C   0  0  0  0  0  0  0  0  0  0  0  0
   -2.4450    0.4036   -1.8300 C   0  0  0  0  0  0  0  0  0  0  0  0
   -1.7332    0.7685   -0.5245 C   0  0  0  0  0  0  0  0  0  0  0  0
   -2.5644    0.6697    0.7851 C   0  0  0  0  0  0  0  0  0  0  0  0
   -3.7595    0.9540    0.8470 O   0  0  0  0  0  0  0  0  0  0  0  0
   -1.8107    0.3615    1.9072 N   0  0  0  0  0  0  0  0  0  0  0  0
   -2.2996    0.3405    3.2895 C   0  0  0  0  0  0  0  0  0  0  0  0
   -2.7539    1.7423    3.7241 C   0  0  0  0  0  0  0  0  0  0  0  0
   -1.1352   -0.1004    4.1956 C   0  0  0  0  0  0  0  0  0  0  0  0
   -3.4477   -0.6675    3.4566 C   0  0  0  0  0  0  0  0  0  0  0  0
   -0.3541    0.1940   -0.4318 N   0  0  0  0  0  0  0  0  0  0  0  0
    0.7177    1.0913   -0.3712 C   0  0  0  0  0  0  0  0  0  0  0  0
    0.5601    2.3063   -0.2400 O   0  0  0  0  0  0  0  0  0  0  0  0
    2.1126    0.4971   -0.4551 C   0  0  0  0  0  0  0  0  0  0  0  0
    3.1959    1.5733   -0.4515 C   0  0  0  0  0  0  0  0  0  0  0  0
    4.5739    0.9683   -0.2695 C   0  0  0  0  0  0  0  0  0  0  0  0
    4.7629   -0.2441   -0.2766 O   0  0  0  0  0  0  0  0  0  0  0  0
    5.5418    1.9327   -0.1074 N   0  0  0  0  0  0  0  0  0  0  0  0
    6.8732    1.6874    0.1458 C   0  0  0  0  0  0  0  0  0  0  0  0
    7.5489    0.4563    0.2952 C   0  0  0  0  0  0  0  0  0  0  0  0
    8.8507    0.8054    0.5544 C   0  0  0  0  0  0  0  0  0  0  0  0
   10.0875    0.0527    0.8228 C   0  0  0  0  0  0  0  0  0  0  0  0
    8.9549    2.1603    0.5525 O   0  0  0  0  0  0  0  0  0  0  0  0
    7.7148    2.7155    0.2978 N   0  0  0  0  0  0  0  0  0  0  0  0
   -0.1753   -1.2182   -0.7125 C   0  0  0  0  0  0  0  0  0  0  0  0
   -0.9002   -2.3214    0.0192 C   0  0  0  0  0  0  0  0  0  0  0  0
    0.5631   -2.1399    0.2336 C   0  0  0  0  0  0  0  0  0  0  0  0
   -3.3516   -0.6700   -1.9590 C   0  0  0  0  0  0  0  0  0  0  0  0
   -3.5425   -1.4188   -0.8287 O   0  0  0  0  0  0  0  0  0  0  0  0
   -4.8436   -1.9515   -0.6141 C   0  0  0  0  0  0  0  0  0  0  0  0
   -6.4671   -0.8427   -3.3269 H   0  0  0  0  0  0  0  0  0  0  0  0
   -6.0025   -1.4654   -4.9513 H   0  0  0  0  0  0  0  0  0  0  0  0
   -6.6927   -2.5485   -3.7390 H   0  0  0  0  0  0  0  0  0  0  0  0
   -4.0189   -0.3901   -5.3046 H   0  0  0  0  0  0  0  0  0  0  0  0
   -2.4727    1.5123   -5.0699 H   0  0  0  0  0  0  0  0  0  0  0  0
   -1.4409    2.0120   -2.8912 H   0  0  0  0  0  0  0  0  0  0  0  0
   -1.6194    1.8612   -0.5828 H   0  0  0  0  0  0  0  0  0  0  0  0
   -0.8170    0.2545    1.7456 H   0  0  0  0  0  0  0  0  0  0  0  0
   -1.9536    2.4769    3.5830 H   0  0  0  0  0  0  0  0  0  0  0  0
   -3.0377    1.7575    4.7822 H   0  0  0  0  0  0  0  0  0  0  0  0
   -3.6178    2.0876    3.1487 H   0  0  0  0  0  0  0  0  0  0  0  0
   -0.2870    0.5896    4.1112 H   0  0  0  0  0  0  0  0  0  0  0  0
   -1.4365   -0.1320    5.2486 H   0  0  0  0  0  0  0  0  0  0  0  0
   -0.7707   -1.0970    3.9162 H   0  0  0  0  0  0  0  0  0  0  0  0
   -3.7334   -0.7672    4.5096 H   0  0  0  0  0  0  0  0  0  0  0  0
   -3.1572   -1.6609    3.0937 H   0  0  0  0  0  0  0  0  0  0  0  0
   -4.3434   -0.3668    2.9045 H   0  0  0  0  0  0  0  0  0  0  0  0
    2.2598   -0.1468    0.4168 H   0  0  0  0  0  0  0  0  0  0  0  0
    2.2016   -0.1081   -1.3638 H   0  0  0  0  0  0  0  0  0  0  0  0
    3.0265    2.2811    0.3687 H   0  0  0  0  0  0  0  0  0  0  0  0
    3.1762    2.1312   -1.3946 H   0  0  0  0  0  0  0  0  0  0  0  0
    5.3051    2.9150   -0.1415 H   0  0  0  0  0  0  0  0  0  0  0  0
    7.1481   -0.5438    0.2319 H   0  0  0  0  0  0  0  0  0  0  0  0
   10.8199    0.2190    0.0249 H   0  0  0  0  0  0  0  0  0  0  0  0
   10.5345    0.3754    1.7692 H   0  0  0  0  0  0  0  0  0  0  0  0
    9.8901   -1.0212    0.8937 H   0  0  0  0  0  0  0  0  0  0  0  0
   -0.0270   -1.3947   -1.7791 H   0  0  0  0  0  0  0  0  0  0  0  0
   -1.5611   -2.0867    0.8443 H   0  0  0  0  0  0  0  0  0  0  0  0
   -1.2350   -3.1729   -0.5653 H   0  0  0  0  0  0  0  0  0  0  0  0
    0.8725   -1.7810    1.2089 H   0  0  0  0  0  0  0  0  0  0  0  0
    1.2448   -2.8611   -0.2027 H   0  0  0  0  0  0  0  0  0  0  0  0
   -4.9375   -2.9290   -1.1003 H   0  0  0  0  0  0  0  0  0  0  0  0
   -5.6386   -1.2689   -0.9339 H   0  0  0  0  0  0  0  0  0  0  0  0
   -4.9621   -2.1093    0.4610 H   0  0  0  0  0  0  0  0  0  0  0  0
  1  2  1  0
  2  3  1  0
  3  4  2  0
  4  5  1  0
  5  6  2  0
  6  7  1  0
  7  8  1  0
  8  9  1  0
  9 10  2  0
  9 11  1  0
 11 12  1  0
 12 13  1  0
 12 14  1  0
 12 15  1  0
  8 16  1  0
 16 17  1  0
 17 18  2  0
 17 19  1  0
 19 20  1  0
 20 21  1  0
 21 22  2  0
 21 23  1  0
 23 24  1  0
 24 25  1  0
 25 26  2  0
 26 27  1  0
 26 28  1  0
 28 29  1  0
 16 30  1  0
 30 31  1  0
 31 32  1  0
  7 33  2  0
 33 34  1  0
 34 35  1  0
 33  3  1  0
 29 24  2  0
 32 30  1  0
  1 36  1  0
  1 37  1  0
  1 38  1  0
  4 39  1  0
  5 40  1  0
  6 41  1  0
  8 42  1  0
 11 43  1  0
 13 44  1  0
 13 45  1  0
 13 46  1  0
 14 47  1  0
 14 48  1  0
 14 49  1  0
 15 50  1  0
 15 51  1  0
 15 52  1  0
 19 53  1  0
 19 54  1  0
 20 55  1  0
 20 56  1  0
 23 57  1  0
 25 58  1  0
 27 59  1  0
 27 60  1  0
 27 61  1  0
 30 62  1  0
 31 63  1  0
 31 64  1  0
 32 65  1  0
 32 66  1  0
 35 67  1  0
 35 68  1  0
 35 69  1  0
M  END
$$$$
