
     RDKit          3D

 74 79  0  0  0  0  0  0  0  0999 V2000
    7.2998   -0.3409   -5.6234 C   0  0  0  0  0  0  0  0  0  0  0  0
    7.6580   -0.6749   -4.2884 O   0  0  0  0  0  0  0  0  0  0  0  0
    6.6511   -0.6924   -3.3649 C   0  0  0  0  0  0  0  0  0  0  0  0
    7.0363   -1.0857   -2.0854 C   0  0  0  0  0  0  0  0  0  0  0  0
    6.0998   -1.1515   -1.0469 C   0  0  0  0  0  0  0  0  0  0  0  0
    4.7459   -0.8269   -1.2507 C   0  0  0  0  0  0  0  0  0  0  0  0
    3.7711   -0.9201   -0.1379 C   0  0  0  0  0  0  0  0  0  0  0  0
    2.4073   -1.0600   -0.3250 C   0  0  0  0  0  0  0  0  0  0  0  0
    1.5759   -1.1407    0.7955 C   0  0  0  0  0  0  0  0  0  0  0  0
    0.1194   -1.2091    0.5155 C   0  0  0  0  0  0  0  0  0  0  0  0
   -0.2822   -1.9998   -0.3301 O   0  0  0  0  0  0  0  0  0  0  0  0
   -0.6327   -0.2818    1.1974 N   0  0  0  0  0  0  0  0  0  0  0  0
   -2.0284   -0.0937    1.1589 C   0  0  0  0  0  0  0  0  0  0  0  0
   -2.9063   -0.9644    0.5174 C   0  0  0  0  0  0  0  0  0  0  0  0
   -4.2686   -0.6613    0.4828 C   0  0  0  0  0  0  0  0  0  0  0  0
   -5.3902   -1.7667   -0.3497 S   0  0  0  0  0  6  0  0  0  0  0  0
   -4.9356   -3.1175   -0.0998 O   0  0  0  0  0  0  0  0  0  0  0  0
   -6.7348   -1.3545    0.0000 O   0  0  0  0  0  0  0  0  0  0  0  0
   -5.1629   -1.4127   -1.9867 N   0  0  0  0  0  0  0  0  0  0  0  0
   -3.9265   -1.8975   -2.6640 C   0  0  0  0  0  0  0  0  0  0  0  0
   -3.0950   -0.7213   -3.1860 C   0  0  0  0  0  0  0  0  0  0  0  0
   -3.7995    0.1114   -4.1208 O   0  0  0  0  0  0  0  0  0  0  0  0
   -5.2221    0.1074   -3.9344 C   0  0  0  0  0  0  0  0  0  0  0  0
   -5.6334   -0.0877   -2.4714 C   0  0  0  0  0  0  0  0  0  0  0  0
   -4.7656    0.4698    1.1367 C   0  0  0  0  0  0  0  0  0  0  0  0
   -3.8890    1.3206    1.8137 C   0  0  0  0  0  0  0  0  0  0  0  0
   -2.5126    1.0574    1.8298 C   0  0  0  0  0  0  0  0  0  0  0  0
   -1.5831    1.8709    2.5200 N   0  0  0  0  0  0  0  0  0  0  0  0
   -1.6270    1.6779    3.9938 C   0  0  0  0  0  0  0  0  0  0  0  0
   -2.1290    2.9385    4.7151 C   0  0  0  0  0  0  0  0  0  0  0  0
   -1.3447    4.1094    4.4383 O   0  0  0  0  0  0  0  0  0  0  0  0
   -0.7777    4.1206    3.1177 C   0  0  0  0  0  0  0  0  0  0  0  0
   -1.5855    3.2942    2.1053 C   0  0  0  0  0  0  0  0  0  0  0  0
    2.1117   -1.1417    2.1028 C   0  0  0  0  0  0  0  0  0  0  0  0
    1.3686   -1.3134    3.3016 C   0  0  0  0  0  0  0  0  0  0  0  0
    1.9908   -1.2841    4.5480 C   0  0  0  0  0  0  0  0  0  0  0  0
    3.3623   -1.0956    4.6193 C   0  0  0  0  0  0  0  0  0  0  0  0
    4.1013   -0.9531    3.4432 C   0  0  0  0  0  0  0  0  0  0  0  0
    3.5054   -0.9833    2.1896 C   0  0  0  0  0  0  0  0  0  0  0  0
    4.2975   -0.8660    1.1111 N   0  0  0  0  0  0  0  0  0  0  0  0
    4.3837   -0.4174   -2.5476 C   0  0  0  0  0  0  0  0  0  0  0  0
    5.3201   -0.3535   -3.5922 C   0  0  0  0  0  0  0  0  0  0  0  0
    6.9253    0.6862   -5.6865 H   0  0  0  0  0  0  0  0  0  0  0  0
    6.5728   -1.0530   -6.0276 H   0  0  0  0  0  0  0  0  0  0  0  0
    8.2034   -0.4037   -6.2373 H   0  0  0  0  0  0  0  0  0  0  0  0
    8.0732   -1.3473   -1.8889 H   0  0  0  0  0  0  0  0  0  0  0  0
    6.4412   -1.4687   -0.0620 H   0  0  0  0  0  0  0  0  0  0  0  0
    1.9726   -1.1165   -1.3174 H   0  0  0  0  0  0  0  0  0  0  0  0
   -0.1614    0.4408    1.7396 H   0  0  0  0  0  0  0  0  0  0  0  0
   -2.5489   -1.8780    0.0554 H   0  0  0  0  0  0  0  0  0  0  0  0
   -3.3188   -2.5253   -2.0082 H   0  0  0  0  0  0  0  0  0  0  0  0
   -4.2460   -2.5276   -3.5028 H   0  0  0  0  0  0  0  0  0  0  0  0
   -2.7653   -0.0815   -2.3607 H   0  0  0  0  0  0  0  0  0  0  0  0
   -2.1953   -1.0888   -3.6904 H   0  0  0  0  0  0  0  0  0  0  0  0
   -5.6426   -0.6851   -4.5644 H   0  0  0  0  0  0  0  0  0  0  0  0
   -5.6034    1.0619   -4.3100 H   0  0  0  0  0  0  0  0  0  0  0  0
   -6.7235   -0.0374   -2.3906 H   0  0  0  0  0  0  0  0  0  0  0  0
   -5.1890    0.7084   -1.8656 H   0  0  0  0  0  0  0  0  0  0  0  0
   -5.8317    0.6891    1.1375 H   0  0  0  0  0  0  0  0  0  0  0  0
   -4.2972    2.1812    2.3358 H   0  0  0  0  0  0  0  0  0  0  0  0
   -0.6006    1.4698    4.3180 H   0  0  0  0  0  0  0  0  0  0  0  0
   -2.2360    0.8118    4.2811 H   0  0  0  0  0  0  0  0  0  0  0  0
   -3.1657    3.1572    4.4355 H   0  0  0  0  0  0  0  0  0  0  0  0
   -2.1114    2.7815    5.7988 H   0  0  0  0  0  0  0  0  0  0  0  0
   -0.7191    5.1649    2.7945 H   0  0  0  0  0  0  0  0  0  0  0  0
    0.2480    3.7402    3.1928 H   0  0  0  0  0  0  0  0  0  0  0  0
   -1.1326    3.3814    1.1109 H   0  0  0  0  0  0  0  0  0  0  0  0
   -2.6032    3.6990    2.0568 H   0  0  0  0  0  0  0  0  0  0  0  0
    0.2962   -1.4965    3.2740 H   0  0  0  0  0  0  0  0  0  0  0  0
    1.4076   -1.4198    5.4555 H   0  0  0  0  0  0  0  0  0  0  0  0
    3.8658   -1.0740    5.5822 H   0  0  0  0  0  0  0  0  0  0  0  0
    5.1797   -0.8232    3.5061 H   0  0  0  0  0  0  0  0  0  0  0  0
    3.3610   -0.1255   -2.7750 H   0  0  0  0  0  0  0  0  0  0  0  0
    4.9711   -0.0303   -4.5682 H   0  0  0  0  0  0  0  0  0  0  0  0
  1  2  1  0
  2  3  1  0
  3  4  2  0
  4  5  1  0
  5  6  2  0
  6  7  1  0
  7  8  2  0
  8  9  1  0
  9 10  1  0
 10 11  2  0
 10 12  1  0
 12 13  1  0
 13 14  2  0
 14 15  1  0
 15 16  1  0
 16 17  2  0
 16 18  2  0
 16 19  1  0
 19 20  1  0
 20 21  1  0
 21 22  1  0
 22 23  1  0
 23 24  1  0
 15 25  2  0
 25 26  1  0
 26 27  2  0
 27 28  1  0
 28 29  1  0
 29 30  1  0
 30 31  1  0
 31 32  1  0
 32 33  1  0
  9 34  2  0
 34 35  1  0
 35 36  2  0
 36 37  1  0
 37 38  2  0
 38 39  1  0
 39 40  2  0
  6 41  1  0
 41 42  2  0
 42  3  1  0
 40  7  1  0
 27 13  1  0
 33 28  1  0
 39 34  1  0
 24 19  1  0
  1 43  1  0
  1 44  1  0
  1 45  1  0
  4 46  1  0
  5 47  1  0
  8 48  1  0
 12 49  1  0
 14 50  1  0
 20 51  1  0
 20 52  1  0
 21 53  1  0
 21 54  1  0
 23 55  1  0
 23 56  1  0
 24 57  1  0
 24 58  1  0
 25 59  1  0
 26 60  1  0
 29 61  1  0
 29 62  1  0
 30 63  1  0
 30 64  1  0
 32 65  1  0
 32 66  1  0
 33 67  1  0
 33 68  1  0
 35 69  1  0
 36 70  1  0
 37 71  1  0
 38 72  1  0
 41 73  1  0
 42 74  1  0
M  END
$$$$
