
     RDKit          3D

 64 67  0  0  0  0  0  0  0  0999 V2000
    8.1730   -2.0424    2.1423 C   0  0  0  0  0  0  0  0  0  0  0  0
    7.0107   -2.5773    1.5115 O   0  0  0  0  0  0  0  0  0  0  0  0
    6.1455   -1.6766    0.9460 C   0  0  0  0  0  0  0  0  0  0  0  0
    6.2575   -0.2878    1.0016 C   0  0  0  0  0  0  0  0  0  0  0  0
    5.3015    0.5241    0.3752 C   0  0  0  0  0  0  0  0  0  0  0  0
    4.2334   -0.0460   -0.3213 C   0  0  0  0  0  0  0  0  0  0  0  0
    3.2572    0.7082   -1.0139 N   0  0  0  0  0  0  0  0  0  0  0  0
    3.1240    2.0802   -1.0804 C   0  0  0  0  0  0  0  0  0  0  0  0
    3.7900    2.9035   -0.4550 O   0  0  0  0  0  0  0  0  0  0  0  0
    2.0562    2.5374   -2.0595 C   0  0  0  0  0  0  0  0  0  0  0  0
    0.4293    2.6257   -1.2615 S   0  0  0  0  0  0  0  0  0  0  0  0
   -0.1579    1.0232   -1.5295 C   0  0  0  0  0  0  0  0  0  0  0  0
    0.5729   -0.0118   -1.8705 N   0  0  0  0  0  0  0  0  0  0  0  0
   -0.2701   -1.0806   -2.0256 N   0  0  0  0  0  0  0  0  0  0  0  0
   -1.5022   -0.6807   -1.7692 C   0  0  0  0  0  0  0  0  0  0  0  0
   -2.7217   -1.5298   -1.9050 C   0  0  0  0  0  0  0  0  0  0  0  0
   -3.4491   -1.7937   -0.6210 C   0  0  0  0  0  0  0  0  0  0  0  0
   -4.7715   -1.5160   -0.3077 C   0  0  0  0  0  0  0  0  0  0  0  0
   -5.0179   -1.9878    1.0027 C   0  0  0  0  0  0  0  0  0  0  0  0
   -3.8442   -2.5428    1.4611 C   0  0  0  0  0  0  0  0  0  0  0  0
   -2.8981   -2.4341    0.4713 N   0  0  0  0  0  0  0  0  0  0  0  0
   -1.5428   -2.9359    0.5893 C   0  0  0  0  0  0  0  0  0  0  0  0
   -1.4707    0.6508   -1.4142 N   0  0  0  0  0  0  0  0  0  0  0  0
   -2.5906    1.4932   -1.0400 C   0  0  0  0  0  0  0  0  0  0  0  0
   -2.6828    1.7080    0.4722 C   0  0  0  0  0  0  0  0  0  0  0  0
   -3.7921    2.6712    0.8159 C   0  0  0  0  0  0  0  0  0  0  0  0
   -5.0865    2.2032    1.0834 C   0  0  0  0  0  0  0  0  0  0  0  0
   -6.1199    3.1004    1.3609 C   0  0  0  0  0  0  0  0  0  0  0  0
   -5.8691    4.4707    1.3778 C   0  0  0  0  0  0  0  0  0  0  0  0
   -4.5830    4.9473    1.1209 C   0  0  0  0  0  0  0  0  0  0  0  0
   -3.5492    4.0524    0.8350 C   0  0  0  0  0  0  0  0  0  0  0  0
    4.1178   -1.4506   -0.3756 C   0  0  0  0  0  0  0  0  0  0  0  0
    3.0545   -1.9277   -1.1031 O   0  0  0  0  0  0  0  0  0  0  0  0
    2.7289   -3.3013   -0.9515 C   0  0  0  0  0  0  0  0  0  0  0  0
    5.0705   -2.2532    0.2600 C   0  0  0  0  0  0  0  0  0  0  0  0
    8.7916   -1.4838    1.4281 H   0  0  0  0  0  0  0  0  0  0  0  0
    8.7699   -2.8820    2.5161 H   0  0  0  0  0  0  0  0  0  0  0  0
    7.9037   -1.4210    3.0063 H   0  0  0  0  0  0  0  0  0  0  0  0
    7.0724    0.2023    1.5236 H   0  0  0  0  0  0  0  0  0  0  0  0
    5.4301    1.5998    0.4371 H   0  0  0  0  0  0  0  0  0  0  0  0
    2.5391    0.1359   -1.4687 H   0  0  0  0  0  0  0  0  0  0  0  0
    2.0486    1.9022   -2.9516 H   0  0  0  0  0  0  0  0  0  0  0  0
    2.3231    3.5453   -2.3975 H   0  0  0  0  0  0  0  0  0  0  0  0
   -3.4026   -1.0578   -2.6255 H   0  0  0  0  0  0  0  0  0  0  0  0
   -2.4402   -2.4922   -2.3510 H   0  0  0  0  0  0  0  0  0  0  0  0
   -5.4866   -1.0327   -0.9644 H   0  0  0  0  0  0  0  0  0  0  0  0
   -5.9507   -1.9363    1.5507 H   0  0  0  0  0  0  0  0  0  0  0  0
   -3.6173   -3.0218    2.4078 H   0  0  0  0  0  0  0  0  0  0  0  0
   -1.4962   -3.6527    1.4141 H   0  0  0  0  0  0  0  0  0  0  0  0
   -0.8811   -2.0911    0.7939 H   0  0  0  0  0  0  0  0  0  0  0  0
   -1.2625   -3.4384   -0.3398 H   0  0  0  0  0  0  0  0  0  0  0  0
   -2.4814    2.4446   -1.5730 H   0  0  0  0  0  0  0  0  0  0  0  0
   -3.5100    1.0438   -1.4248 H   0  0  0  0  0  0  0  0  0  0  0  0
   -1.7377    2.0923    0.8708 H   0  0  0  0  0  0  0  0  0  0  0  0
   -2.8447    0.7539    0.9901 H   0  0  0  0  0  0  0  0  0  0  0  0
   -5.3013    1.1377    1.0781 H   0  0  0  0  0  0  0  0  0  0  0  0
   -7.1229    2.7324    1.5610 H   0  0  0  0  0  0  0  0  0  0  0  0
   -6.6773    5.1665    1.5930 H   0  0  0  0  0  0  0  0  0  0  0  0
   -4.3910    6.0178    1.1368 H   0  0  0  0  0  0  0  0  0  0  0  0
   -2.5515    4.4395    0.6297 H   0  0  0  0  0  0  0  0  0  0  0  0
    1.7803   -3.4788   -1.4695 H   0  0  0  0  0  0  0  0  0  0  0  0
    2.5892   -3.5714    0.1018 H   0  0  0  0  0  0  0  0  0  0  0  0
    3.4853   -3.9412   -1.4147 H   0  0  0  0  0  0  0  0  0  0  0  0
    5.0180   -3.3364    0.2190 H   0  0  0  0  0  0  0  0  0  0  0  0
  1  2  1  0
  2  3  1  0
  3  4  2  0
  4  5  1  0
  5  6  2  0
  6  7  1  0
  7  8  1  0
  8  9  2  0
  8 10  1  0
 10 11  1  0
 11 12  1  0
 12 13  2  0
 13 14  1  0
 14 15  2  0
 15 16  1  0
 16 17  1  0
 17 18  2  0
 18 19  1  0
 19 20  2  0
 20 21  1  0
 21 22  1  0
 15 23  1  0
 23 24  1  0
 24 25  1  0
 25 26  1  0
 26 27  2  0
 27 28  1  0
 28 29  2  0
 29 30  1  0
 30 31  2  0
  6 32  1  0
 32 33  1  0
 33 34  1  0
 32 35  2  0
 35  3  1  0
 23 12  1  0
 31 26  1  0
 21 17  1  0
  1 36  1  0
  1 37  1  0
  1 38  1  0
  4 39  1  0
  5 40  1  0
  7 41  1  0
 10 42  1  0
 10 43  1  0
 16 44  1  0
 16 45  1  0
 18 46  1  0
 19 47  1  0
 20 48  1  0
 22 49  1  0
 22 50  1  0
 22 51  1  0
 24 52  1  0
 24 53  1  0
 25 54  1  0
 25 55  1  0
 27 56  1  0
 28 57  1  0
 29 58  1  0
 30 59  1  0
 31 60  1  0
 34 61  1  0
 34 62  1  0
 34 63  1  0
 35 64  1  0
M  END
$$$$
