
     RDKit          3D

 52 56  0  0  0  0  0  0  0  0999 V2000
    5.3266    1.1903   -1.2026 C   0  0  0  0  0  0  0  0  0  0  0  0
    4.0074    0.4716   -1.3772 C   0  0  0  0  0  0  0  0  0  0  0  0
    3.2415    0.8646   -2.3559 N   0  0  0  0  0  0  0  0  0  0  0  0
    1.9768    0.3438   -2.4620 N   0  0  0  0  0  0  0  0  0  0  0  0
    1.0025    0.5759   -1.4895 C   0  0  0  0  0  0  0  0  0  0  0  0
    1.2139    1.0389   -0.3720 O   0  0  0  0  0  0  0  0  0  0  0  0
   -0.3366    0.2056   -1.9425 C   0  0  0  0  0  0  0  0  0  0  0  0
   -0.5773   -0.2456   -3.2120 N   0  0  0  0  0  0  0  0  0  0  0  0
   -1.8704   -0.4852   -3.3278 N   0  0  0  0  0  0  0  0  0  0  0  0
   -2.4911   -0.2060   -2.1420 N   0  0  0  0  0  0  0  0  0  0  0  0
   -3.8918   -0.3784   -1.9913 C   0  0  0  0  0  0  0  0  0  0  0  0
   -4.5075   -0.1030   -0.8411 N   0  0  0  0  0  0  0  0  0  0  0  0
   -5.8496   -0.3780   -1.0978 O   0  0  0  0  0  0  0  0  0  0  0  0
   -6.0325   -0.8275   -2.4005 N   0  0  0  0  0  0  0  0  0  0  0  0
   -4.8187   -0.8340   -2.9495 C   0  0  0  0  0  0  0  0  0  0  0  0
   -4.5612   -1.2199   -4.2143 N   0  0  0  0  0  0  0  0  0  0  0  0
   -1.5304    0.2397   -1.2357 C   0  0  0  0  0  0  0  0  0  0  0  0
   -1.7954    0.6565    0.1656 C   0  0  0  0  0  0  0  0  0  0  0  0
   -2.2780    2.4137    0.2080 S   0  0  0  0  0  0  0  0  0  0  0  0
   -2.4426    2.5981    1.9715 C   0  0  0  0  0  0  0  0  0  0  0  0
   -1.4168    3.1990    2.7077 C   0  0  0  0  0  0  0  0  0  0  0  0
   -1.5380    3.3422    4.0913 C   0  0  0  0  0  0  0  0  0  0  0  0
   -2.6861    2.8914    4.7421 C   0  0  0  0  0  0  0  0  0  0  0  0
   -3.7163    2.3021    4.0102 C   0  0  0  0  0  0  0  0  0  0  0  0
   -3.5966    2.1578    2.6262 C   0  0  0  0  0  0  0  0  0  0  0  0
    3.7385   -0.6464   -0.4367 C   0  0  0  0  0  0  0  0  0  0  0  0
    3.7888   -0.4137    0.9532 C   0  0  0  0  0  0  0  0  0  0  0  0
    3.5464   -1.4581    1.8504 C   0  0  0  0  0  0  0  0  0  0  0  0
    3.2669   -2.7022    1.3240 C   0  0  0  0  0  0  0  0  0  0  0  0
    3.2243   -2.9264   -0.0332 C   0  0  0  0  0  0  0  0  0  0  0  0
    3.4572   -1.9202   -0.9453 C   0  0  0  0  0  0  0  0  0  0  0  0
    2.9335   -4.2200   -0.3351 O   0  0  0  0  0  0  0  0  0  0  0  0
    2.8094   -4.7872    0.9862 C   0  0  0  0  0  0  0  0  0  0  0  0
    3.0061   -3.8260    2.0433 O   0  0  0  0  0  0  0  0  0  0  0  0
    5.7989    1.3288   -2.1800 H   0  0  0  0  0  0  0  0  0  0  0  0
    6.0127    0.6270   -0.5642 H   0  0  0  0  0  0  0  0  0  0  0  0
    5.1429    2.1721   -0.7557 H   0  0  0  0  0  0  0  0  0  0  0  0
    1.6197    0.3095   -3.4150 H   0  0  0  0  0  0  0  0  0  0  0  0
   -3.6663   -1.0044   -4.6525 H   0  0  0  0  0  0  0  0  0  0  0  0
   -5.3353   -1.2974   -4.8653 H   0  0  0  0  0  0  0  0  0  0  0  0
   -0.8970    0.5264    0.7768 H   0  0  0  0  0  0  0  0  0  0  0  0
   -2.5578    0.0332    0.6399 H   0  0  0  0  0  0  0  0  0  0  0  0
   -0.5169    3.5550    2.2101 H   0  0  0  0  0  0  0  0  0  0  0  0
   -0.7359    3.8054    4.6601 H   0  0  0  0  0  0  0  0  0  0  0  0
   -2.7794    3.0023    5.8190 H   0  0  0  0  0  0  0  0  0  0  0  0
   -4.6145    1.9565    4.5160 H   0  0  0  0  0  0  0  0  0  0  0  0
   -4.4100    1.7033    2.0651 H   0  0  0  0  0  0  0  0  0  0  0  0
    3.9844    0.5857    1.3345 H   0  0  0  0  0  0  0  0  0  0  0  0
    3.5647   -1.2946    2.9219 H   0  0  0  0  0  0  0  0  0  0  0  0
    3.4280   -2.1148   -2.0113 H   0  0  0  0  0  0  0  0  0  0  0  0
    3.5514   -5.5869    1.0951 H   0  0  0  0  0  0  0  0  0  0  0  0
    1.8077   -5.2204    1.0898 H   0  0  0  0  0  0  0  0  0  0  0  0
  1  2  1  0
  2  3  2  3
  3  4  1  0
  4  5  1  0
  5  6  2  0
  5  7  1  0
  7  8  1  0
  8  9  2  0
  9 10  1  0
 10 11  1  0
 11 12  2  0
 12 13  1  0
 13 14  1  0
 14 15  2  0
 15 16  1  0
 10 17  1  0
 17 18  1  0
 18 19  1  0
 19 20  1  0
 20 21  2  0
 21 22  1  0
 22 23  2  0
 23 24  1  0
 24 25  2  0
  2 26  1  0
 26 27  2  0
 27 28  1  0
 28 29  2  0
 29 30  1  0
 30 31  2  0
 30 32  1  0
 32 33  1  0
 33 34  1  0
 17  7  2  0
 25 20  1  0
 31 26  1  0
 15 11  1  0
 34 29  1  0
  1 35  1  0
  1 36  1  0
  1 37  1  0
  4 38  1  0
 16 39  1  0
 16 40  1  0
 18 41  1  0
 18 42  1  0
 21 43  1  0
 22 44  1  0
 23 45  1  0
 24 46  1  0
 25 47  1  0
 27 48  1  0
 28 49  1  0
 31 50  1  0
 33 51  1  0
 33 52  1  0
M  END
$$$$
