
     RDKit          3D

 58 62  0  0  0  0  0  0  0  0999 V2000
    7.3748    3.8251    2.7590 C   0  0  0  0  0  0  0  0  0  0  0  0
    7.2019    2.5951    2.0710 O   0  0  0  0  0  0  0  0  0  0  0  0
    5.9484    2.3009    1.5942 C   0  0  0  0  0  0  0  0  0  0  0  0
    4.8514    3.1631    1.6736 C   0  0  0  0  0  0  0  0  0  0  0  0
    3.6106    2.7792    1.1543 C   0  0  0  0  0  0  0  0  0  0  0  0
    3.4431    1.5292    0.5461 C   0  0  0  0  0  0  0  0  0  0  0  0
    2.1593    1.1066   -0.0085 C   0  0  0  0  0  0  0  0  0  0  0  0
    1.8405   -0.0254   -0.6091 N   0  0  0  0  0  0  0  0  0  0  0  0
    0.5016    0.1134   -0.9193 C   0  0  0  0  0  0  0  0  0  0  0  0
   -0.2311   -0.9766   -1.6137 C   0  0  0  0  0  0  0  0  0  0  0  0
   -1.0678   -1.7213   -0.6870 N   0  0  0  0  0  0  0  0  0  0  0  0
   -2.4387   -1.7394   -0.6158 C   0  0  0  0  0  0  0  0  0  0  0  0
   -3.4638   -0.7863   -1.6361 S   0  0  0  0  0  0  0  0  0  0  0  0
   -5.1022   -1.3314   -1.0656 C   0  0  0  0  0  0  0  0  0  0  0  0
   -6.2020   -0.5988   -1.7951 C   0  0  0  0  0  0  0  0  0  0  0  0
   -6.7798    0.5579   -1.2445 C   0  0  0  0  0  0  0  0  0  0  0  0
   -7.7884    1.2448   -1.9266 C   0  0  0  0  0  0  0  0  0  0  0  0
   -8.2240    0.7874   -3.1692 C   0  0  0  0  0  0  0  0  0  0  0  0
   -7.6465   -0.3509   -3.7206 C   0  0  0  0  0  0  0  0  0  0  0  0
   -8.0613   -0.7876   -4.9172 F   0  0  0  0  0  0  0  0  0  0  0  0
   -6.6449   -1.0450   -3.0493 C   0  0  0  0  0  0  0  0  0  0  0  0
   -2.8740   -2.5605    0.3112 N   0  0  0  0  0  0  0  0  0  0  0  0
   -1.7474   -3.1133    0.8648 C   0  0  0  0  0  0  0  0  0  0  0  0
   -1.6336   -4.0544    1.8875 C   0  0  0  0  0  0  0  0  0  0  0  0
   -0.3420   -4.4235    2.2228 C   0  0  0  0  0  0  0  0  0  0  0  0
    0.7779   -3.9389    1.6372 N   0  0  0  0  0  0  0  0  0  0  0  0
    0.6673   -3.0191    0.6491 C   0  0  0  0  0  0  0  0  0  0  0  0
   -0.6010   -2.6113    0.2604 C   0  0  0  0  0  0  0  0  0  0  0  0
    0.0645    1.3533   -0.4998 C   0  0  0  0  0  0  0  0  0  0  0  0
   -1.2154    2.0813   -0.5437 C   0  0  0  0  0  0  0  0  0  0  0  0
    1.1192    1.9933    0.0876 O   0  0  0  0  0  0  0  0  0  0  0  0
    4.5477    0.6655    0.4700 C   0  0  0  0  0  0  0  0  0  0  0  0
    5.7954    1.0388    0.9861 C   0  0  0  0  0  0  0  0  0  0  0  0
    6.9185    0.2492    0.9463 O   0  0  0  0  0  0  0  0  0  0  0  0
    6.7992   -1.0420    0.3667 C   0  0  0  0  0  0  0  0  0  0  0  0
    7.1978    4.6763    2.0940 H   0  0  0  0  0  0  0  0  0  0  0  0
    6.7363    3.8757    3.6467 H   0  0  0  0  0  0  0  0  0  0  0  0
    8.4153    3.8773    3.0946 H   0  0  0  0  0  0  0  0  0  0  0  0
    4.9263    4.1439    2.1316 H   0  0  0  0  0  0  0  0  0  0  0  0
    2.7751    3.4724    1.2314 H   0  0  0  0  0  0  0  0  0  0  0  0
   -0.8356   -0.5780   -2.4318 H   0  0  0  0  0  0  0  0  0  0  0  0
    0.4694   -1.6931   -2.0590 H   0  0  0  0  0  0  0  0  0  0  0  0
   -5.2122   -2.4097   -1.2297 H   0  0  0  0  0  0  0  0  0  0  0  0
   -5.1971   -1.1584    0.0133 H   0  0  0  0  0  0  0  0  0  0  0  0
   -6.4452    0.9309   -0.2785 H   0  0  0  0  0  0  0  0  0  0  0  0
   -8.2305    2.1366   -1.4897 H   0  0  0  0  0  0  0  0  0  0  0  0
   -9.0050    1.3102   -3.7116 H   0  0  0  0  0  0  0  0  0  0  0  0
   -6.2158   -1.9277   -3.5139 H   0  0  0  0  0  0  0  0  0  0  0  0
   -2.5004   -4.4686    2.3831 H   0  0  0  0  0  0  0  0  0  0  0  0
   -0.1651   -5.1530    3.0093 H   0  0  0  0  0  0  0  0  0  0  0  0
    1.5874   -2.6469    0.2147 H   0  0  0  0  0  0  0  0  0  0  0  0
   -1.0720    3.1464   -0.3356 H   0  0  0  0  0  0  0  0  0  0  0  0
   -1.6757    1.9938   -1.5321 H   0  0  0  0  0  0  0  0  0  0  0  0
   -1.9086    1.6800    0.2021 H   0  0  0  0  0  0  0  0  0  0  0  0
    4.4059   -0.3024   -0.0022 H   0  0  0  0  0  0  0  0  0  0  0  0
    6.5356   -0.9757   -0.6937 H   0  0  0  0  0  0  0  0  0  0  0  0
    7.7760   -1.5303    0.4357 H   0  0  0  0  0  0  0  0  0  0  0  0
    6.0808   -1.6584    0.9164 H   0  0  0  0  0  0  0  0  0  0  0  0
  1  2  1  0
  2  3  1  0
  3  4  2  0
  4  5  1  0
  5  6  2  0
  6  7  1  0
  7  8  2  0
  8  9  1  0
  9 10  1  0
 10 11  1  0
 11 12  1  0
 12 13  1  0
 13 14  1  0
 14 15  1  0
 15 16  2  0
 16 17  1  0
 17 18  2  0
 18 19  1  0
 19 20  1  0
 19 21  2  0
 12 22  2  0
 22 23  1  0
 23 24  2  0
 24 25  1  0
 25 26  2  0
 26 27  1  0
 27 28  2  0
  9 29  2  0
 29 30  1  0
 29 31  1  0
  6 32  1  0
 32 33  2  0
 33 34  1  0
 34 35  1  0
 33  3  1  0
 31  7  1  0
 28 11  1  0
 21 15  1  0
 28 23  1  0
  1 36  1  0
  1 37  1  0
  1 38  1  0
  4 39  1  0
  5 40  1  0
 10 41  1  0
 10 42  1  0
 14 43  1  0
 14 44  1  0
 16 45  1  0
 17 46  1  0
 18 47  1  0
 21 48  1  0
 24 49  1  0
 25 50  1  0
 27 51  1  0
 30 52  1  0
 30 53  1  0
 30 54  1  0
 32 55  1  0
 35 56  1  0
 35 57  1  0
 35 58  1  0
M  END
$$$$
