
     RDKit          3D

 35 36  0  0  0  0  0  0  0  0999 V2000
   -5.6250    1.6933   -0.1027 C   0  0  0  0  0  0  0  0  0  0  0  0
   -4.9066    0.3925    0.1430 C   0  0  0  0  0  0  0  0  0  0  0  0
   -5.3967   -0.4806    0.8555 O   0  0  0  0  0  0  0  0  0  0  0  0
   -3.5712    0.1719   -0.4885 C   0  0  0  0  0  0  0  0  0  0  0  0
   -2.9099    1.1716   -1.2107 C   0  0  0  0  0  0  0  0  0  0  0  0
   -1.6573    0.9145   -1.7816 C   0  0  0  0  0  0  0  0  0  0  0  0
   -1.0518   -0.3349   -1.6274 C   0  0  0  0  0  0  0  0  0  0  0  0
    0.2182   -0.5472   -2.2310 N   0  0  0  0  0  0  0  0  0  0  0  0
    1.5199   -1.1481   -1.3390 S   0  0  0  0  0  6  0  0  0  0  0  0
    2.6572   -1.0063   -2.2264 O   0  0  0  0  0  0  0  0  0  0  0  0
    1.1538   -2.4332   -0.7840 O   0  0  0  0  0  0  0  0  0  0  0  0
    1.6665    0.0674   -0.0159 C   0  0  0  0  0  0  0  0  0  0  0  0
    2.8616   -0.2706    0.8390 C   0  0  0  0  0  0  0  0  0  0  0  0
    2.7293   -1.1379    1.9343 C   0  0  0  0  0  0  0  0  0  0  0  0
    3.8363   -1.4547    2.7252 C   0  0  0  0  0  0  0  0  0  0  0  0
    5.0817   -0.9090    2.4244 C   0  0  0  0  0  0  0  0  0  0  0  0
    6.4445   -1.2976    3.3999 Cl  0  0  0  0  0  0  0  0  0  0  0  0
    5.2306   -0.0519    1.3367 C   0  0  0  0  0  0  0  0  0  0  0  0
    4.1244    0.2658    0.5450 C   0  0  0  0  0  0  0  0  0  0  0  0
   -1.7160   -1.3382   -0.9254 C   0  0  0  0  0  0  0  0  0  0  0  0
   -2.9660   -1.0841   -0.3515 C   0  0  0  0  0  0  0  0  0  0  0  0
   -6.6202    1.6449    0.3505 H   0  0  0  0  0  0  0  0  0  0  0  0
   -5.0777    2.5190    0.3588 H   0  0  0  0  0  0  0  0  0  0  0  0
   -5.7542    1.8609   -1.1751 H   0  0  0  0  0  0  0  0  0  0  0  0
   -3.3449    2.1579   -1.3454 H   0  0  0  0  0  0  0  0  0  0  0  0
   -1.1643    1.7041   -2.3434 H   0  0  0  0  0  0  0  0  0  0  0  0
    0.5172    0.0923   -2.9669 H   0  0  0  0  0  0  0  0  0  0  0  0
    1.7779    1.0558   -0.4726 H   0  0  0  0  0  0  0  0  0  0  0  0
    0.7503    0.0488    0.5812 H   0  0  0  0  0  0  0  0  0  0  0  0
    1.7657   -1.5848    2.1749 H   0  0  0  0  0  0  0  0  0  0  0  0
    3.7208   -2.1315    3.5677 H   0  0  0  0  0  0  0  0  0  0  0  0
    6.2044    0.3661    1.0956 H   0  0  0  0  0  0  0  0  0  0  0  0
    4.2622    0.9254   -0.3101 H   0  0  0  0  0  0  0  0  0  0  0  0
   -1.2911   -2.3346   -0.8290 H   0  0  0  0  0  0  0  0  0  0  0  0
   -3.4698   -1.8807    0.1950 H   0  0  0  0  0  0  0  0  0  0  0  0
  1  2  1  0
  2  3  2  0
  2  4  1  0
  4  5  2  0
  5  6  1  0
  6  7  2  0
  7  8  1  0
  8  9  1  0
  9 10  2  0
  9 11  2  0
  9 12  1  0
 12 13  1  0
 13 14  2  0
 14 15  1  0
 15 16  2  0
 16 17  1  0
 16 18  1  0
 18 19  2  0
  7 20  1  0
 20 21  2  0
 21  4  1  0
 19 13  1  0
  1 22  1  0
  1 23  1  0
  1 24  1  0
  5 25  1  0
  6 26  1  0
  8 27  1  0
 12 28  1  0
 12 29  1  0
 14 30  1  0
 15 31  1  0
 18 32  1  0
 19 33  1  0
 20 34  1  0
 21 35  1  0
M  END
$$$$
