
     RDKit          3D

 25 26  0  0  0  0  0  0  0  0999 V2000
   -2.9932    2.4631    0.5276 O   0  0  0  0  0  0  0  0  0  0  0  0
   -2.5900    1.4139    0.0567 C   0  0  0  0  0  0  0  0  0  0  0  0
   -3.3790    0.1526   -0.1095 C   0  0  0  0  0  0  0  0  0  0  0  0
   -2.5040   -0.6475   -1.0678 C   0  0  0  0  0  0  0  0  0  0  0  0
   -1.1301   -0.1446   -0.8892 N   0  0  0  0  0  0  0  0  0  0  0  0
   -0.3701   -0.9934    0.0515 C   0  0  0  0  0  0  0  0  0  0  0  0
    1.0654   -0.5324    0.2118 C   0  0  0  0  0  0  0  0  0  0  0  0
    1.5009    0.0445    1.4145 C   0  0  0  0  0  0  0  0  0  0  0  0
    2.8225    0.4750    1.5548 C   0  0  0  0  0  0  0  0  0  0  0  0
    3.7139    0.3338    0.4933 C   0  0  0  0  0  0  0  0  0  0  0  0
    5.3411    0.8651    0.6676 Cl  0  0  0  0  0  0  0  0  0  0  0  0
    3.2956   -0.2317   -0.7090 C   0  0  0  0  0  0  0  0  0  0  0  0
    1.9746   -0.6622   -0.8499 C   0  0  0  0  0  0  0  0  0  0  0  0
   -1.3077    1.1494   -0.3724 N   0  0  0  0  0  0  0  0  0  0  0  0
   -3.4722   -0.3382    0.8639 H   0  0  0  0  0  0  0  0  0  0  0  0
   -4.3629    0.3614   -0.5360 H   0  0  0  0  0  0  0  0  0  0  0  0
   -2.8113   -0.4349   -2.0998 H   0  0  0  0  0  0  0  0  0  0  0  0
   -2.6081   -1.7285   -0.9228 H   0  0  0  0  0  0  0  0  0  0  0  0
   -0.8618   -1.0384    1.0328 H   0  0  0  0  0  0  0  0  0  0  0  0
   -0.3400   -2.0243   -0.3258 H   0  0  0  0  0  0  0  0  0  0  0  0
    0.8125    0.1668    2.2482 H   0  0  0  0  0  0  0  0  0  0  0  0
    3.1481    0.9203    2.4911 H   0  0  0  0  0  0  0  0  0  0  0  0
    3.9885   -0.3370   -1.5393 H   0  0  0  0  0  0  0  0  0  0  0  0
    1.6508   -1.0933   -1.7954 H   0  0  0  0  0  0  0  0  0  0  0  0
   -0.5835    1.8606   -0.3969 H   0  0  0  0  0  0  0  0  0  0  0  0
  1  2  2  0
  2  3  1  0
  3  4  1  0
  4  5  1  0
  5  6  1  0
  6  7  1  0
  7  8  2  0
  8  9  1  0
  9 10  2  0
 10 11  1  0
 10 12  1  0
 12 13  2  0
  5 14  1  0
 14  2  1  0
 13  7  1  0
  3 15  1  0
  3 16  1  0
  4 17  1  0
  4 18  1  0
  6 19  1  0
  6 20  1  0
  8 21  1  0
  9 22  1  0
 12 23  1  0
 13 24  1  0
 14 25  1  0
M  END
$$$$
