
     RDKit          3D

 27 27  0  0  0  0  0  0  0  0999 V2000
   -0.7484    1.2420   -1.2541 C   0  0  0  0  0  0  0  0  0  0  0  0
   -1.4165    0.2137   -0.3382 C   0  0  0  0  0  0  0  0  0  0  0  0
   -1.8253    0.8925    0.9772 C   0  0  0  0  0  0  0  0  0  0  0  0
   -2.6839   -0.3189   -1.0322 C   0  0  0  0  0  0  0  0  0  0  0  0
   -0.3264   -1.2108   -0.0221 S   0  0  0  0  0  6  0  0  0  0  0  0
   -0.9420   -2.0549    0.9852 O   0  0  0  0  0  0  0  0  0  0  0  0
    0.1442   -1.7816   -1.2669 O   0  0  0  0  0  0  0  0  0  0  0  0
    1.1012   -0.6187    0.7831 C   0  0  0  0  0  0  0  0  0  0  0  0
    1.1294   -0.3870    2.1992 C   0  0  0  0  0  0  0  0  0  0  0  0
    2.3743   -0.0067    2.6435 C   0  0  0  0  0  0  0  0  0  0  0  0
    3.5150    0.0356    1.3759 S   0  0  0  0  0  0  0  0  0  0  0  0
    2.3441   -0.4242    0.2048 C   0  0  0  0  0  0  0  0  0  0  0  0
    2.7918   -0.5613   -1.1556 C   0  0  0  0  0  0  0  0  0  0  0  0
    3.7969   -1.1178   -1.5715 O   0  0  0  0  0  0  0  0  0  0  0  0
    1.9907    0.1133   -2.0056 O   0  0  0  0  0  0  0  0  0  0  0  0
   -1.4203    2.0846   -1.4547 H   0  0  0  0  0  0  0  0  0  0  0  0
   -0.4837    0.8020   -2.2208 H   0  0  0  0  0  0  0  0  0  0  0  0
    0.1603    1.6531   -0.8036 H   0  0  0  0  0  0  0  0  0  0  0  0
   -0.9704    1.3635    1.4716 H   0  0  0  0  0  0  0  0  0  0  0  0
   -2.2668    0.1785    1.6806 H   0  0  0  0  0  0  0  0  0  0  0  0
   -2.5662    1.6805    0.7985 H   0  0  0  0  0  0  0  0  0  0  0  0
   -3.2041   -1.0503   -0.4035 H   0  0  0  0  0  0  0  0  0  0  0  0
   -3.3873    0.4918   -1.2528 H   0  0  0  0  0  0  0  0  0  0  0  0
   -2.4400   -0.8157   -1.9780 H   0  0  0  0  0  0  0  0  0  0  0  0
    0.2818   -0.5208    2.8628 H   0  0  0  0  0  0  0  0  0  0  0  0
    2.6760    0.2222    3.6572 H   0  0  0  0  0  0  0  0  0  0  0  0
    2.3758   -0.1049   -2.8800 H   0  0  0  0  0  0  0  0  0  0  0  0
  1  2  1  0
  2  3  1  0
  2  4  1  0
  2  5  1  0
  5  6  2  0
  5  7  2  0
  5  8  1  0
  8  9  1  0
  9 10  2  0
 10 11  1  0
 11 12  1  0
 12 13  1  0
 13 14  2  0
 13 15  1  0
 12  8  2  0
  1 16  1  0
  1 17  1  0
  1 18  1  0
  3 19  1  0
  3 20  1  0
  3 21  1  0
  4 22  1  0
  4 23  1  0
  4 24  1  0
  9 25  1  0
 10 26  1  0
 15 27  1  0
M  END
$$$$
