
     RDKit          3D

 58 62  0  0  0  0  0  0  0  0999 V2000
    6.8603    4.0042    0.9689 C   0  0  0  0  0  0  0  0  0  0  0  0
    6.6807    2.5935    0.9733 O   0  0  0  0  0  0  0  0  0  0  0  0
    5.4362    2.1268    0.6521 C   0  0  0  0  0  0  0  0  0  0  0  0
    4.3356    2.9024    0.2889 C   0  0  0  0  0  0  0  0  0  0  0  0
    3.1129    2.2925   -0.0138 C   0  0  0  0  0  0  0  0  0  0  0  0
    2.9776    0.8999    0.0400 C   0  0  0  0  0  0  0  0  0  0  0  0
    1.6547    0.2420   -0.2629 C   0  0  0  0  0  0  0  0  0  0  0  0
    0.8964   -0.1235    1.0182 C   0  0  0  0  0  0  0  0  0  0  0  0
   -0.4261   -0.6936    0.6939 N   0  0  0  0  0  0  0  0  0  0  0  0
   -1.5484    0.1323    0.5055 C   0  0  0  0  0  0  0  0  0  0  0  0
   -1.5056    1.4374    0.5326 N   0  0  0  0  0  0  0  0  0  0  0  0
   -2.8993   -0.4891    0.2418 C   0  0  0  0  0  0  0  0  0  0  0  0
   -4.1952    0.2434    0.0803 C   0  0  0  0  0  0  0  0  0  0  0  0
   -5.2326   -0.3388   -0.2267 O   0  0  0  0  0  0  0  0  0  0  0  0
   -4.1317    1.5907    0.2994 N   0  0  0  0  0  0  0  0  0  0  0  0
   -5.2251    2.4879    0.0167 C   0  0  0  0  0  0  0  0  0  0  0  0
   -4.9828    3.2067   -1.2634 C   0  0  0  0  0  0  0  0  0  0  0  0
   -3.9165    3.2986   -2.1378 C   0  0  0  0  0  0  0  0  0  0  0  0
   -4.3236    4.1651   -3.1806 C   0  0  0  0  0  0  0  0  0  0  0  0
   -5.6073    4.5519   -2.8769 C   0  0  0  0  0  0  0  0  0  0  0  0
   -6.0143    3.9811   -1.7150 O   0  0  0  0  0  0  0  0  0  0  0  0
   -2.9175   -1.8283    0.1323 C   0  0  0  0  0  0  0  0  0  0  0  0
   -1.7242   -2.6486    0.2488 C   0  0  0  0  0  0  0  0  0  0  0  0
   -1.8297   -4.1253    0.0678 C   0  0  0  0  0  0  0  0  0  0  0  0
   -2.9249   -4.6433   -0.1573 O   0  0  0  0  0  0  0  0  0  0  0  0
   -0.6465   -4.8352    0.1713 N   0  0  0  0  0  0  0  0  0  0  0  0
   -0.6595   -6.2163    0.0031 C   0  0  0  0  0  0  0  0  0  0  0  0
    0.4576   -6.9479    0.0949 C   0  0  0  0  0  0  0  0  0  0  0  0
    1.7129   -6.3048    0.3761 C   0  0  0  0  0  0  0  0  0  0  0  0
    1.7708   -4.9785    0.5486 C   0  0  0  0  0  0  0  0  0  0  0  0
    0.5281   -4.1611    0.4451 C   0  0  0  0  0  0  0  0  0  0  0  0
    0.6152   -2.8806    0.6141 N   0  0  0  0  0  0  0  0  0  0  0  0
   -0.5172   -2.1018    0.5187 C   0  0  0  0  0  0  0  0  0  0  0  0
    4.0849    0.1257    0.4037 C   0  0  0  0  0  0  0  0  0  0  0  0
    5.3030    0.7380    0.7055 C   0  0  0  0  0  0  0  0  0  0  0  0
    6.1975    4.4900    1.6931 H   0  0  0  0  0  0  0  0  0  0  0  0
    7.8918    4.2099    1.2723 H   0  0  0  0  0  0  0  0  0  0  0  0
    6.7197    4.4170   -0.0362 H   0  0  0  0  0  0  0  0  0  0  0  0
    4.3941    3.9837    0.2280 H   0  0  0  0  0  0  0  0  0  0  0  0
    2.2691    2.9185   -0.2971 H   0  0  0  0  0  0  0  0  0  0  0  0
    1.0484    0.9085   -0.8891 H   0  0  0  0  0  0  0  0  0  0  0  0
    1.8300   -0.6526   -0.8745 H   0  0  0  0  0  0  0  0  0  0  0  0
    1.4872   -0.8255    1.6217 H   0  0  0  0  0  0  0  0  0  0  0  0
    0.7889    0.7496    1.6737 H   0  0  0  0  0  0  0  0  0  0  0  0
   -0.5576    1.7732    0.7006 H   0  0  0  0  0  0  0  0  0  0  0  0
   -3.2044    1.9853    0.4683 H   0  0  0  0  0  0  0  0  0  0  0  0
   -6.1713    1.9396   -0.0262 H   0  0  0  0  0  0  0  0  0  0  0  0
   -5.2733    3.2087    0.8392 H   0  0  0  0  0  0  0  0  0  0  0  0
   -2.9667    2.7919   -2.0337 H   0  0  0  0  0  0  0  0  0  0  0  0
   -3.7548    4.4674   -4.0483 H   0  0  0  0  0  0  0  0  0  0  0  0
   -6.3302    5.1943   -3.3591 H   0  0  0  0  0  0  0  0  0  0  0  0
   -3.8538   -2.3499   -0.0618 H   0  0  0  0  0  0  0  0  0  0  0  0
   -1.6200   -6.6805   -0.2084 H   0  0  0  0  0  0  0  0  0  0  0  0
    0.4372   -8.0250   -0.0385 H   0  0  0  0  0  0  0  0  0  0  0  0
    2.6052   -6.9185    0.4466 H   0  0  0  0  0  0  0  0  0  0  0  0
    2.6957   -4.4577    0.7632 H   0  0  0  0  0  0  0  0  0  0  0  0
    4.0097   -0.9588    0.4531 H   0  0  0  0  0  0  0  0  0  0  0  0
    6.1584    0.1273    0.9854 H   0  0  0  0  0  0  0  0  0  0  0  0
  1  2  1  0
  2  3  1  0
  3  4  2  0
  4  5  1  0
  5  6  2  0
  6  7  1  0
  7  8  1  0
  8  9  1  0
  9 10  1  0
 10 11  2  3
 10 12  1  0
 12 13  1  0
 13 14  2  0
 13 15  1  0
 15 16  1  0
 16 17  1  0
 17 18  2  0
 18 19  1  0
 19 20  2  0
 20 21  1  0
 12 22  2  0
 22 23  1  0
 23 24  1  0
 24 25  2  0
 24 26  1  0
 26 27  1  0
 27 28  2  0
 28 29  1  0
 29 30  2  0
 30 31  1  0
 31 32  2  0
 32 33  1  0
  6 34  1  0
 34 35  2  0
 35  3  1  0
 33  9  1  0
 21 17  1  0
 33 23  2  0
 31 26  1  0
  1 36  1  0
  1 37  1  0
  1 38  1  0
  4 39  1  0
  5 40  1  0
  7 41  1  0
  7 42  1  0
  8 43  1  0
  8 44  1  0
 11 45  1  0
 15 46  1  0
 16 47  1  0
 16 48  1  0
 18 49  1  0
 19 50  1  0
 20 51  1  0
 22 52  1  0
 27 53  1  0
 28 54  1  0
 29 55  1  0
 30 56  1  0
 34 57  1  0
 35 58  1  0
M  END
$$$$
