
     RDKit          3D

 44 47  0  0  0  0  0  0  0  0999 V2000
   -3.6911    2.5336   -0.3493 C   0  0  0  0  0  0  0  0  0  0  0  0
   -2.3951    1.7765   -0.6307 C   0  0  0  0  0  0  0  0  0  0  0  0
   -2.6155    0.6960   -1.6778 C   0  0  0  0  0  0  0  0  0  0  0  0
   -1.4091   -0.2041   -1.8049 C   0  0  0  0  0  0  0  0  0  0  0  0
   -0.4965    0.0745   -2.5877 O   0  0  0  0  0  0  0  0  0  0  0  0
   -1.3836   -1.3500   -1.0176 N   0  0  0  0  0  0  0  0  0  0  0  0
   -0.3130   -2.3262   -1.2714 C   0  0  0  0  0  0  0  0  0  0  0  0
    0.9592   -2.0133   -0.4723 C   0  0  0  0  0  0  0  0  0  0  0  0
    1.4178   -2.8383    0.3144 O   0  0  0  0  0  0  0  0  0  0  0  0
    1.5185   -0.7898   -0.7991 N   0  0  0  0  0  0  0  0  0  0  0  0
    2.6584   -0.1779   -0.2441 C   0  0  0  0  0  0  0  0  0  0  0  0
    3.4243   -0.7439    0.7929 C   0  0  0  0  0  0  0  0  0  0  0  0
    4.5467   -0.0797    1.3058 C   0  0  0  0  0  0  0  0  0  0  0  0
    4.8741    1.1425    0.7650 C   0  0  0  0  0  0  0  0  0  0  0  0
    4.1312    1.7027   -0.2449 C   0  0  0  0  0  0  0  0  0  0  0  0
    3.0221    1.0713   -0.7689 C   0  0  0  0  0  0  0  0  0  0  0  0
    4.6178    2.9108   -0.6381 O   0  0  0  0  0  0  0  0  0  0  0  0
    5.7519    3.0452    0.2438 C   0  0  0  0  0  0  0  0  0  0  0  0
    5.9218    1.9247    1.1360 O   0  0  0  0  0  0  0  0  0  0  0  0
   -2.1816   -1.5145    0.1627 C   0  0  0  0  0  0  0  0  0  0  0  0
   -2.7204   -2.7814    0.4461 C   0  0  0  0  0  0  0  0  0  0  0  0
   -3.5155   -2.9937    1.5750 C   0  0  0  0  0  0  0  0  0  0  0  0
   -3.7773   -1.9460    2.4487 C   0  0  0  0  0  0  0  0  0  0  0  0
   -3.2402   -0.6853    2.1964 C   0  0  0  0  0  0  0  0  0  0  0  0
   -2.4500   -0.4539    1.0589 C   0  0  0  0  0  0  0  0  0  0  0  0
   -1.6961    1.1677    0.9480 S   0  0  0  0  0  0  0  0  0  0  0  0
   -4.4636    1.8789    0.0698 H   0  0  0  0  0  0  0  0  0  0  0  0
   -3.5269    3.3622    0.3486 H   0  0  0  0  0  0  0  0  0  0  0  0
   -4.0899    2.9634   -1.2750 H   0  0  0  0  0  0  0  0  0  0  0  0
   -1.6602    2.4926   -1.0176 H   0  0  0  0  0  0  0  0  0  0  0  0
   -3.5153    0.1006   -1.4816 H   0  0  0  0  0  0  0  0  0  0  0  0
   -2.7910    1.1576   -2.6582 H   0  0  0  0  0  0  0  0  0  0  0  0
   -0.6340   -3.3450   -1.0395 H   0  0  0  0  0  0  0  0  0  0  0  0
   -0.0532   -2.3207   -2.3372 H   0  0  0  0  0  0  0  0  0  0  0  0
    1.0425   -0.2664   -1.5351 H   0  0  0  0  0  0  0  0  0  0  0  0
    3.1663   -1.7054    1.2265 H   0  0  0  0  0  0  0  0  0  0  0  0
    5.1358   -0.5155    2.1047 H   0  0  0  0  0  0  0  0  0  0  0  0
    2.4579    1.5445   -1.5650 H   0  0  0  0  0  0  0  0  0  0  0  0
    6.6579    3.1497   -0.3643 H   0  0  0  0  0  0  0  0  0  0  0  0
    5.6241    3.9543    0.8428 H   0  0  0  0  0  0  0  0  0  0  0  0
   -2.5675   -3.6221   -0.2252 H   0  0  0  0  0  0  0  0  0  0  0  0
   -3.9285   -3.9806    1.7704 H   0  0  0  0  0  0  0  0  0  0  0  0
   -4.3854   -2.1114    3.3346 H   0  0  0  0  0  0  0  0  0  0  0  0
   -3.4278    0.1157    2.9093 H   0  0  0  0  0  0  0  0  0  0  0  0
  1  2  1  0
  2  3  1  0
  3  4  1  0
  4  5  2  0
  4  6  1  0
  6  7  1  0
  7  8  1  0
  8  9  2  0
  8 10  1  0
 10 11  1  0
 11 12  2  0
 12 13  1  0
 13 14  2  0
 14 15  1  0
 15 16  2  0
 15 17  1  0
 17 18  1  0
 18 19  1  0
  6 20  1  0
 20 21  2  0
 21 22  1  0
 22 23  2  0
 23 24  1  0
 24 25  2  0
 25 26  1  0
 26  2  1  0
 16 11  1  0
 25 20  1  0
 19 14  1  0
  1 27  1  0
  1 28  1  0
  1 29  1  0
  2 30  1  0
  3 31  1  0
  3 32  1  0
  7 33  1  0
  7 34  1  0
 10 35  1  0
 12 36  1  0
 13 37  1  0
 16 38  1  0
 18 39  1  0
 18 40  1  0
 21 41  1  0
 22 42  1  0
 23 43  1  0
 24 44  1  0
M  END
$$$$
