
     RDKit          3D

 40 42  0  0  0  0  0  0  0  0999 V2000
   -4.5159    2.2878   -0.8453 C   0  0  0  0  0  0  0  0  0  0  0  0
   -3.3634    1.5815   -0.2925 N   0  0  0  0  0  0  0  0  0  0  0  0
   -2.2227    2.3504   -0.0146 C   0  0  0  0  0  0  0  0  0  0  0  0
   -2.2449    3.5773    0.0974 O   0  0  0  0  0  0  0  0  0  0  0  0
   -0.8828    1.7025    0.0453 C   0  0  0  0  0  0  0  0  0  0  0  0
   -0.5211    0.6750   -0.8308 C   0  0  0  0  0  0  0  0  0  0  0  0
    0.7587    0.1089   -0.7652 C   0  0  0  0  0  0  0  0  0  0  0  0
    1.6966    0.5751    0.1589 C   0  0  0  0  0  0  0  0  0  0  0  0
    3.0064    0.0664    0.2890 N   0  0  0  0  0  0  0  0  0  0  0  0
    3.5863   -0.9888   -0.4053 C   0  0  0  0  0  0  0  0  0  0  0  0
    2.9986   -1.6666   -1.2431 O   0  0  0  0  0  0  0  0  0  0  0  0
    4.9779   -1.2404   -0.0450 C   0  0  0  0  0  0  0  0  0  0  0  0
    5.8895   -0.5972    0.7789 C   0  0  0  0  0  0  0  0  0  0  0  0
    7.1000   -1.3325    0.7141 C   0  0  0  0  0  0  0  0  0  0  0  0
    6.8648   -2.3778   -0.1434 C   0  0  0  0  0  0  0  0  0  0  0  0
    5.5922   -2.3322   -0.6066 O   0  0  0  0  0  0  0  0  0  0  0  0
    1.3372    1.6271    1.0133 C   0  0  0  0  0  0  0  0  0  0  0  0
    0.0595    2.1926    0.9541 C   0  0  0  0  0  0  0  0  0  0  0  0
   -3.5613    0.2192    0.1124 C   0  0  0  0  0  0  0  0  0  0  0  0
   -2.8961   -0.3219    1.2222 C   0  0  0  0  0  0  0  0  0  0  0  0
   -3.1052   -1.6483    1.6146 C   0  0  0  0  0  0  0  0  0  0  0  0
   -3.9950   -2.4533    0.9113 C   0  0  0  0  0  0  0  0  0  0  0  0
   -4.6832   -1.9290   -0.1778 C   0  0  0  0  0  0  0  0  0  0  0  0
   -4.4735   -0.6022   -0.5687 C   0  0  0  0  0  0  0  0  0  0  0  0
   -4.3502    3.3677   -0.8953 H   0  0  0  0  0  0  0  0  0  0  0  0
   -5.3972    2.1086   -0.2207 H   0  0  0  0  0  0  0  0  0  0  0  0
   -4.6961    1.9374   -1.8662 H   0  0  0  0  0  0  0  0  0  0  0  0
   -1.2224    0.3067   -1.5756 H   0  0  0  0  0  0  0  0  0  0  0  0
    0.9879   -0.6907   -1.4631 H   0  0  0  0  0  0  0  0  0  0  0  0
    3.5782    0.5168    0.9874 H   0  0  0  0  0  0  0  0  0  0  0  0
    5.7219    0.2989    1.3584 H   0  0  0  0  0  0  0  0  0  0  0  0
    8.0296   -1.1246    1.2256 H   0  0  0  0  0  0  0  0  0  0  0  0
    7.4657   -3.1982   -0.5113 H   0  0  0  0  0  0  0  0  0  0  0  0
    2.0441    2.0285    1.7350 H   0  0  0  0  0  0  0  0  0  0  0  0
   -0.1993    3.0176    1.6148 H   0  0  0  0  0  0  0  0  0  0  0  0
   -2.2311    0.2820    1.8321 H   0  0  0  0  0  0  0  0  0  0  0  0
   -2.5768   -2.0468    2.4772 H   0  0  0  0  0  0  0  0  0  0  0  0
   -4.1564   -3.4842    1.2152 H   0  0  0  0  0  0  0  0  0  0  0  0
   -5.3824   -2.5523   -0.7294 H   0  0  0  0  0  0  0  0  0  0  0  0
   -5.0180   -0.2410   -1.4361 H   0  0  0  0  0  0  0  0  0  0  0  0
  1  2  1  0
  2  3  1  0
  3  4  2  0
  3  5  1  0
  5  6  2  0
  6  7  1  0
  7  8  2  0
  8  9  1  0
  9 10  1  0
 10 11  2  0
 10 12  1  0
 12 13  2  0
 13 14  1  0
 14 15  2  0
 15 16  1  0
  8 17  1  0
 17 18  2  0
  2 19  1  0
 19 20  2  0
 20 21  1  0
 21 22  2  0
 22 23  1  0
 23 24  2  0
 18  5  1  0
 24 19  1  0
 16 12  1  0
  1 25  1  0
  1 26  1  0
  1 27  1  0
  6 28  1  0
  7 29  1  0
  9 30  1  0
 13 31  1  0
 14 32  1  0
 15 33  1  0
 17 34  1  0
 18 35  1  0
 20 36  1  0
 21 37  1  0
 22 38  1  0
 23 39  1  0
 24 40  1  0
M  END
$$$$
