
     RDKit          3D

 48 50  0  0  0  0  0  0  0  0999 V2000
   -2.1663   -0.6152   -4.0115 C   0  0  0  0  0  0  0  0  0  0  0  0
   -3.2658   -0.0775   -3.2912 O   0  0  0  0  0  0  0  0  0  0  0  0
   -3.0533    0.2948   -1.9893 C   0  0  0  0  0  0  0  0  0  0  0  0
   -1.8920    0.0223   -1.2588 C   0  0  0  0  0  0  0  0  0  0  0  0
   -1.7684    0.4428    0.0753 C   0  0  0  0  0  0  0  0  0  0  0  0
   -0.5414    0.0997    0.8130 C   0  0  0  0  0  0  0  0  0  0  0  0
    0.2279    0.9478    1.5246 C   0  0  0  0  0  0  0  0  0  0  0  0
   -0.0427    2.3306    1.7095 C   0  0  0  0  0  0  0  0  0  0  0  0
   -0.2852    3.4598    1.8262 N   0  0  0  0  0  0  0  0  0  0  0  0
    1.4232    0.3890    2.2177 C   0  0  0  0  0  0  0  0  0  0  0  0
    1.5228    0.5072    3.4315 O   0  0  0  0  0  0  0  0  0  0  0  0
    2.3253   -0.2004    1.3481 N   0  0  0  0  0  0  0  0  0  0  0  0
    3.5407   -0.8655    1.6702 C   0  0  0  0  0  0  0  0  0  0  0  0
    3.9195   -1.0839    2.9990 C   0  0  0  0  0  0  0  0  0  0  0  0
    5.1014   -1.7525    3.2982 C   0  0  0  0  0  0  0  0  0  0  0  0
    5.9157   -2.2128    2.2693 C   0  0  0  0  0  0  0  0  0  0  0  0
    5.5852   -2.0216    0.9397 C   0  0  0  0  0  0  0  0  0  0  0  0
    6.4394   -2.5047    0.0212 N   0  0  0  0  0  0  0  0  0  0  0  0
    6.1511   -2.3281   -1.2822 C   0  0  0  0  0  0  0  0  0  0  0  0
    5.0229   -1.6776   -1.7274 C   0  0  0  0  0  0  0  0  0  0  0  0
    4.1379   -1.1812   -0.7742 C   0  0  0  0  0  0  0  0  0  0  0  0
    4.3871   -1.3389    0.6130 C   0  0  0  0  0  0  0  0  0  0  0  0
   -2.8302    1.1233    0.6863 C   0  0  0  0  0  0  0  0  0  0  0  0
   -3.9857    1.4265   -0.0375 C   0  0  0  0  0  0  0  0  0  0  0  0
   -5.0530    2.0949    0.5055 O   0  0  0  0  0  0  0  0  0  0  0  0
   -4.7016    3.1687    1.3748 C   0  0  0  0  0  0  0  0  0  0  0  0
   -4.1045    0.9821   -1.3615 C   0  0  0  0  0  0  0  0  0  0  0  0
   -5.2321    1.2987   -2.0848 O   0  0  0  0  0  0  0  0  0  0  0  0
   -6.2195    0.2839   -1.9108 C   0  0  0  0  0  0  0  0  0  0  0  0
   -2.4867   -0.7690   -5.0464 H   0  0  0  0  0  0  0  0  0  0  0  0
   -1.3204    0.0802   -4.0245 H   0  0  0  0  0  0  0  0  0  0  0  0
   -1.8716   -1.5888   -3.6067 H   0  0  0  0  0  0  0  0  0  0  0  0
   -1.0710   -0.5229   -1.7130 H   0  0  0  0  0  0  0  0  0  0  0  0
   -0.2713   -0.9545    0.7509 H   0  0  0  0  0  0  0  0  0  0  0  0
    2.1142   -0.1172    0.3653 H   0  0  0  0  0  0  0  0  0  0  0  0
    3.3149   -0.7525    3.8371 H   0  0  0  0  0  0  0  0  0  0  0  0
    5.3875   -1.9167    4.3342 H   0  0  0  0  0  0  0  0  0  0  0  0
    6.8381   -2.7358    2.5129 H   0  0  0  0  0  0  0  0  0  0  0  0
    6.8789   -2.7364   -1.9775 H   0  0  0  0  0  0  0  0  0  0  0  0
    4.8364   -1.5554   -2.7884 H   0  0  0  0  0  0  0  0  0  0  0  0
    3.2599   -0.6643   -1.1437 H   0  0  0  0  0  0  0  0  0  0  0  0
   -2.7652    1.4004    1.7345 H   0  0  0  0  0  0  0  0  0  0  0  0
   -3.8822    3.7722    0.9683 H   0  0  0  0  0  0  0  0  0  0  0  0
   -5.5775    3.8169    1.4744 H   0  0  0  0  0  0  0  0  0  0  0  0
   -4.4516    2.7913    2.3711 H   0  0  0  0  0  0  0  0  0  0  0  0
   -6.5421    0.2138   -0.8665 H   0  0  0  0  0  0  0  0  0  0  0  0
   -7.0900    0.5576   -2.5145 H   0  0  0  0  0  0  0  0  0  0  0  0
   -5.8582   -0.6891   -2.2617 H   0  0  0  0  0  0  0  0  0  0  0  0
  1  2  1  0
  2  3  1  0
  3  4  2  0
  4  5  1  0
  5  6  1  0
  6  7  2  3
  7  8  1  0
  8  9  3  0
  7 10  1  0
 10 11  2  0
 10 12  1  0
 12 13  1  0
 13 14  2  0
 14 15  1  0
 15 16  2  0
 16 17  1  0
 17 18  2  0
 18 19  1  0
 19 20  2  0
 20 21  1  0
 21 22  2  0
  5 23  2  0
 23 24  1  0
 24 25  1  0
 25 26  1  0
 24 27  2  0
 27 28  1  0
 28 29  1  0
 27  3  1  0
 22 13  1  0
 22 17  1  0
  1 30  1  0
  1 31  1  0
  1 32  1  0
  4 33  1  0
  6 34  1  0
 12 35  1  0
 14 36  1  0
 15 37  1  0
 16 38  1  0
 19 39  1  0
 20 40  1  0
 21 41  1  0
 23 42  1  0
 26 43  1  0
 26 44  1  0
 26 45  1  0
 29 46  1  0
 29 47  1  0
 29 48  1  0
M  END
$$$$
