
     RDKit          3D

 32 32  0  0  0  0  0  0  0  0999 V2000
    0.5937    0.7373   -4.9479 C   0  0  0  0  0  0  0  0  0  0  0  0
    0.3204    1.6025   -4.1602 C   0  0  0  0  0  0  0  0  0  0  0  0
   -0.0147    2.6789   -3.2145 C   0  0  0  0  0  0  0  0  0  0  0  0
   -0.9201    2.3013   -2.1279 N   0  0  0  0  0  0  0  0  0  0  0  0
   -2.1888    1.7473   -2.5802 C   0  0  0  0  0  0  0  0  0  0  0  0
   -0.3098    1.5693   -1.0143 C   0  0  0  0  0  0  0  0  0  0  0  0
    0.0812    0.1053   -1.2585 C   0  0  0  0  0  0  0  0  0  0  0  0
    0.6658   -0.5384   -0.0009 C   0  0  0  0  0  0  0  0  0  0  0  0
   -0.3464   -0.5871    1.0128 O   0  0  0  0  0  0  0  0  0  0  0  0
    0.0981   -1.2872    2.1043 C   0  0  0  0  0  0  0  0  0  0  0  0
    0.8399   -0.6105    3.0749 C   0  0  0  0  0  0  0  0  0  0  0  0
    1.2667   -1.2953    4.2109 C   0  0  0  0  0  0  0  0  0  0  0  0
    2.1934   -0.4735    5.4046 Cl  0  0  0  0  0  0  0  0  0  0  0  0
    0.9465   -2.6417    4.3905 C   0  0  0  0  0  0  0  0  0  0  0  0
    0.1845   -3.3100    3.4281 C   0  0  0  0  0  0  0  0  0  0  0  0
   -0.2475   -2.6312    2.2868 C   0  0  0  0  0  0  0  0  0  0  0  0
   -1.1961   -3.4829    1.1252 Cl  0  0  0  0  0  0  0  0  0  0  0  0
    0.8323   -0.0310   -5.6466 H   0  0  0  0  0  0  0  0  0  0  0  0
    0.9073    3.1022   -2.7974 H   0  0  0  0  0  0  0  0  0  0  0  0
   -0.4767    3.5019   -3.7748 H   0  0  0  0  0  0  0  0  0  0  0  0
   -2.0831    0.7707   -3.0635 H   0  0  0  0  0  0  0  0  0  0  0  0
   -2.8806    1.6346   -1.7378 H   0  0  0  0  0  0  0  0  0  0  0  0
   -2.6742    2.4270   -3.2896 H   0  0  0  0  0  0  0  0  0  0  0  0
   -1.0096    1.6150   -0.1697 H   0  0  0  0  0  0  0  0  0  0  0  0
    0.5746    2.1228   -0.6722 H   0  0  0  0  0  0  0  0  0  0  0  0
   -0.7991   -0.4680   -1.5698 H   0  0  0  0  0  0  0  0  0  0  0  0
    0.8322    0.0361   -2.0499 H   0  0  0  0  0  0  0  0  0  0  0  0
    1.0038   -1.5527   -0.2487 H   0  0  0  0  0  0  0  0  0  0  0  0
    1.5267    0.0437    0.3508 H   0  0  0  0  0  0  0  0  0  0  0  0
    1.0733    0.4422    2.9447 H   0  0  0  0  0  0  0  0  0  0  0  0
    1.2789   -3.1729    5.2790 H   0  0  0  0  0  0  0  0  0  0  0  0
   -0.0726   -4.3559    3.5767 H   0  0  0  0  0  0  0  0  0  0  0  0
  1  2  3  0
  2  3  1  0
  3  4  1  0
  4  5  1  0
  4  6  1  0
  6  7  1  0
  7  8  1  0
  8  9  1  0
  9 10  1  0
 10 11  2  0
 11 12  1  0
 12 13  1  0
 12 14  2  0
 14 15  1  0
 15 16  2  0
 16 17  1  0
 16 10  1  0
  1 18  1  0
  3 19  1  0
  3 20  1  0
  5 21  1  0
  5 22  1  0
  5 23  1  0
  6 24  1  0
  6 25  1  0
  7 26  1  0
  7 27  1  0
  8 28  1  0
  8 29  1  0
 11 30  1  0
 14 31  1  0
 15 32  1  0
M  END
$$$$
