
     RDKit          3D

 48 51  0  0  0  0  0  0  0  0999 V2000
    1.8874   -0.3006    3.7167 C   0  0  0  0  0  0  0  0  0  0  0  0
    2.1904   -0.0994    2.2673 C   0  0  0  0  0  0  0  0  0  0  0  0
    1.3922   -0.3099    1.2068 C   0  0  0  0  0  0  0  0  0  0  0  0
    0.1332   -0.8103    1.0172 N   0  0  0  0  0  0  0  0  0  0  0  0
   -0.6914   -1.4822    1.8890 C   0  0  0  0  0  0  0  0  0  0  0  0
   -0.3717   -1.8425    3.0200 O   0  0  0  0  0  0  0  0  0  0  0  0
   -2.0462   -1.8837    1.3167 C   0  0  0  0  0  0  0  0  0  0  0  0
   -2.6817   -0.6740    0.1068 S   0  0  0  0  0  0  0  0  0  0  0  0
   -4.2310   -1.4514   -0.3673 C   0  0  0  0  0  0  0  0  0  0  0  0
   -4.5274   -2.5966    0.2781 N   0  0  0  0  0  0  0  0  0  0  0  0
   -5.6784   -3.1783   -0.0621 C   0  0  0  0  0  0  0  0  0  0  0  0
   -6.5441   -2.7353   -0.9778 N   0  0  0  0  0  0  0  0  0  0  0  0
   -6.2334   -1.5989   -1.6103 C   0  0  0  0  0  0  0  0  0  0  0  0
   -7.1171   -1.1152   -2.5667 C   0  0  0  0  0  0  0  0  0  0  0  0
   -6.8728    0.0643   -3.2742 C   0  0  0  0  0  0  0  0  0  0  0  0
   -5.7184    0.7882   -3.0253 C   0  0  0  0  0  0  0  0  0  0  0  0
   -4.8167    0.3246   -2.0718 C   0  0  0  0  0  0  0  0  0  0  0  0
   -5.0612   -0.8784   -1.3505 C   0  0  0  0  0  0  0  0  0  0  0  0
    2.1599    0.1863    0.0184 C   0  0  0  0  0  0  0  0  0  0  0  0
    1.6787    0.1909   -1.1065 O   0  0  0  0  0  0  0  0  0  0  0  0
    3.3888    0.6445    0.4974 N   0  0  0  0  0  0  0  0  0  0  0  0
    4.2274    1.5897   -0.1460 C   0  0  0  0  0  0  0  0  0  0  0  0
    4.2490    1.6960   -1.5433 C   0  0  0  0  0  0  0  0  0  0  0  0
    5.0818    2.6205   -2.1831 C   0  0  0  0  0  0  0  0  0  0  0  0
    5.9011    3.4596   -1.4339 C   0  0  0  0  0  0  0  0  0  0  0  0
    5.8894    3.3737   -0.0456 C   0  0  0  0  0  0  0  0  0  0  0  0
    5.0564    2.4481    0.5915 C   0  0  0  0  0  0  0  0  0  0  0  0
    3.4481    0.4259    1.9052 N   0  0  0  0  0  0  0  0  0  0  0  0
    4.6408   -0.3380    2.3209 C   0  0  0  0  0  0  0  0  0  0  0  0
    2.0580   -1.3403    4.0096 H   0  0  0  0  0  0  0  0  0  0  0  0
    2.5300    0.3317    4.3385 H   0  0  0  0  0  0  0  0  0  0  0  0
    0.8628   -0.0066    3.9587 H   0  0  0  0  0  0  0  0  0  0  0  0
   -0.2101   -0.7048    0.0624 H   0  0  0  0  0  0  0  0  0  0  0  0
   -2.7519   -1.9510    2.1517 H   0  0  0  0  0  0  0  0  0  0  0  0
   -1.9314   -2.8660    0.8482 H   0  0  0  0  0  0  0  0  0  0  0  0
   -5.9372   -4.0975    0.4520 H   0  0  0  0  0  0  0  0  0  0  0  0
   -8.0265   -1.6755   -2.7701 H   0  0  0  0  0  0  0  0  0  0  0  0
   -7.5826    0.4072   -4.0204 H   0  0  0  0  0  0  0  0  0  0  0  0
   -5.5167    1.7078   -3.5702 H   0  0  0  0  0  0  0  0  0  0  0  0
   -3.9168    0.9071   -1.8927 H   0  0  0  0  0  0  0  0  0  0  0  0
    3.6349    1.0494   -2.1649 H   0  0  0  0  0  0  0  0  0  0  0  0
    5.0826    2.6852   -3.2681 H   0  0  0  0  0  0  0  0  0  0  0  0
    6.5433    4.1812   -1.9311 H   0  0  0  0  0  0  0  0  0  0  0  0
    6.5154    4.0358    0.5465 H   0  0  0  0  0  0  0  0  0  0  0  0
    5.0393    2.4354    1.6781 H   0  0  0  0  0  0  0  0  0  0  0  0
    4.6625   -0.4569    3.4090 H   0  0  0  0  0  0  0  0  0  0  0  0
    4.6456   -1.3327    1.8604 H   0  0  0  0  0  0  0  0  0  0  0  0
    5.5659    0.1725    2.0393 H   0  0  0  0  0  0  0  0  0  0  0  0
  1  2  1  0
  2  3  2  0
  3  4  1  0
  4  5  1  0
  5  6  2  0
  5  7  1  0
  7  8  1  0
  8  9  1  0
  9 10  2  0
 10 11  1  0
 11 12  2  0
 12 13  1  0
 13 14  2  0
 14 15  1  0
 15 16  2  0
 16 17  1  0
 17 18  2  0
  3 19  1  0
 19 20  2  0
 19 21  1  0
 21 22  1  0
 22 23  2  0
 23 24  1  0
 24 25  2  0
 25 26  1  0
 26 27  2  0
 21 28  1  0
 28 29  1  0
 28  2  1  0
 18  9  1  0
 27 22  1  0
 18 13  1  0
  1 30  1  0
  1 31  1  0
  1 32  1  0
  4 33  1  0
  7 34  1  0
  7 35  1  0
 11 36  1  0
 14 37  1  0
 15 38  1  0
 16 39  1  0
 17 40  1  0
 23 41  1  0
 24 42  1  0
 25 43  1  0
 26 44  1  0
 27 45  1  0
 29 46  1  0
 29 47  1  0
 29 48  1  0
M  END
$$$$
