
     RDKit          3D

 31 32  0  0  0  0  0  0  0  0999 V2000
    4.6319    0.4726    0.7153 C   0  0  0  0  0  0  0  0  0  0  0  0
    3.1429    0.9234   -0.2161 S   0  0  0  0  0  0  0  0  0  0  0  0
    2.2215   -0.5930   -0.0415 C   0  0  0  0  0  0  0  0  0  0  0  0
    2.6786   -1.7856   -0.6130 C   0  0  0  0  0  0  0  0  0  0  0  0
    1.9336   -2.9588   -0.4836 C   0  0  0  0  0  0  0  0  0  0  0  0
    0.7249   -2.9434    0.2119 C   0  0  0  0  0  0  0  0  0  0  0  0
    0.2666   -1.7555    0.7830 C   0  0  0  0  0  0  0  0  0  0  0  0
   -1.0035   -1.7271    1.4381 N   0  0  0  0  0  0  0  0  0  0  0  0
   -2.3289   -1.2859    0.4623 S   0  0  0  0  0  6  0  0  0  0  0  0
   -3.5211   -1.4609    1.2690 O   0  0  0  0  0  0  0  0  0  0  0  0
   -2.2042   -1.9399   -0.8262 O   0  0  0  0  0  0  0  0  0  0  0  0
   -2.2858    0.4217    0.1126 C   0  0  0  0  0  0  0  0  0  0  0  0
   -2.7560    1.0271   -1.0374 C   0  0  0  0  0  0  0  0  0  0  0  0
   -2.5171    2.3581   -0.8565 N   0  0  0  0  0  0  0  0  0  0  0  0
   -2.8615    3.4166   -1.7720 C   0  0  0  0  0  0  0  0  0  0  0  0
   -1.9218    2.5216    0.3639 C   0  0  0  0  0  0  0  0  0  0  0  0
   -1.7752    1.3736    0.9855 N   0  0  0  0  0  0  0  0  0  0  0  0
    1.0050   -0.5805    0.6477 C   0  0  0  0  0  0  0  0  0  0  0  0
    5.2967    1.3390    0.7677 H   0  0  0  0  0  0  0  0  0  0  0  0
    5.1688   -0.3433    0.2221 H   0  0  0  0  0  0  0  0  0  0  0  0
    4.3700    0.1720    1.7337 H   0  0  0  0  0  0  0  0  0  0  0  0
    3.6070   -1.8081   -1.1787 H   0  0  0  0  0  0  0  0  0  0  0  0
    2.2867   -3.8800   -0.9406 H   0  0  0  0  0  0  0  0  0  0  0  0
    0.1394   -3.8553    0.2826 H   0  0  0  0  0  0  0  0  0  0  0  0
   -1.2501   -2.5888    1.9228 H   0  0  0  0  0  0  0  0  0  0  0  0
   -3.2241    0.6186   -1.9259 H   0  0  0  0  0  0  0  0  0  0  0  0
   -3.1106    4.3161   -1.1997 H   0  0  0  0  0  0  0  0  0  0  0  0
   -2.0027    3.6056   -2.4213 H   0  0  0  0  0  0  0  0  0  0  0  0
   -3.7270    3.1098   -2.3656 H   0  0  0  0  0  0  0  0  0  0  0  0
   -1.6218    3.4879    0.7450 H   0  0  0  0  0  0  0  0  0  0  0  0
    0.6377    0.3426    1.0901 H   0  0  0  0  0  0  0  0  0  0  0  0
  1  2  1  0
  2  3  1  0
  3  4  2  0
  4  5  1  0
  5  6  2  0
  6  7  1  0
  7  8  1  0
  8  9  1  0
  9 10  2  0
  9 11  2  0
  9 12  1  0
 12 13  2  0
 13 14  1  0
 14 15  1  0
 14 16  1  0
 16 17  2  0
  7 18  2  0
 18  3  1  0
 17 12  1  0
  1 19  1  0
  1 20  1  0
  1 21  1  0
  4 22  1  0
  5 23  1  0
  6 24  1  0
  8 25  1  0
 13 26  1  0
 15 27  1  0
 15 28  1  0
 15 29  1  0
 16 30  1  0
 18 31  1  0
M  END
$$$$
