
     RDKit          3D

 60 65  0  0  0  0  0  0  0  0999 V2000
    5.3375   -4.0874   -2.1005 C   0  0  0  0  0  0  0  0  0  0  0  0
    4.0034   -3.9212   -2.5645 O   0  0  0  0  0  0  0  0  0  0  0  0
    3.3170   -2.8386   -2.0888 C   0  0  0  0  0  0  0  0  0  0  0  0
    2.0302   -2.6882   -2.6009 C   0  0  0  0  0  0  0  0  0  0  0  0
    1.2243   -1.6139   -2.2080 C   0  0  0  0  0  0  0  0  0  0  0  0
    1.6747   -0.6732   -1.2703 C   0  0  0  0  0  0  0  0  0  0  0  0
    2.9719   -0.8388   -0.7673 C   0  0  0  0  0  0  0  0  0  0  0  0
    3.7889   -1.9016   -1.1744 C   0  0  0  0  0  0  0  0  0  0  0  0
    3.5569    0.0426    0.1039 O   0  0  0  0  0  0  0  0  0  0  0  0
    2.5987    0.7537    0.8805 C   0  0  0  0  0  0  0  0  0  0  0  0
    1.6183    1.5094   -0.0140 C   0  0  0  0  0  0  0  0  0  0  0  0
    0.8296    0.5308   -0.8931 C   0  0  0  0  0  0  0  0  0  0  0  0
   -0.3765    0.2212   -0.1107 N   0  0  0  0  0  0  0  0  0  0  0  0
   -1.4417   -0.4564   -0.6566 C   0  0  0  0  0  0  0  0  0  0  0  0
   -1.6673   -0.4452   -1.8640 O   0  0  0  0  0  0  0  0  0  0  0  0
   -2.2928   -1.2753    0.2574 C   0  0  0  0  0  0  0  0  0  0  0  0
   -3.3176   -2.0077   -0.3781 C   0  0  0  0  0  0  0  0  0  0  0  0
   -4.1113   -2.9158    0.3230 C   0  0  0  0  0  0  0  0  0  0  0  0
   -3.8858   -3.1324    1.6785 C   0  0  0  0  0  0  0  0  0  0  0  0
   -4.7423   -4.0992    2.4417 C   0  0  0  0  0  0  0  0  0  0  0  0
   -2.8829   -2.3950    2.3217 C   0  0  0  0  0  0  0  0  0  0  0  0
   -2.0891   -1.4501    1.6366 C   0  0  0  0  0  0  0  0  0  0  0  0
   -1.1784   -0.7631    2.4639 N   0  0  0  0  0  0  0  0  0  0  0  0
   -0.4664    0.3868    2.2771 C   0  0  0  0  0  0  0  0  0  0  0  0
    0.1784    0.8083    3.2431 O   0  0  0  0  0  0  0  0  0  0  0  0
   -0.6041    1.1899    0.9728 C   0  0  0  0  0  0  0  0  0  0  0  0
   -1.9963    1.8617    0.9939 C   0  0  0  0  0  0  0  0  0  0  0  0
    0.5508    2.2424    0.8194 C   0  0  0  0  0  0  0  0  0  0  0  0
    0.2165    3.5988    0.1980 C   0  0  0  0  0  0  0  0  0  0  0  0
   -0.3378    3.7446   -1.0828 C   0  0  0  0  0  0  0  0  0  0  0  0
   -0.6102    5.0109   -1.6066 C   0  0  0  0  0  0  0  0  0  0  0  0
   -0.3335    6.1527   -0.8609 C   0  0  0  0  0  0  0  0  0  0  0  0
    0.2154    6.0297    0.4112 C   0  0  0  0  0  0  0  0  0  0  0  0
    0.4893    4.7648    0.9357 C   0  0  0  0  0  0  0  0  0  0  0  0
    5.9639   -3.2342   -2.3821 H   0  0  0  0  0  0  0  0  0  0  0  0
    5.3608   -4.2565   -1.0187 H   0  0  0  0  0  0  0  0  0  0  0  0
    5.7511   -4.9769   -2.5854 H   0  0  0  0  0  0  0  0  0  0  0  0
    1.6519   -3.4030   -3.3281 H   0  0  0  0  0  0  0  0  0  0  0  0
    0.2470   -1.5152   -2.6726 H   0  0  0  0  0  0  0  0  0  0  0  0
    4.7870   -1.9640   -0.7553 H   0  0  0  0  0  0  0  0  0  0  0  0
    3.1544    1.4648    1.5024 H   0  0  0  0  0  0  0  0  0  0  0  0
    2.1125    0.0493    1.5645 H   0  0  0  0  0  0  0  0  0  0  0  0
    2.2052    2.1846   -0.6515 H   0  0  0  0  0  0  0  0  0  0  0  0
    0.5179    1.0256   -1.8200 H   0  0  0  0  0  0  0  0  0  0  0  0
   -3.4924   -1.8904   -1.4477 H   0  0  0  0  0  0  0  0  0  0  0  0
   -4.8907   -3.4621   -0.2045 H   0  0  0  0  0  0  0  0  0  0  0  0
   -5.7166   -3.6477    2.6548 H   0  0  0  0  0  0  0  0  0  0  0  0
   -4.8911   -5.0185    1.8647 H   0  0  0  0  0  0  0  0  0  0  0  0
   -4.2747   -4.3814    3.3913 H   0  0  0  0  0  0  0  0  0  0  0  0
   -2.7370   -2.5515    3.3899 H   0  0  0  0  0  0  0  0  0  0  0  0
   -1.0733   -1.1014    3.4143 H   0  0  0  0  0  0  0  0  0  0  0  0
   -2.0067    2.7076    1.6914 H   0  0  0  0  0  0  0  0  0  0  0  0
   -2.7935    1.1952    1.3347 H   0  0  0  0  0  0  0  0  0  0  0  0
   -2.2974    2.2190    0.0051 H   0  0  0  0  0  0  0  0  0  0  0  0
    0.9751    2.4698    1.8048 H   0  0  0  0  0  0  0  0  0  0  0  0
   -0.5873    2.8816   -1.6946 H   0  0  0  0  0  0  0  0  0  0  0  0
   -1.0419    5.1032   -2.5992 H   0  0  0  0  0  0  0  0  0  0  0  0
   -0.5466    7.1365   -1.2702 H   0  0  0  0  0  0  0  0  0  0  0  0
    0.4329    6.9185    0.9977 H   0  0  0  0  0  0  0  0  0  0  0  0
    0.9219    4.7017    1.9334 H   0  0  0  0  0  0  0  0  0  0  0  0
  1  2  1  0
  2  3  1  0
  3  4  2  0
  4  5  1  0
  5  6  2  0
  6  7  1  0
  7  8  2  0
  7  9  1  0
  9 10  1  0
 10 11  1  0
 11 12  1  0
 12 13  1  0
 13 14  1  0
 14 15  2  0
 14 16  1  0
 16 17  2  0
 17 18  1  0
 18 19  2  0
 19 20  1  0
 19 21  1  0
 21 22  2  0
 22 23  1  0
 23 24  1  0
 24 25  2  0
 24 26  1  0
 26 27  1  0
 26 28  1  0
 28 29  1  0
 29 30  2  0
 30 31  1  0
 31 32  2  0
 32 33  1  0
 33 34  2  0
  8  3  1  0
 28 11  1  0
 34 29  1  0
 12  6  1  0
 26 13  1  0
 22 16  1  0
  1 35  1  0
  1 36  1  0
  1 37  1  0
  4 38  1  0
  5 39  1  0
  8 40  1  0
 10 41  1  0
 10 42  1  0
 11 43  1  0
 12 44  1  0
 17 45  1  0
 18 46  1  0
 20 47  1  0
 20 48  1  0
 20 49  1  0
 21 50  1  0
 23 51  1  0
 27 52  1  0
 27 53  1  0
 27 54  1  0
 28 55  1  0
 30 56  1  0
 31 57  1  0
 32 58  1  0
 33 59  1  0
 34 60  1  0
M  END
$$$$
