
     RDKit          3D

 60 65  0  0  0  0  0  0  0  0999 V2000
   -0.5712   -1.0080    3.2010 O   0  0  0  0  0  0  0  0  0  0  0  0
    0.3765   -1.1908    2.4462 C   0  0  0  0  0  0  0  0  0  0  0  0
    0.2166   -1.5173    1.1024 N   0  0  0  0  0  0  0  0  0  0  0  0
    1.2658   -1.7421    0.2192 C   0  0  0  0  0  0  0  0  0  0  0  0
    0.9250   -2.0516   -1.2389 C   0  0  0  0  0  0  0  0  0  0  0  0
    0.5147   -0.7773   -1.9898 C   0  0  0  0  0  0  0  0  0  0  0  0
   -0.9608   -0.4300   -1.8382 C   0  0  0  0  0  0  0  0  0  0  0  0
   -1.8570   -1.6015   -2.0469 N   0  0  0  0  0  0  0  0  0  0  0  0
   -3.1138   -1.7915   -0.9038 S   0  0  0  0  0  6  0  0  0  0  0  0
   -3.9699   -2.8734   -1.3334 O   0  0  0  0  0  0  0  0  0  0  0  0
   -2.4521   -1.8152    0.3864 O   0  0  0  0  0  0  0  0  0  0  0  0
   -4.0238   -0.2819   -1.0654 C   0  0  0  0  0  0  0  0  0  0  0  0
   -4.6791   -0.0140   -2.2729 C   0  0  0  0  0  0  0  0  0  0  0  0
   -5.3961    1.1740   -2.4160 C   0  0  0  0  0  0  0  0  0  0  0  0
   -5.4587    2.0782   -1.3559 C   0  0  0  0  0  0  0  0  0  0  0  0
   -4.7838    1.8101   -0.1581 C   0  0  0  0  0  0  0  0  0  0  0  0
   -4.0783    0.6199   -0.0001 C   0  0  0  0  0  0  0  0  0  0  0  0
   -4.7785    2.6712    0.9087 O   0  0  0  0  0  0  0  0  0  0  0  0
   -5.2409    3.9749    0.5366 C   0  0  0  0  0  0  0  0  0  0  0  0
   -6.4890    3.8777   -0.3250 C   0  0  0  0  0  0  0  0  0  0  0  0
   -6.1973    3.2153   -1.5616 O   0  0  0  0  0  0  0  0  0  0  0  0
   -1.1649   -2.8600   -2.4194 C   0  0  0  0  0  0  0  0  0  0  0  0
   -0.0760   -3.1996   -1.4103 C   0  0  0  0  0  0  0  0  0  0  0  0
    2.5273   -1.6548    0.5500 N   0  0  0  0  0  0  0  0  0  0  0  0
    2.7121   -1.3303    1.8525 C   0  0  0  0  0  0  0  0  0  0  0  0
    1.7622   -1.0944    2.8153 C   0  0  0  0  0  0  0  0  0  0  0  0
    2.3497   -0.8008    4.0073 N   0  0  0  0  0  0  0  0  0  0  0  0
    3.6691   -0.8433    3.8199 N   0  0  0  0  0  0  0  0  0  0  0  0
    3.8905   -1.1460    2.5169 N   0  0  0  0  0  0  0  0  0  0  0  0
    5.2371   -1.2850    2.0055 C   0  0  0  0  0  0  0  0  0  0  0  0
    5.7374    0.0076    1.4100 C   0  0  0  0  0  0  0  0  0  0  0  0
    5.5903    0.2670    0.0371 C   0  0  0  0  0  0  0  0  0  0  0  0
    6.0424    1.4697   -0.5129 C   0  0  0  0  0  0  0  0  0  0  0  0
    6.6415    2.4264    0.3042 C   0  0  0  0  0  0  0  0  0  0  0  0
    6.7790    2.1760    1.6640 C   0  0  0  0  0  0  0  0  0  0  0  0
    7.3507    3.0987    2.4488 F   0  0  0  0  0  0  0  0  0  0  0  0
    6.3321    0.9830    2.2235 C   0  0  0  0  0  0  0  0  0  0  0  0
   -0.7582   -1.6464    0.8344 H   0  0  0  0  0  0  0  0  0  0  0  0
    1.8705   -2.3833   -1.6938 H   0  0  0  0  0  0  0  0  0  0  0  0
    0.7324   -0.9175   -3.0571 H   0  0  0  0  0  0  0  0  0  0  0  0
    1.1234    0.0768   -1.6683 H   0  0  0  0  0  0  0  0  0  0  0  0
   -1.2314    0.3355   -2.5745 H   0  0  0  0  0  0  0  0  0  0  0  0
   -1.1170    0.0191   -0.8525 H   0  0  0  0  0  0  0  0  0  0  0  0
   -4.6385   -0.7266   -3.0942 H   0  0  0  0  0  0  0  0  0  0  0  0
   -5.9175    1.3900   -3.3449 H   0  0  0  0  0  0  0  0  0  0  0  0
   -3.5760    0.4135    0.9421 H   0  0  0  0  0  0  0  0  0  0  0  0
   -4.4301    4.4941    0.0108 H   0  0  0  0  0  0  0  0  0  0  0  0
   -5.4583    4.5251    1.4575 H   0  0  0  0  0  0  0  0  0  0  0  0
   -6.8622    4.8782   -0.5651 H   0  0  0  0  0  0  0  0  0  0  0  0
   -7.2889    3.3275    0.1858 H   0  0  0  0  0  0  0  0  0  0  0  0
   -0.7412   -2.7412   -3.4243 H   0  0  0  0  0  0  0  0  0  0  0  0
   -1.8763   -3.6884   -2.5026 H   0  0  0  0  0  0  0  0  0  0  0  0
    0.4603   -4.0899   -1.7630 H   0  0  0  0  0  0  0  0  0  0  0  0
   -0.5250   -3.4964   -0.4567 H   0  0  0  0  0  0  0  0  0  0  0  0
    5.2381   -2.0888    1.2603 H   0  0  0  0  0  0  0  0  0  0  0  0
    5.8848   -1.6125    2.8274 H   0  0  0  0  0  0  0  0  0  0  0  0
    5.1147   -0.4664   -0.6127 H   0  0  0  0  0  0  0  0  0  0  0  0
    5.9244    1.6606   -1.5766 H   0  0  0  0  0  0  0  0  0  0  0  0
    6.9973    3.3658   -0.1069 H   0  0  0  0  0  0  0  0  0  0  0  0
    6.4456    0.8303    3.2940 H   0  0  0  0  0  0  0  0  0  0  0  0
  1  2  2  0
  2  3  1  0
  3  4  1  0
  4  5  1  0
  5  6  1  0
  6  7  1  0
  7  8  1  0
  8  9  1  0
  9 10  2  0
  9 11  2  0
  9 12  1  0
 12 13  2  0
 13 14  1  0
 14 15  2  0
 15 16  1  0
 16 17  2  0
 16 18  1  0
 18 19  1  0
 19 20  1  0
 20 21  1  0
  8 22  1  0
 22 23  1  0
  4 24  2  0
 24 25  1  0
 25 26  2  0
 26 27  1  0
 27 28  2  0
 28 29  1  0
 29 30  1  0
 30 31  1  0
 31 32  2  0
 32 33  1  0
 33 34  2  0
 34 35  1  0
 35 36  1  0
 35 37  2  0
 26  2  1  0
 37 31  1  0
 23  5  1  0
 29 25  1  0
 17 12  1  0
 21 15  1  0
  3 38  1  0
  5 39  1  0
  6 40  1  0
  6 41  1  0
  7 42  1  0
  7 43  1  0
 13 44  1  0
 14 45  1  0
 17 46  1  0
 19 47  1  0
 19 48  1  0
 20 49  1  0
 20 50  1  0
 22 51  1  0
 22 52  1  0
 23 53  1  0
 23 54  1  0
 30 55  1  0
 30 56  1  0
 32 57  1  0
 33 58  1  0
 34 59  1  0
 37 60  1  0
M  END
$$$$
