
     RDKit          3D

 57 59  0  0  0  0  0  0  0  0999 V2000
   -1.3382   -3.3123   -0.0102 C   0  0  0  0  0  0  0  0  0  0  0  0
   -2.3826   -2.2533    0.3328 C   0  0  0  0  0  0  0  0  0  0  0  0
   -2.6025   -1.1974   -0.6718 N   0  0  0  0  0  0  0  0  0  0  0  0
   -3.0140   -1.7037   -1.9915 C   0  0  0  0  0  0  0  0  0  0  0  0
   -4.2883   -2.5434   -1.9601 C   0  0  0  0  0  0  0  0  0  0  0  0
   -1.4344   -0.2987   -0.7634 C   0  0  0  0  0  0  0  0  0  0  0  0
   -1.7074    1.0195   -1.5099 C   0  0  0  0  0  0  0  0  0  0  0  0
   -0.6134    1.9276   -1.3443 O   0  0  0  0  0  0  0  0  0  0  0  0
   -0.5791    2.7714   -0.2646 C   0  0  0  0  0  0  0  0  0  0  0  0
   -1.5083    2.8787    0.7140 C   0  0  0  0  0  0  0  0  0  0  0  0
   -1.2775    3.8911    1.8012 C   0  0  2  0  0  0  0  0  0  0  0  0
   -2.4488    4.3094    2.4839 O   0  0  0  0  0  0  0  0  0  0  0  0
   -2.0956    5.4526    3.1673 C   0  0  0  0  0  0  0  0  0  0  0  0
   -2.7916    5.9627    4.0294 O   0  0  0  0  0  0  0  0  0  0  0  0
   -0.5452    6.1602    2.6575 S   0  0  0  0  0  0  0  0  0  0  0  0
   -0.6466    5.1486    1.1929 C   0  0  1  0  0  0  0  0  0  0  0  0
    0.6044    4.7989    0.4667 C   0  0  0  0  0  0  0  0  0  0  0  0
    0.6197    3.6350   -0.2247 C   0  0  0  0  0  0  0  0  0  0  0  0
    1.8678    3.3208   -0.9878 C   0  0  0  0  0  0  0  0  0  0  0  0
    2.4608    4.1847   -1.6305 O   0  0  0  0  0  0  0  0  0  0  0  0
    2.4126    1.9353   -0.9539 C   0  0  0  0  0  0  0  0  0  0  0  0
    2.2495    1.0868    0.0737 C   0  0  0  0  0  0  0  0  0  0  0  0
    2.7845   -0.2829    0.1217 C   0  0  0  0  0  0  0  0  0  0  0  0
    2.1295   -1.2305    0.9203 C   0  0  0  0  0  0  0  0  0  0  0  0
    2.6034   -2.5453    1.0189 C   0  0  0  0  0  0  0  0  0  0  0  0
    3.7488   -2.9300    0.3259 C   0  0  0  0  0  0  0  0  0  0  0  0
    4.3140   -4.1743    0.3305 O   0  0  0  0  0  0  0  0  0  0  0  0
    3.6806   -5.1666    1.1276 C   0  0  0  0  0  0  0  0  0  0  0  0
    4.4163   -1.9867   -0.4565 C   0  0  0  0  0  0  0  0  0  0  0  0
    3.9448   -0.6730   -0.5548 C   0  0  0  0  0  0  0  0  0  0  0  0
   -1.6330   -3.9063   -0.8800 H   0  0  0  0  0  0  0  0  0  0  0  0
   -0.3592   -2.8695   -0.2103 H   0  0  0  0  0  0  0  0  0  0  0  0
   -1.2214   -4.0019    0.8325 H   0  0  0  0  0  0  0  0  0  0  0  0
   -3.3347   -2.7521    0.5496 H   0  0  0  0  0  0  0  0  0  0  0  0
   -2.1025   -1.7835    1.2847 H   0  0  0  0  0  0  0  0  0  0  0  0
   -2.2089   -2.2757   -2.4679 H   0  0  0  0  0  0  0  0  0  0  0  0
   -3.2283   -0.8568   -2.6521 H   0  0  0  0  0  0  0  0  0  0  0  0
   -5.1008   -2.0093   -1.4559 H   0  0  0  0  0  0  0  0  0  0  0  0
   -4.6154   -2.7603   -2.9829 H   0  0  0  0  0  0  0  0  0  0  0  0
   -4.1351   -3.5028   -1.4568 H   0  0  0  0  0  0  0  0  0  0  0  0
   -1.1006   -0.0422    0.2499 H   0  0  0  0  0  0  0  0  0  0  0  0
   -0.5799   -0.8005   -1.2353 H   0  0  0  0  0  0  0  0  0  0  0  0
   -1.7700    0.8209   -2.5855 H   0  0  0  0  0  0  0  0  0  0  0  0
   -2.6619    1.4778   -1.2278 H   0  0  0  0  0  0  0  0  0  0  0  0
   -2.3949    2.2607    0.7749 H   0  0  0  0  0  0  0  0  0  0  0  0
   -0.6272    3.3948    2.5416 H   0  0  0  0  0  0  0  0  0  0  0  0
   -1.3352    5.6567    0.5042 H   0  0  0  0  0  0  0  0  0  0  0  0
    1.4495    5.4816    0.4593 H   0  0  0  0  0  0  0  0  0  0  0  0
    3.0004    1.6842   -1.8301 H   0  0  0  0  0  0  0  0  0  0  0  0
    1.6815    1.3852    0.9508 H   0  0  0  0  0  0  0  0  0  0  0  0
    1.2320   -0.9603    1.4726 H   0  0  0  0  0  0  0  0  0  0  0  0
    2.0530   -3.2400    1.6443 H   0  0  0  0  0  0  0  0  0  0  0  0
    3.6871   -4.8860    2.1861 H   0  0  0  0  0  0  0  0  0  0  0  0
    2.6621   -5.3641    0.7769 H   0  0  0  0  0  0  0  0  0  0  0  0
    4.2533   -6.0935    1.0250 H   0  0  0  0  0  0  0  0  0  0  0  0
    5.3178   -2.2744   -0.9928 H   0  0  0  0  0  0  0  0  0  0  0  0
    4.5092    0.0323   -1.1596 H   0  0  0  0  0  0  0  0  0  0  0  0
  1  2  1  0
  2  3  1  0
  3  4  1  0
  4  5  1  0
  3  6  1  0
  6  7  1  0
  7  8  1  0
  8  9  1  0
  9 10  2  0
 10 11  1  0
 11 12  1  0
 12 13  1  0
 13 14  2  0
 13 15  1  0
 15 16  1  0
 16 17  1  0
 17 18  2  0
 18 19  1  0
 19 20  2  0
 19 21  1  0
 21 22  2  0
 22 23  1  0
 23 24  2  0
 24 25  1  0
 25 26  2  0
 26 27  1  0
 27 28  1  0
 26 29  1  0
 29 30  2  0
 18  9  1  0
 30 23  1  0
 16 11  1  0
  1 31  1  0
  1 32  1  0
  1 33  1  0
  2 34  1  0
  2 35  1  0
  4 36  1  0
  4 37  1  0
  5 38  1  0
  5 39  1  0
  5 40  1  0
  6 41  1  0
  6 42  1  0
  7 43  1  0
  7 44  1  0
 10 45  1  0
 11 46  1  1
 16 47  1  6
 17 48  1  0
 21 49  1  0
 22 50  1  0
 24 51  1  0
 25 52  1  0
 28 53  1  0
 28 54  1  0
 28 55  1  0
 29 56  1  0
 30 57  1  0
M  END
$$$$
