
     RDKit          3D

 57 61  0  0  0  0  0  0  0  0999 V2000
   -0.2389   -0.9845    1.1736 O   0  0  0  0  0  0  0  0  0  0  0  0
   -0.0261   -0.9282   -0.2508 C   0  0  0  0  0  0  0  0  0  0  0  0
    1.4905   -0.8310   -0.5121 C   0  0  0  0  0  0  0  0  0  0  0  0
    2.0301    0.3206    0.1940 N   0  0  0  0  0  0  0  0  0  0  0  0
    3.3774    0.5971    0.2145 C   0  0  0  0  0  0  0  0  0  0  0  0
    4.1732   -0.0046   -0.6295 N   0  0  0  0  0  0  0  0  0  0  0  0
    5.5580    0.2630   -0.6117 C   0  0  0  0  0  0  0  0  0  0  0  0
    6.3736   -0.3997   -1.5308 C   0  0  0  0  0  0  0  0  0  0  0  0
    7.7530   -0.1755   -1.5525 C   0  0  0  0  0  0  0  0  0  0  0  0
    8.3320    0.7182   -0.6506 C   0  0  0  0  0  0  0  0  0  0  0  0
    7.5370    1.3931    0.2765 C   0  0  0  0  0  0  0  0  0  0  0  0
    6.1589    1.1586    0.2865 C   0  0  0  0  0  0  0  0  0  0  0  0
    5.2861    1.7963    1.1836 N   0  0  0  0  0  0  0  0  0  0  0  0
    5.5556    2.7141    2.1707 C   0  0  0  0  0  0  0  0  0  0  0  0
    4.3655    3.0569    2.7768 C   0  0  0  0  0  0  0  0  0  0  0  0
    3.3400    2.3192    2.1390 C   0  0  0  0  0  0  0  0  0  0  0  0
    3.9340    1.5405    1.1622 C   0  0  0  0  0  0  0  0  0  0  0  0
   -0.6105   -2.1772   -0.9592 C   0  0  0  0  0  0  0  0  0  0  0  0
   -2.0725   -2.3318   -1.0159 N   0  0  0  0  0  0  0  0  0  0  0  0
   -2.7486   -2.3706    0.2936 C   0  0  0  0  0  0  0  0  0  0  0  0
   -3.5176   -1.0872    0.6919 C   0  0  0  0  0  0  0  0  0  0  0  0
   -4.5028   -0.7173   -0.3405 N   0  0  0  0  0  0  0  0  0  0  0  0
   -5.6465   -0.0026   -0.0261 C   0  0  0  0  0  0  0  0  0  0  0  0
   -5.7311    0.7844    1.1348 C   0  0  0  0  0  0  0  0  0  0  0  0
   -6.8825    1.5132    1.4585 C   0  0  0  0  0  0  0  0  0  0  0  0
   -7.9906    1.4721    0.6222 C   0  0  0  0  0  0  0  0  0  0  0  0
   -7.9413    0.7048   -0.5347 C   0  0  0  0  0  0  0  0  0  0  0  0
   -6.7840   -0.0187   -0.8499 C   0  0  0  0  0  0  0  0  0  0  0  0
   -4.2384   -1.2021   -1.7041 C   0  0  0  0  0  0  0  0  0  0  0  0
   -2.7178   -1.3751   -1.9369 C   0  0  0  0  0  0  0  0  0  0  0  0
    0.1825   -1.8008    1.4978 H   0  0  0  0  0  0  0  0  0  0  0  0
   -0.5071   -0.0119   -0.6073 H   0  0  0  0  0  0  0  0  0  0  0  0
    1.9845   -1.7371   -0.1410 H   0  0  0  0  0  0  0  0  0  0  0  0
    1.6835   -0.7402   -1.5867 H   0  0  0  0  0  0  0  0  0  0  0  0
    1.5128    0.5607    1.0346 H   0  0  0  0  0  0  0  0  0  0  0  0
    5.9264   -1.0959   -2.2352 H   0  0  0  0  0  0  0  0  0  0  0  0
    8.3740   -0.6993   -2.2750 H   0  0  0  0  0  0  0  0  0  0  0  0
    9.4057    0.8893   -0.6723 H   0  0  0  0  0  0  0  0  0  0  0  0
    8.0091    2.0842    0.9664 H   0  0  0  0  0  0  0  0  0  0  0  0
    6.5597    3.0598    2.3687 H   0  0  0  0  0  0  0  0  0  0  0  0
    4.2501    3.7646    3.5879 H   0  0  0  0  0  0  0  0  0  0  0  0
    2.2833    2.3583    2.3683 H   0  0  0  0  0  0  0  0  0  0  0  0
   -0.2313   -2.2148   -1.9888 H   0  0  0  0  0  0  0  0  0  0  0  0
   -0.2119   -3.0734   -0.4655 H   0  0  0  0  0  0  0  0  0  0  0  0
   -2.0677   -2.6731    1.0966 H   0  0  0  0  0  0  0  0  0  0  0  0
   -3.4836   -3.1853    0.2349 H   0  0  0  0  0  0  0  0  0  0  0  0
   -4.0157   -1.2918    1.6474 H   0  0  0  0  0  0  0  0  0  0  0  0
   -2.8212   -0.2547    0.8414 H   0  0  0  0  0  0  0  0  0  0  0  0
   -4.8814    0.8662    1.8068 H   0  0  0  0  0  0  0  0  0  0  0  0
   -6.9043    2.1141    2.3635 H   0  0  0  0  0  0  0  0  0  0  0  0
   -8.8863    2.0344    0.8697 H   0  0  0  0  0  0  0  0  0  0  0  0
   -8.8026    0.6596   -1.1955 H   0  0  0  0  0  0  0  0  0  0  0  0
   -6.8019   -0.6214   -1.7533 H   0  0  0  0  0  0  0  0  0  0  0  0
   -4.6021   -0.4853   -2.4501 H   0  0  0  0  0  0  0  0  0  0  0  0
   -4.7560   -2.1555   -1.8657 H   0  0  0  0  0  0  0  0  0  0  0  0
   -2.5537   -1.7149   -2.9661 H   0  0  0  0  0  0  0  0  0  0  0  0
   -2.2607   -0.3821   -1.8510 H   0  0  0  0  0  0  0  0  0  0  0  0
  1  2  1  0
  2  3  1  0
  3  4  1  0
  4  5  1  0
  5  6  2  0
  6  7  1  0
  7  8  2  0
  8  9  1  0
  9 10  2  0
 10 11  1  0
 11 12  2  0
 12 13  1  0
 13 14  1  0
 14 15  2  0
 15 16  1  0
 16 17  2  0
  2 18  1  0
 18 19  1  0
 19 20  1  0
 20 21  1  0
 21 22  1  0
 22 23  1  0
 23 24  2  0
 24 25  1  0
 25 26  2  0
 26 27  1  0
 27 28  2  0
 22 29  1  0
 29 30  1  0
 17  5  1  0
 30 19  1  0
 12  7  1  0
 17 13  1  0
 28 23  1  0
  1 31  1  0
  2 32  1  0
  3 33  1  0
  3 34  1  0
  4 35  1  0
  8 36  1  0
  9 37  1  0
 10 38  1  0
 11 39  1  0
 14 40  1  0
 15 41  1  0
 16 42  1  0
 18 43  1  0
 18 44  1  0
 20 45  1  0
 20 46  1  0
 21 47  1  0
 21 48  1  0
 24 49  1  0
 25 50  1  0
 26 51  1  0
 27 52  1  0
 28 53  1  0
 29 54  1  0
 29 55  1  0
 30 56  1  0
 30 57  1  0
M  END
$$$$
