
     RDKit          3D

 88 93  0  0  0  0  0  0  0  0999 V2000
    2.6562   -0.2475   -1.7735 C   0  0  0  0  0  0  0  0  0  0  0  0
    2.4336   -1.1997   -0.6398 C   0  0  0  0  0  0  0  0  0  0  0  0
    2.7198   -2.3870   -0.6661 O   0  0  0  0  0  0  0  0  0  0  0  0
    1.8455   -0.5460    0.3985 O   0  0  0  0  0  0  0  0  0  0  0  0
    1.6168   -1.3131    1.5946 C   0  0  1  0  0  0  0  0  0  0  0  0
    1.7524   -0.4074    2.8424 C   0  0  1  0  0  0  0  0  0  0  0  0
    2.6386    0.8225    2.6399 C   0  0  0  0  0  0  0  0  0  0  0  0
    3.9252    0.3806    2.1835 O   0  0  0  0  0  0  0  0  0  0  0  0
    4.6732    1.3324    1.5726 C   0  0  0  0  0  0  0  0  0  0  0  0
    4.3861    2.5149    1.4757 O   0  0  0  0  0  0  0  0  0  0  0  0
    5.9037    0.7307    0.9918 C   0  0  0  0  0  0  0  0  0  0  0  0
    6.1677   -0.6444    1.0506 C   0  0  0  0  0  0  0  0  0  0  0  0
    7.3298   -1.1607    0.4728 C   0  0  0  0  0  0  0  0  0  0  0  0
    8.2305   -0.3108   -0.1679 C   0  0  0  0  0  0  0  0  0  0  0  0
    7.9732    1.0575   -0.2328 C   0  0  0  0  0  0  0  0  0  0  0  0
    6.8132    1.5780    0.3445 C   0  0  0  0  0  0  0  0  0  0  0  0
    0.3139   -0.0408    3.2810 C   0  0  0  0  0  0  0  0  0  0  0  0
   -0.6282   -0.5321    2.1499 C   0  0  2  0  0  0  0  0  0  0  0  0
   -0.6336    0.4532    1.1049 O   0  0  0  0  0  0  0  0  0  0  0  0
   -1.2382    1.6418    1.3464 C   0  0  0  0  0  0  0  0  0  0  0  0
   -1.7888    1.9866    2.3756 O   0  0  0  0  0  0  0  0  0  0  0  0
   -1.1360    2.4470    0.1153 C   0  0  0  0  0  0  0  0  0  0  0  0
   -1.8447    3.5781   -0.0080 C   0  0  0  0  0  0  0  0  0  0  0  0
   -1.8070    4.4326   -1.2003 C   0  0  0  0  0  0  0  0  0  0  0  0
   -1.7901    3.9063   -2.4982 C   0  0  0  0  0  0  0  0  0  0  0  0
   -1.7850    4.7555   -3.6077 C   0  0  0  0  0  0  0  0  0  0  0  0
   -1.8036    6.1378   -3.4312 C   0  0  0  0  0  0  0  0  0  0  0  0
   -1.8340    6.6712   -2.1451 C   0  0  0  0  0  0  0  0  0  0  0  0
   -1.8422    5.8226   -1.0360 C   0  0  0  0  0  0  0  0  0  0  0  0
   -2.0030   -1.0237    2.6874 C   0  0  0  0  0  0  0  0  0  0  0  0
   -2.0472   -1.7058    3.7195 O   0  0  0  0  0  0  0  0  0  0  0  0
   -3.3239   -0.6656    2.0328 C   0  0  0  0  0  0  0  0  0  0  0  0
   -4.3452   -0.3251    3.1015 C   0  0  0  0  0  0  0  0  0  0  0  0
   -3.7094   -0.6240    0.7374 C   0  0  0  0  0  0  0  0  0  0  0  0
   -3.0482   -0.8908   -0.5561 C   0  0  0  0  0  0  0  0  0  0  0  0
   -3.1100   -2.2457   -1.2535 C   0  0  2  0  0  0  0  0  0  0  0  0
   -1.9609   -2.8068   -2.0714 C   0  0  0  0  0  0  0  0  0  0  0  0
   -1.2307   -4.0129   -1.4415 C   0  0  0  0  0  0  0  0  0  0  0  0
   -0.5599   -3.7662   -0.1022 C   0  0  2  0  0  0  0  0  0  0  0  0
    0.2668   -4.8807    0.4542 C   0  0  0  0  0  0  0  0  0  0  0  0
   -1.4967   -3.2239    0.8143 O   0  0  0  0  0  0  0  0  0  0  0  0
   -0.4102   -2.3494    0.4404 C   0  0  1  0  0  0  0  0  0  0  0  0
    0.1708   -1.7964    1.6890 C   0  0  1  0  0  0  0  0  0  0  0  0
   -3.9240   -1.0860   -1.8015 C   0  0  0  0  0  0  0  0  0  0  0  0
   -3.4846   -0.3551   -3.0501 C   0  0  0  0  0  0  0  0  0  0  0  0
   -5.4264   -1.2437   -1.7205 C   0  0  0  0  0  0  0  0  0  0  0  0
    1.6940    0.0657   -2.1846 H   0  0  0  0  0  0  0  0  0  0  0  0
    3.2334   -0.7430   -2.5594 H   0  0  0  0  0  0  0  0  0  0  0  0
    3.2221    0.6201   -1.4243 H   0  0  0  0  0  0  0  0  0  0  0  0
    2.3256   -2.1467    1.6615 H   0  0  0  0  0  0  0  0  0  0  0  0
    2.1969   -1.0164    3.6431 H   0  0  0  0  0  0  0  0  0  0  0  0
    2.7689    1.3547    3.5901 H   0  0  0  0  0  0  0  0  0  0  0  0
    2.1791    1.5082    1.9161 H   0  0  0  0  0  0  0  0  0  0  0  0
    5.4775   -1.3294    1.5377 H   0  0  0  0  0  0  0  0  0  0  0  0
    7.5293   -2.2292    0.5197 H   0  0  0  0  0  0  0  0  0  0  0  0
    9.1328   -0.7166   -0.6194 H   0  0  0  0  0  0  0  0  0  0  0  0
    8.6754    1.7202   -0.7326 H   0  0  0  0  0  0  0  0  0  0  0  0
    6.6210    2.6486    0.2880 H   0  0  0  0  0  0  0  0  0  0  0  0
    0.2253    1.0314    3.4855 H   0  0  0  0  0  0  0  0  0  0  0  0
    0.0980   -0.5552    4.2265 H   0  0  0  0  0  0  0  0  0  0  0  0
   -0.4772    2.0834   -0.6612 H   0  0  0  0  0  0  0  0  0  0  0  0
   -2.4794    3.9249    0.8047 H   0  0  0  0  0  0  0  0  0  0  0  0
   -1.7977    2.8318   -2.6647 H   0  0  0  0  0  0  0  0  0  0  0  0
   -1.7723    4.3380   -4.6119 H   0  0  0  0  0  0  0  0  0  0  0  0
   -1.7947    6.7991   -4.2944 H   0  0  0  0  0  0  0  0  0  0  0  0
   -1.8467    7.7499   -2.0029 H   0  0  0  0  0  0  0  0  0  0  0  0
   -1.8628    6.2622   -0.0396 H   0  0  0  0  0  0  0  0  0  0  0  0
   -5.2486    0.1386    2.6910 H   0  0  0  0  0  0  0  0  0  0  0  0
   -3.9250    0.3856    3.8214 H   0  0  0  0  0  0  0  0  0  0  0  0
   -4.6513   -1.2283    3.6394 H   0  0  0  0  0  0  0  0  0  0  0  0
   -4.7416   -0.2957    0.6059 H   0  0  0  0  0  0  0  0  0  0  0  0
   -2.1772   -0.2689   -0.7215 H   0  0  0  0  0  0  0  0  0  0  0  0
   -3.6592   -3.0437   -0.7602 H   0  0  0  0  0  0  0  0  0  0  0  0
   -1.2317   -2.0225   -2.3064 H   0  0  0  0  0  0  0  0  0  0  0  0
   -2.3715   -3.1414   -3.0335 H   0  0  0  0  0  0  0  0  0  0  0  0
   -0.4676   -4.3562   -2.1514 H   0  0  0  0  0  0  0  0  0  0  0  0
   -1.9448   -4.8379   -1.3217 H   0  0  0  0  0  0  0  0  0  0  0  0
    1.1236   -5.0782   -0.1958 H   0  0  0  0  0  0  0  0  0  0  0  0
   -0.3295   -5.7953    0.5261 H   0  0  0  0  0  0  0  0  0  0  0  0
    0.6507   -4.6543    1.4554 H   0  0  0  0  0  0  0  0  0  0  0  0
   -0.5181   -1.5741   -0.3027 H   0  0  0  0  0  0  0  0  0  0  0  0
    0.1278   -2.5558    2.4843 H   0  0  0  0  0  0  0  0  0  0  0  0
   -3.7222   -0.9449   -3.9410 H   0  0  0  0  0  0  0  0  0  0  0  0
   -4.0037    0.6060   -3.1264 H   0  0  0  0  0  0  0  0  0  0  0  0
   -2.4107   -0.1427   -3.0577 H   0  0  0  0  0  0  0  0  0  0  0  0
   -5.8062   -1.7202   -2.6304 H   0  0  0  0  0  0  0  0  0  0  0  0
   -5.9073   -0.2656   -1.6227 H   0  0  0  0  0  0  0  0  0  0  0  0
   -5.7398   -1.8642   -0.8742 H   0  0  0  0  0  0  0  0  0  0  0  0
  1  2  1  0
  2  3  2  0
  2  4  1  0
  4  5  1  0
  5  6  1  0
  6  7  1  0
  7  8  1  0
  8  9  1  0
  9 10  2  0
  9 11  1  0
 11 12  2  0
 12 13  1  0
 13 14  2  0
 14 15  1  0
 15 16  2  0
  6 17  1  0
 17 18  1  0
 18 19  1  6
 19 20  1  0
 20 21  2  0
 20 22  1  0
 22 23  2  0
 23 24  1  0
 24 25  2  0
 25 26  1  0
 26 27  2  0
 27 28  1  0
 28 29  2  0
 18 30  1  0
 30 31  2  0
 30 32  1  0
 32 33  1  0
 32 34  2  3
 34 35  1  0
 35 36  1  0
 36 37  1  0
 37 38  1  0
 38 39  1  0
 39 40  1  1
 39 41  1  0
 41 42  1  0
 42 43  1  0
 36 44  1  0
 44 45  1  0
 44 46  1  0
 43  5  1  0
 16 11  1  0
 43 18  1  0
 29 24  1  0
 44 35  1  0
 42 39  1  0
  1 47  1  0
  1 48  1  0
  1 49  1  0
  5 50  1  1
  6 51  1  1
  7 52  1  0
  7 53  1  0
 12 54  1  0
 13 55  1  0
 14 56  1  0
 15 57  1  0
 16 58  1  0
 17 59  1  0
 17 60  1  0
 22 61  1  0
 23 62  1  0
 25 63  1  0
 26 64  1  0
 27 65  1  0
 28 66  1  0
 29 67  1  0
 33 68  1  0
 33 69  1  0
 33 70  1  0
 34 71  1  0
 35 72  1  0
 36 73  1  1
 37 74  1  0
 37 75  1  0
 38 76  1  0
 38 77  1  0
 40 78  1  0
 40 79  1  0
 40 80  1  0
 42 81  1  6
 43 82  1  1
 45 83  1  0
 45 84  1  0
 45 85  1  0
 46 86  1  0
 46 87  1  0
 46 88  1  0
M  END
$$$$
