
     RDKit          3D

 50 53  0  0  0  0  0  0  0  0999 V2000
   -0.8260    3.3333    3.2523 C   0  0  0  0  0  0  0  0  0  0  0  0
   -1.1520    1.9895    2.6188 C   0  0  0  0  0  0  0  0  0  0  0  0
   -0.6938    1.9030    1.1701 C   0  0  0  0  0  0  0  0  0  0  0  0
   -0.1014    2.8456    0.6405 O   0  0  0  0  0  0  0  0  0  0  0  0
   -0.9540    0.7206    0.4860 N   0  0  0  0  0  0  0  0  0  0  0  0
   -1.6780   -0.4268    1.0432 C   0  0  0  0  0  0  0  0  0  0  0  0
   -3.0233   -0.6464    0.3895 C   0  0  0  0  0  0  0  0  0  0  0  0
   -3.2820   -1.8314   -0.3126 C   0  0  0  0  0  0  0  0  0  0  0  0
   -4.5240   -2.0467   -0.9149 C   0  0  0  0  0  0  0  0  0  0  0  0
   -5.5364   -1.0870   -0.8167 C   0  0  0  0  0  0  0  0  0  0  0  0
   -6.8575   -1.3032   -1.4929 C   0  0  0  0  0  0  0  0  0  0  0  0
   -5.2771    0.1039   -0.1307 C   0  0  0  0  0  0  0  0  0  0  0  0
   -4.0344    0.3205    0.4707 C   0  0  0  0  0  0  0  0  0  0  0  0
   -0.4545    0.5898   -0.8875 C   0  0  0  0  0  0  0  0  0  0  0  0
    0.9321    0.0064   -0.8915 C   0  0  0  0  0  0  0  0  0  0  0  0
    2.0420    0.7570   -0.7638 C   0  0  0  0  0  0  0  0  0  0  0  0
    3.3749    0.1587   -0.8059 C   0  0  0  0  0  0  0  0  0  0  0  0
    4.5259    0.9383   -0.6479 C   0  0  0  0  0  0  0  0  0  0  0  0
    5.7450    0.2949   -0.7040 C   0  0  0  0  0  0  0  0  0  0  0  0
    5.8445   -1.0629   -0.9079 C   0  0  0  0  0  0  0  0  0  0  0  0
    4.7320   -1.8610   -1.0679 C   0  0  0  0  0  0  0  0  0  0  0  0
    3.4864   -1.2328   -1.0139 C   0  0  0  0  0  0  0  0  0  0  0  0
    2.3197   -1.9897   -1.1686 N   0  0  0  0  0  0  0  0  0  0  0  0
    1.0557   -1.4636   -1.1256 C   0  0  0  0  0  0  0  0  0  0  0  0
    0.0731   -2.1853   -1.2707 O   0  0  0  0  0  0  0  0  0  0  0  0
    7.1357   -1.4902   -0.9290 O   0  0  0  0  0  0  0  0  0  0  0  0
    7.8385   -0.2477   -0.7153 C   0  0  0  0  0  0  0  0  0  0  0  0
    6.9614    0.8888   -0.5718 O   0  0  0  0  0  0  0  0  0  0  0  0
    0.2527    3.5209    3.2433 H   0  0  0  0  0  0  0  0  0  0  0  0
   -1.3149    4.1510    2.7125 H   0  0  0  0  0  0  0  0  0  0  0  0
   -1.1677    3.3567    4.2916 H   0  0  0  0  0  0  0  0  0  0  0  0
   -0.6490    1.2036    3.1924 H   0  0  0  0  0  0  0  0  0  0  0  0
   -2.2341    1.8369    2.6649 H   0  0  0  0  0  0  0  0  0  0  0  0
   -1.0398   -1.3102    0.9366 H   0  0  0  0  0  0  0  0  0  0  0  0
   -1.8439   -0.3177    2.1178 H   0  0  0  0  0  0  0  0  0  0  0  0
   -2.5095   -2.5929   -0.4107 H   0  0  0  0  0  0  0  0  0  0  0  0
   -4.6923   -2.9696   -1.4659 H   0  0  0  0  0  0  0  0  0  0  0  0
   -7.6637   -0.8083   -0.9411 H   0  0  0  0  0  0  0  0  0  0  0  0
   -6.8270   -0.9038   -2.5113 H   0  0  0  0  0  0  0  0  0  0  0  0
   -7.1034   -2.3691   -1.5377 H   0  0  0  0  0  0  0  0  0  0  0  0
   -6.0413    0.8749   -0.0630 H   0  0  0  0  0  0  0  0  0  0  0  0
   -3.8613    1.2571    0.9937 H   0  0  0  0  0  0  0  0  0  0  0  0
   -1.1521   -0.0013   -1.4891 H   0  0  0  0  0  0  0  0  0  0  0  0
   -0.4348    1.5801   -1.3599 H   0  0  0  0  0  0  0  0  0  0  0  0
    1.9705    1.8315   -0.6173 H   0  0  0  0  0  0  0  0  0  0  0  0
    4.4756    2.0094   -0.4860 H   0  0  0  0  0  0  0  0  0  0  0  0
    4.8365   -2.9271   -1.2276 H   0  0  0  0  0  0  0  0  0  0  0  0
    2.3762   -2.9867   -1.3264 H   0  0  0  0  0  0  0  0  0  0  0  0
    8.5056   -0.0709   -1.5669 H   0  0  0  0  0  0  0  0  0  0  0  0
    8.4446   -0.3399    0.1935 H   0  0  0  0  0  0  0  0  0  0  0  0
  1  2  1  0
  2  3  1  0
  3  4  2  0
  3  5  1  0
  5  6  1  0
  6  7  1  0
  7  8  2  0
  8  9  1  0
  9 10  2  0
 10 11  1  0
 10 12  1  0
 12 13  2  0
  5 14  1  0
 14 15  1  0
 15 16  2  0
 16 17  1  0
 17 18  2  0
 18 19  1  0
 19 20  2  0
 20 21  1  0
 21 22  2  0
 22 23  1  0
 23 24  1  0
 24 25  2  0
 20 26  1  0
 26 27  1  0
 27 28  1  0
 13  7  1  0
 24 15  1  0
 22 17  1  0
 28 19  1  0
  1 29  1  0
  1 30  1  0
  1 31  1  0
  2 32  1  0
  2 33  1  0
  6 34  1  0
  6 35  1  0
  8 36  1  0
  9 37  1  0
 11 38  1  0
 11 39  1  0
 11 40  1  0
 12 41  1  0
 13 42  1  0
 14 43  1  0
 14 44  1  0
 16 45  1  0
 18 46  1  0
 21 47  1  0
 23 48  1  0
 27 49  1  0
 27 50  1  0
M  END
$$$$
