
     RDKit          3D

 61 66  0  0  0  0  0  0  0  0999 V2000
   -4.2902    1.5029    0.6012 C   0  0  0  0  0  0  0  0  0  0  0  0
   -2.8705    0.9350    0.5644 C   0  0  0  0  0  0  0  0  0  0  0  0
   -2.0764    1.4008    1.7857 C   0  0  0  0  0  0  0  0  0  0  0  0
   -2.8301   -0.5859    0.4572 C   0  0  0  0  0  0  0  0  0  0  0  0
   -3.5973   -1.3586    1.3531 C   0  0  0  0  0  0  0  0  0  0  0  0
   -3.5137   -2.7555    1.3823 C   0  0  0  0  0  0  0  0  0  0  0  0
   -2.6456   -3.4179    0.5248 C   0  0  0  0  0  0  0  0  0  0  0  0
   -1.8692   -2.6860   -0.3717 C   0  0  0  0  0  0  0  0  0  0  0  0
   -1.9692   -1.2829   -0.4171 C   0  0  0  0  0  0  0  0  0  0  0  0
   -1.1977   -0.6150   -1.4003 N   0  0  0  0  0  0  0  0  0  0  0  0
    0.1757   -0.6036   -1.5358 C   0  0  0  0  0  0  0  0  0  0  0  0
    1.2671   -1.3023   -0.3872 S   0  0  0  0  0  0  0  0  0  0  0  0
    2.8490   -1.2659   -1.2830 C   0  0  0  0  0  0  0  0  0  0  0  0
    3.5776    0.0477   -1.1234 C   0  0  0  0  0  0  0  0  0  0  0  0
    3.7034    0.7889   -2.2393 C   0  0  0  0  0  0  0  0  0  0  0  0
    4.3028    2.1269   -2.2949 C   0  0  0  0  0  0  0  0  0  0  0  0
    4.4909    2.7030   -3.3593 O   0  0  0  0  0  0  0  0  0  0  0  0
    4.5998    2.6915   -1.0817 O   0  0  0  0  0  0  0  0  0  0  0  0
    4.5678    1.9295    0.1056 C   0  0  0  0  0  0  0  0  0  0  0  0
    5.0303    2.6323    1.2109 C   0  0  0  0  0  0  0  0  0  0  0  0
    5.1045    2.0001    2.4337 C   0  0  0  0  0  0  0  0  0  0  0  0
    4.7566    0.6571    2.5555 C   0  0  0  0  0  0  0  0  0  0  0  0
    4.9034    0.0688    3.8224 C   0  0  0  0  0  0  0  0  0  0  0  0
    4.6199   -1.2766    4.0336 C   0  0  0  0  0  0  0  0  0  0  0  0
    4.1832   -2.0403    2.9731 C   0  0  0  0  0  0  0  0  0  0  0  0
    4.0279   -1.4563    1.7067 C   0  0  0  0  0  0  0  0  0  0  0  0
    4.2849   -0.0885    1.4291 C   0  0  0  0  0  0  0  0  0  0  0  0
    4.1398    0.5874    0.1587 C   0  0  0  0  0  0  0  0  0  0  0  0
    0.5198    0.0824   -2.5992 N   0  0  0  0  0  0  0  0  0  0  0  0
   -0.6261    0.5344   -3.1948 N   0  0  0  0  0  0  0  0  0  0  0  0
   -1.6685    0.0855   -2.5070 C   0  0  0  0  0  0  0  0  0  0  0  0
   -3.0647    0.3064   -2.8752 C   0  0  0  0  0  0  0  0  0  0  0  0
   -4.0197   -0.7170   -2.8949 C   0  0  0  0  0  0  0  0  0  0  0  0
   -5.3472   -0.4286   -3.2170 C   0  0  0  0  0  0  0  0  0  0  0  0
   -5.6759    0.8823   -3.5210 C   0  0  0  0  0  0  0  0  0  0  0  0
   -4.7807    1.8964   -3.5343 N   0  0  0  0  0  0  0  0  0  0  0  0
   -3.4958    1.5819   -3.2285 C   0  0  0  0  0  0  0  0  0  0  0  0
   -4.2606    2.5950    0.5111 H   0  0  0  0  0  0  0  0  0  0  0  0
   -4.8050    1.2657    1.5389 H   0  0  0  0  0  0  0  0  0  0  0  0
   -4.8926    1.1129   -0.2222 H   0  0  0  0  0  0  0  0  0  0  0  0
   -2.3901    1.3862   -0.3074 H   0  0  0  0  0  0  0  0  0  0  0  0
   -2.0489    2.4979    1.8313 H   0  0  0  0  0  0  0  0  0  0  0  0
   -1.0451    1.0407    1.7432 H   0  0  0  0  0  0  0  0  0  0  0  0
   -2.5164    1.0398    2.7213 H   0  0  0  0  0  0  0  0  0  0  0  0
   -4.2615   -0.8767    2.0659 H   0  0  0  0  0  0  0  0  0  0  0  0
   -4.1202   -3.3242    2.0871 H   0  0  0  0  0  0  0  0  0  0  0  0
   -2.5711   -4.5030    0.5544 H   0  0  0  0  0  0  0  0  0  0  0  0
   -1.2112   -3.2280   -1.0478 H   0  0  0  0  0  0  0  0  0  0  0  0
    2.6364   -1.4835   -2.3386 H   0  0  0  0  0  0  0  0  0  0  0  0
    3.4862   -2.1018   -0.9870 H   0  0  0  0  0  0  0  0  0  0  0  0
    3.3227    0.4536   -3.2035 H   0  0  0  0  0  0  0  0  0  0  0  0
    5.3387    3.6676    1.1132 H   0  0  0  0  0  0  0  0  0  0  0  0
    5.4663    2.5656    3.2896 H   0  0  0  0  0  0  0  0  0  0  0  0
    5.2584    0.6593    4.6669 H   0  0  0  0  0  0  0  0  0  0  0  0
    4.7475   -1.7196    5.0183 H   0  0  0  0  0  0  0  0  0  0  0  0
    3.9606   -3.0960    3.1194 H   0  0  0  0  0  0  0  0  0  0  0  0
    3.6963   -2.1355    0.9473 H   0  0  0  0  0  0  0  0  0  0  0  0
   -3.7503   -1.7445   -2.6686 H   0  0  0  0  0  0  0  0  0  0  0  0
   -6.1053   -1.2091   -3.2361 H   0  0  0  0  0  0  0  0  0  0  0  0
   -6.6973    1.1568   -3.7711 H   0  0  0  0  0  0  0  0  0  0  0  0
   -2.8029    2.4205   -3.2581 H   0  0  0  0  0  0  0  0  0  0  0  0
  1  2  1  0
  2  3  1  0
  2  4  1  0
  4  5  2  0
  5  6  1  0
  6  7  2  0
  7  8  1  0
  8  9  2  0
  9 10  1  0
 10 11  1  0
 11 12  1  0
 12 13  1  0
 13 14  1  0
 14 15  2  0
 15 16  1  0
 16 17  2  0
 16 18  1  0
 18 19  1  0
 19 20  2  0
 20 21  1  0
 21 22  2  0
 22 23  1  0
 23 24  2  0
 24 25  1  0
 25 26  2  0
 26 27  1  0
 27 28  2  0
 11 29  2  0
 29 30  1  0
 30 31  2  0
 31 32  1  0
 32 33  2  0
 33 34  1  0
 34 35  2  0
 35 36  1  0
 36 37  2  0
  9  4  1  0
 31 10  1  0
 37 32  1  0
 28 14  1  0
 28 19  1  0
 27 22  1  0
  1 38  1  0
  1 39  1  0
  1 40  1  0
  2 41  1  0
  3 42  1  0
  3 43  1  0
  3 44  1  0
  5 45  1  0
  6 46  1  0
  7 47  1  0
  8 48  1  0
 13 49  1  0
 13 50  1  0
 15 51  1  0
 20 52  1  0
 21 53  1  0
 23 54  1  0
 24 55  1  0
 25 56  1  0
 26 57  1  0
 33 58  1  0
 34 59  1  0
 35 60  1  0
 37 61  1  0
M  END
$$$$
