
     RDKit          3D

 57 62  0  0  0  0  0  0  0  0999 V2000
    4.3419   -0.9518   -5.0783 C   0  0  0  0  0  0  0  0  0  0  0  0
    3.2335   -0.9316   -4.1878 O   0  0  0  0  0  0  0  0  0  0  0  0
    3.4967   -1.1334   -2.8600 C   0  0  0  0  0  0  0  0  0  0  0  0
    4.7683   -1.3590   -2.3001 C   0  0  0  0  0  0  0  0  0  0  0  0
    4.9236   -1.5526   -0.9220 C   0  0  0  0  0  0  0  0  0  0  0  0
    3.7897   -1.5139   -0.1401 C   0  0  0  0  0  0  0  0  0  0  0  0
    2.5189   -1.2915   -0.6733 C   0  0  0  0  0  0  0  0  0  0  0  0
    2.3624   -1.1004   -2.0385 C   0  0  0  0  0  0  0  0  0  0  0  0
    1.5144   -1.3160    0.4412 C   0  0  0  0  0  0  0  0  0  0  0  0
    0.4373   -2.3478    0.2991 N   0  0  0  0  0  0  0  0  0  0  0  0
   -0.8389   -1.7506    0.8720 C   0  0  2  0  0  0  0  0  0  0  0  0
   -2.0615   -2.2977    0.1159 C   0  0  0  0  0  0  0  0  0  0  0  0
   -3.3624   -2.2092    0.8819 C   0  0  0  0  0  0  0  0  0  0  0  0
   -4.3834   -1.3482    0.4605 C   0  0  0  0  0  0  0  0  0  0  0  0
   -5.5895   -1.2818    1.1605 C   0  0  0  0  0  0  0  0  0  0  0  0
   -5.7890   -2.0786    2.2860 C   0  0  0  0  0  0  0  0  0  0  0  0
   -4.7824   -2.9422    2.7128 C   0  0  0  0  0  0  0  0  0  0  0  0
   -3.5759   -3.0091    2.0140 C   0  0  0  0  0  0  0  0  0  0  0  0
   -0.5792   -0.2959    0.7125 C   0  0  0  0  0  0  0  0  0  0  0  0
    0.7753   -0.0445    0.4822 C   0  0  0  0  0  0  0  0  0  0  0  0
    0.9683    1.3109    0.3901 C   0  0  0  0  0  0  0  0  0  0  0  0
    2.0755    2.0051    0.1367 O   0  0  0  0  0  0  0  0  0  0  0  0
   -0.2937    1.9182    0.5388 N   0  0  0  0  0  0  0  0  0  0  0  0
   -0.5865    3.3140    0.4048 C   0  0  0  0  0  0  0  0  0  0  0  0
    0.3644    4.2821    0.7508 C   0  0  0  0  0  0  0  0  0  0  0  0
    0.0653    5.6415    0.6234 C   0  0  0  0  0  0  0  0  0  0  0  0
   -1.1781    6.0444    0.1413 C   0  0  0  0  0  0  0  0  0  0  0  0
   -2.1249    5.0891   -0.2200 C   0  0  0  0  0  0  0  0  0  0  0  0
   -1.8323    3.7288   -0.0920 C   0  0  0  0  0  0  0  0  0  0  0  0
   -1.2306    0.9022    0.8187 C   0  0  0  0  0  0  0  0  0  0  0  0
   -2.4908    1.1239    1.1841 O   0  0  0  0  0  0  0  0  0  0  0  0
    2.4018   -1.5731    1.6960 C   0  0  0  0  0  0  0  0  0  0  0  0
    2.0704   -1.6702    2.8679 O   0  0  0  0  0  0  0  0  0  0  0  0
    3.7195   -1.6715    1.2363 N   0  0  0  0  0  0  0  0  0  0  0  0
    3.9618   -0.7758   -6.0892 H   0  0  0  0  0  0  0  0  0  0  0  0
    4.8343   -1.9298   -5.0732 H   0  0  0  0  0  0  0  0  0  0  0  0
    5.0504   -0.1502   -4.8447 H   0  0  0  0  0  0  0  0  0  0  0  0
    5.6602   -1.3909   -2.9187 H   0  0  0  0  0  0  0  0  0  0  0  0
    5.9049   -1.7282   -0.4951 H   0  0  0  0  0  0  0  0  0  0  0  0
    1.3819   -0.9195   -2.4699 H   0  0  0  0  0  0  0  0  0  0  0  0
    0.2771   -2.4574   -0.7006 H   0  0  0  0  0  0  0  0  0  0  0  0
   -0.8726   -2.0087    1.9372 H   0  0  0  0  0  0  0  0  0  0  0  0
   -1.9103   -3.3632   -0.1088 H   0  0  0  0  0  0  0  0  0  0  0  0
   -2.1638   -1.8037   -0.8598 H   0  0  0  0  0  0  0  0  0  0  0  0
   -4.2387   -0.7096   -0.4079 H   0  0  0  0  0  0  0  0  0  0  0  0
   -6.3705   -0.6033    0.8289 H   0  0  0  0  0  0  0  0  0  0  0  0
   -6.7269   -2.0246    2.8315 H   0  0  0  0  0  0  0  0  0  0  0  0
   -4.9354   -3.5640    3.5907 H   0  0  0  0  0  0  0  0  0  0  0  0
   -2.8022   -3.6921    2.3584 H   0  0  0  0  0  0  0  0  0  0  0  0
    2.7958    1.3757   -0.0443 H   0  0  0  0  0  0  0  0  0  0  0  0
    1.3348    4.0069    1.1548 H   0  0  0  0  0  0  0  0  0  0  0  0
    0.8067    6.3855    0.9039 H   0  0  0  0  0  0  0  0  0  0  0  0
   -1.4050    7.1025    0.0394 H   0  0  0  0  0  0  0  0  0  0  0  0
   -3.0877    5.4022   -0.6160 H   0  0  0  0  0  0  0  0  0  0  0  0
   -2.5746    3.0114   -0.4357 H   0  0  0  0  0  0  0  0  0  0  0  0
   -2.5415    2.0007    1.6059 H   0  0  0  0  0  0  0  0  0  0  0  0
    4.4935   -1.8538    1.8572 H   0  0  0  0  0  0  0  0  0  0  0  0
  1  2  1  0
  2  3  1  0
  3  4  2  0
  4  5  1  0
  5  6  2  0
  6  7  1  0
  7  8  2  0
  7  9  1  0
  9 10  1  0
 10 11  1  0
 11 12  1  0
 12 13  1  0
 13 14  2  0
 14 15  1  0
 15 16  2  0
 16 17  1  0
 17 18  2  0
 11 19  1  0
 19 20  1  0
 20 21  2  0
 21 22  1  0
 21 23  1  0
 23 24  1  0
 24 25  2  0
 25 26  1  0
 26 27  2  0
 27 28  1  0
 28 29  2  0
 23 30  1  0
 30 31  1  0
  9 32  1  0
 32 33  2  0
 32 34  1  0
  8  3  1  0
 20  9  1  0
 29 24  1  0
 34  6  1  0
 18 13  1  0
 30 19  2  0
  1 35  1  0
  1 36  1  0
  1 37  1  0
  4 38  1  0
  5 39  1  0
  8 40  1  0
 10 41  1  0
 11 42  1  1
 12 43  1  0
 12 44  1  0
 14 45  1  0
 15 46  1  0
 16 47  1  0
 17 48  1  0
 18 49  1  0
 22 50  1  0
 25 51  1  0
 26 52  1  0
 27 53  1  0
 28 54  1  0
 29 55  1  0
 31 56  1  0
 34 57  1  0
M  END
$$$$
