
     RDKit          3D

 29 30  0  0  0  0  0  0  0  0999 V2000
    4.4154   -0.9672   -0.5704 C   0  0  0  0  0  0  0  0  0  0  0  0
    2.9389   -0.6570   -0.7247 C   0  0  0  0  0  0  0  0  0  0  0  0
    2.6268    0.6069   -0.0707 N   0  0  0  0  0  0  0  0  0  0  0  0
    1.9276    0.6431    1.4468 S   0  0  0  0  0  6  0  0  0  0  0  0
    2.5038   -0.4249    2.2333 O   0  0  0  0  0  0  0  0  0  0  0  0
    1.9747    2.0212    1.8822 O   0  0  0  0  0  0  0  0  0  0  0  0
    0.2381    0.2438    1.0854 C   0  0  0  0  0  0  0  0  0  0  0  0
   -0.2688   -1.0235    1.4307 C   0  0  0  0  0  0  0  0  0  0  0  0
   -1.6055   -1.3337    1.1755 C   0  0  0  0  0  0  0  0  0  0  0  0
   -2.3922   -0.3679    0.5703 C   0  0  0  0  0  0  0  0  0  0  0  0
   -1.8831    0.8844    0.2184 C   0  0  0  0  0  0  0  0  0  0  0  0
   -0.5732    1.2198    0.4940 C   0  0  0  0  0  0  0  0  0  0  0  0
   -2.8691    1.7515   -0.3084 N   0  0  0  0  0  0  0  0  0  0  0  0
   -3.9611    0.8288   -0.6652 C   0  0  0  0  0  0  0  0  0  0  0  0
   -3.8451   -0.4123    0.2395 C   0  0  0  0  0  0  0  0  0  0  0  0
    4.6905   -1.0736    0.4839 H   0  0  0  0  0  0  0  0  0  0  0  0
    4.6642   -1.9009   -1.0841 H   0  0  0  0  0  0  0  0  0  0  0  0
    5.0315   -0.1682   -0.9965 H   0  0  0  0  0  0  0  0  0  0  0  0
    2.6903   -0.5638   -1.7872 H   0  0  0  0  0  0  0  0  0  0  0  0
    2.3331   -1.4762   -0.3256 H   0  0  0  0  0  0  0  0  0  0  0  0
    3.0764    1.4704   -0.3671 H   0  0  0  0  0  0  0  0  0  0  0  0
    0.3701   -1.7610    1.9125 H   0  0  0  0  0  0  0  0  0  0  0  0
   -2.0157   -2.2979    1.4579 H   0  0  0  0  0  0  0  0  0  0  0  0
   -0.1908    2.2099    0.2699 H   0  0  0  0  0  0  0  0  0  0  0  0
   -2.5092    2.3121   -1.0762 H   0  0  0  0  0  0  0  0  0  0  0  0
   -3.8525    0.5379   -1.7187 H   0  0  0  0  0  0  0  0  0  0  0  0
   -4.9351    1.3160   -0.5541 H   0  0  0  0  0  0  0  0  0  0  0  0
   -4.1371   -1.3238   -0.2889 H   0  0  0  0  0  0  0  0  0  0  0  0
   -4.4428   -0.2942    1.1492 H   0  0  0  0  0  0  0  0  0  0  0  0
  1  2  1  0
  2  3  1  0
  3  4  1  0
  4  5  2  0
  4  6  2  0
  4  7  1  0
  7  8  2  0
  8  9  1  0
  9 10  2  0
 10 11  1  0
 11 12  2  0
 11 13  1  0
 13 14  1  0
 14 15  1  0
 12  7  1  0
 15 10  1  0
  1 16  1  0
  1 17  1  0
  1 18  1  0
  2 19  1  0
  2 20  1  0
  3 21  1  0
  8 22  1  0
  9 23  1  0
 12 24  1  0
 13 25  1  0
 14 26  1  0
 14 27  1  0
 15 28  1  0
 15 29  1  0
M  END
$$$$
