
     RDKit          3D

 36 38  0  0  0  0  0  0  0  0999 V2000
   -5.7465    0.4380    0.0860 C   0  0  0  0  0  0  0  0  0  0  0  0
   -4.2689    0.7063    0.0345 C   0  0  0  0  0  0  0  0  0  0  0  0
   -3.7999    1.9987   -0.2613 C   0  0  0  0  0  0  0  0  0  0  0  0
   -2.4323    2.2597   -0.3411 C   0  0  0  0  0  0  0  0  0  0  0  0
   -1.5479    1.2120   -0.1343 C   0  0  0  0  0  0  0  0  0  0  0  0
   -1.9861   -0.0990    0.1484 C   0  0  0  0  0  0  0  0  0  0  0  0
   -3.3541   -0.3449    0.2272 C   0  0  0  0  0  0  0  0  0  0  0  0
   -0.9360   -1.0305    0.3145 N   0  0  0  0  0  0  0  0  0  0  0  0
   -1.2538   -2.3607    0.8058 C   0  0  0  0  0  0  0  0  0  0  0  0
    0.3160   -0.4185    0.2250 C   0  0  0  0  0  0  0  0  0  0  0  0
    1.5127   -1.0144    0.3864 C   0  0  0  0  0  0  0  0  0  0  0  0
    2.8143   -0.3475    0.2859 C   0  0  0  0  0  0  0  0  0  0  0  0
    3.4141    0.1639    1.4430 C   0  0  0  0  0  0  0  0  0  0  0  0
    4.6382    0.8139    1.3621 C   0  0  0  0  0  0  0  0  0  0  0  0
    5.2491    0.9502    0.1259 C   0  0  0  0  0  0  0  0  0  0  0  0
    4.6284    0.4306   -1.0031 C   0  0  0  0  0  0  0  0  0  0  0  0
    3.4400   -0.2140   -0.9164 N   0  0  0  0  0  4  0  0  0  0  0  0
    2.8296   -0.7407   -2.1544 C   0  0  0  0  0  0  0  0  0  0  0  0
    0.2347    1.3260   -0.1703 S   0  0  0  0  0  0  0  0  0  0  0  0
   -6.1086    0.1513   -0.9060 H   0  0  0  0  0  0  0  0  0  0  0  0
   -6.2935    1.3258    0.4203 H   0  0  0  0  0  0  0  0  0  0  0  0
   -5.9722   -0.3672    0.7930 H   0  0  0  0  0  0  0  0  0  0  0  0
   -4.5062    2.8108   -0.4269 H   0  0  0  0  0  0  0  0  0  0  0  0
   -2.0771    3.2619   -0.5581 H   0  0  0  0  0  0  0  0  0  0  0  0
   -3.7346   -1.3399    0.4355 H   0  0  0  0  0  0  0  0  0  0  0  0
   -1.6269   -2.3143    1.8349 H   0  0  0  0  0  0  0  0  0  0  0  0
   -2.0062   -2.8462    0.1745 H   0  0  0  0  0  0  0  0  0  0  0  0
   -0.3818   -3.0212    0.7997 H   0  0  0  0  0  0  0  0  0  0  0  0
    1.5757   -2.0699    0.6292 H   0  0  0  0  0  0  0  0  0  0  0  0
    2.9209    0.0686    2.4094 H   0  0  0  0  0  0  0  0  0  0  0  0
    5.1063    1.2200    2.2578 H   0  0  0  0  0  0  0  0  0  0  0  0
    6.2040    1.4649    0.0403 H   0  0  0  0  0  0  0  0  0  0  0  0
    5.0803    0.5301   -1.9865 H   0  0  0  0  0  0  0  0  0  0  0  0
    3.5672   -0.7337   -2.9614 H   0  0  0  0  0  0  0  0  0  0  0  0
    2.5132   -1.7724   -1.9818 H   0  0  0  0  0  0  0  0  0  0  0  0
    1.9882   -0.0978   -2.4207 H   0  0  0  0  0  0  0  0  0  0  0  0
  1  2  1  0
  2  3  2  0
  3  4  1  0
  4  5  2  0
  5  6  1  0
  6  7  2  0
  6  8  1  0
  8  9  1  0
  8 10  1  0
 10 11  2  3
 11 12  1  0
 12 13  2  0
 13 14  1  0
 14 15  2  0
 15 16  1  0
 16 17  2  0
 17 18  1  0
 10 19  1  0
  7  2  1  0
 17 12  1  0
 19  5  1  0
  1 20  1  0
  1 21  1  0
  1 22  1  0
  3 23  1  0
  4 24  1  0
  7 25  1  0
  9 26  1  0
  9 27  1  0
  9 28  1  0
 11 29  1  0
 13 30  1  0
 14 31  1  0
 15 32  1  0
 16 33  1  0
 18 34  1  0
 18 35  1  0
 18 36  1  0
M  CHG  1  17   1
M  END
$$$$
