
     RDKit          3D

 64 69  0  0  0  0  0  0  0  0999 V2000
    5.5344   -2.5307    1.2948 F   0  0  0  0  0  0  0  0  0  0  0  0
    6.7489   -2.0150    0.9512 C   0  0  0  0  0  0  0  0  0  0  0  0
    7.1457   -2.7014   -0.1571 F   0  0  0  0  0  0  0  0  0  0  0  0
    7.6000   -2.4007    1.9450 F   0  0  0  0  0  0  0  0  0  0  0  0
    6.7145   -0.5191    0.7266 C   0  0  0  0  0  0  0  0  0  0  0  0
    7.6594    0.2897    1.3891 C   0  0  0  0  0  0  0  0  0  0  0  0
    7.6752    1.6727    1.2114 C   0  0  0  0  0  0  0  0  0  0  0  0
    6.7480    2.2717    0.3677 C   0  0  0  0  0  0  0  0  0  0  0  0
    5.8087    1.4889   -0.3020 C   0  0  0  0  0  0  0  0  0  0  0  0
    5.7787    0.0922   -0.1406 C   0  0  0  0  0  0  0  0  0  0  0  0
    4.7267   -0.6967   -0.8991 C   0  0  0  0  0  0  0  0  0  0  0  0
    3.3597   -0.7621   -0.1851 C   0  0  0  0  0  0  0  0  0  0  0  0
    2.6205    0.5152   -0.1742 N   0  0  0  0  0  0  0  0  0  0  0  0
    1.5359    0.5005    0.8353 C   0  0  0  0  0  0  0  0  0  0  0  0
    0.3181   -0.3769    0.4748 C   0  0  0  0  0  0  0  0  0  0  0  0
   -0.2340    0.0057   -0.8401 N   0  0  0  0  0  0  0  0  0  0  0  0
   -1.4950   -0.4865   -1.1726 C   0  0  0  0  0  0  0  0  0  0  0  0
   -1.6128   -1.3126   -2.1817 N   0  0  0  0  0  0  0  0  0  0  0  0
   -2.8697   -1.8527   -2.5205 C   0  0  0  0  0  0  0  0  0  0  0  0
   -2.9412   -2.7413   -3.5950 C   0  0  0  0  0  0  0  0  0  0  0  0
   -4.1601   -3.3144   -3.9674 C   0  0  0  0  0  0  0  0  0  0  0  0
   -5.3244   -3.0026   -3.2643 C   0  0  0  0  0  0  0  0  0  0  0  0
   -5.2773   -2.1167   -2.1873 C   0  0  0  0  0  0  0  0  0  0  0  0
   -4.0507   -1.5516   -1.8261 C   0  0  0  0  0  0  0  0  0  0  0  0
   -3.9149   -0.6417   -0.7647 N   0  0  0  0  0  0  0  0  0  0  0  0
   -4.8719   -0.1334    0.0816 C   0  0  0  0  0  0  0  0  0  0  0  0
   -4.2723    0.7859    0.9237 C   0  0  0  0  0  0  0  0  0  0  0  0
   -4.9803    1.5404    1.9490 C   0  0  0  0  0  0  0  0  0  0  0  0
   -4.3306    1.8824    3.1430 C   0  0  0  0  0  0  0  0  0  0  0  0
   -4.9964    2.6100    4.1332 C   0  0  0  0  0  0  0  0  0  0  0  0
   -6.3177    3.0063    3.9387 C   0  0  0  0  0  0  0  0  0  0  0  0
   -6.9739    2.6767    2.7548 C   0  0  0  0  0  0  0  0  0  0  0  0
   -6.3089    1.9480    1.7646 C   0  0  0  0  0  0  0  0  0  0  0  0
   -2.8932    0.8068    0.5777 C   0  0  0  0  0  0  0  0  0  0  0  0
   -2.6913   -0.1044   -0.4427 C   0  0  0  0  0  0  0  0  0  0  0  0
    0.7970   -0.0006   -1.8979 C   0  0  0  0  0  0  0  0  0  0  0  0
    2.0198    0.8507   -1.4873 C   0  0  0  0  0  0  0  0  0  0  0  0
    8.3948   -0.1598    2.0558 H   0  0  0  0  0  0  0  0  0  0  0  0
    8.4088    2.2816    1.7337 H   0  0  0  0  0  0  0  0  0  0  0  0
    6.7507    3.3500    0.2311 H   0  0  0  0  0  0  0  0  0  0  0  0
    5.0834    1.9780   -0.9504 H   0  0  0  0  0  0  0  0  0  0  0  0
    5.0820   -1.7206   -1.0619 H   0  0  0  0  0  0  0  0  0  0  0  0
    4.6281   -0.2847   -1.9104 H   0  0  0  0  0  0  0  0  0  0  0  0
    2.7620   -1.5571   -0.6456 H   0  0  0  0  0  0  0  0  0  0  0  0
    3.5435   -1.0783    0.8497 H   0  0  0  0  0  0  0  0  0  0  0  0
    1.9332    0.1969    1.8117 H   0  0  0  0  0  0  0  0  0  0  0  0
    1.1916    1.5349    0.9692 H   0  0  0  0  0  0  0  0  0  0  0  0
   -0.4296   -0.2631    1.2657 H   0  0  0  0  0  0  0  0  0  0  0  0
    0.6024   -1.4363    0.4570 H   0  0  0  0  0  0  0  0  0  0  0  0
   -2.0360   -2.9877   -4.1435 H   0  0  0  0  0  0  0  0  0  0  0  0
   -4.1985   -4.0044   -4.8064 H   0  0  0  0  0  0  0  0  0  0  0  0
   -6.2706   -3.4510   -3.5581 H   0  0  0  0  0  0  0  0  0  0  0  0
   -6.1961   -1.8881   -1.6579 H   0  0  0  0  0  0  0  0  0  0  0  0
   -5.9011   -0.4555    0.0204 H   0  0  0  0  0  0  0  0  0  0  0  0
   -3.3029    1.5760    3.3207 H   0  0  0  0  0  0  0  0  0  0  0  0
   -4.4825    2.8653    5.0562 H   0  0  0  0  0  0  0  0  0  0  0  0
   -6.8351    3.5732    4.7082 H   0  0  0  0  0  0  0  0  0  0  0  0
   -8.0029    2.9895    2.5981 H   0  0  0  0  0  0  0  0  0  0  0  0
   -6.8368    1.7169    0.8430 H   0  0  0  0  0  0  0  0  0  0  0  0
   -2.1265    1.4305    1.0179 H   0  0  0  0  0  0  0  0  0  0  0  0
    0.3811    0.4255   -2.8192 H   0  0  0  0  0  0  0  0  0  0  0  0
    1.1058   -1.0295   -2.1181 H   0  0  0  0  0  0  0  0  0  0  0  0
    1.7043    1.9021   -1.4413 H   0  0  0  0  0  0  0  0  0  0  0  0
    2.7723    0.8132   -2.2819 H   0  0  0  0  0  0  0  0  0  0  0  0
  1  2  1  0
  2  3  1  0
  2  4  1  0
  2  5  1  0
  5  6  2  0
  6  7  1  0
  7  8  2  0
  8  9  1  0
  9 10  2  0
 10 11  1  0
 11 12  1  0
 12 13  1  0
 13 14  1  0
 14 15  1  0
 15 16  1  0
 16 17  1  0
 17 18  2  0
 18 19  1  0
 19 20  2  0
 20 21  1  0
 21 22  2  0
 22 23  1  0
 23 24  2  0
 24 25  1  0
 25 26  1  0
 26 27  2  0
 27 28  1  0
 28 29  2  0
 29 30  1  0
 30 31  2  0
 31 32  1  0
 32 33  2  0
 27 34  1  0
 34 35  2  0
 16 36  1  0
 36 37  1  0
 10  5  1  0
 37 13  1  0
 35 17  1  0
 24 19  1  0
 35 25  1  0
 33 28  1  0
  6 38  1  0
  7 39  1  0
  8 40  1  0
  9 41  1  0
 11 42  1  0
 11 43  1  0
 12 44  1  0
 12 45  1  0
 14 46  1  0
 14 47  1  0
 15 48  1  0
 15 49  1  0
 20 50  1  0
 21 51  1  0
 22 52  1  0
 23 53  1  0
 26 54  1  0
 29 55  1  0
 30 56  1  0
 31 57  1  0
 32 58  1  0
 33 59  1  0
 34 60  1  0
 36 61  1  0
 36 62  1  0
 37 63  1  0
 37 64  1  0
M  END
$$$$
