
     RDKit          3D

 54 57  0  0  0  0  0  0  0  0999 V2000
    4.6871    2.3293    3.9538 C   0  0  0  0  0  0  0  0  0  0  0  0
    3.9445    1.8383    2.7223 C   0  0  0  0  0  0  0  0  0  0  0  0
    3.7824    0.3257    2.7064 C   0  0  0  0  0  0  0  0  0  0  0  0
    4.3121   -0.3891    3.5568 O   0  0  0  0  0  0  0  0  0  0  0  0
    3.0078   -0.2029    1.6848 N   0  0  0  0  0  0  0  0  0  0  0  0
    2.3885    0.5830    0.6086 C   0  0  0  0  0  0  0  0  0  0  0  0
    2.0327   -0.2763   -0.6184 C   0  0  0  0  0  0  0  0  0  0  0  0
    1.1153   -1.3841   -0.2451 N   0  0  0  0  0  0  0  0  0  0  0  0
    0.9888   -2.3107   -1.3155 C   0  0  0  0  0  0  0  0  0  0  0  0
    1.9396   -3.3118   -1.5620 C   0  0  0  0  0  0  0  0  0  0  0  0
    1.7889   -4.1778   -2.6463 C   0  0  0  0  0  0  0  0  0  0  0  0
    0.6903   -4.0456   -3.4939 C   0  0  0  0  0  0  0  0  0  0  0  0
    0.5182   -5.1222   -4.8270 Cl  0  0  0  0  0  0  0  0  0  0  0  0
   -0.2663   -3.0556   -3.2743 C   0  0  0  0  0  0  0  0  0  0  0  0
   -0.1225   -2.1893   -2.1903 C   0  0  0  0  0  0  0  0  0  0  0  0
   -1.0448   -1.1720   -1.8642 N   0  0  0  0  0  0  0  0  0  0  0  0
   -2.1596   -0.7700   -2.5649 C   0  0  0  0  0  0  0  0  0  0  0  0
   -2.5281   -1.1962   -3.6527 O   0  0  0  0  0  0  0  0  0  0  0  0
   -2.9449    0.3262   -1.9270 C   0  0  0  0  0  0  0  0  0  0  0  0
   -3.6249    1.2284   -2.7589 C   0  0  0  0  0  0  0  0  0  0  0  0
   -4.3691    2.2735   -2.2062 C   0  0  0  0  0  0  0  0  0  0  0  0
   -4.4457    2.4121   -0.8221 C   0  0  0  0  0  0  0  0  0  0  0  0
   -3.7603    1.5214    0.0111 C   0  0  0  0  0  0  0  0  0  0  0  0
   -3.0283    0.4668   -0.5346 C   0  0  0  0  0  0  0  0  0  0  0  0
   -3.7680    1.6158    1.3798 O   0  0  0  0  0  0  0  0  0  0  0  0
   -4.2597    2.8886    1.8163 C   0  0  0  0  0  0  0  0  0  0  0  0
   -5.5072    3.2813    1.0425 C   0  0  0  0  0  0  0  0  0  0  0  0
   -5.2088    3.4476   -0.3479 O   0  0  0  0  0  0  0  0  0  0  0  0
    1.3759   -1.9987    1.0845 C   0  0  0  0  0  0  0  0  0  0  0  0
    2.7630   -1.6499    1.6516 C   0  0  0  0  0  0  0  0  0  0  0  0
    4.1836    2.0155    4.8748 H   0  0  0  0  0  0  0  0  0  0  0  0
    5.7080    1.9334    3.9805 H   0  0  0  0  0  0  0  0  0  0  0  0
    4.7470    3.4222    3.9525 H   0  0  0  0  0  0  0  0  0  0  0  0
    4.5034    2.1405    1.8306 H   0  0  0  0  0  0  0  0  0  0  0  0
    2.9535    2.3023    2.6975 H   0  0  0  0  0  0  0  0  0  0  0  0
    3.0602    1.3914    0.3061 H   0  0  0  0  0  0  0  0  0  0  0  0
    1.4816    1.0353    1.0279 H   0  0  0  0  0  0  0  0  0  0  0  0
    2.9618   -0.6689   -1.0530 H   0  0  0  0  0  0  0  0  0  0  0  0
    1.5518    0.3595   -1.3718 H   0  0  0  0  0  0  0  0  0  0  0  0
    2.8122   -3.4209   -0.9251 H   0  0  0  0  0  0  0  0  0  0  0  0
    2.5319   -4.9506   -2.8268 H   0  0  0  0  0  0  0  0  0  0  0  0
   -1.1137   -2.9835   -3.9478 H   0  0  0  0  0  0  0  0  0  0  0  0
   -0.7762   -0.6788   -1.0174 H   0  0  0  0  0  0  0  0  0  0  0  0
   -3.5779    1.1155   -3.8412 H   0  0  0  0  0  0  0  0  0  0  0  0
   -4.8960    2.9685   -2.8542 H   0  0  0  0  0  0  0  0  0  0  0  0
   -2.5475   -0.2391    0.1366 H   0  0  0  0  0  0  0  0  0  0  0  0
   -4.4887    2.8052    2.8834 H   0  0  0  0  0  0  0  0  0  0  0  0
   -3.4616    3.6315    1.6944 H   0  0  0  0  0  0  0  0  0  0  0  0
   -5.8982    4.2337    1.4145 H   0  0  0  0  0  0  0  0  0  0  0  0
   -6.2958    2.5258    1.1437 H   0  0  0  0  0  0  0  0  0  0  0  0
    1.2342   -3.0870    1.0764 H   0  0  0  0  0  0  0  0  0  0  0  0
    0.6143   -1.5989    1.7669 H   0  0  0  0  0  0  0  0  0  0  0  0
    3.5510   -2.0876    1.0287 H   0  0  0  0  0  0  0  0  0  0  0  0
    2.8642   -2.0771    2.6554 H   0  0  0  0  0  0  0  0  0  0  0  0
  1  2  1  0
  2  3  1  0
  3  4  2  0
  3  5  1  0
  5  6  1  0
  6  7  1  0
  7  8  1  0
  8  9  1  0
  9 10  2  0
 10 11  1  0
 11 12  2  0
 12 13  1  0
 12 14  1  0
 14 15  2  0
 15 16  1  0
 16 17  1  0
 17 18  2  0
 17 19  1  0
 19 20  2  0
 20 21  1  0
 21 22  2  0
 22 23  1  0
 23 24  2  0
 23 25  1  0
 25 26  1  0
 26 27  1  0
 27 28  1  0
  8 29  1  0
 29 30  1  0
 30  5  1  0
 15  9  1  0
 24 19  1  0
 28 22  1  0
  1 31  1  0
  1 32  1  0
  1 33  1  0
  2 34  1  0
  2 35  1  0
  6 36  1  0
  6 37  1  0
  7 38  1  0
  7 39  1  0
 10 40  1  0
 11 41  1  0
 14 42  1  0
 16 43  1  0
 20 44  1  0
 21 45  1  0
 24 46  1  0
 26 47  1  0
 26 48  1  0
 27 49  1  0
 27 50  1  0
 29 51  1  0
 29 52  1  0
 30 53  1  0
 30 54  1  0
M  END
$$$$
