
     RDKit          3D

 23 24  0  0  0  0  0  0  0  0999 V2000
    0.3622    0.1001   -2.3149 O   0  0  0  0  0  0  0  0  0  0  0  0
    1.3149    0.3939   -1.6206 C   0  0  0  0  0  0  0  0  0  0  0  0
    2.4557    0.9891   -2.0773 O   0  0  0  0  0  0  0  0  0  0  0  0
    3.3019    1.3191   -0.9761 C   0  0  0  0  0  0  0  0  0  0  0  0
    2.9283    0.3717    0.1335 C   0  0  0  0  0  0  0  0  0  0  0  0
    1.4892    0.1557   -0.1644 C   0  0  0  0  0  0  0  0  0  0  0  0
    0.5603   -0.1763    0.7450 C   0  0  0  0  0  0  0  0  0  0  0  0
   -0.8763   -0.3715    0.5228 C   0  0  0  0  0  0  0  0  0  0  0  0
   -1.6788    0.6249   -0.0440 C   0  0  0  0  0  0  0  0  0  0  0  0
   -3.0529    0.4248   -0.1975 C   0  0  0  0  0  0  0  0  0  0  0  0
   -3.6375   -0.7669    0.2268 C   0  0  0  0  0  0  0  0  0  0  0  0
   -2.8495   -1.7592    0.8061 C   0  0  0  0  0  0  0  0  0  0  0  0
   -1.4752   -1.5603    0.9582 C   0  0  0  0  0  0  0  0  0  0  0  0
    4.3489    1.2023   -1.2719 H   0  0  0  0  0  0  0  0  0  0  0  0
    3.1317    2.3679   -0.7063 H   0  0  0  0  0  0  0  0  0  0  0  0
    3.4707   -0.5751    0.0325 H   0  0  0  0  0  0  0  0  0  0  0  0
    3.1292    0.7965    1.1207 H   0  0  0  0  0  0  0  0  0  0  0  0
    0.8694   -0.3378    1.7764 H   0  0  0  0  0  0  0  0  0  0  0  0
   -1.2436    1.5618   -0.3823 H   0  0  0  0  0  0  0  0  0  0  0  0
   -3.6640    1.1986   -0.6543 H   0  0  0  0  0  0  0  0  0  0  0  0
   -4.7057   -0.9229    0.1018 H   0  0  0  0  0  0  0  0  0  0  0  0
   -3.3034   -2.6898    1.1361 H   0  0  0  0  0  0  0  0  0  0  0  0
   -0.8756   -2.3465    1.4106 H   0  0  0  0  0  0  0  0  0  0  0  0
  1  2  2  0
  2  3  1  0
  3  4  1  0
  4  5  1  0
  5  6  1  0
  6  7  2  3
  7  8  1  0
  8  9  2  0
  9 10  1  0
 10 11  2  0
 11 12  1  0
 12 13  2  0
  6  2  1  0
 13  8  1  0
  4 14  1  0
  4 15  1  0
  5 16  1  0
  5 17  1  0
  7 18  1  0
  9 19  1  0
 10 20  1  0
 11 21  1  0
 12 22  1  0
 13 23  1  0
M  END
$$$$
