
     RDKit          3D

 69 74  0  0  0  0  0  0  0  0999 V2000
    7.2716   -1.8021   -1.1141 C   0  0  0  0  0  0  0  0  0  0  0  0
    6.6656   -1.9020    0.1666 O   0  0  0  0  0  0  0  0  0  0  0  0
    5.3325   -1.5872    0.2672 C   0  0  0  0  0  0  0  0  0  0  0  0
    4.5167   -1.2437   -0.8165 C   0  0  0  0  0  0  0  0  0  0  0  0
    3.1580   -0.9481   -0.6260 C   0  0  0  0  0  0  0  0  0  0  0  0
    2.6133   -0.9616    0.6700 C   0  0  0  0  0  0  0  0  0  0  0  0
    3.4325   -1.3178    1.7538 C   0  0  0  0  0  0  0  0  0  0  0  0
    4.7831   -1.6336    1.5626 C   0  0  0  0  0  0  0  0  0  0  0  0
    5.6459   -1.9864    2.5713 O   0  0  0  0  0  0  0  0  0  0  0  0
    5.1005   -2.1796    3.8681 C   0  0  0  0  0  0  0  0  0  0  0  0
    1.1435   -0.6658    0.9151 C   0  0  0  0  0  0  0  0  0  0  0  0
    0.5419    0.0339   -0.2317 N   0  0  0  0  0  0  0  0  0  0  0  0
   -0.8435    0.1688   -0.0126 C   0  0  0  0  0  0  0  0  0  0  0  0
   -1.6519   -0.9085   -0.1410 N   0  0  0  0  0  0  0  0  0  0  0  0
   -2.9787   -0.7801    0.0666 C   0  0  0  0  0  0  0  0  0  0  0  0
   -3.8378   -2.0276   -0.1107 C   0  0  0  0  0  0  0  0  0  0  0  0
   -4.0890   -2.4265   -1.5158 N   0  0  0  0  0  0  0  0  0  0  0  0
   -4.9382   -1.4596   -2.2448 C   0  0  0  0  0  0  0  0  0  0  0  0
   -6.4205   -1.8628   -2.2969 C   0  0  0  0  0  0  0  0  0  0  0  0
   -6.6430   -3.1401   -2.9129 O   0  0  0  0  0  0  0  0  0  0  0  0
   -5.5049   -4.0099   -2.8326 C   0  0  0  0  0  0  0  0  0  0  0  0
   -4.6859   -3.7790   -1.5554 C   0  0  0  0  0  0  0  0  0  0  0  0
   -3.6146    0.3477    0.4156 N   0  0  0  0  0  0  0  0  0  0  0  0
   -2.7899    1.3986    0.5353 C   0  0  0  0  0  0  0  0  0  0  0  0
   -3.4092    2.9264    0.9679 S   0  0  0  0  0  0  0  0  0  0  0  0
   -1.8638    3.6316    0.9141 C   0  0  0  0  0  0  0  0  0  0  0  0
   -0.8773    2.7273    0.5631 C   0  0  0  0  0  0  0  0  0  0  0  0
   -1.4175    1.4051    0.3444 C   0  0  0  0  0  0  0  0  0  0  0  0
    0.5674    3.1279    0.4725 C   0  0  0  0  0  0  0  0  0  0  0  0
    0.7465    4.6560    0.4716 C   0  0  0  0  0  0  0  0  0  0  0  0
   -0.1623    5.3843    1.4863 C   0  0  0  0  0  0  0  0  0  0  0  0
    0.2080    5.0380    2.9317 C   0  0  0  0  0  0  0  0  0  0  0  0
   -1.6498    5.0882    1.1945 C   0  0  0  0  0  0  0  0  0  0  0  0
    0.8059   -0.6661   -1.4980 C   0  0  0  0  0  0  0  0  0  0  0  0
    2.3019   -0.5546   -1.8081 C   0  0  0  0  0  0  0  0  0  0  0  0
    7.2240   -0.7760   -1.4950 H   0  0  0  0  0  0  0  0  0  0  0  0
    6.8238   -2.5095   -1.8206 H   0  0  0  0  0  0  0  0  0  0  0  0
    8.3277   -2.0673   -1.0059 H   0  0  0  0  0  0  0  0  0  0  0  0
    4.9133   -1.2010   -1.8260 H   0  0  0  0  0  0  0  0  0  0  0  0
    2.9892   -1.3387    2.7440 H   0  0  0  0  0  0  0  0  0  0  0  0
    4.7128   -1.2409    4.2766 H   0  0  0  0  0  0  0  0  0  0  0  0
    4.3310   -2.9588    3.8627 H   0  0  0  0  0  0  0  0  0  0  0  0
    5.9087   -2.5167    4.5237 H   0  0  0  0  0  0  0  0  0  0  0  0
    0.6404   -1.6227    1.1137 H   0  0  0  0  0  0  0  0  0  0  0  0
    1.0574   -0.0335    1.8087 H   0  0  0  0  0  0  0  0  0  0  0  0
   -4.7859   -1.8884    0.4258 H   0  0  0  0  0  0  0  0  0  0  0  0
   -3.3047   -2.8400    0.4013 H   0  0  0  0  0  0  0  0  0  0  0  0
   -4.5584   -1.4228   -3.2735 H   0  0  0  0  0  0  0  0  0  0  0  0
   -4.8436   -0.4412   -1.8567 H   0  0  0  0  0  0  0  0  0  0  0  0
   -6.9914   -1.1235   -2.8675 H   0  0  0  0  0  0  0  0  0  0  0  0
   -6.8487   -1.8940   -1.2884 H   0  0  0  0  0  0  0  0  0  0  0  0
   -4.8911   -3.8638   -3.7294 H   0  0  0  0  0  0  0  0  0  0  0  0
   -5.8777   -5.0387   -2.8586 H   0  0  0  0  0  0  0  0  0  0  0  0
   -3.8849   -4.5232   -1.4912 H   0  0  0  0  0  0  0  0  0  0  0  0
   -5.3552   -3.9285   -0.6976 H   0  0  0  0  0  0  0  0  0  0  0  0
    1.1055    2.6975    1.3265 H   0  0  0  0  0  0  0  0  0  0  0  0
    1.0216    2.7221   -0.4386 H   0  0  0  0  0  0  0  0  0  0  0  0
    0.5142    5.0360   -0.5328 H   0  0  0  0  0  0  0  0  0  0  0  0
    1.7991    4.8990    0.6587 H   0  0  0  0  0  0  0  0  0  0  0  0
   -0.0068    6.4640    1.3667 H   0  0  0  0  0  0  0  0  0  0  0  0
    0.0424    3.9816    3.1640 H   0  0  0  0  0  0  0  0  0  0  0  0
    1.2621    5.2647    3.1246 H   0  0  0  0  0  0  0  0  0  0  0  0
   -0.3915    5.6287    3.6319 H   0  0  0  0  0  0  0  0  0  0  0  0
   -1.9517    5.6532    0.3038 H   0  0  0  0  0  0  0  0  0  0  0  0
   -2.2789    5.4311    2.0235 H   0  0  0  0  0  0  0  0  0  0  0  0
    0.2434   -0.2087   -2.3229 H   0  0  0  0  0  0  0  0  0  0  0  0
    0.5153   -1.7250   -1.4381 H   0  0  0  0  0  0  0  0  0  0  0  0
    2.5461    0.4824   -2.0719 H   0  0  0  0  0  0  0  0  0  0  0  0
    2.5355   -1.1885   -2.6716 H   0  0  0  0  0  0  0  0  0  0  0  0
  1  2  1  0
  2  3  1  0
  3  4  2  0
  4  5  1  0
  5  6  2  0
  6  7  1  0
  7  8  2  0
  8  9  1  0
  9 10  1  0
  6 11  1  0
 11 12  1  0
 12 13  1  0
 13 14  2  0
 14 15  1  0
 15 16  1  0
 16 17  1  0
 17 18  1  0
 18 19  1  0
 19 20  1  0
 20 21  1  0
 21 22  1  0
 15 23  2  0
 23 24  1  0
 24 25  1  0
 25 26  1  0
 26 27  2  0
 27 28  1  0
 27 29  1  0
 29 30  1  0
 30 31  1  0
 31 32  1  0
 31 33  1  0
 12 34  1  0
 34 35  1  0
  8  3  1  0
 28 13  1  0
 35  5  1  0
 22 17  1  0
 28 24  2  0
 33 26  1  0
  1 36  1  0
  1 37  1  0
  1 38  1  0
  4 39  1  0
  7 40  1  0
 10 41  1  0
 10 42  1  0
 10 43  1  0
 11 44  1  0
 11 45  1  0
 16 46  1  0
 16 47  1  0
 18 48  1  0
 18 49  1  0
 19 50  1  0
 19 51  1  0
 21 52  1  0
 21 53  1  0
 22 54  1  0
 22 55  1  0
 29 56  1  0
 29 57  1  0
 30 58  1  0
 30 59  1  0
 31 60  1  0
 32 61  1  0
 32 62  1  0
 32 63  1  0
 33 64  1  0
 33 65  1  0
 34 66  1  0
 34 67  1  0
 35 68  1  0
 35 69  1  0
M  END
$$$$
