
     RDKit          3D

 44 44  0  0  0  0  0  0  0  0999 V2000
   -5.9601   -0.4323    0.3205 C   0  0  0  0  0  0  0  0  0  0  0  0
   -5.2356    0.8905    0.1159 C   0  0  0  0  0  0  0  0  0  0  0  0
   -3.8949    0.6759   -0.4429 N   0  0  0  0  0  0  0  0  0  0  0  0
   -3.7994    0.7165   -1.9088 C   0  0  0  0  0  0  0  0  0  0  0  0
   -3.4781    2.1216   -2.3979 C   0  0  0  0  0  0  0  0  0  0  0  0
   -2.7802    0.4603    0.3623 C   0  0  0  0  0  0  0  0  0  0  0  0
   -2.8791    0.2974    1.7542 C   0  0  0  0  0  0  0  0  0  0  0  0
   -1.7590    0.0799    2.5675 C   0  0  0  0  0  0  0  0  0  0  0  0
   -0.4864    0.0169    2.0107 C   0  0  0  0  0  0  0  0  0  0  0  0
   -0.3388    0.1712    0.6386 C   0  0  0  0  0  0  0  0  0  0  0  0
    0.8416    0.1358   -0.0532 O   0  0  0  0  0  0  0  0  0  0  0  0
    2.0267   -0.1015    0.6942 C   0  0  0  0  0  0  0  0  0  0  0  0
    3.2617   -0.1234   -0.2177 C   0  0  0  0  0  0  0  0  0  0  0  0
    3.1821    0.0531   -1.4351 O   0  0  0  0  0  0  0  0  0  0  0  0
    4.5001   -0.3586    0.3888 N   0  0  0  0  0  0  0  0  0  0  0  0
    4.6727   -0.7859    1.7707 C   0  0  0  0  0  0  0  0  0  0  0  0
    5.6792   -0.4343   -0.4822 C   0  0  0  0  0  0  0  0  0  0  0  0
    5.7963   -1.7733   -1.2103 C   0  0  0  0  0  0  0  0  0  0  0  0
    7.0444   -1.8288   -1.9778 C   0  0  0  0  0  0  0  0  0  0  0  0
    8.0451   -1.8759   -2.5632 N   0  0  0  0  0  0  0  0  0  0  0  0
   -1.4747    0.3887   -0.1591 C   0  0  0  0  0  0  0  0  0  0  0  0
   -6.0598   -0.9762   -0.6247 H   0  0  0  0  0  0  0  0  0  0  0  0
   -6.9647   -0.2552    0.7172 H   0  0  0  0  0  0  0  0  0  0  0  0
   -5.4284   -1.0823    1.0218 H   0  0  0  0  0  0  0  0  0  0  0  0
   -5.2025    1.4680    1.0465 H   0  0  0  0  0  0  0  0  0  0  0  0
   -5.8285    1.5058   -0.5731 H   0  0  0  0  0  0  0  0  0  0  0  0
   -4.7571    0.4089   -2.3482 H   0  0  0  0  0  0  0  0  0  0  0  0
   -3.0730   -0.0092   -2.2912 H   0  0  0  0  0  0  0  0  0  0  0  0
   -2.5177    2.4766   -2.0124 H   0  0  0  0  0  0  0  0  0  0  0  0
   -4.2464    2.8340   -2.0796 H   0  0  0  0  0  0  0  0  0  0  0  0
   -3.4320    2.1393   -3.4913 H   0  0  0  0  0  0  0  0  0  0  0  0
   -3.8425    0.3243    2.2533 H   0  0  0  0  0  0  0  0  0  0  0  0
   -1.8909   -0.0411    3.6396 H   0  0  0  0  0  0  0  0  0  0  0  0
    0.3554   -0.1506    2.6715 H   0  0  0  0  0  0  0  0  0  0  0  0
    2.1700    0.7052    1.4225 H   0  0  0  0  0  0  0  0  0  0  0  0
    1.9581   -1.0801    1.1831 H   0  0  0  0  0  0  0  0  0  0  0  0
    4.8202   -1.8694    1.7840 H   0  0  0  0  0  0  0  0  0  0  0  0
    3.8112   -0.5391    2.3924 H   0  0  0  0  0  0  0  0  0  0  0  0
    5.5525   -0.2905    2.1917 H   0  0  0  0  0  0  0  0  0  0  0  0
    6.5708   -0.2354    0.1255 H   0  0  0  0  0  0  0  0  0  0  0  0
    5.6194    0.3791   -1.2171 H   0  0  0  0  0  0  0  0  0  0  0  0
    4.9413   -1.9245   -1.8783 H   0  0  0  0  0  0  0  0  0  0  0  0
    5.7761   -2.5951   -0.4852 H   0  0  0  0  0  0  0  0  0  0  0  0
   -1.2950    0.5136   -1.2229 H   0  0  0  0  0  0  0  0  0  0  0  0
  1  2  1  0
  2  3  1  0
  3  4  1  0
  4  5  1  0
  3  6  1  0
  6  7  2  0
  7  8  1  0
  8  9  2  0
  9 10  1  0
 10 11  1  0
 11 12  1  0
 12 13  1  0
 13 14  2  0
 13 15  1  0
 15 16  1  0
 15 17  1  0
 17 18  1  0
 18 19  1  0
 19 20  3  0
 10 21  2  0
 21  6  1  0
  1 22  1  0
  1 23  1  0
  1 24  1  0
  2 25  1  0
  2 26  1  0
  4 27  1  0
  4 28  1  0
  5 29  1  0
  5 30  1  0
  5 31  1  0
  7 32  1  0
  8 33  1  0
  9 34  1  0
 12 35  1  0
 12 36  1  0
 16 37  1  0
 16 38  1  0
 16 39  1  0
 17 40  1  0
 17 41  1  0
 18 42  1  0
 18 43  1  0
 21 44  1  0
M  END
$$$$
