
     RDKit          3D

 39 41  0  0  0  0  0  0  0  0999 V2000
    1.7350    3.2777   -2.1146 O   0  0  0  0  0  0  0  0  0  0  0  0
    1.6649    2.1905   -1.5483 C   0  0  0  0  0  0  0  0  0  0  0  0
    2.9086    1.4083   -1.3212 C   0  0  0  0  0  0  0  0  0  0  0  0
    3.1044    0.5859   -0.2790 C   0  0  0  0  0  0  0  0  0  0  0  0
    4.3520   -0.1566   -0.0519 C   0  0  0  0  0  0  0  0  0  0  0  0
    5.6134    0.4022   -0.3006 C   0  0  0  0  0  0  0  0  0  0  0  0
    6.7781   -0.3281   -0.0449 C   0  0  0  0  0  0  0  0  0  0  0  0
    6.6863   -1.6182    0.4713 C   0  0  0  0  0  0  0  0  0  0  0  0
    8.2599   -2.6057    0.8182 Br  0  0  0  0  0  0  0  0  0  0  0  0
    5.4417   -2.1826    0.7394 C   0  0  0  0  0  0  0  0  0  0  0  0
    4.2788   -1.4501    0.4835 C   0  0  0  0  0  0  0  0  0  0  0  0
    0.3489    1.6733   -1.1015 C   0  0  0  0  0  0  0  0  0  0  0  0
    0.0127    0.3199   -1.1975 C   0  0  0  0  0  0  0  0  0  0  0  0
   -1.2479   -0.1237   -0.7778 C   0  0  0  0  0  0  0  0  0  0  0  0
   -2.1879    0.7788   -0.2752 C   0  0  0  0  0  0  0  0  0  0  0  0
   -3.4720    0.4133    0.1664 N   0  0  0  0  0  0  0  0  0  0  0  0
   -4.0377   -0.8487    0.2217 C   0  0  0  0  0  0  0  0  0  0  0  0
   -3.4846   -1.8919   -0.1104 O   0  0  0  0  0  0  0  0  0  0  0  0
   -5.3972   -0.8263    0.7333 C   0  0  0  0  0  0  0  0  0  0  0  0
   -6.3075   -1.8446    0.9449 C   0  0  0  0  0  0  0  0  0  0  0  0
   -7.4807   -1.2438    1.4602 C   0  0  0  0  0  0  0  0  0  0  0  0
   -7.2200    0.1038    1.5337 C   0  0  0  0  0  0  0  0  0  0  0  0
   -5.9619    0.3714    1.0973 O   0  0  0  0  0  0  0  0  0  0  0  0
   -1.8537    2.1375   -0.2074 C   0  0  0  0  0  0  0  0  0  0  0  0
   -0.5958    2.5850   -0.6232 C   0  0  0  0  0  0  0  0  0  0  0  0
    3.6878    1.6129   -2.0488 H   0  0  0  0  0  0  0  0  0  0  0  0
    2.3286    0.4241    0.4656 H   0  0  0  0  0  0  0  0  0  0  0  0
    5.7080    1.4157   -0.6844 H   0  0  0  0  0  0  0  0  0  0  0  0
    7.7469    0.1214   -0.2466 H   0  0  0  0  0  0  0  0  0  0  0  0
    5.3639   -3.1869    1.1475 H   0  0  0  0  0  0  0  0  0  0  0  0
    3.3143   -1.9051    0.7000 H   0  0  0  0  0  0  0  0  0  0  0  0
    0.7100   -0.4039   -1.6122 H   0  0  0  0  0  0  0  0  0  0  0  0
   -1.4661   -1.1835   -0.8697 H   0  0  0  0  0  0  0  0  0  0  0  0
   -4.0784    1.1581    0.4946 H   0  0  0  0  0  0  0  0  0  0  0  0
   -6.1313   -2.8934    0.7455 H   0  0  0  0  0  0  0  0  0  0  0  0
   -8.4029   -1.7325    1.7428 H   0  0  0  0  0  0  0  0  0  0  0  0
   -7.7960    0.9600    1.8575 H   0  0  0  0  0  0  0  0  0  0  0  0
   -2.5666    2.8692    0.1655 H   0  0  0  0  0  0  0  0  0  0  0  0
   -0.3560    3.6455   -0.5736 H   0  0  0  0  0  0  0  0  0  0  0  0
  1  2  2  0
  2  3  1  0
  3  4  2  3
  4  5  1  0
  5  6  2  0
  6  7  1  0
  7  8  2  0
  8  9  1  0
  8 10  1  0
 10 11  2  0
  2 12  1  0
 12 13  2  0
 13 14  1  0
 14 15  2  0
 15 16  1  0
 16 17  1  0
 17 18  2  0
 17 19  1  0
 19 20  2  0
 20 21  1  0
 21 22  2  0
 22 23  1  0
 15 24  1  0
 24 25  2  0
 11  5  1  0
 25 12  1  0
 23 19  1  0
  3 26  1  0
  4 27  1  0
  6 28  1  0
  7 29  1  0
 10 30  1  0
 11 31  1  0
 13 32  1  0
 14 33  1  0
 16 34  1  0
 20 35  1  0
 21 36  1  0
 22 37  1  0
 24 38  1  0
 25 39  1  0
M  END
$$$$
