
     RDKit          3D

 50 53  0  0  0  0  0  0  0  0999 V2000
    8.3373    1.8737    0.8844 C   0  0  0  0  0  0  0  0  0  0  0  0
    7.2366    2.4224    0.1705 O   0  0  0  0  0  0  0  0  0  0  0  0
    6.1089    1.6543    0.0912 C   0  0  0  0  0  0  0  0  0  0  0  0
    5.0631    2.2223   -0.6351 C   0  0  0  0  0  0  0  0  0  0  0  0
    3.8484    1.5439   -0.7949 C   0  0  0  0  0  0  0  0  0  0  0  0
    3.6412    0.2758   -0.2260 C   0  0  0  0  0  0  0  0  0  0  0  0
    2.3659   -0.4584   -0.3730 C   0  0  0  0  0  0  0  0  0  0  0  0
    1.1419    0.1715   -0.5120 C   0  0  0  0  0  0  0  0  0  0  0  0
   -0.0035   -0.6163   -0.6340 C   0  0  0  0  0  0  0  0  0  0  0  0
   -1.2902    0.1115   -0.7190 C   0  0  0  0  0  0  0  0  0  0  0  0
   -1.4297    0.9259   -1.6212 O   0  0  0  0  0  0  0  0  0  0  0  0
   -2.1702   -0.1878    0.3028 N   0  0  0  0  0  0  0  0  0  0  0  0
   -3.4748    0.3169    0.4840 C   0  0  0  0  0  0  0  0  0  0  0  0
   -4.1554   -0.0741    1.6389 C   0  0  0  0  0  0  0  0  0  0  0  0
   -5.4619    0.3596    1.8715 C   0  0  0  0  0  0  0  0  0  0  0  0
   -6.1100    1.2041    0.9585 C   0  0  0  0  0  0  0  0  0  0  0  0
   -7.5308    1.6183    1.2246 C   0  0  0  0  0  0  0  0  0  0  0  0
   -5.4129    1.6503   -0.1773 C   0  0  0  0  0  0  0  0  0  0  0  0
   -6.0520    2.4024   -1.1783 N   0  0  0  0  0  0  0  0  0  0  0  0
   -4.1207    1.1568   -0.4254 C   0  0  0  0  0  0  0  0  0  0  0  0
    0.0732   -2.0245   -0.6614 C   0  0  0  0  0  0  0  0  0  0  0  0
   -1.0265   -2.9003   -0.8564 C   0  0  0  0  0  0  0  0  0  0  0  0
   -0.8528   -4.2826   -0.8547 C   0  0  0  0  0  0  0  0  0  0  0  0
    0.4164   -4.8096   -0.6676 C   0  0  0  0  0  0  0  0  0  0  0  0
    1.5037   -3.9499   -0.4952 C   0  0  0  0  0  0  0  0  0  0  0  0
    1.3584   -2.5689   -0.4964 C   0  0  0  0  0  0  0  0  0  0  0  0
    2.4582   -1.8121   -0.3411 N   0  0  0  0  0  0  0  0  0  0  0  0
    4.7134   -0.2824    0.4946 C   0  0  0  0  0  0  0  0  0  0  0  0
    5.9306    0.3948    0.6555 C   0  0  0  0  0  0  0  0  0  0  0  0
    9.1539    2.6013    0.8504 H   0  0  0  0  0  0  0  0  0  0  0  0
    8.6933    0.9513    0.4137 H   0  0  0  0  0  0  0  0  0  0  0  0
    8.0825    1.7087    1.9365 H   0  0  0  0  0  0  0  0  0  0  0  0
    5.1944    3.2018   -1.0893 H   0  0  0  0  0  0  0  0  0  0  0  0
    3.0743    2.0222   -1.3910 H   0  0  0  0  0  0  0  0  0  0  0  0
    1.0549    1.2534   -0.5043 H   0  0  0  0  0  0  0  0  0  0  0  0
   -1.8360   -0.8167    1.0236 H   0  0  0  0  0  0  0  0  0  0  0  0
   -3.6887   -0.7298    2.3688 H   0  0  0  0  0  0  0  0  0  0  0  0
   -5.9773    0.0224    2.7682 H   0  0  0  0  0  0  0  0  0  0  0  0
   -7.9330    1.1271    2.1171 H   0  0  0  0  0  0  0  0  0  0  0  0
   -8.1738    1.3423    0.3826 H   0  0  0  0  0  0  0  0  0  0  0  0
   -7.5852    2.6994    1.3880 H   0  0  0  0  0  0  0  0  0  0  0  0
   -5.4024    2.8930   -1.7868 H   0  0  0  0  0  0  0  0  0  0  0  0
   -6.7832    3.0134   -0.8320 H   0  0  0  0  0  0  0  0  0  0  0  0
   -3.6324    1.4464   -1.3504 H   0  0  0  0  0  0  0  0  0  0  0  0
   -2.0280   -2.5107   -1.0326 H   0  0  0  0  0  0  0  0  0  0  0  0
   -1.7036   -4.9420   -1.0087 H   0  0  0  0  0  0  0  0  0  0  0  0
    0.5701   -5.8858   -0.6677 H   0  0  0  0  0  0  0  0  0  0  0  0
    2.4985   -4.3713   -0.3646 H   0  0  0  0  0  0  0  0  0  0  0  0
    4.6038   -1.2683    0.9456 H   0  0  0  0  0  0  0  0  0  0  0  0
    6.7122   -0.0957    1.2254 H   0  0  0  0  0  0  0  0  0  0  0  0
  1  2  1  0
  2  3  1  0
  3  4  2  0
  4  5  1  0
  5  6  2  0
  6  7  1  0
  7  8  2  0
  8  9  1  0
  9 10  1  0
 10 11  2  0
 10 12  1  0
 12 13  1  0
 13 14  2  0
 14 15  1  0
 15 16  2  0
 16 17  1  0
 16 18  1  0
 18 19  1  0
 18 20  2  0
  9 21  2  0
 21 22  1  0
 22 23  2  0
 23 24  1  0
 24 25  2  0
 25 26  1  0
 26 27  2  0
  6 28  1  0
 28 29  2  0
 29  3  1  0
 27  7  1  0
 20 13  1  0
 26 21  1  0
  1 30  1  0
  1 31  1  0
  1 32  1  0
  4 33  1  0
  5 34  1  0
  8 35  1  0
 12 36  1  0
 14 37  1  0
 15 38  1  0
 17 39  1  0
 17 40  1  0
 17 41  1  0
 19 42  1  0
 19 43  1  0
 20 44  1  0
 22 45  1  0
 23 46  1  0
 24 47  1  0
 25 48  1  0
 28 49  1  0
 29 50  1  0
M  END
$$$$
