
     RDKit          3D

 44 47  0  0  0  0  0  0  0  0999 V2000
   -2.2726   -1.0835   -2.3495 O   0  0  0  0  0  0  0  0  0  0  0  0
   -2.6946   -0.7353   -1.2566 C   0  0  0  0  0  0  0  0  0  0  0  0
   -2.5998   -1.4240   -0.0625 O   0  0  0  0  0  0  0  0  0  0  0  0
   -1.8033   -2.5706   -0.1618 C   0  0  0  0  0  0  0  0  0  0  0  0
   -2.4352   -3.7857   -0.4331 C   0  0  0  0  0  0  0  0  0  0  0  0
   -1.6711   -4.9473   -0.5208 C   0  0  0  0  0  0  0  0  0  0  0  0
   -0.2896   -4.8896   -0.3295 C   0  0  0  0  0  0  0  0  0  0  0  0
    0.3334   -3.6709   -0.0402 C   0  0  0  0  0  0  0  0  0  0  0  0
   -0.4195   -2.4955    0.0642 C   0  0  0  0  0  0  0  0  0  0  0  0
    0.2753   -1.2398    0.3764 C   0  0  0  0  0  0  0  0  0  0  0  0
   -0.0500   -0.4979    1.4451 C   0  0  0  0  0  0  0  0  0  0  0  0
    0.5490    0.8163    1.8220 C   0  0  0  0  0  0  0  0  0  0  0  0
   -0.1637    1.5618    2.4994 O   0  0  0  0  0  0  0  0  0  0  0  0
    1.8903    1.1886    1.4210 C   0  0  0  0  0  0  0  0  0  0  0  0
    2.5349    2.4109    1.5104 C   0  0  0  0  0  0  0  0  0  0  0  0
    3.8472    2.2305    1.0047 C   0  0  0  0  0  0  0  0  0  0  0  0
    4.9745    3.0482    0.8141 C   0  0  0  0  0  0  0  0  0  0  0  0
    6.1336    2.4778    0.2676 C   0  0  0  0  0  0  0  0  0  0  0  0
    6.1757    1.1250   -0.0815 C   0  0  0  0  0  0  0  0  0  0  0  0
    5.0644    0.2956    0.1028 C   0  0  0  0  0  0  0  0  0  0  0  0
    3.9292    0.8916    0.6464 C   0  0  0  0  0  0  0  0  0  0  0  0
    2.7528    0.2593    0.9045 O   0  0  0  0  0  0  0  0  0  0  0  0
   -3.4344    0.5374   -1.0395 C   0  0  0  0  0  0  0  0  0  0  0  0
   -3.9018    1.2287   -2.1660 C   0  0  0  0  0  0  0  0  0  0  0  0
   -4.5903    2.4341   -2.0172 C   0  0  0  0  0  0  0  0  0  0  0  0
   -4.8097    2.9583   -0.7442 C   0  0  0  0  0  0  0  0  0  0  0  0
   -4.3406    2.2812    0.3810 C   0  0  0  0  0  0  0  0  0  0  0  0
   -3.6536    1.0734    0.2372 C   0  0  0  0  0  0  0  0  0  0  0  0
   -3.5091   -3.8243   -0.5882 H   0  0  0  0  0  0  0  0  0  0  0  0
   -2.1499   -5.8972   -0.7442 H   0  0  0  0  0  0  0  0  0  0  0  0
    0.3057   -5.7964   -0.4048 H   0  0  0  0  0  0  0  0  0  0  0  0
    1.4105   -3.6502    0.1111 H   0  0  0  0  0  0  0  0  0  0  0  0
    1.0557   -0.9553   -0.3228 H   0  0  0  0  0  0  0  0  0  0  0  0
   -0.8621   -0.7973    2.1022 H   0  0  0  0  0  0  0  0  0  0  0  0
    2.0967    3.3207    1.8977 H   0  0  0  0  0  0  0  0  0  0  0  0
    4.9530    4.1001    1.0825 H   0  0  0  0  0  0  0  0  0  0  0  0
    7.0133    3.0997    0.1138 H   0  0  0  0  0  0  0  0  0  0  0  0
    7.0880    0.7084   -0.5035 H   0  0  0  0  0  0  0  0  0  0  0  0
    5.0803   -0.7546   -0.1612 H   0  0  0  0  0  0  0  0  0  0  0  0
   -3.7296    0.8309   -3.1646 H   0  0  0  0  0  0  0  0  0  0  0  0
   -4.9511    2.9653   -2.8946 H   0  0  0  0  0  0  0  0  0  0  0  0
   -5.3421    3.8995   -0.6285 H   0  0  0  0  0  0  0  0  0  0  0  0
   -4.5031    2.6973    1.3728 H   0  0  0  0  0  0  0  0  0  0  0  0
   -3.2866    0.5745    1.1308 H   0  0  0  0  0  0  0  0  0  0  0  0
  1  2  2  0
  2  3  1  0
  3  4  1  0
  4  5  2  0
  5  6  1  0
  6  7  2  0
  7  8  1  0
  8  9  2  0
  9 10  1  0
 10 11  2  3
 11 12  1  0
 12 13  2  0
 12 14  1  0
 14 15  2  0
 15 16  1  0
 16 17  2  0
 17 18  1  0
 18 19  2  0
 19 20  1  0
 20 21  2  0
 21 22  1  0
  2 23  1  0
 23 24  2  0
 24 25  1  0
 25 26  2  0
 26 27  1  0
 27 28  2  0
  9  4  1  0
 22 14  1  0
 28 23  1  0
 21 16  1  0
  5 29  1  0
  6 30  1  0
  7 31  1  0
  8 32  1  0
 10 33  1  0
 11 34  1  0
 15 35  1  0
 17 36  1  0
 18 37  1  0
 19 38  1  0
 20 39  1  0
 24 40  1  0
 25 41  1  0
 26 42  1  0
 27 43  1  0
 28 44  1  0
M  END
$$$$
