
     RDKit          3D

 60 65  0  0  0  0  0  0  0  0999 V2000
   -2.8152   -4.8076    1.8872 O   0  0  0  0  0  0  0  0  0  0  0  0
   -2.8482   -3.5929    1.7265 C   0  0  0  0  0  0  0  0  0  0  0  0
   -1.7288   -2.8769    1.3196 N   0  0  0  0  0  0  0  0  0  0  0  0
   -1.7104   -1.4988    1.1107 C   0  0  0  0  0  0  0  0  0  0  0  0
   -0.3607   -0.9446    0.6747 C   0  0  0  0  0  0  0  0  0  0  0  0
   -0.4745    0.4650    0.0805 C   0  0  0  0  0  0  0  0  0  0  0  0
    0.8974    1.0208   -0.2866 C   0  0  0  0  0  0  0  0  0  0  0  0
    1.7594    1.0095    0.9171 N   0  0  0  0  0  0  0  0  0  0  0  0
    3.1215    2.0376    0.8901 S   0  0  0  0  0  6  0  0  0  0  0  0
    2.7032    3.3247    0.3766 O   0  0  0  0  0  0  0  0  0  0  0  0
    3.7984    1.9247    2.1640 O   0  0  0  0  0  0  0  0  0  0  0  0
    4.1668    1.2870   -0.3403 C   0  0  0  0  0  0  0  0  0  0  0  0
    4.0875    1.7134   -1.6712 C   0  0  0  0  0  0  0  0  0  0  0  0
    4.9244    1.1388   -2.6288 C   0  0  0  0  0  0  0  0  0  0  0  0
    5.8424    0.1593   -2.2508 C   0  0  0  0  0  0  0  0  0  0  0  0
    5.9128   -0.2657   -0.9188 C   0  0  0  0  0  0  0  0  0  0  0  0
    5.0929    0.3136    0.0458 C   0  0  0  0  0  0  0  0  0  0  0  0
    6.7719   -1.2425   -0.4863 O   0  0  0  0  0  0  0  0  0  0  0  0
    7.3347   -1.9749   -1.5816 C   0  0  0  0  0  0  0  0  0  0  0  0
    7.7745   -1.0355   -2.6921 C   0  0  0  0  0  0  0  0  0  0  0  0
    6.6459   -0.3445   -3.2411 O   0  0  0  0  0  0  0  0  0  0  0  0
    1.9617   -0.3457    1.4754 C   0  0  0  0  0  0  0  0  0  0  0  0
    0.6097   -0.9394    1.8638 C   0  0  0  0  0  0  0  0  0  0  0  0
   -2.7418   -0.7214    1.2929 N   0  0  0  0  0  0  0  0  0  0  0  0
   -3.8494   -1.3964    1.6887 C   0  0  0  0  0  0  0  0  0  0  0  0
   -3.9909   -2.7436    1.9189 C   0  0  0  0  0  0  0  0  0  0  0  0
   -5.2593   -3.0328    2.3136 N   0  0  0  0  0  0  0  0  0  0  0  0
   -5.9361   -1.8845    2.3413 N   0  0  0  0  0  0  0  0  0  0  0  0
   -5.0943   -0.8962    1.9496 N   0  0  0  0  0  0  0  0  0  0  0  0
   -5.5264    0.4862    1.9212 C   0  0  0  0  0  0  0  0  0  0  0  0
   -5.9190    0.9166    0.5347 C   0  0  0  0  0  0  0  0  0  0  0  0
   -4.9695    1.4245   -0.3651 C   0  0  0  0  0  0  0  0  0  0  0  0
   -5.3489    1.8014   -1.6559 C   0  0  0  0  0  0  0  0  0  0  0  0
   -6.6770    1.6725   -2.0626 C   0  0  0  0  0  0  0  0  0  0  0  0
   -7.6271    1.1670   -1.1777 C   0  0  0  0  0  0  0  0  0  0  0  0
   -7.2432    0.7942    0.1071 C   0  0  0  0  0  0  0  0  0  0  0  0
   -8.1743    0.3211    0.9464 F   0  0  0  0  0  0  0  0  0  0  0  0
   -0.9063   -3.4410    1.1662 H   0  0  0  0  0  0  0  0  0  0  0  0
    0.0363   -1.6188   -0.0967 H   0  0  0  0  0  0  0  0  0  0  0  0
   -0.9527    1.1423    0.8005 H   0  0  0  0  0  0  0  0  0  0  0  0
   -1.1152    0.4469   -0.8094 H   0  0  0  0  0  0  0  0  0  0  0  0
    1.3499    0.4179   -1.0815 H   0  0  0  0  0  0  0  0  0  0  0  0
    0.7664    2.0408   -0.6608 H   0  0  0  0  0  0  0  0  0  0  0  0
    3.3905    2.4952   -1.9657 H   0  0  0  0  0  0  0  0  0  0  0  0
    4.8774    1.4671   -3.6640 H   0  0  0  0  0  0  0  0  0  0  0  0
    5.1773    0.0015    1.0837 H   0  0  0  0  0  0  0  0  0  0  0  0
    8.1924   -2.5366   -1.1987 H   0  0  0  0  0  0  0  0  0  0  0  0
    6.5866   -2.6936   -1.9381 H   0  0  0  0  0  0  0  0  0  0  0  0
    8.2438   -1.6010   -3.5030 H   0  0  0  0  0  0  0  0  0  0  0  0
    8.4968   -0.2936   -2.3297 H   0  0  0  0  0  0  0  0  0  0  0  0
    2.4541   -0.9881    0.7370 H   0  0  0  0  0  0  0  0  0  0  0  0
    2.5897   -0.3070    2.3709 H   0  0  0  0  0  0  0  0  0  0  0  0
    0.1768   -0.3588    2.6893 H   0  0  0  0  0  0  0  0  0  0  0  0
    0.7576   -1.9570    2.2439 H   0  0  0  0  0  0  0  0  0  0  0  0
   -4.7042    1.1038    2.3017 H   0  0  0  0  0  0  0  0  0  0  0  0
   -6.3580    0.6007    2.6263 H   0  0  0  0  0  0  0  0  0  0  0  0
   -3.9273    1.5255   -0.0671 H   0  0  0  0  0  0  0  0  0  0  0  0
   -4.6065    2.1948   -2.3465 H   0  0  0  0  0  0  0  0  0  0  0  0
   -6.9708    1.9648   -3.0676 H   0  0  0  0  0  0  0  0  0  0  0  0
   -8.6646    1.0599   -1.4785 H   0  0  0  0  0  0  0  0  0  0  0  0
  1  2  2  0
  2  3  1  0
  3  4  1  0
  4  5  1  0
  5  6  1  0
  6  7  1  0
  7  8  1  0
  8  9  1  0
  9 10  2  0
  9 11  2  0
  9 12  1  0
 12 13  2  0
 13 14  1  0
 14 15  2  0
 15 16  1  0
 16 17  2  0
 16 18  1  0
 18 19  1  0
 19 20  1  0
 20 21  1  0
  8 22  1  0
 22 23  1  0
  4 24  2  0
 24 25  1  0
 25 26  2  0
 26 27  1  0
 27 28  2  0
 28 29  1  0
 29 30  1  0
 30 31  1  0
 31 32  2  0
 32 33  1  0
 33 34  2  0
 34 35  1  0
 35 36  2  0
 36 37  1  0
 26  2  1  0
 36 31  1  0
 23  5  1  0
 29 25  1  0
 17 12  1  0
 21 15  1  0
  3 38  1  0
  5 39  1  0
  6 40  1  0
  6 41  1  0
  7 42  1  0
  7 43  1  0
 13 44  1  0
 14 45  1  0
 17 46  1  0
 19 47  1  0
 19 48  1  0
 20 49  1  0
 20 50  1  0
 22 51  1  0
 22 52  1  0
 23 53  1  0
 23 54  1  0
 30 55  1  0
 30 56  1  0
 32 57  1  0
 33 58  1  0
 34 59  1  0
 35 60  1  0
M  END
$$$$
