
     RDKit          3D

 52 54  0  0  0  0  0  0  0  0999 V2000
   -3.5666   -2.3459   -2.4237 C   0  0  0  0  0  0  0  0  0  0  0  0
   -3.7337   -1.6793   -1.1397 N   0  0  0  0  0  0  0  0  0  0  0  0
   -5.0982   -1.5852   -0.6202 C   0  0  0  0  0  0  0  0  0  0  0  0
   -5.9570   -0.6315   -1.4185 C   0  0  0  0  0  0  0  0  0  0  0  0
   -5.8148    0.7544   -1.2572 C   0  0  0  0  0  0  0  0  0  0  0  0
   -6.5946    1.6390   -2.0033 C   0  0  0  0  0  0  0  0  0  0  0  0
   -7.5229    1.1484   -2.9193 C   0  0  0  0  0  0  0  0  0  0  0  0
   -7.6728   -0.2267   -3.0901 C   0  0  0  0  0  0  0  0  0  0  0  0
   -6.8936   -1.1134   -2.3445 C   0  0  0  0  0  0  0  0  0  0  0  0
   -2.7436   -0.9146   -0.5275 C   0  0  0  0  0  0  0  0  0  0  0  0
   -2.9617   -0.2412    0.4837 O   0  0  0  0  0  0  0  0  0  0  0  0
   -1.3495   -0.9196   -1.1720 C   0  0  0  0  0  0  0  0  0  0  0  0
   -0.4177   -0.1139   -0.4446 O   0  0  0  0  0  0  0  0  0  0  0  0
    0.0478   -0.6965    0.6971 C   0  0  0  0  0  0  0  0  0  0  0  0
   -0.1684   -1.8552    1.0352 O   0  0  0  0  0  0  0  0  0  0  0  0
    0.8576    0.3020    1.5003 C   0  0  0  0  0  0  0  0  0  0  0  0
    1.5974   -0.3937    2.5612 N   0  0  0  0  0  0  0  0  0  0  0  0
    2.6764    0.4733    3.4881 S   0  0  0  0  0  6  0  0  0  0  0  0
    2.9493   -0.3208    4.6643 O   0  0  0  0  0  0  0  0  0  0  0  0
    2.1968    1.8344    3.5758 O   0  0  0  0  0  0  0  0  0  0  0  0
    4.1302    0.4422    2.4731 C   0  0  0  0  0  0  0  0  0  0  0  0
    4.8444   -0.7498    2.3452 C   0  0  0  0  0  0  0  0  0  0  0  0
    5.9896   -0.7808    1.5488 C   0  0  0  0  0  0  0  0  0  0  0  0
    6.4313    0.3745    0.8819 C   0  0  0  0  0  0  0  0  0  0  0  0
    7.5811    0.3566    0.0769 C   0  0  0  0  0  0  0  0  0  0  0  0
    8.0123    1.5118   -0.5772 C   0  0  0  0  0  0  0  0  0  0  0  0
    7.3009    2.6996   -0.4346 C   0  0  0  0  0  0  0  0  0  0  0  0
    6.1555    2.7359    0.3621 C   0  0  0  0  0  0  0  0  0  0  0  0
    5.7069    1.5831    1.0257 C   0  0  0  0  0  0  0  0  0  0  0  0
    4.5568    1.6068    1.8287 C   0  0  0  0  0  0  0  0  0  0  0  0
   -3.8468   -1.6517   -3.2212 H   0  0  0  0  0  0  0  0  0  0  0  0
   -2.5352   -2.6633   -2.5836 H   0  0  0  0  0  0  0  0  0  0  0  0
   -4.2059   -3.2328   -2.4617 H   0  0  0  0  0  0  0  0  0  0  0  0
   -5.0945   -1.2693    0.4297 H   0  0  0  0  0  0  0  0  0  0  0  0
   -5.5315   -2.5930   -0.6273 H   0  0  0  0  0  0  0  0  0  0  0  0
   -5.0942    1.1500   -0.5428 H   0  0  0  0  0  0  0  0  0  0  0  0
   -6.4779    2.7110   -1.8668 H   0  0  0  0  0  0  0  0  0  0  0  0
   -8.1313    1.8383   -3.4982 H   0  0  0  0  0  0  0  0  0  0  0  0
   -8.3989   -0.6082   -3.8032 H   0  0  0  0  0  0  0  0  0  0  0  0
   -7.0242   -2.1831   -2.4902 H   0  0  0  0  0  0  0  0  0  0  0  0
   -1.4327   -0.4825   -2.1723 H   0  0  0  0  0  0  0  0  0  0  0  0
   -0.9695   -1.9420   -1.2696 H   0  0  0  0  0  0  0  0  0  0  0  0
    1.5582    0.8080    0.8297 H   0  0  0  0  0  0  0  0  0  0  0  0
    0.1569    1.0166    1.9422 H   0  0  0  0  0  0  0  0  0  0  0  0
    1.1211   -1.1581    3.0445 H   0  0  0  0  0  0  0  0  0  0  0  0
    4.5168   -1.6502    2.8603 H   0  0  0  0  0  0  0  0  0  0  0  0
    6.5397   -1.7149    1.4541 H   0  0  0  0  0  0  0  0  0  0  0  0
    8.1534   -0.5604   -0.0455 H   0  0  0  0  0  0  0  0  0  0  0  0
    8.9056    1.4838   -1.1960 H   0  0  0  0  0  0  0  0  0  0  0  0
    7.6382    3.6000   -0.9415 H   0  0  0  0  0  0  0  0  0  0  0  0
    5.6159    3.6754    0.4626 H   0  0  0  0  0  0  0  0  0  0  0  0
    3.9972    2.5321    1.9518 H   0  0  0  0  0  0  0  0  0  0  0  0
  1  2  1  0
  2  3  1  0
  3  4  1  0
  4  5  2  0
  5  6  1  0
  6  7  2  0
  7  8  1  0
  8  9  2  0
  2 10  1  0
 10 11  2  0
 10 12  1  0
 12 13  1  0
 13 14  1  0
 14 15  2  0
 14 16  1  0
 16 17  1  0
 17 18  1  0
 18 19  2  0
 18 20  2  0
 18 21  1  0
 21 22  2  0
 22 23  1  0
 23 24  2  0
 24 25  1  0
 25 26  2  0
 26 27  1  0
 27 28  2  0
 28 29  1  0
 29 30  2  0
  9  4  1  0
 30 21  1  0
 29 24  1  0
  1 31  1  0
  1 32  1  0
  1 33  1  0
  3 34  1  0
  3 35  1  0
  5 36  1  0
  6 37  1  0
  7 38  1  0
  8 39  1  0
  9 40  1  0
 12 41  1  0
 12 42  1  0
 16 43  1  0
 16 44  1  0
 17 45  1  0
 22 46  1  0
 23 47  1  0
 25 48  1  0
 26 49  1  0
 27 50  1  0
 28 51  1  0
 30 52  1  0
M  END
$$$$
