
     RDKit          3D

 60 63  0  0  0  0  0  0  0  0999 V2000
   -5.8380    5.4151    1.6588 C   0  0  0  0  0  0  0  0  0  0  0  0
   -4.7368    4.8242    2.3387 O   0  0  0  0  0  0  0  0  0  0  0  0
   -3.9534    3.9656    1.6193 C   0  0  0  0  0  0  0  0  0  0  0  0
   -2.9027    3.3939    2.3409 C   0  0  0  0  0  0  0  0  0  0  0  0
   -2.0266    2.4905    1.7362 C   0  0  0  0  0  0  0  0  0  0  0  0
   -2.2076    2.1427    0.3939 C   0  0  0  0  0  0  0  0  0  0  0  0
   -1.3448    1.2009   -0.2218 N   0  0  0  0  0  0  0  0  0  0  0  0
   -1.6977    0.1163   -1.0211 C   0  0  0  0  0  0  0  0  0  0  0  0
   -3.0809   -0.4089   -1.2368 C   0  0  0  0  0  0  0  0  0  0  0  0
   -3.7167   -0.9303    0.0193 C   0  0  0  0  0  0  0  0  0  0  0  0
   -4.7651   -0.3963    0.7551 C   0  0  0  0  0  0  0  0  0  0  0  0
   -4.9938   -1.2380    1.8652 C   0  0  0  0  0  0  0  0  0  0  0  0
   -4.1004   -2.2834    1.7737 C   0  0  0  0  0  0  0  0  0  0  0  0
   -3.3274   -2.0925    0.6557 N   0  0  0  0  0  0  0  0  0  0  0  0
   -2.2587   -2.9856    0.2496 C   0  0  0  0  0  0  0  0  0  0  0  0
   -0.6019   -0.4810   -1.4639 N   0  0  0  0  0  0  0  0  0  0  0  0
    0.4814    0.1608   -0.9386 N   0  0  0  0  0  0  0  0  0  0  0  0
    0.0402    1.1469   -0.1891 C   0  0  0  0  0  0  0  0  0  0  0  0
    1.0799    2.3165    0.5575 S   0  0  0  0  0  0  0  0  0  0  0  0
    2.2623    2.6205   -0.7853 C   0  0  0  0  0  0  0  0  0  0  0  0
    3.5132    1.7679   -0.6587 C   0  0  0  0  0  0  0  0  0  0  0  0
    4.6279    2.2753   -0.5497 O   0  0  0  0  0  0  0  0  0  0  0  0
    3.3127    0.4071   -0.7398 N   0  0  0  0  0  0  0  0  0  0  0  0
    4.4155   -0.5225   -0.8760 C   0  0  0  0  0  0  0  0  0  0  0  0
    4.0513   -1.9151   -0.3615 C   0  0  0  0  0  0  0  0  0  0  0  0
    5.1470   -2.9145   -0.6436 C   0  0  0  0  0  0  0  0  0  0  0  0
    5.1266   -3.6673   -1.8266 C   0  0  0  0  0  0  0  0  0  0  0  0
    6.1587   -4.5635   -2.1114 C   0  0  0  0  0  0  0  0  0  0  0  0
    7.2221   -4.7076   -1.2220 C   0  0  0  0  0  0  0  0  0  0  0  0
    7.2526   -3.9601   -0.0448 C   0  0  0  0  0  0  0  0  0  0  0  0
    6.2203   -3.0705    0.2467 C   0  0  0  0  0  0  0  0  0  0  0  0
   -3.2523    2.7193   -0.3382 C   0  0  0  0  0  0  0  0  0  0  0  0
   -4.1223    3.6284    0.2755 C   0  0  0  0  0  0  0  0  0  0  0  0
   -6.5524    4.6488    1.3343 H   0  0  0  0  0  0  0  0  0  0  0  0
   -6.3561    6.0746    2.3668 H   0  0  0  0  0  0  0  0  0  0  0  0
   -5.5022    6.0301    0.8167 H   0  0  0  0  0  0  0  0  0  0  0  0
   -2.7695    3.6469    3.3915 H   0  0  0  0  0  0  0  0  0  0  0  0
   -1.2474    2.0407    2.3478 H   0  0  0  0  0  0  0  0  0  0  0  0
   -3.7201    0.3509   -1.6984 H   0  0  0  0  0  0  0  0  0  0  0  0
   -3.0388   -1.2206   -1.9739 H   0  0  0  0  0  0  0  0  0  0  0  0
   -5.3005    0.5172    0.5255 H   0  0  0  0  0  0  0  0  0  0  0  0
   -5.7324   -1.1014    2.6459 H   0  0  0  0  0  0  0  0  0  0  0  0
   -3.9503   -3.1386    2.4217 H   0  0  0  0  0  0  0  0  0  0  0  0
   -2.3755   -3.9428    0.7690 H   0  0  0  0  0  0  0  0  0  0  0  0
   -1.3023   -2.5256    0.5263 H   0  0  0  0  0  0  0  0  0  0  0  0
   -2.3195   -3.1502   -0.8323 H   0  0  0  0  0  0  0  0  0  0  0  0
    2.5643    3.6723   -0.7241 H   0  0  0  0  0  0  0  0  0  0  0  0
    1.8112    2.4693   -1.7735 H   0  0  0  0  0  0  0  0  0  0  0  0
    2.3792    0.0845   -0.9976 H   0  0  0  0  0  0  0  0  0  0  0  0
    5.2906   -0.1309   -0.3466 H   0  0  0  0  0  0  0  0  0  0  0  0
    4.6673   -0.5547   -1.9411 H   0  0  0  0  0  0  0  0  0  0  0  0
    3.8499   -1.8777    0.7187 H   0  0  0  0  0  0  0  0  0  0  0  0
    3.1140   -2.2574   -0.8211 H   0  0  0  0  0  0  0  0  0  0  0  0
    4.3084   -3.5538   -2.5391 H   0  0  0  0  0  0  0  0  0  0  0  0
    6.1351   -5.1452   -3.0299 H   0  0  0  0  0  0  0  0  0  0  0  0
    8.0281   -5.3993   -1.4480 H   0  0  0  0  0  0  0  0  0  0  0  0
    8.0851   -4.0657    0.6446 H   0  0  0  0  0  0  0  0  0  0  0  0
    6.2620   -2.4934    1.1685 H   0  0  0  0  0  0  0  0  0  0  0  0
   -3.3914    2.5097   -1.3960 H   0  0  0  0  0  0  0  0  0  0  0  0
   -4.9213    4.0574   -0.3233 H   0  0  0  0  0  0  0  0  0  0  0  0
  1  2  1  0
  2  3  1  0
  3  4  2  0
  4  5  1  0
  5  6  2  0
  6  7  1  0
  7  8  1  0
  8  9  1  0
  9 10  1  0
 10 11  2  0
 11 12  1  0
 12 13  2  0
 13 14  1  0
 14 15  1  0
  8 16  2  0
 16 17  1  0
 17 18  2  0
 18 19  1  0
 19 20  1  0
 20 21  1  0
 21 22  2  0
 21 23  1  0
 23 24  1  0
 24 25  1  0
 25 26  1  0
 26 27  2  0
 27 28  1  0
 28 29  2  0
 29 30  1  0
 30 31  2  0
  6 32  1  0
 32 33  2  0
 33  3  1  0
 18  7  1  0
 31 26  1  0
 14 10  1  0
  1 34  1  0
  1 35  1  0
  1 36  1  0
  4 37  1  0
  5 38  1  0
  9 39  1  0
  9 40  1  0
 11 41  1  0
 12 42  1  0
 13 43  1  0
 15 44  1  0
 15 45  1  0
 15 46  1  0
 20 47  1  0
 20 48  1  0
 23 49  1  0
 24 50  1  0
 24 51  1  0
 25 52  1  0
 25 53  1  0
 27 54  1  0
 28 55  1  0
 29 56  1  0
 30 57  1  0
 31 58  1  0
 32 59  1  0
 33 60  1  0
M  END
$$$$
