
     RDKit          3D

 50 53  0  0  0  0  0  0  0  0999 V2000
    8.8989    0.1145    1.1486 C   0  0  0  0  0  0  0  0  0  0  0  0
    7.5382   -0.2678    0.5950 C   0  0  0  0  0  0  0  0  0  0  0  0
    6.5958    0.7100    1.0331 O   0  0  0  0  0  0  0  0  0  0  0  0
    5.2793    0.5194    0.7240 C   0  0  0  0  0  0  0  0  0  0  0  0
    4.7971   -0.4786   -0.1282 C   0  0  0  0  0  0  0  0  0  0  0  0
    3.4258   -0.5742   -0.4135 C   0  0  0  0  0  0  0  0  0  0  0  0
    2.5172    0.3380    0.1415 C   0  0  0  0  0  0  0  0  0  0  0  0
    1.0552    0.2578   -0.1303 C   0  0  0  0  0  0  0  0  0  0  0  0
    0.2920    0.5417    0.7839 O   0  0  0  0  0  0  0  0  0  0  0  0
    0.7175   -0.1141   -1.4181 N   0  0  0  0  0  0  0  0  0  0  0  0
   -0.5810   -0.2864   -1.9464 C   0  0  0  0  0  0  0  0  0  0  0  0
   -0.6763   -0.6573   -3.2928 C   0  0  0  0  0  0  0  0  0  0  0  0
   -1.9221   -0.8526   -3.8899 C   0  0  0  0  0  0  0  0  0  0  0  0
   -3.0877   -0.6801   -3.1452 C   0  0  0  0  0  0  0  0  0  0  0  0
   -3.0201   -0.3080   -1.7970 C   0  0  0  0  0  0  0  0  0  0  0  0
   -4.2592   -0.1199   -1.0079 C   0  0  0  0  0  0  0  0  0  0  0  0
   -4.3954   -0.7844    0.1527 C   0  0  0  0  0  0  0  0  0  0  0  0
   -5.5925   -0.6369    0.9630 C   0  0  0  0  0  0  0  0  0  0  0  0
   -5.7549   -1.3046    2.1789 C   0  0  0  0  0  0  0  0  0  0  0  0
   -6.9260   -1.1286    2.9233 C   0  0  0  0  0  0  0  0  0  0  0  0
   -7.9376   -0.2865    2.4561 C   0  0  0  0  0  0  0  0  0  0  0  0
   -7.7810    0.3824    1.2437 C   0  0  0  0  0  0  0  0  0  0  0  0
   -6.6089    0.1972    0.5143 C   0  0  0  0  0  0  0  0  0  0  0  0
   -6.4861    0.8883   -0.7026 O   0  0  0  0  0  0  0  0  0  0  0  0
   -5.3515    0.7739   -1.5011 C   0  0  0  0  0  0  0  0  0  0  0  0
   -5.2729    1.3838   -2.5634 O   0  0  0  0  0  0  0  0  0  0  0  0
   -1.7559   -0.1121   -1.2091 C   0  0  0  0  0  0  0  0  0  0  0  0
    2.9775    1.3304    1.0086 C   0  0  0  0  0  0  0  0  0  0  0  0
    4.3477    1.4040    1.2839 C   0  0  0  0  0  0  0  0  0  0  0  0
    4.7955    2.4440    2.1861 N   0  0  0  0  0  4  0  0  0  0  0  0
    4.6772    3.6122    1.7910 O   0  0  0  0  0  0  0  0  0  0  0  0
    5.2165    2.0923    3.2962 O   0  0  0  0  0  1  0  0  0  0  0  0
    9.6617   -0.6064    0.8408 H   0  0  0  0  0  0  0  0  0  0  0  0
    9.1914    1.1104    0.7992 H   0  0  0  0  0  0  0  0  0  0  0  0
    8.8720    0.1559    2.2427 H   0  0  0  0  0  0  0  0  0  0  0  0
    7.2632   -1.2597    0.9717 H   0  0  0  0  0  0  0  0  0  0  0  0
    7.5872   -0.2803   -0.4998 H   0  0  0  0  0  0  0  0  0  0  0  0
    5.4609   -1.2049   -0.5888 H   0  0  0  0  0  0  0  0  0  0  0  0
    3.0823   -1.3872   -1.0497 H   0  0  0  0  0  0  0  0  0  0  0  0
    1.4711   -0.2236   -2.0835 H   0  0  0  0  0  0  0  0  0  0  0  0
    0.2144   -0.7965   -3.8997 H   0  0  0  0  0  0  0  0  0  0  0  0
   -1.9875   -1.1327   -4.9384 H   0  0  0  0  0  0  0  0  0  0  0  0
   -4.0503   -0.8280   -3.6316 H   0  0  0  0  0  0  0  0  0  0  0  0
   -3.6215   -1.4509    0.5224 H   0  0  0  0  0  0  0  0  0  0  0  0
   -4.9776   -1.9620    2.5607 H   0  0  0  0  0  0  0  0  0  0  0  0
   -7.0487   -1.6480    3.8708 H   0  0  0  0  0  0  0  0  0  0  0  0
   -8.8456   -0.1513    3.0384 H   0  0  0  0  0  0  0  0  0  0  0  0
   -8.5609    1.0407    0.8727 H   0  0  0  0  0  0  0  0  0  0  0  0
   -1.7138    0.1939   -0.1681 H   0  0  0  0  0  0  0  0  0  0  0  0
    2.2795    2.0328    1.4616 H   0  0  0  0  0  0  0  0  0  0  0  0
  1  2  1  0
  2  3  1  0
  3  4  1  0
  4  5  2  0
  5  6  1  0
  6  7  2  0
  7  8  1  0
  8  9  2  0
  8 10  1  0
 10 11  1  0
 11 12  2  0
 12 13  1  0
 13 14  2  0
 14 15  1  0
 15 16  1  0
 16 17  2  0
 17 18  1  0
 18 19  2  0
 19 20  1  0
 20 21  2  0
 21 22  1  0
 22 23  2  0
 23 24  1  0
 24 25  1  0
 25 26  2  0
 15 27  2  0
  7 28  1  0
 28 29  2  0
 29 30  1  0
 30 31  2  0
 30 32  1  0
 29  4  1  0
 27 11  1  0
 25 16  1  0
 23 18  1  0
  1 33  1  0
  1 34  1  0
  1 35  1  0
  2 36  1  0
  2 37  1  0
  5 38  1  0
  6 39  1  0
 10 40  1  0
 12 41  1  0
 13 42  1  0
 14 43  1  0
 17 44  1  0
 19 45  1  0
 20 46  1  0
 21 47  1  0
 22 48  1  0
 27 49  1  0
 28 50  1  0
M  CHG  2  30   1  32  -1
M  END
$$$$
