
     RDKit          3D

 60 65  0  0  0  0  0  0  0  0999 V2000
   -4.5006   -4.9450    1.5121 O   0  0  0  0  0  0  0  0  0  0  0  0
   -3.9324   -3.8945    1.2378 C   0  0  0  0  0  0  0  0  0  0  0  0
   -2.6466   -3.6193    1.6847 N   0  0  0  0  0  0  0  0  0  0  0  0
   -1.9599   -2.4331    1.4232 C   0  0  0  0  0  0  0  0  0  0  0  0
   -0.5488   -2.3831    2.0115 C   0  0  0  0  0  0  0  0  0  0  0  0
    0.0096   -0.9589    2.1067 C   0  0  0  0  0  0  0  0  0  0  0  0
    0.3618   -0.3458    0.7477 C   0  0  0  0  0  0  0  0  0  0  0  0
    0.6715   -1.3956   -0.2459 N   0  0  0  0  0  0  0  0  0  0  0  0
    1.0403   -0.8973   -1.8206 S   0  0  0  0  0  6  0  0  0  0  0  0
    1.1217   -2.0757   -2.6578 O   0  0  0  0  0  0  0  0  0  0  0  0
    0.1665    0.2059   -2.1657 O   0  0  0  0  0  0  0  0  0  0  0  0
    2.6896   -0.2478   -1.6579 C   0  0  0  0  0  0  0  0  0  0  0  0
    3.7874   -1.0861   -1.8828 C   0  0  0  0  0  0  0  0  0  0  0  0
    5.0800   -0.5724   -1.7720 C   0  0  0  0  0  0  0  0  0  0  0  0
    5.2682    0.7707   -1.4486 C   0  0  0  0  0  0  0  0  0  0  0  0
    4.1649    1.6148   -1.2733 C   0  0  0  0  0  0  0  0  0  0  0  0
    2.8716    1.1086   -1.3723 C   0  0  0  0  0  0  0  0  0  0  0  0
    4.2806    2.9529   -0.9940 O   0  0  0  0  0  0  0  0  0  0  0  0
    5.6048    3.4288   -1.2647 C   0  0  0  0  0  0  0  0  0  0  0  0
    6.6434    2.4774   -0.6937 C   0  0  0  0  0  0  0  0  0  0  0  0
    6.5656    1.1971   -1.3332 O   0  0  0  0  0  0  0  0  0  0  0  0
    1.3712   -2.5572    0.3137 C   0  0  0  0  0  0  0  0  0  0  0  0
    0.3958   -3.3125    1.2191 C   0  0  0  0  0  0  0  0  0  0  0  0
   -2.4504   -1.4528    0.7178 N   0  0  0  0  0  0  0  0  0  0  0  0
   -3.6953   -1.7061    0.2459 C   0  0  0  0  0  0  0  0  0  0  0  0
   -4.4678   -2.8251    0.4417 C   0  0  0  0  0  0  0  0  0  0  0  0
   -5.6496   -2.7180   -0.2233 N   0  0  0  0  0  0  0  0  0  0  0  0
   -5.6376   -1.5478   -0.8612 N   0  0  0  0  0  0  0  0  0  0  0  0
   -4.4629   -0.9273   -0.5750 N   0  0  0  0  0  0  0  0  0  0  0  0
   -4.1012    0.3086   -1.2460 C   0  0  0  0  0  0  0  0  0  0  0  0
   -3.8649    1.4557   -0.3006 C   0  0  0  0  0  0  0  0  0  0  0  0
   -2.6401    2.1403   -0.3032 C   0  0  0  0  0  0  0  0  0  0  0  0
   -2.4251    3.2174    0.5617 C   0  0  0  0  0  0  0  0  0  0  0  0
   -3.4333    3.6304    1.4319 C   0  0  0  0  0  0  0  0  0  0  0  0
   -4.6591    2.9689    1.4320 C   0  0  0  0  0  0  0  0  0  0  0  0
   -4.8664    1.8964    0.5679 C   0  0  0  0  0  0  0  0  0  0  0  0
   -6.0626    1.2938    0.5716 F   0  0  0  0  0  0  0  0  0  0  0  0
   -2.2294   -4.3506    2.2407 H   0  0  0  0  0  0  0  0  0  0  0  0
   -0.6357   -2.7822    3.0322 H   0  0  0  0  0  0  0  0  0  0  0  0
    0.9205   -0.9891    2.7205 H   0  0  0  0  0  0  0  0  0  0  0  0
   -0.6868   -0.2969    2.6358 H   0  0  0  0  0  0  0  0  0  0  0  0
    1.2109    0.3329    0.8750 H   0  0  0  0  0  0  0  0  0  0  0  0
   -0.4841    0.2466    0.3898 H   0  0  0  0  0  0  0  0  0  0  0  0
    3.6453   -2.1311   -2.1479 H   0  0  0  0  0  0  0  0  0  0  0  0
    5.9399   -1.2166   -1.9364 H   0  0  0  0  0  0  0  0  0  0  0  0
    2.0204    1.7720   -1.2400 H   0  0  0  0  0  0  0  0  0  0  0  0
    5.7016    4.4162   -0.8024 H   0  0  0  0  0  0  0  0  0  0  0  0
    5.7195    3.5457   -2.3499 H   0  0  0  0  0  0  0  0  0  0  0  0
    7.6506    2.8708   -0.8621 H   0  0  0  0  0  0  0  0  0  0  0  0
    6.5077    2.3348    0.3862 H   0  0  0  0  0  0  0  0  0  0  0  0
    1.7295   -3.2389   -0.4636 H   0  0  0  0  0  0  0  0  0  0  0  0
    2.2468   -2.2236    0.8836 H   0  0  0  0  0  0  0  0  0  0  0  0
    0.9797   -3.9251    1.9178 H   0  0  0  0  0  0  0  0  0  0  0  0
   -0.1794   -4.0172    0.6057 H   0  0  0  0  0  0  0  0  0  0  0  0
   -4.9011    0.5684   -1.9490 H   0  0  0  0  0  0  0  0  0  0  0  0
   -3.2043    0.0870   -1.8367 H   0  0  0  0  0  0  0  0  0  0  0  0
   -1.8436    1.8374   -0.9809 H   0  0  0  0  0  0  0  0  0  0  0  0
   -1.4704    3.7375    0.5502 H   0  0  0  0  0  0  0  0  0  0  0  0
   -3.2683    4.4713    2.1016 H   0  0  0  0  0  0  0  0  0  0  0  0
   -5.4597    3.2838    2.0946 H   0  0  0  0  0  0  0  0  0  0  0  0
  1  2  2  0
  2  3  1  0
  3  4  1  0
  4  5  1  0
  5  6  1  0
  6  7  1  0
  7  8  1  0
  8  9  1  0
  9 10  2  0
  9 11  2  0
  9 12  1  0
 12 13  2  0
 13 14  1  0
 14 15  2  0
 15 16  1  0
 16 17  2  0
 16 18  1  0
 18 19  1  0
 19 20  1  0
 20 21  1  0
  8 22  1  0
 22 23  1  0
  4 24  2  0
 24 25  1  0
 25 26  2  0
 26 27  1  0
 27 28  2  0
 28 29  1  0
 29 30  1  0
 30 31  1  0
 31 32  2  0
 32 33  1  0
 33 34  2  0
 34 35  1  0
 35 36  2  0
 36 37  1  0
 26  2  1  0
 36 31  1  0
 23  5  1  0
 29 25  1  0
 17 12  1  0
 21 15  1  0
  3 38  1  0
  5 39  1  0
  6 40  1  0
  6 41  1  0
  7 42  1  0
  7 43  1  0
 13 44  1  0
 14 45  1  0
 17 46  1  0
 19 47  1  0
 19 48  1  0
 20 49  1  0
 20 50  1  0
 22 51  1  0
 22 52  1  0
 23 53  1  0
 23 54  1  0
 30 55  1  0
 30 56  1  0
 32 57  1  0
 33 58  1  0
 34 59  1  0
 35 60  1  0
M  END
$$$$
