
     RDKit          3D

 47 48  0  0  0  0  0  0  0  0999 V2000
    4.4737    2.0333    4.1389 C   0  0  0  0  0  0  0  0  0  0  0  0
    3.0331    2.5012    4.2228 C   0  0  0  0  0  0  0  0  0  0  0  0
    2.4763    2.6264    2.9049 O   0  0  0  0  0  0  0  0  0  0  0  0
    1.9326    1.5013    2.3733 C   0  0  0  0  0  0  0  0  0  0  0  0
    1.8937    0.4121    2.9283 O   0  0  0  0  0  0  0  0  0  0  0  0
    1.3921    1.7735    1.0107 C   0  0  0  0  0  0  0  0  0  0  0  0
    1.4582    3.0969    0.5004 C   0  0  0  0  0  0  0  0  0  0  0  0
    1.5149    4.1741    0.0700 N   0  0  0  0  0  0  0  0  0  0  0  0
    0.8352    0.7300    0.3619 C   0  0  0  0  0  0  0  0  0  0  0  0
    0.2184    0.6373   -0.9694 C   0  0  0  0  0  0  0  0  0  0  0  0
   -0.6818   -0.3430   -1.2624 C   0  0  0  0  0  0  0  0  0  0  0  0
   -1.1892   -1.2049   -0.2674 N   0  0  0  0  0  0  0  0  0  0  0  0
   -2.0645   -0.6939    0.8172 C   0  0  0  0  0  0  0  0  0  0  0  0
   -3.1335   -1.7324    1.1898 C   0  0  0  0  0  0  0  0  0  0  0  0
   -2.5893   -2.9840    1.6368 O   0  0  0  0  0  0  0  0  0  0  0  0
   -1.3145   -3.2886    1.0488 C   0  0  0  0  0  0  0  0  0  0  0  0
   -1.1268   -2.6762   -0.3479 C   0  0  0  0  0  0  0  0  0  0  0  0
   -1.2609   -0.4775   -2.7072 C   0  0  0  0  0  0  0  0  0  0  0  0
   -2.7980   -0.5029   -2.6868 C   0  0  0  0  0  0  0  0  0  0  0  0
   -0.7412   -1.7265   -3.4400 C   0  0  0  0  0  0  0  0  0  0  0  0
   -0.9491    0.6707   -3.5288 O   0  0  0  0  0  0  0  0  0  0  0  0
    0.4094    1.0730   -3.4411 C   0  0  0  0  0  0  0  0  0  0  0  0
    0.6839    1.5949   -2.0424 C   0  0  0  0  0  0  0  0  0  0  0  0
    4.5385    1.0407    3.6822 H   0  0  0  0  0  0  0  0  0  0  0  0
    5.0621    2.7114    3.5120 H   0  0  0  0  0  0  0  0  0  0  0  0
    4.9261    1.9902    5.1337 H   0  0  0  0  0  0  0  0  0  0  0  0
    2.9942    3.4945    4.6817 H   0  0  0  0  0  0  0  0  0  0  0  0
    2.4294    1.8334    4.8480 H   0  0  0  0  0  0  0  0  0  0  0  0
    0.8178   -0.2269    0.8903 H   0  0  0  0  0  0  0  0  0  0  0  0
   -2.5547    0.2363    0.5081 H   0  0  0  0  0  0  0  0  0  0  0  0
   -1.4472   -0.4815    1.6972 H   0  0  0  0  0  0  0  0  0  0  0  0
   -3.7701   -1.3466    1.9923 H   0  0  0  0  0  0  0  0  0  0  0  0
   -3.7818   -1.9397    0.3305 H   0  0  0  0  0  0  0  0  0  0  0  0
   -0.5371   -2.9295    1.7335 H   0  0  0  0  0  0  0  0  0  0  0  0
   -1.2299   -4.3787    0.9979 H   0  0  0  0  0  0  0  0  0  0  0  0
   -0.1583   -2.9881   -0.7534 H   0  0  0  0  0  0  0  0  0  0  0  0
   -1.9223   -3.0403   -1.0061 H   0  0  0  0  0  0  0  0  0  0  0  0
   -3.1989   -1.3841   -2.1776 H   0  0  0  0  0  0  0  0  0  0  0  0
   -3.1996   -0.4934   -3.7074 H   0  0  0  0  0  0  0  0  0  0  0  0
   -3.1955    0.3914   -2.1921 H   0  0  0  0  0  0  0  0  0  0  0  0
    0.3401   -1.8478   -3.3116 H   0  0  0  0  0  0  0  0  0  0  0  0
   -1.2193   -2.6460   -3.0929 H   0  0  0  0  0  0  0  0  0  0  0  0
   -0.9232   -1.6467   -4.5184 H   0  0  0  0  0  0  0  0  0  0  0  0
    0.5708    1.8727   -4.1716 H   0  0  0  0  0  0  0  0  0  0  0  0
    1.0816    0.2516   -3.7117 H   0  0  0  0  0  0  0  0  0  0  0  0
    0.1456    2.5415   -1.9123 H   0  0  0  0  0  0  0  0  0  0  0  0
    1.7591    1.7908   -1.9626 H   0  0  0  0  0  0  0  0  0  0  0  0
  1  2  1  0
  2  3  1  0
  3  4  1  0
  4  5  2  0
  4  6  1  0
  6  7  1  0
  7  8  3  0
  6  9  2  3
  9 10  1  0
 10 11  2  0
 11 12  1  0
 12 13  1  0
 13 14  1  0
 14 15  1  0
 15 16  1  0
 16 17  1  0
 11 18  1  0
 18 19  1  0
 18 20  1  0
 18 21  1  0
 21 22  1  0
 22 23  1  0
 23 10  1  0
 17 12  1  0
  1 24  1  0
  1 25  1  0
  1 26  1  0
  2 27  1  0
  2 28  1  0
  9 29  1  0
 13 30  1  0
 13 31  1  0
 14 32  1  0
 14 33  1  0
 16 34  1  0
 16 35  1  0
 17 36  1  0
 17 37  1  0
 19 38  1  0
 19 39  1  0
 19 40  1  0
 20 41  1  0
 20 42  1  0
 20 43  1  0
 22 44  1  0
 22 45  1  0
 23 46  1  0
 23 47  1  0
M  END
$$$$
