
     RDKit          3D

 74 75  0  0  0  0  0  0  0  0999 V2000
    1.1832   -0.1829    7.6779 C   0  0  0  0  0  0  0  0  0  0  0  0
    0.4161   -0.4544    6.5137 O   0  0  0  0  0  0  0  0  0  0  0  0
    0.7167    0.2334    5.3660 C   0  0  0  0  0  0  0  0  0  0  0  0
    1.7147    1.2072    5.2796 C   0  0  0  0  0  0  0  0  0  0  0  0
    2.0107    1.7979    4.0516 C   0  0  0  0  0  0  0  0  0  0  0  0
    1.3048    1.4404    2.9016 C   0  0  0  0  0  0  0  0  0  0  0  0
    0.2537    0.5144    2.9529 C   0  0  0  0  0  0  0  0  0  0  0  0
   -0.5356    0.0867    1.7087 C   0  0  0  0  0  0  0  0  0  0  0  0
   -2.0850    0.1614    1.8435 C   0  0  0  0  0  0  0  0  0  0  0  0
   -2.6721    0.8283    2.6906 O   0  0  0  0  0  0  0  0  0  0  0  0
   -2.7500   -0.6132    0.9015 N   0  0  0  0  0  0  0  0  0  0  0  0
   -4.2030   -0.8076    0.8475 C   0  0  0  0  0  0  0  0  0  0  0  0
   -4.5215   -1.6599   -0.3956 C   0  0  0  0  0  0  0  0  0  0  0  0
   -4.9497    0.5317    0.7075 C   0  0  0  0  0  0  0  0  0  0  0  0
   -4.6961   -1.5535    2.0977 C   0  0  0  0  0  0  0  0  0  0  0  0
   -0.0235    0.5894    0.3656 N   0  0  0  0  0  0  0  0  0  0  0  0
    0.7123   -0.3742   -0.3487 C   0  0  0  0  0  0  0  0  0  0  0  0
    0.9208   -1.5036    0.1182 O   0  0  0  0  0  0  0  0  0  0  0  0
    1.2723   -0.0736   -1.7261 C   0  0  0  0  0  0  0  0  0  0  0  0
    2.1728   -1.2065   -2.2375 C   0  0  0  0  0  0  0  0  0  0  0  0
    2.6663   -0.9328   -3.6473 C   0  0  0  0  0  0  0  0  0  0  0  0
    2.3050    0.0510   -4.2901 O   0  0  0  0  0  0  0  0  0  0  0  0
    3.5351   -1.9098   -4.0844 N   0  0  0  0  0  0  0  0  0  0  0  0
    4.1482   -1.9374   -5.3171 C   0  0  0  0  0  0  0  0  0  0  0  0
    4.0702   -1.0129   -6.3829 C   0  0  0  0  0  0  0  0  0  0  0  0
    4.8754   -1.5422   -7.3600 C   0  0  0  0  0  0  0  0  0  0  0  0
    5.2612   -1.1223   -8.7179 C   0  0  0  0  0  0  0  0  0  0  0  0
    5.4055   -2.7109   -6.9125 O   0  0  0  0  0  0  0  0  0  0  0  0
    4.9528   -2.9587   -5.6329 N   0  0  0  0  0  0  0  0  0  0  0  0
   -0.4570    1.9674   -0.1644 C   0  0  0  0  0  0  0  0  0  0  0  0
    0.7431    2.8058   -0.6813 C   0  0  0  0  0  0  0  0  0  0  0  0
   -1.4769    1.8080   -1.3180 C   0  0  0  0  0  0  0  0  0  0  0  0
   -1.1653    2.8707    0.8852 C   0  0  0  0  0  0  0  0  0  0  0  0
   -0.0202   -0.0947    4.2048 C   0  0  0  0  0  0  0  0  0  0  0  0
   -0.9697   -1.0954    4.2052 O   0  0  0  0  0  0  0  0  0  0  0  0
   -1.9894   -0.9132    5.1895 C   0  0  0  0  0  0  0  0  0  0  0  0
    0.8368   -0.8525    8.4718 H   0  0  0  0  0  0  0  0  0  0  0  0
    2.2448   -0.3961    7.5123 H   0  0  0  0  0  0  0  0  0  0  0  0
    1.0197    0.8438    8.0233 H   0  0  0  0  0  0  0  0  0  0  0  0
    2.2948    1.5154    6.1449 H   0  0  0  0  0  0  0  0  0  0  0  0
    2.8040    2.5406    3.9870 H   0  0  0  0  0  0  0  0  0  0  0  0
    1.5954    1.8993    1.9652 H   0  0  0  0  0  0  0  0  0  0  0  0
   -0.3728   -0.9989    1.7188 H   0  0  0  0  0  0  0  0  0  0  0  0
   -2.1723   -1.2577    0.3687 H   0  0  0  0  0  0  0  0  0  0  0  0
   -5.5995   -1.8043   -0.5133 H   0  0  0  0  0  0  0  0  0  0  0  0
   -4.0628   -2.6506   -0.3192 H   0  0  0  0  0  0  0  0  0  0  0  0
   -4.1412   -1.1920   -1.3113 H   0  0  0  0  0  0  0  0  0  0  0  0
   -6.0281    0.3730    0.5896 H   0  0  0  0  0  0  0  0  0  0  0  0
   -4.8184    1.1695    1.5863 H   0  0  0  0  0  0  0  0  0  0  0  0
   -4.5910    1.0906   -0.1640 H   0  0  0  0  0  0  0  0  0  0  0  0
   -4.1578   -2.4988    2.2321 H   0  0  0  0  0  0  0  0  0  0  0  0
   -4.5518   -0.9589    3.0075 H   0  0  0  0  0  0  0  0  0  0  0  0
   -5.7630   -1.7889    2.0225 H   0  0  0  0  0  0  0  0  0  0  0  0
    0.4379    0.0401   -2.4256 H   0  0  0  0  0  0  0  0  0  0  0  0
    1.8855    0.8348   -1.7040 H   0  0  0  0  0  0  0  0  0  0  0  0
    1.6328   -2.1626   -2.2406 H   0  0  0  0  0  0  0  0  0  0  0  0
    3.0433   -1.3100   -1.5760 H   0  0  0  0  0  0  0  0  0  0  0  0
    3.7557   -2.7030   -3.4974 H   0  0  0  0  0  0  0  0  0  0  0  0
    3.5060   -0.0938   -6.4380 H   0  0  0  0  0  0  0  0  0  0  0  0
    4.6391   -0.2908   -9.0617 H   0  0  0  0  0  0  0  0  0  0  0  0
    5.1444   -1.9485   -9.4264 H   0  0  0  0  0  0  0  0  0  0  0  0
    6.3054   -0.7980   -8.7368 H   0  0  0  0  0  0  0  0  0  0  0  0
    1.6540    2.6271   -0.0963 H   0  0  0  0  0  0  0  0  0  0  0  0
    0.5430    3.8863   -0.6477 H   0  0  0  0  0  0  0  0  0  0  0  0
    0.9553    2.6159   -1.7392 H   0  0  0  0  0  0  0  0  0  0  0  0
   -1.0303    1.4123   -2.2320 H   0  0  0  0  0  0  0  0  0  0  0  0
   -2.2932    1.1330   -1.0465 H   0  0  0  0  0  0  0  0  0  0  0  0
   -1.9143    2.7763   -1.5879 H   0  0  0  0  0  0  0  0  0  0  0  0
   -0.6156    2.9483    1.8253 H   0  0  0  0  0  0  0  0  0  0  0  0
   -1.2883    3.8944    0.5068 H   0  0  0  0  0  0  0  0  0  0  0  0
   -2.1839    2.5344    1.0880 H   0  0  0  0  0  0  0  0  0  0  0  0
   -1.7831   -1.5462    6.0591 H   0  0  0  0  0  0  0  0  0  0  0  0
   -2.1202    0.1297    5.4980 H   0  0  0  0  0  0  0  0  0  0  0  0
   -2.9363   -1.2470    4.7537 H   0  0  0  0  0  0  0  0  0  0  0  0
  1  2  1  0
  2  3  1  0
  3  4  2  0
  4  5  1  0
  5  6  2  0
  6  7  1  0
  7  8  1  0
  8  9  1  0
  9 10  2  0
  9 11  1  0
 11 12  1  0
 12 13  1  0
 12 14  1  0
 12 15  1  0
  8 16  1  0
 16 17  1  0
 17 18  2  0
 17 19  1  0
 19 20  1  0
 20 21  1  0
 21 22  2  0
 21 23  1  0
 23 24  1  0
 24 25  1  0
 25 26  2  0
 26 27  1  0
 26 28  1  0
 28 29  1  0
 16 30  1  0
 30 31  1  0
 30 32  1  0
 30 33  1  0
  7 34  2  0
 34 35  1  0
 35 36  1  0
 34  3  1  0
 29 24  2  0
  1 37  1  0
  1 38  1  0
  1 39  1  0
  4 40  1  0
  5 41  1  0
  6 42  1  0
  8 43  1  0
 11 44  1  0
 13 45  1  0
 13 46  1  0
 13 47  1  0
 14 48  1  0
 14 49  1  0
 14 50  1  0
 15 51  1  0
 15 52  1  0
 15 53  1  0
 19 54  1  0
 19 55  1  0
 20 56  1  0
 20 57  1  0
 23 58  1  0
 25 59  1  0
 27 60  1  0
 27 61  1  0
 27 62  1  0
 31 63  1  0
 31 64  1  0
 31 65  1  0
 32 66  1  0
 32 67  1  0
 32 68  1  0
 33 69  1  0
 33 70  1  0
 33 71  1  0
 36 72  1  0
 36 73  1  0
 36 74  1  0
M  END
$$$$
