
     RDKit          3D

 57 59  0  0  0  0  0  0  0  0999 V2000
   -9.3896   -1.9522   -1.9780 C   0  0  0  0  0  0  0  0  0  0  0  0
   -8.0266   -2.3556   -1.9304 O   0  0  0  0  0  0  0  0  0  0  0  0
   -7.0924   -1.3695   -1.7718 C   0  0  0  0  0  0  0  0  0  0  0  0
   -5.7673   -1.8193   -1.7687 C   0  0  0  0  0  0  0  0  0  0  0  0
   -4.7101   -0.9215   -1.6136 C   0  0  0  0  0  0  0  0  0  0  0  0
   -4.9867    0.4372   -1.4545 C   0  0  0  0  0  0  0  0  0  0  0  0
   -3.6376    1.5712   -1.2560 S   0  0  0  0  0  6  0  0  0  0  0  0
   -4.1743    2.9045   -1.0812 O   0  0  0  0  0  0  0  0  0  0  0  0
   -2.6667    1.2802   -2.2866 O   0  0  0  0  0  0  0  0  0  0  0  0
   -2.9836    1.1003    0.2275 N   0  0  0  0  0  0  0  0  0  0  0  0
   -3.8091    1.3193    1.4331 C   0  0  0  0  0  0  0  0  0  0  0  0
   -3.0282    2.3476    2.2190 C   0  0  0  0  0  0  0  0  0  0  0  0
   -1.6675    2.0332    1.9151 O   0  0  0  0  0  0  0  0  0  0  0  0
   -1.6651    1.7126    0.5074 C   0  0  0  0  0  0  0  0  0  0  0  0
   -0.5239    0.7226    0.2261 C   0  0  0  0  0  0  0  0  0  0  0  0
    0.7762    1.2542    0.5969 N   0  0  0  0  0  0  0  0  0  0  0  0
    1.9438    0.6664    0.1680 C   0  0  0  0  0  0  0  0  0  0  0  0
    2.0404   -0.2056   -0.6838 O   0  0  0  0  0  0  0  0  0  0  0  0
    3.2055    1.1983    0.8885 C   0  0  0  0  0  0  0  0  0  0  0  0
    3.0954    2.0226    1.7854 O   0  0  0  0  0  0  0  0  0  0  0  0
    4.3723    0.6548    0.4192 N   0  0  0  0  0  0  0  0  0  0  0  0
    5.6760    1.0267    0.9044 C   0  0  0  0  0  0  0  0  0  0  0  0
    6.4748   -0.1950    1.2838 C   0  0  0  0  0  0  0  0  0  0  0  0
    6.5358   -0.5792    2.6345 C   0  0  0  0  0  0  0  0  0  0  0  0
    7.2511   -1.7112    3.0193 C   0  0  0  0  0  0  0  0  0  0  0  0
    7.9060   -2.4746    2.0584 C   0  0  0  0  0  0  0  0  0  0  0  0
    7.8426   -2.1129    0.7102 C   0  0  0  0  0  0  0  0  0  0  0  0
    7.1250   -0.9799    0.3123 C   0  0  0  0  0  0  0  0  0  0  0  0
    6.9930   -0.5549   -0.9842 O   0  0  0  0  0  0  0  0  0  0  0  0
    7.5682   -1.3667   -2.0002 C   0  0  0  0  0  0  0  0  0  0  0  0
   -6.3037    0.9023   -1.4623 C   0  0  0  0  0  0  0  0  0  0  0  0
   -7.3565   -0.0057   -1.6187 C   0  0  0  0  0  0  0  0  0  0  0  0
   -9.5743   -1.2835   -2.8251 H   0  0  0  0  0  0  0  0  0  0  0  0
   -9.9989   -2.8493   -2.1235 H   0  0  0  0  0  0  0  0  0  0  0  0
   -9.6971   -1.4899   -1.0344 H   0  0  0  0  0  0  0  0  0  0  0  0
   -5.5591   -2.8798   -1.8944 H   0  0  0  0  0  0  0  0  0  0  0  0
   -3.6842   -1.2838   -1.6217 H   0  0  0  0  0  0  0  0  0  0  0  0
   -3.8561    0.3687    1.9760 H   0  0  0  0  0  0  0  0  0  0  0  0
   -4.8316    1.6475    1.2344 H   0  0  0  0  0  0  0  0  0  0  0  0
   -3.2382    3.3682    1.8794 H   0  0  0  0  0  0  0  0  0  0  0  0
   -3.2014    2.2828    3.2964 H   0  0  0  0  0  0  0  0  0  0  0  0
   -1.5131    2.6524   -0.0368 H   0  0  0  0  0  0  0  0  0  0  0  0
   -0.5031    0.4318   -0.8294 H   0  0  0  0  0  0  0  0  0  0  0  0
   -0.6613   -0.1911    0.8170 H   0  0  0  0  0  0  0  0  0  0  0  0
    0.8491    1.8117    1.4466 H   0  0  0  0  0  0  0  0  0  0  0  0
    4.3062   -0.0070   -0.3489 H   0  0  0  0  0  0  0  0  0  0  0  0
    5.5856    1.7083    1.7576 H   0  0  0  0  0  0  0  0  0  0  0  0
    6.1818    1.5890    0.1121 H   0  0  0  0  0  0  0  0  0  0  0  0
    6.0192    0.0061    3.3929 H   0  0  0  0  0  0  0  0  0  0  0  0
    7.2941   -1.9975    4.0670 H   0  0  0  0  0  0  0  0  0  0  0  0
    8.4644   -3.3583    2.3567 H   0  0  0  0  0  0  0  0  0  0  0  0
    8.3644   -2.7401   -0.0046 H   0  0  0  0  0  0  0  0  0  0  0  0
    8.6573   -1.4122   -1.8990 H   0  0  0  0  0  0  0  0  0  0  0  0
    7.1265   -2.3686   -2.0033 H   0  0  0  0  0  0  0  0  0  0  0  0
    7.3440   -0.9019   -2.9652 H   0  0  0  0  0  0  0  0  0  0  0  0
   -6.5217    1.9625   -1.3519 H   0  0  0  0  0  0  0  0  0  0  0  0
   -8.3700    0.3837   -1.6192 H   0  0  0  0  0  0  0  0  0  0  0  0
  1  2  1  0
  2  3  1  0
  3  4  2  0
  4  5  1  0
  5  6  2  0
  6  7  1  0
  7  8  2  0
  7  9  2  0
  7 10  1  0
 10 11  1  0
 11 12  1  0
 12 13  1  0
 13 14  1  0
 14 15  1  0
 15 16  1  0
 16 17  1  0
 17 18  2  0
 17 19  1  0
 19 20  2  0
 19 21  1  0
 21 22  1  0
 22 23  1  0
 23 24  2  0
 24 25  1  0
 25 26  2  0
 26 27  1  0
 27 28  2  0
 28 29  1  0
 29 30  1  0
  6 31  1  0
 31 32  2  0
 32  3  1  0
 14 10  1  0
 28 23  1  0
  1 33  1  0
  1 34  1  0
  1 35  1  0
  4 36  1  0
  5 37  1  0
 11 38  1  0
 11 39  1  0
 12 40  1  0
 12 41  1  0
 14 42  1  0
 15 43  1  0
 15 44  1  0
 16 45  1  0
 21 46  1  0
 22 47  1  0
 22 48  1  0
 24 49  1  0
 25 50  1  0
 26 51  1  0
 27 52  1  0
 30 53  1  0
 30 54  1  0
 30 55  1  0
 31 56  1  0
 32 57  1  0
M  END
$$$$
