
     RDKit          3D

 37 39  0  0  0  0  0  0  0  0999 V2000
    8.0243    0.4745    0.8217 C   0  0  0  0  0  0  0  0  0  0  0  0
    6.5997   -0.0551    0.8641 C   0  0  0  0  0  0  0  0  0  0  0  0
    5.9229    0.0502   -0.5026 C   0  0  0  0  0  0  0  0  0  0  0  0
    4.5326   -0.4938   -0.4644 C   0  0  0  0  0  0  0  0  0  0  0  0
    4.2176   -1.7621   -0.6299 N   0  0  0  0  0  0  0  0  0  0  0  0
    2.8559   -1.9698   -0.5409 N   0  0  0  0  0  0  0  0  0  0  0  0
    2.1969   -0.8552   -0.3134 C   0  0  0  0  0  0  0  0  0  0  0  0
    0.8302   -0.8385   -0.1895 N   0  0  0  0  0  0  0  0  0  0  0  0
    0.0308    0.2634    0.0503 C   0  0  0  0  0  0  0  0  0  0  0  0
    0.4134    1.4193    0.1932 O   0  0  0  0  0  0  0  0  0  0  0  0
   -1.4522   -0.1288    0.1218 C   0  0  0  0  0  0  0  0  0  0  0  0
   -2.2762    0.9983    0.3754 O   0  0  0  0  0  0  0  0  0  0  0  0
   -3.6243    0.7817    0.4632 C   0  0  0  0  0  0  0  0  0  0  0  0
   -4.3812    1.9432    0.7195 C   0  0  0  0  0  0  0  0  0  0  0  0
   -5.7735    1.8894    0.8375 C   0  0  0  0  0  0  0  0  0  0  0  0
   -6.3753    0.6604    0.6938 C   0  0  0  0  0  0  0  0  0  0  0  0
   -5.6421   -0.4754    0.4437 C   0  0  0  0  0  0  0  0  0  0  0  0
   -4.2664   -0.4514    0.3225 C   0  0  0  0  0  0  0  0  0  0  0  0
   -6.4249   -1.5836    0.3359 O   0  0  0  0  0  0  0  0  0  0  0  0
   -7.7340   -1.0126    0.5468 C   0  0  0  0  0  0  0  0  0  0  0  0
   -7.7088    0.4113    0.7748 O   0  0  0  0  0  0  0  0  0  0  0  0
    3.1801    0.5285   -0.1913 S   0  0  0  0  0  0  0  0  0  0  0  0
    8.6325   -0.0925    0.1097 H   0  0  0  0  0  0  0  0  0  0  0  0
    8.4897    0.3897    1.8087 H   0  0  0  0  0  0  0  0  0  0  0  0
    8.0424    1.5286    0.5271 H   0  0  0  0  0  0  0  0  0  0  0  0
    6.0296    0.5082    1.6129 H   0  0  0  0  0  0  0  0  0  0  0  0
    6.6141   -1.1000    1.1977 H   0  0  0  0  0  0  0  0  0  0  0  0
    5.9191    1.0933   -0.8417 H   0  0  0  0  0  0  0  0  0  0  0  0
    6.5001   -0.5163   -1.2440 H   0  0  0  0  0  0  0  0  0  0  0  0
    0.4153   -1.7546   -0.2917 H   0  0  0  0  0  0  0  0  0  0  0  0
   -1.5579   -0.8608    0.9321 H   0  0  0  0  0  0  0  0  0  0  0  0
   -1.7176   -0.5785   -0.8429 H   0  0  0  0  0  0  0  0  0  0  0  0
   -3.8708    2.8987    0.8272 H   0  0  0  0  0  0  0  0  0  0  0  0
   -6.3561    2.7817    1.0346 H   0  0  0  0  0  0  0  0  0  0  0  0
   -3.7425   -1.3766    0.1252 H   0  0  0  0  0  0  0  0  0  0  0  0
   -8.3509   -1.2157   -0.3362 H   0  0  0  0  0  0  0  0  0  0  0  0
   -8.1924   -1.4991    1.4155 H   0  0  0  0  0  0  0  0  0  0  0  0
  1  2  1  0
  2  3  1  0
  3  4  1  0
  4  5  2  0
  5  6  1  0
  6  7  2  0
  7  8  1  0
  8  9  1  0
  9 10  2  0
  9 11  1  0
 11 12  1  0
 12 13  1  0
 13 14  2  0
 14 15  1  0
 15 16  2  0
 16 17  1  0
 17 18  2  0
 17 19  1  0
 19 20  1  0
 20 21  1  0
  7 22  1  0
 22  4  1  0
 18 13  1  0
 21 16  1  0
  1 23  1  0
  1 24  1  0
  1 25  1  0
  2 26  1  0
  2 27  1  0
  3 28  1  0
  3 29  1  0
  8 30  1  0
 11 31  1  0
 11 32  1  0
 14 33  1  0
 15 34  1  0
 18 35  1  0
 20 36  1  0
 20 37  1  0
M  END
$$$$
