
     RDKit          3D

 33 34  0  0  0  0  0  0  0  0999 V2000
   -3.1383    1.3777    1.6955 C   0  0  0  0  0  0  0  0  0  0  0  0
   -1.8469    0.5968    1.4846 C   0  0  0  0  0  0  0  0  0  0  0  0
   -1.5769    0.4710    0.0367 N   0  0  0  0  0  0  0  0  0  0  0  0
   -2.2289   -0.7006   -0.5910 C   0  0  0  0  0  0  0  0  0  0  0  0
   -2.3795   -0.5079   -2.0945 C   0  0  0  0  0  0  0  0  0  0  0  0
   -0.1658    0.4950   -0.2264 C   0  0  0  0  0  0  0  0  0  0  0  0
    0.2559    1.5332   -1.0801 C   0  0  0  0  0  0  0  0  0  0  0  0
    1.5901    1.6725   -1.4202 C   0  0  0  0  0  0  0  0  0  0  0  0
    2.5056    0.7587   -0.8968 C   0  0  0  0  0  0  0  0  0  0  0  0
    3.8910    0.9356   -1.2913 N   0  0  0  0  0  4  0  0  0  0  0  0
    4.4202    0.0208   -1.9362 O   0  0  0  0  0  0  0  0  0  0  0  0
    4.4358    1.9992   -0.9679 O   0  0  0  0  0  1  0  0  0  0  0  0
    2.1357   -0.2952   -0.0207 C   0  0  0  0  0  0  0  0  0  0  0  0
    3.0435   -1.2224    0.5521 C   0  0  0  0  0  0  0  0  0  0  0  0
    2.6006   -2.2237    1.4042 C   0  0  0  0  0  0  0  0  0  0  0  0
    1.2548   -2.2788    1.6731 C   0  0  0  0  0  0  0  0  0  0  0  0
    0.3574   -1.4149    1.1567 N   0  0  0  0  0  0  0  0  0  0  0  0
    0.7689   -0.4294    0.3208 C   0  0  0  0  0  0  0  0  0  0  0  0
   -3.0748    2.3685    1.2333 H   0  0  0  0  0  0  0  0  0  0  0  0
   -3.3301    1.5105    2.7649 H   0  0  0  0  0  0  0  0  0  0  0  0
   -3.9983    0.8601    1.2595 H   0  0  0  0  0  0  0  0  0  0  0  0
   -1.9307   -0.3861    1.9636 H   0  0  0  0  0  0  0  0  0  0  0  0
   -1.0455    1.1494    1.9930 H   0  0  0  0  0  0  0  0  0  0  0  0
   -3.2376   -0.8161   -0.1764 H   0  0  0  0  0  0  0  0  0  0  0  0
   -1.7029   -1.6385   -0.3811 H   0  0  0  0  0  0  0  0  0  0  0  0
   -2.8924    0.4329   -2.3205 H   0  0  0  0  0  0  0  0  0  0  0  0
   -1.4084   -0.4944   -2.5990 H   0  0  0  0  0  0  0  0  0  0  0  0
   -2.9649   -1.3278   -2.5226 H   0  0  0  0  0  0  0  0  0  0  0  0
   -0.4820    2.2299   -1.4735 H   0  0  0  0  0  0  0  0  0  0  0  0
    1.9028    2.4774   -2.0808 H   0  0  0  0  0  0  0  0  0  0  0  0
    4.1101   -1.1775    0.3392 H   0  0  0  0  0  0  0  0  0  0  0  0
    3.2890   -2.9377    1.8417 H   0  0  0  0  0  0  0  0  0  0  0  0
    0.8421   -3.0383    2.3308 H   0  0  0  0  0  0  0  0  0  0  0  0
  1  2  1  0
  2  3  1  0
  3  4  1  0
  4  5  1  0
  3  6  1  0
  6  7  2  0
  7  8  1  0
  8  9  2  0
  9 10  1  0
 10 11  2  0
 10 12  1  0
  9 13  1  0
 13 14  2  0
 14 15  1  0
 15 16  2  0
 16 17  1  0
 17 18  2  0
 18  6  1  0
 18 13  1  0
  1 19  1  0
  1 20  1  0
  1 21  1  0
  2 22  1  0
  2 23  1  0
  4 24  1  0
  4 25  1  0
  5 26  1  0
  5 27  1  0
  5 28  1  0
  7 29  1  0
  8 30  1  0
 14 31  1  0
 15 32  1  0
 16 33  1  0
M  CHG  2  10   1  12  -1
M  END
$$$$
