
     RDKit          3D

 58 61  0  0  0  0  0  0  0  0999 V2000
   -3.8016    5.7482   -0.9007 C   0  0  0  0  0  0  0  0  0  0  0  0
   -2.8663    4.6936   -0.7144 O   0  0  0  0  0  0  0  0  0  0  0  0
   -3.3582    3.5013   -0.2578 C   0  0  0  0  0  0  0  0  0  0  0  0
   -4.6894    3.2180    0.0153 C   0  0  0  0  0  0  0  0  0  0  0  0
   -5.0686    1.9536    0.4807 C   0  0  0  0  0  0  0  0  0  0  0  0
   -4.0841    0.9645    0.6688 C   0  0  0  0  0  0  0  0  0  0  0  0
   -4.3299   -0.6414    1.2271 S   0  0  0  0  0  0  0  0  0  0  0  0
   -2.6666   -1.0227    1.1265 C   0  0  0  0  0  0  0  0  0  0  0  0
   -2.2410   -2.3815    1.4877 C   0  0  0  0  0  0  0  0  0  0  0  0
   -2.0793   -3.3290    0.4634 C   0  0  0  0  0  0  0  0  0  0  0  0
   -1.6686   -4.6276    0.7578 C   0  0  0  0  0  0  0  0  0  0  0  0
   -1.4134   -4.9889    2.0772 C   0  0  0  0  0  0  0  0  0  0  0  0
   -1.5655   -4.0545    3.1061 C   0  0  0  0  0  0  0  0  0  0  0  0
   -1.9779   -2.7466    2.8243 C   0  0  0  0  0  0  0  0  0  0  0  0
   -2.1364   -1.7635    3.7690 O   0  0  0  0  0  0  0  0  0  0  0  0
   -1.9427   -2.1211    5.1299 C   0  0  0  0  0  0  0  0  0  0  0  0
   -1.9209    0.0510    0.6684 C   0  0  0  0  0  0  0  0  0  0  0  0
   -0.4775   -0.0433    0.4823 C   0  0  0  0  0  0  0  0  0  0  0  0
    0.3773   -0.1097    1.5848 C   0  0  0  0  0  0  0  0  0  0  0  0
    1.7583   -0.1936    1.3926 C   0  0  0  0  0  0  0  0  0  0  0  0
    2.3020   -0.2110    0.1050 C   0  0  0  0  0  0  0  0  0  0  0  0
    3.6659   -0.2911    0.0696 O   0  0  0  0  0  0  0  0  0  0  0  0
    4.3128   -0.4492   -1.1970 C   0  0  0  0  0  0  0  0  0  0  0  0
    4.6212    0.9211   -1.8288 C   0  0  0  0  0  0  0  0  0  0  0  0
    5.3050    0.9317   -3.1332 N   0  0  0  0  0  0  0  0  0  0  0  0
    6.6333    0.3286   -3.0773 C   0  0  0  0  0  0  0  0  0  0  0  0
    4.5000    0.3356   -4.1947 C   0  0  0  0  0  0  0  0  0  0  0  0
    1.4478   -0.1334   -0.9953 C   0  0  0  0  0  0  0  0  0  0  0  0
    0.0630   -0.0500   -0.8075 C   0  0  0  0  0  0  0  0  0  0  0  0
   -2.7376    1.2141    0.4006 C   0  0  0  0  0  0  0  0  0  0  0  0
   -2.3893    2.5090   -0.0663 C   0  0  0  0  0  0  0  0  0  0  0  0
   -4.5400    5.4897   -1.6668 H   0  0  0  0  0  0  0  0  0  0  0  0
   -4.2874    6.0171    0.0431 H   0  0  0  0  0  0  0  0  0  0  0  0
   -3.2503    6.6255   -1.2528 H   0  0  0  0  0  0  0  0  0  0  0  0
   -5.4708    3.9587   -0.1201 H   0  0  0  0  0  0  0  0  0  0  0  0
   -6.1120    1.7393    0.6952 H   0  0  0  0  0  0  0  0  0  0  0  0
   -2.2740   -3.0523   -0.5703 H   0  0  0  0  0  0  0  0  0  0  0  0
   -1.5464   -5.3538   -0.0414 H   0  0  0  0  0  0  0  0  0  0  0  0
   -1.0906   -6.0010    2.3088 H   0  0  0  0  0  0  0  0  0  0  0  0
   -1.3479   -4.3800    4.1177 H   0  0  0  0  0  0  0  0  0  0  0  0
   -2.1434   -1.2350    5.7398 H   0  0  0  0  0  0  0  0  0  0  0  0
   -0.9064   -2.4227    5.3140 H   0  0  0  0  0  0  0  0  0  0  0  0
   -2.6448   -2.9026    5.4385 H   0  0  0  0  0  0  0  0  0  0  0  0
   -0.0239   -0.0969    2.5955 H   0  0  0  0  0  0  0  0  0  0  0  0
    2.4162   -0.2469    2.2565 H   0  0  0  0  0  0  0  0  0  0  0  0
    5.2553   -0.9660   -0.9842 H   0  0  0  0  0  0  0  0  0  0  0  0
    3.7496   -1.1163   -1.8582 H   0  0  0  0  0  0  0  0  0  0  0  0
    5.2189    1.5027   -1.1137 H   0  0  0  0  0  0  0  0  0  0  0  0
    3.6937    1.5003   -1.9190 H   0  0  0  0  0  0  0  0  0  0  0  0
    7.1642    0.4905   -4.0222 H   0  0  0  0  0  0  0  0  0  0  0  0
    7.2396    0.7971   -2.2942 H   0  0  0  0  0  0  0  0  0  0  0  0
    6.5984   -0.7501   -2.8907 H   0  0  0  0  0  0  0  0  0  0  0  0
    4.3578   -0.7421   -4.0617 H   0  0  0  0  0  0  0  0  0  0  0  0
    3.5143    0.8110   -4.2476 H   0  0  0  0  0  0  0  0  0  0  0  0
    4.9763    0.4955   -5.1686 H   0  0  0  0  0  0  0  0  0  0  0  0
    1.8189   -0.1251   -2.0139 H   0  0  0  0  0  0  0  0  0  0  0  0
   -0.5903    0.0104   -1.6751 H   0  0  0  0  0  0  0  0  0  0  0  0
   -1.3472    2.7402   -0.2760 H   0  0  0  0  0  0  0  0  0  0  0  0
  1  2  1  0
  2  3  1  0
  3  4  2  0
  4  5  1  0
  5  6  2  0
  6  7  1  0
  7  8  1  0
  8  9  1  0
  9 10  2  0
 10 11  1  0
 11 12  2  0
 12 13  1  0
 13 14  2  0
 14 15  1  0
 15 16  1  0
  8 17  2  0
 17 18  1  0
 18 19  2  0
 19 20  1  0
 20 21  2  0
 21 22  1  0
 22 23  1  0
 23 24  1  0
 24 25  1  0
 25 26  1  0
 25 27  1  0
 21 28  1  0
 28 29  2  0
 17 30  1  0
 30 31  2  0
 31  3  1  0
 30  6  1  0
 14  9  1  0
 29 18  1  0
  1 32  1  0
  1 33  1  0
  1 34  1  0
  4 35  1  0
  5 36  1  0
 10 37  1  0
 11 38  1  0
 12 39  1  0
 13 40  1  0
 16 41  1  0
 16 42  1  0
 16 43  1  0
 19 44  1  0
 20 45  1  0
 23 46  1  0
 23 47  1  0
 24 48  1  0
 24 49  1  0
 26 50  1  0
 26 51  1  0
 26 52  1  0
 27 53  1  0
 27 54  1  0
 27 55  1  0
 28 56  1  0
 29 57  1  0
 31 58  1  0
M  END
$$$$
