
     RDKit          3D

 55 58  0  0  0  0  0  0  0  0999 V2000
    4.9799    0.2397    1.6644 C   0  0  0  0  0  0  0  0  0  0  0  0
    3.8077   -0.0884    0.8952 N   0  0  0  0  0  0  0  0  0  0  0  0
    3.6609   -0.0576   -0.4735 C   0  0  0  0  0  0  0  0  0  0  0  0
    4.7359    0.2706   -1.4581 C   0  0  0  0  0  0  0  0  0  0  0  0
    5.7293   -0.8566   -1.6401 C   0  0  0  0  0  0  0  0  0  0  0  0
    7.0911   -0.6719   -1.3563 C   0  0  0  0  0  0  0  0  0  0  0  0
    7.9966   -1.7237   -1.5175 C   0  0  0  0  0  0  0  0  0  0  0  0
    7.5545   -2.9649   -1.9743 C   0  0  0  0  0  0  0  0  0  0  0  0
    6.2064   -3.1557   -2.2741 C   0  0  0  0  0  0  0  0  0  0  0  0
    5.2998   -2.1077   -2.1111 C   0  0  0  0  0  0  0  0  0  0  0  0
    2.4223   -0.4074   -0.7737 N   0  0  0  0  0  0  0  0  0  0  0  0
    1.7719   -0.7216    0.3896 N   0  0  0  0  0  0  0  0  0  0  0  0
    2.6161   -0.5427    1.3782 C   0  0  0  0  0  0  0  0  0  0  0  0
    2.3060   -0.8607    3.0475 S   0  0  0  0  0  0  0  0  0  0  0  0
    0.8985   -2.0010    2.9209 C   0  0  0  0  0  0  0  0  0  0  0  0
   -0.4219   -1.2459    2.9115 C   0  0  0  0  0  0  0  0  0  0  0  0
   -1.0836   -1.1348    3.9422 O   0  0  0  0  0  0  0  0  0  0  0  0
   -0.7638   -0.7574    1.6626 N   0  0  0  0  0  0  0  0  0  0  0  0
   -1.9635   -0.1293    1.2800 C   0  0  0  0  0  0  0  0  0  0  0  0
   -2.0485    0.3483   -0.0281 C   0  0  0  0  0  0  0  0  0  0  0  0
   -3.2250    0.9505   -0.4970 C   0  0  0  0  0  0  0  0  0  0  0  0
   -4.3609    1.0867    0.3127 C   0  0  0  0  0  0  0  0  0  0  0  0
   -5.5336    1.6592   -0.1473 N   0  0  0  0  0  0  0  0  0  0  0  0
   -5.5821    2.4656   -1.3760 C   0  0  0  0  0  0  0  0  0  0  0  0
   -6.8834    3.2882   -1.4082 C   0  0  0  0  0  0  0  0  0  0  0  0
   -8.0757    2.4880   -1.3874 O   0  0  0  0  0  0  0  0  0  0  0  0
   -7.9012    1.2307   -0.7144 C   0  0  0  0  0  0  0  0  0  0  0  0
   -6.8429    1.2586    0.4028 C   0  0  0  0  0  0  0  0  0  0  0  0
   -4.2424    0.6174    1.6292 C   0  0  0  0  0  0  0  0  0  0  0  0
   -3.0675    0.0198    2.1102 C   0  0  0  0  0  0  0  0  0  0  0  0
    5.7419    0.6960    1.0294 H   0  0  0  0  0  0  0  0  0  0  0  0
    5.3726   -0.6789    2.1082 H   0  0  0  0  0  0  0  0  0  0  0  0
    4.7005    0.9558    2.4406 H   0  0  0  0  0  0  0  0  0  0  0  0
    5.2475    1.1938   -1.1575 H   0  0  0  0  0  0  0  0  0  0  0  0
    4.2821    0.4882   -2.4336 H   0  0  0  0  0  0  0  0  0  0  0  0
    7.4608    0.2900   -1.0087 H   0  0  0  0  0  0  0  0  0  0  0  0
    9.0510   -1.5718   -1.2956 H   0  0  0  0  0  0  0  0  0  0  0  0
    8.2586   -3.7845   -2.0999 H   0  0  0  0  0  0  0  0  0  0  0  0
    5.8604   -4.1215   -2.6351 H   0  0  0  0  0  0  0  0  0  0  0  0
    4.2491   -2.2740   -2.3485 H   0  0  0  0  0  0  0  0  0  0  0  0
    0.9064   -2.6610    3.7946 H   0  0  0  0  0  0  0  0  0  0  0  0
    0.9724   -2.6497    2.0412 H   0  0  0  0  0  0  0  0  0  0  0  0
   -0.0425   -0.8135    0.9419 H   0  0  0  0  0  0  0  0  0  0  0  0
   -1.2071    0.2529   -0.7078 H   0  0  0  0  0  0  0  0  0  0  0  0
   -3.2374    1.2847   -1.5302 H   0  0  0  0  0  0  0  0  0  0  0  0
   -4.7347    3.1610   -1.4161 H   0  0  0  0  0  0  0  0  0  0  0  0
   -5.5428    1.8011   -2.2479 H   0  0  0  0  0  0  0  0  0  0  0  0
   -6.9273    3.9651   -0.5461 H   0  0  0  0  0  0  0  0  0  0  0  0
   -6.9181    3.9064   -2.3125 H   0  0  0  0  0  0  0  0  0  0  0  0
   -8.8760    0.9370   -0.3064 H   0  0  0  0  0  0  0  0  0  0  0  0
   -7.6285    0.4861   -1.4734 H   0  0  0  0  0  0  0  0  0  0  0  0
   -6.8078    0.2589    0.8540 H   0  0  0  0  0  0  0  0  0  0  0  0
   -7.1323    1.9818    1.1734 H   0  0  0  0  0  0  0  0  0  0  0  0
   -5.0688    0.7238    2.3280 H   0  0  0  0  0  0  0  0  0  0  0  0
   -3.0608   -0.3234    3.1398 H   0  0  0  0  0  0  0  0  0  0  0  0
  1  2  1  0
  2  3  1  0
  3  4  1  0
  4  5  1  0
  5  6  2  0
  6  7  1  0
  7  8  2  0
  8  9  1  0
  9 10  2  0
  3 11  2  0
 11 12  1  0
 12 13  2  0
 13 14  1  0
 14 15  1  0
 15 16  1  0
 16 17  2  0
 16 18  1  0
 18 19  1  0
 19 20  2  0
 20 21  1  0
 21 22  2  0
 22 23  1  0
 23 24  1  0
 24 25  1  0
 25 26  1  0
 26 27  1  0
 27 28  1  0
 22 29  1  0
 29 30  2  0
 13  2  1  0
 30 19  1  0
 10  5  1  0
 28 23  1  0
  1 31  1  0
  1 32  1  0
  1 33  1  0
  4 34  1  0
  4 35  1  0
  6 36  1  0
  7 37  1  0
  8 38  1  0
  9 39  1  0
 10 40  1  0
 15 41  1  0
 15 42  1  0
 18 43  1  0
 20 44  1  0
 21 45  1  0
 24 46  1  0
 24 47  1  0
 25 48  1  0
 25 49  1  0
 27 50  1  0
 27 51  1  0
 28 52  1  0
 28 53  1  0
 29 54  1  0
 30 55  1  0
M  END
$$$$
