
     RDKit          3D

 58 60  0  0  0  0  0  0  0  0999 V2000
    7.4990    5.0083    0.0435 C   0  0  0  0  0  0  0  0  0  0  0  0
    6.7577    3.8421    0.5514 C   0  0  0  0  0  0  0  0  0  0  0  0
    5.5636    3.2487    0.2260 C   0  0  0  0  0  0  0  0  0  0  0  0
    5.4557    2.1559    1.1131 C   0  0  0  0  0  0  0  0  0  0  0  0
    4.4573    1.2143    1.2278 N   0  0  0  0  0  0  0  0  0  0  0  0
    3.3276    1.1554    0.4450 C   0  0  0  0  0  0  0  0  0  0  0  0
    3.0361    1.9340   -0.4569 O   0  0  0  0  0  0  0  0  0  0  0  0
    2.4381   -0.0107    0.8245 C   0  0  0  0  0  0  0  0  0  0  0  0
    1.2282   -0.1186   -0.0998 C   0  0  0  0  0  0  0  0  0  0  0  0
    0.3425   -1.2918    0.2741 C   0  0  0  0  0  0  0  0  0  0  0  0
    0.6466   -2.0384    1.2053 O   0  0  0  0  0  0  0  0  0  0  0  0
   -0.8198   -1.4761   -0.4630 N   0  0  0  0  0  0  0  0  0  0  0  0
   -1.2675   -0.5896   -1.5526 C   0  0  0  0  0  0  0  0  0  0  0  0
   -2.3454    0.4151   -1.1218 C   0  0  0  0  0  0  0  0  0  0  0  0
   -3.0320    1.0153   -1.9446 O   0  0  0  0  0  0  0  0  0  0  0  0
   -2.4126    0.6534    0.2357 N   0  0  0  0  0  0  0  0  0  0  0  0
   -3.4283    1.5118    0.8023 C   0  0  0  0  0  0  0  0  0  0  0  0
   -3.1058    1.9373    2.2291 C   0  0  0  0  0  0  0  0  0  0  0  0
   -4.4441    2.4350    2.7555 C   0  0  0  0  0  0  0  0  0  0  0  0
   -5.5038    1.5883    2.0503 C   0  0  0  0  0  0  0  0  0  0  0  0
   -4.7761    0.8102    0.9555 C   0  0  0  0  0  0  0  0  0  0  0  0
   -1.6710   -2.6310   -0.1643 C   0  0  0  0  0  0  0  0  0  0  0  0
   -1.4646   -3.7618   -1.1460 C   0  0  0  0  0  0  0  0  0  0  0  0
   -2.4385   -4.0571   -2.1139 C   0  0  0  0  0  0  0  0  0  0  0  0
   -2.2372   -5.0970   -3.0232 C   0  0  0  0  0  0  0  0  0  0  0  0
   -1.0649   -5.8410   -2.9670 C   0  0  0  0  0  0  0  0  0  0  0  0
   -0.8739   -6.8374   -3.8414 F   0  0  0  0  0  0  0  0  0  0  0  0
   -0.0887   -5.5662   -2.0178 C   0  0  0  0  0  0  0  0  0  0  0  0
   -0.2873   -4.5274   -1.1073 C   0  0  0  0  0  0  0  0  0  0  0  0
    6.5171    2.0928    1.9251 N   0  0  0  0  0  0  0  0  0  0  0  0
    7.3340    3.1506    1.5692 O   0  0  0  0  0  0  0  0  0  0  0  0
    6.8301    5.6965   -0.4833 H   0  0  0  0  0  0  0  0  0  0  0  0
    8.2804    4.6892   -0.6529 H   0  0  0  0  0  0  0  0  0  0  0  0
    7.9720    5.5575    0.8635 H   0  0  0  0  0  0  0  0  0  0  0  0
    4.8743    3.5643   -0.5431 H   0  0  0  0  0  0  0  0  0  0  0  0
    4.6244    0.5255    1.9490 H   0  0  0  0  0  0  0  0  0  0  0  0
    3.0320   -0.9316    0.7763 H   0  0  0  0  0  0  0  0  0  0  0  0
    2.1106    0.1284    1.8620 H   0  0  0  0  0  0  0  0  0  0  0  0
    1.5750   -0.2581   -1.1297 H   0  0  0  0  0  0  0  0  0  0  0  0
    0.6401    0.8036   -0.0433 H   0  0  0  0  0  0  0  0  0  0  0  0
   -0.4329   -0.0160   -1.9608 H   0  0  0  0  0  0  0  0  0  0  0  0
   -1.6747   -1.2049   -2.3607 H   0  0  0  0  0  0  0  0  0  0  0  0
   -1.9495   -0.0146    0.8412 H   0  0  0  0  0  0  0  0  0  0  0  0
   -3.5443    2.3968    0.1630 H   0  0  0  0  0  0  0  0  0  0  0  0
   -2.3301    2.7081    2.2703 H   0  0  0  0  0  0  0  0  0  0  0  0
   -2.7597    1.0841    2.8267 H   0  0  0  0  0  0  0  0  0  0  0  0
   -4.5810    3.4902    2.4906 H   0  0  0  0  0  0  0  0  0  0  0  0
   -4.5113    2.3567    3.8451 H   0  0  0  0  0  0  0  0  0  0  0  0
   -6.2810    2.2320    1.6238 H   0  0  0  0  0  0  0  0  0  0  0  0
   -5.9946    0.9019    2.7486 H   0  0  0  0  0  0  0  0  0  0  0  0
   -5.3423    0.7911    0.0184 H   0  0  0  0  0  0  0  0  0  0  0  0
   -4.6393   -0.2314    1.2731 H   0  0  0  0  0  0  0  0  0  0  0  0
   -2.7166   -2.3001   -0.1675 H   0  0  0  0  0  0  0  0  0  0  0  0
   -1.4774   -3.0056    0.8477 H   0  0  0  0  0  0  0  0  0  0  0  0
   -3.3590   -3.4795   -2.1684 H   0  0  0  0  0  0  0  0  0  0  0  0
   -2.9849   -5.3307   -3.7745 H   0  0  0  0  0  0  0  0  0  0  0  0
    0.8190   -6.1606   -1.9916 H   0  0  0  0  0  0  0  0  0  0  0  0
    0.4792   -4.3170   -0.3628 H   0  0  0  0  0  0  0  0  0  0  0  0
  1  2  1  0
  2  3  2  0
  3  4  1  0
  4  5  1  0
  5  6  1  0
  6  7  2  0
  6  8  1  0
  8  9  1  0
  9 10  1  0
 10 11  2  0
 10 12  1  0
 12 13  1  0
 13 14  1  0
 14 15  2  0
 14 16  1  0
 16 17  1  0
 17 18  1  0
 18 19  1  0
 19 20  1  0
 20 21  1  0
 12 22  1  0
 22 23  1  0
 23 24  2  0
 24 25  1  0
 25 26  2  0
 26 27  1  0
 26 28  1  0
 28 29  2  0
  4 30  2  0
 30 31  1  0
 31  2  1  0
 21 17  1  0
 29 23  1  0
  1 32  1  0
  1 33  1  0
  1 34  1  0
  3 35  1  0
  5 36  1  0
  8 37  1  0
  8 38  1  0
  9 39  1  0
  9 40  1  0
 13 41  1  0
 13 42  1  0
 16 43  1  0
 17 44  1  0
 18 45  1  0
 18 46  1  0
 19 47  1  0
 19 48  1  0
 20 49  1  0
 20 50  1  0
 21 51  1  0
 21 52  1  0
 22 53  1  0
 22 54  1  0
 24 55  1  0
 25 56  1  0
 28 57  1  0
 29 58  1  0
M  END
$$$$
