
     RDKit          3D

 55 59  0  0  0  0  0  0  0  0999 V2000
    7.8661    1.0068    3.3095 C   0  0  0  0  0  0  0  0  0  0  0  0
    6.5773    1.3294    2.7991 O   0  0  0  0  0  0  0  0  0  0  0  0
    5.6865    0.2983    2.6747 C   0  0  0  0  0  0  0  0  0  0  0  0
    5.9129   -1.0290    3.0392 C   0  0  0  0  0  0  0  0  0  0  0  0
    4.9122   -1.9859    2.8523 C   0  0  0  0  0  0  0  0  0  0  0  0
    3.6800   -1.6163    2.3108 C   0  0  0  0  0  0  0  0  0  0  0  0
    3.4281   -0.2849    1.9580 C   0  0  0  0  0  0  0  0  0  0  0  0
    2.1257    0.0709    1.3957 C   0  0  0  0  0  0  0  0  0  0  0  0
    1.4728   -0.6355    0.4889 N   0  0  0  0  0  0  0  0  0  0  0  0
    0.2993    0.0103    0.1954 N   0  0  0  0  0  0  0  0  0  0  0  0
    0.2283    1.0789    0.9489 C   0  0  0  0  0  0  0  0  0  0  0  0
   -1.0459    2.2468    0.9805 S   0  0  0  0  0  0  0  0  0  0  0  0
   -2.3769    1.4569   -0.0102 C   0  0  0  0  0  0  0  0  0  0  0  0
   -2.0061    1.2955   -1.4973 C   0  0  0  0  0  0  0  0  0  0  0  0
   -0.9748    1.7816   -1.9676 O   0  0  0  0  0  0  0  0  0  0  0  0
   -2.9745    0.6579   -2.4101 C   0  0  0  0  0  0  0  0  0  0  0  0
   -4.3290    0.4689   -2.1868 C   0  0  0  0  0  0  0  0  0  0  0  0
   -4.8666   -0.1709   -3.2723 N   0  0  0  0  0  0  0  0  0  0  0  0
   -3.9014   -0.3831   -4.2256 C   0  0  0  0  0  0  0  0  0  0  0  0
   -3.9986   -0.9894   -5.4845 C   0  0  0  0  0  0  0  0  0  0  0  0
   -2.8359   -1.0727   -6.2557 C   0  0  0  0  0  0  0  0  0  0  0  0
   -1.6262   -0.5700   -5.7837 C   0  0  0  0  0  0  0  0  0  0  0  0
   -1.5477    0.0305   -4.5215 C   0  0  0  0  0  0  0  0  0  0  0  0
   -2.7057    0.1313   -3.7205 C   0  0  0  0  0  0  0  0  0  0  0  0
   -2.9754    0.2530    0.7141 C   0  0  0  0  0  0  0  0  0  0  0  0
   -3.9498    0.4634    1.7095 C   0  0  0  0  0  0  0  0  0  0  0  0
   -4.5223   -0.6111    2.3939 C   0  0  0  0  0  0  0  0  0  0  0  0
   -4.1263   -1.9132    2.1018 C   0  0  0  0  0  0  0  0  0  0  0  0
   -3.1556   -2.1404    1.1294 C   0  0  0  0  0  0  0  0  0  0  0  0
   -2.5829   -1.0671    0.4424 C   0  0  0  0  0  0  0  0  0  0  0  0
    1.3371    1.1490    1.7487 N   0  0  0  0  0  0  0  0  0  0  0  0
    1.5997    2.0963    2.8016 C   0  0  0  0  0  0  0  0  0  0  0  0
    4.4491    0.6607    2.1289 C   0  0  0  0  0  0  0  0  0  0  0  0
    7.7991    0.6186    4.3312 H   0  0  0  0  0  0  0  0  0  0  0  0
    8.3856    0.3028    2.6515 H   0  0  0  0  0  0  0  0  0  0  0  0
    8.4543    1.9287    3.3427 H   0  0  0  0  0  0  0  0  0  0  0  0
    6.8565   -1.3553    3.4637 H   0  0  0  0  0  0  0  0  0  0  0  0
    5.0924   -3.0231    3.1246 H   0  0  0  0  0  0  0  0  0  0  0  0
    2.9107   -2.3740    2.1618 H   0  0  0  0  0  0  0  0  0  0  0  0
   -3.1643    2.2244   -0.0359 H   0  0  0  0  0  0  0  0  0  0  0  0
   -4.9649    0.7201   -1.3481 H   0  0  0  0  0  0  0  0  0  0  0  0
   -5.8351   -0.4479   -3.3672 H   0  0  0  0  0  0  0  0  0  0  0  0
   -4.9391   -1.3849   -5.8539 H   0  0  0  0  0  0  0  0  0  0  0  0
   -2.8768   -1.5387   -7.2375 H   0  0  0  0  0  0  0  0  0  0  0  0
   -0.7303   -0.6446   -6.3956 H   0  0  0  0  0  0  0  0  0  0  0  0
   -0.5960    0.4160   -4.1609 H   0  0  0  0  0  0  0  0  0  0  0  0
   -4.2691    1.4730    1.9615 H   0  0  0  0  0  0  0  0  0  0  0  0
   -5.2732   -0.4310    3.1589 H   0  0  0  0  0  0  0  0  0  0  0  0
   -4.5655   -2.7506    2.6363 H   0  0  0  0  0  0  0  0  0  0  0  0
   -2.8336   -3.1544    0.9052 H   0  0  0  0  0  0  0  0  0  0  0  0
   -1.8197   -1.2835   -0.3050 H   0  0  0  0  0  0  0  0  0  0  0  0
    0.6617    2.4739    3.2144 H   0  0  0  0  0  0  0  0  0  0  0  0
    2.1875    2.9195    2.3882 H   0  0  0  0  0  0  0  0  0  0  0  0
    2.1432    1.6018    3.6113 H   0  0  0  0  0  0  0  0  0  0  0  0
    4.3033    1.6924    1.8182 H   0  0  0  0  0  0  0  0  0  0  0  0
  1  2  1  0
  2  3  1  0
  3  4  2  0
  4  5  1  0
  5  6  2  0
  6  7  1  0
  7  8  1  0
  8  9  2  0
  9 10  1  0
 10 11  2  0
 11 12  1  0
 12 13  1  0
 13 14  1  0
 14 15  2  0
 14 16  1  0
 16 17  2  0
 17 18  1  0
 18 19  1  0
 19 20  2  0
 20 21  1  0
 21 22  2  0
 22 23  1  0
 23 24  2  0
 13 25  1  0
 25 26  2  0
 26 27  1  0
 27 28  2  0
 28 29  1  0
 29 30  2  0
 11 31  1  0
 31 32  1  0
  7 33  2  0
 33  3  1  0
 31  8  1  0
 24 16  1  0
 30 25  1  0
 24 19  1  0
  1 34  1  0
  1 35  1  0
  1 36  1  0
  4 37  1  0
  5 38  1  0
  6 39  1  0
 13 40  1  0
 17 41  1  0
 18 42  1  0
 20 43  1  0
 21 44  1  0
 22 45  1  0
 23 46  1  0
 26 47  1  0
 27 48  1  0
 28 49  1  0
 29 50  1  0
 30 51  1  0
 32 52  1  0
 32 53  1  0
 32 54  1  0
 33 55  1  0
M  END
$$$$
