
     RDKit          3D

 51 55  0  0  0  0  0  0  0  0999 V2000
   -3.7394   -2.2442   -0.6775 C   0  0  0  0  0  0  0  0  0  0  0  0
   -2.9345   -1.3897    0.2700 C   0  0  0  0  0  0  0  0  0  0  0  0
   -1.5778   -1.3242   -0.0131 N   0  0  0  0  0  0  0  0  0  0  0  0
   -0.7215   -0.5877    0.7271 C   0  0  0  0  0  0  0  0  0  0  0  0
    0.6307   -0.3321    0.6496 C   0  0  0  0  0  0  0  0  0  0  0  0
    1.5290   -0.8503   -0.3649 C   0  0  0  0  0  0  0  0  0  0  0  0
    1.1360   -1.5763   -1.2750 O   0  0  0  0  0  0  0  0  0  0  0  0
    2.8469   -0.4799   -0.2364 N   0  0  0  0  0  0  0  0  0  0  0  0
    3.8419   -0.9697   -1.1591 C   0  0  0  0  0  0  0  0  0  0  0  0
    5.1853   -0.3570   -0.8659 C   0  0  0  0  0  0  0  0  0  0  0  0
    6.0953   -1.0123   -0.0038 C   0  0  0  0  0  0  0  0  0  0  0  0
    7.3329   -0.4391    0.3060 C   0  0  0  0  0  0  0  0  0  0  0  0
    7.6287    0.7864   -0.2495 C   0  0  0  0  0  0  0  0  0  0  0  0
    6.7475    1.4359   -1.0807 C   0  0  0  0  0  0  0  0  0  0  0  0
    5.5210    0.8959   -1.4057 C   0  0  0  0  0  0  0  0  0  0  0  0
    7.2275    2.6325   -1.5127 O   0  0  0  0  0  0  0  0  0  0  0  0
    8.5142    2.6602   -0.8599 C   0  0  0  0  0  0  0  0  0  0  0  0
    8.7747    1.4913   -0.0550 O   0  0  0  0  0  0  0  0  0  0  0  0
    0.8591    0.5147    1.7611 C   0  0  0  0  0  0  0  0  0  0  0  0
   -0.2385    0.7628    2.4820 N   0  0  0  0  0  0  0  0  0  0  0  0
   -1.2173    0.0865    1.8197 N   0  0  0  0  0  0  0  0  0  0  0  0
   -2.5618    0.0685    2.2258 C   0  0  0  0  0  0  0  0  0  0  0  0
   -2.9229    0.6413    3.2465 O   0  0  0  0  0  0  0  0  0  0  0  0
   -3.4750   -0.7254    1.3235 C   0  0  0  0  0  0  0  0  0  0  0  0
   -4.9333   -0.6953    1.7107 C   0  0  0  0  0  0  0  0  0  0  0  0
   -5.8343    0.0302    0.7349 C   0  0  0  0  0  0  0  0  0  0  0  0
   -7.0007   -0.5858    0.2545 C   0  0  0  0  0  0  0  0  0  0  0  0
   -7.8489    0.0861   -0.6306 C   0  0  0  0  0  0  0  0  0  0  0  0
   -7.5501    1.3852   -1.0383 C   0  0  0  0  0  0  0  0  0  0  0  0
   -6.4047    2.0146   -0.5567 C   0  0  0  0  0  0  0  0  0  0  0  0
   -5.5633    1.3402    0.3244 C   0  0  0  0  0  0  0  0  0  0  0  0
   -4.4735    1.9767    0.7756 F   0  0  0  0  0  0  0  0  0  0  0  0
   -3.8362   -1.7423   -1.6457 H   0  0  0  0  0  0  0  0  0  0  0  0
   -3.2385   -3.2052   -0.8386 H   0  0  0  0  0  0  0  0  0  0  0  0
   -4.7410   -2.4747   -0.3091 H   0  0  0  0  0  0  0  0  0  0  0  0
   -1.2431   -1.8190   -0.8449 H   0  0  0  0  0  0  0  0  0  0  0  0
    3.1595    0.0649    0.5534 H   0  0  0  0  0  0  0  0  0  0  0  0
    3.5256   -0.7405   -2.1841 H   0  0  0  0  0  0  0  0  0  0  0  0
    3.8849   -2.0626   -1.0759 H   0  0  0  0  0  0  0  0  0  0  0  0
    5.8374   -1.9773    0.4309 H   0  0  0  0  0  0  0  0  0  0  0  0
    8.0361   -0.9377    0.9639 H   0  0  0  0  0  0  0  0  0  0  0  0
    4.8414    1.4337   -2.0587 H   0  0  0  0  0  0  0  0  0  0  0  0
    9.2942    2.7400   -1.6255 H   0  0  0  0  0  0  0  0  0  0  0  0
    8.5611    3.5461   -0.2162 H   0  0  0  0  0  0  0  0  0  0  0  0
    1.7863    0.9674    2.0882 H   0  0  0  0  0  0  0  0  0  0  0  0
   -5.0864   -0.2380    2.6957 H   0  0  0  0  0  0  0  0  0  0  0  0
   -5.2737   -1.7320    1.8357 H   0  0  0  0  0  0  0  0  0  0  0  0
   -7.2602   -1.5955    0.5658 H   0  0  0  0  0  0  0  0  0  0  0  0
   -8.7476   -0.4045   -0.9982 H   0  0  0  0  0  0  0  0  0  0  0  0
   -8.2117    1.9082   -1.7241 H   0  0  0  0  0  0  0  0  0  0  0  0
   -6.1611    3.0289   -0.8567 H   0  0  0  0  0  0  0  0  0  0  0  0
  1  2  1  0
  2  3  1  0
  3  4  1  0
  4  5  2  0
  5  6  1  0
  6  7  2  0
  6  8  1  0
  8  9  1  0
  9 10  1  0
 10 11  2  0
 11 12  1  0
 12 13  2  0
 13 14  1  0
 14 15  2  0
 14 16  1  0
 16 17  1  0
 17 18  1  0
  5 19  1  0
 19 20  2  0
 20 21  1  0
 21 22  1  0
 22 23  2  0
 22 24  1  0
 24 25  1  0
 25 26  1  0
 26 27  2  0
 27 28  1  0
 28 29  2  0
 29 30  1  0
 30 31  2  0
 31 32  1  0
 24  2  2  0
 31 26  1  0
 21  4  1  0
 15 10  1  0
 18 13  1  0
  1 33  1  0
  1 34  1  0
  1 35  1  0
  3 36  1  0
  8 37  1  0
  9 38  1  0
  9 39  1  0
 11 40  1  0
 12 41  1  0
 15 42  1  0
 17 43  1  0
 17 44  1  0
 19 45  1  0
 25 46  1  0
 25 47  1  0
 27 48  1  0
 28 49  1  0
 29 50  1  0
 30 51  1  0
M  END
$$$$
