
     RDKit          3D

 28 30  0  0  0  0  0  0  0  0999 V2000
    2.5239    1.1102   -1.9215 N   0  0  0  0  0  0  0  0  0  0  0  0
    1.6838    0.7040   -1.2299 C   0  0  0  0  0  0  0  0  0  0  0  0
    0.6502    0.1448   -0.4181 C   0  0  0  0  0  0  0  0  0  0  0  0
    0.7639   -1.0742    0.1492 C   0  0  0  0  0  0  0  0  0  0  0  0
    1.8822   -2.0149    0.0281 C   0  0  0  0  0  0  0  0  0  0  0  0
    2.4412   -2.3904   -1.1893 C   0  0  0  0  0  0  0  0  0  0  0  0
    3.4762   -3.3232   -1.1913 C   0  0  0  0  0  0  0  0  0  0  0  0
    3.9097   -3.8633    0.0125 C   0  0  0  0  0  0  0  0  0  0  0  0
    3.2805   -3.4522    1.1742 C   0  0  0  0  0  0  0  0  0  0  0  0
    2.2726   -2.5521    1.2055 N   0  0  0  0  0  0  0  0  0  0  0  0
   -0.5049    0.9544   -0.1635 C   0  0  0  0  0  0  0  0  0  0  0  0
   -0.4860    2.2476    0.0981 N   0  0  0  0  0  0  0  0  0  0  0  0
   -1.7657    2.7463    0.2683 C   0  0  0  0  0  0  0  0  0  0  0  0
   -2.0985    4.0816    0.5726 C   0  0  0  0  0  0  0  0  0  0  0  0
   -3.4406    4.4481    0.7162 C   0  0  0  0  0  0  0  0  0  0  0  0
   -4.4491    3.5028    0.5593 C   0  0  0  0  0  0  0  0  0  0  0  0
   -4.1434    2.1724    0.2555 C   0  0  0  0  0  0  0  0  0  0  0  0
   -2.7916    1.8167    0.1145 C   0  0  0  0  0  0  0  0  0  0  0  0
   -2.1060    0.2861   -0.2562 S   0  0  0  0  0  0  0  0  0  0  0  0
    0.0035   -1.4373    0.8384 H   0  0  0  0  0  0  0  0  0  0  0  0
    2.0903   -1.9813   -2.1309 H   0  0  0  0  0  0  0  0  0  0  0  0
    3.9387   -3.6250   -2.1271 H   0  0  0  0  0  0  0  0  0  0  0  0
    4.7147   -4.5889    0.0444 H   0  0  0  0  0  0  0  0  0  0  0  0
    3.5774   -3.8480    2.1414 H   0  0  0  0  0  0  0  0  0  0  0  0
   -1.3080    4.8159    0.6932 H   0  0  0  0  0  0  0  0  0  0  0  0
   -3.6936    5.4795    0.9514 H   0  0  0  0  0  0  0  0  0  0  0  0
   -5.4895    3.8011    0.6732 H   0  0  0  0  0  0  0  0  0  0  0  0
   -4.9320    1.4362    0.1319 H   0  0  0  0  0  0  0  0  0  0  0  0
  1  2  3  0
  2  3  1  0
  3  4  2  3
  4  5  1  0
  5  6  2  0
  6  7  1  0
  7  8  2  0
  8  9  1  0
  9 10  2  0
  3 11  1  0
 11 12  2  0
 12 13  1  0
 13 14  2  0
 14 15  1  0
 15 16  2  0
 16 17  1  0
 17 18  2  0
 18 19  1  0
 10  5  1  0
 19 11  1  0
 18 13  1  0
  4 20  1  0
  6 21  1  0
  7 22  1  0
  8 23  1  0
  9 24  1  0
 14 25  1  0
 15 26  1  0
 16 27  1  0
 17 28  1  0
M  END
$$$$
