
     RDKit          3D

 53 54  0  0  0  0  0  0  0  0999 V2000
   -5.7002   -1.4985    2.6495 C   0  0  0  0  0  0  0  0  0  0  0  0
   -4.6987   -1.6264    1.5128 C   0  0  0  0  0  0  0  0  0  0  0  0
   -5.1619   -0.8674    0.3268 N   0  0  0  0  0  0  0  0  0  0  0  0
   -5.0472    0.6067    0.4399 C   0  0  0  0  0  0  0  0  0  0  0  0
   -6.4341    1.2260    0.4124 C   0  0  0  0  0  0  0  0  0  0  0  0
   -4.8644   -1.5543   -1.2030 S   0  0  0  0  0  6  0  0  0  0  0  0
   -5.4408   -0.6885   -2.2101 O   0  0  0  0  0  0  0  0  0  0  0  0
   -5.1955   -2.9622   -1.1485 O   0  0  0  0  0  0  0  0  0  0  0  0
   -3.0887   -1.4396   -1.3609 C   0  0  0  0  0  0  0  0  0  0  0  0
   -2.5198   -0.3677   -2.0565 C   0  0  0  0  0  0  0  0  0  0  0  0
   -1.1319   -0.3011   -2.2147 C   0  0  0  0  0  0  0  0  0  0  0  0
   -0.3125   -1.3121   -1.6905 C   0  0  0  0  0  0  0  0  0  0  0  0
    1.1694   -1.2913   -1.8281 C   0  0  0  0  0  0  0  0  0  0  0  0
    1.9002   -2.1618   -1.3872 O   0  0  0  0  0  0  0  0  0  0  0  0
    1.5786   -0.1708   -2.4746 O   0  0  0  0  0  0  0  0  0  0  0  0
    2.9896   -0.1025   -2.7030 C   0  0  0  0  0  0  0  0  0  0  0  0
    3.8023    0.3124   -1.4746 C   0  0  0  0  0  0  0  0  0  0  0  0
    4.9964    0.0488   -1.3381 O   0  0  0  0  0  0  0  0  0  0  0  0
    3.1137    1.0872   -0.5606 N   0  0  0  0  0  0  0  0  0  0  0  0
    3.7103    1.3990    0.7251 C   0  0  0  0  0  0  0  0  0  0  0  0
    4.9083    2.3553    0.6205 C   0  0  0  0  0  0  0  0  0  0  0  0
    5.9591    2.0044    1.5525 N   0  0  0  0  0  0  0  0  0  0  0  0
    7.0456    1.2138    1.2619 C   0  0  0  0  0  0  0  0  0  0  0  0
    7.2318    0.6611    0.0302 O   0  0  0  0  0  0  0  0  0  0  0  0
    7.8911    1.0398    2.2819 C   0  0  0  0  0  0  0  0  0  0  0  0
    7.3400    1.8522    3.7138 S   0  0  0  0  0  0  0  0  0  0  0  0
    5.8995    2.4411    2.8690 C   0  0  0  0  0  0  0  0  0  0  0  0
    5.0194    3.1031    3.3955 O   0  0  0  0  0  0  0  0  0  0  0  0
   -0.8968   -2.3953   -1.0165 C   0  0  0  0  0  0  0  0  0  0  0  0
   -2.2834   -2.4662   -0.8590 C   0  0  0  0  0  0  0  0  0  0  0  0
   -5.7796   -0.4658    3.0025 H   0  0  0  0  0  0  0  0  0  0  0  0
   -5.3912   -2.1182    3.4972 H   0  0  0  0  0  0  0  0  0  0  0  0
   -6.6966   -1.8237    2.3324 H   0  0  0  0  0  0  0  0  0  0  0  0
   -4.5990   -2.6907    1.2788 H   0  0  0  0  0  0  0  0  0  0  0  0
   -3.7130   -1.2680    1.8293 H   0  0  0  0  0  0  0  0  0  0  0  0
   -4.5364    0.8877    1.3676 H   0  0  0  0  0  0  0  0  0  0  0  0
   -4.4444    1.0232   -0.3721 H   0  0  0  0  0  0  0  0  0  0  0  0
   -7.0513    0.8543    1.2365 H   0  0  0  0  0  0  0  0  0  0  0  0
   -6.3655    2.3145    0.5025 H   0  0  0  0  0  0  0  0  0  0  0  0
   -6.9539    0.9941   -0.5226 H   0  0  0  0  0  0  0  0  0  0  0  0
   -3.1479    0.4099   -2.4878 H   0  0  0  0  0  0  0  0  0  0  0  0
   -0.7090    0.5380   -2.7626 H   0  0  0  0  0  0  0  0  0  0  0  0
    3.3655   -1.0596   -3.0833 H   0  0  0  0  0  0  0  0  0  0  0  0
    3.1580    0.6524   -3.4780 H   0  0  0  0  0  0  0  0  0  0  0  0
    2.1037    1.1094   -0.6429 H   0  0  0  0  0  0  0  0  0  0  0  0
    2.9285    1.8436    1.3503 H   0  0  0  0  0  0  0  0  0  0  0  0
    4.0000    0.4465    1.1850 H   0  0  0  0  0  0  0  0  0  0  0  0
    4.5623    3.3706    0.8536 H   0  0  0  0  0  0  0  0  0  0  0  0
    5.3269    2.4125   -0.3901 H   0  0  0  0  0  0  0  0  0  0  0  0
    6.3625    0.4924   -0.3938 H   0  0  0  0  0  0  0  0  0  0  0  0
    8.7995    0.4559    2.2424 H   0  0  0  0  0  0  0  0  0  0  0  0
   -0.2740   -3.1978   -0.6223 H   0  0  0  0  0  0  0  0  0  0  0  0
   -2.7244   -3.3264   -0.3589 H   0  0  0  0  0  0  0  0  0  0  0  0
  1  2  1  0
  2  3  1  0
  3  4  1  0
  4  5  1  0
  3  6  1  0
  6  7  2  0
  6  8  2  0
  6  9  1  0
  9 10  2  0
 10 11  1  0
 11 12  2  0
 12 13  1  0
 13 14  2  0
 13 15  1  0
 15 16  1  0
 16 17  1  0
 17 18  2  0
 17 19  1  0
 19 20  1  0
 20 21  1  0
 21 22  1  0
 22 23  1  0
 23 24  1  0
 23 25  2  0
 25 26  1  0
 26 27  1  0
 27 28  2  0
 12 29  1  0
 29 30  2  0
 30  9  1  0
 27 22  1  0
  1 31  1  0
  1 32  1  0
  1 33  1  0
  2 34  1  0
  2 35  1  0
  4 36  1  0
  4 37  1  0
  5 38  1  0
  5 39  1  0
  5 40  1  0
 10 41  1  0
 11 42  1  0
 16 43  1  0
 16 44  1  0
 19 45  1  0
 20 46  1  0
 20 47  1  0
 21 48  1  0
 21 49  1  0
 24 50  1  0
 25 51  1  0
 29 52  1  0
 30 53  1  0
M  END
$$$$
