
     RDKit          3D

 53 52  0  0  0  0  0  0  0  0999 V2000
   -5.1563    3.1021    1.6363 C   0  0  0  0  0  0  0  0  0  0  0  0
   -5.0002    1.6589    1.1547 C   0  0  0  0  0  0  0  0  0  0  0  0
   -5.3710    0.6927    2.2821 C   0  0  0  0  0  0  0  0  0  0  0  0
   -3.5773    1.3528    0.6534 C   0  0  0  0  0  0  0  0  0  0  0  0
   -3.1471    2.2192   -0.5312 C   0  0  0  0  0  0  0  0  0  0  0  0
   -1.8661    1.7932   -1.0585 N   0  0  0  0  0  0  0  0  0  0  0  0
   -1.7617    0.7896   -1.9976 C   0  0  0  0  0  0  0  0  0  0  0  0
   -2.7260    0.1908   -2.4589 O   0  0  0  0  0  0  0  0  0  0  0  0
   -0.3294    0.4750   -2.3708 C   0  0  0  0  0  0  0  0  0  0  0  0
   -0.2713   -0.4190   -3.6022 C   0  0  0  0  0  0  0  0  0  0  0  0
    1.4636   -0.8408   -3.9797 S   0  0  0  0  0  0  0  0  0  0  0  0
    1.4654   -2.6342   -3.6032 C   0  0  0  0  0  0  0  0  0  0  0  0
    1.2029   -2.9700   -2.1407 C   0  0  0  0  0  0  0  0  0  0  0  0
    2.3627   -2.6034   -1.2398 C   0  0  0  0  0  0  0  0  0  0  0  0
    3.5346   -2.6678   -1.5938 O   0  0  0  0  0  0  0  0  0  0  0  0
    1.9751   -2.2510    0.0365 N   0  0  0  0  0  0  0  0  0  0  0  0
    2.9376   -1.7981    1.0226 C   0  0  0  0  0  0  0  0  0  0  0  0
    3.2852   -0.3218    0.8185 C   0  0  0  0  0  0  0  0  0  0  0  0
    4.2566    0.2732    1.8533 C   0  0  0  0  0  0  0  0  0  0  0  0
    5.6104   -0.4361    1.8576 C   0  0  0  0  0  0  0  0  0  0  0  0
    3.6594    0.2956    3.2593 C   0  0  0  0  0  0  0  0  0  0  0  0
   -4.4257    3.3414    2.4155 H   0  0  0  0  0  0  0  0  0  0  0  0
   -5.0266    3.8123    0.8145 H   0  0  0  0  0  0  0  0  0  0  0  0
   -6.1572    3.2667    2.0491 H   0  0  0  0  0  0  0  0  0  0  0  0
   -5.7045    1.4968    0.3290 H   0  0  0  0  0  0  0  0  0  0  0  0
   -4.7023    0.8104    3.1402 H   0  0  0  0  0  0  0  0  0  0  0  0
   -6.3965    0.8677    2.6244 H   0  0  0  0  0  0  0  0  0  0  0  0
   -5.3069   -0.3449    1.9406 H   0  0  0  0  0  0  0  0  0  0  0  0
   -2.8555    1.4794    1.4721 H   0  0  0  0  0  0  0  0  0  0  0  0
   -3.5246    0.2948    0.3644 H   0  0  0  0  0  0  0  0  0  0  0  0
   -3.8934    2.1781   -1.3327 H   0  0  0  0  0  0  0  0  0  0  0  0
   -3.0261    3.2638   -0.2261 H   0  0  0  0  0  0  0  0  0  0  0  0
   -1.0245    2.1987   -0.6680 H   0  0  0  0  0  0  0  0  0  0  0  0
    0.1335   -0.0148   -1.5063 H   0  0  0  0  0  0  0  0  0  0  0  0
    0.1987    1.4177   -2.5593 H   0  0  0  0  0  0  0  0  0  0  0  0
   -0.8693   -1.3268   -3.4764 H   0  0  0  0  0  0  0  0  0  0  0  0
   -0.6816    0.1137   -4.4667 H   0  0  0  0  0  0  0  0  0  0  0  0
    2.4359   -3.0291   -3.9210 H   0  0  0  0  0  0  0  0  0  0  0  0
    0.7084   -3.1081   -4.2363 H   0  0  0  0  0  0  0  0  0  0  0  0
    0.2747   -2.5119   -1.7852 H   0  0  0  0  0  0  0  0  0  0  0  0
    1.0727   -4.0552   -2.0455 H   0  0  0  0  0  0  0  0  0  0  0  0
    0.9916   -2.1474    0.2464 H   0  0  0  0  0  0  0  0  0  0  0  0
    2.4809   -1.9646    2.0027 H   0  0  0  0  0  0  0  0  0  0  0  0
    3.8317   -2.4245    0.9475 H   0  0  0  0  0  0  0  0  0  0  0  0
    3.7153   -0.1878   -0.1824 H   0  0  0  0  0  0  0  0  0  0  0  0
    2.3582    0.2676    0.8226 H   0  0  0  0  0  0  0  0  0  0  0  0
    4.4336    1.3162    1.5572 H   0  0  0  0  0  0  0  0  0  0  0  0
    6.0372   -0.4690    0.8490 H   0  0  0  0  0  0  0  0  0  0  0  0
    6.3192    0.0951    2.5024 H   0  0  0  0  0  0  0  0  0  0  0  0
    5.5311   -1.4621    2.2301 H   0  0  0  0  0  0  0  0  0  0  0  0
    4.3209    0.8301    3.9500 H   0  0  0  0  0  0  0  0  0  0  0  0
    3.5122   -0.7132    3.6561 H   0  0  0  0  0  0  0  0  0  0  0  0
    2.6920    0.8083    3.2623 H   0  0  0  0  0  0  0  0  0  0  0  0
  1  2  1  0
  2  3  1  0
  2  4  1  0
  4  5  1  0
  5  6  1  0
  6  7  1  0
  7  8  2  0
  7  9  1  0
  9 10  1  0
 10 11  1  0
 11 12  1  0
 12 13  1  0
 13 14  1  0
 14 15  2  0
 14 16  1  0
 16 17  1  0
 17 18  1  0
 18 19  1  0
 19 20  1  0
 19 21  1  0
  1 22  1  0
  1 23  1  0
  1 24  1  0
  2 25  1  0
  3 26  1  0
  3 27  1  0
  3 28  1  0
  4 29  1  0
  4 30  1  0
  5 31  1  0
  5 32  1  0
  6 33  1  0
  9 34  1  0
  9 35  1  0
 10 36  1  0
 10 37  1  0
 12 38  1  0
 12 39  1  0
 13 40  1  0
 13 41  1  0
 16 42  1  0
 17 43  1  0
 17 44  1  0
 18 45  1  0
 18 46  1  0
 19 47  1  0
 20 48  1  0
 20 49  1  0
 20 50  1  0
 21 51  1  0
 21 52  1  0
 21 53  1  0
M  END
$$$$
