
     RDKit          3D

 37 39  0  0  0  0  0  0  0  0999 V2000
   -5.9845    1.3587    2.3483 C   0  0  0  0  0  0  0  0  0  0  0  0
   -6.1739    0.4887    1.1158 C   0  0  0  0  0  0  0  0  0  0  0  0
   -5.0690    0.6844    0.1321 C   0  0  0  0  0  0  0  0  0  0  0  0
   -5.0402    1.6270   -0.7875 N   0  0  0  0  0  0  0  0  0  0  0  0
   -3.8940    1.5635   -1.5541 N   0  0  0  0  0  0  0  0  0  0  0  0
   -3.1044    0.5788   -1.1866 C   0  0  0  0  0  0  0  0  0  0  0  0
   -1.9092    0.3390   -1.8170 N   0  0  0  0  0  0  0  0  0  0  0  0
   -1.0027   -0.6619   -1.5251 C   0  0  0  0  0  0  0  0  0  0  0  0
   -1.1153   -1.5109   -0.6484 O   0  0  0  0  0  0  0  0  0  0  0  0
    0.2256   -0.5914   -2.4480 C   0  0  0  0  0  0  0  0  0  0  0  0
    1.2189   -1.5818   -2.2426 O   0  0  0  0  0  0  0  0  0  0  0  0
    2.2294   -1.2782   -1.3726 C   0  0  0  0  0  0  0  0  0  0  0  0
    3.4216   -1.9664   -1.5930 C   0  0  0  0  0  0  0  0  0  0  0  0
    4.5307   -1.7453   -0.7742 C   0  0  0  0  0  0  0  0  0  0  0  0
    4.4594   -0.8383    0.2923 C   0  0  0  0  0  0  0  0  0  0  0  0
    5.5637   -0.6019    1.1269 C   0  0  0  0  0  0  0  0  0  0  0  0
    5.4734    0.2959    2.1915 C   0  0  0  0  0  0  0  0  0  0  0  0
    4.2785    0.9658    2.4363 C   0  0  0  0  0  0  0  0  0  0  0  0
    3.1720    0.7414    1.6154 C   0  0  0  0  0  0  0  0  0  0  0  0
    3.2462   -0.1548    0.5361 C   0  0  0  0  0  0  0  0  0  0  0  0
    2.1390   -0.3885   -0.3008 C   0  0  0  0  0  0  0  0  0  0  0  0
   -3.6924   -0.3424    0.1181 S   0  0  0  0  0  0  0  0  0  0  0  0
   -6.8162    1.2150    3.0452 H   0  0  0  0  0  0  0  0  0  0  0  0
   -5.9443    2.4204    2.0814 H   0  0  0  0  0  0  0  0  0  0  0  0
   -5.0556    1.1093    2.8723 H   0  0  0  0  0  0  0  0  0  0  0  0
   -7.1259    0.7458    0.6364 H   0  0  0  0  0  0  0  0  0  0  0  0
   -6.2480   -0.5632    1.4153 H   0  0  0  0  0  0  0  0  0  0  0  0
   -1.7260    0.9852   -2.5729 H   0  0  0  0  0  0  0  0  0  0  0  0
    0.6523    0.4200   -2.4234 H   0  0  0  0  0  0  0  0  0  0  0  0
   -0.1465   -0.7435   -3.4688 H   0  0  0  0  0  0  0  0  0  0  0  0
    3.4912   -2.6780   -2.4119 H   0  0  0  0  0  0  0  0  0  0  0  0
    5.4492   -2.2918   -0.9742 H   0  0  0  0  0  0  0  0  0  0  0  0
    6.5042   -1.1203    0.9545 H   0  0  0  0  0  0  0  0  0  0  0  0
    6.3351    0.4681    2.8311 H   0  0  0  0  0  0  0  0  0  0  0  0
    4.2053    1.6616    3.2680 H   0  0  0  0  0  0  0  0  0  0  0  0
    2.2464    1.2722    1.8272 H   0  0  0  0  0  0  0  0  0  0  0  0
    1.2063    0.1178   -0.0764 H   0  0  0  0  0  0  0  0  0  0  0  0
  1  2  1  0
  2  3  1  0
  3  4  2  0
  4  5  1  0
  5  6  2  0
  6  7  1  0
  7  8  1  0
  8  9  2  0
  8 10  1  0
 10 11  1  0
 11 12  1  0
 12 13  2  0
 13 14  1  0
 14 15  2  0
 15 16  1  0
 16 17  2  0
 17 18  1  0
 18 19  2  0
 19 20  1  0
 20 21  2  0
  6 22  1  0
 22  3  1  0
 21 12  1  0
 20 15  1  0
  1 23  1  0
  1 24  1  0
  1 25  1  0
  2 26  1  0
  2 27  1  0
  7 28  1  0
 10 29  1  0
 10 30  1  0
 13 31  1  0
 14 32  1  0
 16 33  1  0
 17 34  1  0
 18 35  1  0
 19 36  1  0
 21 37  1  0
M  END
$$$$
