
     RDKit          3D

 69 74  0  0  0  0  0  0  0  0999 V2000
    1.7494   -1.3657    0.9189 O   0  0  0  0  0  0  0  0  0  0  0  0
    2.0671   -0.5643   -0.2320 C   0  0  0  0  0  0  0  0  0  0  0  0
    3.3954   -1.0393   -0.8375 C   0  0  0  0  0  0  0  0  0  0  0  0
    4.4608   -0.6317    0.0291 O   0  0  0  0  0  0  0  0  0  0  0  0
    5.7269   -1.0764   -0.2250 C   0  0  0  0  0  0  0  0  0  0  0  0
    6.0708   -1.7515   -1.4050 C   0  0  0  0  0  0  0  0  0  0  0  0
    7.3795   -2.1758   -1.6371 C   0  0  0  0  0  0  0  0  0  0  0  0
    8.3703   -1.9221   -0.6951 C   0  0  0  0  0  0  0  0  0  0  0  0
    8.0695   -1.2463    0.4876 C   0  0  0  0  0  0  0  0  0  0  0  0
    9.1418   -1.0233    1.3820 N   0  0  0  0  0  0  0  0  0  0  0  0
    8.9000   -0.3998    2.4911 C   0  0  0  0  0  0  0  0  0  0  0  0
    7.5885    0.0602    2.8250 C   0  0  0  0  0  0  0  0  0  0  0  0
    7.1309    0.7358    3.9360 C   0  0  0  0  0  0  0  0  0  0  0  0
    5.7469    0.9371    3.7544 C   0  0  0  0  0  0  0  0  0  0  0  0
    5.4049    0.3743    2.5419 C   0  0  0  0  0  0  0  0  0  0  0  0
    6.5344   -0.1561    1.9602 N   0  0  0  0  0  0  0  0  0  0  0  0
    6.7376   -0.8255    0.7237 C   0  0  0  0  0  0  0  0  0  0  0  0
    0.9116   -0.6899   -1.2492 C   0  0  0  0  0  0  0  0  0  0  0  0
   -0.4072   -0.4433   -0.6221 N   0  0  0  0  0  0  0  0  0  0  0  0
   -1.4932   -0.8308   -1.5514 C   0  0  0  0  0  0  0  0  0  0  0  0
   -2.8987   -0.5488   -0.9670 C   0  0  0  0  0  0  0  0  0  0  0  0
   -3.0621    0.8749   -0.6231 N   0  0  0  0  0  0  0  0  0  0  0  0
   -4.4162    1.2642   -0.1524 C   0  0  0  0  0  0  0  0  0  0  0  0
   -5.0399    0.3148    0.8799 C   0  0  0  0  0  0  0  0  0  0  0  0
   -5.8173   -0.7926    0.4929 C   0  0  0  0  0  0  0  0  0  0  0  0
   -6.3678   -1.6489    1.4476 C   0  0  0  0  0  0  0  0  0  0  0  0
   -6.1514   -1.4131    2.8034 C   0  0  0  0  0  0  0  0  0  0  0  0
   -5.3852   -0.3218    3.2057 C   0  0  0  0  0  0  0  0  0  0  0  0
   -4.8336    0.5360    2.2523 C   0  0  0  0  0  0  0  0  0  0  0  0
   -5.3819    1.6594   -1.2882 C   0  0  0  0  0  0  0  0  0  0  0  0
   -6.6322    2.2234   -0.9573 C   0  0  0  0  0  0  0  0  0  0  0  0
   -7.5349    2.6156   -1.9472 C   0  0  0  0  0  0  0  0  0  0  0  0
   -7.2045    2.4584   -3.2908 C   0  0  0  0  0  0  0  0  0  0  0  0
   -5.9689    1.9206   -3.6416 C   0  0  0  0  0  0  0  0  0  0  0  0
   -5.0629    1.5326   -2.6501 C   0  0  0  0  0  0  0  0  0  0  0  0
   -1.9994    1.2673    0.3174 C   0  0  0  0  0  0  0  0  0  0  0  0
   -0.5890    0.9781   -0.2501 C   0  0  0  0  0  0  0  0  0  0  0  0
    0.7756   -1.3022    1.0090 H   0  0  0  0  0  0  0  0  0  0  0  0
    2.1747    0.4692    0.1166 H   0  0  0  0  0  0  0  0  0  0  0  0
    3.5382   -0.5721   -1.8187 H   0  0  0  0  0  0  0  0  0  0  0  0
    3.3854   -2.1326   -0.9252 H   0  0  0  0  0  0  0  0  0  0  0  0
    5.3383   -1.9625   -2.1779 H   0  0  0  0  0  0  0  0  0  0  0  0
    7.6282   -2.7000   -2.5564 H   0  0  0  0  0  0  0  0  0  0  0  0
    9.3911   -2.2483   -0.8788 H   0  0  0  0  0  0  0  0  0  0  0  0
    9.7265   -0.2179    3.1977 H   0  0  0  0  0  0  0  0  0  0  0  0
    7.7261    1.0459    4.7850 H   0  0  0  0  0  0  0  0  0  0  0  0
    5.0625    1.4298    4.4328 H   0  0  0  0  0  0  0  0  0  0  0  0
    4.4349    0.3152    2.0723 H   0  0  0  0  0  0  0  0  0  0  0  0
    1.0799   -0.0269   -2.1080 H   0  0  0  0  0  0  0  0  0  0  0  0
    0.9169   -1.7230   -1.6242 H   0  0  0  0  0  0  0  0  0  0  0  0
   -1.3882   -0.3009   -2.5073 H   0  0  0  0  0  0  0  0  0  0  0  0
   -1.4236   -1.9043   -1.7634 H   0  0  0  0  0  0  0  0  0  0  0  0
   -3.0311   -1.1893   -0.0861 H   0  0  0  0  0  0  0  0  0  0  0  0
   -3.6405   -0.8542   -1.7128 H   0  0  0  0  0  0  0  0  0  0  0  0
   -4.2906    2.2310    0.3606 H   0  0  0  0  0  0  0  0  0  0  0  0
   -5.9994   -0.9928   -0.5615 H   0  0  0  0  0  0  0  0  0  0  0  0
   -6.9628   -2.5018    1.1328 H   0  0  0  0  0  0  0  0  0  0  0  0
   -6.5779   -2.0811    3.5463 H   0  0  0  0  0  0  0  0  0  0  0  0
   -5.2147   -0.1387    4.2633 H   0  0  0  0  0  0  0  0  0  0  0  0
   -4.2342    1.3796    2.5889 H   0  0  0  0  0  0  0  0  0  0  0  0
   -6.9112    2.3590    0.0865 H   0  0  0  0  0  0  0  0  0  0  0  0
   -8.4927    3.0489   -1.6679 H   0  0  0  0  0  0  0  0  0  0  0  0
   -7.9057    2.7640   -4.0619 H   0  0  0  0  0  0  0  0  0  0  0  0
   -5.7025    1.8074   -4.6901 H   0  0  0  0  0  0  0  0  0  0  0  0
   -4.0976    1.1409   -2.9599 H   0  0  0  0  0  0  0  0  0  0  0  0
   -2.0593    2.3429    0.5227 H   0  0  0  0  0  0  0  0  0  0  0  0
   -2.1092    0.7428    1.2747 H   0  0  0  0  0  0  0  0  0  0  0  0
    0.1346    1.2591    0.5226 H   0  0  0  0  0  0  0  0  0  0  0  0
   -0.4117    1.6271   -1.1186 H   0  0  0  0  0  0  0  0  0  0  0  0
  1  2  1  0
  2  3  1  0
  3  4  1  0
  4  5  1  0
  5  6  2  0
  6  7  1  0
  7  8  2  0
  8  9  1  0
  9 10  1  0
 10 11  2  0
 11 12  1  0
 12 13  2  0
 13 14  1  0
 14 15  2  0
 15 16  1  0
 16 17  1  0
  2 18  1  0
 18 19  1  0
 19 20  1  0
 20 21  1  0
 21 22  1  0
 22 23  1  0
 23 24  1  0
 24 25  2  0
 25 26  1  0
 26 27  2  0
 27 28  1  0
 28 29  2  0
 23 30  1  0
 30 31  2  0
 31 32  1  0
 32 33  2  0
 33 34  1  0
 34 35  2  0
 22 36  1  0
 36 37  1  0
 17  5  1  0
 37 19  1  0
 17  9  2  0
 29 24  1  0
 35 30  1  0
 16 12  1  0
  1 38  1  0
  2 39  1  0
  3 40  1  0
  3 41  1  0
  6 42  1  0
  7 43  1  0
  8 44  1  0
 11 45  1  0
 13 46  1  0
 14 47  1  0
 15 48  1  0
 18 49  1  0
 18 50  1  0
 20 51  1  0
 20 52  1  0
 21 53  1  0
 21 54  1  0
 23 55  1  0
 25 56  1  0
 26 57  1  0
 27 58  1  0
 28 59  1  0
 29 60  1  0
 31 61  1  0
 32 62  1  0
 33 63  1  0
 34 64  1  0
 35 65  1  0
 36 66  1  0
 36 67  1  0
 37 68  1  0
 37 69  1  0
M  END
$$$$
