
     RDKit          3D

 39 40  0  0  0  0  0  0  0  0999 V2000
    5.5294    0.1156    1.5127 C   0  0  0  0  0  0  0  0  0  0  0  0
    5.4970   -0.1826    0.0189 C   0  0  0  0  0  0  0  0  0  0  0  0
    5.0405    1.0244   -0.8155 C   0  0  0  0  0  0  0  0  0  0  0  0
    5.1806    0.7395   -2.3118 C   0  0  0  0  0  0  0  0  0  0  0  0
    3.6108    1.4631   -0.4850 C   0  0  0  0  0  0  0  0  0  0  0  0
    3.4050    2.5827   -0.0259 O   0  0  0  0  0  0  0  0  0  0  0  0
    2.6584    0.5059   -0.7472 N   0  0  0  0  0  0  0  0  0  0  0  0
    1.3280    0.7213   -0.5148 C   0  0  0  0  0  0  0  0  0  0  0  0
    0.6986    1.7707   -0.0478 N   0  0  0  0  0  0  0  0  0  0  0  0
   -0.6667    1.5625    0.0220 N   0  0  0  0  0  0  0  0  0  0  0  0
   -1.0069    0.3555   -0.3824 C   0  0  0  0  0  0  0  0  0  0  0  0
   -2.4044   -0.1713   -0.4318 C   0  0  0  0  0  0  0  0  0  0  0  0
   -3.2035    0.2334    0.8107 C   0  0  0  0  0  0  0  0  0  0  0  0
   -4.5919   -0.3584    0.7881 C   0  0  0  0  0  0  0  0  0  0  0  0
   -4.8557   -1.5771    1.4281 C   0  0  0  0  0  0  0  0  0  0  0  0
   -6.1350   -2.1338    1.3859 C   0  0  0  0  0  0  0  0  0  0  0  0
   -7.1593   -1.4805    0.7014 C   0  0  0  0  0  0  0  0  0  0  0  0
   -6.9061   -0.2696    0.0591 C   0  0  0  0  0  0  0  0  0  0  0  0
   -5.6280    0.2893    0.1003 C   0  0  0  0  0  0  0  0  0  0  0  0
    0.3246   -0.6064   -0.9010 S   0  0  0  0  0  0  0  0  0  0  0  0
    5.9190   -0.7490    2.0602 H   0  0  0  0  0  0  0  0  0  0  0  0
    6.1763    0.9720    1.7279 H   0  0  0  0  0  0  0  0  0  0  0  0
    4.5288    0.3329    1.8997 H   0  0  0  0  0  0  0  0  0  0  0  0
    6.5065   -0.4762   -0.2953 H   0  0  0  0  0  0  0  0  0  0  0  0
    4.8497   -1.0497   -0.1563 H   0  0  0  0  0  0  0  0  0  0  0  0
    5.6937    1.8760   -0.5811 H   0  0  0  0  0  0  0  0  0  0  0  0
    6.2324    0.5895   -2.5788 H   0  0  0  0  0  0  0  0  0  0  0  0
    4.7971    1.5770   -2.9053 H   0  0  0  0  0  0  0  0  0  0  0  0
    4.6297   -0.1588   -2.6103 H   0  0  0  0  0  0  0  0  0  0  0  0
    2.9115   -0.3953   -1.1214 H   0  0  0  0  0  0  0  0  0  0  0  0
   -2.8914    0.2167   -1.3364 H   0  0  0  0  0  0  0  0  0  0  0  0
   -2.3978   -1.2657   -0.5237 H   0  0  0  0  0  0  0  0  0  0  0  0
   -2.6824   -0.0884    1.7233 H   0  0  0  0  0  0  0  0  0  0  0  0
   -3.2804    1.3272    0.8837 H   0  0  0  0  0  0  0  0  0  0  0  0
   -4.0679   -2.0993    1.9676 H   0  0  0  0  0  0  0  0  0  0  0  0
   -6.3332   -3.0770    1.8889 H   0  0  0  0  0  0  0  0  0  0  0  0
   -8.1555   -1.9137    0.6705 H   0  0  0  0  0  0  0  0  0  0  0  0
   -7.7052    0.2414   -0.4730 H   0  0  0  0  0  0  0  0  0  0  0  0
   -5.4464    1.2363   -0.4045 H   0  0  0  0  0  0  0  0  0  0  0  0
  1  2  1  0
  2  3  1  0
  3  4  1  0
  3  5  1  0
  5  6  2  0
  5  7  1  0
  7  8  1  0
  8  9  2  0
  9 10  1  0
 10 11  2  0
 11 12  1  0
 12 13  1  0
 13 14  1  0
 14 15  2  0
 15 16  1  0
 16 17  2  0
 17 18  1  0
 18 19  2  0
 11 20  1  0
 20  8  1  0
 19 14  1  0
  1 21  1  0
  1 22  1  0
  1 23  1  0
  2 24  1  0
  2 25  1  0
  3 26  1  0
  4 27  1  0
  4 28  1  0
  4 29  1  0
  7 30  1  0
 12 31  1  0
 12 32  1  0
 13 33  1  0
 13 34  1  0
 15 35  1  0
 16 36  1  0
 17 37  1  0
 18 38  1  0
 19 39  1  0
M  END
$$$$
