
     RDKit          3D

 52 56  0  0  0  0  0  0  0  0999 V2000
    3.3572   -3.2502   -0.0037 O   0  0  0  0  0  0  0  0  0  0  0  0
    2.4867   -2.6375    0.6110 C   0  0  0  0  0  0  0  0  0  0  0  0
    1.2914   -3.3764    1.1932 C   0  0  0  0  0  0  0  0  0  0  0  0
   -0.1625   -3.2194    0.1163 S   0  0  0  0  0  0  0  0  0  0  0  0
   -0.8716   -1.7496    0.7048 C   0  0  0  0  0  0  0  0  0  0  0  0
   -0.2680   -0.9290    1.5335 N   0  0  0  0  0  0  0  0  0  0  0  0
   -1.1593    0.0374    1.8885 N   0  0  0  0  0  0  0  0  0  0  0  0
   -2.3044   -0.2013    1.2728 C   0  0  0  0  0  0  0  0  0  0  0  0
   -3.4822    0.7202    1.3136 C   0  0  0  0  0  0  0  0  0  0  0  0
   -3.7653    1.3825   -0.0059 C   0  0  0  0  0  0  0  0  0  0  0  0
   -2.9018    2.0893   -0.8249 C   0  0  0  0  0  0  0  0  0  0  0  0
   -3.5390    2.5620   -2.0098 C   0  0  0  0  0  0  0  0  0  0  0  0
   -4.8715    2.2118   -2.0518 C   0  0  0  0  0  0  0  0  0  0  0  0
   -5.3512    1.3380   -0.6637 S   0  0  0  0  0  0  0  0  0  0  0  0
   -2.1833   -1.3520    0.4997 N   0  0  0  0  0  0  0  0  0  0  0  0
   -3.1742   -1.9647   -0.3104 C   0  0  0  0  0  0  0  0  0  0  0  0
   -4.4657   -2.1714    0.1887 C   0  0  0  0  0  0  0  0  0  0  0  0
   -5.4371   -2.7628   -0.6224 C   0  0  0  0  0  0  0  0  0  0  0  0
   -5.1244   -3.1488   -1.9258 C   0  0  0  0  0  0  0  0  0  0  0  0
   -3.8384   -2.9467   -2.4224 C   0  0  0  0  0  0  0  0  0  0  0  0
   -2.8608   -2.3582   -1.6188 C   0  0  0  0  0  0  0  0  0  0  0  0
    2.4697   -1.2770    0.8620 N   0  0  0  0  0  0  0  0  0  0  0  0
    3.4556   -0.3231    0.5331 C   0  0  0  0  0  0  0  0  0  0  0  0
    4.6954   -0.6465   -0.0255 C   0  0  0  0  0  0  0  0  0  0  0  0
    5.6372    0.3532   -0.2959 C   0  0  0  0  0  0  0  0  0  0  0  0
    5.3430    1.6830   -0.0122 C   0  0  0  0  0  0  0  0  0  0  0  0
    4.0931    2.0199    0.5131 C   0  0  0  0  0  0  0  0  0  0  0  0
    3.1613    1.0204    0.8026 C   0  0  0  0  0  0  0  0  0  0  0  0
    3.7168    3.3128    0.7789 O   0  0  0  0  0  0  0  0  0  0  0  0
    4.5883    4.2477    0.1303 C   0  0  0  0  0  0  0  0  0  0  0  0
    6.0420    3.8606    0.3451 C   0  0  0  0  0  0  0  0  0  0  0  0
    6.3249    2.6039   -0.2757 O   0  0  0  0  0  0  0  0  0  0  0  0
    1.5511   -4.4387    1.2566 H   0  0  0  0  0  0  0  0  0  0  0  0
    1.0896   -3.0399    2.2146 H   0  0  0  0  0  0  0  0  0  0  0  0
   -3.2765    1.5121    2.0458 H   0  0  0  0  0  0  0  0  0  0  0  0
   -4.3585    0.1949    1.7049 H   0  0  0  0  0  0  0  0  0  0  0  0
   -1.8545    2.2555   -0.5900 H   0  0  0  0  0  0  0  0  0  0  0  0
   -3.0460    3.1266   -2.7936 H   0  0  0  0  0  0  0  0  0  0  0  0
   -5.5901    2.4342   -2.8286 H   0  0  0  0  0  0  0  0  0  0  0  0
   -4.7338   -1.9252    1.2138 H   0  0  0  0  0  0  0  0  0  0  0  0
   -6.4388   -2.9316   -0.2363 H   0  0  0  0  0  0  0  0  0  0  0  0
   -5.8818   -3.6074   -2.5550 H   0  0  0  0  0  0  0  0  0  0  0  0
   -3.5977   -3.2433   -3.4414 H   0  0  0  0  0  0  0  0  0  0  0  0
   -1.8784   -2.1830   -2.0508 H   0  0  0  0  0  0  0  0  0  0  0  0
    1.6209   -0.9075    1.2934 H   0  0  0  0  0  0  0  0  0  0  0  0
    4.9701   -1.6720   -0.2490 H   0  0  0  0  0  0  0  0  0  0  0  0
    6.6033    0.0862   -0.7150 H   0  0  0  0  0  0  0  0  0  0  0  0
    2.2019    1.3048    1.2278 H   0  0  0  0  0  0  0  0  0  0  0  0
    4.3326    4.2774   -0.9367 H   0  0  0  0  0  0  0  0  0  0  0  0
    4.3928    5.2361    0.5555 H   0  0  0  0  0  0  0  0  0  0  0  0
    6.7056    4.6073   -0.1027 H   0  0  0  0  0  0  0  0  0  0  0  0
    6.2861    3.7855    1.4122 H   0  0  0  0  0  0  0  0  0  0  0  0
  1  2  2  0
  2  3  1  0
  3  4  1  0
  4  5  1  0
  5  6  2  0
  6  7  1  0
  7  8  2  0
  8  9  1  0
  9 10  1  0
 10 11  2  0
 11 12  1  0
 12 13  2  0
 13 14  1  0
  8 15  1  0
 15 16  1  0
 16 17  2  0
 17 18  1  0
 18 19  2  0
 19 20  1  0
 20 21  2  0
  2 22  1  0
 22 23  1  0
 23 24  2  0
 24 25  1  0
 25 26  2  0
 26 27  1  0
 27 28  2  0
 27 29  1  0
 29 30  1  0
 30 31  1  0
 31 32  1  0
 15  5  1  0
 21 16  1  0
 28 23  1  0
 14 10  1  0
 32 26  1  0
  3 33  1  0
  3 34  1  0
  9 35  1  0
  9 36  1  0
 11 37  1  0
 12 38  1  0
 13 39  1  0
 17 40  1  0
 18 41  1  0
 19 42  1  0
 20 43  1  0
 21 44  1  0
 22 45  1  0
 24 46  1  0
 25 47  1  0
 28 48  1  0
 30 49  1  0
 30 50  1  0
 31 51  1  0
 31 52  1  0
M  END
$$$$
