
     RDKit          3D

 40 42  0  0  0  0  0  0  0  0999 V2000
   -7.1175    0.9355   -0.4418 C   0  0  0  0  0  0  0  0  0  0  0  0
   -6.4824   -0.1563    0.8116 S   0  0  0  0  0  6  0  0  0  0  0  0
   -7.5768   -0.9883    1.2660 O   0  0  0  0  0  0  0  0  0  0  0  0
   -5.6793    0.5993    1.7456 O   0  0  0  0  0  0  0  0  0  0  0  0
   -5.4963   -1.1859   -0.1055 N   0  0  0  0  0  0  0  0  0  0  0  0
   -4.1133   -0.8553   -0.1858 C   0  0  0  0  0  0  0  0  0  0  0  0
   -3.6614   -0.0617   -1.2383 C   0  0  0  0  0  0  0  0  0  0  0  0
   -2.3140    0.3007   -1.3052 C   0  0  0  0  0  0  0  0  0  0  0  0
   -1.4169   -0.1270   -0.3170 C   0  0  0  0  0  0  0  0  0  0  0  0
    0.0113    0.2915   -0.4271 C   0  0  0  0  0  0  0  0  0  0  0  0
    0.2567    1.3694   -0.9542 O   0  0  0  0  0  0  0  0  0  0  0  0
    0.9286   -0.6269    0.0513 N   0  0  0  0  0  0  0  0  0  0  0  0
    2.3317   -0.4824    0.1130 C   0  0  0  0  0  0  0  0  0  0  0  0
    3.0659   -1.5917    0.5589 C   0  0  0  0  0  0  0  0  0  0  0  0
    4.4585   -1.5331    0.6635 C   0  0  0  0  0  0  0  0  0  0  0  0
    5.1278   -0.3614    0.3284 C   0  0  0  0  0  0  0  0  0  0  0  0
    4.4076    0.7412   -0.1383 C   0  0  0  0  0  0  0  0  0  0  0  0
    3.0142    0.6868   -0.2307 C   0  0  0  0  0  0  0  0  0  0  0  0
    5.0047    1.9187   -0.5149 O   0  0  0  0  0  0  0  0  0  0  0  0
    6.4122    1.7508   -0.7135 C   0  0  0  0  0  0  0  0  0  0  0  0
    7.0232    0.9637    0.4336 C   0  0  0  0  0  0  0  0  0  0  0  0
    6.4908   -0.3655    0.4758 O   0  0  0  0  0  0  0  0  0  0  0  0
   -1.8854   -0.8978    0.7561 C   0  0  0  0  0  0  0  0  0  0  0  0
   -3.2338   -1.2637    0.8179 C   0  0  0  0  0  0  0  0  0  0  0  0
   -7.8491    1.5958    0.0293 H   0  0  0  0  0  0  0  0  0  0  0  0
   -7.6023    0.3413   -1.2185 H   0  0  0  0  0  0  0  0  0  0  0  0
   -6.2979    1.5277   -0.8511 H   0  0  0  0  0  0  0  0  0  0  0  0
   -5.6969   -2.1503    0.1682 H   0  0  0  0  0  0  0  0  0  0  0  0
   -4.3438    0.2716   -2.0147 H   0  0  0  0  0  0  0  0  0  0  0  0
   -1.9629    0.9208   -2.1285 H   0  0  0  0  0  0  0  0  0  0  0  0
    0.5723   -1.5310    0.3298 H   0  0  0  0  0  0  0  0  0  0  0  0
    2.5669   -2.5173    0.8336 H   0  0  0  0  0  0  0  0  0  0  0  0
    5.0172   -2.3955    1.0159 H   0  0  0  0  0  0  0  0  0  0  0  0
    2.4929    1.5722   -0.5793 H   0  0  0  0  0  0  0  0  0  0  0  0
    6.5720    1.2489   -1.6759 H   0  0  0  0  0  0  0  0  0  0  0  0
    6.8607    2.7476   -0.7699 H   0  0  0  0  0  0  0  0  0  0  0  0
    6.8311    1.4468    1.3997 H   0  0  0  0  0  0  0  0  0  0  0  0
    8.1067    0.8825    0.3022 H   0  0  0  0  0  0  0  0  0  0  0  0
   -1.2285   -1.1849    1.5727 H   0  0  0  0  0  0  0  0  0  0  0  0
   -3.5946   -1.8368    1.6683 H   0  0  0  0  0  0  0  0  0  0  0  0
  1  2  1  0
  2  3  2  0
  2  4  2  0
  2  5  1  0
  5  6  1  0
  6  7  2  0
  7  8  1  0
  8  9  2  0
  9 10  1  0
 10 11  2  0
 10 12  1  0
 12 13  1  0
 13 14  2  0
 14 15  1  0
 15 16  2  0
 16 17  1  0
 17 18  2  0
 17 19  1  0
 19 20  1  0
 20 21  1  0
 21 22  1  0
  9 23  1  0
 23 24  2  0
 24  6  1  0
 18 13  1  0
 22 16  1  0
  1 25  1  0
  1 26  1  0
  1 27  1  0
  5 28  1  0
  7 29  1  0
  8 30  1  0
 12 31  1  0
 14 32  1  0
 15 33  1  0
 18 34  1  0
 20 35  1  0
 20 36  1  0
 21 37  1  0
 21 38  1  0
 23 39  1  0
 24 40  1  0
M  END
$$$$
