
     RDKit          3D

 46 48  0  0  0  0  0  0  0  0999 V2000
    1.8280   -0.8881   -3.5814 O   0  0  0  0  0  0  0  0  0  0  0  0
    1.2652   -0.1795   -2.7445 C   0  0  0  0  0  0  0  0  0  0  0  0
   -0.2419   -0.1702   -2.5334 C   0  0  0  0  0  0  0  0  0  0  0  0
   -0.5205   -0.0307   -1.1433 O   0  0  0  0  0  0  0  0  0  0  0  0
   -1.8368   -0.0817   -0.7755 C   0  0  0  0  0  0  0  0  0  0  0  0
   -2.0563   -0.1457    0.6006 C   0  0  0  0  0  0  0  0  0  0  0  0
   -3.3550   -0.2155    1.1129 C   0  0  0  0  0  0  0  0  0  0  0  0
   -4.4628   -0.2104    0.2568 C   0  0  0  0  0  0  0  0  0  0  0  0
   -5.8260   -0.2966    0.7894 C   0  0  0  0  0  0  0  0  0  0  0  0
   -6.6934    0.8049    0.7342 C   0  0  0  0  0  0  0  0  0  0  0  0
   -7.9933    0.7185    1.2393 C   0  0  0  0  0  0  0  0  0  0  0  0
   -8.4434   -0.4718    1.8031 C   0  0  0  0  0  0  0  0  0  0  0  0
   -7.5955   -1.5750    1.8662 C   0  0  0  0  0  0  0  0  0  0  0  0
   -6.2947   -1.4865    1.3648 C   0  0  0  0  0  0  0  0  0  0  0  0
   -4.2329   -0.1303   -1.1234 C   0  0  0  0  0  0  0  0  0  0  0  0
   -2.9317   -0.0685   -1.6379 C   0  0  0  0  0  0  0  0  0  0  0  0
    1.9501    0.7289   -1.9564 N   0  0  0  0  0  0  0  0  0  0  0  0
    3.3627    0.6238   -1.9545 N   0  0  0  0  0  0  0  0  0  0  0  0
    3.9794    0.6633   -0.7110 C   0  0  0  0  0  0  0  0  0  0  0  0
    3.3546    0.9330    0.3094 O   0  0  0  0  0  0  0  0  0  0  0  0
    5.3253    0.3981   -0.8123 N   0  0  0  0  0  0  0  0  0  0  0  0
    6.2784    0.3469    0.2253 C   0  0  0  0  0  0  0  0  0  0  0  0
    5.9751    0.4863    1.5805 C   0  0  0  0  0  0  0  0  0  0  0  0
    6.9978    0.4296    2.5345 C   0  0  0  0  0  0  0  0  0  0  0  0
    8.3143    0.2231    2.1325 C   0  0  0  0  0  0  0  0  0  0  0  0
    9.2841    0.1657    3.0525 F   0  0  0  0  0  0  0  0  0  0  0  0
    8.6363    0.0671    0.7941 C   0  0  0  0  0  0  0  0  0  0  0  0
    7.6155    0.1341   -0.1467 C   0  0  0  0  0  0  0  0  0  0  0  0
    7.9218   -0.0090   -1.4474 F   0  0  0  0  0  0  0  0  0  0  0  0
   -0.6366   -1.1224   -2.9085 H   0  0  0  0  0  0  0  0  0  0  0  0
   -0.6482    0.6729   -3.1047 H   0  0  0  0  0  0  0  0  0  0  0  0
   -1.2108   -0.1510    1.2840 H   0  0  0  0  0  0  0  0  0  0  0  0
   -3.4980   -0.2711    2.1899 H   0  0  0  0  0  0  0  0  0  0  0  0
   -6.3546    1.7414    0.3017 H   0  0  0  0  0  0  0  0  0  0  0  0
   -8.6516    1.5812    1.1932 H   0  0  0  0  0  0  0  0  0  0  0  0
   -9.4557   -0.5405    2.1931 H   0  0  0  0  0  0  0  0  0  0  0  0
   -7.9452   -2.5070    2.3004 H   0  0  0  0  0  0  0  0  0  0  0  0
   -5.6468   -2.3593    1.4123 H   0  0  0  0  0  0  0  0  0  0  0  0
   -5.0755   -0.1284   -1.8118 H   0  0  0  0  0  0  0  0  0  0  0  0
   -2.8170   -0.0131   -2.7146 H   0  0  0  0  0  0  0  0  0  0  0  0
    1.5345    0.9825   -1.0556 H   0  0  0  0  0  0  0  0  0  0  0  0
    3.7129   -0.0551   -2.6301 H   0  0  0  0  0  0  0  0  0  0  0  0
    5.6997    0.3235   -1.7503 H   0  0  0  0  0  0  0  0  0  0  0  0
    4.9572    0.6401    1.9281 H   0  0  0  0  0  0  0  0  0  0  0  0
    6.7700    0.5430    3.5901 H   0  0  0  0  0  0  0  0  0  0  0  0
    9.6613   -0.1003    0.4874 H   0  0  0  0  0  0  0  0  0  0  0  0
  1  2  2  0
  2  3  1  0
  3  4  1  0
  4  5  1  0
  5  6  2  0
  6  7  1  0
  7  8  2  0
  8  9  1  0
  9 10  2  0
 10 11  1  0
 11 12  2  0
 12 13  1  0
 13 14  2  0
  8 15  1  0
 15 16  2  0
  2 17  1  0
 17 18  1  0
 18 19  1  0
 19 20  2  0
 19 21  1  0
 21 22  1  0
 22 23  2  0
 23 24  1  0
 24 25  2  0
 25 26  1  0
 25 27  1  0
 27 28  2  0
 28 29  1  0
 16  5  1  0
 28 22  1  0
 14  9  1  0
  3 30  1  0
  3 31  1  0
  6 32  1  0
  7 33  1  0
 10 34  1  0
 11 35  1  0
 12 36  1  0
 13 37  1  0
 14 38  1  0
 15 39  1  0
 16 40  1  0
 17 41  1  0
 18 42  1  0
 21 43  1  0
 23 44  1  0
 24 45  1  0
 27 46  1  0
M  END
$$$$
