
     RDKit          3D

 57 60  0  0  0  0  0  0  0  0999 V2000
   -1.4279   -2.7513    3.0647 C   0  0  0  0  0  0  0  0  0  0  0  0
   -2.0625   -1.9294    2.0794 O   0  0  0  0  0  0  0  0  0  0  0  0
   -1.2055   -1.6373    1.0549 C   0  0  0  0  0  0  0  0  0  0  0  0
   -0.9524   -2.6340    0.1044 C   0  0  0  0  0  0  0  0  0  0  0  0
   -0.1464   -2.3675   -1.0035 C   0  0  0  0  0  0  0  0  0  0  0  0
    0.4025   -1.0925   -1.1722 C   0  0  0  0  0  0  0  0  0  0  0  0
    1.2527   -0.7619   -2.3450 C   0  0  0  0  0  0  0  0  0  0  0  0
    1.2133    0.3639   -2.8236 O   0  0  0  0  0  0  0  0  0  0  0  0
    2.0719   -1.7714   -2.7999 N   0  0  0  0  0  0  0  0  0  0  0  0
    3.0879   -1.5140   -3.7970 C   0  0  0  0  0  0  0  0  0  0  0  0
    4.4175   -1.2428   -3.1384 C   0  0  0  0  0  0  0  0  0  0  0  0
    5.3345   -2.2951   -2.9103 C   0  0  0  0  0  0  0  0  0  0  0  0
    6.5561   -2.0580   -2.2718 C   0  0  0  0  0  0  0  0  0  0  0  0
    6.8312   -0.7687   -1.8706 C   0  0  0  0  0  0  0  0  0  0  0  0
    5.9454    0.2606   -2.0843 C   0  0  0  0  0  0  0  0  0  0  0  0
    4.7327    0.0576   -2.7068 C   0  0  0  0  0  0  0  0  0  0  0  0
    6.4095    1.4515   -1.6192 O   0  0  0  0  0  0  0  0  0  0  0  0
    7.6937    1.0554   -1.0970 C   0  0  0  0  0  0  0  0  0  0  0  0
    7.9633   -0.3569   -1.2396 O   0  0  0  0  0  0  0  0  0  0  0  0
    0.1284   -0.0838   -0.2396 C   0  0  0  0  0  0  0  0  0  0  0  0
   -0.6866   -0.3529    0.8707 C   0  0  0  0  0  0  0  0  0  0  0  0
   -0.9428    0.9500    2.0581 S   0  0  0  0  0  6  0  0  0  0  0  0
   -1.0471    0.3639    3.3768 O   0  0  0  0  0  0  0  0  0  0  0  0
    0.0706    1.9548    1.8035 O   0  0  0  0  0  0  0  0  0  0  0  0
   -2.4438    1.6132    1.6259 N   0  0  0  0  0  0  0  0  0  0  0  0
   -2.5099    2.3050    0.3238 C   0  0  0  0  0  0  0  0  0  0  0  0
   -3.6351    0.7847    1.9243 C   0  0  0  0  0  0  0  0  0  0  0  0
   -4.8717    1.6112    2.2033 C   0  0  0  0  0  0  0  0  0  0  0  0
   -5.9826    1.5686    1.3483 C   0  0  0  0  0  0  0  0  0  0  0  0
   -7.1243    2.3203    1.6359 C   0  0  0  0  0  0  0  0  0  0  0  0
   -7.1644    3.1206    2.7782 C   0  0  0  0  0  0  0  0  0  0  0  0
   -6.0620    3.1809    3.6270 C   0  0  0  0  0  0  0  0  0  0  0  0
   -4.9210    2.4304    3.3407 C   0  0  0  0  0  0  0  0  0  0  0  0
   -0.4900   -2.3062    3.4122 H   0  0  0  0  0  0  0  0  0  0  0  0
   -1.2450   -3.7590    2.6808 H   0  0  0  0  0  0  0  0  0  0  0  0
   -2.1060   -2.8331    3.9198 H   0  0  0  0  0  0  0  0  0  0  0  0
   -1.4001   -3.6188    0.2154 H   0  0  0  0  0  0  0  0  0  0  0  0
    0.0172   -3.1494   -1.7398 H   0  0  0  0  0  0  0  0  0  0  0  0
    2.2144   -2.5791   -2.2101 H   0  0  0  0  0  0  0  0  0  0  0  0
    3.1538   -2.4041   -4.4336 H   0  0  0  0  0  0  0  0  0  0  0  0
    2.7993   -0.6744   -4.4405 H   0  0  0  0  0  0  0  0  0  0  0  0
    5.0983   -3.3055   -3.2371 H   0  0  0  0  0  0  0  0  0  0  0  0
    7.2662   -2.8583   -2.0976 H   0  0  0  0  0  0  0  0  0  0  0  0
    4.0422    0.8839   -2.8526 H   0  0  0  0  0  0  0  0  0  0  0  0
    7.7353    1.3157   -0.0331 H   0  0  0  0  0  0  0  0  0  0  0  0
    8.4739    1.6142   -1.6274 H   0  0  0  0  0  0  0  0  0  0  0  0
    0.5600    0.9084   -0.3847 H   0  0  0  0  0  0  0  0  0  0  0  0
   -1.5997    2.8788    0.1283 H   0  0  0  0  0  0  0  0  0  0  0  0
   -2.6640    1.5926   -0.4916 H   0  0  0  0  0  0  0  0  0  0  0  0
   -3.3328    3.0250    0.3225 H   0  0  0  0  0  0  0  0  0  0  0  0
   -3.4729    0.1734    2.8183 H   0  0  0  0  0  0  0  0  0  0  0  0
   -3.8201    0.0923    1.0955 H   0  0  0  0  0  0  0  0  0  0  0  0
   -5.9670    0.9541    0.4518 H   0  0  0  0  0  0  0  0  0  0  0  0
   -7.9845    2.2760    0.9722 H   0  0  0  0  0  0  0  0  0  0  0  0
   -8.0541    3.7026    3.0029 H   0  0  0  0  0  0  0  0  0  0  0  0
   -6.0893    3.8092    4.5142 H   0  0  0  0  0  0  0  0  0  0  0  0
   -4.0604    2.4868    4.0084 H   0  0  0  0  0  0  0  0  0  0  0  0
  1  2  1  0
  2  3  1  0
  3  4  2  0
  4  5  1  0
  5  6  2  0
  6  7  1  0
  7  8  2  0
  7  9  1  0
  9 10  1  0
 10 11  1  0
 11 12  2  0
 12 13  1  0
 13 14  2  0
 14 15  1  0
 15 16  2  0
 15 17  1  0
 17 18  1  0
 18 19  1  0
  6 20  1  0
 20 21  2  0
 21 22  1  0
 22 23  2  0
 22 24  2  0
 22 25  1  0
 25 26  1  0
 25 27  1  0
 27 28  1  0
 28 29  2  0
 29 30  1  0
 30 31  2  0
 31 32  1  0
 32 33  2  0
 21  3  1  0
 33 28  1  0
 16 11  1  0
 19 14  1  0
  1 34  1  0
  1 35  1  0
  1 36  1  0
  4 37  1  0
  5 38  1  0
  9 39  1  0
 10 40  1  0
 10 41  1  0
 12 42  1  0
 13 43  1  0
 16 44  1  0
 18 45  1  0
 18 46  1  0
 20 47  1  0
 26 48  1  0
 26 49  1  0
 26 50  1  0
 27 51  1  0
 27 52  1  0
 29 53  1  0
 30 54  1  0
 31 55  1  0
 32 56  1  0
 33 57  1  0
M  END
$$$$
