
     RDKit          3D

 60 62  0  0  0  0  0  0  0  0999 V2000
   -3.3115    3.7869   -2.4039 C   0  0  0  0  0  0  0  0  0  0  0  0
   -4.0152    2.9096   -1.3809 C   0  0  0  0  0  0  0  0  0  0  0  0
   -3.1779    1.7307   -0.9607 C   0  0  0  0  0  0  0  0  0  0  0  0
   -2.6970    1.6326    0.3455 C   0  0  0  0  0  0  0  0  0  0  0  0
   -1.9266    0.5333    0.7445 C   0  0  0  0  0  0  0  0  0  0  0  0
   -1.6271   -0.4893   -0.1568 C   0  0  0  0  0  0  0  0  0  0  0  0
   -0.8201   -1.6037    0.1491 N   0  0  0  0  0  0  0  0  0  0  0  0
   -0.1738   -1.8674    1.3435 C   0  0  0  0  0  0  0  0  0  0  0  0
   -0.2892   -1.2368    2.3921 O   0  0  0  0  0  0  0  0  0  0  0  0
    0.7862   -3.0692    1.2635 C   0  0  0  0  0  0  0  0  0  0  0  0
    1.9301   -2.8077    2.1678 N   0  0  0  0  0  0  0  0  0  0  0  0
    3.3211   -2.1054    1.5361 S   0  0  0  0  0  6  0  0  0  0  0  0
    3.7984   -2.9673    0.4760 O   0  0  0  0  0  0  0  0  0  0  0  0
    4.1528   -1.7442    2.6612 O   0  0  0  0  0  0  0  0  0  0  0  0
    2.7304   -0.6040    0.7919 C   0  0  0  0  0  0  0  0  0  0  0  0
    2.4526    0.5041    1.6044 C   0  0  0  0  0  0  0  0  0  0  0  0
    1.9244    1.6742    1.0435 C   0  0  0  0  0  0  0  0  0  0  0  0
    1.6966    1.7275   -0.3241 C   0  0  0  0  0  0  0  0  0  0  0  0
    2.0157    0.6233   -1.1240 C   0  0  0  0  0  0  0  0  0  0  0  0
    2.5404   -0.5441   -0.5914 C   0  0  0  0  0  0  0  0  0  0  0  0
    1.6789    0.8612   -2.5586 C   0  0  0  0  0  0  0  0  0  0  0  0
    1.1952    2.3097   -2.5326 C   0  0  0  0  0  0  0  0  0  0  0  0
    1.1710    2.7489   -1.1329 N   0  0  0  0  0  0  0  0  0  0  0  0
    0.6910    4.0112   -0.8501 C   0  0  0  0  0  0  0  0  0  0  0  0
    0.6121    4.4788    0.5723 C   0  0  0  0  0  0  0  0  0  0  0  0
    0.3186    4.7717   -1.7503 O   0  0  0  0  0  0  0  0  0  0  0  0
    0.0623   -4.3757    1.6411 C   0  0  0  0  0  0  0  0  0  0  0  0
    0.9024   -5.5918    1.2461 C   0  0  0  0  0  0  0  0  0  0  0  0
   -0.3257   -4.4704    3.1186 C   0  0  0  0  0  0  0  0  0  0  0  0
   -2.1114   -0.3936   -1.4649 C   0  0  0  0  0  0  0  0  0  0  0  0
   -2.8846    0.7010   -1.8604 C   0  0  0  0  0  0  0  0  0  0  0  0
   -3.9366    4.6498   -2.6625 H   0  0  0  0  0  0  0  0  0  0  0  0
   -2.3596    4.1617   -2.0114 H   0  0  0  0  0  0  0  0  0  0  0  0
   -3.1014    3.2407   -3.3266 H   0  0  0  0  0  0  0  0  0  0  0  0
   -4.2751    3.5247   -0.5098 H   0  0  0  0  0  0  0  0  0  0  0  0
   -4.9574    2.5463   -1.7969 H   0  0  0  0  0  0  0  0  0  0  0  0
   -2.9202    2.4059    1.0745 H   0  0  0  0  0  0  0  0  0  0  0  0
   -1.5806    0.5112    1.7756 H   0  0  0  0  0  0  0  0  0  0  0  0
   -0.6724   -2.2546   -0.6114 H   0  0  0  0  0  0  0  0  0  0  0  0
    1.1459   -3.1633    0.2313 H   0  0  0  0  0  0  0  0  0  0  0  0
    1.6589   -2.3866    3.0665 H   0  0  0  0  0  0  0  0  0  0  0  0
    2.6306    0.4608    2.6798 H   0  0  0  0  0  0  0  0  0  0  0  0
    1.7067    2.4913    1.7161 H   0  0  0  0  0  0  0  0  0  0  0  0
    2.7766   -1.3885   -1.2306 H   0  0  0  0  0  0  0  0  0  0  0  0
    2.5514    0.7439   -3.2078 H   0  0  0  0  0  0  0  0  0  0  0  0
    0.8844    0.1827   -2.8834 H   0  0  0  0  0  0  0  0  0  0  0  0
    1.8745    2.9633   -3.0924 H   0  0  0  0  0  0  0  0  0  0  0  0
    0.1968    2.4166   -2.9677 H   0  0  0  0  0  0  0  0  0  0  0  0
    0.1993    5.4938    0.5976 H   0  0  0  0  0  0  0  0  0  0  0  0
   -0.0565    3.8334    1.1474 H   0  0  0  0  0  0  0  0  0  0  0  0
    1.6110    4.5164    1.0078 H   0  0  0  0  0  0  0  0  0  0  0  0
   -0.8686   -4.4242    1.0642 H   0  0  0  0  0  0  0  0  0  0  0  0
    1.0797   -5.5992    0.1673 H   0  0  0  0  0  0  0  0  0  0  0  0
    0.3846   -6.5192    1.5057 H   0  0  0  0  0  0  0  0  0  0  0  0
    1.8760   -5.6011    1.7550 H   0  0  0  0  0  0  0  0  0  0  0  0
    0.5458   -4.4676    3.7738 H   0  0  0  0  0  0  0  0  0  0  0  0
   -0.8716   -5.4035    3.3019 H   0  0  0  0  0  0  0  0  0  0  0  0
   -0.9797   -3.6453    3.4168 H   0  0  0  0  0  0  0  0  0  0  0  0
   -1.8968   -1.1625   -2.1991 H   0  0  0  0  0  0  0  0  0  0  0  0
   -3.2658    0.7391   -2.8779 H   0  0  0  0  0  0  0  0  0  0  0  0
  1  2  1  0
  2  3  1  0
  3  4  2  0
  4  5  1  0
  5  6  2  0
  6  7  1  0
  7  8  1  0
  8  9  2  0
  8 10  1  0
 10 11  1  0
 11 12  1  0
 12 13  2  0
 12 14  2  0
 12 15  1  0
 15 16  2  0
 16 17  1  0
 17 18  2  0
 18 19  1  0
 19 20  2  0
 19 21  1  0
 21 22  1  0
 22 23  1  0
 23 24  1  0
 24 25  1  0
 24 26  2  0
 10 27  1  0
 27 28  1  0
 27 29  1  0
  6 30  1  0
 30 31  2  0
 31  3  1  0
 20 15  1  0
 23 18  1  0
  1 32  1  0
  1 33  1  0
  1 34  1  0
  2 35  1  0
  2 36  1  0
  4 37  1  0
  5 38  1  0
  7 39  1  0
 10 40  1  0
 11 41  1  0
 16 42  1  0
 17 43  1  0
 20 44  1  0
 21 45  1  0
 21 46  1  0
 22 47  1  0
 22 48  1  0
 25 49  1  0
 25 50  1  0
 25 51  1  0
 27 52  1  0
 28 53  1  0
 28 54  1  0
 28 55  1  0
 29 56  1  0
 29 57  1  0
 29 58  1  0
 30 59  1  0
 31 60  1  0
M  END
$$$$
