
     RDKit          3D

 57 59  0  0  0  0  0  0  0  0999 V2000
    9.0935   -3.1560    0.6494 C   0  0  0  0  0  0  0  0  0  0  0  0
    8.4823   -3.0573   -0.6303 O   0  0  0  0  0  0  0  0  0  0  0  0
    7.4325   -2.1883   -0.7470 C   0  0  0  0  0  0  0  0  0  0  0  0
    6.9000   -1.4014    0.2737 C   0  0  0  0  0  0  0  0  0  0  0  0
    5.8189   -0.5510    0.0151 C   0  0  0  0  0  0  0  0  0  0  0  0
    5.2598   -0.4707   -1.2677 C   0  0  0  0  0  0  0  0  0  0  0  0
    4.0814    0.4292   -1.5308 C   0  0  0  0  0  0  0  0  0  0  0  0
    2.8462   -0.2325   -1.2055 N   0  0  0  0  0  0  0  0  0  0  0  0
    2.2183   -0.0809    0.0062 C   0  0  0  0  0  0  0  0  0  0  0  0
    2.5311    0.6988    0.8960 O   0  0  0  0  0  0  0  0  0  0  0  0
    1.0013   -1.0155    0.1877 C   0  0  0  0  0  0  0  0  0  0  0  0
    0.6564   -1.7506   -0.7255 O   0  0  0  0  0  0  0  0  0  0  0  0
    0.4006   -0.9016    1.4206 N   0  0  0  0  0  0  0  0  0  0  0  0
   -0.9504   -1.3917    1.6586 C   0  0  0  0  0  0  0  0  0  0  0  0
   -2.0201   -0.2938    1.4677 C   0  0  0  0  0  0  0  0  0  0  0  0
   -1.7718    0.7629    2.4215 O   0  0  0  0  0  0  0  0  0  0  0  0
   -2.1111    1.9854    1.7584 C   0  0  0  0  0  0  0  0  0  0  0  0
   -1.6934    1.7581    0.3231 C   0  0  0  0  0  0  0  0  0  0  0  0
   -1.9377    0.3284    0.1399 N   0  0  0  0  0  0  0  0  0  0  0  0
   -2.9704   -0.2178   -1.0574 S   0  0  0  0  0  6  0  0  0  0  0  0
   -2.5962    0.4286   -2.2972 O   0  0  0  0  0  0  0  0  0  0  0  0
   -3.0673   -1.6571   -0.9479 O   0  0  0  0  0  0  0  0  0  0  0  0
   -4.5571    0.4492   -0.5828 C   0  0  0  0  0  0  0  0  0  0  0  0
   -4.9617    1.6926   -1.0785 C   0  0  0  0  0  0  0  0  0  0  0  0
   -6.2121    2.2106   -0.7253 C   0  0  0  0  0  0  0  0  0  0  0  0
   -7.0646    1.4805    0.1052 C   0  0  0  0  0  0  0  0  0  0  0  0
   -8.3046    1.8720    0.5267 O   0  0  0  0  0  0  0  0  0  0  0  0
   -8.8059    3.0980    0.0077 C   0  0  0  0  0  0  0  0  0  0  0  0
   -6.6613    0.2248    0.5714 C   0  0  0  0  0  0  0  0  0  0  0  0
   -5.4164   -0.3016    0.2213 C   0  0  0  0  0  0  0  0  0  0  0  0
    5.7911   -1.2716   -2.2852 C   0  0  0  0  0  0  0  0  0  0  0  0
    6.8709   -2.1191   -2.0240 C   0  0  0  0  0  0  0  0  0  0  0  0
    9.9092   -3.8819    0.5749 H   0  0  0  0  0  0  0  0  0  0  0  0
    8.3855   -3.5268    1.3978 H   0  0  0  0  0  0  0  0  0  0  0  0
    9.5272   -2.1981    0.9548 H   0  0  0  0  0  0  0  0  0  0  0  0
    7.2966   -1.4263    1.2829 H   0  0  0  0  0  0  0  0  0  0  0  0
    5.4081    0.0489    0.8261 H   0  0  0  0  0  0  0  0  0  0  0  0
    4.1781    1.3584   -0.9580 H   0  0  0  0  0  0  0  0  0  0  0  0
    4.0387    0.7035   -2.5903 H   0  0  0  0  0  0  0  0  0  0  0  0
    2.5064   -0.9880   -1.7949 H   0  0  0  0  0  0  0  0  0  0  0  0
    0.7474   -0.1508    2.0120 H   0  0  0  0  0  0  0  0  0  0  0  0
   -0.9657   -1.7399    2.6967 H   0  0  0  0  0  0  0  0  0  0  0  0
   -1.1491   -2.2410    0.9973 H   0  0  0  0  0  0  0  0  0  0  0  0
   -3.0128   -0.6954    1.6863 H   0  0  0  0  0  0  0  0  0  0  0  0
   -1.5915    2.8252    2.2265 H   0  0  0  0  0  0  0  0  0  0  0  0
   -3.1923    2.1386    1.8480 H   0  0  0  0  0  0  0  0  0  0  0  0
   -0.6194    1.9362    0.1981 H   0  0  0  0  0  0  0  0  0  0  0  0
   -2.2266    2.4098   -0.3707 H   0  0  0  0  0  0  0  0  0  0  0  0
   -4.3177    2.2605   -1.7470 H   0  0  0  0  0  0  0  0  0  0  0  0
   -6.4931    3.1809   -1.1216 H   0  0  0  0  0  0  0  0  0  0  0  0
   -9.8138    3.2436    0.4081 H   0  0  0  0  0  0  0  0  0  0  0  0
   -8.1921    3.9437    0.3347 H   0  0  0  0  0  0  0  0  0  0  0  0
   -8.8832    3.0636   -1.0841 H   0  0  0  0  0  0  0  0  0  0  0  0
   -7.3325   -0.3535    1.2032 H   0  0  0  0  0  0  0  0  0  0  0  0
   -5.1371   -1.2926    0.5711 H   0  0  0  0  0  0  0  0  0  0  0  0
    5.3702   -1.2446   -3.2878 H   0  0  0  0  0  0  0  0  0  0  0  0
    7.2770   -2.7347   -2.8231 H   0  0  0  0  0  0  0  0  0  0  0  0
  1  2  1  0
  2  3  1  0
  3  4  2  0
  4  5  1  0
  5  6  2  0
  6  7  1  0
  7  8  1  0
  8  9  1  0
  9 10  2  0
  9 11  1  0
 11 12  2  0
 11 13  1  0
 13 14  1  0
 14 15  1  0
 15 16  1  0
 16 17  1  0
 17 18  1  0
 18 19  1  0
 19 20  1  0
 20 21  2  0
 20 22  2  0
 20 23  1  0
 23 24  2  0
 24 25  1  0
 25 26  2  0
 26 27  1  0
 27 28  1  0
 26 29  1  0
 29 30  2  0
  6 31  1  0
 31 32  2  0
 32  3  1  0
 19 15  1  0
 30 23  1  0
  1 33  1  0
  1 34  1  0
  1 35  1  0
  4 36  1  0
  5 37  1  0
  7 38  1  0
  7 39  1  0
  8 40  1  0
 13 41  1  0
 14 42  1  0
 14 43  1  0
 15 44  1  0
 17 45  1  0
 17 46  1  0
 18 47  1  0
 18 48  1  0
 24 49  1  0
 25 50  1  0
 28 51  1  0
 28 52  1  0
 28 53  1  0
 29 54  1  0
 30 55  1  0
 31 56  1  0
 32 57  1  0
M  END
$$$$
