
     RDKit          3D

 56 60  0  0  0  0  0  0  0  0999 V2000
   -5.9388   -1.8514   -0.4911 C   0  0  0  0  0  0  0  0  0  0  0  0
   -5.5488   -0.5303   -0.9164 N   0  0  0  0  0  0  0  0  0  0  0  0
   -4.3311    0.0650   -0.7360 C   0  0  0  0  0  0  0  0  0  0  0  0
   -3.0385   -0.6148    0.1882 S   0  0  0  0  0  0  0  0  0  0  0  0
   -2.0888    0.8977    0.5208 C   0  0  0  0  0  0  0  0  0  0  0  0
   -0.8605    0.5586    1.3465 C   0  0  0  0  0  0  0  0  0  0  0  0
   -0.8248    0.7900    2.5512 O   0  0  0  0  0  0  0  0  0  0  0  0
    0.1614    0.0048    0.5872 N   0  0  0  0  0  0  0  0  0  0  0  0
    1.4596   -0.3450    1.0143 C   0  0  0  0  0  0  0  0  0  0  0  0
    2.3149   -0.8895    0.0514 C   0  0  0  0  0  0  0  0  0  0  0  0
    3.6343   -1.2419    0.3667 C   0  0  0  0  0  0  0  0  0  0  0  0
    4.1142   -1.0454    1.6747 C   0  0  0  0  0  0  0  0  0  0  0  0
    5.3999   -1.3201    2.1185 N   0  0  0  0  0  0  0  0  0  0  0  0
    5.4975   -1.0008    3.3908 C   0  0  0  0  0  0  0  0  0  0  0  0
    6.9960   -1.1912    4.2754 S   0  0  0  0  0  0  0  0  0  0  0  0
    8.2094   -1.1595    2.9289 C   0  0  0  0  0  0  0  0  0  0  0  0
    8.2195    0.1945    2.2402 C   0  0  0  0  0  0  0  0  0  0  0  0
    8.7842    1.1781    2.7181 O   0  0  0  0  0  0  0  0  0  0  0  0
    7.5220    0.2124    1.0421 N   0  0  0  0  0  0  0  0  0  0  0  0
    7.3332    1.4234    0.3074 C   0  0  0  0  0  0  0  0  0  0  0  0
    8.3347    1.8377   -0.7378 C   0  0  0  0  0  0  0  0  0  0  0  0
    6.9626    1.3779   -1.1525 C   0  0  0  0  0  0  0  0  0  0  0  0
    4.0825   -0.3886    4.1304 S   0  0  0  0  0  0  0  0  0  0  0  0
    3.2479   -0.5130    2.6292 C   0  0  0  0  0  0  0  0  0  0  0  0
    1.9198   -0.1590    2.3226 C   0  0  0  0  0  0  0  0  0  0  0  0
   -4.3005    1.2193   -1.3569 N   0  0  0  0  0  0  0  0  0  0  0  0
   -5.5316    1.4119   -1.9284 N   0  0  0  0  0  0  0  0  0  0  0  0
   -6.3078    0.3828   -1.6237 C   0  0  0  0  0  0  0  0  0  0  0  0
   -7.7129    0.2550   -2.0121 C   0  0  0  0  0  0  0  0  0  0  0  0
   -8.1081    0.6646   -3.2949 C   0  0  0  0  0  0  0  0  0  0  0  0
   -9.4438    0.5731   -3.6956 C   0  0  0  0  0  0  0  0  0  0  0  0
  -10.4023    0.0789   -2.8141 C   0  0  0  0  0  0  0  0  0  0  0  0
  -10.0286   -0.3129   -1.5288 C   0  0  0  0  0  0  0  0  0  0  0  0
   -8.6927   -0.2168   -1.1267 C   0  0  0  0  0  0  0  0  0  0  0  0
   -5.0840   -2.5302   -0.5567 H   0  0  0  0  0  0  0  0  0  0  0  0
   -6.2972   -1.7886    0.5400 H   0  0  0  0  0  0  0  0  0  0  0  0
   -6.7209   -2.2372   -1.1472 H   0  0  0  0  0  0  0  0  0  0  0  0
   -1.7734    1.3734   -0.4142 H   0  0  0  0  0  0  0  0  0  0  0  0
   -2.6990    1.6160    1.0795 H   0  0  0  0  0  0  0  0  0  0  0  0
   -0.0566   -0.1815   -0.3854 H   0  0  0  0  0  0  0  0  0  0  0  0
    1.9746   -1.0428   -0.9701 H   0  0  0  0  0  0  0  0  0  0  0  0
    4.2883   -1.6569   -0.3917 H   0  0  0  0  0  0  0  0  0  0  0  0
    9.2090   -1.3344    3.3417 H   0  0  0  0  0  0  0  0  0  0  0  0
    8.0152   -1.9652    2.2128 H   0  0  0  0  0  0  0  0  0  0  0  0
    6.7943   -0.4985    0.9518 H   0  0  0  0  0  0  0  0  0  0  0  0
    6.8893    2.2214    0.9049 H   0  0  0  0  0  0  0  0  0  0  0  0
    9.1800    1.1813   -0.9244 H   0  0  0  0  0  0  0  0  0  0  0  0
    8.5698    2.8937   -0.8126 H   0  0  0  0  0  0  0  0  0  0  0  0
    6.8811    0.4139   -1.6432 H   0  0  0  0  0  0  0  0  0  0  0  0
    6.2698    2.1285   -1.5241 H   0  0  0  0  0  0  0  0  0  0  0  0
    1.2925    0.2508    3.1069 H   0  0  0  0  0  0  0  0  0  0  0  0
   -7.3715    1.0688   -3.9886 H   0  0  0  0  0  0  0  0  0  0  0  0
   -9.7345    0.8985   -4.6922 H   0  0  0  0  0  0  0  0  0  0  0  0
  -11.4429    0.0136   -3.1238 H   0  0  0  0  0  0  0  0  0  0  0  0
  -10.7806   -0.6791   -0.8338 H   0  0  0  0  0  0  0  0  0  0  0  0
   -8.4374   -0.4910   -0.1057 H   0  0  0  0  0  0  0  0  0  0  0  0
  1  2  1  0
  2  3  1  0
  3  4  1  0
  4  5  1  0
  5  6  1  0
  6  7  2  0
  6  8  1  0
  8  9  1  0
  9 10  2  0
 10 11  1  0
 11 12  2  0
 12 13  1  0
 13 14  2  0
 14 15  1  0
 15 16  1  0
 16 17  1  0
 17 18  2  0
 17 19  1  0
 19 20  1  0
 20 21  1  0
 21 22  1  0
 14 23  1  0
 23 24  1  0
 24 25  2  0
  3 26  2  0
 26 27  1  0
 27 28  2  0
 28 29  1  0
 29 30  2  0
 30 31  1  0
 31 32  2  0
 32 33  1  0
 33 34  2  0
 28  2  1  0
 34 29  1  0
 25  9  1  0
 24 12  1  0
 22 20  1  0
  1 35  1  0
  1 36  1  0
  1 37  1  0
  5 38  1  0
  5 39  1  0
  8 40  1  0
 10 41  1  0
 11 42  1  0
 16 43  1  0
 16 44  1  0
 19 45  1  0
 20 46  1  0
 21 47  1  0
 21 48  1  0
 22 49  1  0
 22 50  1  0
 25 51  1  0
 30 52  1  0
 31 53  1  0
 32 54  1  0
 33 55  1  0
 34 56  1  0
M  END
$$$$
