
     RDKit          3D

 39 41  0  0  0  0  0  0  0  0999 V2000
   -3.4532   -1.1600    5.4498 C   0  0  0  0  0  0  0  0  0  0  0  0
   -2.1677   -1.2453    4.8476 O   0  0  0  0  0  0  0  0  0  0  0  0
   -2.1278   -1.3681    3.4861 C   0  0  0  0  0  0  0  0  0  0  0  0
   -0.8398   -1.4766    2.9498 C   0  0  0  0  0  0  0  0  0  0  0  0
   -0.6481   -1.6067    1.5732 C   0  0  0  0  0  0  0  0  0  0  0  0
   -1.7584   -1.6157    0.7280 C   0  0  0  0  0  0  0  0  0  0  0  0
   -1.5374   -1.7900   -1.0239 S   0  0  0  0  0  6  0  0  0  0  0  0
   -2.6325   -2.6009   -1.5148 O   0  0  0  0  0  0  0  0  0  0  0  0
   -0.1627   -2.1524   -1.2913 O   0  0  0  0  0  0  0  0  0  0  0  0
   -1.8295   -0.2224   -1.5925 N   0  0  0  0  0  0  0  0  0  0  0  0
   -0.7579    0.7114   -1.5433 C   0  0  0  0  0  0  0  0  0  0  0  0
   -0.5276    1.4388   -0.3778 C   0  0  0  0  0  0  0  0  0  0  0  0
    0.5489    2.3214   -0.3164 C   0  0  0  0  0  0  0  0  0  0  0  0
    1.3962    2.4614   -1.4143 C   0  0  0  0  0  0  0  0  0  0  0  0
    2.4360    3.3373   -1.2607 O   0  0  0  0  0  0  0  0  0  0  0  0
    1.1764    1.7358   -2.5946 C   0  0  0  0  0  0  0  0  0  0  0  0
    2.1562    1.9378   -4.0753 S   0  0  0  0  0  0  0  0  0  0  0  0
    3.7049    1.3180   -3.5807 C   0  0  0  0  0  0  0  0  0  0  0  0
    4.2939    0.2233   -4.1458 N   0  0  0  0  0  0  0  0  0  0  0  0
    5.4289    0.1285   -3.4950 C   0  0  0  0  0  0  0  0  0  0  0  0
    5.5186    1.1376   -2.5896 N   0  0  0  0  0  0  0  0  0  0  0  0
    4.4306    1.9281   -2.6334 N   0  0  0  0  0  0  0  0  0  0  0  0
    0.0875    0.8539   -2.6460 C   0  0  0  0  0  0  0  0  0  0  0  0
   -3.0510   -1.5209    1.2507 C   0  0  0  0  0  0  0  0  0  0  0  0
   -3.2329   -1.3931    2.6316 C   0  0  0  0  0  0  0  0  0  0  0  0
   -4.0397   -2.0648    5.2589 H   0  0  0  0  0  0  0  0  0  0  0  0
   -3.3107   -1.0778    6.5317 H   0  0  0  0  0  0  0  0  0  0  0  0
   -3.9866   -0.2642    5.1152 H   0  0  0  0  0  0  0  0  0  0  0  0
    0.0215   -1.4634    3.6142 H   0  0  0  0  0  0  0  0  0  0  0  0
    0.3602   -1.6940    1.1748 H   0  0  0  0  0  0  0  0  0  0  0  0
   -2.3861   -0.2542   -2.4464 H   0  0  0  0  0  0  0  0  0  0  0  0
   -1.1848    1.3390    0.4814 H   0  0  0  0  0  0  0  0  0  0  0  0
    0.7335    2.8971    0.5867 H   0  0  0  0  0  0  0  0  0  0  0  0
    3.1416    3.0713   -1.8900 H   0  0  0  0  0  0  0  0  0  0  0  0
    6.1957   -0.6207   -3.6328 H   0  0  0  0  0  0  0  0  0  0  0  0
    6.2648    1.3460   -1.9347 H   0  0  0  0  0  0  0  0  0  0  0  0
   -0.0959    0.2700   -3.5447 H   0  0  0  0  0  0  0  0  0  0  0  0
   -3.9168   -1.5467    0.5924 H   0  0  0  0  0  0  0  0  0  0  0  0
   -4.2482   -1.3186    3.0074 H   0  0  0  0  0  0  0  0  0  0  0  0
  1  2  1  0
  2  3  1  0
  3  4  2  0
  4  5  1  0
  5  6  2  0
  6  7  1  0
  7  8  2  0
  7  9  2  0
  7 10  1  0
 10 11  1  0
 11 12  2  0
 12 13  1  0
 13 14  2  0
 14 15  1  0
 14 16  1  0
 16 17  1  0
 17 18  1  0
 18 19  1  0
 19 20  2  0
 20 21  1  0
 21 22  1  0
 16 23  2  0
  6 24  1  0
 24 25  2  0
 25  3  1  0
 23 11  1  0
 22 18  2  0
  1 26  1  0
  1 27  1  0
  1 28  1  0
  4 29  1  0
  5 30  1  0
 10 31  1  0
 12 32  1  0
 13 33  1  0
 15 34  1  0
 20 35  1  0
 21 36  1  0
 23 37  1  0
 24 38  1  0
 25 39  1  0
M  END
$$$$
