
     RDKit          3D

 54 58  0  0  0  0  0  0  0  0999 V2000
    1.6953   -0.1489    3.7107 O   0  0  0  0  0  0  0  0  0  0  0  0
    1.9706    0.3064    2.6040 C   0  0  0  0  0  0  0  0  0  0  0  0
    0.9259    0.9108    1.6870 C   0  0  0  0  0  0  0  0  0  0  0  0
    0.2064   -0.4051    0.6623 S   0  0  0  0  0  0  0  0  0  0  0  0
   -0.9488    0.5557   -0.2484 C   0  0  0  0  0  0  0  0  0  0  0  0
   -0.4923    1.6681   -0.7388 N   0  0  0  0  0  0  0  0  0  0  0  0
   -1.4103    2.4022   -1.4949 C   0  0  0  0  0  0  0  0  0  0  0  0
   -2.6746    1.9591   -1.7254 C   0  0  0  0  0  0  0  0  0  0  0  0
   -3.5635    3.0256   -2.6876 S   0  0  0  0  0  0  0  0  0  0  0  0
   -2.2335    4.1264   -2.8065 C   0  0  0  0  0  0  0  0  0  0  0  0
   -2.2043    5.3501   -3.5031 C   0  0  0  0  0  0  0  0  0  0  0  0
   -1.0321    6.1096   -3.4844 C   0  0  0  0  0  0  0  0  0  0  0  0
    0.0872    5.6676   -2.7920 C   0  0  0  0  0  0  0  0  0  0  0  0
    0.0562    4.4513   -2.1040 C   0  0  0  0  0  0  0  0  0  0  0  0
   -1.1168    3.6585   -2.1021 C   0  0  0  0  0  0  0  0  0  0  0  0
   -3.1722    0.7217   -1.2032 C   0  0  0  0  0  0  0  0  0  0  0  0
   -4.2939    0.2762   -1.4369 O   0  0  0  0  0  0  0  0  0  0  0  0
   -2.2400    0.0498   -0.3997 N   0  0  0  0  0  0  0  0  0  0  0  0
   -2.7028   -1.2143    0.1909 C   0  0  0  0  0  0  0  0  0  0  0  0
   -2.4940   -2.4012   -0.7570 C   0  0  0  0  0  0  0  0  0  0  0  0
   -2.9363   -3.6952   -0.1222 C   0  0  0  0  0  0  0  0  0  0  0  0
   -4.2824   -4.0841   -0.1707 C   0  0  0  0  0  0  0  0  0  0  0  0
   -4.6970   -5.2671    0.4419 C   0  0  0  0  0  0  0  0  0  0  0  0
   -3.7728   -6.0692    1.1089 C   0  0  0  0  0  0  0  0  0  0  0  0
   -2.4327   -5.6893    1.1651 C   0  0  0  0  0  0  0  0  0  0  0  0
   -2.0151   -4.5059    0.5548 C   0  0  0  0  0  0  0  0  0  0  0  0
    3.2447    0.2968    2.0847 N   0  0  0  0  0  0  0  0  0  0  0  0
    4.3508   -0.2548    2.8308 C   0  0  0  0  0  0  0  0  0  0  0  0
    5.5836   -0.1131    2.0213 C   0  0  0  0  0  0  0  0  0  0  0  0
    6.3362   -0.9949    1.2711 C   0  0  0  0  0  0  0  0  0  0  0  0
    7.4007   -0.2418    0.7178 C   0  0  0  0  0  0  0  0  0  0  0  0
    7.2301    1.0493    1.1633 C   0  0  0  0  0  0  0  0  0  0  0  0
    6.1274    1.1391    1.9503 O   0  0  0  0  0  0  0  0  0  0  0  0
    1.3902    1.6857    1.0668 H   0  0  0  0  0  0  0  0  0  0  0  0
    0.1513    1.3829    2.3009 H   0  0  0  0  0  0  0  0  0  0  0  0
   -3.0770    5.7002   -4.0476 H   0  0  0  0  0  0  0  0  0  0  0  0
   -0.9986    7.0563   -4.0190 H   0  0  0  0  0  0  0  0  0  0  0  0
    0.9935    6.2678   -2.7842 H   0  0  0  0  0  0  0  0  0  0  0  0
    0.9365    4.1090   -1.5664 H   0  0  0  0  0  0  0  0  0  0  0  0
   -2.2086   -1.3893    1.1521 H   0  0  0  0  0  0  0  0  0  0  0  0
   -3.7698   -1.1217    0.4322 H   0  0  0  0  0  0  0  0  0  0  0  0
   -1.4413   -2.4789   -1.0541 H   0  0  0  0  0  0  0  0  0  0  0  0
   -3.0477   -2.2464   -1.6919 H   0  0  0  0  0  0  0  0  0  0  0  0
   -5.0170   -3.4659   -0.6837 H   0  0  0  0  0  0  0  0  0  0  0  0
   -5.7427   -5.5616    0.4004 H   0  0  0  0  0  0  0  0  0  0  0  0
   -4.0973   -6.9896    1.5862 H   0  0  0  0  0  0  0  0  0  0  0  0
   -1.7121   -6.3139    1.6868 H   0  0  0  0  0  0  0  0  0  0  0  0
   -0.9658   -4.2208    0.6119 H   0  0  0  0  0  0  0  0  0  0  0  0
    3.4220    0.6553    1.1544 H   0  0  0  0  0  0  0  0  0  0  0  0
    4.4377    0.2787    3.7836 H   0  0  0  0  0  0  0  0  0  0  0  0
    4.1357   -1.3080    3.0459 H   0  0  0  0  0  0  0  0  0  0  0  0
    6.1397   -2.0518    1.1441 H   0  0  0  0  0  0  0  0  0  0  0  0
    8.1950   -0.5981    0.0759 H   0  0  0  0  0  0  0  0  0  0  0  0
    7.7766    1.9708    1.0178 H   0  0  0  0  0  0  0  0  0  0  0  0
  1  2  2  0
  2  3  1  0
  3  4  1  0
  4  5  1  0
  5  6  2  0
  6  7  1  0
  7  8  2  0
  8  9  1  0
  9 10  1  0
 10 11  2  0
 11 12  1  0
 12 13  2  0
 13 14  1  0
 14 15  2  0
  8 16  1  0
 16 17  2  0
 16 18  1  0
 18 19  1  0
 19 20  1  0
 20 21  1  0
 21 22  2  0
 22 23  1  0
 23 24  2  0
 24 25  1  0
 25 26  2  0
  2 27  1  0
 27 28  1  0
 28 29  1  0
 29 30  2  0
 30 31  1  0
 31 32  2  0
 32 33  1  0
 18  5  1  0
 26 21  1  0
 33 29  1  0
 15  7  1  0
 15 10  1  0
  3 34  1  0
  3 35  1  0
 11 36  1  0
 12 37  1  0
 13 38  1  0
 14 39  1  0
 19 40  1  0
 19 41  1  0
 20 42  1  0
 20 43  1  0
 22 44  1  0
 23 45  1  0
 24 46  1  0
 25 47  1  0
 26 48  1  0
 27 49  1  0
 28 50  1  0
 28 51  1  0
 30 52  1  0
 31 53  1  0
 32 54  1  0
M  END
$$$$
