
     RDKit          3D

 57 61  0  0  0  0  0  0  0  0999 V2000
   -0.5357    2.1747    2.5674 O   0  0  0  0  0  0  0  0  0  0  0  0
    0.3293    1.2625    1.8644 C   0  0  0  0  0  0  0  0  0  0  0  0
    0.6131    1.8249    0.4642 C   0  0  0  0  0  0  0  0  0  0  0  0
    1.4281    0.9597   -0.3773 N   0  0  0  0  0  0  0  0  0  0  0  0
    2.7684    0.7297   -0.1543 C   0  0  0  0  0  0  0  0  0  0  0  0
    3.3083    1.0536    0.9889 N   0  0  0  0  0  0  0  0  0  0  0  0
    4.6801    0.8251    1.2200 C   0  0  0  0  0  0  0  0  0  0  0  0
    5.2148    1.1932    2.4559 C   0  0  0  0  0  0  0  0  0  0  0  0
    6.5687    0.9897    2.7362 C   0  0  0  0  0  0  0  0  0  0  0  0
    7.4040    0.4137    1.7779 C   0  0  0  0  0  0  0  0  0  0  0  0
    6.8918    0.0385    0.5354 C   0  0  0  0  0  0  0  0  0  0  0  0
    5.5357    0.2483    0.2694 C   0  0  0  0  0  0  0  0  0  0  0  0
    4.9375   -0.0998   -0.9527 N   0  0  0  0  0  0  0  0  0  0  0  0
    5.4925   -0.6774   -2.0697 C   0  0  0  0  0  0  0  0  0  0  0  0
    4.4987   -0.8349   -3.0120 C   0  0  0  0  0  0  0  0  0  0  0  0
    3.3009   -0.3335   -2.4492 C   0  0  0  0  0  0  0  0  0  0  0  0
    3.5974    0.1225   -1.1773 C   0  0  0  0  0  0  0  0  0  0  0  0
   -0.2356   -0.1839    1.9185 C   0  0  0  0  0  0  0  0  0  0  0  0
   -1.5190   -0.5589    1.3011 N   0  0  0  0  0  0  0  0  0  0  0  0
   -2.6183    0.3970    1.5185 C   0  0  0  0  0  0  0  0  0  0  0  0
   -3.9716   -0.1109    0.9598 C   0  0  0  0  0  0  0  0  0  0  0  0
   -3.8431   -0.4796   -0.4729 N   0  0  0  0  0  0  0  0  0  0  0  0
   -5.0756   -0.7268   -1.1001 C   0  0  0  0  0  0  0  0  0  0  0  0
   -6.0198    0.3104   -1.1973 C   0  0  0  0  0  0  0  0  0  0  0  0
   -7.2589    0.1248   -1.8190 C   0  0  0  0  0  0  0  0  0  0  0  0
   -7.5817   -1.1106   -2.3674 C   0  0  0  0  0  0  0  0  0  0  0  0
   -6.6620   -2.1516   -2.2984 C   0  0  0  0  0  0  0  0  0  0  0  0
   -5.4221   -1.9577   -1.6764 C   0  0  0  0  0  0  0  0  0  0  0  0
   -2.7448   -1.4430   -0.6970 C   0  0  0  0  0  0  0  0  0  0  0  0
   -1.4155   -0.8878   -0.1313 C   0  0  0  0  0  0  0  0  0  0  0  0
   -0.6394    1.8213    3.4680 H   0  0  0  0  0  0  0  0  0  0  0  0
    1.2626    1.2597    2.4378 H   0  0  0  0  0  0  0  0  0  0  0  0
    1.0896    2.8097    0.5542 H   0  0  0  0  0  0  0  0  0  0  0  0
   -0.3353    2.0252   -0.0471 H   0  0  0  0  0  0  0  0  0  0  0  0
    1.1654    0.9894   -1.3547 H   0  0  0  0  0  0  0  0  0  0  0  0
    4.5680    1.6439    3.2039 H   0  0  0  0  0  0  0  0  0  0  0  0
    6.9699    1.2824    3.7031 H   0  0  0  0  0  0  0  0  0  0  0  0
    8.4568    0.2581    2.0012 H   0  0  0  0  0  0  0  0  0  0  0  0
    7.5603   -0.4067   -0.1936 H   0  0  0  0  0  0  0  0  0  0  0  0
    6.5402   -0.9369   -2.1164 H   0  0  0  0  0  0  0  0  0  0  0  0
    4.6248   -1.2672   -3.9966 H   0  0  0  0  0  0  0  0  0  0  0  0
    2.3297   -0.3139   -2.9251 H   0  0  0  0  0  0  0  0  0  0  0  0
    0.5410   -0.8783    1.5726 H   0  0  0  0  0  0  0  0  0  0  0  0
   -0.3586   -0.4200    2.9847 H   0  0  0  0  0  0  0  0  0  0  0  0
   -2.7443    0.5780    2.5922 H   0  0  0  0  0  0  0  0  0  0  0  0
   -2.3962    1.3561    1.0360 H   0  0  0  0  0  0  0  0  0  0  0  0
   -4.7102    0.6846    1.1096 H   0  0  0  0  0  0  0  0  0  0  0  0
   -4.3030   -0.9848    1.5366 H   0  0  0  0  0  0  0  0  0  0  0  0
   -5.7801    1.2958   -0.8052 H   0  0  0  0  0  0  0  0  0  0  0  0
   -7.9628    0.9501   -1.8788 H   0  0  0  0  0  0  0  0  0  0  0  0
   -8.5423   -1.2601   -2.8520 H   0  0  0  0  0  0  0  0  0  0  0  0
   -6.9045   -3.1201   -2.7275 H   0  0  0  0  0  0  0  0  0  0  0  0
   -4.7432   -2.8035   -1.6405 H   0  0  0  0  0  0  0  0  0  0  0  0
   -2.9688   -2.4022   -0.2119 H   0  0  0  0  0  0  0  0  0  0  0  0
   -2.6077   -1.6194   -1.7710 H   0  0  0  0  0  0  0  0  0  0  0  0
   -1.1374   -0.0054   -0.7160 H   0  0  0  0  0  0  0  0  0  0  0  0
   -0.6401   -1.6474   -0.2854 H   0  0  0  0  0  0  0  0  0  0  0  0
  1  2  1  0
  2  3  1  0
  3  4  1  0
  4  5  1  0
  5  6  2  0
  6  7  1  0
  7  8  2  0
  8  9  1  0
  9 10  2  0
 10 11  1  0
 11 12  2  0
 12 13  1  0
 13 14  1  0
 14 15  2  0
 15 16  1  0
 16 17  2  0
  2 18  1  0
 18 19  1  0
 19 20  1  0
 20 21  1  0
 21 22  1  0
 22 23  1  0
 23 24  2  0
 24 25  1  0
 25 26  2  0
 26 27  1  0
 27 28  2  0
 22 29  1  0
 29 30  1  0
 17  5  1  0
 30 19  1  0
 12  7  1  0
 17 13  1  0
 28 23  1  0
  1 31  1  0
  2 32  1  0
  3 33  1  0
  3 34  1  0
  4 35  1  0
  8 36  1  0
  9 37  1  0
 10 38  1  0
 11 39  1  0
 14 40  1  0
 15 41  1  0
 16 42  1  0
 18 43  1  0
 18 44  1  0
 20 45  1  0
 20 46  1  0
 21 47  1  0
 21 48  1  0
 24 49  1  0
 25 50  1  0
 26 51  1  0
 27 52  1  0
 28 53  1  0
 29 54  1  0
 29 55  1  0
 30 56  1  0
 30 57  1  0
M  END
$$$$
