
     RDKit          3D

 59 62  0  0  0  0  0  0  0  0999 V2000
    8.3705    2.8910    0.4069 C   0  0  0  0  0  0  0  0  0  0  0  0
    7.0735    2.1577    0.5752 C   0  0  0  0  0  0  0  0  0  0  0  0
    6.9924    0.7936    0.2853 C   0  0  0  0  0  0  0  0  0  0  0  0
    5.7765    0.1147    0.4060 C   0  0  0  0  0  0  0  0  0  0  0  0
    4.6166    0.7874    0.8251 C   0  0  0  0  0  0  0  0  0  0  0  0
    3.3928    0.0550    0.9242 N   0  0  0  0  0  0  0  0  0  0  0  0
    3.3068   -1.1533    0.3037 N   0  0  0  0  0  0  0  0  0  0  0  0
    2.0179   -1.4906    0.3742 C   0  0  0  0  0  0  0  0  0  0  0  0
    1.4001   -2.6747   -0.2094 C   0  0  0  0  0  0  0  0  0  0  0  0
    2.0096   -3.4989   -0.8875 O   0  0  0  0  0  0  0  0  0  0  0  0
    0.0236   -2.7683    0.0853 N   0  0  0  0  0  0  0  0  0  0  0  0
   -0.7415   -3.8992   -0.4306 C   0  0  0  0  0  0  0  0  0  0  0  0
   -1.1799   -3.7101   -1.8865 C   0  0  0  0  0  0  0  0  0  0  0  0
   -2.0744   -2.4926   -2.1159 C   0  0  0  0  0  0  0  0  0  0  0  0
   -3.4070   -2.5869   -1.3996 C   0  0  0  0  0  0  0  0  0  0  0  0
   -3.8730   -3.6341   -0.9647 O   0  0  0  0  0  0  0  0  0  0  0  0
   -4.0600   -1.3803   -1.3197 N   0  0  0  0  0  0  0  0  0  0  0  0
   -5.3980   -1.3004   -0.7854 C   0  0  0  0  0  0  0  0  0  0  0  0
   -5.7257    0.1261   -0.5557 C   0  0  0  0  0  0  0  0  0  0  0  0
   -5.9549    0.8770    0.5780 C   0  0  0  0  0  0  0  0  0  0  0  0
   -6.2136    2.1977    0.1385 C   0  0  0  0  0  0  0  0  0  0  0  0
   -6.1218    2.1745   -1.2355 C   0  0  0  0  0  0  0  0  0  0  0  0
   -6.2847    3.2066   -2.2777 C   0  0  0  0  0  0  0  0  0  0  0  0
   -5.8221    0.9169   -1.6643 O   0  0  0  0  0  0  0  0  0  0  0  0
   -0.7090   -1.8268    0.8170 N   0  0  0  0  0  0  0  0  0  0  0  0
   -0.1362   -0.7712    1.3225 C   0  0  0  0  0  0  0  0  0  0  0  0
   -0.9843    0.1996    2.0935 C   0  0  0  0  0  0  0  0  0  0  0  0
    1.2777   -0.5708    1.1243 C   0  0  0  0  0  0  0  0  0  0  0  0
    2.1906    0.3709    1.5692 C   0  0  0  0  0  0  0  0  0  0  0  0
    2.0238    1.4615    2.5641 C   0  0  0  0  0  0  0  0  0  0  0  0
    4.6925    2.1611    1.0779 C   0  0  0  0  0  0  0  0  0  0  0  0
    5.9124    2.8381    0.9546 C   0  0  0  0  0  0  0  0  0  0  0  0
    8.4990    3.1880   -0.6385 H   0  0  0  0  0  0  0  0  0  0  0  0
    9.2143    2.2595    0.7030 H   0  0  0  0  0  0  0  0  0  0  0  0
    8.3995    3.7879    1.0334 H   0  0  0  0  0  0  0  0  0  0  0  0
    7.8736    0.2456   -0.0417 H   0  0  0  0  0  0  0  0  0  0  0  0
    5.7535   -0.9494    0.1734 H   0  0  0  0  0  0  0  0  0  0  0  0
   -1.5990   -4.0704    0.2288 H   0  0  0  0  0  0  0  0  0  0  0  0
   -0.1125   -4.7952   -0.3671 H   0  0  0  0  0  0  0  0  0  0  0  0
   -1.7014   -4.6176   -2.2142 H   0  0  0  0  0  0  0  0  0  0  0  0
   -0.2929   -3.6098   -2.5237 H   0  0  0  0  0  0  0  0  0  0  0  0
   -1.5595   -1.5732   -1.8178 H   0  0  0  0  0  0  0  0  0  0  0  0
   -2.2907   -2.4098   -3.1879 H   0  0  0  0  0  0  0  0  0  0  0  0
   -3.7556   -0.6181   -1.9116 H   0  0  0  0  0  0  0  0  0  0  0  0
   -5.4553   -1.8780    0.1430 H   0  0  0  0  0  0  0  0  0  0  0  0
   -6.0850   -1.7466   -1.5119 H   0  0  0  0  0  0  0  0  0  0  0  0
   -5.9359    0.5131    1.5959 H   0  0  0  0  0  0  0  0  0  0  0  0
   -6.4399    3.0615    0.7479 H   0  0  0  0  0  0  0  0  0  0  0  0
   -5.7408    4.1158   -2.0065 H   0  0  0  0  0  0  0  0  0  0  0  0
   -5.9036    2.8595   -3.2437 H   0  0  0  0  0  0  0  0  0  0  0  0
   -7.3420    3.4609   -2.3991 H   0  0  0  0  0  0  0  0  0  0  0  0
   -0.7699    0.1026    3.1612 H   0  0  0  0  0  0  0  0  0  0  0  0
   -2.0460   -0.0121    1.9324 H   0  0  0  0  0  0  0  0  0  0  0  0
   -0.7816    1.2231    1.7675 H   0  0  0  0  0  0  0  0  0  0  0  0
    2.9438    1.6498    3.1244 H   0  0  0  0  0  0  0  0  0  0  0  0
    1.6931    2.3841    2.0784 H   0  0  0  0  0  0  0  0  0  0  0  0
    1.2763    1.1923    3.3157 H   0  0  0  0  0  0  0  0  0  0  0  0
    3.8214    2.7564    1.3221 H   0  0  0  0  0  0  0  0  0  0  0  0
    5.9457    3.9091    1.1444 H   0  0  0  0  0  0  0  0  0  0  0  0
  1  2  1  0
  2  3  2  0
  3  4  1  0
  4  5  2  0
  5  6  1  0
  6  7  1  0
  7  8  2  0
  8  9  1  0
  9 10  2  0
  9 11  1  0
 11 12  1  0
 12 13  1  0
 13 14  1  0
 14 15  1  0
 15 16  2  0
 15 17  1  0
 17 18  1  0
 18 19  1  0
 19 20  2  0
 20 21  1  0
 21 22  2  0
 22 23  1  0
 22 24  1  0
 11 25  1  0
 25 26  2  0
 26 27  1  0
 26 28  1  0
 28 29  2  0
 29 30  1  0
  5 31  1  0
 31 32  2  0
 32  2  1  0
 29  6  1  0
 28  8  1  0
 24 19  1  0
  1 33  1  0
  1 34  1  0
  1 35  1  0
  3 36  1  0
  4 37  1  0
 12 38  1  0
 12 39  1  0
 13 40  1  0
 13 41  1  0
 14 42  1  0
 14 43  1  0
 17 44  1  0
 18 45  1  0
 18 46  1  0
 20 47  1  0
 21 48  1  0
 23 49  1  0
 23 50  1  0
 23 51  1  0
 27 52  1  0
 27 53  1  0
 27 54  1  0
 30 55  1  0
 30 56  1  0
 30 57  1  0
 31 58  1  0
 32 59  1  0
M  END
$$$$
