
     RDKit          3D

 57 59  0  0  0  0  0  0  0  0999 V2000
   10.8529    1.9329   -2.9576 C   0  0  0  0  0  0  0  0  0  0  0  0
    9.6143    1.4390   -3.4511 O   0  0  0  0  0  0  0  0  0  0  0  0
    8.6319    1.2032   -2.5274 C   0  0  0  0  0  0  0  0  0  0  0  0
    8.7226    1.4217   -1.1535 C   0  0  0  0  0  0  0  0  0  0  0  0
    7.6291    1.1385   -0.3256 C   0  0  0  0  0  0  0  0  0  0  0  0
    6.4358    0.6392   -0.8535 C   0  0  0  0  0  0  0  0  0  0  0  0
    5.4600    0.4057    0.0746 O   0  0  0  0  0  0  0  0  0  0  0  0
    4.1513    0.0414   -0.3796 C   0  0  0  0  0  0  0  0  0  0  0  0
    4.0324   -1.4757   -0.5093 C   0  0  0  0  0  0  0  0  0  0  0  0
    2.4689   -1.9847   -1.2916 S   0  0  0  0  0  0  0  0  0  0  0  0
    1.3441   -1.7479   -0.0010 C   0  0  0  0  0  0  0  0  0  0  0  0
    1.6371   -1.3666    1.2194 N   0  0  0  0  0  0  0  0  0  0  0  0
    0.4640   -1.2682    1.9236 N   0  0  0  0  0  0  0  0  0  0  0  0
   -0.5268   -1.5877    1.1158 C   0  0  0  0  0  0  0  0  0  0  0  0
   -1.9726   -1.5705    1.4703 C   0  0  0  0  0  0  0  0  0  0  0  0
   -2.4232   -0.1532    1.8317 C   0  0  0  0  0  0  0  0  0  0  0  0
   -3.8472   -0.0774    2.1126 N   0  0  0  0  0  0  0  0  0  0  0  0
   -4.7739   -0.1104    1.0890 C   0  0  0  0  0  0  0  0  0  0  0  0
   -4.4713   -0.2801   -0.0888 O   0  0  0  0  0  0  0  0  0  0  0  0
   -6.1932    0.1069    1.4798 C   0  0  0  0  0  0  0  0  0  0  0  0
   -6.6862   -0.2931    2.7262 C   0  0  0  0  0  0  0  0  0  0  0  0
   -8.0282   -0.0656    3.0476 C   0  0  0  0  0  0  0  0  0  0  0  0
   -8.8879    0.5553    2.1356 C   0  0  0  0  0  0  0  0  0  0  0  0
  -10.1701    0.7225    2.5834 O   0  0  0  0  0  0  0  0  0  0  0  0
  -11.0719    1.4003    1.7157 C   0  0  0  0  0  0  0  0  0  0  0  0
   -8.3985    0.9363    0.8848 C   0  0  0  0  0  0  0  0  0  0  0  0
   -7.0565    0.7077    0.5560 C   0  0  0  0  0  0  0  0  0  0  0  0
   -0.0077   -1.9184   -0.1175 N   0  0  0  0  0  0  0  0  0  0  0  0
   -0.7658   -2.3315   -1.2711 C   0  0  0  0  0  0  0  0  0  0  0  0
    6.3480    0.4153   -2.2260 C   0  0  0  0  0  0  0  0  0  0  0  0
    7.4415    0.6987   -3.0550 C   0  0  0  0  0  0  0  0  0  0  0  0
   11.3216    1.2115   -2.2755 H   0  0  0  0  0  0  0  0  0  0  0  0
   11.5248    2.0684   -3.8146 H   0  0  0  0  0  0  0  0  0  0  0  0
   10.7245    2.9102   -2.4760 H   0  0  0  0  0  0  0  0  0  0  0  0
    9.6226    1.8121   -0.6912 H   0  0  0  0  0  0  0  0  0  0  0  0
    7.7074    1.3142    0.7462 H   0  0  0  0  0  0  0  0  0  0  0  0
    3.8810    0.5765   -1.2964 H   0  0  0  0  0  0  0  0  0  0  0  0
    3.4591    0.4012    0.3880 H   0  0  0  0  0  0  0  0  0  0  0  0
    4.8448   -1.8633   -1.1299 H   0  0  0  0  0  0  0  0  0  0  0  0
    4.1558   -1.9576    0.4657 H   0  0  0  0  0  0  0  0  0  0  0  0
   -2.1406   -2.2421    2.3240 H   0  0  0  0  0  0  0  0  0  0  0  0
   -2.5876   -1.9643    0.6530 H   0  0  0  0  0  0  0  0  0  0  0  0
   -1.8991    0.2040    2.7248 H   0  0  0  0  0  0  0  0  0  0  0  0
   -2.1990    0.5409    1.0132 H   0  0  0  0  0  0  0  0  0  0  0  0
   -4.1288    0.2730    3.0207 H   0  0  0  0  0  0  0  0  0  0  0  0
   -6.0536   -0.8037    3.4468 H   0  0  0  0  0  0  0  0  0  0  0  0
   -8.4117   -0.3810    4.0162 H   0  0  0  0  0  0  0  0  0  0  0  0
  -11.2385    0.8258    0.7979 H   0  0  0  0  0  0  0  0  0  0  0  0
  -12.0329    1.4888    2.2345 H   0  0  0  0  0  0  0  0  0  0  0  0
  -10.7206    2.4144    1.4904 H   0  0  0  0  0  0  0  0  0  0  0  0
   -9.0313    1.4091    0.1403 H   0  0  0  0  0  0  0  0  0  0  0  0
   -6.6851    1.0059   -0.4234 H   0  0  0  0  0  0  0  0  0  0  0  0
   -0.1111   -2.7470   -2.0425 H   0  0  0  0  0  0  0  0  0  0  0  0
   -1.4732   -3.1100   -0.9674 H   0  0  0  0  0  0  0  0  0  0  0  0
   -1.2992   -1.4585   -1.6646 H   0  0  0  0  0  0  0  0  0  0  0  0
    5.4536    0.0163   -2.6910 H   0  0  0  0  0  0  0  0  0  0  0  0
    7.3642    0.5216   -4.1261 H   0  0  0  0  0  0  0  0  0  0  0  0
  1  2  1  0
  2  3  1  0
  3  4  2  0
  4  5  1  0
  5  6  2  0
  6  7  1  0
  7  8  1  0
  8  9  1  0
  9 10  1  0
 10 11  1  0
 11 12  2  0
 12 13  1  0
 13 14  2  0
 14 15  1  0
 15 16  1  0
 16 17  1  0
 17 18  1  0
 18 19  2  0
 18 20  1  0
 20 21  2  0
 21 22  1  0
 22 23  2  0
 23 24  1  0
 24 25  1  0
 23 26  1  0
 26 27  2  0
 14 28  1  0
 28 29  1  0
  6 30  1  0
 30 31  2  0
 31  3  1  0
 28 11  1  0
 27 20  1  0
  1 32  1  0
  1 33  1  0
  1 34  1  0
  4 35  1  0
  5 36  1  0
  8 37  1  0
  8 38  1  0
  9 39  1  0
  9 40  1  0
 15 41  1  0
 15 42  1  0
 16 43  1  0
 16 44  1  0
 17 45  1  0
 21 46  1  0
 22 47  1  0
 25 48  1  0
 25 49  1  0
 25 50  1  0
 26 51  1  0
 27 52  1  0
 29 53  1  0
 29 54  1  0
 29 55  1  0
 30 56  1  0
 31 57  1  0
M  END
$$$$
