
     RDKit          3D

 57 62  0  0  0  0  0  0  0  0999 V2000
    6.9777    3.6017   -1.2757 C   0  0  0  0  0  0  0  0  0  0  0  0
    6.9136    2.1833   -1.1789 O   0  0  0  0  0  0  0  0  0  0  0  0
    5.7289    1.6383   -0.7746 C   0  0  0  0  0  0  0  0  0  0  0  0
    5.7279    0.2450   -0.6924 C   0  0  0  0  0  0  0  0  0  0  0  0
    4.5831   -0.4519   -0.2928 C   0  0  0  0  0  0  0  0  0  0  0  0
    3.4210    0.2453    0.0320 C   0  0  0  0  0  0  0  0  0  0  0  0
    2.1221   -0.5208    0.4732 C   0  0  0  0  0  0  0  0  0  0  0  0
    0.8847    0.0470    0.7556 C   0  0  0  0  0  0  0  0  0  0  0  0
   -0.0177   -0.9685    1.0686 N   0  0  0  0  0  4  0  0  0  0  0  0
   -1.4543   -0.8177    1.3500 C   0  0  0  0  0  0  0  0  0  0  0  0
   -2.2737   -1.1574    0.0908 C   0  0  0  0  0  0  0  0  0  0  0  0
   -2.0221   -2.1855   -0.5390 O   0  0  0  0  0  0  0  0  0  0  0  0
   -3.1915   -0.1625   -0.2718 N   0  0  0  0  0  0  0  0  0  0  0  0
   -4.1824    0.2721    0.6832 C   0  0  0  0  0  0  0  0  0  0  0  0
   -4.5452   -0.5946    1.7397 C   0  0  0  0  0  0  0  0  0  0  0  0
   -5.4894   -0.2274    2.7027 C   0  0  0  0  0  0  0  0  0  0  0  0
   -6.1048    1.0122    2.6266 C   0  0  0  0  0  0  0  0  0  0  0  0
   -5.7889    1.8699    1.5765 C   0  0  0  0  0  0  0  0  0  0  0  0
   -4.8466    1.5026    0.5998 C   0  0  0  0  0  0  0  0  0  0  0  0
   -4.5256    2.6783   -0.6761 S   0  0  0  0  0  0  0  0  0  0  0  0
   -3.8177    1.6185   -1.9090 C   0  0  0  0  0  0  0  0  0  0  0  0
   -3.8034    2.1301   -3.2201 C   0  0  0  0  0  0  0  0  0  0  0  0
   -3.1780    1.4373   -4.2505 C   0  0  0  0  0  0  0  0  0  0  0  0
   -2.5499    0.2345   -3.9726 C   0  0  0  0  0  0  0  0  0  0  0  0
   -2.5598   -0.2782   -2.6698 C   0  0  0  0  0  0  0  0  0  0  0  0
   -3.2083    0.3860   -1.6078 C   0  0  0  0  0  0  0  0  0  0  0  0
    0.6311   -2.1248    0.9672 C   0  0  0  0  0  0  0  0  0  0  0  0
    1.9016   -1.8731    0.6641 N   0  0  0  0  0  0  0  0  0  0  0  0
    2.6898   -3.0952    0.5818 C   0  0  0  0  0  0  0  0  0  0  0  0
    1.7626   -4.1675    1.2166 C   0  0  0  0  0  0  0  0  0  0  0  0
    0.3444   -3.5694    1.1297 C   0  0  0  0  0  0  0  0  0  0  0  0
    3.4160    1.6430   -0.0522 C   0  0  0  0  0  0  0  0  0  0  0  0
    4.5669    2.3359   -0.4529 C   0  0  0  0  0  0  0  0  0  0  0  0
    7.9865    3.8701   -1.6043 H   0  0  0  0  0  0  0  0  0  0  0  0
    6.2722    3.9777   -2.0239 H   0  0  0  0  0  0  0  0  0  0  0  0
    6.8077    4.0711   -0.3007 H   0  0  0  0  0  0  0  0  0  0  0  0
    6.6333   -0.3035   -0.9479 H   0  0  0  0  0  0  0  0  0  0  0  0
    4.6405   -1.5318   -0.2622 H   0  0  0  0  0  0  0  0  0  0  0  0
    0.5209    1.0607    0.7530 H   0  0  0  0  0  0  0  0  0  0  0  0
   -1.6286    0.2077    1.6894 H   0  0  0  0  0  0  0  0  0  0  0  0
   -1.7235   -1.5086    2.1555 H   0  0  0  0  0  0  0  0  0  0  0  0
   -4.1520   -1.6068    1.8079 H   0  0  0  0  0  0  0  0  0  0  0  0
   -5.7634   -0.9188    3.4973 H   0  0  0  0  0  0  0  0  0  0  0  0
   -6.8472    1.3057    3.3665 H   0  0  0  0  0  0  0  0  0  0  0  0
   -6.2952    2.8327    1.5192 H   0  0  0  0  0  0  0  0  0  0  0  0
   -4.2758    3.0854   -3.4457 H   0  0  0  0  0  0  0  0  0  0  0  0
   -3.1779    1.8397   -5.2609 H   0  0  0  0  0  0  0  0  0  0  0  0
   -2.0577   -0.3184   -4.7707 H   0  0  0  0  0  0  0  0  0  0  0  0
   -2.0681   -1.2367   -2.5402 H   0  0  0  0  0  0  0  0  0  0  0  0
    2.8900   -3.3181   -0.4709 H   0  0  0  0  0  0  0  0  0  0  0  0
    3.6206   -2.9997    1.1466 H   0  0  0  0  0  0  0  0  0  0  0  0
    1.8462   -5.1429    0.7297 H   0  0  0  0  0  0  0  0  0  0  0  0
    2.0341   -4.2926    2.2712 H   0  0  0  0  0  0  0  0  0  0  0  0
   -0.2470   -3.7171    2.0342 H   0  0  0  0  0  0  0  0  0  0  0  0
   -0.1850   -3.8940    0.2322 H   0  0  0  0  0  0  0  0  0  0  0  0
    2.5350    2.2312    0.1888 H   0  0  0  0  0  0  0  0  0  0  0  0
    4.5224    3.4204   -0.5046 H   0  0  0  0  0  0  0  0  0  0  0  0
  1  2  1  0
  2  3  1  0
  3  4  2  0
  4  5  1  0
  5  6  2  0
  6  7  1  0
  7  8  2  0
  8  9  1  0
  9 10  1  0
 10 11  1  0
 11 12  2  0
 11 13  1  0
 13 14  1  0
 14 15  2  0
 15 16  1  0
 16 17  2  0
 17 18  1  0
 18 19  2  0
 19 20  1  0
 20 21  1  0
 21 22  2  0
 22 23  1  0
 23 24  2  0
 24 25  1  0
 25 26  2  0
  9 27  2  0
 27 28  1  0
 28 29  1  0
 29 30  1  0
 30 31  1  0
  6 32  1  0
 32 33  2  0
 33  3  1  0
 28  7  1  0
 26 13  1  0
 31 27  1  0
 19 14  1  0
 26 21  1  0
  1 34  1  0
  1 35  1  0
  1 36  1  0
  4 37  1  0
  5 38  1  0
  8 39  1  0
 10 40  1  0
 10 41  1  0
 15 42  1  0
 16 43  1  0
 17 44  1  0
 18 45  1  0
 22 46  1  0
 23 47  1  0
 24 48  1  0
 25 49  1  0
 29 50  1  0
 29 51  1  0
 30 52  1  0
 30 53  1  0
 31 54  1  0
 31 55  1  0
 32 56  1  0
 33 57  1  0
M  CHG  1   9   1
M  END
$$$$
