
     RDKit          3D

 55 59  0  0  0  0  0  0  0  0999 V2000
    7.2744   -2.0805    2.3483 C   0  0  0  0  0  0  0  0  0  0  0  0
    5.9072   -1.7575    2.1298 O   0  0  0  0  0  0  0  0  0  0  0  0
    5.6139   -0.4473    1.8685 C   0  0  0  0  0  0  0  0  0  0  0  0
    6.5387    0.5885    1.7348 C   0  0  0  0  0  0  0  0  0  0  0  0
    6.1017    1.8893    1.4715 C   0  0  0  0  0  0  0  0  0  0  0  0
    4.7394    2.1584    1.3311 C   0  0  0  0  0  0  0  0  0  0  0  0
    3.8009    1.1261    1.4444 C   0  0  0  0  0  0  0  0  0  0  0  0
    2.3694    1.3780    1.3062 C   0  0  0  0  0  0  0  0  0  0  0  0
    1.4409    1.0091    2.1710 N   0  0  0  0  0  0  0  0  0  0  0  0
    0.2219    1.4455    1.7141 N   0  0  0  0  0  0  0  0  0  0  0  0
    0.4168    2.0334    0.5602 C   0  0  0  0  0  0  0  0  0  0  0  0
   -0.7980    2.7607   -0.4307 S   0  0  0  0  0  0  0  0  0  0  0  0
   -1.9135    1.3368   -0.7867 C   0  0  0  0  0  0  0  0  0  0  0  0
   -1.1690    0.1433   -1.4147 C   0  0  0  0  0  0  0  0  0  0  0  0
    0.0240    0.2113   -1.7291 O   0  0  0  0  0  0  0  0  0  0  0  0
   -1.8974   -1.1010   -1.7140 C   0  0  0  0  0  0  0  0  0  0  0  0
   -1.2703   -2.3372   -1.7197 C   0  0  0  0  0  0  0  0  0  0  0  0
   -2.1960   -3.2991   -1.9996 N   0  0  0  0  0  0  0  0  0  0  0  0
   -3.4227   -2.7225   -2.2226 C   0  0  0  0  0  0  0  0  0  0  0  0
   -4.6410   -3.3279   -2.5569 C   0  0  0  0  0  0  0  0  0  0  0  0
   -5.7482   -2.5013   -2.7506 C   0  0  0  0  0  0  0  0  0  0  0  0
   -5.6356   -1.1221   -2.6227 C   0  0  0  0  0  0  0  0  0  0  0  0
   -4.4092   -0.5329   -2.2886 C   0  0  0  0  0  0  0  0  0  0  0  0
   -3.2714   -1.3404   -2.0646 C   0  0  0  0  0  0  0  0  0  0  0  0
   -2.8274    1.0329    0.3929 C   0  0  0  0  0  0  0  0  0  0  0  0
   -4.0159    1.7699    0.5539 C   0  0  0  0  0  0  0  0  0  0  0  0
   -4.8803    1.5147    1.6201 C   0  0  0  0  0  0  0  0  0  0  0  0
   -4.5660    0.5283    2.5501 C   0  0  0  0  0  0  0  0  0  0  0  0
   -3.3847   -0.1967    2.4189 C   0  0  0  0  0  0  0  0  0  0  0  0
   -2.5199    0.0552    1.3516 C   0  0  0  0  0  0  0  0  0  0  0  0
    1.7476    2.0062    0.2461 N   0  0  0  0  0  0  0  0  0  0  0  0
    2.3741    2.4580   -0.9695 C   0  0  0  0  0  0  0  0  0  0  0  0
    4.2505   -0.1705    1.7270 C   0  0  0  0  0  0  0  0  0  0  0  0
    7.8713   -1.8949    1.4493 H   0  0  0  0  0  0  0  0  0  0  0  0
    7.6768   -1.5376    3.2100 H   0  0  0  0  0  0  0  0  0  0  0  0
    7.3336   -3.1501    2.5717 H   0  0  0  0  0  0  0  0  0  0  0  0
    7.6054    0.4194    1.8376 H   0  0  0  0  0  0  0  0  0  0  0  0
    6.8255    2.6961    1.3854 H   0  0  0  0  0  0  0  0  0  0  0  0
    4.4190    3.1822    1.1544 H   0  0  0  0  0  0  0  0  0  0  0  0
   -2.5428    1.7135   -1.6026 H   0  0  0  0  0  0  0  0  0  0  0  0
   -0.2378   -2.6011   -1.5270 H   0  0  0  0  0  0  0  0  0  0  0  0
   -2.0100   -4.2914   -2.0521 H   0  0  0  0  0  0  0  0  0  0  0  0
   -4.7279   -4.4043   -2.6658 H   0  0  0  0  0  0  0  0  0  0  0  0
   -6.7081   -2.9422   -3.0092 H   0  0  0  0  0  0  0  0  0  0  0  0
   -6.5073   -0.4923   -2.7834 H   0  0  0  0  0  0  0  0  0  0  0  0
   -4.3622    0.5471   -2.2113 H   0  0  0  0  0  0  0  0  0  0  0  0
   -4.2773    2.5556   -0.1520 H   0  0  0  0  0  0  0  0  0  0  0  0
   -5.7947    2.0914    1.7296 H   0  0  0  0  0  0  0  0  0  0  0  0
   -5.2329    0.3326    3.3852 H   0  0  0  0  0  0  0  0  0  0  0  0
   -3.1246   -0.9526    3.1554 H   0  0  0  0  0  0  0  0  0  0  0  0
   -1.5924   -0.5128    1.2973 H   0  0  0  0  0  0  0  0  0  0  0  0
    3.2308    1.8204   -1.2012 H   0  0  0  0  0  0  0  0  0  0  0  0
    2.6966    3.4919   -0.8238 H   0  0  0  0  0  0  0  0  0  0  0  0
    1.6749    2.3987   -1.8056 H   0  0  0  0  0  0  0  0  0  0  0  0
    3.5296   -0.9788    1.8402 H   0  0  0  0  0  0  0  0  0  0  0  0
  1  2  1  0
  2  3  1  0
  3  4  2  0
  4  5  1  0
  5  6  2  0
  6  7  1  0
  7  8  1  0
  8  9  2  0
  9 10  1  0
 10 11  2  0
 11 12  1  0
 12 13  1  0
 13 14  1  0
 14 15  2  0
 14 16  1  0
 16 17  2  0
 17 18  1  0
 18 19  1  0
 19 20  2  0
 20 21  1  0
 21 22  2  0
 22 23  1  0
 23 24  2  0
 13 25  1  0
 25 26  2  0
 26 27  1  0
 27 28  2  0
 28 29  1  0
 29 30  2  0
 11 31  1  0
 31 32  1  0
  7 33  2  0
 33  3  1  0
 31  8  1  0
 24 16  1  0
 30 25  1  0
 24 19  1  0
  1 34  1  0
  1 35  1  0
  1 36  1  0
  4 37  1  0
  5 38  1  0
  6 39  1  0
 13 40  1  0
 17 41  1  0
 18 42  1  0
 20 43  1  0
 21 44  1  0
 22 45  1  0
 23 46  1  0
 26 47  1  0
 27 48  1  0
 28 49  1  0
 29 50  1  0
 30 51  1  0
 32 52  1  0
 32 53  1  0
 32 54  1  0
 33 55  1  0
M  END
$$$$
