
     RDKit          3D

 88 93  0  0  0  0  0  0  0  0999 V2000
    3.3242    0.9520   -2.4529 C   0  0  0  0  0  0  0  0  0  0  0  0
    3.3650   -0.0060   -1.3014 C   0  0  0  0  0  0  0  0  0  0  0  0
    4.2496   -0.8316   -1.1301 O   0  0  0  0  0  0  0  0  0  0  0  0
    2.2810    0.1949   -0.4992 O   0  0  0  0  0  0  0  0  0  0  0  0
    2.1854   -0.6331    0.6649 C   0  0  1  0  0  0  0  0  0  0  0  0
    2.3450    0.2341    1.9284 C   0  0  1  0  0  0  0  0  0  0  0  0
    3.5275    1.1975    1.9162 C   0  0  0  0  0  0  0  0  0  0  0  0
    4.7569    0.4680    1.7917 O   0  0  0  0  0  0  0  0  0  0  0  0
    5.3165    0.0435    2.9515 C   0  0  0  0  0  0  0  0  0  0  0  0
    4.8871    0.2628    4.0734 O   0  0  0  0  0  0  0  0  0  0  0  0
    6.5518   -0.7395    2.6837 C   0  0  0  0  0  0  0  0  0  0  0  0
    7.3994   -1.0292    3.7622 C   0  0  0  0  0  0  0  0  0  0  0  0
    8.5642   -1.7734    3.5626 C   0  0  0  0  0  0  0  0  0  0  0  0
    8.8846   -2.2366    2.2879 C   0  0  0  0  0  0  0  0  0  0  0  0
    8.0452   -1.9562    1.2110 C   0  0  0  0  0  0  0  0  0  0  0  0
    6.8800   -1.2092    1.4059 C   0  0  0  0  0  0  0  0  0  0  0  0
    0.9881    0.9553    2.0701 C   0  0  0  0  0  0  0  0  0  0  0  0
   -0.0858    0.0752    1.3453 C   0  0  2  0  0  0  0  0  0  0  0  0
   -0.5856    0.7715    0.1916 O   0  0  0  0  0  0  0  0  0  0  0  0
   -1.1879    1.9744    0.3756 C   0  0  0  0  0  0  0  0  0  0  0  0
   -1.3240    2.5682    1.4319 O   0  0  0  0  0  0  0  0  0  0  0  0
   -1.6973    2.4437   -0.9263 C   0  0  0  0  0  0  0  0  0  0  0  0
   -2.5307    3.4943   -0.9750 C   0  0  0  0  0  0  0  0  0  0  0  0
   -3.1159    4.0253   -2.2134 C   0  0  0  0  0  0  0  0  0  0  0  0
   -3.3592    5.4020   -2.3093 C   0  0  0  0  0  0  0  0  0  0  0  0
   -3.9481    5.9435   -3.4546 C   0  0  0  0  0  0  0  0  0  0  0  0
   -4.3090    5.1133   -4.5120 C   0  0  0  0  0  0  0  0  0  0  0  0
   -4.0883    3.7403   -4.4221 C   0  0  0  0  0  0  0  0  0  0  0  0
   -3.5000    3.1977   -3.2770 C   0  0  0  0  0  0  0  0  0  0  0  0
   -1.1578   -0.4638    2.3407 C   0  0  0  0  0  0  0  0  0  0  0  0
   -0.8437   -1.1642    3.3085 O   0  0  0  0  0  0  0  0  0  0  0  0
   -2.5907   -0.0585    2.2230 C   0  0  0  0  0  0  0  0  0  0  0  0
   -3.0642    0.7508    3.3998 C   0  0  0  0  0  0  0  0  0  0  0  0
   -3.4173   -0.3813    1.2112 C   0  0  0  0  0  0  0  0  0  0  0  0
   -3.2361   -1.1985   -0.0014 C   0  0  0  0  0  0  0  0  0  0  0  0
   -3.0935   -2.7064    0.0468 C   0  0  2  0  0  0  0  0  0  0  0  0
   -2.3266   -3.5947   -0.9062 C   0  0  0  0  0  0  0  0  0  0  0  0
   -1.4302   -2.9446   -1.9612 C   0  0  0  0  0  0  0  0  0  0  0  0
   -0.3895   -1.9661   -1.4516 C   0  0  2  0  0  0  0  0  0  0  0  0
   -0.1817   -0.7828   -2.3459 C   0  0  0  0  0  0  0  0  0  0  0  0
    0.8798   -2.5809   -1.1282 O   0  0  0  0  0  0  0  0  0  0  0  0
    0.1231   -2.1267   -0.0141 C   0  0  1  0  0  0  0  0  0  0  0  0
    0.7665   -1.1500    0.9035 C   0  0  1  0  0  0  0  0  0  0  0  0
   -4.4181   -2.0954   -0.3931 C   0  0  0  0  0  0  0  0  0  0  0  0
   -4.8397   -2.0621   -1.8427 C   0  0  0  0  0  0  0  0  0  0  0  0
   -5.5867   -2.3468    0.5378 C   0  0  0  0  0  0  0  0  0  0  0  0
    4.2813    0.9232   -2.9810 H   0  0  0  0  0  0  0  0  0  0  0  0
    2.5281    0.6682   -3.1433 H   0  0  0  0  0  0  0  0  0  0  0  0
    3.1703    1.9701   -2.0846 H   0  0  0  0  0  0  0  0  0  0  0  0
    2.9033   -1.4601    0.6547 H   0  0  0  0  0  0  0  0  0  0  0  0
    2.4621   -0.4439    2.7861 H   0  0  0  0  0  0  0  0  0  0  0  0
    3.5318    1.8287    2.8134 H   0  0  0  0  0  0  0  0  0  0  0  0
    3.4726    1.8829    1.0642 H   0  0  0  0  0  0  0  0  0  0  0  0
    7.1550   -0.6772    4.7626 H   0  0  0  0  0  0  0  0  0  0  0  0
    9.2175   -1.9949    4.4020 H   0  0  0  0  0  0  0  0  0  0  0  0
    9.7878   -2.8212    2.1326 H   0  0  0  0  0  0  0  0  0  0  0  0
    8.2910   -2.3247    0.2186 H   0  0  0  0  0  0  0  0  0  0  0  0
    6.2346   -1.0135    0.5527 H   0  0  0  0  0  0  0  0  0  0  0  0
    0.7549    1.0966    3.1313 H   0  0  0  0  0  0  0  0  0  0  0  0
    1.0694    1.9498    1.6189 H   0  0  0  0  0  0  0  0  0  0  0  0
   -1.3782    1.9091   -1.8088 H   0  0  0  0  0  0  0  0  0  0  0  0
   -2.8080    4.0170   -0.0608 H   0  0  0  0  0  0  0  0  0  0  0  0
   -3.0876    6.0686   -1.4934 H   0  0  0  0  0  0  0  0  0  0  0  0
   -4.1285    7.0139   -3.5169 H   0  0  0  0  0  0  0  0  0  0  0  0
   -4.7695    5.5331   -5.4019 H   0  0  0  0  0  0  0  0  0  0  0  0
   -4.3840    3.0890   -5.2401 H   0  0  0  0  0  0  0  0  0  0  0  0
   -3.3618    2.1206   -3.2253 H   0  0  0  0  0  0  0  0  0  0  0  0
   -3.9977    1.2794    3.1836 H   0  0  0  0  0  0  0  0  0  0  0  0
   -3.2345    0.0995    4.2629 H   0  0  0  0  0  0  0  0  0  0  0  0
   -2.3221    1.5054    3.6807 H   0  0  0  0  0  0  0  0  0  0  0  0
   -4.4248    0.0334    1.2945 H   0  0  0  0  0  0  0  0  0  0  0  0
   -2.7568   -0.6576   -0.8080 H   0  0  0  0  0  0  0  0  0  0  0  0
   -3.0716   -3.1577    1.0384 H   0  0  0  0  0  0  0  0  0  0  0  0
   -3.0414   -4.2507   -1.4189 H   0  0  0  0  0  0  0  0  0  0  0  0
   -1.7144   -4.2805   -0.3068 H   0  0  0  0  0  0  0  0  0  0  0  0
   -0.9185   -3.7391   -2.5189 H   0  0  0  0  0  0  0  0  0  0  0  0
   -2.0626   -2.4404   -2.6968 H   0  0  0  0  0  0  0  0  0  0  0  0
   -1.1391   -0.3128   -2.5874 H   0  0  0  0  0  0  0  0  0  0  0  0
    0.2775   -1.0998   -3.2887 H   0  0  0  0  0  0  0  0  0  0  0  0
    0.4518   -0.0151   -1.9127 H   0  0  0  0  0  0  0  0  0  0  0  0
   -0.3307   -2.9029    0.5944 H   0  0  0  0  0  0  0  0  0  0  0  0
    0.9042   -1.7738    1.8046 H   0  0  0  0  0  0  0  0  0  0  0  0
   -5.7209   -1.4219   -1.9641 H   0  0  0  0  0  0  0  0  0  0  0  0
   -5.1023   -3.0676   -2.1885 H   0  0  0  0  0  0  0  0  0  0  0  0
   -4.0667   -1.6572   -2.4995 H   0  0  0  0  0  0  0  0  0  0  0  0
   -5.2815   -2.4338    1.5857 H   0  0  0  0  0  0  0  0  0  0  0  0
   -6.3144   -1.5324    0.4622 H   0  0  0  0  0  0  0  0  0  0  0  0
   -6.0890   -3.2806    0.2635 H   0  0  0  0  0  0  0  0  0  0  0  0
  1  2  1  0
  2  3  2  0
  2  4  1  0
  4  5  1  0
  5  6  1  0
  6  7  1  0
  7  8  1  0
  8  9  1  0
  9 10  2  0
  9 11  1  0
 11 12  2  0
 12 13  1  0
 13 14  2  0
 14 15  1  0
 15 16  2  0
  6 17  1  0
 17 18  1  0
 18 19  1  6
 19 20  1  0
 20 21  2  0
 20 22  1  0
 22 23  2  0
 23 24  1  0
 24 25  2  0
 25 26  1  0
 26 27  2  0
 27 28  1  0
 28 29  2  0
 18 30  1  0
 30 31  2  0
 30 32  1  0
 32 33  1  0
 32 34  2  3
 34 35  1  0
 35 36  1  0
 36 37  1  0
 37 38  1  0
 38 39  1  0
 39 40  1  6
 39 41  1  0
 41 42  1  0
 42 43  1  0
 36 44  1  0
 44 45  1  0
 44 46  1  0
 43  5  1  0
 16 11  1  0
 43 18  1  0
 29 24  1  0
 44 35  1  0
 42 39  1  0
  1 47  1  0
  1 48  1  0
  1 49  1  0
  5 50  1  6
  6 51  1  1
  7 52  1  0
  7 53  1  0
 12 54  1  0
 13 55  1  0
 14 56  1  0
 15 57  1  0
 16 58  1  0
 17 59  1  0
 17 60  1  0
 22 61  1  0
 23 62  1  0
 25 63  1  0
 26 64  1  0
 27 65  1  0
 28 66  1  0
 29 67  1  0
 33 68  1  0
 33 69  1  0
 33 70  1  0
 34 71  1  0
 35 72  1  0
 36 73  1  1
 37 74  1  0
 37 75  1  0
 38 76  1  0
 38 77  1  0
 40 78  1  0
 40 79  1  0
 40 80  1  0
 42 81  1  1
 43 82  1  1
 45 83  1  0
 45 84  1  0
 45 85  1  0
 46 86  1  0
 46 87  1  0
 46 88  1  0
M  END
$$$$
