
     RDKit          3D

 60 63  0  0  0  0  0  0  0  0999 V2000
    7.8842    2.4597    1.3230 C   0  0  0  0  0  0  0  0  0  0  0  0
    7.7531    1.0577    1.1302 O   0  0  0  0  0  0  0  0  0  0  0  0
    6.6679    0.6289    0.4183 C   0  0  0  0  0  0  0  0  0  0  0  0
    5.6833    1.4398   -0.1461 C   0  0  0  0  0  0  0  0  0  0  0  0
    4.6196    0.8682   -0.8536 C   0  0  0  0  0  0  0  0  0  0  0  0
    4.5303   -0.5211   -1.0108 C   0  0  0  0  0  0  0  0  0  0  0  0
    3.3723   -1.1425   -1.7475 C   0  0  0  0  0  0  0  0  0  0  0  0
    2.3465   -1.5572   -0.8236 N   0  0  0  0  0  0  0  0  0  0  0  0
    2.1953   -2.8652   -0.4171 C   0  0  0  0  0  0  0  0  0  0  0  0
    2.8851   -3.7837   -0.8562 O   0  0  0  0  0  0  0  0  0  0  0  0
    1.2209   -3.0638    0.7572 C   0  0  0  0  0  0  0  0  0  0  0  0
    2.0082   -3.0768    2.0661 C   0  0  0  0  0  0  0  0  0  0  0  0
    0.1659   -2.0316    0.7412 N   0  0  0  0  0  0  0  0  0  0  0  0
    0.4637   -0.7972    1.3477 N   0  0  0  0  0  0  0  0  0  0  0  0
   -0.4067    0.1744    1.3675 C   0  0  0  0  0  0  0  0  0  0  0  0
   -0.0242    1.4572    2.0490 C   0  0  0  0  0  0  0  0  0  0  0  0
   -1.6870   -0.0103    0.7334 C   0  0  0  0  0  0  0  0  0  0  0  0
   -2.8348    0.7590    0.6361 C   0  0  0  0  0  0  0  0  0  0  0  0
   -3.1828    2.0370    1.3100 C   0  0  0  0  0  0  0  0  0  0  0  0
   -3.6912    0.0438   -0.2123 N   0  0  0  0  0  0  0  0  0  0  0  0
   -4.9267    0.4221   -0.8255 C   0  0  0  0  0  0  0  0  0  0  0  0
   -5.7516   -0.5805   -1.3616 C   0  0  0  0  0  0  0  0  0  0  0  0
   -6.9691   -0.2562   -1.9681 C   0  0  0  0  0  0  0  0  0  0  0  0
   -7.3845    1.0744   -2.0558 C   0  0  0  0  0  0  0  0  0  0  0  0
   -8.6750    1.4267   -2.7340 C   0  0  0  0  0  0  0  0  0  0  0  0
   -6.5454    2.0777   -1.5621 C   0  0  0  0  0  0  0  0  0  0  0  0
   -5.3253    1.7567   -0.9541 C   0  0  0  0  0  0  0  0  0  0  0  0
   -3.2024   -1.2036   -0.4511 N   0  0  0  0  0  0  0  0  0  0  0  0
   -1.9754   -1.2071    0.0713 C   0  0  0  0  0  0  0  0  0  0  0  0
   -1.0199   -2.3066    0.0238 C   0  0  0  0  0  0  0  0  0  0  0  0
   -1.2269   -3.3621   -0.5688 O   0  0  0  0  0  0  0  0  0  0  0  0
    5.5166   -1.3297   -0.4344 C   0  0  0  0  0  0  0  0  0  0  0  0
    6.5767   -0.7561    0.2705 C   0  0  0  0  0  0  0  0  0  0  0  0
    7.9917    2.9831    0.3667 H   0  0  0  0  0  0  0  0  0  0  0  0
    7.0431    2.8588    1.8999 H   0  0  0  0  0  0  0  0  0  0  0  0
    8.7970    2.6342    1.9013 H   0  0  0  0  0  0  0  0  0  0  0  0
    5.7121    2.5202   -0.0540 H   0  0  0  0  0  0  0  0  0  0  0  0
    3.8606    1.5182   -1.2833 H   0  0  0  0  0  0  0  0  0  0  0  0
    2.9193   -0.4129   -2.4280 H   0  0  0  0  0  0  0  0  0  0  0  0
    3.7151   -1.9862   -2.3573 H   0  0  0  0  0  0  0  0  0  0  0  0
    1.9023   -0.8565   -0.2378 H   0  0  0  0  0  0  0  0  0  0  0  0
    0.7487   -4.0432    0.6185 H   0  0  0  0  0  0  0  0  0  0  0  0
    1.3370   -3.1931    2.9239 H   0  0  0  0  0  0  0  0  0  0  0  0
    2.5827   -2.1542    2.2068 H   0  0  0  0  0  0  0  0  0  0  0  0
    2.7241   -3.9061    2.0764 H   0  0  0  0  0  0  0  0  0  0  0  0
   -0.2762    2.3137    1.4176 H   0  0  0  0  0  0  0  0  0  0  0  0
   -0.5516    1.5327    3.0036 H   0  0  0  0  0  0  0  0  0  0  0  0
    1.0526    1.4763    2.2452 H   0  0  0  0  0  0  0  0  0  0  0  0
   -2.6727    2.1241    2.2744 H   0  0  0  0  0  0  0  0  0  0  0  0
   -2.8852    2.8932    0.6959 H   0  0  0  0  0  0  0  0  0  0  0  0
   -4.2503    2.1017    1.5405 H   0  0  0  0  0  0  0  0  0  0  0  0
   -5.4659   -1.6302   -1.3079 H   0  0  0  0  0  0  0  0  0  0  0  0
   -7.5876   -1.0549   -2.3712 H   0  0  0  0  0  0  0  0  0  0  0  0
   -8.4986    1.6269   -3.7951 H   0  0  0  0  0  0  0  0  0  0  0  0
   -9.4000    0.6109   -2.6447 H   0  0  0  0  0  0  0  0  0  0  0  0
   -9.1256    2.3131   -2.2756 H   0  0  0  0  0  0  0  0  0  0  0  0
   -6.8314    3.1232   -1.6581 H   0  0  0  0  0  0  0  0  0  0  0  0
   -4.7003    2.5837   -0.6418 H   0  0  0  0  0  0  0  0  0  0  0  0
    5.4611   -2.4128   -0.5274 H   0  0  0  0  0  0  0  0  0  0  0  0
    7.3371   -1.3960    0.7117 H   0  0  0  0  0  0  0  0  0  0  0  0
  1  2  1  0
  2  3  1  0
  3  4  2  0
  4  5  1  0
  5  6  2  0
  6  7  1  0
  7  8  1  0
  8  9  1  0
  9 10  2  0
  9 11  1  0
 11 12  1  0
 11 13  1  0
 13 14  1  0
 14 15  2  0
 15 16  1  0
 15 17  1  0
 17 18  2  0
 18 19  1  0
 18 20  1  0
 20 21  1  0
 21 22  2  0
 22 23  1  0
 23 24  2  0
 24 25  1  0
 24 26  1  0
 26 27  2  0
 20 28  1  0
 28 29  2  0
 29 30  1  0
 30 31  2  0
  6 32  1  0
 32 33  2  0
 33  3  1  0
 30 13  1  0
 29 17  1  0
 27 21  1  0
  1 34  1  0
  1 35  1  0
  1 36  1  0
  4 37  1  0
  5 38  1  0
  7 39  1  0
  7 40  1  0
  8 41  1  0
 11 42  1  0
 12 43  1  0
 12 44  1  0
 12 45  1  0
 16 46  1  0
 16 47  1  0
 16 48  1  0
 19 49  1  0
 19 50  1  0
 19 51  1  0
 22 52  1  0
 23 53  1  0
 25 54  1  0
 25 55  1  0
 25 56  1  0
 26 57  1  0
 27 58  1  0
 32 59  1  0
 33 60  1  0
M  END
$$$$
