
     RDKit          3D

 29 30  0  0  0  0  0  0  0  0999 V2000
    3.4595   -1.3302   -1.3879 C   0  0  0  0  0  0  0  0  0  0  0  0
    3.1723   -1.0138    0.0687 C   0  0  0  0  0  0  0  0  0  0  0  0
    2.7931    0.3942    0.1835 N   0  0  0  0  0  0  0  0  0  0  0  0
    2.0059    0.8993    1.5804 S   0  0  0  0  0  6  0  0  0  0  0  0
    2.4712    0.0787    2.6766 O   0  0  0  0  0  0  0  0  0  0  0  0
    2.1167    2.3407    1.6067 O   0  0  0  0  0  0  0  0  0  0  0  0
    0.3203    0.4889    1.2194 C   0  0  0  0  0  0  0  0  0  0  0  0
   -0.2983   -0.5792    1.8964 C   0  0  0  0  0  0  0  0  0  0  0  0
   -1.6338   -0.8903    1.6359 C   0  0  0  0  0  0  0  0  0  0  0  0
   -2.3063   -0.1292    0.6943 C   0  0  0  0  0  0  0  0  0  0  0  0
   -1.6855    0.9218    0.0152 C   0  0  0  0  0  0  0  0  0  0  0  0
   -0.3762    1.2644    0.2848 C   0  0  0  0  0  0  0  0  0  0  0  0
   -2.5682    1.6229   -0.8398 N   0  0  0  0  0  0  0  0  0  0  0  0
   -3.6966    0.6865   -0.9852 C   0  0  0  0  0  0  0  0  0  0  0  0
   -3.7326   -0.2077    0.2682 C   0  0  0  0  0  0  0  0  0  0  0  0
    3.7492   -2.3794   -1.5008 H   0  0  0  0  0  0  0  0  0  0  0  0
    4.2733   -0.7068   -1.7733 H   0  0  0  0  0  0  0  0  0  0  0  0
    2.5764   -1.1489   -2.0099 H   0  0  0  0  0  0  0  0  0  0  0  0
    2.3672   -1.6636    0.4249 H   0  0  0  0  0  0  0  0  0  0  0  0
    4.0696   -1.1991    0.6675 H   0  0  0  0  0  0  0  0  0  0  0  0
    3.4339    1.1030   -0.1713 H   0  0  0  0  0  0  0  0  0  0  0  0
    0.2519   -1.1569    2.6364 H   0  0  0  0  0  0  0  0  0  0  0  0
   -2.1304   -1.6959    2.1671 H   0  0  0  0  0  0  0  0  0  0  0  0
    0.0924    2.1116   -0.2044 H   0  0  0  0  0  0  0  0  0  0  0  0
   -2.1162    1.8925   -1.7096 H   0  0  0  0  0  0  0  0  0  0  0  0
   -4.6384    1.2286   -1.1179 H   0  0  0  0  0  0  0  0  0  0  0  0
   -3.5369    0.0720   -1.8814 H   0  0  0  0  0  0  0  0  0  0  0  0
   -4.0530   -1.2248    0.0273 H   0  0  0  0  0  0  0  0  0  0  0  0
   -4.3808    0.2206    1.0396 H   0  0  0  0  0  0  0  0  0  0  0  0
  1  2  1  0
  2  3  1  0
  3  4  1  0
  4  5  2  0
  4  6  2  0
  4  7  1  0
  7  8  2  0
  8  9  1  0
  9 10  2  0
 10 11  1  0
 11 12  2  0
 11 13  1  0
 13 14  1  0
 14 15  1  0
 12  7  1  0
 15 10  1  0
  1 16  1  0
  1 17  1  0
  1 18  1  0
  2 19  1  0
  2 20  1  0
  3 21  1  0
  8 22  1  0
  9 23  1  0
 12 24  1  0
 13 25  1  0
 14 26  1  0
 14 27  1  0
 15 28  1  0
 15 29  1  0
M  END
$$$$
