
     RDKit          3D

 58 61  0  0  0  0  0  0  0  0999 V2000
   -3.6983    6.3893    0.9338 C   0  0  0  0  0  0  0  0  0  0  0  0
   -2.8045    5.2835    0.9417 O   0  0  0  0  0  0  0  0  0  0  0  0
   -3.3618    4.0357    1.0096 C   0  0  0  0  0  0  0  0  0  0  0  0
   -4.7186    3.7495    1.0707 C   0  0  0  0  0  0  0  0  0  0  0  0
   -5.1655    2.4250    1.1396 C   0  0  0  0  0  0  0  0  0  0  0  0
   -4.2231    1.3787    1.1441 C   0  0  0  0  0  0  0  0  0  0  0  0
   -4.5534   -0.3043    1.2270 S   0  0  0  0  0  0  0  0  0  0  0  0
   -2.8956   -0.7227    1.1734 C   0  0  0  0  0  0  0  0  0  0  0  0
   -2.5358   -2.1487    1.2013 C   0  0  0  0  0  0  0  0  0  0  0  0
   -2.6761   -2.8636    2.4034 C   0  0  0  0  0  0  0  0  0  0  0  0
   -2.3218   -4.2104    2.4762 C   0  0  0  0  0  0  0  0  0  0  0  0
   -1.8270   -4.8577    1.3480 C   0  0  0  0  0  0  0  0  0  0  0  0
   -1.6810   -4.1607    0.1461 C   0  0  0  0  0  0  0  0  0  0  0  0
   -2.0208   -2.8045    0.0657 C   0  0  0  0  0  0  0  0  0  0  0  0
   -1.9281   -2.0736   -1.0931 O   0  0  0  0  0  0  0  0  0  0  0  0
   -0.9132   -2.4790   -2.0036 C   0  0  0  0  0  0  0  0  0  0  0  0
   -2.0877    0.4015    1.0955 C   0  0  0  0  0  0  0  0  0  0  0  0
   -0.6334    0.2995    1.0236 C   0  0  0  0  0  0  0  0  0  0  0  0
    0.1063   -0.1479    2.1207 C   0  0  0  0  0  0  0  0  0  0  0  0
    1.4972   -0.2447    2.0314 C   0  0  0  0  0  0  0  0  0  0  0  0
    2.1659    0.1076    0.8552 C   0  0  0  0  0  0  0  0  0  0  0  0
    3.5229   -0.0477    0.9093 O   0  0  0  0  0  0  0  0  0  0  0  0
    4.3065    0.3676   -0.2139 C   0  0  0  0  0  0  0  0  0  0  0  0
    4.4399   -0.7728   -1.2387 C   0  0  0  0  0  0  0  0  0  0  0  0
    5.1192   -0.3836   -2.4902 N   0  0  0  0  0  0  0  0  0  0  0  0
    5.0121   -1.4667   -3.4722 C   0  0  0  0  0  0  0  0  0  0  0  0
    6.5300   -0.0593   -2.2673 C   0  0  0  0  0  0  0  0  0  0  0  0
    1.4267    0.5584   -0.2385 C   0  0  0  0  0  0  0  0  0  0  0  0
    0.0332    0.6568   -0.1532 C   0  0  0  0  0  0  0  0  0  0  0  0
   -2.8523    1.6299    1.0787 C   0  0  0  0  0  0  0  0  0  0  0  0
   -2.4355    2.9859    1.0152 C   0  0  0  0  0  0  0  0  0  0  0  0
   -4.3505    6.3636    0.0545 H   0  0  0  0  0  0  0  0  0  0  0  0
   -4.2823    6.4316    1.8591 H   0  0  0  0  0  0  0  0  0  0  0  0
   -3.0990    7.3031    0.8767 H   0  0  0  0  0  0  0  0  0  0  0  0
   -5.4688    4.5335    1.0682 H   0  0  0  0  0  0  0  0  0  0  0  0
   -6.2291    2.2080    1.1887 H   0  0  0  0  0  0  0  0  0  0  0  0
   -3.0604   -2.3673    3.2919 H   0  0  0  0  0  0  0  0  0  0  0  0
   -2.4361   -4.7528    3.4111 H   0  0  0  0  0  0  0  0  0  0  0  0
   -1.5601   -5.9103    1.3998 H   0  0  0  0  0  0  0  0  0  0  0  0
   -1.3161   -4.7041   -0.7192 H   0  0  0  0  0  0  0  0  0  0  0  0
    0.0434   -2.6486   -1.4971 H   0  0  0  0  0  0  0  0  0  0  0  0
   -0.7686   -1.6682   -2.7242 H   0  0  0  0  0  0  0  0  0  0  0  0
   -1.2261   -3.3669   -2.5616 H   0  0  0  0  0  0  0  0  0  0  0  0
   -0.3901   -0.4249    3.0470 H   0  0  0  0  0  0  0  0  0  0  0  0
    2.0652   -0.5982    2.8884 H   0  0  0  0  0  0  0  0  0  0  0  0
    5.2962    0.6082    0.1901 H   0  0  0  0  0  0  0  0  0  0  0  0
    3.9311    1.2969   -0.6578 H   0  0  0  0  0  0  0  0  0  0  0  0
    3.4310   -1.1302   -1.4801 H   0  0  0  0  0  0  0  0  0  0  0  0
    4.9434   -1.6263   -0.7643 H   0  0  0  0  0  0  0  0  0  0  0  0
    5.4757   -1.1740   -4.4211 H   0  0  0  0  0  0  0  0  0  0  0  0
    5.4899   -2.3896   -3.1239 H   0  0  0  0  0  0  0  0  0  0  0  0
    3.9611   -1.6834   -3.6941 H   0  0  0  0  0  0  0  0  0  0  0  0
    7.0786   -0.8912   -1.8112 H   0  0  0  0  0  0  0  0  0  0  0  0
    7.0199    0.1957   -3.2142 H   0  0  0  0  0  0  0  0  0  0  0  0
    6.6364    0.8218   -1.6267 H   0  0  0  0  0  0  0  0  0  0  0  0
    1.8943    0.8338   -1.1778 H   0  0  0  0  0  0  0  0  0  0  0  0
   -0.5317    1.0005   -1.0173 H   0  0  0  0  0  0  0  0  0  0  0  0
   -1.3736    3.2181    0.9723 H   0  0  0  0  0  0  0  0  0  0  0  0
  1  2  1  0
  2  3  1  0
  3  4  2  0
  4  5  1  0
  5  6  2  0
  6  7  1  0
  7  8  1  0
  8  9  1  0
  9 10  2  0
 10 11  1  0
 11 12  2  0
 12 13  1  0
 13 14  2  0
 14 15  1  0
 15 16  1  0
  8 17  2  0
 17 18  1  0
 18 19  2  0
 19 20  1  0
 20 21  2  0
 21 22  1  0
 22 23  1  0
 23 24  1  0
 24 25  1  0
 25 26  1  0
 25 27  1  0
 21 28  1  0
 28 29  2  0
 17 30  1  0
 30 31  2  0
 31  3  1  0
 30  6  1  0
 14  9  1  0
 29 18  1  0
  1 32  1  0
  1 33  1  0
  1 34  1  0
  4 35  1  0
  5 36  1  0
 10 37  1  0
 11 38  1  0
 12 39  1  0
 13 40  1  0
 16 41  1  0
 16 42  1  0
 16 43  1  0
 19 44  1  0
 20 45  1  0
 23 46  1  0
 23 47  1  0
 24 48  1  0
 24 49  1  0
 26 50  1  0
 26 51  1  0
 26 52  1  0
 27 53  1  0
 27 54  1  0
 27 55  1  0
 28 56  1  0
 29 57  1  0
 31 58  1  0
M  END
$$$$
