
     RDKit          3D

 61 66  0  0  0  0  0  0  0  0999 V2000
   -4.1003   -2.8034   -0.5903 C   0  0  0  0  0  0  0  0  0  0  0  0
   -3.3079   -1.9329    0.3932 C   0  0  0  0  0  0  0  0  0  0  0  0
   -3.6084   -2.3576    1.8368 C   0  0  0  0  0  0  0  0  0  0  0  0
   -3.5829   -0.4512    0.1470 C   0  0  0  0  0  0  0  0  0  0  0  0
   -4.8610    0.0639    0.4437 C   0  0  0  0  0  0  0  0  0  0  0  0
   -5.2053    1.3864    0.1510 C   0  0  0  0  0  0  0  0  0  0  0  0
   -4.2833    2.2305   -0.4578 C   0  0  0  0  0  0  0  0  0  0  0  0
   -3.0122    1.7567   -0.7679 C   0  0  0  0  0  0  0  0  0  0  0  0
   -2.6574    0.4313   -0.4562 C   0  0  0  0  0  0  0  0  0  0  0  0
   -1.3405    0.0258   -0.7870 N   0  0  0  0  0  0  0  0  0  0  0  0
   -0.3116   -0.2836    0.0841 C   0  0  0  0  0  0  0  0  0  0  0  0
   -0.4334   -0.2126    1.8144 S   0  0  0  0  0  0  0  0  0  0  0  0
    1.3238   -0.2504    2.3017 C   0  0  0  0  0  0  0  0  0  0  0  0
    2.1080    1.0035    1.9728 C   0  0  0  0  0  0  0  0  0  0  0  0
    1.5409    2.2233    1.9990 C   0  0  0  0  0  0  0  0  0  0  0  0
    2.1677    3.4227    1.4348 C   0  0  0  0  0  0  0  0  0  0  0  0
    1.6773    4.5319    1.6086 O   0  0  0  0  0  0  0  0  0  0  0  0
    3.2608    3.2045    0.6274 O   0  0  0  0  0  0  0  0  0  0  0  0
    3.9696    1.9892    0.7186 C   0  0  0  0  0  0  0  0  0  0  0  0
    5.1804    1.9742    0.0357 C   0  0  0  0  0  0  0  0  0  0  0  0
    6.0064    0.8684    0.1533 C   0  0  0  0  0  0  0  0  0  0  0  0
    5.6645   -0.1896    1.0027 C   0  0  0  0  0  0  0  0  0  0  0  0
    6.5720   -1.2528    1.1486 C   0  0  0  0  0  0  0  0  0  0  0  0
    6.3225   -2.2988    2.0301 C   0  0  0  0  0  0  0  0  0  0  0  0
    5.1686   -2.2809    2.7950 C   0  0  0  0  0  0  0  0  0  0  0  0
    4.2522   -1.2339    2.6496 C   0  0  0  0  0  0  0  0  0  0  0  0
    4.4336   -0.1742    1.7211 C   0  0  0  0  0  0  0  0  0  0  0  0
    3.5178    0.9089    1.4949 C   0  0  0  0  0  0  0  0  0  0  0  0
    0.7906   -0.5240   -0.5838 N   0  0  0  0  0  0  0  0  0  0  0  0
    0.5316   -0.3004   -1.9076 N   0  0  0  0  0  0  0  0  0  0  0  0
   -0.7388    0.0442   -2.0443 C   0  0  0  0  0  0  0  0  0  0  0  0
   -1.3626    0.3704   -3.3267 C   0  0  0  0  0  0  0  0  0  0  0  0
   -2.6544   -0.0237   -3.6823 C   0  0  0  0  0  0  0  0  0  0  0  0
   -3.1750    0.3272   -4.9273 C   0  0  0  0  0  0  0  0  0  0  0  0
   -2.3806    1.0598   -5.7902 C   0  0  0  0  0  0  0  0  0  0  0  0
   -1.1218    1.4469   -5.4974 N   0  0  0  0  0  0  0  0  0  0  0  0
   -0.6417    1.0842   -4.2816 C   0  0  0  0  0  0  0  0  0  0  0  0
   -3.8822   -2.5259   -1.6287 H   0  0  0  0  0  0  0  0  0  0  0  0
   -3.8381   -3.8606   -0.4655 H   0  0  0  0  0  0  0  0  0  0  0  0
   -5.1829   -2.7085   -0.4391 H   0  0  0  0  0  0  0  0  0  0  0  0
   -2.2507   -2.1539    0.2156 H   0  0  0  0  0  0  0  0  0  0  0  0
   -3.2693   -3.3858    2.0078 H   0  0  0  0  0  0  0  0  0  0  0  0
   -3.0971   -1.7111    2.5584 H   0  0  0  0  0  0  0  0  0  0  0  0
   -4.6808   -2.3259    2.0640 H   0  0  0  0  0  0  0  0  0  0  0  0
   -5.6215   -0.5716    0.8953 H   0  0  0  0  0  0  0  0  0  0  0  0
   -6.1997    1.7527    0.3942 H   0  0  0  0  0  0  0  0  0  0  0  0
   -4.5538    3.2584   -0.6878 H   0  0  0  0  0  0  0  0  0  0  0  0
   -2.3013    2.4398   -1.2305 H   0  0  0  0  0  0  0  0  0  0  0  0
    1.7431   -1.1323    1.8101 H   0  0  0  0  0  0  0  0  0  0  0  0
    1.3518   -0.4170    3.3837 H   0  0  0  0  0  0  0  0  0  0  0  0
    0.5352    2.3965    2.3648 H   0  0  0  0  0  0  0  0  0  0  0  0
    5.4783    2.8214   -0.5766 H   0  0  0  0  0  0  0  0  0  0  0  0
    6.9469    0.8613   -0.3929 H   0  0  0  0  0  0  0  0  0  0  0  0
    7.5000   -1.2680    0.5798 H   0  0  0  0  0  0  0  0  0  0  0  0
    7.0389   -3.1101    2.1334 H   0  0  0  0  0  0  0  0  0  0  0  0
    4.9801   -3.0742    3.5150 H   0  0  0  0  0  0  0  0  0  0  0  0
    3.4018   -1.2510    3.3215 H   0  0  0  0  0  0  0  0  0  0  0  0
   -3.2710   -0.6111   -3.0099 H   0  0  0  0  0  0  0  0  0  0  0  0
   -4.1770    0.0296   -5.2160 H   0  0  0  0  0  0  0  0  0  0  0  0
   -2.7405    1.3587   -6.7714 H   0  0  0  0  0  0  0  0  0  0  0  0
    0.3804    1.4046   -4.0892 H   0  0  0  0  0  0  0  0  0  0  0  0
  1  2  1  0
  2  3  1  0
  2  4  1  0
  4  5  2  0
  5  6  1  0
  6  7  2  0
  7  8  1  0
  8  9  2  0
  9 10  1  0
 10 11  1  0
 11 12  1  0
 12 13  1  0
 13 14  1  0
 14 15  2  0
 15 16  1  0
 16 17  2  0
 16 18  1  0
 18 19  1  0
 19 20  2  0
 20 21  1  0
 21 22  2  0
 22 23  1  0
 23 24  2  0
 24 25  1  0
 25 26  2  0
 26 27  1  0
 27 28  2  0
 11 29  2  0
 29 30  1  0
 30 31  2  0
 31 32  1  0
 32 33  2  0
 33 34  1  0
 34 35  2  0
 35 36  1  0
 36 37  2  0
  9  4  1  0
 31 10  1  0
 37 32  1  0
 28 14  1  0
 28 19  1  0
 27 22  1  0
  1 38  1  0
  1 39  1  0
  1 40  1  0
  2 41  1  0
  3 42  1  0
  3 43  1  0
  3 44  1  0
  5 45  1  0
  6 46  1  0
  7 47  1  0
  8 48  1  0
 13 49  1  0
 13 50  1  0
 15 51  1  0
 20 52  1  0
 21 53  1  0
 23 54  1  0
 24 55  1  0
 25 56  1  0
 26 57  1  0
 33 58  1  0
 34 59  1  0
 35 60  1  0
 37 61  1  0
M  END
$$$$
