
     RDKit          3D

 21 21  0  0  0  0  0  0  0  0999 V2000
    3.0784   -0.2828   -0.3755 C   0  0  0  0  0  0  0  0  0  0  0  0
    1.6038   -0.0166   -0.2405 C   0  0  0  0  0  0  0  0  0  0  0  0
    1.1141    1.2506   -0.5687 C   0  0  0  0  0  0  0  0  0  0  0  0
   -0.2396    1.5161   -0.4354 C   0  0  0  0  0  0  0  0  0  0  0  0
   -0.7013    2.7362   -0.8533 O   0  0  0  0  0  0  0  0  0  0  0  0
   -1.1452    0.5723    0.0756 C   0  0  0  0  0  0  0  0  0  0  0  0
   -2.5067    0.9487    0.1786 N   0  0  0  0  0  0  0  0  0  0  0  0
   -0.6963   -0.7441    0.2920 C   0  0  0  0  0  0  0  0  0  0  0  0
   -1.6586   -1.8273    0.7108 C   0  0  0  0  0  0  0  0  0  0  0  0
    0.6928   -1.0111    0.1784 C   0  0  0  0  0  0  0  0  0  0  0  0
    1.3087   -2.5906    0.5735 Cl  0  0  0  0  0  0  0  0  0  0  0  0
    3.6211    0.6154   -0.6898 H   0  0  0  0  0  0  0  0  0  0  0  0
    3.2595   -1.0555   -1.1294 H   0  0  0  0  0  0  0  0  0  0  0  0
    3.5011   -0.5962    0.5845 H   0  0  0  0  0  0  0  0  0  0  0  0
    1.7738    2.0291   -0.9425 H   0  0  0  0  0  0  0  0  0  0  0  0
   -1.6294    2.5675   -1.1051 H   0  0  0  0  0  0  0  0  0  0  0  0
   -2.5901    1.9010    0.5344 H   0  0  0  0  0  0  0  0  0  0  0  0
   -3.0417    0.3265    0.7782 H   0  0  0  0  0  0  0  0  0  0  0  0
   -2.6620   -1.6577    0.3081 H   0  0  0  0  0  0  0  0  0  0  0  0
   -1.7175   -1.8740    1.8024 H   0  0  0  0  0  0  0  0  0  0  0  0
   -1.3650   -2.8076    0.3237 H   0  0  0  0  0  0  0  0  0  0  0  0
  1  2  1  0
  2  3  2  0
  3  4  1  0
  4  5  1  0
  4  6  2  0
  6  7  1  0
  6  8  1  0
  8  9  1  0
  8 10  2  0
 10 11  1  0
 10  2  1  0
  1 12  1  0
  1 13  1  0
  1 14  1  0
  3 15  1  0
  5 16  1  0
  7 17  1  0
  7 18  1  0
  9 19  1  0
  9 20  1  0
  9 21  1  0
M  END
$$$$
