
     RDKit          3D

 34 36  0  0  0  0  0  0  0  0999 V2000
    5.2175    0.5109   -1.8658 C   0  0  0  0  0  0  0  0  0  0  0  0
    4.6287    0.6207   -0.5526 N   0  0  0  0  0  0  0  0  0  0  0  0
    5.2728    0.9067    0.6108 C   0  0  0  0  0  0  0  0  0  0  0  0
    4.2983    0.9061    1.5756 C   0  0  0  0  0  0  0  0  0  0  0  0
    4.5665    1.2418    3.3969 Br  0  0  0  0  0  0  0  0  0  0  0  0
    3.0808    0.6091    0.9171 C   0  0  0  0  0  0  0  0  0  0  0  0
    1.7159    0.4850    1.4716 C   0  0  0  0  0  0  0  0  0  0  0  0
    1.4908    0.6174    2.6684 O   0  0  0  0  0  0  0  0  0  0  0  0
    0.7951    0.2054    0.4772 N   0  0  0  0  0  0  0  0  0  0  0  0
   -0.5743    0.0359    0.5895 C   0  0  0  0  0  0  0  0  0  0  0  0
   -1.3577    0.2024    2.1042 S   0  0  0  0  0  0  0  0  0  0  0  0
   -2.8408   -0.0817    1.4051 C   0  0  0  0  0  0  0  0  0  0  0  0
   -2.7912   -0.3293    0.0611 C   0  0  0  0  0  0  0  0  0  0  0  0
   -1.4579   -0.2698   -0.4536 C   0  0  0  0  0  0  0  0  0  0  0  0
   -1.0015   -0.4499   -1.8301 C   0  0  0  0  0  0  0  0  0  0  0  0
   -1.8632   -1.0720   -2.6871 N   0  0  0  0  0  0  0  0  0  0  0  0
    0.1108   -0.1127   -2.2260 O   0  0  0  0  0  0  0  0  0  0  0  0
   -4.1655   -0.5311   -0.4742 C   0  0  0  0  0  0  0  0  0  0  0  0
   -5.0202   -0.7015    0.8207 C   0  0  0  0  0  0  0  0  0  0  0  0
   -4.2016   -0.0797    1.9872 C   0  0  0  0  0  0  0  0  0  0  0  0
    3.3052    0.4292   -0.4069 N   0  0  0  0  0  0  0  0  0  0  0  0
    5.0348   -0.4990   -2.2416 H   0  0  0  0  0  0  0  0  0  0  0  0
    6.2924    0.6960   -1.7993 H   0  0  0  0  0  0  0  0  0  0  0  0
    4.7499    1.2545   -2.5159 H   0  0  0  0  0  0  0  0  0  0  0  0
    6.3379    1.0840    0.6564 H   0  0  0  0  0  0  0  0  0  0  0  0
    1.1923    0.1377   -0.4644 H   0  0  0  0  0  0  0  0  0  0  0  0
   -2.5982   -1.6603   -2.3290 H   0  0  0  0  0  0  0  0  0  0  0  0
   -1.4662   -1.3248   -3.5821 H   0  0  0  0  0  0  0  0  0  0  0  0
   -4.2633   -1.4176   -1.1045 H   0  0  0  0  0  0  0  0  0  0  0  0
   -4.4902    0.3522   -1.0341 H   0  0  0  0  0  0  0  0  0  0  0  0
   -5.1614   -1.7731    1.0153 H   0  0  0  0  0  0  0  0  0  0  0  0
   -6.0140   -0.2535    0.7236 H   0  0  0  0  0  0  0  0  0  0  0  0
   -4.2855   -0.6814    2.8963 H   0  0  0  0  0  0  0  0  0  0  0  0
   -4.5373    0.9424    2.1902 H   0  0  0  0  0  0  0  0  0  0  0  0
  1  2  1  0
  2  3  1  0
  3  4  2  0
  4  5  1  0
  4  6  1  0
  6  7  1  0
  7  8  2  0
  7  9  1  0
  9 10  1  0
 10 11  1  0
 11 12  1  0
 12 13  2  0
 13 14  1  0
 14 15  1  0
 15 16  1  0
 15 17  2  0
 13 18  1  0
 18 19  1  0
 19 20  1  0
  6 21  2  0
 21  2  1  0
 14 10  2  0
 20 12  1  0
  1 22  1  0
  1 23  1  0
  1 24  1  0
  3 25  1  0
  9 26  1  0
 16 27  1  0
 16 28  1  0
 18 29  1  0
 18 30  1  0
 19 31  1  0
 19 32  1  0
 20 33  1  0
 20 34  1  0
M  END
$$$$
