
     RDKit          3D

 45 47  0  0  0  0  0  0  0  0999 V2000
   -7.9002   -1.4629   -0.8900 C   0  0  0  0  0  0  0  0  0  0  0  0
   -6.3859   -1.5083   -0.9882 C   0  0  0  0  0  0  0  0  0  0  0  0
   -5.8518   -0.8449    0.1537 O   0  0  0  0  0  0  0  0  0  0  0  0
   -4.4866   -0.7470    0.2592 C   0  0  0  0  0  0  0  0  0  0  0  0
   -3.5818   -1.2875   -0.6594 C   0  0  0  0  0  0  0  0  0  0  0  0
   -2.2056   -1.1381   -0.4680 C   0  0  0  0  0  0  0  0  0  0  0  0
   -1.7181   -0.4401    0.6390 C   0  0  0  0  0  0  0  0  0  0  0  0
   -0.2769   -0.2868    0.8661 C   0  0  0  0  0  0  0  0  0  0  0  0
    0.5772    0.3900    0.0863 C   0  0  0  0  0  0  0  0  0  0  0  0
    0.2324    1.2679   -1.3590 S   0  0  0  0  0  0  0  0  0  0  0  0
    1.9120    1.7482   -1.5925 C   0  0  0  0  0  0  0  0  0  0  0  0
    2.4248    2.7188   -2.8484 S   0  0  0  0  0  0  0  0  0  0  0  0
    2.6633    1.2230   -0.5617 N   0  0  0  0  0  0  0  0  0  0  0  0
    4.0642    1.3570   -0.5013 N   0  0  0  0  0  0  0  0  0  0  0  0
    4.7951    0.3375   -1.0900 C   0  0  0  0  0  0  0  0  0  0  0  0
    4.2960   -0.5374   -1.7908 O   0  0  0  0  0  0  0  0  0  0  0  0
    6.2507    0.3225   -0.7945 C   0  0  0  0  0  0  0  0  0  0  0  0
    6.9545    1.4877   -0.4871 C   0  0  0  0  0  0  0  0  0  0  0  0
    8.3096    1.3733   -0.2322 C   0  0  0  0  0  0  0  0  0  0  0  0
    8.9823    0.2039   -0.2646 N   0  0  0  0  0  0  0  0  0  0  0  0
    8.2795   -0.9040   -0.5835 C   0  0  0  0  0  0  0  0  0  0  0  0
    6.9254   -0.8968   -0.8583 C   0  0  0  0  0  0  0  0  0  0  0  0
    2.0239    0.4897    0.4218 C   0  0  0  0  0  0  0  0  0  0  0  0
    2.5408    0.0297    1.4317 O   0  0  0  0  0  0  0  0  0  0  0  0
   -2.6198    0.0923    1.5689 C   0  0  0  0  0  0  0  0  0  0  0  0
   -4.0011   -0.0523    1.3858 C   0  0  0  0  0  0  0  0  0  0  0  0
   -4.9532    0.4420    2.2436 O   0  0  0  0  0  0  0  0  0  0  0  0
   -4.5082    1.1646    3.3818 C   0  0  0  0  0  0  0  0  0  0  0  0
   -8.2419   -1.9483    0.0302 H   0  0  0  0  0  0  0  0  0  0  0  0
   -8.2532   -0.4269   -0.8540 H   0  0  0  0  0  0  0  0  0  0  0  0
   -8.3615   -1.9636   -1.7457 H   0  0  0  0  0  0  0  0  0  0  0  0
   -6.0610   -2.5549   -1.0062 H   0  0  0  0  0  0  0  0  0  0  0  0
   -6.0723   -0.9991   -1.9068 H   0  0  0  0  0  0  0  0  0  0  0  0
   -3.9133   -1.8345   -1.5354 H   0  0  0  0  0  0  0  0  0  0  0  0
   -1.5225   -1.5758   -1.1930 H   0  0  0  0  0  0  0  0  0  0  0  0
    0.0894   -0.7714    1.7707 H   0  0  0  0  0  0  0  0  0  0  0  0
    4.4109    1.7643    0.3616 H   0  0  0  0  0  0  0  0  0  0  0  0
    6.4879    2.4654   -0.4722 H   0  0  0  0  0  0  0  0  0  0  0  0
    8.9131    2.2454    0.0058 H   0  0  0  0  0  0  0  0  0  0  0  0
    8.8537   -1.8259   -0.6141 H   0  0  0  0  0  0  0  0  0  0  0  0
    6.4099   -1.8172   -1.1132 H   0  0  0  0  0  0  0  0  0  0  0  0
   -2.2232    0.6208    2.4296 H   0  0  0  0  0  0  0  0  0  0  0  0
   -3.9539    2.0623    3.0888 H   0  0  0  0  0  0  0  0  0  0  0  0
   -5.3925    1.4883    3.9394 H   0  0  0  0  0  0  0  0  0  0  0  0
   -3.9122    0.5293    4.0450 H   0  0  0  0  0  0  0  0  0  0  0  0
  1  2  1  0
  2  3  1  0
  3  4  1  0
  4  5  2  0
  5  6  1  0
  6  7  2  0
  7  8  1  0
  8  9  2  3
  9 10  1  0
 10 11  1  0
 11 12  2  0
 11 13  1  0
 13 14  1  0
 14 15  1  0
 15 16  2  0
 15 17  1  0
 17 18  2  0
 18 19  1  0
 19 20  2  0
 20 21  1  0
 21 22  2  0
 13 23  1  0
 23 24  2  0
  7 25  1  0
 25 26  2  0
 26 27  1  0
 27 28  1  0
 26  4  1  0
 23  9  1  0
 22 17  1  0
  1 29  1  0
  1 30  1  0
  1 31  1  0
  2 32  1  0
  2 33  1  0
  5 34  1  0
  6 35  1  0
  8 36  1  0
 14 37  1  0
 18 38  1  0
 19 39  1  0
 21 40  1  0
 22 41  1  0
 25 42  1  0
 28 43  1  0
 28 44  1  0
 28 45  1  0
M  END
$$$$
