
     RDKit          3D

 52 56  0  0  0  0  0  0  0  0999 V2000
   -0.0500    0.3686    2.3836 O   0  0  0  0  0  0  0  0  0  0  0  0
    0.5788   -0.6467    2.0916 C   0  0  0  0  0  0  0  0  0  0  0  0
   -0.0764   -2.0119    2.2393 C   0  0  0  0  0  0  0  0  0  0  0  0
    0.0114   -3.0367    0.7431 S   0  0  0  0  0  0  0  0  0  0  0  0
   -0.3125   -1.8783   -0.5091 C   0  0  0  0  0  0  0  0  0  0  0  0
    0.6069   -1.4930   -1.3612 N   0  0  0  0  0  0  0  0  0  0  0  0
    0.0928   -0.4544   -2.0860 N   0  0  0  0  0  0  0  0  0  0  0  0
   -1.1431   -0.2288   -1.6768 C   0  0  0  0  0  0  0  0  0  0  0  0
   -2.0798    0.7406   -2.3231 C   0  0  0  0  0  0  0  0  0  0  0  0
   -3.2057    0.0757   -3.0689 C   0  0  0  0  0  0  0  0  0  0  0  0
   -4.5478    0.0338   -2.7407 C   0  0  0  0  0  0  0  0  0  0  0  0
   -5.3186   -0.6956   -3.6912 C   0  0  0  0  0  0  0  0  0  0  0  0
   -4.5441   -1.1761   -4.7222 C   0  0  0  0  0  0  0  0  0  0  0  0
   -2.8999   -0.7462   -4.5444 S   0  0  0  0  0  0  0  0  0  0  0  0
   -1.4550   -1.1119   -0.6501 N   0  0  0  0  0  0  0  0  0  0  0  0
   -2.6624   -1.2007    0.0819 C   0  0  0  0  0  0  0  0  0  0  0  0
   -3.2827   -2.4438    0.2558 C   0  0  0  0  0  0  0  0  0  0  0  0
   -4.4695   -2.5277    0.9848 C   0  0  0  0  0  0  0  0  0  0  0  0
   -5.0284   -1.3805    1.5474 C   0  0  0  0  0  0  0  0  0  0  0  0
   -4.4023   -0.1450    1.3853 C   0  0  0  0  0  0  0  0  0  0  0  0
   -3.2190   -0.0498    0.6516 C   0  0  0  0  0  0  0  0  0  0  0  0
    1.8896   -0.7006    1.6550 N   0  0  0  0  0  0  0  0  0  0  0  0
    2.7828    0.3770    1.4858 C   0  0  0  0  0  0  0  0  0  0  0  0
    2.5307    1.6755    1.9372 C   0  0  0  0  0  0  0  0  0  0  0  0
    3.4697    2.6932    1.7339 C   0  0  0  0  0  0  0  0  0  0  0  0
    4.6654    2.4177    1.0791 C   0  0  0  0  0  0  0  0  0  0  0  0
    4.9400    1.1162    0.6548 C   0  0  0  0  0  0  0  0  0  0  0  0
    3.9982    0.1043    0.8448 C   0  0  0  0  0  0  0  0  0  0  0  0
    6.1118    0.7583    0.0366 O   0  0  0  0  0  0  0  0  0  0  0  0
    7.1121    1.7729    0.1828 C   0  0  0  0  0  0  0  0  0  0  0  0
    6.5262    3.1499   -0.0821 C   0  0  0  0  0  0  0  0  0  0  0  0
    5.5271    3.4677    0.8936 O   0  0  0  0  0  0  0  0  0  0  0  0
    0.4140   -2.5429    3.0617 H   0  0  0  0  0  0  0  0  0  0  0  0
   -1.1249   -1.8734    2.5196 H   0  0  0  0  0  0  0  0  0  0  0  0
   -1.5105    1.3627   -3.0272 H   0  0  0  0  0  0  0  0  0  0  0  0
   -2.4784    1.4427   -1.5841 H   0  0  0  0  0  0  0  0  0  0  0  0
   -4.9636    0.4975   -1.8539 H   0  0  0  0  0  0  0  0  0  0  0  0
   -6.3873   -0.8579   -3.6230 H   0  0  0  0  0  0  0  0  0  0  0  0
   -4.8634   -1.7569   -5.5766 H   0  0  0  0  0  0  0  0  0  0  0  0
   -2.8814   -3.3487   -0.1959 H   0  0  0  0  0  0  0  0  0  0  0  0
   -4.9623   -3.4890    1.1110 H   0  0  0  0  0  0  0  0  0  0  0  0
   -5.9504   -1.4508    2.1198 H   0  0  0  0  0  0  0  0  0  0  0  0
   -4.8293    0.7435    1.8449 H   0  0  0  0  0  0  0  0  0  0  0  0
   -2.7220    0.9158    0.5889 H   0  0  0  0  0  0  0  0  0  0  0  0
    2.1914   -1.5884    1.2641 H   0  0  0  0  0  0  0  0  0  0  0  0
    1.6121    1.9319    2.4548 H   0  0  0  0  0  0  0  0  0  0  0  0
    3.2580    3.7015    2.0789 H   0  0  0  0  0  0  0  0  0  0  0  0
    4.2279   -0.8945    0.4841 H   0  0  0  0  0  0  0  0  0  0  0  0
    7.9107    1.5568   -0.5337 H   0  0  0  0  0  0  0  0  0  0  0  0
    7.5320    1.7036    1.1940 H   0  0  0  0  0  0  0  0  0  0  0  0
    6.0728    3.2097   -1.0793 H   0  0  0  0  0  0  0  0  0  0  0  0
    7.3081    3.9130   -0.0165 H   0  0  0  0  0  0  0  0  0  0  0  0
  1  2  2  0
  2  3  1  0
  3  4  1  0
  4  5  1  0
  5  6  2  0
  6  7  1  0
  7  8  2  0
  8  9  1  0
  9 10  1  0
 10 11  2  0
 11 12  1  0
 12 13  2  0
 13 14  1  0
  8 15  1  0
 15 16  1  0
 16 17  2  0
 17 18  1  0
 18 19  2  0
 19 20  1  0
 20 21  2  0
  2 22  1  0
 22 23  1  0
 23 24  2  0
 24 25  1  0
 25 26  2  0
 26 27  1  0
 27 28  2  0
 27 29  1  0
 29 30  1  0
 30 31  1  0
 31 32  1  0
 15  5  1  0
 21 16  1  0
 28 23  1  0
 14 10  1  0
 32 26  1  0
  3 33  1  0
  3 34  1  0
  9 35  1  0
  9 36  1  0
 11 37  1  0
 12 38  1  0
 13 39  1  0
 17 40  1  0
 18 41  1  0
 19 42  1  0
 20 43  1  0
 21 44  1  0
 22 45  1  0
 24 46  1  0
 25 47  1  0
 28 48  1  0
 30 49  1  0
 30 50  1  0
 31 51  1  0
 31 52  1  0
M  END
$$$$
