
     RDKit          3D

 59 62  0  0  0  0  0  0  0  0999 V2000
   -6.8464    1.5815   -1.3220 C   0  0  0  0  0  0  0  0  0  0  0  0
   -6.1520    0.7985   -0.2212 C   0  0  0  0  0  0  0  0  0  0  0  0
   -5.2238   -0.1891   -0.7502 N   0  0  0  0  0  0  0  0  0  0  0  0
   -5.5558   -1.4976   -1.0464 C   0  0  0  0  0  0  0  0  0  0  0  0
   -6.7752   -2.1902   -0.9516 C   0  0  0  0  0  0  0  0  0  0  0  0
   -6.8024   -3.5365   -1.3276 C   0  0  0  0  0  0  0  0  0  0  0  0
   -5.6546   -4.1740   -1.7850 C   0  0  0  0  0  0  0  0  0  0  0  0
   -4.4470   -3.4762   -1.8805 C   0  0  0  0  0  0  0  0  0  0  0  0
   -4.3928   -2.1162   -1.5078 C   0  0  0  0  0  0  0  0  0  0  0  0
   -3.3463   -1.1419   -1.4914 C   0  0  0  0  0  0  0  0  0  0  0  0
   -1.9766   -1.1818   -1.8449 C   0  0  0  0  0  0  0  0  0  0  0  0
   -1.1846   -0.0373   -1.7179 C   0  0  0  0  0  0  0  0  0  0  0  0
    0.1863    0.0110   -2.0410 N   0  0  0  0  0  0  0  0  0  0  0  0
    0.9923   -1.0112   -2.5168 C   0  0  0  0  0  0  0  0  0  0  0  0
    0.6281   -2.1558   -2.7714 O   0  0  0  0  0  0  0  0  0  0  0  0
    2.4583   -0.5590   -2.7292 C   0  0  0  0  0  0  0  0  0  0  0  0
    3.2518   -1.6246   -3.4778 C   0  0  0  0  0  0  0  0  0  0  0  0
    3.1493   -0.3346   -1.4883 O   0  0  0  0  0  0  0  0  0  0  0  0
    2.9288    0.8565   -0.8851 C   0  0  0  0  0  0  0  0  0  0  0  0
    2.1757    1.7254   -1.3000 O   0  0  0  0  0  0  0  0  0  0  0  0
    3.7174    0.9704    0.3702 C   0  0  0  0  0  0  0  0  0  0  0  0
    4.5164   -0.0710    0.8538 C   0  0  0  0  0  0  0  0  0  0  0  0
    5.2350    0.0891    2.0449 C   0  0  0  0  0  0  0  0  0  0  0  0
    5.1677    1.2865    2.7701 C   0  0  0  0  0  0  0  0  0  0  0  0
    5.9286    1.3627    3.9569 N   0  0  0  0  0  0  0  0  0  0  0  0
    5.9870    2.4224    4.8520 C   0  0  0  0  0  0  0  0  0  0  0  0
    5.3673    3.4788    4.7670 O   0  0  0  0  0  0  0  0  0  0  0  0
    6.9416    2.1883    6.0008 C   0  0  0  0  0  0  0  0  0  0  0  0
    6.3211    1.3371    7.0122 C   0  0  0  0  0  0  0  0  0  0  0  0
    5.8624    0.6274    7.8078 N   0  0  0  0  0  0  0  0  0  0  0  0
    4.3687    2.3223    2.2831 C   0  0  0  0  0  0  0  0  0  0  0  0
    3.6473    2.1664    1.0925 C   0  0  0  0  0  0  0  0  0  0  0  0
   -1.7601    1.1434   -1.2409 C   0  0  0  0  0  0  0  0  0  0  0  0
   -3.1128    1.2126   -0.8860 C   0  0  0  0  0  0  0  0  0  0  0  0
   -3.8890    0.0519   -1.0173 C   0  0  0  0  0  0  0  0  0  0  0  0
   -7.4117    0.9172   -1.9844 H   0  0  0  0  0  0  0  0  0  0  0  0
   -7.5433    2.3069   -0.8906 H   0  0  0  0  0  0  0  0  0  0  0  0
   -6.1229    2.1274   -1.9363 H   0  0  0  0  0  0  0  0  0  0  0  0
   -5.5959    1.4708    0.4409 H   0  0  0  0  0  0  0  0  0  0  0  0
   -6.8848    0.2788    0.4047 H   0  0  0  0  0  0  0  0  0  0  0  0
   -7.6794   -1.7060   -0.5988 H   0  0  0  0  0  0  0  0  0  0  0  0
   -7.7348   -4.0919   -1.2612 H   0  0  0  0  0  0  0  0  0  0  0  0
   -5.6933   -5.2212   -2.0727 H   0  0  0  0  0  0  0  0  0  0  0  0
   -3.5540   -3.9784   -2.2407 H   0  0  0  0  0  0  0  0  0  0  0  0
   -1.5739   -2.1184   -2.2106 H   0  0  0  0  0  0  0  0  0  0  0  0
    0.6471    0.9084   -1.8810 H   0  0  0  0  0  0  0  0  0  0  0  0
    2.4609    0.3526   -3.3414 H   0  0  0  0  0  0  0  0  0  0  0  0
    4.2775   -1.2835   -3.6532 H   0  0  0  0  0  0  0  0  0  0  0  0
    3.3214   -2.5481   -2.8919 H   0  0  0  0  0  0  0  0  0  0  0  0
    2.7922   -1.8621   -4.4420 H   0  0  0  0  0  0  0  0  0  0  0  0
    4.5885   -1.0165    0.3207 H   0  0  0  0  0  0  0  0  0  0  0  0
    5.8433   -0.7423    2.3943 H   0  0  0  0  0  0  0  0  0  0  0  0
    6.4522    0.5264    4.1896 H   0  0  0  0  0  0  0  0  0  0  0  0
    7.8638    1.7365    5.6193 H   0  0  0  0  0  0  0  0  0  0  0  0
    7.2176    3.1587    6.4269 H   0  0  0  0  0  0  0  0  0  0  0  0
    4.2787    3.2714    2.8028 H   0  0  0  0  0  0  0  0  0  0  0  0
    3.0302    2.9905    0.7379 H   0  0  0  0  0  0  0  0  0  0  0  0
   -1.1576    2.0437   -1.1348 H   0  0  0  0  0  0  0  0  0  0  0  0
   -3.5338    2.1438   -0.5216 H   0  0  0  0  0  0  0  0  0  0  0  0
  1  2  1  0
  2  3  1  0
  3  4  1  0
  4  5  2  0
  5  6  1  0
  6  7  2  0
  7  8  1  0
  8  9  2  0
  9 10  1  0
 10 11  2  0
 11 12  1  0
 12 13  1  0
 13 14  1  0
 14 15  2  0
 14 16  1  0
 16 17  1  0
 16 18  1  0
 18 19  1  0
 19 20  2  0
 19 21  1  0
 21 22  2  0
 22 23  1  0
 23 24  2  0
 24 25  1  0
 25 26  1  0
 26 27  2  0
 26 28  1  0
 28 29  1  0
 29 30  3  0
 24 31  1  0
 31 32  2  0
 12 33  2  0
 33 34  1  0
 34 35  2  0
 35  3  1  0
  9  4  1  0
 35 10  1  0
 32 21  1  0
  1 36  1  0
  1 37  1  0
  1 38  1  0
  2 39  1  0
  2 40  1  0
  5 41  1  0
  6 42  1  0
  7 43  1  0
  8 44  1  0
 11 45  1  0
 13 46  1  0
 16 47  1  0
 17 48  1  0
 17 49  1  0
 17 50  1  0
 22 51  1  0
 23 52  1  0
 25 53  1  0
 28 54  1  0
 28 55  1  0
 31 56  1  0
 32 57  1  0
 33 58  1  0
 34 59  1  0
M  END
$$$$
