
     RDKit          3D

 46 49  0  0  0  0  0  0  0  0999 V2000
    1.2866    0.5662   -1.8575 O   0  0  0  0  0  0  0  0  0  0  0  0
    1.7879    1.3690   -1.0796 C   0  0  0  0  0  0  0  0  0  0  0  0
    1.0520    1.9870    0.1014 C   0  0  0  0  0  0  0  0  0  0  0  0
   -0.2309    1.3051    0.3553 N   0  0  0  0  0  4  0  0  0  0  0  0
   -1.5094    1.8443    0.2322 C   0  0  0  0  0  0  0  0  0  0  0  0
   -2.4455    0.8539    0.5105 C   0  0  0  0  0  0  0  0  0  0  0  0
   -4.0095    1.0230    0.5235 C   0  0  0  0  0  0  0  0  0  0  0  0
   -4.5858    2.2459    0.1607 C   0  0  0  0  0  0  0  0  0  0  0  0
   -5.9770    2.3995    0.1717 C   0  0  0  0  0  0  0  0  0  0  0  0
   -6.8031    1.3378    0.5473 C   0  0  0  0  0  0  0  0  0  0  0  0
   -8.5078    1.5986    0.5381 Cl  0  0  0  0  0  0  0  0  0  0  0  0
   -6.2293    0.1184    0.9152 C   0  0  0  0  0  0  0  0  0  0  0  0
   -7.1752   -1.2432    1.4006 Cl  0  0  0  0  0  0  0  0  0  0  0  0
   -4.8357   -0.0364    0.9037 C   0  0  0  0  0  0  0  0  0  0  0  0
   -1.6649   -0.2611    0.7605 N   0  0  0  0  0  0  0  0  0  0  0  0
   -0.3674    0.0188    0.6659 C   0  0  0  0  0  0  0  0  0  0  0  0
    0.5053   -1.1491    0.9335 C   0  0  0  0  0  0  0  0  0  0  0  0
   -0.4957   -2.3183    0.8685 C   0  0  0  0  0  0  0  0  0  0  0  0
   -1.8913   -1.6676    1.0705 C   0  0  0  0  0  0  0  0  0  0  0  0
    3.0754    1.8045   -1.1017 O   0  0  0  0  0  0  0  0  0  0  0  0
    3.9389    1.1175   -2.0221 C   0  0  0  0  0  0  0  0  0  0  0  0
    4.4198   -0.1589   -1.3804 C   0  0  0  0  0  0  0  0  0  0  0  0
    5.2949   -0.1160   -0.2853 C   0  0  0  0  0  0  0  0  0  0  0  0
    5.7192   -1.2960    0.3270 C   0  0  0  0  0  0  0  0  0  0  0  0
    5.2721   -2.5281   -0.1465 C   0  0  0  0  0  0  0  0  0  0  0  0
    4.4006   -2.5824   -1.2325 C   0  0  0  0  0  0  0  0  0  0  0  0
    3.9743   -1.4037   -1.8464 C   0  0  0  0  0  0  0  0  0  0  0  0
    0.8658    3.0447   -0.1057 H   0  0  0  0  0  0  0  0  0  0  0  0
    1.6581    1.8822    1.0070 H   0  0  0  0  0  0  0  0  0  0  0  0
   -1.5934    2.8843   -0.0340 H   0  0  0  0  0  0  0  0  0  0  0  0
   -3.9868    3.1003   -0.1433 H   0  0  0  0  0  0  0  0  0  0  0  0
   -6.4150    3.3542   -0.1161 H   0  0  0  0  0  0  0  0  0  0  0  0
   -4.4276   -0.9911    1.2101 H   0  0  0  0  0  0  0  0  0  0  0  0
    0.9175   -1.0051    1.9345 H   0  0  0  0  0  0  0  0  0  0  0  0
    1.2865   -1.2095    0.1771 H   0  0  0  0  0  0  0  0  0  0  0  0
   -0.4554   -2.7692   -0.1303 H   0  0  0  0  0  0  0  0  0  0  0  0
   -0.2835   -3.1028    1.5998 H   0  0  0  0  0  0  0  0  0  0  0  0
   -2.6283   -2.1045    0.3929 H   0  0  0  0  0  0  0  0  0  0  0  0
   -2.2184   -1.7497    2.1111 H   0  0  0  0  0  0  0  0  0  0  0  0
    3.4410    0.9434   -2.9837 H   0  0  0  0  0  0  0  0  0  0  0  0
    4.7948    1.7705   -2.2272 H   0  0  0  0  0  0  0  0  0  0  0  0
    5.6606    0.8376    0.0908 H   0  0  0  0  0  0  0  0  0  0  0  0
    6.4105   -1.2566    1.1659 H   0  0  0  0  0  0  0  0  0  0  0  0
    5.6157   -3.4475    0.3220 H   0  0  0  0  0  0  0  0  0  0  0  0
    4.0641   -3.5453   -1.6100 H   0  0  0  0  0  0  0  0  0  0  0  0
    3.2951   -1.4646   -2.6952 H   0  0  0  0  0  0  0  0  0  0  0  0
  1  2  2  0
  2  3  1  0
  3  4  1  0
  4  5  1  0
  5  6  2  0
  6  7  1  0
  7  8  2  0
  8  9  1  0
  9 10  2  0
 10 11  1  0
 10 12  1  0
 12 13  1  0
 12 14  2  0
  6 15  1  0
 15 16  1  0
 16 17  1  0
 17 18  1  0
 18 19  1  0
  2 20  1  0
 20 21  1  0
 21 22  1  0
 22 23  2  0
 23 24  1  0
 24 25  2  0
 25 26  1  0
 26 27  2  0
 16  4  2  0
 27 22  1  0
 14  7  1  0
 19 15  1  0
  3 28  1  0
  3 29  1  0
  5 30  1  0
  8 31  1  0
  9 32  1  0
 14 33  1  0
 17 34  1  0
 17 35  1  0
 18 36  1  0
 18 37  1  0
 19 38  1  0
 19 39  1  0
 21 40  1  0
 21 41  1  0
 23 42  1  0
 24 43  1  0
 25 44  1  0
 26 45  1  0
 27 46  1  0
M  CHG  1   4   1
M  END
$$$$
