
     RDKit          3D

 60 63  0  0  0  0  0  0  0  0999 V2000
   -4.0643    5.8273    3.8500 C   0  0  0  0  0  0  0  0  0  0  0  0
   -4.3712    4.4645    3.5851 O   0  0  0  0  0  0  0  0  0  0  0  0
   -3.6237    3.8361    2.6291 C   0  0  0  0  0  0  0  0  0  0  0  0
   -2.6116    4.4158    1.8626 C   0  0  0  0  0  0  0  0  0  0  0  0
   -1.9185    3.6511    0.9167 C   0  0  0  0  0  0  0  0  0  0  0  0
   -2.2400    2.3001    0.7307 C   0  0  0  0  0  0  0  0  0  0  0  0
   -1.5273    1.5244   -0.2167 N   0  0  0  0  0  0  0  0  0  0  0  0
   -2.0323    0.6456   -1.1712 C   0  0  0  0  0  0  0  0  0  0  0  0
   -3.4745    0.4300   -1.5079 C   0  0  0  0  0  0  0  0  0  0  0  0
   -4.0737   -0.8156   -0.9167 C   0  0  0  0  0  0  0  0  0  0  0  0
   -5.1422   -0.9282   -0.0392 C   0  0  0  0  0  0  0  0  0  0  0  0
   -5.3482   -2.2975    0.2333 C   0  0  0  0  0  0  0  0  0  0  0  0
   -4.4333   -3.0007   -0.5162 C   0  0  0  0  0  0  0  0  0  0  0  0
   -3.6736   -2.1026   -1.2242 N   0  0  0  0  0  0  0  0  0  0  0  0
   -2.6346   -2.4960   -2.1532 C   0  0  0  0  0  0  0  0  0  0  0  0
   -1.0287    0.1440   -1.8736 N   0  0  0  0  0  0  0  0  0  0  0  0
    0.1417    0.6419   -1.3829 N   0  0  0  0  0  0  0  0  0  0  0  0
   -0.1578    1.4628   -0.4044 C   0  0  0  0  0  0  0  0  0  0  0  0
    1.0444    2.1329    0.6509 S   0  0  0  0  0  0  0  0  0  0  0  0
    1.3081    0.7063    1.7461 C   0  0  0  0  0  0  0  0  0  0  0  0
    2.4155   -0.2354    1.2924 C   0  0  0  0  0  0  0  0  0  0  0  0
    3.1325   -0.8061    2.1179 O   0  0  0  0  0  0  0  0  0  0  0  0
    2.5130   -0.4837   -0.0580 N   0  0  0  0  0  0  0  0  0  0  0  0
    3.4356   -1.4631   -0.5991 C   0  0  0  0  0  0  0  0  0  0  0  0
    4.8927   -0.9948   -0.5580 C   0  0  0  0  0  0  0  0  0  0  0  0
    5.8173   -2.0276   -1.1541 C   0  0  0  0  0  0  0  0  0  0  0  0
    6.2487   -3.1166   -0.3825 C   0  0  0  0  0  0  0  0  0  0  0  0
    7.0864   -4.0898   -0.9315 C   0  0  0  0  0  0  0  0  0  0  0  0
    7.4967   -3.9847   -2.2560 C   0  0  0  0  0  0  0  0  0  0  0  0
    7.0683   -2.9059   -3.0354 C   0  0  0  0  0  0  0  0  0  0  0  0
    6.2315   -1.9312   -2.4876 C   0  0  0  0  0  0  0  0  0  0  0  0
   -3.2471    1.7173    1.5000 C   0  0  0  0  0  0  0  0  0  0  0  0
   -3.9326    2.4877    2.4423 C   0  0  0  0  0  0  0  0  0  0  0  0
   -4.7649    6.1845    4.6099 H   0  0  0  0  0  0  0  0  0  0  0  0
   -4.1966    6.4492    2.9558 H   0  0  0  0  0  0  0  0  0  0  0  0
   -3.0517    5.9248    4.2579 H   0  0  0  0  0  0  0  0  0  0  0  0
   -2.3356    5.4587    1.9751 H   0  0  0  0  0  0  0  0  0  0  0  0
   -1.1543    4.1421    0.3149 H   0  0  0  0  0  0  0  0  0  0  0  0
   -4.0715    1.3033   -1.2190 H   0  0  0  0  0  0  0  0  0  0  0  0
   -3.5674    0.3705   -2.6010 H   0  0  0  0  0  0  0  0  0  0  0  0
   -5.7127   -0.1025    0.3691 H   0  0  0  0  0  0  0  0  0  0  0  0
   -6.0934   -2.7306    0.8874 H   0  0  0  0  0  0  0  0  0  0  0  0
   -4.2694   -4.0680   -0.6063 H   0  0  0  0  0  0  0  0  0  0  0  0
   -1.6700   -2.3550   -1.6634 H   0  0  0  0  0  0  0  0  0  0  0  0
   -2.7160   -1.8916   -3.0585 H   0  0  0  0  0  0  0  0  0  0  0  0
   -2.7606   -3.5494   -2.4130 H   0  0  0  0  0  0  0  0  0  0  0  0
    1.5987    1.1109    2.7247 H   0  0  0  0  0  0  0  0  0  0  0  0
    0.3841    0.1294    1.8833 H   0  0  0  0  0  0  0  0  0  0  0  0
    1.8184   -0.0848   -0.6916 H   0  0  0  0  0  0  0  0  0  0  0  0
    3.3109   -2.3975   -0.0366 H   0  0  0  0  0  0  0  0  0  0  0  0
    3.1245   -1.6563   -1.6329 H   0  0  0  0  0  0  0  0  0  0  0  0
    5.2075   -0.7843    0.4713 H   0  0  0  0  0  0  0  0  0  0  0  0
    4.9981   -0.0434   -1.0948 H   0  0  0  0  0  0  0  0  0  0  0  0
    5.9339   -3.2097    0.6536 H   0  0  0  0  0  0  0  0  0  0  0  0
    7.4213   -4.9300   -0.3204 H   0  0  0  0  0  0  0  0  0  0  0  0
    8.1506   -4.7426   -2.6816 H   0  0  0  0  0  0  0  0  0  0  0  0
    7.3887   -2.8231   -4.0678 H   0  0  0  0  0  0  0  0  0  0  0  0
    5.9066   -1.0959   -3.1063 H   0  0  0  0  0  0  0  0  0  0  0  0
   -3.4728    0.6581    1.4355 H   0  0  0  0  0  0  0  0  0  0  0  0
   -4.7039    2.0251    3.0554 H   0  0  0  0  0  0  0  0  0  0  0  0
  1  2  1  0
  2  3  1  0
  3  4  2  0
  4  5  1  0
  5  6  2  0
  6  7  1  0
  7  8  1  0
  8  9  1  0
  9 10  1  0
 10 11  2  0
 11 12  1  0
 12 13  2  0
 13 14  1  0
 14 15  1  0
  8 16  2  0
 16 17  1  0
 17 18  2  0
 18 19  1  0
 19 20  1  0
 20 21  1  0
 21 22  2  0
 21 23  1  0
 23 24  1  0
 24 25  1  0
 25 26  1  0
 26 27  2  0
 27 28  1  0
 28 29  2  0
 29 30  1  0
 30 31  2  0
  6 32  1  0
 32 33  2  0
 33  3  1  0
 18  7  1  0
 31 26  1  0
 14 10  1  0
  1 34  1  0
  1 35  1  0
  1 36  1  0
  4 37  1  0
  5 38  1  0
  9 39  1  0
  9 40  1  0
 11 41  1  0
 12 42  1  0
 13 43  1  0
 15 44  1  0
 15 45  1  0
 15 46  1  0
 20 47  1  0
 20 48  1  0
 23 49  1  0
 24 50  1  0
 24 51  1  0
 25 52  1  0
 25 53  1  0
 27 54  1  0
 28 55  1  0
 29 56  1  0
 30 57  1  0
 31 58  1  0
 32 59  1  0
 33 60  1  0
M  END
$$$$
