
     RDKit          3D

 31 33  0  0  0  0  0  0  0  0999 V2000
   -2.9849   -1.6129   -1.0910 C   0  0  0  0  0  0  0  0  0  0  0  0
   -3.1822   -0.3874   -0.2562 C   0  0  0  0  0  0  0  0  0  0  0  0
   -4.4776    0.1836   -0.0159 C   0  0  0  0  0  0  0  0  0  0  0  0
   -4.4319    1.3038    0.7779 C   0  0  0  0  0  0  0  0  0  0  0  0
   -2.8421    1.6847    1.2470 S   0  0  0  0  0  0  0  0  0  0  0  0
   -2.1836    0.3449    0.3839 C   0  0  0  0  0  0  0  0  0  0  0  0
   -0.6770    0.1419    0.4386 C   0  0  0  0  0  0  0  0  0  0  0  0
   -0.3028   -1.2666    0.8455 C   0  0  0  0  0  0  0  0  0  0  0  0
    0.9313   -1.2780    1.6871 C   0  0  0  0  0  0  0  0  0  0  0  0
    0.9463   -1.9187    2.7445 O   0  0  0  0  0  0  0  0  0  0  0  0
    2.0786   -0.6566    1.3319 N   0  0  0  0  0  0  0  0  0  0  0  0
    2.5136    0.1262    0.2441 C   0  0  0  0  0  0  0  0  0  0  0  0
    3.8934    0.4321    0.3074 C   0  0  0  0  0  0  0  0  0  0  0  0
    4.5393    1.1736   -0.6817 C   0  0  0  0  0  0  0  0  0  0  0  0
    3.8161    1.6323   -1.7667 C   0  0  0  0  0  0  0  0  0  0  0  0
    2.4527    1.3532   -1.8448 C   0  0  0  0  0  0  0  0  0  0  0  0
    1.7750    0.6128   -0.8475 C   0  0  0  0  0  0  0  0  0  0  0  0
    0.0351    0.4591   -1.2038 S   0  0  0  0  0  0  0  0  0  0  0  0
   -3.9252   -1.9274   -1.5564 H   0  0  0  0  0  0  0  0  0  0  0  0
   -2.2669   -1.4320   -1.8954 H   0  0  0  0  0  0  0  0  0  0  0  0
   -2.6272   -2.4434   -0.4752 H   0  0  0  0  0  0  0  0  0  0  0  0
   -5.4040   -0.2148   -0.4129 H   0  0  0  0  0  0  0  0  0  0  0  0
   -5.2605    1.9169    1.1046 H   0  0  0  0  0  0  0  0  0  0  0  0
   -0.2503    0.8757    1.1344 H   0  0  0  0  0  0  0  0  0  0  0  0
   -1.0951   -1.6969    1.4740 H   0  0  0  0  0  0  0  0  0  0  0  0
   -0.1650   -1.9622    0.0089 H   0  0  0  0  0  0  0  0  0  0  0  0
    2.7824   -0.8545    2.0364 H   0  0  0  0  0  0  0  0  0  0  0  0
    4.5003    0.0802    1.1407 H   0  0  0  0  0  0  0  0  0  0  0  0
    5.6026    1.3844   -0.6017 H   0  0  0  0  0  0  0  0  0  0  0  0
    4.3013    2.2088   -2.5499 H   0  0  0  0  0  0  0  0  0  0  0  0
    1.9081    1.7371   -2.7081 H   0  0  0  0  0  0  0  0  0  0  0  0
  1  2  1  0
  2  3  1  0
  3  4  2  0
  4  5  1  0
  5  6  1  0
  6  7  1  0
  7  8  1  0
  8  9  1  0
  9 10  2  0
  9 11  1  0
 11 12  1  0
 12 13  2  0
 13 14  1  0
 14 15  2  0
 15 16  1  0
 16 17  2  0
 17 18  1  0
  6  2  2  0
 18  7  1  0
 17 12  1  0
  1 19  1  0
  1 20  1  0
  1 21  1  0
  3 22  1  0
  4 23  1  0
  7 24  1  0
  8 25  1  0
  8 26  1  0
 11 27  1  0
 13 28  1  0
 14 29  1  0
 15 30  1  0
 16 31  1  0
M  END
$$$$
