
     RDKit          3D

 50 53  0  0  0  0  0  0  0  0999 V2000
    8.1243   -1.1853    1.0262 C   0  0  0  0  0  0  0  0  0  0  0  0
    7.8651    0.2900    1.2765 C   0  0  0  0  0  0  0  0  0  0  0  0
    6.5576    0.4942    1.8113 O   0  0  0  0  0  0  0  0  0  0  0  0
    5.4904    0.6306    0.9723 C   0  0  0  0  0  0  0  0  0  0  0  0
    5.5440    0.5582   -0.4208 C   0  0  0  0  0  0  0  0  0  0  0  0
    4.3825    0.7320   -1.1889 C   0  0  0  0  0  0  0  0  0  0  0  0
    3.1431    0.9715   -0.5790 C   0  0  0  0  0  0  0  0  0  0  0  0
    1.9485    1.1639   -1.4486 C   0  0  0  0  0  0  0  0  0  0  0  0
    2.1138    1.7143   -2.5300 O   0  0  0  0  0  0  0  0  0  0  0  0
    0.7659    0.6615   -0.9384 N   0  0  0  0  0  0  0  0  0  0  0  0
   -0.5143    0.7213   -1.5319 C   0  0  0  0  0  0  0  0  0  0  0  0
   -0.7884    1.3755   -2.7323 C   0  0  0  0  0  0  0  0  0  0  0  0
   -2.0823    1.3743   -3.2586 C   0  0  0  0  0  0  0  0  0  0  0  0
   -3.1159    0.7248   -2.5844 C   0  0  0  0  0  0  0  0  0  0  0  0
   -2.8701    0.0744   -1.3678 C   0  0  0  0  0  0  0  0  0  0  0  0
   -3.9615   -0.6105   -0.6382 C   0  0  0  0  0  0  0  0  0  0  0  0
   -5.0810    0.0765   -0.3521 C   0  0  0  0  0  0  0  0  0  0  0  0
   -6.1795   -0.5498    0.3644 C   0  0  0  0  0  0  0  0  0  0  0  0
   -7.3567    0.1373    0.6692 C   0  0  0  0  0  0  0  0  0  0  0  0
   -8.3872   -0.5109    1.3581 C   0  0  0  0  0  0  0  0  0  0  0  0
   -8.2455   -1.8456    1.7443 C   0  0  0  0  0  0  0  0  0  0  0  0
   -7.0731   -2.5360    1.4435 C   0  0  0  0  0  0  0  0  0  0  0  0
   -6.0560   -1.8769    0.7572 C   0  0  0  0  0  0  0  0  0  0  0  0
   -4.8872   -2.6035    0.4757 O   0  0  0  0  0  0  0  0  0  0  0  0
   -3.8116   -2.0313   -0.1969 C   0  0  0  0  0  0  0  0  0  0  0  0
   -2.7886   -2.6772   -0.4040 O   0  0  0  0  0  0  0  0  0  0  0  0
   -1.5624    0.0799   -0.8546 C   0  0  0  0  0  0  0  0  0  0  0  0
    3.0677    1.0594    0.8109 C   0  0  0  0  0  0  0  0  0  0  0  0
    4.2406    0.8779    1.5581 C   0  0  0  0  0  0  0  0  0  0  0  0
    4.1292    0.9612    2.9991 N   0  0  0  0  0  4  0  0  0  0  0  0
    4.2284   -0.0953    3.6368 O   0  0  0  0  0  0  0  0  0  0  0  0
    3.8681    2.0746    3.4745 O   0  0  0  0  0  1  0  0  0  0  0  0
    7.9574   -1.7639    1.9409 H   0  0  0  0  0  0  0  0  0  0  0  0
    9.1534   -1.3454    0.6919 H   0  0  0  0  0  0  0  0  0  0  0  0
    7.4463   -1.5888    0.2683 H   0  0  0  0  0  0  0  0  0  0  0  0
    8.0564    0.9069    0.3919 H   0  0  0  0  0  0  0  0  0  0  0  0
    8.5682    0.6384    2.0416 H   0  0  0  0  0  0  0  0  0  0  0  0
    6.4704    0.3688   -0.9545 H   0  0  0  0  0  0  0  0  0  0  0  0
    4.4492    0.6804   -2.2760 H   0  0  0  0  0  0  0  0  0  0  0  0
    0.8181    0.1168   -0.0873 H   0  0  0  0  0  0  0  0  0  0  0  0
   -0.0149    1.8924   -3.2915 H   0  0  0  0  0  0  0  0  0  0  0  0
   -2.2788    1.8778   -4.2022 H   0  0  0  0  0  0  0  0  0  0  0  0
   -4.1105    0.7255   -3.0251 H   0  0  0  0  0  0  0  0  0  0  0  0
   -5.2012    1.1170   -0.6390 H   0  0  0  0  0  0  0  0  0  0  0  0
   -7.4869    1.1767    0.3773 H   0  0  0  0  0  0  0  0  0  0  0  0
   -9.3028    0.0265    1.5943 H   0  0  0  0  0  0  0  0  0  0  0  0
   -9.0490   -2.3455    2.2797 H   0  0  0  0  0  0  0  0  0  0  0  0
   -6.9533   -3.5739    1.7405 H   0  0  0  0  0  0  0  0  0  0  0  0
   -1.3626   -0.4337    0.0838 H   0  0  0  0  0  0  0  0  0  0  0  0
    2.1329    1.2931    1.3138 H   0  0  0  0  0  0  0  0  0  0  0  0
  1  2  1  0
  2  3  1  0
  3  4  1  0
  4  5  2  0
  5  6  1  0
  6  7  2  0
  7  8  1  0
  8  9  2  0
  8 10  1  0
 10 11  1  0
 11 12  2  0
 12 13  1  0
 13 14  2  0
 14 15  1  0
 15 16  1  0
 16 17  2  0
 17 18  1  0
 18 19  2  0
 19 20  1  0
 20 21  2  0
 21 22  1  0
 22 23  2  0
 23 24  1  0
 24 25  1  0
 25 26  2  0
 15 27  2  0
  7 28  1  0
 28 29  2  0
 29 30  1  0
 30 31  2  0
 30 32  1  0
 29  4  1  0
 27 11  1  0
 25 16  1  0
 23 18  1  0
  1 33  1  0
  1 34  1  0
  1 35  1  0
  2 36  1  0
  2 37  1  0
  5 38  1  0
  6 39  1  0
 10 40  1  0
 12 41  1  0
 13 42  1  0
 14 43  1  0
 17 44  1  0
 19 45  1  0
 20 46  1  0
 21 47  1  0
 22 48  1  0
 27 49  1  0
 28 50  1  0
M  CHG  2  30   1  32  -1
M  END
$$$$
