
     RDKit          3D

 55 60  0  0  0  0  0  0  0  0999 V2000
    4.5634   -1.4052    1.8638 O   0  0  0  0  0  0  0  0  0  0  0  0
    4.0281   -0.3445    1.5457 C   0  0  0  0  0  0  0  0  0  0  0  0
    4.5870    0.9201    2.0047 C   0  0  0  0  0  0  0  0  0  0  0  0
    4.6515    2.2063    1.3906 C   0  0  0  0  0  0  0  0  0  0  0  0
    5.3263    3.0281    2.2627 C   0  0  0  0  0  0  0  0  0  0  0  0
    5.7041    2.3367    3.3661 O   0  0  0  0  0  0  0  0  0  0  0  0
    5.2747    1.0611    3.1953 C   0  0  0  0  0  0  0  0  0  0  0  0
    2.8892   -0.3178    0.7332 N   0  0  0  0  0  0  0  0  0  0  0  0
    1.9458    0.7969    0.6809 C   0  0  0  0  0  0  0  0  0  0  0  0
    0.5088    0.3076    0.5063 C   0  0  0  0  0  0  0  0  0  0  0  0
    0.3271   -0.4846   -0.8179 C   0  0  0  0  0  0  0  0  0  0  0  0
    1.6006   -1.3460   -1.0895 C   0  0  0  0  0  0  0  0  0  0  0  0
    2.4389   -1.5822    0.1611 C   0  0  0  0  0  0  0  0  0  0  0  0
    0.2354    0.5456   -1.8400 O   0  0  0  0  0  0  0  0  0  0  0  0
   -0.1568    0.1272   -3.0800 C   0  0  0  0  0  0  0  0  0  0  0  0
    0.1333    0.9873   -4.1388 C   0  0  0  0  0  0  0  0  0  0  0  0
   -0.2155    0.6316   -5.4438 C   0  0  0  0  0  0  0  0  0  0  0  0
   -0.8595   -0.5821   -5.6850 C   0  0  0  0  0  0  0  0  0  0  0  0
   -1.2859   -1.0148   -7.2936 Cl  0  0  0  0  0  0  0  0  0  0  0  0
   -1.1671   -1.4397   -4.6320 C   0  0  0  0  0  0  0  0  0  0  0  0
   -0.8203   -1.0728   -3.3274 C   0  0  0  0  0  0  0  0  0  0  0  0
   -1.1796   -1.9386   -2.1891 C   0  0  0  0  0  0  0  0  0  0  0  0
   -1.6569   -3.0485   -2.4008 O   0  0  0  0  0  0  0  0  0  0  0  0
   -0.9764   -1.3329   -0.8035 C   0  0  0  0  0  0  0  0  0  0  0  0
   -2.2557   -0.5878   -0.4394 C   0  0  0  0  0  0  0  0  0  0  0  0
   -2.4613   -1.1142    0.9376 C   0  0  0  0  0  0  0  0  0  0  0  0
   -3.4788   -0.5461    1.8528 C   0  0  0  0  0  0  0  0  0  0  0  0
   -4.3718    0.4459    1.4300 C   0  0  0  0  0  0  0  0  0  0  0  0
   -5.3166    0.9633    2.3227 C   0  0  0  0  0  0  0  0  0  0  0  0
   -5.3702    0.4900    3.6331 C   0  0  0  0  0  0  0  0  0  0  0  0
   -6.5331    1.1316    4.7255 Cl  0  0  0  0  0  0  0  0  0  0  0  0
   -4.4884   -0.4994    4.0609 C   0  0  0  0  0  0  0  0  0  0  0  0
   -3.5437   -1.0182    3.1710 C   0  0  0  0  0  0  0  0  0  0  0  0
   -1.6858   -2.0959    1.2669 N   0  0  0  0  0  0  0  0  0  0  0  0
   -0.8648   -2.3897    0.1557 O   0  0  0  0  0  0  0  0  0  0  0  0
    4.2739    2.4973    0.4214 H   0  0  0  0  0  0  0  0  0  0  0  0
    5.6188    4.0689    2.2408 H   0  0  0  0  0  0  0  0  0  0  0  0
    5.5238    0.3716    3.9911 H   0  0  0  0  0  0  0  0  0  0  0  0
    2.0102    1.3851    1.6015 H   0  0  0  0  0  0  0  0  0  0  0  0
    2.2333    1.4360   -0.1610 H   0  0  0  0  0  0  0  0  0  0  0  0
    0.2607   -0.3120    1.3748 H   0  0  0  0  0  0  0  0  0  0  0  0
   -0.1540    1.1810    0.5252 H   0  0  0  0  0  0  0  0  0  0  0  0
    1.3393   -2.3193   -1.5198 H   0  0  0  0  0  0  0  0  0  0  0  0
    2.2324   -0.8472   -1.8370 H   0  0  0  0  0  0  0  0  0  0  0  0
    1.8698   -2.1208    0.9278 H   0  0  0  0  0  0  0  0  0  0  0  0
    3.3090   -2.1988   -0.0916 H   0  0  0  0  0  0  0  0  0  0  0  0
    0.6428    1.9302   -3.9537 H   0  0  0  0  0  0  0  0  0  0  0  0
    0.0208    1.3020   -6.2671 H   0  0  0  0  0  0  0  0  0  0  0  0
   -1.6792   -2.3809   -4.8215 H   0  0  0  0  0  0  0  0  0  0  0  0
   -2.1505    0.4991   -0.4590 H   0  0  0  0  0  0  0  0  0  0  0  0
   -3.1144   -0.8755   -1.0563 H   0  0  0  0  0  0  0  0  0  0  0  0
   -4.3613    0.8276    0.4133 H   0  0  0  0  0  0  0  0  0  0  0  0
   -6.0101    1.7319    1.9899 H   0  0  0  0  0  0  0  0  0  0  0  0
   -4.5297   -0.8738    5.0807 H   0  0  0  0  0  0  0  0  0  0  0  0
   -2.8616   -1.7943    3.5150 H   0  0  0  0  0  0  0  0  0  0  0  0
  1  2  2  0
  2  3  1  0
  3  4  1  0
  4  5  2  0
  5  6  1  0
  6  7  1  0
  2  8  1  0
  8  9  1  0
  9 10  1  0
 10 11  1  0
 11 12  1  0
 12 13  1  0
 11 14  1  0
 14 15  1  0
 15 16  2  0
 16 17  1  0
 17 18  2  0
 18 19  1  0
 18 20  1  0
 20 21  2  0
 21 22  1  0
 22 23  2  0
 22 24  1  0
 24 25  1  0
 25 26  1  0
 26 27  1  0
 27 28  2  0
 28 29  1  0
 29 30  2  0
 30 31  1  0
 30 32  1  0
 32 33  2  0
 26 34  2  0
 34 35  1  0
  7  3  2  0
 13  8  1  0
 21 15  1  0
 35 24  1  0
 24 11  1  0
 33 27  1  0
  4 36  1  0
  5 37  1  0
  7 38  1  0
  9 39  1  0
  9 40  1  0
 10 41  1  0
 10 42  1  0
 12 43  1  0
 12 44  1  0
 13 45  1  0
 13 46  1  0
 16 47  1  0
 17 48  1  0
 20 49  1  0
 25 50  1  0
 25 51  1  0
 28 52  1  0
 29 53  1  0
 32 54  1  0
 33 55  1  0
M  END
$$$$
