
     RDKit          3D

 38 39  0  0  0  0  0  0  0  0999 V2000
   -0.8760    1.2695    0.8628 O   0  0  0  0  0  0  0  0  0  0  0  0
   -1.0884    1.1322   -0.3331 C   0  0  0  0  0  0  0  0  0  0  0  0
   -2.4341    1.3004   -0.9422 C   0  0  0  0  0  0  0  0  0  0  0  0
   -3.5931    1.0282   -0.3208 C   0  0  0  0  0  0  0  0  0  0  0  0
   -3.7291    0.4836    1.0360 C   0  0  0  0  0  0  0  0  0  0  0  0
   -3.8661    1.3897    2.0977 C   0  0  0  0  0  0  0  0  0  0  0  0
   -4.0196    0.9364    3.4129 C   0  0  0  0  0  0  0  0  0  0  0  0
   -4.0435   -0.4305    3.6913 C   0  0  0  0  0  0  0  0  0  0  0  0
   -3.9104   -1.3516    2.6544 C   0  0  0  0  0  0  0  0  0  0  0  0
   -3.7477   -0.8870    1.3400 C   0  0  0  0  0  0  0  0  0  0  0  0
   -3.6442   -1.8857    0.2896 N   0  0  0  0  0  4  0  0  0  0  0  0
   -2.6373   -1.8730   -0.4324 O   0  0  0  0  0  0  0  0  0  0  0  0
   -4.5733   -2.7021    0.2023 O   0  0  0  0  0  1  0  0  0  0  0  0
   -0.1266    0.8273   -1.2645 N   0  0  0  0  0  0  0  0  0  0  0  0
    1.2710    0.7003   -0.8944 C   0  0  0  0  0  0  0  0  0  0  0  0
    2.0182   -0.2510   -1.8289 C   0  0  0  0  0  0  0  0  0  0  0  0
    3.4794   -0.3634   -1.4708 C   0  0  0  0  0  0  0  0  0  0  0  0
    3.9159   -1.3551   -0.5788 C   0  0  0  0  0  0  0  0  0  0  0  0
    5.2649   -1.4471   -0.2330 C   0  0  0  0  0  0  0  0  0  0  0  0
    6.1746   -0.5464   -0.7742 C   0  0  0  0  0  0  0  0  0  0  0  0
    7.4692   -0.6345   -0.4409 F   0  0  0  0  0  0  0  0  0  0  0  0
    5.7611    0.4466   -1.6544 C   0  0  0  0  0  0  0  0  0  0  0  0
    4.4128    0.5403   -2.0026 C   0  0  0  0  0  0  0  0  0  0  0  0
   -2.4543    1.6727   -1.9599 H   0  0  0  0  0  0  0  0  0  0  0  0
   -4.5312    1.1923   -0.8457 H   0  0  0  0  0  0  0  0  0  0  0  0
   -3.8379    2.4621    1.9115 H   0  0  0  0  0  0  0  0  0  0  0  0
   -4.1131    1.6565    4.2232 H   0  0  0  0  0  0  0  0  0  0  0  0
   -4.1612   -0.7742    4.7163 H   0  0  0  0  0  0  0  0  0  0  0  0
   -3.9311   -2.4170    2.8719 H   0  0  0  0  0  0  0  0  0  0  0  0
   -0.3758    0.7827   -2.2430 H   0  0  0  0  0  0  0  0  0  0  0  0
    1.3438    0.3576    0.1446 H   0  0  0  0  0  0  0  0  0  0  0  0
    1.7039    1.7070   -0.9369 H   0  0  0  0  0  0  0  0  0  0  0  0
    1.9232    0.0878   -2.8690 H   0  0  0  0  0  0  0  0  0  0  0  0
    1.5530   -1.2454   -1.8023 H   0  0  0  0  0  0  0  0  0  0  0  0
    3.2072   -2.0598   -0.1478 H   0  0  0  0  0  0  0  0  0  0  0  0
    5.6104   -2.2122    0.4550 H   0  0  0  0  0  0  0  0  0  0  0  0
    6.4897    1.1409   -2.0612 H   0  0  0  0  0  0  0  0  0  0  0  0
    4.0954    1.3221   -2.6895 H   0  0  0  0  0  0  0  0  0  0  0  0
  1  2  2  0
  2  3  1  0
  3  4  2  3
  4  5  1  0
  5  6  2  0
  6  7  1  0
  7  8  2  0
  8  9  1  0
  9 10  2  0
 10 11  1  0
 11 12  2  0
 11 13  1  0
  2 14  1  0
 14 15  1  0
 15 16  1  0
 16 17  1  0
 17 18  2  0
 18 19  1  0
 19 20  2  0
 20 21  1  0
 20 22  1  0
 22 23  2  0
 10  5  1  0
 23 17  1  0
  3 24  1  0
  4 25  1  0
  6 26  1  0
  7 27  1  0
  8 28  1  0
  9 29  1  0
 14 30  1  0
 15 31  1  0
 15 32  1  0
 16 33  1  0
 16 34  1  0
 18 35  1  0
 19 36  1  0
 22 37  1  0
 23 38  1  0
M  CHG  2  11   1  13  -1
M  END
$$$$
