
     RDKit          3D

 48 49  0  0  0  0  0  0  0  0999 V2000
   -4.6299    2.1696   -0.4057 C   0  0  0  0  0  0  0  0  0  0  0  0
   -4.8807    0.9921    0.5238 C   0  0  0  0  0  0  0  0  0  0  0  0
   -5.2115   -0.2275   -0.2190 N   0  0  0  0  0  0  0  0  0  0  0  0
   -6.6163   -0.4366   -0.5659 C   0  0  0  0  0  0  0  0  0  0  0  0
   -7.3328   -1.2632    0.4899 C   0  0  0  0  0  0  0  0  0  0  0  0
   -4.2812   -1.1561   -0.6870 C   0  0  0  0  0  0  0  0  0  0  0  0
   -4.5672   -2.1213   -1.3910 O   0  0  0  0  0  0  0  0  0  0  0  0
   -2.8607   -0.9809   -0.3333 C   0  0  0  0  0  0  0  0  0  0  0  0
   -1.9629   -0.5555   -1.3117 C   0  0  0  0  0  0  0  0  0  0  0  0
   -0.6113   -0.4121   -0.9881 C   0  0  0  0  0  0  0  0  0  0  0  0
   -0.1499   -0.7039    0.3043 C   0  0  0  0  0  0  0  0  0  0  0  0
    1.2248   -0.5317    0.5443 N   0  0  0  0  0  0  0  0  0  0  0  0
    1.9212   -0.7271    1.7231 C   0  0  0  0  0  0  0  0  0  0  0  0
    1.4535   -1.0801    2.8022 O   0  0  0  0  0  0  0  0  0  0  0  0
    3.4233   -0.4565    1.5819 C   0  0  0  0  0  0  0  0  0  0  0  0
    3.7354    0.0002    0.2686 O   0  0  0  0  0  0  0  0  0  0  0  0
    5.0417    0.2839   -0.0258 C   0  0  0  0  0  0  0  0  0  0  0  0
    6.1048    0.1612    0.8750 C   0  0  0  0  0  0  0  0  0  0  0  0
    7.4093    0.4772    0.4766 C   0  0  0  0  0  0  0  0  0  0  0  0
    7.6521    0.9186   -0.8307 C   0  0  0  0  0  0  0  0  0  0  0  0
    9.0211    1.2499   -1.2451 N   0  0  0  0  0  4  0  0  0  0  0  0
    9.1913    1.6382   -2.4087 O   0  0  0  0  0  0  0  0  0  0  0  0
    9.9223    1.1213   -0.4051 O   0  0  0  0  0  1  0  0  0  0  0  0
    6.6016    1.0468   -1.7438 C   0  0  0  0  0  0  0  0  0  0  0  0
    5.3044    0.7289   -1.3353 C   0  0  0  0  0  0  0  0  0  0  0  0
    4.0251    0.8986   -2.4891 Cl  0  0  0  0  0  0  0  0  0  0  0  0
   -1.0584   -1.1524    1.2675 C   0  0  0  0  0  0  0  0  0  0  0  0
   -2.4125   -1.3004    0.9494 C   0  0  0  0  0  0  0  0  0  0  0  0
   -4.3869    3.0653    0.1741 H   0  0  0  0  0  0  0  0  0  0  0  0
   -3.7980    1.9679   -1.0873 H   0  0  0  0  0  0  0  0  0  0  0  0
   -5.5128    2.3878   -1.0151 H   0  0  0  0  0  0  0  0  0  0  0  0
   -3.9964    0.8336    1.1444 H   0  0  0  0  0  0  0  0  0  0  0  0
   -5.7074    1.2180    1.2067 H   0  0  0  0  0  0  0  0  0  0  0  0
   -6.6848   -0.9497   -1.5317 H   0  0  0  0  0  0  0  0  0  0  0  0
   -7.1056    0.5363   -0.6848 H   0  0  0  0  0  0  0  0  0  0  0  0
   -8.3811   -1.4095    0.2121 H   0  0  0  0  0  0  0  0  0  0  0  0
   -6.8672   -2.2479    0.6020 H   0  0  0  0  0  0  0  0  0  0  0  0
   -7.3029   -0.7674    1.4655 H   0  0  0  0  0  0  0  0  0  0  0  0
   -2.3119   -0.3432   -2.3191 H   0  0  0  0  0  0  0  0  0  0  0  0
    0.0753   -0.0764   -1.7618 H   0  0  0  0  0  0  0  0  0  0  0  0
    1.7930   -0.2178   -0.2391 H   0  0  0  0  0  0  0  0  0  0  0  0
    3.9416   -1.3997    1.7883 H   0  0  0  0  0  0  0  0  0  0  0  0
    3.6840    0.3110    2.3194 H   0  0  0  0  0  0  0  0  0  0  0  0
    5.9578   -0.1774    1.8969 H   0  0  0  0  0  0  0  0  0  0  0  0
    8.2206    0.3736    1.1962 H   0  0  0  0  0  0  0  0  0  0  0  0
    6.7783    1.3885   -2.7615 H   0  0  0  0  0  0  0  0  0  0  0  0
   -0.7433   -1.4069    2.2748 H   0  0  0  0  0  0  0  0  0  0  0  0
   -3.1090   -1.6674    1.6989 H   0  0  0  0  0  0  0  0  0  0  0  0
  1  2  1  0
  2  3  1  0
  3  4  1  0
  4  5  1  0
  3  6  1  0
  6  7  2  0
  6  8  1  0
  8  9  2  0
  9 10  1  0
 10 11  2  0
 11 12  1  0
 12 13  1  0
 13 14  2  0
 13 15  1  0
 15 16  1  0
 16 17  1  0
 17 18  2  0
 18 19  1  0
 19 20  2  0
 20 21  1  0
 21 22  2  0
 21 23  1  0
 20 24  1  0
 24 25  2  0
 25 26  1  0
 11 27  1  0
 27 28  2  0
 28  8  1  0
 25 17  1  0
  1 29  1  0
  1 30  1  0
  1 31  1  0
  2 32  1  0
  2 33  1  0
  4 34  1  0
  4 35  1  0
  5 36  1  0
  5 37  1  0
  5 38  1  0
  9 39  1  0
 10 40  1  0
 12 41  1  0
 15 42  1  0
 15 43  1  0
 18 44  1  0
 19 45  1  0
 24 46  1  0
 27 47  1  0
 28 48  1  0
M  CHG  2  21   1  23  -1
M  END
$$$$
