
     RDKit          3D

 45 47  0  0  0  0  0  0  0  0999 V2000
    6.9199   -0.5714    1.6230 C   0  0  0  0  0  0  0  0  0  0  0  0
    6.5681    0.0220    0.2677 C   0  0  0  0  0  0  0  0  0  0  0  0
    6.0122   -1.0037   -0.7261 C   0  0  0  0  0  0  0  0  0  0  0  0
    4.7119   -1.6935   -0.3027 C   0  0  0  0  0  0  0  0  0  0  0  0
    3.5696   -0.7433   -0.1489 C   0  0  0  0  0  0  0  0  0  0  0  0
    3.1872   -0.2082    0.9923 N   0  0  0  0  0  0  0  0  0  0  0  0
    2.1028    0.6305    0.8302 N   0  0  0  0  0  0  0  0  0  0  0  0
    1.7043    0.6913   -0.4209 C   0  0  0  0  0  0  0  0  0  0  0  0
    0.6425    1.4642   -0.8104 N   0  0  0  0  0  0  0  0  0  0  0  0
    0.1105    1.5789   -2.0741 C   0  0  0  0  0  0  0  0  0  0  0  0
    0.5080    1.0345   -3.0992 O   0  0  0  0  0  0  0  0  0  0  0  0
   -1.0810    2.5432   -2.1200 C   0  0  0  0  0  0  0  0  0  0  0  0
   -1.7456    2.7243   -0.8749 O   0  0  0  0  0  0  0  0  0  0  0  0
   -2.6523    1.7775   -0.4854 C   0  0  0  0  0  0  0  0  0  0  0  0
   -3.3309    2.0785    0.6987 C   0  0  0  0  0  0  0  0  0  0  0  0
   -4.2799    1.1965    1.2319 C   0  0  0  0  0  0  0  0  0  0  0  0
   -4.5680   -0.0107    0.5892 C   0  0  0  0  0  0  0  0  0  0  0  0
   -5.5474   -0.9856    1.0868 C   0  0  0  0  0  0  0  0  0  0  0  0
   -6.3073   -0.7153    2.3516 C   0  0  0  0  0  0  0  0  0  0  0  0
   -5.7378   -2.1118    0.3837 C   0  0  0  0  0  0  0  0  0  0  0  0
   -5.0192   -2.4239   -0.8612 C   0  0  0  0  0  0  0  0  0  0  0  0
   -5.2365   -3.4681   -1.4646 O   0  0  0  0  0  0  0  0  0  0  0  0
   -4.1019   -1.4872   -1.3042 O   0  0  0  0  0  0  0  0  0  0  0  0
   -3.8764   -0.2925   -0.5904 C   0  0  0  0  0  0  0  0  0  0  0  0
   -2.9259    0.5782   -1.1349 C   0  0  0  0  0  0  0  0  0  0  0  0
    2.6189   -0.2608   -1.4956 S   0  0  0  0  0  0  0  0  0  0  0  0
    7.4085    0.1834    2.2476 H   0  0  0  0  0  0  0  0  0  0  0  0
    6.0278   -0.9133    2.1557 H   0  0  0  0  0  0  0  0  0  0  0  0
    7.6059   -1.4175    1.5157 H   0  0  0  0  0  0  0  0  0  0  0  0
    5.8601    0.8472    0.4026 H   0  0  0  0  0  0  0  0  0  0  0  0
    7.4756    0.4609   -0.1646 H   0  0  0  0  0  0  0  0  0  0  0  0
    6.7730   -1.7761   -0.8958 H   0  0  0  0  0  0  0  0  0  0  0  0
    5.8635   -0.5021   -1.6908 H   0  0  0  0  0  0  0  0  0  0  0  0
    4.8590   -2.2372    0.6375 H   0  0  0  0  0  0  0  0  0  0  0  0
    4.4574   -2.4558   -1.0500 H   0  0  0  0  0  0  0  0  0  0  0  0
    0.1838    1.9530   -0.0502 H   0  0  0  0  0  0  0  0  0  0  0  0
   -1.7799    2.2482   -2.9112 H   0  0  0  0  0  0  0  0  0  0  0  0
   -0.6760    3.5204   -2.4077 H   0  0  0  0  0  0  0  0  0  0  0  0
   -3.1234    3.0129    1.2170 H   0  0  0  0  0  0  0  0  0  0  0  0
   -4.7799    1.4795    2.1545 H   0  0  0  0  0  0  0  0  0  0  0  0
   -6.9042    0.1983    2.2591 H   0  0  0  0  0  0  0  0  0  0  0  0
   -5.6241   -0.6084    3.2008 H   0  0  0  0  0  0  0  0  0  0  0  0
   -6.9988   -1.5302    2.5933 H   0  0  0  0  0  0  0  0  0  0  0  0
   -6.4451   -2.8719    0.6966 H   0  0  0  0  0  0  0  0  0  0  0  0
   -2.4293    0.2791   -2.0518 H   0  0  0  0  0  0  0  0  0  0  0  0
  1  2  1  0
  2  3  1  0
  3  4  1  0
  4  5  1  0
  5  6  2  0
  6  7  1  0
  7  8  2  0
  8  9  1  0
  9 10  1  0
 10 11  2  0
 10 12  1  0
 12 13  1  0
 13 14  1  0
 14 15  2  0
 15 16  1  0
 16 17  2  0
 17 18  1  0
 18 19  1  0
 18 20  2  0
 20 21  1  0
 21 22  2  0
 21 23  1  0
 23 24  1  0
 24 25  2  0
  8 26  1  0
 26  5  1  0
 25 14  1  0
 24 17  1  0
  1 27  1  0
  1 28  1  0
  1 29  1  0
  2 30  1  0
  2 31  1  0
  3 32  1  0
  3 33  1  0
  4 34  1  0
  4 35  1  0
  9 36  1  0
 12 37  1  0
 12 38  1  0
 15 39  1  0
 16 40  1  0
 19 41  1  0
 19 42  1  0
 19 43  1  0
 20 44  1  0
 25 45  1  0
M  END
$$$$
