
     RDKit          3D

 44 46  0  0  0  0  0  0  0  0999 V2000
    7.1034    4.7077    3.1113 C   0  0  0  0  0  0  0  0  0  0  0  0
    7.0560    4.0917    1.8310 O   0  0  0  0  0  0  0  0  0  0  0  0
    5.9020    3.4390    1.5001 C   0  0  0  0  0  0  0  0  0  0  0  0
    5.8788    2.9103    0.2097 C   0  0  0  0  0  0  0  0  0  0  0  0
    4.7557    2.2216   -0.2613 C   0  0  0  0  0  0  0  0  0  0  0  0
    3.6284    2.0467    0.5512 C   0  0  0  0  0  0  0  0  0  0  0  0
    2.4446    1.3413    0.0712 C   0  0  0  0  0  0  0  0  0  0  0  0
    1.2615    0.9302    0.6379 C   0  0  0  0  0  0  0  0  0  0  0  0
    0.5446    0.3072   -0.4152 C   0  0  0  0  0  0  0  0  0  0  0  0
   -0.7854   -0.3114   -0.3458 C   0  0  0  0  0  0  0  0  0  0  0  0
   -1.4091   -0.3462    0.7092 O   0  0  0  0  0  0  0  0  0  0  0  0
   -1.2011   -0.8172   -1.5639 N   0  0  0  0  0  0  0  0  0  0  0  0
   -2.4017   -1.4824   -1.8762 C   0  0  0  0  0  0  0  0  0  0  0  0
   -2.5728   -1.8860   -3.2047 C   0  0  0  0  0  0  0  0  0  0  0  0
   -3.7308   -2.5581   -3.5945 C   0  0  0  0  0  0  0  0  0  0  0  0
   -4.7201   -2.8454   -2.6545 C   0  0  0  0  0  0  0  0  0  0  0  0
   -5.8325   -3.4909   -3.1346 O   0  0  0  0  0  0  0  0  0  0  0  0
   -5.9866   -4.7831   -2.5487 C   0  0  0  0  0  0  0  0  0  0  0  0
   -4.5860   -2.4184   -1.3241 C   0  0  0  0  0  0  0  0  0  0  0  0
   -5.6368   -2.6831   -0.4847 O   0  0  0  0  0  0  0  0  0  0  0  0
   -5.5600   -2.1909    0.8465 C   0  0  0  0  0  0  0  0  0  0  0  0
   -3.4153   -1.7446   -0.9448 C   0  0  0  0  0  0  0  0  0  0  0  0
    1.2531    0.3404   -1.5582 N   0  0  0  0  0  0  0  0  0  0  0  0
    2.4363    0.9855   -1.2472 O   0  0  0  0  0  0  0  0  0  0  0  0
    3.6659    2.5729    1.8508 C   0  0  0  0  0  0  0  0  0  0  0  0
    4.7915    3.2631    2.3228 C   0  0  0  0  0  0  0  0  0  0  0  0
    6.3175    5.4632    3.2181 H   0  0  0  0  0  0  0  0  0  0  0  0
    8.0685    5.2155    3.2015 H   0  0  0  0  0  0  0  0  0  0  0  0
    7.0439    3.9610    3.9097 H   0  0  0  0  0  0  0  0  0  0  0  0
    6.7424    3.0375   -0.4397 H   0  0  0  0  0  0  0  0  0  0  0  0
    4.7790    1.8297   -1.2766 H   0  0  0  0  0  0  0  0  0  0  0  0
    0.9389    1.0521    1.6611 H   0  0  0  0  0  0  0  0  0  0  0  0
   -0.5336   -0.6859   -2.3203 H   0  0  0  0  0  0  0  0  0  0  0  0
   -1.8143   -1.6801   -3.9549 H   0  0  0  0  0  0  0  0  0  0  0  0
   -3.8637   -2.8617   -4.6291 H   0  0  0  0  0  0  0  0  0  0  0  0
   -6.4896   -4.7212   -1.5772 H   0  0  0  0  0  0  0  0  0  0  0  0
   -6.6267   -5.3719   -3.2145 H   0  0  0  0  0  0  0  0  0  0  0  0
   -5.0271   -5.3100   -2.4584 H   0  0  0  0  0  0  0  0  0  0  0  0
   -5.4987   -1.0980    0.8650 H   0  0  0  0  0  0  0  0  0  0  0  0
   -6.4805   -2.4800    1.3622 H   0  0  0  0  0  0  0  0  0  0  0  0
   -4.7232   -2.6436    1.3894 H   0  0  0  0  0  0  0  0  0  0  0  0
   -3.2965   -1.4169    0.0800 H   0  0  0  0  0  0  0  0  0  0  0  0
    2.8160    2.4599    2.5199 H   0  0  0  0  0  0  0  0  0  0  0  0
    4.7644    3.6503    3.3362 H   0  0  0  0  0  0  0  0  0  0  0  0
  1  2  1  0
  2  3  1  0
  3  4  2  0
  4  5  1  0
  5  6  2  0
  6  7  1  0
  7  8  2  0
  8  9  1  0
  9 10  1  0
 10 11  2  0
 10 12  1  0
 12 13  1  0
 13 14  2  0
 14 15  1  0
 15 16  2  0
 16 17  1  0
 17 18  1  0
 16 19  1  0
 19 20  1  0
 20 21  1  0
 19 22  2  0
  9 23  2  0
 23 24  1  0
  6 25  1  0
 25 26  2  0
 26  3  1  0
 24  7  1  0
 22 13  1  0
  1 27  1  0
  1 28  1  0
  1 29  1  0
  4 30  1  0
  5 31  1  0
  8 32  1  0
 12 33  1  0
 14 34  1  0
 15 35  1  0
 18 36  1  0
 18 37  1  0
 18 38  1  0
 21 39  1  0
 21 40  1  0
 21 41  1  0
 22 42  1  0
 25 43  1  0
 26 44  1  0
M  END
$$$$
