
     RDKit          3D

 56 58  0  0  0  0  0  0  0  0999 V2000
    7.4242    0.9552   -1.5818 C   0  0  0  0  0  0  0  0  0  0  0  0
    6.8856    0.7908   -2.8904 O   0  0  0  0  0  0  0  0  0  0  0  0
    5.5603    0.4601   -2.9731 C   0  0  0  0  0  0  0  0  0  0  0  0
    5.0709    0.3532   -4.2760 C   0  0  0  0  0  0  0  0  0  0  0  0
    3.7359    0.0196   -4.5156 C   0  0  0  0  0  0  0  0  0  0  0  0
    2.8749   -0.2132   -3.4420 C   0  0  0  0  0  0  0  0  0  0  0  0
    1.5493   -0.5632   -3.5531 O   0  0  0  0  0  0  0  0  0  0  0  0
    1.0122   -0.6448   -4.8697 C   0  0  0  0  0  0  0  0  0  0  0  0
    3.3608   -0.1043   -2.1213 C   0  0  0  0  0  0  0  0  0  0  0  0
    2.4313   -0.3507   -1.0845 N   0  0  0  0  0  0  0  0  0  0  0  0
    2.6339   -0.3212    0.2818 C   0  0  0  0  0  0  0  0  0  0  0  0
    3.6872   -0.0497    0.8522 O   0  0  0  0  0  0  0  0  0  0  0  0
    1.3818   -0.6662    1.0696 C   0  0  0  0  0  0  0  0  0  0  0  0
    0.4173    0.8446    1.3525 S   0  0  0  0  0  0  0  0  0  0  0  0
   -1.0071    0.1801    2.1310 C   0  0  0  0  0  0  0  0  0  0  0  0
   -1.0042   -1.0790    2.4247 N   0  0  0  0  0  0  0  0  0  0  0  0
   -2.1311   -1.6296    3.0369 C   0  0  0  0  0  0  0  0  0  0  0  0
   -2.1287   -2.9886    3.3614 C   0  0  0  0  0  0  0  0  0  0  0  0
   -3.2414   -3.5779    3.9698 C   0  0  0  0  0  0  0  0  0  0  0  0
   -4.3682   -2.8095    4.2584 C   0  0  0  0  0  0  0  0  0  0  0  0
   -4.3827   -1.4522    3.9376 C   0  0  0  0  0  0  0  0  0  0  0  0
   -3.2615   -0.8742    3.3280 C   0  0  0  0  0  0  0  0  0  0  0  0
   -3.2374    0.5527    2.9715 C   0  0  0  0  0  0  0  0  0  0  0  0
   -4.2469    1.2356    3.1681 O   0  0  0  0  0  0  0  0  0  0  0  0
   -2.0572    1.0422    2.4092 N   0  0  0  0  0  0  0  0  0  0  0  0
   -2.0619    2.4682    2.0531 C   0  0  0  0  0  0  0  0  0  0  0  0
   -2.5134    2.7428    0.6064 C   0  0  0  0  0  0  0  0  0  0  0  0
   -3.8022    2.1504    0.2831 N   0  0  0  0  0  0  0  0  0  0  0  0
   -3.8905    0.9220   -0.3362 C   0  0  0  0  0  0  0  0  0  0  0  0
   -5.2933    0.3909   -0.4551 C   0  0  0  0  0  0  0  0  0  0  0  0
   -2.9207    0.2933   -0.7494 O   0  0  0  0  0  0  0  0  0  0  0  0
    4.7012    0.2293   -1.8964 C   0  0  0  0  0  0  0  0  0  0  0  0
    6.9186    1.7661   -1.0466 H   0  0  0  0  0  0  0  0  0  0  0  0
    7.3815    0.0182   -1.0175 H   0  0  0  0  0  0  0  0  0  0  0  0
    8.4784    1.2299   -1.6859 H   0  0  0  0  0  0  0  0  0  0  0  0
    5.7395    0.5317   -5.1159 H   0  0  0  0  0  0  0  0  0  0  0  0
    3.4083   -0.0525   -5.5462 H   0  0  0  0  0  0  0  0  0  0  0  0
    1.0631    0.3238   -5.3802 H   0  0  0  0  0  0  0  0  0  0  0  0
   -0.0418   -0.9201   -4.7831 H   0  0  0  0  0  0  0  0  0  0  0  0
    1.5119   -1.4284   -5.4507 H   0  0  0  0  0  0  0  0  0  0  0  0
    1.4941   -0.5550   -1.4243 H   0  0  0  0  0  0  0  0  0  0  0  0
    0.7977   -1.4055    0.5139 H   0  0  0  0  0  0  0  0  0  0  0  0
    1.6876   -1.1179    2.0187 H   0  0  0  0  0  0  0  0  0  0  0  0
   -1.2517   -3.5902    3.1347 H   0  0  0  0  0  0  0  0  0  0  0  0
   -3.2275   -4.6374    4.2157 H   0  0  0  0  0  0  0  0  0  0  0  0
   -5.2337   -3.2673    4.7324 H   0  0  0  0  0  0  0  0  0  0  0  0
   -5.2618   -0.8501    4.1620 H   0  0  0  0  0  0  0  0  0  0  0  0
   -1.0710    2.9061    2.2257 H   0  0  0  0  0  0  0  0  0  0  0  0
   -2.7391    3.0021    2.7353 H   0  0  0  0  0  0  0  0  0  0  0  0
   -2.6174    3.8237    0.4633 H   0  0  0  0  0  0  0  0  0  0  0  0
   -1.7642    2.3856   -0.1092 H   0  0  0  0  0  0  0  0  0  0  0  0
   -4.6050    2.4612    0.8271 H   0  0  0  0  0  0  0  0  0  0  0  0
   -5.4701    0.0760   -1.4865 H   0  0  0  0  0  0  0  0  0  0  0  0
   -6.0367    1.1499   -0.1958 H   0  0  0  0  0  0  0  0  0  0  0  0
   -5.4105   -0.4648    0.2151 H   0  0  0  0  0  0  0  0  0  0  0  0
    5.0713    0.3083   -0.8827 H   0  0  0  0  0  0  0  0  0  0  0  0
  1  2  1  0
  2  3  1  0
  3  4  2  0
  4  5  1  0
  5  6  2  0
  6  7  1  0
  7  8  1  0
  6  9  1  0
  9 10  1  0
 10 11  1  0
 11 12  2  0
 11 13  1  0
 13 14  1  0
 14 15  1  0
 15 16  2  0
 16 17  1  0
 17 18  2  0
 18 19  1  0
 19 20  2  0
 20 21  1  0
 21 22  2  0
 22 23  1  0
 23 24  2  0
 23 25  1  0
 25 26  1  0
 26 27  1  0
 27 28  1  0
 28 29  1  0
 29 30  1  0
 29 31  2  0
  9 32  2  0
 32  3  1  0
 25 15  1  0
 22 17  1  0
  1 33  1  0
  1 34  1  0
  1 35  1  0
  4 36  1  0
  5 37  1  0
  8 38  1  0
  8 39  1  0
  8 40  1  0
 10 41  1  0
 13 42  1  0
 13 43  1  0
 18 44  1  0
 19 45  1  0
 20 46  1  0
 21 47  1  0
 26 48  1  0
 26 49  1  0
 27 50  1  0
 27 51  1  0
 28 52  1  0
 30 53  1  0
 30 54  1  0
 30 55  1  0
 32 56  1  0
M  END
$$$$
