
     RDKit          3D

 74 75  0  0  0  0  0  0  0  0999 V2000
    2.4496    5.8042    0.9016 C   0  0  0  0  0  0  0  0  0  0  0  0
    2.2329    4.4592    1.3074 O   0  0  0  0  0  0  0  0  0  0  0  0
    0.9308    4.0358    1.4041 C   0  0  0  0  0  0  0  0  0  0  0  0
   -0.1260    4.9268    1.6160 C   0  0  0  0  0  0  0  0  0  0  0  0
   -1.4317    4.4619    1.6445 C   0  0  0  0  0  0  0  0  0  0  0  0
   -1.6962    3.1017    1.4939 C   0  0  0  0  0  0  0  0  0  0  0  0
   -0.6633    2.1499    1.3619 C   0  0  0  0  0  0  0  0  0  0  0  0
   -0.9844    0.6531    1.1595 C   0  0  0  0  0  0  0  0  0  0  0  0
   -2.4544    0.1505    1.3962 C   0  0  0  0  0  0  0  0  0  0  0  0
   -3.3175    0.7621    2.0215 O   0  0  0  0  0  0  0  0  0  0  0  0
   -2.7183   -1.0797    0.8012 N   0  0  0  0  0  0  0  0  0  0  0  0
   -4.0406   -1.7271    0.7500 C   0  0  0  0  0  0  0  0  0  0  0  0
   -5.0400   -0.8519   -0.0256 C   0  0  0  0  0  0  0  0  0  0  0  0
   -3.8888   -3.0642   -0.0050 C   0  0  0  0  0  0  0  0  0  0  0  0
   -4.5949   -2.0216    2.1534 C   0  0  0  0  0  0  0  0  0  0  0  0
   -0.0456   -0.3368    1.7997 N   0  0  0  0  0  0  0  0  0  0  0  0
    0.5812   -1.3112    0.9993 C   0  0  0  0  0  0  0  0  0  0  0  0
    0.9988   -2.3793    1.4487 O   0  0  0  0  0  0  0  0  0  0  0  0
    0.7106   -1.0461   -0.4954 C   0  0  0  0  0  0  0  0  0  0  0  0
    1.6583   -2.0326   -1.1750 C   0  0  0  0  0  0  0  0  0  0  0  0
    1.9320   -1.6336   -2.6124 C   0  0  0  0  0  0  0  0  0  0  0  0
    1.3878   -0.6669   -3.1408 O   0  0  0  0  0  0  0  0  0  0  0  0
    2.8317   -2.4796   -3.2241 N   0  0  0  0  0  0  0  0  0  0  0  0
    3.2499   -2.3761   -4.5339 C   0  0  0  0  0  0  0  0  0  0  0  0
    2.8830   -1.4310   -5.5158 C   0  0  0  0  0  0  0  0  0  0  0  0
    3.5468   -1.8331   -6.6500 C   0  0  0  0  0  0  0  0  0  0  0  0
    3.5959   -1.3366   -8.0319 C   0  0  0  0  0  0  0  0  0  0  0  0
    4.2922   -2.9335   -6.3631 O   0  0  0  0  0  0  0  0  0  0  0  0
    4.1195   -3.2635   -5.0287 N   0  0  0  0  0  0  0  0  0  0  0  0
   -0.0493   -0.5185    3.3088 C   0  0  0  0  0  0  0  0  0  0  0  0
    1.3732   -0.8420    3.8404 C   0  0  0  0  0  0  0  0  0  0  0  0
   -0.4812    0.7429    4.0924 C   0  0  0  0  0  0  0  0  0  0  0  0
   -0.9854   -1.6694    3.7311 C   0  0  0  0  0  0  0  0  0  0  0  0
    0.6662    2.6481    1.2907 C   0  0  0  0  0  0  0  0  0  0  0  0
    1.6398    1.7162    1.0053 O   0  0  0  0  0  0  0  0  0  0  0  0
    2.8970    1.8810    1.6542 C   0  0  0  0  0  0  0  0  0  0  0  0
    1.8892    6.0412   -0.0114 H   0  0  0  0  0  0  0  0  0  0  0  0
    2.2103    6.5014    1.7137 H   0  0  0  0  0  0  0  0  0  0  0  0
    3.5153    5.9186    0.6714 H   0  0  0  0  0  0  0  0  0  0  0  0
    0.0382    5.9901    1.7488 H   0  0  0  0  0  0  0  0  0  0  0  0
   -2.2558    5.1620    1.7696 H   0  0  0  0  0  0  0  0  0  0  0  0
   -2.7470    2.8193    1.4809 H   0  0  0  0  0  0  0  0  0  0  0  0
   -0.8996    0.5717    0.0706 H   0  0  0  0  0  0  0  0  0  0  0  0
   -1.9173   -1.6807    0.6631 H   0  0  0  0  0  0  0  0  0  0  0  0
   -5.2192    0.1087    0.4736 H   0  0  0  0  0  0  0  0  0  0  0  0
   -4.6667   -0.6403   -1.0327 H   0  0  0  0  0  0  0  0  0  0  0  0
   -6.0101   -1.3539   -0.1282 H   0  0  0  0  0  0  0  0  0  0  0  0
   -4.8548   -3.5661   -0.1246 H   0  0  0  0  0  0  0  0  0  0  0  0
   -3.4621   -2.9133   -1.0000 H   0  0  0  0  0  0  0  0  0  0  0  0
   -3.2274   -3.7499    0.5370 H   0  0  0  0  0  0  0  0  0  0  0  0
   -3.8901   -2.6121    2.7461 H   0  0  0  0  0  0  0  0  0  0  0  0
   -5.5356   -2.5838    2.0888 H   0  0  0  0  0  0  0  0  0  0  0  0
   -4.8088   -1.1016    2.7079 H   0  0  0  0  0  0  0  0  0  0  0  0
    1.0829   -0.0313   -0.6536 H   0  0  0  0  0  0  0  0  0  0  0  0
   -0.2767   -1.1430   -0.9640 H   0  0  0  0  0  0  0  0  0  0  0  0
    1.2089   -3.0305   -1.1801 H   0  0  0  0  0  0  0  0  0  0  0  0
    2.6103   -2.0889   -0.6361 H   0  0  0  0  0  0  0  0  0  0  0  0
    3.2281   -3.2631   -2.7195 H   0  0  0  0  0  0  0  0  0  0  0  0
    2.1915   -0.6067   -5.4355 H   0  0  0  0  0  0  0  0  0  0  0  0
    2.8795   -1.8793   -8.6511 H   0  0  0  0  0  0  0  0  0  0  0  0
    3.3509   -0.2715   -8.0732 H   0  0  0  0  0  0  0  0  0  0  0  0
    4.5955   -1.4677   -8.4579 H   0  0  0  0  0  0  0  0  0  0  0  0
    1.7200   -1.8409    3.5639 H   0  0  0  0  0  0  0  0  0  0  0  0
    2.1081   -0.1241    3.4681 H   0  0  0  0  0  0  0  0  0  0  0  0
    1.4061   -0.8031    4.9355 H   0  0  0  0  0  0  0  0  0  0  0  0
    0.2373    1.5557    3.9505 H   0  0  0  0  0  0  0  0  0  0  0  0
   -1.4680    1.1078    3.8146 H   0  0  0  0  0  0  0  0  0  0  0  0
   -0.5154    0.5432    5.1724 H   0  0  0  0  0  0  0  0  0  0  0  0
   -0.8916   -1.8776    4.8030 H   0  0  0  0  0  0  0  0  0  0  0  0
   -0.7766   -2.6019    3.1981 H   0  0  0  0  0  0  0  0  0  0  0  0
   -2.0346   -1.4160    3.5545 H   0  0  0  0  0  0  0  0  0  0  0  0
    2.7990    2.2873    2.6698 H   0  0  0  0  0  0  0  0  0  0  0  0
    3.3589    0.8922    1.7371 H   0  0  0  0  0  0  0  0  0  0  0  0
    3.5679    2.4887    1.0383 H   0  0  0  0  0  0  0  0  0  0  0  0
  1  2  1  0
  2  3  1  0
  3  4  2  0
  4  5  1  0
  5  6  2  0
  6  7  1  0
  7  8  1  0
  8  9  1  0
  9 10  2  0
  9 11  1  0
 11 12  1  0
 12 13  1  0
 12 14  1  0
 12 15  1  0
  8 16  1  0
 16 17  1  0
 17 18  2  0
 17 19  1  0
 19 20  1  0
 20 21  1  0
 21 22  2  0
 21 23  1  0
 23 24  1  0
 24 25  1  0
 25 26  2  0
 26 27  1  0
 26 28  1  0
 28 29  1  0
 16 30  1  0
 30 31  1  0
 30 32  1  0
 30 33  1  0
  7 34  2  0
 34 35  1  0
 35 36  1  0
 34  3  1  0
 29 24  2  0
  1 37  1  0
  1 38  1  0
  1 39  1  0
  4 40  1  0
  5 41  1  0
  6 42  1  0
  8 43  1  0
 11 44  1  0
 13 45  1  0
 13 46  1  0
 13 47  1  0
 14 48  1  0
 14 49  1  0
 14 50  1  0
 15 51  1  0
 15 52  1  0
 15 53  1  0
 19 54  1  0
 19 55  1  0
 20 56  1  0
 20 57  1  0
 23 58  1  0
 25 59  1  0
 27 60  1  0
 27 61  1  0
 27 62  1  0
 31 63  1  0
 31 64  1  0
 31 65  1  0
 32 66  1  0
 32 67  1  0
 32 68  1  0
 33 69  1  0
 33 70  1  0
 33 71  1  0
 36 72  1  0
 36 73  1  0
 36 74  1  0
M  END
$$$$
