
     RDKit          3D

 36 37  0  0  0  0  0  0  0  0999 V2000
   -0.1098   -0.4739   -1.5227 O   0  0  0  0  0  0  0  0  0  0  0  0
   -0.4662    0.2750   -0.6233 C   0  0  0  0  0  0  0  0  0  0  0  0
   -1.8886    0.4610   -0.2453 C   0  0  0  0  0  0  0  0  0  0  0  0
   -2.8316   -0.3094   -0.8087 C   0  0  0  0  0  0  0  0  0  0  0  0
   -4.2600   -0.1850   -0.4821 C   0  0  0  0  0  0  0  0  0  0  0  0
   -4.8978    1.0555   -0.6497 C   0  0  0  0  0  0  0  0  0  0  0  0
   -6.2586    1.2042   -0.3694 C   0  0  0  0  0  0  0  0  0  0  0  0
   -7.0026    0.1146    0.0761 C   0  0  0  0  0  0  0  0  0  0  0  0
   -6.3874   -1.1263    0.2383 C   0  0  0  0  0  0  0  0  0  0  0  0
   -5.0251   -1.2791   -0.0422 C   0  0  0  0  0  0  0  0  0  0  0  0
   -4.3314   -2.8467    0.1939 Cl  0  0  0  0  0  0  0  0  0  0  0  0
    0.3915    1.0240    0.1445 N   0  0  0  0  0  0  0  0  0  0  0  0
    1.8292    0.9486   -0.0402 C   0  0  0  0  0  0  0  0  0  0  0  0
    2.4325   -0.2950    0.6167 C   0  0  0  0  0  0  0  0  0  0  0  0
    3.9321   -0.3340    0.4621 C   0  0  0  0  0  0  0  0  0  0  0  0
    4.7682    0.1685    1.4678 C   0  0  0  0  0  0  0  0  0  0  0  0
    6.1548    0.1474    1.3088 C   0  0  0  0  0  0  0  0  0  0  0  0
    6.7169   -0.3718    0.1438 C   0  0  0  0  0  0  0  0  0  0  0  0
    5.8934   -0.8700   -0.8640 C   0  0  0  0  0  0  0  0  0  0  0  0
    4.5070   -0.8502   -0.7072 C   0  0  0  0  0  0  0  0  0  0  0  0
   -2.1323    1.2204    0.4859 H   0  0  0  0  0  0  0  0  0  0  0  0
   -2.5672   -1.0865   -1.5242 H   0  0  0  0  0  0  0  0  0  0  0  0
   -4.3413    1.9165   -1.0150 H   0  0  0  0  0  0  0  0  0  0  0  0
   -6.7382    2.1706   -0.5064 H   0  0  0  0  0  0  0  0  0  0  0  0
   -8.0620    0.2290    0.2921 H   0  0  0  0  0  0  0  0  0  0  0  0
   -6.9747   -1.9738    0.5831 H   0  0  0  0  0  0  0  0  0  0  0  0
    0.0379    1.5659    0.9204 H   0  0  0  0  0  0  0  0  0  0  0  0
    2.2544    1.8610    0.3927 H   0  0  0  0  0  0  0  0  0  0  0  0
    2.0435    0.9593   -1.1155 H   0  0  0  0  0  0  0  0  0  0  0  0
    2.1693   -0.3199    1.6822 H   0  0  0  0  0  0  0  0  0  0  0  0
    1.9994   -1.2076    0.1880 H   0  0  0  0  0  0  0  0  0  0  0  0
    4.3458    0.5772    2.3826 H   0  0  0  0  0  0  0  0  0  0  0  0
    6.7975    0.5354    2.0947 H   0  0  0  0  0  0  0  0  0  0  0  0
    7.7965   -0.3888    0.0211 H   0  0  0  0  0  0  0  0  0  0  0  0
    6.3300   -1.2750   -1.7732 H   0  0  0  0  0  0  0  0  0  0  0  0
    3.8747   -1.2410   -1.5027 H   0  0  0  0  0  0  0  0  0  0  0  0
  1  2  2  0
  2  3  1  0
  3  4  2  3
  4  5  1  0
  5  6  2  0
  6  7  1  0
  7  8  2  0
  8  9  1  0
  9 10  2  0
 10 11  1  0
  2 12  1  0
 12 13  1  0
 13 14  1  0
 14 15  1  0
 15 16  2  0
 16 17  1  0
 17 18  2  0
 18 19  1  0
 19 20  2  0
 10  5  1  0
 20 15  1  0
  3 21  1  0
  4 22  1  0
  6 23  1  0
  7 24  1  0
  8 25  1  0
  9 26  1  0
 12 27  1  0
 13 28  1  0
 13 29  1  0
 14 30  1  0
 14 31  1  0
 16 32  1  0
 17 33  1  0
 18 34  1  0
 19 35  1  0
 20 36  1  0
M  END
$$$$
