
     RDKit          3D

 61 66  0  0  0  0  0  0  0  0999 V2000
   -5.2353    0.8815   -0.1224 C   0  0  0  0  0  0  0  0  0  0  0  0
   -4.1438   -0.0297    0.4504 C   0  0  0  0  0  0  0  0  0  0  0  0
   -4.7465   -1.0025    1.4712 C   0  0  0  0  0  0  0  0  0  0  0  0
   -3.3906   -0.7430   -0.6697 C   0  0  0  0  0  0  0  0  0  0  0  0
   -4.0559   -1.7364   -1.4149 C   0  0  0  0  0  0  0  0  0  0  0  0
   -3.4544   -2.3546   -2.5147 C   0  0  0  0  0  0  0  0  0  0  0  0
   -2.1727   -1.9892   -2.9088 C   0  0  0  0  0  0  0  0  0  0  0  0
   -1.4851   -1.0104   -2.1985 C   0  0  0  0  0  0  0  0  0  0  0  0
   -2.0836   -0.3991   -1.0816 C   0  0  0  0  0  0  0  0  0  0  0  0
   -1.3182    0.5789   -0.4023 N   0  0  0  0  0  0  0  0  0  0  0  0
   -0.7568    0.4714    0.8559 C   0  0  0  0  0  0  0  0  0  0  0  0
   -0.9130   -0.9052    1.9009 S   0  0  0  0  0  0  0  0  0  0  0  0
    0.8152   -1.4833    1.9383 C   0  0  0  0  0  0  0  0  0  0  0  0
    1.7758   -0.6198    2.7260 C   0  0  0  0  0  0  0  0  0  0  0  0
    1.3936    0.0284    3.8406 C   0  0  0  0  0  0  0  0  0  0  0  0
    2.1917    1.0756    4.4853 C   0  0  0  0  0  0  0  0  0  0  0  0
    1.8784    1.5277    5.5801 O   0  0  0  0  0  0  0  0  0  0  0  0
    3.2513    1.5615    3.7500 O   0  0  0  0  0  0  0  0  0  0  0  0
    3.7602    0.8185    2.6668 C   0  0  0  0  0  0  0  0  0  0  0  0
    4.9447    1.3115    2.1318 C   0  0  0  0  0  0  0  0  0  0  0  0
    5.5855    0.5942    1.1342 C   0  0  0  0  0  0  0  0  0  0  0  0
    5.0918   -0.6490    0.7239 C   0  0  0  0  0  0  0  0  0  0  0  0
    5.8197   -1.3787   -0.2311 C   0  0  0  0  0  0  0  0  0  0  0  0
    5.4207   -2.6521   -0.6229 C   0  0  0  0  0  0  0  0  0  0  0  0
    4.2995   -3.2208   -0.0435 C   0  0  0  0  0  0  0  0  0  0  0  0
    3.5592   -2.4992    0.8991 C   0  0  0  0  0  0  0  0  0  0  0  0
    3.8905   -1.1731    1.2850 C   0  0  0  0  0  0  0  0  0  0  0  0
    3.1528   -0.3631    2.2130 C   0  0  0  0  0  0  0  0  0  0  0  0
    0.0117    1.5035    1.1017 N   0  0  0  0  0  0  0  0  0  0  0  0
    0.0181    2.2903   -0.0166 N   0  0  0  0  0  0  0  0  0  0  0  0
   -0.7674    1.7452   -0.9323 C   0  0  0  0  0  0  0  0  0  0  0  0
   -0.9847    2.3189   -2.2629 C   0  0  0  0  0  0  0  0  0  0  0  0
    0.0506    3.0247   -2.8881 C   0  0  0  0  0  0  0  0  0  0  0  0
   -0.1418    3.5894   -4.1477 C   0  0  0  0  0  0  0  0  0  0  0  0
   -1.3770    3.4377   -4.7510 C   0  0  0  0  0  0  0  0  0  0  0  0
   -2.4076    2.7776   -4.1833 N   0  0  0  0  0  0  0  0  0  0  0  0
   -2.1906    2.2453   -2.9539 C   0  0  0  0  0  0  0  0  0  0  0  0
   -5.7394    1.4308    0.6806 H   0  0  0  0  0  0  0  0  0  0  0  0
   -5.9977    0.3141   -0.6676 H   0  0  0  0  0  0  0  0  0  0  0  0
   -4.8101    1.6174   -0.8129 H   0  0  0  0  0  0  0  0  0  0  0  0
   -3.4624    0.6199    1.0064 H   0  0  0  0  0  0  0  0  0  0  0  0
   -5.1529   -0.4522    2.3270 H   0  0  0  0  0  0  0  0  0  0  0  0
   -3.9939   -1.7013    1.8493 H   0  0  0  0  0  0  0  0  0  0  0  0
   -5.5650   -1.5928    1.0467 H   0  0  0  0  0  0  0  0  0  0  0  0
   -5.0731   -2.0293   -1.1604 H   0  0  0  0  0  0  0  0  0  0  0  0
   -3.9981   -3.1140   -3.0718 H   0  0  0  0  0  0  0  0  0  0  0  0
   -1.7113   -2.4655   -3.7704 H   0  0  0  0  0  0  0  0  0  0  0  0
   -0.4775   -0.7471   -2.5166 H   0  0  0  0  0  0  0  0  0  0  0  0
    1.1067   -1.5503    0.8864 H   0  0  0  0  0  0  0  0  0  0  0  0
    0.8111   -2.4947    2.3581 H   0  0  0  0  0  0  0  0  0  0  0  0
    0.4205   -0.1117    4.2973 H   0  0  0  0  0  0  0  0  0  0  0  0
    5.3653    2.2442    2.4963 H   0  0  0  0  0  0  0  0  0  0  0  0
    6.5058    0.9942    0.7138 H   0  0  0  0  0  0  0  0  0  0  0  0
    6.7253   -0.9625   -0.6693 H   0  0  0  0  0  0  0  0  0  0  0  0
    6.0021   -3.2062   -1.3549 H   0  0  0  0  0  0  0  0  0  0  0  0
    4.0028   -4.2322   -0.3094 H   0  0  0  0  0  0  0  0  0  0  0  0
    2.7345   -3.0280    1.3639 H   0  0  0  0  0  0  0  0  0  0  0  0
    1.0120    3.1427   -2.3912 H   0  0  0  0  0  0  0  0  0  0  0  0
    0.6525    4.1389   -4.6398 H   0  0  0  0  0  0  0  0  0  0  0  0
   -1.5789    3.8595   -5.7317 H   0  0  0  0  0  0  0  0  0  0  0  0
   -3.0643    1.7537   -2.5379 H   0  0  0  0  0  0  0  0  0  0  0  0
  1  2  1  0
  2  3  1  0
  2  4  1  0
  4  5  2  0
  5  6  1  0
  6  7  2  0
  7  8  1  0
  8  9  2  0
  9 10  1  0
 10 11  1  0
 11 12  1  0
 12 13  1  0
 13 14  1  0
 14 15  2  0
 15 16  1  0
 16 17  2  0
 16 18  1  0
 18 19  1  0
 19 20  2  0
 20 21  1  0
 21 22  2  0
 22 23  1  0
 23 24  2  0
 24 25  1  0
 25 26  2  0
 26 27  1  0
 27 28  2  0
 11 29  2  0
 29 30  1  0
 30 31  2  0
 31 32  1  0
 32 33  2  0
 33 34  1  0
 34 35  2  0
 35 36  1  0
 36 37  2  0
  9  4  1  0
 31 10  1  0
 37 32  1  0
 28 14  1  0
 28 19  1  0
 27 22  1  0
  1 38  1  0
  1 39  1  0
  1 40  1  0
  2 41  1  0
  3 42  1  0
  3 43  1  0
  3 44  1  0
  5 45  1  0
  6 46  1  0
  7 47  1  0
  8 48  1  0
 13 49  1  0
 13 50  1  0
 15 51  1  0
 20 52  1  0
 21 53  1  0
 23 54  1  0
 24 55  1  0
 25 56  1  0
 26 57  1  0
 33 58  1  0
 34 59  1  0
 35 60  1  0
 37 61  1  0
M  END
$$$$
