
     RDKit          3D

 40 41  0  0  0  0  0  0  0  0999 V2000
    7.6650   -1.4467    0.4263 C   0  0  0  0  0  0  0  0  0  0  0  0
    7.1723   -0.2244   -0.1073 O   0  0  0  0  0  0  0  0  0  0  0  0
    5.8402    0.0326    0.0611 C   0  0  0  0  0  0  0  0  0  0  0  0
    5.4110    1.2553   -0.4580 C   0  0  0  0  0  0  0  0  0  0  0  0
    4.0726    1.6452   -0.3542 C   0  0  0  0  0  0  0  0  0  0  0  0
    3.1374    0.8077    0.2609 C   0  0  0  0  0  0  0  0  0  0  0  0
    1.7453    1.2573    0.3725 C   0  0  0  0  0  0  0  0  0  0  0  0
    0.6898    0.4591    0.1483 C   0  0  0  0  0  0  0  0  0  0  0  0
   -0.6919    1.0073    0.2687 C   0  0  0  0  0  0  0  0  0  0  0  0
   -0.8862    2.1585    0.6333 O   0  0  0  0  0  0  0  0  0  0  0  0
   -1.6522    0.0738   -0.0770 N   0  0  0  0  0  0  0  0  0  0  0  0
   -3.0323    0.2084   -0.0839 C   0  0  0  0  0  0  0  0  0  0  0  0
   -3.6399    1.3373    0.2983 C   0  0  0  0  0  0  0  0  0  0  0  0
   -5.1015    1.4575    0.2891 C   0  0  0  0  0  0  0  0  0  0  0  0
   -5.6172    2.4906    0.7087 O   0  0  0  0  0  0  0  0  0  0  0  0
   -5.7953    0.3756   -0.1963 N   0  0  0  0  0  0  0  0  0  0  0  0
   -7.2436    0.4467   -0.2365 C   0  0  0  0  0  0  0  0  0  0  0  0
   -5.2039   -0.8257   -0.5501 C   0  0  0  0  0  0  0  0  0  0  0  0
   -5.8823   -1.7984   -0.8900 O   0  0  0  0  0  0  0  0  0  0  0  0
   -3.8060   -0.8750   -0.4951 N   0  0  0  0  0  0  0  0  0  0  0  0
   -3.1875   -2.1366   -0.8919 C   0  0  0  0  0  0  0  0  0  0  0  0
    3.5732   -0.4114    0.7941 C   0  0  0  0  0  0  0  0  0  0  0  0
    4.9157   -0.7994    0.6912 C   0  0  0  0  0  0  0  0  0  0  0  0
    7.5370   -1.4833    1.5132 H   0  0  0  0  0  0  0  0  0  0  0  0
    7.1916   -2.3075   -0.0573 H   0  0  0  0  0  0  0  0  0  0  0  0
    8.7378   -1.4951    0.2158 H   0  0  0  0  0  0  0  0  0  0  0  0
    6.1261    1.9139   -0.9453 H   0  0  0  0  0  0  0  0  0  0  0  0
    3.7705    2.6061   -0.7653 H   0  0  0  0  0  0  0  0  0  0  0  0
    1.6033    2.3072    0.6258 H   0  0  0  0  0  0  0  0  0  0  0  0
    0.8171   -0.5781   -0.1320 H   0  0  0  0  0  0  0  0  0  0  0  0
   -1.2990   -0.8201   -0.3773 H   0  0  0  0  0  0  0  0  0  0  0  0
   -3.1294    2.2258    0.6435 H   0  0  0  0  0  0  0  0  0  0  0  0
   -7.6055    1.4765   -0.1723 H   0  0  0  0  0  0  0  0  0  0  0  0
   -7.6415   -0.1254    0.6078 H   0  0  0  0  0  0  0  0  0  0  0  0
   -7.6139    0.0009   -1.1653 H   0  0  0  0  0  0  0  0  0  0  0  0
   -2.6099   -2.5351   -0.0513 H   0  0  0  0  0  0  0  0  0  0  0  0
   -2.5336   -1.9618   -1.7527 H   0  0  0  0  0  0  0  0  0  0  0  0
   -3.9175   -2.8972   -1.1815 H   0  0  0  0  0  0  0  0  0  0  0  0
    2.8793   -1.0691    1.3118 H   0  0  0  0  0  0  0  0  0  0  0  0
    5.2048   -1.7528    1.1204 H   0  0  0  0  0  0  0  0  0  0  0  0
  1  2  1  0
  2  3  1  0
  3  4  2  0
  4  5  1  0
  5  6  2  0
  6  7  1  0
  7  8  2  3
  8  9  1  0
  9 10  2  0
  9 11  1  0
 11 12  1  0
 12 13  2  0
 13 14  1  0
 14 15  2  0
 14 16  1  0
 16 17  1  0
 16 18  1  0
 18 19  2  0
 18 20  1  0
 20 21  1  0
  6 22  1  0
 22 23  2  0
 23  3  1  0
 20 12  1  0
  1 24  1  0
  1 25  1  0
  1 26  1  0
  4 27  1  0
  5 28  1  0
  7 29  1  0
  8 30  1  0
 11 31  1  0
 13 32  1  0
 17 33  1  0
 17 34  1  0
 17 35  1  0
 21 36  1  0
 21 37  1  0
 21 38  1  0
 22 39  1  0
 23 40  1  0
M  END
$$$$
