
     RDKit          3D

 88 93  0  0  0  0  0  0  0  0999 V2000
    3.4737    0.7573   -2.5008 C   0  0  0  0  0  0  0  0  0  0  0  0
    3.4603   -0.1446   -1.3027 C   0  0  0  0  0  0  0  0  0  0  0  0
    4.3090   -0.9971   -1.0835 O   0  0  0  0  0  0  0  0  0  0  0  0
    2.3773    0.1391   -0.5228 O   0  0  0  0  0  0  0  0  0  0  0  0
    2.2359   -0.6339    0.6739 C   0  0  1  0  0  0  0  0  0  0  0  0
    2.4074    0.2812    1.9022 C   0  0  1  0  0  0  0  0  0  0  0  0
    3.6244    1.2003    1.8684 C   0  0  0  0  0  0  0  0  0  0  0  0
    4.8256    0.4193    1.7867 O   0  0  0  0  0  0  0  0  0  0  0  0
    5.3869    0.0600    2.9684 C   0  0  0  0  0  0  0  0  0  0  0  0
    4.9845    0.3792    4.0765 O   0  0  0  0  0  0  0  0  0  0  0  0
    6.5865   -0.7879    2.7409 C   0  0  0  0  0  0  0  0  0  0  0  0
    6.8656   -1.3691    1.4980 C   0  0  0  0  0  0  0  0  0  0  0  0
    7.9916   -2.1803    1.3379 C   0  0  0  0  0  0  0  0  0  0  0  0
    8.8421   -2.4149    2.4177 C   0  0  0  0  0  0  0  0  0  0  0  0
    8.5738   -1.8370    3.6571 C   0  0  0  0  0  0  0  0  0  0  0  0
    7.4460   -1.0284    3.8215 C   0  0  0  0  0  0  0  0  0  0  0  0
    1.0788    1.0570    1.9794 C   0  0  0  0  0  0  0  0  0  0  0  0
   -0.0249    0.1579    1.3255 C   0  0  2  0  0  0  0  0  0  0  0  0
   -0.5590    0.8238    0.1732 O   0  0  0  0  0  0  0  0  0  0  0  0
   -1.1770    2.0185    0.3611 C   0  0  0  0  0  0  0  0  0  0  0  0
   -1.2818    2.6265    1.4124 O   0  0  0  0  0  0  0  0  0  0  0  0
   -1.7614    2.4460   -0.9234 C   0  0  0  0  0  0  0  0  0  0  0  0
   -2.6815    3.4215   -0.9381 C   0  0  0  0  0  0  0  0  0  0  0  0
   -3.3547    3.9003   -2.1528 C   0  0  0  0  0  0  0  0  0  0  0  0
   -3.6979    5.2565   -2.2415 C   0  0  0  0  0  0  0  0  0  0  0  0
   -4.3742    5.7469   -3.3613 C   0  0  0  0  0  0  0  0  0  0  0  0
   -4.7239    4.8844   -4.3978 C   0  0  0  0  0  0  0  0  0  0  0  0
   -4.4025    3.5309   -4.3148 C   0  0  0  0  0  0  0  0  0  0  0  0
   -3.7260    3.0389   -3.1950 C   0  0  0  0  0  0  0  0  0  0  0  0
   -1.0573   -0.3246    2.3891 C   0  0  0  0  0  0  0  0  0  0  0  0
   -0.6798   -0.8945    3.4202 O   0  0  0  0  0  0  0  0  0  0  0  0
   -2.5182   -0.0189    2.2654 C   0  0  0  0  0  0  0  0  0  0  0  0
   -3.0403    0.7190    3.4729 C   0  0  0  0  0  0  0  0  0  0  0  0
   -3.3384   -0.3490    1.2518 C   0  0  0  0  0  0  0  0  0  0  0  0
   -3.1389   -1.1068    0.0037 C   0  0  0  0  0  0  0  0  0  0  0  0
   -3.0952   -2.6203   -0.0213 C   0  0  2  0  0  0  0  0  0  0  0  0
   -2.3125   -3.5102   -0.9574 C   0  0  0  0  0  0  0  0  0  0  0  0
   -1.3894   -2.8688   -1.9932 C   0  0  0  0  0  0  0  0  0  0  0  0
   -0.3404   -1.9108   -1.4617 C   0  0  2  0  0  0  0  0  0  0  0  0
   -0.0755   -0.7421   -2.3611 C   0  0  0  0  0  0  0  0  0  0  0  0
    0.8981   -2.5625   -1.0963 O   0  0  0  0  0  0  0  0  0  0  0  0
    0.1314   -2.0640   -0.0095 C   0  0  1  0  0  0  0  0  0  0  0  0
    0.7959   -1.0970    0.9048 C   0  0  1  0  0  0  0  0  0  0  0  0
   -4.3473   -1.9045   -0.5138 C   0  0  0  0  0  0  0  0  0  0  0  0
   -5.5918   -2.1359    0.3213 C   0  0  0  0  0  0  0  0  0  0  0  0
   -4.6634   -1.7654   -1.9855 C   0  0  0  0  0  0  0  0  0  0  0  0
    2.6739    0.4763   -3.1892 H   0  0  0  0  0  0  0  0  0  0  0  0
    4.4353    0.6627   -3.0149 H   0  0  0  0  0  0  0  0  0  0  0  0
    3.3589    1.7978   -2.1859 H   0  0  0  0  0  0  0  0  0  0  0  0
    2.9274   -1.4844    0.7111 H   0  0  0  0  0  0  0  0  0  0  0  0
    2.4860   -0.3603    2.7915 H   0  0  0  0  0  0  0  0  0  0  0  0
    3.6074    1.8548    0.9908 H   0  0  0  0  0  0  0  0  0  0  0  0
    3.6420    1.8650    2.7411 H   0  0  0  0  0  0  0  0  0  0  0  0
    6.2115   -1.2064    0.6438 H   0  0  0  0  0  0  0  0  0  0  0  0
    8.1959   -2.6346    0.3723 H   0  0  0  0  0  0  0  0  0  0  0  0
    9.7173   -3.0475    2.2916 H   0  0  0  0  0  0  0  0  0  0  0  0
    9.2383   -2.0177    4.4990 H   0  0  0  0  0  0  0  0  0  0  0  0
    7.2434   -0.5880    4.7946 H   0  0  0  0  0  0  0  0  0  0  0  0
    0.8514    1.2954    3.0229 H   0  0  0  0  0  0  0  0  0  0  0  0
    1.1894    2.0073    1.4478 H   0  0  0  0  0  0  0  0  0  0  0  0
   -1.4311    1.9372   -1.8171 H   0  0  0  0  0  0  0  0  0  0  0  0
   -2.9670    3.9197   -0.0129 H   0  0  0  0  0  0  0  0  0  0  0  0
   -3.4403    5.9461   -1.4403 H   0  0  0  0  0  0  0  0  0  0  0  0
   -4.6324    6.8017   -3.4215 H   0  0  0  0  0  0  0  0  0  0  0  0
   -5.2522    5.2660   -5.2675 H   0  0  0  0  0  0  0  0  0  0  0  0
   -4.6852    2.8568   -5.1189 H   0  0  0  0  0  0  0  0  0  0  0  0
   -3.5098    1.9742   -3.1444 H   0  0  0  0  0  0  0  0  0  0  0  0
   -3.0336    0.0667    4.3528 H   0  0  0  0  0  0  0  0  0  0  0  0
   -4.0692    1.0681    3.3321 H   0  0  0  0  0  0  0  0  0  0  0  0
   -2.4225    1.5962    3.6907 H   0  0  0  0  0  0  0  0  0  0  0  0
   -4.3601    0.0164    1.3594 H   0  0  0  0  0  0  0  0  0  0  0  0
   -2.5834   -0.5555   -0.7440 H   0  0  0  0  0  0  0  0  0  0  0  0
   -3.1718   -3.1189    0.9448 H   0  0  0  0  0  0  0  0  0  0  0  0
   -3.0224   -4.1588   -1.4863 H   0  0  0  0  0  0  0  0  0  0  0  0
   -1.7185   -4.2010   -0.3473 H   0  0  0  0  0  0  0  0  0  0  0  0
   -0.8776   -3.6700   -2.5448 H   0  0  0  0  0  0  0  0  0  0  0  0
   -2.0025   -2.3554   -2.7415 H   0  0  0  0  0  0  0  0  0  0  0  0
    0.4592   -1.0707   -3.2567 H   0  0  0  0  0  0  0  0  0  0  0  0
   -1.0156   -0.2885   -2.6875 H   0  0  0  0  0  0  0  0  0  0  0  0
    0.5094    0.0431   -1.8946 H   0  0  0  0  0  0  0  0  0  0  0  0
   -0.3650   -2.8107    0.6010 H   0  0  0  0  0  0  0  0  0  0  0  0
    0.9049   -1.7125    1.8138 H   0  0  0  0  0  0  0  0  0  0  0  0
   -6.1361   -3.0108   -0.0507 H   0  0  0  0  0  0  0  0  0  0  0  0
   -6.2586   -1.2684    0.2618 H   0  0  0  0  0  0  0  0  0  0  0  0
   -5.3633   -2.3165    1.3763 H   0  0  0  0  0  0  0  0  0  0  0  0
   -5.5662   -1.1610   -2.1237 H   0  0  0  0  0  0  0  0  0  0  0  0
   -3.8661   -1.2642   -2.5408 H   0  0  0  0  0  0  0  0  0  0  0  0
   -4.8431   -2.7459   -2.4355 H   0  0  0  0  0  0  0  0  0  0  0  0
  1  2  1  0
  2  3  2  0
  2  4  1  0
  4  5  1  0
  5  6  1  0
  6  7  1  0
  7  8  1  0
  8  9  1  0
  9 10  2  0
  9 11  1  0
 11 12  2  0
 12 13  1  0
 13 14  2  0
 14 15  1  0
 15 16  2  0
  6 17  1  0
 17 18  1  0
 18 19  1  6
 19 20  1  0
 20 21  2  0
 20 22  1  0
 22 23  2  0
 23 24  1  0
 24 25  2  0
 25 26  1  0
 26 27  2  0
 27 28  1  0
 28 29  2  0
 18 30  1  0
 30 31  2  0
 30 32  1  0
 32 33  1  0
 32 34  2  3
 34 35  1  0
 35 36  1  0
 36 37  1  0
 37 38  1  0
 38 39  1  0
 39 40  1  6
 39 41  1  0
 41 42  1  0
 42 43  1  0
 36 44  1  0
 44 45  1  0
 44 46  1  0
 43  5  1  0
 16 11  1  0
 43 18  1  0
 29 24  1  0
 44 35  1  0
 42 39  1  0
  1 47  1  0
  1 48  1  0
  1 49  1  0
  5 50  1  6
  6 51  1  1
  7 52  1  0
  7 53  1  0
 12 54  1  0
 13 55  1  0
 14 56  1  0
 15 57  1  0
 16 58  1  0
 17 59  1  0
 17 60  1  0
 22 61  1  0
 23 62  1  0
 25 63  1  0
 26 64  1  0
 27 65  1  0
 28 66  1  0
 29 67  1  0
 33 68  1  0
 33 69  1  0
 33 70  1  0
 34 71  1  0
 35 72  1  0
 36 73  1  1
 37 74  1  0
 37 75  1  0
 38 76  1  0
 38 77  1  0
 40 78  1  0
 40 79  1  0
 40 80  1  0
 42 81  1  1
 43 82  1  1
 45 83  1  0
 45 84  1  0
 45 85  1  0
 46 86  1  0
 46 87  1  0
 46 88  1  0
M  END
$$$$
