
     RDKit          3D

 56 61  0  0  0  0  0  0  0  0999 V2000
    8.3333    0.7951    0.2067 C   0  0  0  0  0  0  0  0  0  0  0  0
    6.8608    0.5070    0.1675 C   0  0  0  0  0  0  0  0  0  0  0  0
    6.2839   -0.0858   -0.9600 C   0  0  0  0  0  0  0  0  0  0  0  0
    4.9159   -0.3761   -0.9916 C   0  0  0  0  0  0  0  0  0  0  0  0
    4.1110   -0.0891    0.1116 C   0  0  0  0  0  0  0  0  0  0  0  0
    2.5706   -0.3983    0.0866 C   0  0  0  0  0  0  0  0  0  0  0  0
    1.6658   -0.1597    1.1160 C   0  0  0  0  0  0  0  0  0  0  0  0
    0.3918   -0.5378    0.6946 N   0  0  0  0  0  4  0  0  0  0  0  0
   -0.8724   -0.3787    1.4335 C   0  0  0  0  0  0  0  0  0  0  0  0
   -1.6324    0.8603    0.9119 C   0  0  0  0  0  0  0  0  0  0  0  0
   -0.9864    1.8845    0.6847 O   0  0  0  0  0  0  0  0  0  0  0  0
   -2.9845    0.6445    0.5957 N   0  0  0  0  0  0  0  0  0  0  0  0
   -3.6332    1.3418   -0.4932 C   0  0  0  0  0  0  0  0  0  0  0  0
   -3.2130    2.6203   -0.9003 C   0  0  0  0  0  0  0  0  0  0  0  0
   -3.8304    3.2942   -1.9620 C   0  0  0  0  0  0  0  0  0  0  0  0
   -4.8824    2.7036   -2.6474 C   0  0  0  0  0  0  0  0  0  0  0  0
   -5.3134    1.4353   -2.2746 C   0  0  0  0  0  0  0  0  0  0  0  0
   -4.7011    0.7583   -1.2075 C   0  0  0  0  0  0  0  0  0  0  0  0
   -5.2598   -0.8970   -0.8747 S   0  0  0  0  0  0  0  0  0  0  0  0
   -4.8836   -0.9534    0.8549 C   0  0  0  0  0  0  0  0  0  0  0  0
   -5.6579   -1.7891    1.6725 C   0  0  0  0  0  0  0  0  0  0  0  0
   -5.4075   -1.8741    3.0393 C   0  0  0  0  0  0  0  0  0  0  0  0
   -4.3829   -1.1219    3.5984 C   0  0  0  0  0  0  0  0  0  0  0  0
   -3.5967   -0.2999    2.7868 C   0  0  0  0  0  0  0  0  0  0  0  0
   -3.8182   -0.2174    1.3967 C   0  0  0  0  0  0  0  0  0  0  0  0
    0.4972   -0.9490   -0.5635 C   0  0  0  0  0  0  0  0  0  0  0  0
    1.7787   -0.9354   -0.9152 N   0  0  0  0  0  0  0  0  0  0  0  0
    1.9690   -1.3939   -2.2841 C   0  0  0  0  0  0  0  0  0  0  0  0
    0.5925   -2.0189   -2.6529 C   0  0  0  0  0  0  0  0  0  0  0  0
   -0.4049   -1.4148   -1.6433 C   0  0  0  0  0  0  0  0  0  0  0  0
    4.6871    0.4890    1.2490 C   0  0  0  0  0  0  0  0  0  0  0  0
    6.0548    0.7815    1.2760 C   0  0  0  0  0  0  0  0  0  0  0  0
    8.8770   -0.0757    0.5870 H   0  0  0  0  0  0  0  0  0  0  0  0
    8.5475    1.6546    0.8495 H   0  0  0  0  0  0  0  0  0  0  0  0
    8.7079    1.0385   -0.7931 H   0  0  0  0  0  0  0  0  0  0  0  0
    6.8997   -0.3234   -1.8261 H   0  0  0  0  0  0  0  0  0  0  0  0
    4.5205   -0.8246   -1.8935 H   0  0  0  0  0  0  0  0  0  0  0  0
    1.7653    0.2573    2.1045 H   0  0  0  0  0  0  0  0  0  0  0  0
   -1.4331   -1.3058    1.2894 H   0  0  0  0  0  0  0  0  0  0  0  0
   -0.6490   -0.2466    2.4967 H   0  0  0  0  0  0  0  0  0  0  0  0
   -2.4316    3.1640   -0.3784 H   0  0  0  0  0  0  0  0  0  0  0  0
   -3.4912    4.2913   -2.2391 H   0  0  0  0  0  0  0  0  0  0  0  0
   -5.3656    3.2268   -3.4689 H   0  0  0  0  0  0  0  0  0  0  0  0
   -6.1342    0.9771   -2.8243 H   0  0  0  0  0  0  0  0  0  0  0  0
   -6.4715   -2.3746    1.2498 H   0  0  0  0  0  0  0  0  0  0  0  0
   -6.0274   -2.5113    3.6677 H   0  0  0  0  0  0  0  0  0  0  0  0
   -4.2099   -1.1589    4.6724 H   0  0  0  0  0  0  0  0  0  0  0  0
   -2.8443    0.3130    3.2825 H   0  0  0  0  0  0  0  0  0  0  0  0
    2.7641   -2.1419   -2.3404 H   0  0  0  0  0  0  0  0  0  0  0  0
    2.1937   -0.5313   -2.9190 H   0  0  0  0  0  0  0  0  0  0  0  0
    0.6447   -3.1048   -2.4986 H   0  0  0  0  0  0  0  0  0  0  0  0
    0.3103   -1.8424   -3.6959 H   0  0  0  0  0  0  0  0  0  0  0  0
   -0.9129   -0.5282   -2.0329 H   0  0  0  0  0  0  0  0  0  0  0  0
   -1.1052   -2.1427   -1.2325 H   0  0  0  0  0  0  0  0  0  0  0  0
    4.1047    0.7325    2.1325 H   0  0  0  0  0  0  0  0  0  0  0  0
    6.4887    1.2319    2.1691 H   0  0  0  0  0  0  0  0  0  0  0  0
  1  2  1  0
  2  3  2  0
  3  4  1  0
  4  5  2  0
  5  6  1  0
  6  7  2  0
  7  8  1  0
  8  9  1  0
  9 10  1  0
 10 11  2  0
 10 12  1  0
 12 13  1  0
 13 14  2  0
 14 15  1  0
 15 16  2  0
 16 17  1  0
 17 18  2  0
 18 19  1  0
 19 20  1  0
 20 21  2  0
 21 22  1  0
 22 23  2  0
 23 24  1  0
 24 25  2  0
  8 26  2  0
 26 27  1  0
 27 28  1  0
 28 29  1  0
 29 30  1  0
  5 31  1  0
 31 32  2  0
 32  2  1  0
 27  6  1  0
 25 12  1  0
 30 26  1  0
 18 13  1  0
 25 20  1  0
  1 33  1  0
  1 34  1  0
  1 35  1  0
  3 36  1  0
  4 37  1  0
  7 38  1  0
  9 39  1  0
  9 40  1  0
 14 41  1  0
 15 42  1  0
 16 43  1  0
 17 44  1  0
 21 45  1  0
 22 46  1  0
 23 47  1  0
 24 48  1  0
 28 49  1  0
 28 50  1  0
 29 51  1  0
 29 52  1  0
 30 53  1  0
 30 54  1  0
 31 55  1  0
 32 56  1  0
M  CHG  1   8   1
M  END
$$$$
