
     RDKit          3D

 37 39  0  0  0  0  0  0  0  0999 V2000
   -5.3851    2.3794    0.1168 C   0  0  0  0  0  0  0  0  0  0  0  0
   -4.9178    1.1509    0.8408 C   0  0  0  0  0  0  0  0  0  0  0  0
   -5.8439    0.2029    1.3003 C   0  0  0  0  0  0  0  0  0  0  0  0
   -5.4121   -0.9379    1.9830 C   0  0  0  0  0  0  0  0  0  0  0  0
   -4.0530   -1.1350    2.2294 C   0  0  0  0  0  0  0  0  0  0  0  0
   -3.1222   -0.2013    1.7765 C   0  0  0  0  0  0  0  0  0  0  0  0
   -3.5534    0.9190    1.0625 C   0  0  0  0  0  0  0  0  0  0  0  0
   -2.6396    1.8434    0.6259 O   0  0  0  0  0  0  0  0  0  0  0  0
   -1.9234    1.3668   -0.5097 C   0  0  0  0  0  0  0  0  0  0  0  0
   -0.4862    0.9058   -0.2132 C   0  0  0  0  0  0  0  0  0  0  0  0
   -0.0017    0.9415    0.9132 O   0  0  0  0  0  0  0  0  0  0  0  0
    0.1488    0.4620   -1.3593 N   0  0  0  0  0  0  0  0  0  0  0  0
    1.4410    0.0088   -1.4623 C   0  0  0  0  0  0  0  0  0  0  0  0
    1.9427   -0.3979   -2.6063 N   0  0  0  0  0  0  0  0  0  0  0  0
    3.2580   -0.7968   -2.4811 N   0  0  0  0  0  0  0  0  0  0  0  0
    3.7139   -0.6724   -1.2450 C   0  0  0  0  0  0  0  0  0  0  0  0
    5.0840   -1.0145   -0.8246 C   0  0  0  0  0  0  0  0  0  0  0  0
    5.5681   -0.8105    0.4731 C   0  0  0  0  0  0  0  0  0  0  0  0
    6.8772   -1.1631    0.7639 C   0  0  0  0  0  0  0  0  0  0  0  0
    7.7283   -1.6985   -0.1340 N   0  0  0  0  0  0  0  0  0  0  0  0
    7.2524   -1.8901   -1.3801 C   0  0  0  0  0  0  0  0  0  0  0  0
    5.9617   -1.5693   -1.7659 C   0  0  0  0  0  0  0  0  0  0  0  0
    2.5251   -0.0652   -0.1555 S   0  0  0  0  0  0  0  0  0  0  0  0
   -5.0694    2.3422   -0.9309 H   0  0  0  0  0  0  0  0  0  0  0  0
   -4.9750    3.2791    0.5858 H   0  0  0  0  0  0  0  0  0  0  0  0
   -6.4763    2.4663    0.1370 H   0  0  0  0  0  0  0  0  0  0  0  0
   -6.9108    0.3519    1.1408 H   0  0  0  0  0  0  0  0  0  0  0  0
   -6.1409   -1.6633    2.3402 H   0  0  0  0  0  0  0  0  0  0  0  0
   -3.7213   -2.0104    2.7807 H   0  0  0  0  0  0  0  0  0  0  0  0
   -2.0680   -0.3392    2.0038 H   0  0  0  0  0  0  0  0  0  0  0  0
   -2.4559    0.5592   -1.0352 H   0  0  0  0  0  0  0  0  0  0  0  0
   -1.8518    2.2107   -1.2087 H   0  0  0  0  0  0  0  0  0  0  0  0
   -0.3477    0.4513   -2.2410 H   0  0  0  0  0  0  0  0  0  0  0  0
    4.9606   -0.3834    1.2635 H   0  0  0  0  0  0  0  0  0  0  0  0
    7.2870   -1.0182    1.7597 H   0  0  0  0  0  0  0  0  0  0  0  0
    7.9569   -2.3220   -2.0861 H   0  0  0  0  0  0  0  0  0  0  0  0
    5.6497   -1.7523   -2.7907 H   0  0  0  0  0  0  0  0  0  0  0  0
  1  2  1  0
  2  3  2  0
  3  4  1  0
  4  5  2  0
  5  6  1  0
  6  7  2  0
  7  8  1  0
  8  9  1  0
  9 10  1  0
 10 11  2  0
 10 12  1  0
 12 13  1  0
 13 14  2  0
 14 15  1  0
 15 16  2  0
 16 17  1  0
 17 18  2  0
 18 19  1  0
 19 20  2  0
 20 21  1  0
 21 22  2  0
 16 23  1  0
  7  2  1  0
 23 13  1  0
 22 17  1  0
  1 24  1  0
  1 25  1  0
  1 26  1  0
  3 27  1  0
  4 28  1  0
  5 29  1  0
  6 30  1  0
  9 31  1  0
  9 32  1  0
 12 33  1  0
 18 34  1  0
 19 35  1  0
 21 36  1  0
 22 37  1  0
M  END
$$$$
