
     RDKit          3D

 59 62  0  0  0  0  0  0  0  0999 V2000
    9.0188    4.2183    2.3286 C   0  0  0  0  0  0  0  0  0  0  0  0
    7.6161    4.3648    2.1432 O   0  0  0  0  0  0  0  0  0  0  0  0
    6.9095    3.2337    1.8444 C   0  0  0  0  0  0  0  0  0  0  0  0
    7.4430    1.9667    1.6183 C   0  0  0  0  0  0  0  0  0  0  0  0
    6.5949    0.8919    1.3168 C   0  0  0  0  0  0  0  0  0  0  0  0
    5.2059    1.0685    1.2448 C   0  0  0  0  0  0  0  0  0  0  0  0
    4.3518   -0.1213    0.9275 C   0  0  0  0  0  0  0  0  0  0  0  0
    4.9082   -1.1757    0.6228 O   0  0  0  0  0  0  0  0  0  0  0  0
    2.8474    0.0367    1.0500 C   0  0  0  0  0  0  0  0  0  0  0  0
    1.9454   -1.4232    0.4527 S   0  0  0  0  0  0  0  0  0  0  0  0
    0.3838   -1.1108    1.1230 C   0  0  0  0  0  0  0  0  0  0  0  0
    0.0700   -0.1010    1.8982 N   0  0  0  0  0  0  0  0  0  0  0  0
   -1.2455   -0.2437    2.2537 N   0  0  0  0  0  0  0  0  0  0  0  0
   -1.7211   -1.3301    1.6684 C   0  0  0  0  0  0  0  0  0  0  0  0
   -3.1186   -1.8477    1.8057 C   0  0  0  0  0  0  0  0  0  0  0  0
   -3.9411   -1.9200    0.6001 N   0  0  0  0  0  0  0  0  0  0  0  0
   -4.3521   -0.7893   -0.1122 C   0  0  0  0  0  0  0  0  0  0  0  0
   -4.1249    0.5194    0.3366 C   0  0  0  0  0  0  0  0  0  0  0  0
   -4.5675    1.6335   -0.3828 C   0  0  0  0  0  0  0  0  0  0  0  0
   -5.2927    1.4706   -1.5605 C   0  0  0  0  0  0  0  0  0  0  0  0
   -5.7363    2.6555   -2.3598 C   0  0  0  0  0  0  0  0  0  0  0  0
   -5.5701    0.1744   -2.0002 C   0  0  0  0  0  0  0  0  0  0  0  0
   -5.1322   -0.9521   -1.2777 C   0  0  0  0  0  0  0  0  0  0  0  0
   -5.5418   -2.3146   -1.7612 C   0  0  0  0  0  0  0  0  0  0  0  0
   -0.7084   -1.9151    0.9424 N   0  0  0  0  0  0  0  0  0  0  0  0
   -0.7776   -3.1556    0.1940 C   0  0  0  0  0  0  0  0  0  0  0  0
   -1.1896   -2.9410   -1.2153 C   0  0  0  0  0  0  0  0  0  0  0  0
   -1.0930   -1.8949   -2.1101 C   0  0  0  0  0  0  0  0  0  0  0  0
   -1.6809   -2.3421   -3.3165 C   0  0  0  0  0  0  0  0  0  0  0  0
   -2.0911   -3.6329   -3.0891 C   0  0  0  0  0  0  0  0  0  0  0  0
   -1.8113   -4.0021   -1.8114 O   0  0  0  0  0  0  0  0  0  0  0  0
    4.6729    2.3413    1.4743 C   0  0  0  0  0  0  0  0  0  0  0  0
    5.5266    3.4135    1.7664 C   0  0  0  0  0  0  0  0  0  0  0  0
    9.2339    3.5759    3.1857 H   0  0  0  0  0  0  0  0  0  0  0  0
    9.4316    5.2096    2.5396 H   0  0  0  0  0  0  0  0  0  0  0  0
    9.5060    3.8450    1.4245 H   0  0  0  0  0  0  0  0  0  0  0  0
    8.5101    1.7762    1.6663 H   0  0  0  0  0  0  0  0  0  0  0  0
    7.0304   -0.0888    1.1398 H   0  0  0  0  0  0  0  0  0  0  0  0
    2.5146    0.8799    0.4463 H   0  0  0  0  0  0  0  0  0  0  0  0
    2.6232    0.2004    2.1051 H   0  0  0  0  0  0  0  0  0  0  0  0
   -3.6447   -1.2615    2.5680 H   0  0  0  0  0  0  0  0  0  0  0  0
   -3.0646   -2.8615    2.2248 H   0  0  0  0  0  0  0  0  0  0  0  0
   -3.7354   -2.7057   -0.0042 H   0  0  0  0  0  0  0  0  0  0  0  0
   -3.5783    0.7123    1.2563 H   0  0  0  0  0  0  0  0  0  0  0  0
   -4.3383    2.6290   -0.0017 H   0  0  0  0  0  0  0  0  0  0  0  0
   -6.7264    2.4831   -2.7862 H   0  0  0  0  0  0  0  0  0  0  0  0
   -5.0280    2.8463   -3.1705 H   0  0  0  0  0  0  0  0  0  0  0  0
   -5.8055    3.5526   -1.7327 H   0  0  0  0  0  0  0  0  0  0  0  0
   -6.1505    0.0367   -2.9107 H   0  0  0  0  0  0  0  0  0  0  0  0
   -6.1126   -2.8320   -0.9829 H   0  0  0  0  0  0  0  0  0  0  0  0
   -6.1822   -2.2533   -2.6459 H   0  0  0  0  0  0  0  0  0  0  0  0
   -4.6642   -2.9110   -2.0249 H   0  0  0  0  0  0  0  0  0  0  0  0
    0.1970   -3.6516    0.2363 H   0  0  0  0  0  0  0  0  0  0  0  0
   -1.4850   -3.8177    0.7084 H   0  0  0  0  0  0  0  0  0  0  0  0
   -0.6589   -0.9220   -1.9193 H   0  0  0  0  0  0  0  0  0  0  0  0
   -1.7981   -1.7831   -4.2327 H   0  0  0  0  0  0  0  0  0  0  0  0
   -2.5883   -4.3771   -3.6918 H   0  0  0  0  0  0  0  0  0  0  0  0
    3.6076    2.5409    1.4312 H   0  0  0  0  0  0  0  0  0  0  0  0
    5.1081    4.4013    1.9437 H   0  0  0  0  0  0  0  0  0  0  0  0
  1  2  1  0
  2  3  1  0
  3  4  2  0
  4  5  1  0
  5  6  2  0
  6  7  1  0
  7  8  2  0
  7  9  1  0
  9 10  1  0
 10 11  1  0
 11 12  2  0
 12 13  1  0
 13 14  2  0
 14 15  1  0
 15 16  1  0
 16 17  1  0
 17 18  2  0
 18 19  1  0
 19 20  2  0
 20 21  1  0
 20 22  1  0
 22 23  2  0
 23 24  1  0
 14 25  1  0
 25 26  1  0
 26 27  1  0
 27 28  2  0
 28 29  1  0
 29 30  2  0
 30 31  1  0
  6 32  1  0
 32 33  2  0
 33  3  1  0
 25 11  1  0
 31 27  1  0
 23 17  1  0
  1 34  1  0
  1 35  1  0
  1 36  1  0
  4 37  1  0
  5 38  1  0
  9 39  1  0
  9 40  1  0
 15 41  1  0
 15 42  1  0
 16 43  1  0
 18 44  1  0
 19 45  1  0
 21 46  1  0
 21 47  1  0
 21 48  1  0
 22 49  1  0
 24 50  1  0
 24 51  1  0
 24 52  1  0
 26 53  1  0
 26 54  1  0
 28 55  1  0
 29 56  1  0
 30 57  1  0
 32 58  1  0
 33 59  1  0
M  END
$$$$
