
     RDKit          3D

 49 53  0  0  0  0  0  0  0  0999 V2000
    6.1147    0.5042    0.9113 C   0  0  0  0  0  0  0  0  0  0  0  0
    4.8945   -0.3050    0.6071 C   0  0  0  0  0  0  0  0  0  0  0  0
    4.8188   -1.1776   -0.8559 S   0  0  0  0  0  0  0  0  0  0  0  0
    3.2710   -1.7746   -0.5017 C   0  0  0  0  0  0  0  0  0  0  0  0
    2.6594   -2.5868   -1.3808 N   0  0  0  0  0  0  0  0  0  0  0  0
    1.4574   -2.9800   -0.9680 C   0  0  0  0  0  0  0  0  0  0  0  0
    0.8447   -2.6423    0.1709 N   0  0  0  0  0  0  0  0  0  0  0  0
    1.4880   -1.8166    1.0227 C   0  0  0  0  0  0  0  0  0  0  0  0
    0.6600   -1.4114    2.5332 S   0  0  0  0  0  0  0  0  0  0  0  0
   -0.9093   -0.6649    1.8987 C   0  0  0  0  0  0  0  0  0  0  0  0
   -1.8696   -1.7647    1.4480 C   0  0  0  0  0  0  0  0  0  0  0  0
   -0.6112    0.4430    0.8567 C   0  0  0  0  0  0  0  0  0  0  0  0
    0.4137    1.1294    0.8966 O   0  0  0  0  0  0  0  0  0  0  0  0
   -1.6245    0.6509   -0.0880 N   0  0  0  0  0  0  0  0  0  0  0  0
   -2.8696    1.2479    0.3230 C   0  0  0  0  0  0  0  0  0  0  0  0
   -2.9486    1.8898    1.5791 C   0  0  0  0  0  0  0  0  0  0  0  0
   -4.1324    2.4751    2.0373 C   0  0  0  0  0  0  0  0  0  0  0  0
   -5.2694    2.4417    1.2456 C   0  0  0  0  0  0  0  0  0  0  0  0
   -5.2122    1.8347   -0.0057 C   0  0  0  0  0  0  0  0  0  0  0  0
   -4.0223    1.2488   -0.4752 C   0  0  0  0  0  0  0  0  0  0  0  0
   -4.0950    0.4967   -2.0739 S   0  0  0  0  0  0  0  0  0  0  0  0
   -2.3688    0.3898   -2.4600 C   0  0  0  0  0  0  0  0  0  0  0  0
   -2.0532    0.1600   -3.8130 C   0  0  0  0  0  0  0  0  0  0  0  0
   -0.7361   -0.0225   -4.2223 C   0  0  0  0  0  0  0  0  0  0  0  0
    0.2770    0.0167   -3.2790 C   0  0  0  0  0  0  0  0  0  0  0  0
   -0.0313    0.2455   -1.9342 C   0  0  0  0  0  0  0  0  0  0  0  0
   -1.3552    0.4470   -1.4895 C   0  0  0  0  0  0  0  0  0  0  0  0
    2.7768   -1.3355    0.7198 C   0  0  0  0  0  0  0  0  0  0  0  0
    3.7448   -0.4590    1.3736 C   0  0  0  0  0  0  0  0  0  0  0  0
    3.5396    0.2098    2.6990 C   0  0  0  0  0  0  0  0  0  0  0  0
    5.8493    1.5612    1.0192 H   0  0  0  0  0  0  0  0  0  0  0  0
    6.5698    0.1640    1.8474 H   0  0  0  0  0  0  0  0  0  0  0  0
    6.8746    0.4299    0.1264 H   0  0  0  0  0  0  0  0  0  0  0  0
    0.9112   -3.6438   -1.6310 H   0  0  0  0  0  0  0  0  0  0  0  0
   -1.3505   -0.1715    2.7713 H   0  0  0  0  0  0  0  0  0  0  0  0
   -2.8924   -1.3784    1.3833 H   0  0  0  0  0  0  0  0  0  0  0  0
   -1.6246   -2.1579    0.4574 H   0  0  0  0  0  0  0  0  0  0  0  0
   -1.8989   -2.5978    2.1588 H   0  0  0  0  0  0  0  0  0  0  0  0
   -2.0748    1.9913    2.2194 H   0  0  0  0  0  0  0  0  0  0  0  0
   -4.1567    2.9671    3.0068 H   0  0  0  0  0  0  0  0  0  0  0  0
   -6.1945    2.8954    1.5916 H   0  0  0  0  0  0  0  0  0  0  0  0
   -6.1102    1.8230   -0.6214 H   0  0  0  0  0  0  0  0  0  0  0  0
   -2.8428    0.1101   -4.5608 H   0  0  0  0  0  0  0  0  0  0  0  0
   -0.5059   -0.1998   -5.2694 H   0  0  0  0  0  0  0  0  0  0  0  0
    1.3132   -0.1267   -3.5781 H   0  0  0  0  0  0  0  0  0  0  0  0
    0.8122    0.2846   -1.2507 H   0  0  0  0  0  0  0  0  0  0  0  0
    3.4030   -0.5365    3.4875 H   0  0  0  0  0  0  0  0  0  0  0  0
    2.6684    0.8707    2.6664 H   0  0  0  0  0  0  0  0  0  0  0  0
    4.3979    0.8253    2.9853 H   0  0  0  0  0  0  0  0  0  0  0  0
  1  2  1  0
  2  3  1  0
  3  4  1  0
  4  5  2  0
  5  6  1  0
  6  7  2  0
  7  8  1  0
  8  9  1  0
  9 10  1  0
 10 11  1  0
 10 12  1  0
 12 13  2  0
 12 14  1  0
 14 15  1  0
 15 16  2  0
 16 17  1  0
 17 18  2  0
 18 19  1  0
 19 20  2  0
 20 21  1  0
 21 22  1  0
 22 23  2  0
 23 24  1  0
 24 25  2  0
 25 26  1  0
 26 27  2  0
  8 28  2  0
 28 29  1  0
 29 30  1  0
 29  2  2  0
 28  4  1  0
 27 14  1  0
 20 15  1  0
 27 22  1  0
  1 31  1  0
  1 32  1  0
  1 33  1  0
  6 34  1  0
 10 35  1  0
 11 36  1  0
 11 37  1  0
 11 38  1  0
 16 39  1  0
 17 40  1  0
 18 41  1  0
 19 42  1  0
 23 43  1  0
 24 44  1  0
 25 45  1  0
 26 46  1  0
 30 47  1  0
 30 48  1  0
 30 49  1  0
M  END
$$$$
