
     RDKit          3D

 41 44  0  0  0  0  0  0  0  0999 V2000
   -2.5428   -1.2244   -0.0158 O   0  0  0  0  0  0  0  0  0  0  0  0
   -2.7643   -0.1209   -0.9242 S   0  0  0  0  0  6  0  0  0  0  0  0
   -3.9651   -0.0514   -1.7315 O   0  0  0  0  0  0  0  0  0  0  0  0
   -1.4720   -0.0063   -2.0120 N   0  0  0  0  0  0  0  0  0  0  0  0
   -0.1711   -0.3708   -1.5426 C   0  0  0  0  0  0  0  0  0  0  0  0
    0.5751    0.6233   -0.9048 C   0  0  0  0  0  0  0  0  0  0  0  0
    1.8153    0.3292   -0.3413 C   0  0  0  0  0  0  0  0  0  0  0  0
    2.6959    1.6571    0.4688 S   0  0  0  0  0  0  0  0  0  0  0  0
    2.5910    1.1426    2.1284 C   0  0  0  0  0  0  0  0  0  0  0  0
    1.7326    1.6839    3.0425 N   0  0  0  0  0  0  0  0  0  0  0  0
    1.9762    0.9818    4.1242 C   0  0  0  0  0  0  0  0  0  0  0  0
    2.9397    0.0593    3.8615 N   0  0  0  0  0  0  0  0  0  0  0  0
    3.3536    0.1406    2.5842 N   0  0  0  0  0  0  0  0  0  0  0  0
    2.3164   -0.9762   -0.4543 C   0  0  0  0  0  0  0  0  0  0  0  0
    3.5337   -1.3098    0.0973 O   0  0  0  0  0  0  0  0  0  0  0  0
    1.5950   -1.9925   -1.1225 C   0  0  0  0  0  0  0  0  0  0  0  0
    2.1011   -3.3040   -1.2503 C   0  0  0  0  0  0  0  0  0  0  0  0
    1.3747   -4.3093   -1.8870 C   0  0  0  0  0  0  0  0  0  0  0  0
    0.1202   -4.0265   -2.4060 C   0  0  0  0  0  0  0  0  0  0  0  0
   -0.4019   -2.7367   -2.2953 C   0  0  0  0  0  0  0  0  0  0  0  0
    0.3193   -1.6946   -1.6640 C   0  0  0  0  0  0  0  0  0  0  0  0
   -2.6414    1.3993   -0.0161 C   0  0  0  0  0  0  0  0  0  0  0  0
   -2.0116    1.4106    1.2328 C   0  0  0  0  0  0  0  0  0  0  0  0
   -1.8954    2.6115    1.9313 C   0  0  0  0  0  0  0  0  0  0  0  0
   -2.4281    3.7851    1.3952 C   0  0  0  0  0  0  0  0  0  0  0  0
   -3.0791    3.7637    0.1599 C   0  0  0  0  0  0  0  0  0  0  0  0
   -3.1900    2.5686   -0.5508 C   0  0  0  0  0  0  0  0  0  0  0  0
   -1.7433   -0.3114   -2.9454 H   0  0  0  0  0  0  0  0  0  0  0  0
    0.1818    1.6358   -0.8459 H   0  0  0  0  0  0  0  0  0  0  0  0
    1.5037    1.0906    5.0901 H   0  0  0  0  0  0  0  0  0  0  0  0
    3.3484   -0.6349    4.4784 H   0  0  0  0  0  0  0  0  0  0  0  0
    3.7205   -0.6767    0.8226 H   0  0  0  0  0  0  0  0  0  0  0  0
    3.0808   -3.5489   -0.8423 H   0  0  0  0  0  0  0  0  0  0  0  0
    1.7887   -5.3108   -1.9672 H   0  0  0  0  0  0  0  0  0  0  0  0
   -0.4584   -4.8079   -2.8918 H   0  0  0  0  0  0  0  0  0  0  0  0
   -1.3952   -2.5596   -2.7000 H   0  0  0  0  0  0  0  0  0  0  0  0
   -1.5925    0.5000    1.6558 H   0  0  0  0  0  0  0  0  0  0  0  0
   -1.3826    2.6338    2.8905 H   0  0  0  0  0  0  0  0  0  0  0  0
   -2.3358    4.7199    1.9434 H   0  0  0  0  0  0  0  0  0  0  0  0
   -3.4975    4.6804   -0.2486 H   0  0  0  0  0  0  0  0  0  0  0  0
   -3.6958    2.5564   -1.5134 H   0  0  0  0  0  0  0  0  0  0  0  0
  1  2  2  0
  2  3  2  0
  2  4  1  0
  4  5  1  0
  5  6  2  0
  6  7  1  0
  7  8  1  0
  8  9  1  0
  9 10  1  0
 10 11  2  0
 11 12  1  0
 12 13  1  0
  7 14  2  0
 14 15  1  0
 14 16  1  0
 16 17  2  0
 17 18  1  0
 18 19  2  0
 19 20  1  0
 20 21  2  0
  2 22  1  0
 22 23  2  0
 23 24  1  0
 24 25  2  0
 25 26  1  0
 26 27  2  0
 21  5  1  0
 27 22  1  0
 13  9  2  0
 21 16  1  0
  4 28  1  0
  6 29  1  0
 11 30  1  0
 12 31  1  0
 15 32  1  0
 17 33  1  0
 18 34  1  0
 19 35  1  0
 20 36  1  0
 23 37  1  0
 24 38  1  0
 25 39  1  0
 26 40  1  0
 27 41  1  0
M  END
$$$$
