
     RDKit          3D

 39 41  0  0  0  0  0  0  0  0999 V2000
    5.4395   -0.3629    0.3575 C   0  0  0  0  0  0  0  0  0  0  0  0
    4.5884   -0.0479   -0.8598 C   0  0  0  0  0  0  0  0  0  0  0  0
    3.8036    1.1639   -0.6844 N   0  0  0  0  0  0  0  0  0  0  0  0
    4.3616    2.3401   -1.0556 N   0  0  0  0  0  0  0  0  0  0  0  0
    3.4242    3.2428   -0.7722 C   0  0  0  0  0  0  0  0  0  0  0  0
    2.2684    2.6443   -0.2596 C   0  0  0  0  0  0  0  0  0  0  0  0
    0.7722    3.6244    0.2950 Br  0  0  0  0  0  0  0  0  0  0  0  0
    2.5055    1.2837   -0.2263 C   0  0  0  0  0  0  0  0  0  0  0  0
    1.6880    0.1681    0.2118 C   0  0  0  0  0  0  0  0  0  0  0  0
    2.2031   -0.8455    0.6669 O   0  0  0  0  0  0  0  0  0  0  0  0
    0.3346    0.3622    0.0058 N   0  0  0  0  0  0  0  0  0  0  0  0
   -0.7130   -0.4837    0.3467 C   0  0  0  0  0  0  0  0  0  0  0  0
   -0.4306   -1.8809    1.3097 S   0  0  0  0  0  0  0  0  0  0  0  0
   -2.0485   -2.2658    1.2959 C   0  0  0  0  0  0  0  0  0  0  0  0
   -2.8186   -1.3849    0.5946 C   0  0  0  0  0  0  0  0  0  0  0  0
   -2.0637   -0.3236    0.0149 C   0  0  0  0  0  0  0  0  0  0  0  0
   -2.6413    0.7432   -0.8018 C   0  0  0  0  0  0  0  0  0  0  0  0
   -3.8433    0.8414   -1.0215 O   0  0  0  0  0  0  0  0  0  0  0  0
   -1.7074    1.6102   -1.3020 O   0  0  0  0  0  0  0  0  0  0  0  0
   -2.2595    2.6430   -2.1215 C   0  0  0  0  0  0  0  0  0  0  0  0
   -4.2487   -1.7911    0.6219 C   0  0  0  0  0  0  0  0  0  0  0  0
   -4.2657   -2.8749    1.7456 C   0  0  0  0  0  0  0  0  0  0  0  0
   -2.8014   -3.3874    1.9013 C   0  0  0  0  0  0  0  0  0  0  0  0
    4.8247   -0.5022    1.2522 H   0  0  0  0  0  0  0  0  0  0  0  0
    6.0145   -1.2791    0.1916 H   0  0  0  0  0  0  0  0  0  0  0  0
    6.1450    0.4490    0.5643 H   0  0  0  0  0  0  0  0  0  0  0  0
    3.9120   -0.8723   -1.1023 H   0  0  0  0  0  0  0  0  0  0  0  0
    5.2287    0.1027   -1.7372 H   0  0  0  0  0  0  0  0  0  0  0  0
    3.6332    4.2901   -0.9493 H   0  0  0  0  0  0  0  0  0  0  0  0
    0.0597    1.1986   -0.4993 H   0  0  0  0  0  0  0  0  0  0  0  0
   -2.7885    2.2143   -2.9785 H   0  0  0  0  0  0  0  0  0  0  0  0
   -2.9237    3.2831   -1.5326 H   0  0  0  0  0  0  0  0  0  0  0  0
   -1.4340    3.2535   -2.4977 H   0  0  0  0  0  0  0  0  0  0  0  0
   -4.5402   -2.2297   -0.3381 H   0  0  0  0  0  0  0  0  0  0  0  0
   -4.9218   -0.9645    0.8652 H   0  0  0  0  0  0  0  0  0  0  0  0
   -4.9697   -3.6849    1.5311 H   0  0  0  0  0  0  0  0  0  0  0  0
   -4.5810   -2.4059    2.6872 H   0  0  0  0  0  0  0  0  0  0  0  0
   -2.5520   -3.5618    2.9514 H   0  0  0  0  0  0  0  0  0  0  0  0
   -2.6545   -4.3092    1.3292 H   0  0  0  0  0  0  0  0  0  0  0  0
  1  2  1  0
  2  3  1  0
  3  4  1  0
  4  5  2  0
  5  6  1  0
  6  7  1  0
  6  8  2  0
  8  9  1  0
  9 10  2  0
  9 11  1  0
 11 12  1  0
 12 13  1  0
 13 14  1  0
 14 15  2  0
 15 16  1  0
 16 17  1  0
 17 18  2  0
 17 19  1  0
 19 20  1  0
 15 21  1  0
 21 22  1  0
 22 23  1  0
  8  3  1  0
 16 12  2  0
 23 14  1  0
  1 24  1  0
  1 25  1  0
  1 26  1  0
  2 27  1  0
  2 28  1  0
  5 29  1  0
 11 30  1  0
 20 31  1  0
 20 32  1  0
 20 33  1  0
 21 34  1  0
 21 35  1  0
 22 36  1  0
 22 37  1  0
 23 38  1  0
 23 39  1  0
M  END
$$$$
