
     RDKit          3D

 57 59  0  0  0  0  0  0  0  0999 V2000
   -5.6613   -4.3450   -1.6694 C   0  0  0  0  0  0  0  0  0  0  0  0
   -6.1053   -3.1181   -1.1081 O   0  0  0  0  0  0  0  0  0  0  0  0
   -5.3172   -2.0090   -1.2902 C   0  0  0  0  0  0  0  0  0  0  0  0
   -4.1065   -2.0069   -1.9935 C   0  0  0  0  0  0  0  0  0  0  0  0
   -3.3676   -0.8293   -2.1242 C   0  0  0  0  0  0  0  0  0  0  0  0
   -3.8306    0.3451   -1.5296 C   0  0  0  0  0  0  0  0  0  0  0  0
   -2.9084    1.8568   -1.7166 S   0  0  0  0  0  6  0  0  0  0  0  0
   -2.0706    1.7114   -2.8881 O   0  0  0  0  0  0  0  0  0  0  0  0
   -3.8476    2.9515   -1.5986 O   0  0  0  0  0  0  0  0  0  0  0  0
   -1.9040    1.9049   -0.3846 N   0  0  0  0  0  0  0  0  0  0  0  0
   -2.4532    2.0629    0.9623 C   0  0  0  0  0  0  0  0  0  0  0  0
   -1.2836    1.6490    1.8290 C   0  0  0  0  0  0  0  0  0  0  0  0
   -0.6710    0.5934    1.0805 O   0  0  0  0  0  0  0  0  0  0  0  0
   -0.7814    0.9630   -0.3076 C   0  0  0  0  0  0  0  0  0  0  0  0
    0.5181    1.6399   -0.8089 C   0  0  0  0  0  0  0  0  0  0  0  0
    1.6868    0.7852   -0.6996 N   0  0  0  0  0  0  0  0  0  0  0  0
    2.4506    0.7375    0.4449 C   0  0  0  0  0  0  0  0  0  0  0  0
    2.3580    1.4787    1.4132 O   0  0  0  0  0  0  0  0  0  0  0  0
    3.5126   -0.3855    0.4282 C   0  0  0  0  0  0  0  0  0  0  0  0
    3.5906   -1.1388   -0.5326 O   0  0  0  0  0  0  0  0  0  0  0  0
    4.2989   -0.4118    1.5543 N   0  0  0  0  0  0  0  0  0  0  0  0
    5.4441   -1.2739    1.6785 C   0  0  0  0  0  0  0  0  0  0  0  0
    6.7074   -0.5476    1.2933 C   0  0  0  0  0  0  0  0  0  0  0  0
    7.1094   -0.4932   -0.0515 C   0  0  0  0  0  0  0  0  0  0  0  0
    8.2657    0.1975   -0.4160 C   0  0  0  0  0  0  0  0  0  0  0  0
    9.0164    0.8393    0.5611 C   0  0  0  0  0  0  0  0  0  0  0  0
   10.1261    1.5029    0.2113 F   0  0  0  0  0  0  0  0  0  0  0  0
    8.6312    0.8068    1.8961 C   0  0  0  0  0  0  0  0  0  0  0  0
    7.4746    0.1169    2.2635 C   0  0  0  0  0  0  0  0  0  0  0  0
   -5.0556    0.3674   -0.8541 C   0  0  0  0  0  0  0  0  0  0  0  0
   -5.8007   -0.8084   -0.7267 C   0  0  0  0  0  0  0  0  0  0  0  0
   -7.0001   -0.8926   -0.0636 O   0  0  0  0  0  0  0  0  0  0  0  0
   -7.6265    0.3230    0.3228 C   0  0  0  0  0  0  0  0  0  0  0  0
   -5.5964   -4.2795   -2.7605 H   0  0  0  0  0  0  0  0  0  0  0  0
   -6.4032   -5.1118   -1.4266 H   0  0  0  0  0  0  0  0  0  0  0  0
   -4.7065   -4.6565   -1.2333 H   0  0  0  0  0  0  0  0  0  0  0  0
   -3.7150   -2.9059   -2.4587 H   0  0  0  0  0  0  0  0  0  0  0  0
   -2.4408   -0.8410   -2.6937 H   0  0  0  0  0  0  0  0  0  0  0  0
   -2.7694    3.0884    1.1658 H   0  0  0  0  0  0  0  0  0  0  0  0
   -3.2890    1.3779    1.1262 H   0  0  0  0  0  0  0  0  0  0  0  0
   -0.5582    2.4604    1.9553 H   0  0  0  0  0  0  0  0  0  0  0  0
   -1.5898    1.2857    2.8134 H   0  0  0  0  0  0  0  0  0  0  0  0
   -0.9588    0.0380   -0.8616 H   0  0  0  0  0  0  0  0  0  0  0  0
    0.7106    2.5552   -0.2371 H   0  0  0  0  0  0  0  0  0  0  0  0
    0.4240    1.9175   -1.8632 H   0  0  0  0  0  0  0  0  0  0  0  0
    1.8595    0.0563   -1.3875 H   0  0  0  0  0  0  0  0  0  0  0  0
    4.1660    0.3508    2.2123 H   0  0  0  0  0  0  0  0  0  0  0  0
    5.4969   -1.6047    2.7215 H   0  0  0  0  0  0  0  0  0  0  0  0
    5.3166   -2.1691    1.0592 H   0  0  0  0  0  0  0  0  0  0  0  0
    6.5167   -0.9870   -0.8205 H   0  0  0  0  0  0  0  0  0  0  0  0
    8.5818    0.2415   -1.4532 H   0  0  0  0  0  0  0  0  0  0  0  0
    9.2317    1.3206    2.6399 H   0  0  0  0  0  0  0  0  0  0  0  0
    7.1758    0.1012    3.3093 H   0  0  0  0  0  0  0  0  0  0  0  0
   -5.4064    1.3050   -0.4351 H   0  0  0  0  0  0  0  0  0  0  0  0
   -8.6089    0.0761    0.7365 H   0  0  0  0  0  0  0  0  0  0  0  0
   -7.7837    0.9817   -0.5378 H   0  0  0  0  0  0  0  0  0  0  0  0
   -7.0527    0.8264    1.1075 H   0  0  0  0  0  0  0  0  0  0  0  0
  1  2  1  0
  2  3  1  0
  3  4  2  0
  4  5  1  0
  5  6  2  0
  6  7  1  0
  7  8  2  0
  7  9  2  0
  7 10  1  0
 10 11  1  0
 11 12  1  0
 12 13  1  0
 13 14  1  0
 14 15  1  0
 15 16  1  0
 16 17  1  0
 17 18  2  0
 17 19  1  0
 19 20  2  0
 19 21  1  0
 21 22  1  0
 22 23  1  0
 23 24  2  0
 24 25  1  0
 25 26  2  0
 26 27  1  0
 26 28  1  0
 28 29  2  0
  6 30  1  0
 30 31  2  0
 31 32  1  0
 32 33  1  0
 31  3  1  0
 14 10  1  0
 29 23  1  0
  1 34  1  0
  1 35  1  0
  1 36  1  0
  4 37  1  0
  5 38  1  0
 11 39  1  0
 11 40  1  0
 12 41  1  0
 12 42  1  0
 14 43  1  0
 15 44  1  0
 15 45  1  0
 16 46  1  0
 21 47  1  0
 22 48  1  0
 22 49  1  0
 24 50  1  0
 25 51  1  0
 28 52  1  0
 29 53  1  0
 30 54  1  0
 33 55  1  0
 33 56  1  0
 33 57  1  0
M  END
$$$$
