
     RDKit          3D

 29 30  0  0  0  0  0  0  0  0999 V2000
    4.0270   -1.1049   -1.0876 C   0  0  0  0  0  0  0  0  0  0  0  0
    2.7688   -0.4202   -0.5847 C   0  0  0  0  0  0  0  0  0  0  0  0
    2.8712   -0.2414    0.8626 N   0  0  0  0  0  0  0  0  0  0  0  0
    1.9598    0.9460    1.6210 S   0  0  0  0  0  6  0  0  0  0  0  0
    2.2431    2.2127    0.9843 O   0  0  0  0  0  0  0  0  0  0  0  0
    2.1386    0.7510    3.0431 O   0  0  0  0  0  0  0  0  0  0  0  0
    0.2971    0.4762    1.2140 C   0  0  0  0  0  0  0  0  0  0  0  0
   -0.3539   -0.4938    2.0009 C   0  0  0  0  0  0  0  0  0  0  0  0
   -1.6564   -0.8859    1.6889 C   0  0  0  0  0  0  0  0  0  0  0  0
   -2.2774   -0.2757    0.6119 C   0  0  0  0  0  0  0  0  0  0  0  0
   -1.6409    0.7111   -0.1441 C   0  0  0  0  0  0  0  0  0  0  0  0
   -0.3439    1.0916    0.1326 C   0  0  0  0  0  0  0  0  0  0  0  0
   -2.4175    1.1529   -1.2418 N   0  0  0  0  0  0  0  0  0  0  0  0
   -3.7724    0.6906   -0.8880 C   0  0  0  0  0  0  0  0  0  0  0  0
   -3.6282   -0.5328    0.0365 C   0  0  0  0  0  0  0  0  0  0  0  0
    3.9734   -1.2546   -2.1703 H   0  0  0  0  0  0  0  0  0  0  0  0
    4.9155   -0.5034   -0.8677 H   0  0  0  0  0  0  0  0  0  0  0  0
    4.1597   -2.0829   -0.6129 H   0  0  0  0  0  0  0  0  0  0  0  0
    2.6578    0.5430   -1.0917 H   0  0  0  0  0  0  0  0  0  0  0  0
    1.8997   -1.0441   -0.8153 H   0  0  0  0  0  0  0  0  0  0  0  0
    3.0482   -1.0562    1.4470 H   0  0  0  0  0  0  0  0  0  0  0  0
    0.1552   -0.9473    2.8490 H   0  0  0  0  0  0  0  0  0  0  0  0
   -2.1631   -1.6474    2.2731 H   0  0  0  0  0  0  0  0  0  0  0  0
    0.1593    1.8357   -0.4759 H   0  0  0  0  0  0  0  0  0  0  0  0
   -2.3335    2.1583   -1.3754 H   0  0  0  0  0  0  0  0  0  0  0  0
   -4.3479    0.4478   -1.7871 H   0  0  0  0  0  0  0  0  0  0  0  0
   -4.2994    1.4988   -0.3634 H   0  0  0  0  0  0  0  0  0  0  0  0
   -4.4182   -0.5610    0.7917 H   0  0  0  0  0  0  0  0  0  0  0  0
   -3.6217   -1.4639   -0.5394 H   0  0  0  0  0  0  0  0  0  0  0  0
  1  2  1  0
  2  3  1  0
  3  4  1  0
  4  5  2  0
  4  6  2  0
  4  7  1  0
  7  8  2  0
  8  9  1  0
  9 10  2  0
 10 11  1  0
 11 12  2  0
 11 13  1  0
 13 14  1  0
 14 15  1  0
 12  7  1  0
 15 10  1  0
  1 16  1  0
  1 17  1  0
  1 18  1  0
  2 19  1  0
  2 20  1  0
  3 21  1  0
  8 22  1  0
  9 23  1  0
 12 24  1  0
 13 25  1  0
 14 26  1  0
 14 27  1  0
 15 28  1  0
 15 29  1  0
M  END
$$$$
