
     RDKit          3D

 45 47  0  0  0  0  0  0  0  0999 V2000
   -3.9482    2.5259    0.3677 O   0  0  0  0  0  0  0  0  0  0  0  0
   -3.4283    1.4145    0.2778 C   0  0  0  0  0  0  0  0  0  0  0  0
   -4.2265    0.1575   -0.0482 C   0  0  0  0  0  0  0  0  0  0  0  0
   -5.7092    0.3863   -0.2347 C   0  0  0  0  0  0  0  0  0  0  0  0
   -6.2255    0.7055   -1.4993 C   0  0  0  0  0  0  0  0  0  0  0  0
   -7.5941    0.9278   -1.6687 C   0  0  0  0  0  0  0  0  0  0  0  0
   -8.4511    0.8378   -0.5744 C   0  0  0  0  0  0  0  0  0  0  0  0
  -10.1373    1.1104   -0.7842 Cl  0  0  0  0  0  0  0  0  0  0  0  0
   -7.9516    0.5306    0.6890 C   0  0  0  0  0  0  0  0  0  0  0  0
   -6.5833    0.3082    0.8597 C   0  0  0  0  0  0  0  0  0  0  0  0
   -1.9835    1.2521    0.4832 C   0  0  0  0  0  0  0  0  0  0  0  0
   -1.1149    2.2779    0.8067 C   0  0  0  0  0  0  0  0  0  0  0  0
    0.1464    1.7640    0.9369 N   0  0  0  0  0  0  0  0  0  0  0  0
    0.1380    0.4125    0.6733 C   0  0  0  0  0  0  0  0  0  0  0  0
    1.2788   -0.4786    0.7135 C   0  0  0  0  0  0  0  0  0  0  0  0
    1.1691   -1.6979    0.7976 O   0  0  0  0  0  0  0  0  0  0  0  0
    2.5085    0.1406    0.6155 N   0  0  0  0  0  0  0  0  0  0  0  0
    3.7353   -0.6314    0.5843 C   0  0  0  0  0  0  0  0  0  0  0  0
    3.9997   -1.2200   -0.8015 C   0  0  0  0  0  0  0  0  0  0  0  0
    5.2300   -2.1250   -0.8282 C   0  0  0  0  0  0  0  0  0  0  0  0
    6.4667   -1.4188   -0.5684 N   0  0  0  0  0  0  0  0  0  0  0  0
    7.1882   -1.4453    0.5913 C   0  0  0  0  0  0  0  0  0  0  0  0
    8.2612   -0.6169    0.3578 C   0  0  0  0  0  0  0  0  0  0  0  0
    8.2079   -0.0980   -0.9101 N   0  0  0  0  0  0  0  0  0  0  0  0
    7.1258   -0.6112   -1.4501 C   0  0  0  0  0  0  0  0  0  0  0  0
   -1.1831    0.0763    0.4134 C   0  0  0  0  0  0  0  0  0  0  0  0
   -3.8176   -0.2881   -0.9635 H   0  0  0  0  0  0  0  0  0  0  0  0
   -4.0783   -0.5700    0.7595 H   0  0  0  0  0  0  0  0  0  0  0  0
   -5.5656    0.7913   -2.3599 H   0  0  0  0  0  0  0  0  0  0  0  0
   -7.9823    1.1761   -2.6527 H   0  0  0  0  0  0  0  0  0  0  0  0
   -8.6187    0.4688    1.5445 H   0  0  0  0  0  0  0  0  0  0  0  0
   -6.2047    0.0810    1.8540 H   0  0  0  0  0  0  0  0  0  0  0  0
   -1.3051    3.3320    0.9699 H   0  0  0  0  0  0  0  0  0  0  0  0
    0.9568    2.2965    1.2240 H   0  0  0  0  0  0  0  0  0  0  0  0
    2.5529    1.0974    0.2988 H   0  0  0  0  0  0  0  0  0  0  0  0
    3.6673   -1.4290    1.3326 H   0  0  0  0  0  0  0  0  0  0  0  0
    4.5392    0.0492    0.8817 H   0  0  0  0  0  0  0  0  0  0  0  0
    3.1331   -1.8089   -1.1254 H   0  0  0  0  0  0  0  0  0  0  0  0
    4.1077   -0.4055   -1.5289 H   0  0  0  0  0  0  0  0  0  0  0  0
    5.1377   -2.9320   -0.0922 H   0  0  0  0  0  0  0  0  0  0  0  0
    5.3315   -2.5917   -1.8150 H   0  0  0  0  0  0  0  0  0  0  0  0
    6.8962   -2.0253    1.4557 H   0  0  0  0  0  0  0  0  0  0  0  0
    9.0694   -0.3679    1.0335 H   0  0  0  0  0  0  0  0  0  0  0  0
    6.7777   -0.4274   -2.4585 H   0  0  0  0  0  0  0  0  0  0  0  0
   -1.5160   -0.9314    0.1914 H   0  0  0  0  0  0  0  0  0  0  0  0
  1  2  2  0
  2  3  1  0
  3  4  1  0
  4  5  2  0
  5  6  1  0
  6  7  2  0
  7  8  1  0
  7  9  1  0
  9 10  2  0
  2 11  1  0
 11 12  2  0
 12 13  1  0
 13 14  1  0
 14 15  1  0
 15 16  2  0
 15 17  1  0
 17 18  1  0
 18 19  1  0
 19 20  1  0
 20 21  1  0
 21 22  1  0
 22 23  2  0
 23 24  1  0
 24 25  2  0
 14 26  2  0
 10  4  1  0
 26 11  1  0
 25 21  1  0
  3 27  1  0
  3 28  1  0
  5 29  1  0
  6 30  1  0
  9 31  1  0
 10 32  1  0
 12 33  1  0
 13 34  1  0
 17 35  1  0
 18 36  1  0
 18 37  1  0
 19 38  1  0
 19 39  1  0
 20 40  1  0
 20 41  1  0
 22 42  1  0
 23 43  1  0
 25 44  1  0
 26 45  1  0
M  END
$$$$
