
     RDKit          3D

 44 46  0  0  0  0  0  0  0  0999 V2000
   -7.0450   -0.4372   -0.6923 C   0  0  0  0  0  0  0  0  0  0  0  0
   -5.6007   -0.0395   -0.6068 C   0  0  0  0  0  0  0  0  0  0  0  0
   -4.6146   -0.9805   -0.2815 C   0  0  0  0  0  0  0  0  0  0  0  0
   -3.2511   -0.6276   -0.2594 C   0  0  0  0  0  0  0  0  0  0  0  0
   -2.2472   -1.7037   -0.0012 C   0  0  0  0  0  0  0  0  0  0  0  0
   -2.8922    0.6948   -0.5605 C   0  0  0  0  0  0  0  0  0  0  0  0
   -1.5727    1.0605   -0.6305 O   0  0  0  0  0  0  0  0  0  0  0  0
   -1.0371    1.3774    0.6608 C   0  0  0  0  0  0  0  0  0  0  0  0
    0.4514    1.0195    0.7051 C   0  0  0  0  0  0  0  0  0  0  0  0
    1.1101    1.2167    1.7241 O   0  0  0  0  0  0  0  0  0  0  0  0
    0.8828    0.4341   -0.4666 N   0  0  0  0  0  0  0  0  0  0  0  0
    2.1095   -0.1428   -0.5987 C   0  0  0  0  0  0  0  0  0  0  0  0
    3.1651   -0.0225    0.1678 N   0  0  0  0  0  0  0  0  0  0  0  0
    4.1861   -0.8250   -0.3407 C   0  0  0  0  0  0  0  0  0  0  0  0
    5.5025   -0.8887    0.2835 C   0  0  0  0  0  0  0  0  0  0  0  0
    5.8357   -0.0080    1.3047 C   0  0  0  0  0  0  0  0  0  0  0  0
    7.1028   -0.0884    1.8760 C   0  0  0  0  0  0  0  0  0  0  0  0
    7.9971   -1.0384    1.4179 C   0  0  0  0  0  0  0  0  0  0  0  0
    7.5916   -1.8727    0.3896 C   0  0  0  0  0  0  0  0  0  0  0  0
    6.3678   -1.8265   -0.1810 N   0  0  0  0  0  0  0  0  0  0  0  0
    3.8442   -1.5540   -1.4667 C   0  0  0  0  0  0  0  0  0  0  0  0
    2.2482   -1.1673   -1.9591 S   0  0  0  0  0  0  0  0  0  0  0  0
   -3.8634    1.6408   -0.9254 C   0  0  0  0  0  0  0  0  0  0  0  0
   -3.4927    3.0546   -1.2892 C   0  0  0  0  0  0  0  0  0  0  0  0
   -5.2153    1.2615   -0.9268 C   0  0  0  0  0  0  0  0  0  0  0  0
   -7.2496   -1.3253   -0.0769 H   0  0  0  0  0  0  0  0  0  0  0  0
   -7.3036   -0.6629   -1.7337 H   0  0  0  0  0  0  0  0  0  0  0  0
   -7.6935    0.3670   -0.3234 H   0  0  0  0  0  0  0  0  0  0  0  0
   -4.9041   -2.0070   -0.0783 H   0  0  0  0  0  0  0  0  0  0  0  0
   -2.5161   -2.2687    0.9024 H   0  0  0  0  0  0  0  0  0  0  0  0
   -2.2020   -2.3883   -0.8581 H   0  0  0  0  0  0  0  0  0  0  0  0
   -1.2441   -1.3080    0.1548 H   0  0  0  0  0  0  0  0  0  0  0  0
   -1.1398    2.4507    0.8366 H   0  0  0  0  0  0  0  0  0  0  0  0
   -1.5340    0.8210    1.4714 H   0  0  0  0  0  0  0  0  0  0  0  0
    0.1976    0.2415   -1.1893 H   0  0  0  0  0  0  0  0  0  0  0  0
    5.1194    0.7346    1.6553 H   0  0  0  0  0  0  0  0  0  0  0  0
    7.3799    0.5932    2.6773 H   0  0  0  0  0  0  0  0  0  0  0  0
    8.9906   -1.1211    1.8423 H   0  0  0  0  0  0  0  0  0  0  0  0
    8.2661   -2.6251   -0.0197 H   0  0  0  0  0  0  0  0  0  0  0  0
    4.4510   -2.2726   -2.0205 H   0  0  0  0  0  0  0  0  0  0  0  0
   -2.6160    3.0866   -1.9478 H   0  0  0  0  0  0  0  0  0  0  0  0
   -3.2788    3.6308   -0.3830 H   0  0  0  0  0  0  0  0  0  0  0  0
   -4.3108    3.5352   -1.8324 H   0  0  0  0  0  0  0  0  0  0  0  0
   -5.9752    1.9814   -1.2087 H   0  0  0  0  0  0  0  0  0  0  0  0
  1  2  1  0
  2  3  2  0
  3  4  1  0
  4  5  1  0
  4  6  2  0
  6  7  1  0
  7  8  1  0
  8  9  1  0
  9 10  2  0
  9 11  1  0
 11 12  1  0
 12 13  2  0
 13 14  1  0
 14 15  1  0
 15 16  2  0
 16 17  1  0
 17 18  2  0
 18 19  1  0
 19 20  2  0
 14 21  2  0
 21 22  1  0
  6 23  1  0
 23 24  1  0
 23 25  2  0
 25  2  1  0
 22 12  1  0
 20 15  1  0
  1 26  1  0
  1 27  1  0
  1 28  1  0
  3 29  1  0
  5 30  1  0
  5 31  1  0
  5 32  1  0
  8 33  1  0
  8 34  1  0
 11 35  1  0
 16 36  1  0
 17 37  1  0
 18 38  1  0
 19 39  1  0
 21 40  1  0
 24 41  1  0
 24 42  1  0
 24 43  1  0
 25 44  1  0
M  END
$$$$
