
     RDKit          3D

 43 46  0  0  0  0  0  0  0  0999 V2000
   -1.5077    1.2234    2.1979 O   0  0  0  0  0  0  0  0  0  0  0  0
   -1.8593    0.5881    1.2114 C   0  0  0  0  0  0  0  0  0  0  0  0
   -1.0411   -0.0621    0.3052 N   0  0  0  0  0  0  0  0  0  0  0  0
    0.3685   -0.0687    0.2781 C   0  0  0  0  0  0  0  0  0  0  0  0
    1.1701    0.6730    1.1424 C   0  0  0  0  0  0  0  0  0  0  0  0
    2.5667    0.6128    1.0435 C   0  0  0  0  0  0  0  0  0  0  0  0
    3.1877   -0.1879    0.0785 C   0  0  0  0  0  0  0  0  0  0  0  0
    4.5980   -0.1822    0.0506 N   0  0  0  0  0  0  0  0  0  0  0  0
    5.4401   -0.9256   -0.7667 C   0  0  0  0  0  0  0  0  0  0  0  0
    5.0457   -1.7578   -1.5788 O   0  0  0  0  0  0  0  0  0  0  0  0
    6.8625   -0.6391   -0.5609 C   0  0  0  0  0  0  0  0  0  0  0  0
    7.4868    0.4587    0.0104 C   0  0  0  0  0  0  0  0  0  0  0  0
    8.9090    0.3409    0.0208 C   0  0  0  0  0  0  0  0  0  0  0  0
    9.3321   -0.8366   -0.5498 C   0  0  0  0  0  0  0  0  0  0  0  0
    8.0247   -1.7868   -1.1006 S   0  0  0  0  0  0  0  0  0  0  0  0
    2.3849   -0.9240   -0.7904 C   0  0  0  0  0  0  0  0  0  0  0  0
    0.9880   -0.8646   -0.6906 C   0  0  0  0  0  0  0  0  0  0  0  0
   -3.3185    0.4429    0.9491 C   0  0  0  0  0  0  0  0  0  0  0  0
   -4.1831    0.3200    2.0397 C   0  0  0  0  0  0  0  0  0  0  0  0
   -5.5561    0.1771    1.8310 C   0  0  0  0  0  0  0  0  0  0  0  0
   -6.0854    0.1671    0.5310 C   0  0  0  0  0  0  0  0  0  0  0  0
   -7.4636    0.0239    0.3063 C   0  0  0  0  0  0  0  0  0  0  0  0
   -7.9788    0.0257   -0.9908 C   0  0  0  0  0  0  0  0  0  0  0  0
   -7.1238    0.1728   -2.0789 C   0  0  0  0  0  0  0  0  0  0  0  0
   -5.7507    0.3164   -1.8734 C   0  0  0  0  0  0  0  0  0  0  0  0
   -5.2149    0.3125   -0.5753 C   0  0  0  0  0  0  0  0  0  0  0  0
   -3.8347    0.4545   -0.3537 C   0  0  0  0  0  0  0  0  0  0  0  0
   -1.4933   -0.6569   -0.3771 H   0  0  0  0  0  0  0  0  0  0  0  0
    0.7426    1.3140    1.9072 H   0  0  0  0  0  0  0  0  0  0  0  0
    3.1528    1.2069    1.7402 H   0  0  0  0  0  0  0  0  0  0  0  0
    5.0407    0.3960    0.7495 H   0  0  0  0  0  0  0  0  0  0  0  0
    6.9654    1.3271    0.3931 H   0  0  0  0  0  0  0  0  0  0  0  0
    9.5869    1.0864    0.4191 H   0  0  0  0  0  0  0  0  0  0  0  0
   10.3481   -1.1844   -0.6790 H   0  0  0  0  0  0  0  0  0  0  0  0
    2.8068   -1.5577   -1.5640 H   0  0  0  0  0  0  0  0  0  0  0  0
    0.3996   -1.4567   -1.3870 H   0  0  0  0  0  0  0  0  0  0  0  0
   -3.7894    0.3327    3.0543 H   0  0  0  0  0  0  0  0  0  0  0  0
   -6.2111    0.0778    2.6942 H   0  0  0  0  0  0  0  0  0  0  0  0
   -8.1494   -0.0880    1.1435 H   0  0  0  0  0  0  0  0  0  0  0  0
   -9.0484   -0.0849   -1.1500 H   0  0  0  0  0  0  0  0  0  0  0  0
   -7.5255    0.1774   -3.0890 H   0  0  0  0  0  0  0  0  0  0  0  0
   -5.1021    0.4324   -2.7390 H   0  0  0  0  0  0  0  0  0  0  0  0
   -3.1711    0.6034   -1.2020 H   0  0  0  0  0  0  0  0  0  0  0  0
  1  2  2  0
  2  3  1  0
  3  4  1  0
  4  5  2  0
  5  6  1  0
  6  7  2  0
  7  8  1  0
  8  9  1  0
  9 10  2  0
  9 11  1  0
 11 12  2  0
 12 13  1  0
 13 14  2  0
 14 15  1  0
  7 16  1  0
 16 17  2  0
  2 18  1  0
 18 19  2  0
 19 20  1  0
 20 21  2  0
 21 22  1  0
 22 23  2  0
 23 24  1  0
 24 25  2  0
 25 26  1  0
 26 27  2  0
 17  4  1  0
 27 18  1  0
 15 11  1  0
 26 21  1  0
  3 28  1  0
  5 29  1  0
  6 30  1  0
  8 31  1  0
 12 32  1  0
 13 33  1  0
 14 34  1  0
 16 35  1  0
 17 36  1  0
 19 37  1  0
 20 38  1  0
 22 39  1  0
 23 40  1  0
 24 41  1  0
 25 42  1  0
 27 43  1  0
M  END
$$$$
