
     RDKit          3D

 33 33  0  0  0  0  0  0  0  0999 V2000
   -3.3197   -0.0503    2.2135 C   0  0  0  0  0  0  0  0  0  0  0  0
   -3.6322   -0.5775    0.8121 C   0  0  0  0  0  0  0  0  0  0  0  0
   -5.0975   -0.3010    0.4703 C   0  0  0  0  0  0  0  0  0  0  0  0
   -2.8062    0.0422   -0.2288 N   0  0  0  0  0  0  0  0  0  0  0  0
   -1.3891   -0.3122   -0.1369 C   0  0  0  0  0  0  0  0  0  0  0  0
   -0.6713    0.1808   -1.3978 C   0  0  0  0  0  0  0  0  0  0  0  0
    0.8041   -0.2133   -1.4066 C   0  0  0  0  0  0  0  0  0  0  0  0
    1.4578    0.4155   -0.3071 O   0  0  0  0  0  0  0  0  0  0  0  0
    2.8207    0.3170   -0.2296 C   0  0  0  0  0  0  0  0  0  0  0  0
    3.5970   -0.5296   -1.0291 C   0  0  0  0  0  0  0  0  0  0  0  0
    4.9867   -0.5766   -0.8709 C   0  0  0  0  0  0  0  0  0  0  0  0
    5.6069    0.2236    0.0850 C   0  0  0  0  0  0  0  0  0  0  0  0
    7.3161    0.1570    0.2733 Cl  0  0  0  0  0  0  0  0  0  0  0  0
    4.8526    1.0680    0.8937 C   0  0  0  0  0  0  0  0  0  0  0  0
    3.4639    1.1074    0.7378 C   0  0  0  0  0  0  0  0  0  0  0  0
    2.4777    2.2594    1.8819 Br  0  0  0  0  0  0  0  0  0  0  0  0
   -4.0217   -0.4679    2.9451 H   0  0  0  0  0  0  0  0  0  0  0  0
   -2.3139   -0.3346    2.5360 H   0  0  0  0  0  0  0  0  0  0  0  0
   -3.4003    1.0418    2.2633 H   0  0  0  0  0  0  0  0  0  0  0  0
   -3.4896   -1.6639    0.7980 H   0  0  0  0  0  0  0  0  0  0  0  0
   -5.3532   -0.6929   -0.5214 H   0  0  0  0  0  0  0  0  0  0  0  0
   -5.7618   -0.7826    1.1969 H   0  0  0  0  0  0  0  0  0  0  0  0
   -5.3180    0.7728    0.4769 H   0  0  0  0  0  0  0  0  0  0  0  0
   -2.9051    1.0550   -0.1887 H   0  0  0  0  0  0  0  0  0  0  0  0
   -1.2731   -1.4014   -0.0608 H   0  0  0  0  0  0  0  0  0  0  0  0
   -0.9370    0.1442    0.7519 H   0  0  0  0  0  0  0  0  0  0  0  0
   -1.1533   -0.2388   -2.2901 H   0  0  0  0  0  0  0  0  0  0  0  0
   -0.7521    1.2747   -1.4573 H   0  0  0  0  0  0  0  0  0  0  0  0
    0.8948   -1.3040   -1.3240 H   0  0  0  0  0  0  0  0  0  0  0  0
    1.2453    0.1258   -2.3499 H   0  0  0  0  0  0  0  0  0  0  0  0
    3.1519   -1.1780   -1.7772 H   0  0  0  0  0  0  0  0  0  0  0  0
    5.5760   -1.2450   -1.4931 H   0  0  0  0  0  0  0  0  0  0  0  0
    5.3438    1.6844    1.6421 H   0  0  0  0  0  0  0  0  0  0  0  0
  1  2  1  0
  2  3  1  0
  2  4  1  0
  4  5  1  0
  5  6  1  0
  6  7  1  0
  7  8  1  0
  8  9  1  0
  9 10  2  0
 10 11  1  0
 11 12  2  0
 12 13  1  0
 12 14  1  0
 14 15  2  0
 15 16  1  0
 15  9  1  0
  1 17  1  0
  1 18  1  0
  1 19  1  0
  2 20  1  0
  3 21  1  0
  3 22  1  0
  3 23  1  0
  4 24  1  0
  5 25  1  0
  5 26  1  0
  6 27  1  0
  6 28  1  0
  7 29  1  0
  7 30  1  0
 10 31  1  0
 11 32  1  0
 14 33  1  0
M  END
$$$$
