
     RDKit          3D

 52 54  0  0  0  0  0  0  0  0999 V2000
    6.4200   -2.8220   -4.9642 C   0  0  0  0  0  0  0  0  0  0  0  0
    6.0476   -2.3890   -3.5773 C   0  0  0  0  0  0  0  0  0  0  0  0
    5.8600   -1.0339   -3.2844 C   0  0  0  0  0  0  0  0  0  0  0  0
    5.4809   -0.6326   -2.0015 C   0  0  0  0  0  0  0  0  0  0  0  0
    5.2792   -1.5798   -0.9888 C   0  0  0  0  0  0  0  0  0  0  0  0
    4.8459   -1.1433    0.3857 C   0  0  0  0  0  0  0  0  0  0  0  0
    3.4134   -1.0239    0.4586 N   0  0  0  0  0  0  0  0  0  0  0  0
    2.7639    0.1728    0.2747 C   0  0  0  0  0  0  0  0  0  0  0  0
    3.2831    1.2757    0.1750 O   0  0  0  0  0  0  0  0  0  0  0  0
    1.2267    0.0296    0.1917 C   0  0  0  0  0  0  0  0  0  0  0  0
    0.6985   -1.0616    0.3494 O   0  0  0  0  0  0  0  0  0  0  0  0
    0.5699    1.2141   -0.0428 N   0  0  0  0  0  0  0  0  0  0  0  0
   -0.8784    1.3107    0.0193 C   0  0  0  0  0  0  0  0  0  0  0  0
   -1.4456    1.1703    1.4453 C   0  0  0  0  0  0  0  0  0  0  0  0
   -0.8488    2.1784    2.2896 O   0  0  0  0  0  0  0  0  0  0  0  0
   -1.8025    2.3875    3.3317 C   0  0  0  0  0  0  0  0  0  0  0  0
   -3.1256    2.3791    2.6005 C   0  0  0  0  0  0  0  0  0  0  0  0
   -2.9028    1.4492    1.4718 N   0  0  0  0  0  0  0  0  0  0  0  0
   -3.8525    0.0538    1.4203 S   0  0  0  0  0  6  0  0  0  0  0  0
   -3.5063   -0.6849    0.2276 O   0  0  0  0  0  0  0  0  0  0  0  0
   -3.7975   -0.5512    2.7340 O   0  0  0  0  0  0  0  0  0  0  0  0
   -5.4826    0.7156    1.1725 C   0  0  0  0  0  0  0  0  0  0  0  0
   -6.4653    0.5511    2.1532 C   0  0  0  0  0  0  0  0  0  0  0  0
   -7.7404    1.0787    1.9405 C   0  0  0  0  0  0  0  0  0  0  0  0
   -8.0213    1.7580    0.7533 C   0  0  0  0  0  0  0  0  0  0  0  0
   -9.7491    2.4716    0.4711 Br  0  0  0  0  0  0  0  0  0  0  0  0
   -7.0412    1.9138   -0.2285 C   0  0  0  0  0  0  0  0  0  0  0  0
   -5.7649    1.3884   -0.0213 C   0  0  0  0  0  0  0  0  0  0  0  0
    5.4429   -2.9379   -1.2906 C   0  0  0  0  0  0  0  0  0  0  0  0
    5.8224   -3.3384   -2.5743 C   0  0  0  0  0  0  0  0  0  0  0  0
    7.0331   -2.0617   -5.4593 H   0  0  0  0  0  0  0  0  0  0  0  0
    7.0064   -3.7465   -4.9404 H   0  0  0  0  0  0  0  0  0  0  0  0
    5.5168   -2.9908   -5.5586 H   0  0  0  0  0  0  0  0  0  0  0  0
    6.0045   -0.2797   -4.0547 H   0  0  0  0  0  0  0  0  0  0  0  0
    5.3352    0.4267   -1.7956 H   0  0  0  0  0  0  0  0  0  0  0  0
    5.1536   -1.8812    1.1348 H   0  0  0  0  0  0  0  0  0  0  0  0
    5.3225   -0.1927    0.6511 H   0  0  0  0  0  0  0  0  0  0  0  0
    2.8382   -1.8595    0.4042 H   0  0  0  0  0  0  0  0  0  0  0  0
    1.1324    2.0584    0.0297 H   0  0  0  0  0  0  0  0  0  0  0  0
   -1.1348    2.2923   -0.3951 H   0  0  0  0  0  0  0  0  0  0  0  0
   -1.3002    0.5437   -0.6383 H   0  0  0  0  0  0  0  0  0  0  0  0
   -1.2017    0.1948    1.8821 H   0  0  0  0  0  0  0  0  0  0  0  0
   -1.7273    1.5648    4.0518 H   0  0  0  0  0  0  0  0  0  0  0  0
   -1.6052    3.3329    3.8436 H   0  0  0  0  0  0  0  0  0  0  0  0
   -3.3401    3.3658    2.1750 H   0  0  0  0  0  0  0  0  0  0  0  0
   -3.9519    2.1078    3.2615 H   0  0  0  0  0  0  0  0  0  0  0  0
   -6.2514    0.0145    3.0751 H   0  0  0  0  0  0  0  0  0  0  0  0
   -8.5077    0.9515    2.7005 H   0  0  0  0  0  0  0  0  0  0  0  0
   -7.2632    2.4361   -1.1559 H   0  0  0  0  0  0  0  0  0  0  0  0
   -4.9999    1.4999   -0.7870 H   0  0  0  0  0  0  0  0  0  0  0  0
    5.2725   -3.6956   -0.5292 H   0  0  0  0  0  0  0  0  0  0  0  0
    5.9387   -4.3987   -2.7873 H   0  0  0  0  0  0  0  0  0  0  0  0
  1  2  1  0
  2  3  2  0
  3  4  1  0
  4  5  2  0
  5  6  1  0
  6  7  1  0
  7  8  1  0
  8  9  2  0
  8 10  1  0
 10 11  2  0
 10 12  1  0
 12 13  1  0
 13 14  1  0
 14 15  1  0
 15 16  1  0
 16 17  1  0
 17 18  1  0
 18 19  1  0
 19 20  2  0
 19 21  2  0
 19 22  1  0
 22 23  2  0
 23 24  1  0
 24 25  2  0
 25 26  1  0
 25 27  1  0
 27 28  2  0
  5 29  1  0
 29 30  2  0
 30  2  1  0
 18 14  1  0
 28 22  1  0
  1 31  1  0
  1 32  1  0
  1 33  1  0
  3 34  1  0
  4 35  1  0
  6 36  1  0
  6 37  1  0
  7 38  1  0
 12 39  1  0
 13 40  1  0
 13 41  1  0
 14 42  1  0
 16 43  1  0
 16 44  1  0
 17 45  1  0
 17 46  1  0
 23 47  1  0
 24 48  1  0
 27 49  1  0
 28 50  1  0
 29 51  1  0
 30 52  1  0
M  END
$$$$
