
     RDKit          3D

 64 69  0  0  0  0  0  0  0  0999 V2000
    8.1630    0.2001    0.8983 F   0  0  0  0  0  0  0  0  0  0  0  0
    7.3708    1.3085    0.9009 C   0  0  0  0  0  0  0  0  0  0  0  0
    8.2246    2.3652    1.0264 F   0  0  0  0  0  0  0  0  0  0  0  0
    6.6724    1.2675    2.0715 F   0  0  0  0  0  0  0  0  0  0  0  0
    6.4766    1.3889   -0.3181 C   0  0  0  0  0  0  0  0  0  0  0  0
    6.7254    2.3881   -1.2811 C   0  0  0  0  0  0  0  0  0  0  0  0
    5.9322    2.5033   -2.4223 C   0  0  0  0  0  0  0  0  0  0  0  0
    4.8775    1.6210   -2.6230 C   0  0  0  0  0  0  0  0  0  0  0  0
    4.6196    0.6201   -1.6869 C   0  0  0  0  0  0  0  0  0  0  0  0
    5.4106    0.4839   -0.5316 C   0  0  0  0  0  0  0  0  0  0  0  0
    5.0668   -0.6219    0.4515 C   0  0  0  0  0  0  0  0  0  0  0  0
    3.9420   -0.2368    1.4376 C   0  0  0  0  0  0  0  0  0  0  0  0
    2.6026   -0.2541    0.8276 N   0  0  0  0  0  0  0  0  0  0  0  0
    1.6510    0.5552    1.6086 C   0  0  0  0  0  0  0  0  0  0  0  0
    0.1877    0.3800    1.1495 C   0  0  0  0  0  0  0  0  0  0  0  0
   -0.2609   -1.0314    1.1785 N   0  0  0  0  0  0  0  0  0  0  0  0
   -1.2873   -1.4067    0.3060 C   0  0  0  0  0  0  0  0  0  0  0  0
   -1.0952   -2.4282   -0.4917 N   0  0  0  0  0  0  0  0  0  0  0  0
   -2.0813   -2.8204   -1.4162 C   0  0  0  0  0  0  0  0  0  0  0  0
   -1.8160   -3.9135   -2.2448 C   0  0  0  0  0  0  0  0  0  0  0  0
   -2.7532   -4.3355   -3.1913 C   0  0  0  0  0  0  0  0  0  0  0  0
   -3.9703   -3.6653   -3.3170 C   0  0  0  0  0  0  0  0  0  0  0  0
   -4.2577   -2.5727   -2.4974 C   0  0  0  0  0  0  0  0  0  0  0  0
   -3.3099   -2.1622   -1.5552 C   0  0  0  0  0  0  0  0  0  0  0  0
   -3.5227   -1.0858   -0.6790 N   0  0  0  0  0  0  0  0  0  0  0  0
   -4.6217   -0.2699   -0.5537 C   0  0  0  0  0  0  0  0  0  0  0  0
   -4.4021    0.6049    0.4929 C   0  0  0  0  0  0  0  0  0  0  0  0
   -5.3548    1.6161    0.9250 C   0  0  0  0  0  0  0  0  0  0  0  0
   -4.8993    2.8710    1.3514 C   0  0  0  0  0  0  0  0  0  0  0  0
   -5.8043    3.8490    1.7694 C   0  0  0  0  0  0  0  0  0  0  0  0
   -7.1702    3.5792    1.7706 C   0  0  0  0  0  0  0  0  0  0  0  0
   -7.6349    2.3343    1.3532 C   0  0  0  0  0  0  0  0  0  0  0  0
   -6.7320    1.3565    0.9318 C   0  0  0  0  0  0  0  0  0  0  0  0
   -3.1094    0.3030    1.0047 C   0  0  0  0  0  0  0  0  0  0  0  0
   -2.5673   -0.7150    0.2416 C   0  0  0  0  0  0  0  0  0  0  0  0
    0.8357   -1.9880    1.4285 C   0  0  0  0  0  0  0  0  0  0  0  0
    2.0860   -1.6274    0.6008 C   0  0  0  0  0  0  0  0  0  0  0  0
    7.5464    3.0908   -1.1411 H   0  0  0  0  0  0  0  0  0  0  0  0
    6.1352    3.2824   -3.1526 H   0  0  0  0  0  0  0  0  0  0  0  0
    4.2506    1.7115   -3.5068 H   0  0  0  0  0  0  0  0  0  0  0  0
    3.7818   -0.0554   -1.8563 H   0  0  0  0  0  0  0  0  0  0  0  0
    5.9582   -0.8980    1.0282 H   0  0  0  0  0  0  0  0  0  0  0  0
    4.8120   -1.5307   -0.1074 H   0  0  0  0  0  0  0  0  0  0  0  0
    4.1597    0.7663    1.8299 H   0  0  0  0  0  0  0  0  0  0  0  0
    3.9661   -0.9196    2.2998 H   0  0  0  0  0  0  0  0  0  0  0  0
    1.9174    1.6150    1.5132 H   0  0  0  0  0  0  0  0  0  0  0  0
    1.7188    0.3041    2.6742 H   0  0  0  0  0  0  0  0  0  0  0  0
   -0.4445    0.9779    1.8097 H   0  0  0  0  0  0  0  0  0  0  0  0
    0.0887    0.7781    0.1325 H   0  0  0  0  0  0  0  0  0  0  0  0
   -0.8683   -4.4376   -2.1494 H   0  0  0  0  0  0  0  0  0  0  0  0
   -2.5305   -5.1866   -3.8302 H   0  0  0  0  0  0  0  0  0  0  0  0
   -4.6965   -3.9959   -4.0555 H   0  0  0  0  0  0  0  0  0  0  0  0
   -5.2119   -2.0701   -2.6136 H   0  0  0  0  0  0  0  0  0  0  0  0
   -5.4748   -0.3714   -1.2075 H   0  0  0  0  0  0  0  0  0  0  0  0
   -3.8377    3.1029    1.3466 H   0  0  0  0  0  0  0  0  0  0  0  0
   -5.4448    4.8223    2.0921 H   0  0  0  0  0  0  0  0  0  0  0  0
   -7.8746    4.3385    2.0959 H   0  0  0  0  0  0  0  0  0  0  0  0
   -8.7016    2.1262    1.3589 H   0  0  0  0  0  0  0  0  0  0  0  0
   -7.1126    0.3869    0.6212 H   0  0  0  0  0  0  0  0  0  0  0  0
   -2.6371    0.7776    1.8536 H   0  0  0  0  0  0  0  0  0  0  0  0
    1.0804   -1.9663    2.4976 H   0  0  0  0  0  0  0  0  0  0  0  0
    0.5337   -3.0219    1.2235 H   0  0  0  0  0  0  0  0  0  0  0  0
    2.8537   -2.3860    0.7901 H   0  0  0  0  0  0  0  0  0  0  0  0
    1.8381   -1.7020   -0.4638 H   0  0  0  0  0  0  0  0  0  0  0  0
  1  2  1  0
  2  3  1  0
  2  4  1  0
  2  5  1  0
  5  6  2  0
  6  7  1  0
  7  8  2  0
  8  9  1  0
  9 10  2  0
 10 11  1  0
 11 12  1  0
 12 13  1  0
 13 14  1  0
 14 15  1  0
 15 16  1  0
 16 17  1  0
 17 18  2  0
 18 19  1  0
 19 20  2  0
 20 21  1  0
 21 22  2  0
 22 23  1  0
 23 24  2  0
 24 25  1  0
 25 26  1  0
 26 27  2  0
 27 28  1  0
 28 29  2  0
 29 30  1  0
 30 31  2  0
 31 32  1  0
 32 33  2  0
 27 34  1  0
 34 35  2  0
 16 36  1  0
 36 37  1  0
 10  5  1  0
 37 13  1  0
 35 17  1  0
 24 19  1  0
 35 25  1  0
 33 28  1  0
  6 38  1  0
  7 39  1  0
  8 40  1  0
  9 41  1  0
 11 42  1  0
 11 43  1  0
 12 44  1  0
 12 45  1  0
 14 46  1  0
 14 47  1  0
 15 48  1  0
 15 49  1  0
 20 50  1  0
 21 51  1  0
 22 52  1  0
 23 53  1  0
 26 54  1  0
 29 55  1  0
 30 56  1  0
 31 57  1  0
 32 58  1  0
 33 59  1  0
 34 60  1  0
 36 61  1  0
 36 62  1  0
 37 63  1  0
 37 64  1  0
M  END
$$$$
