
     RDKit          3D

 53 56  0  0  0  0  0  0  0  0999 V2000
    8.3575   -3.4358   -0.8384 C   0  0  0  0  0  0  0  0  0  0  0  0
    8.4539   -2.1174   -1.5854 C   0  0  0  0  0  0  0  0  0  0  0  0
    8.2164   -1.0179   -0.7079 O   0  0  0  0  0  0  0  0  0  0  0  0
    6.9358   -0.5759   -0.5338 C   0  0  0  0  0  0  0  0  0  0  0  0
    5.7786   -1.1689   -1.0385 C   0  0  0  0  0  0  0  0  0  0  0  0
    4.5248   -0.6062   -0.7727 C   0  0  0  0  0  0  0  0  0  0  0  0
    4.4269    0.5524    0.0014 C   0  0  0  0  0  0  0  0  0  0  0  0
    3.1140    1.1613    0.2923 C   0  0  0  0  0  0  0  0  0  0  0  0
    2.0125    0.6446   -0.1499 N   0  0  0  0  0  0  0  0  0  0  0  0
    0.8742    1.3101    0.1949 N   0  0  0  0  0  0  0  0  0  0  0  0
   -0.3705    0.8362   -0.1942 C   0  0  0  0  0  0  0  0  0  0  0  0
   -0.5671   -0.1742   -0.8619 O   0  0  0  0  0  0  0  0  0  0  0  0
   -1.4592    1.6908    0.2743 C   0  0  0  0  0  0  0  0  0  0  0  0
   -1.2256    2.8702    0.9315 N   0  0  0  0  0  0  0  0  0  0  0  0
   -2.3901    3.4166    1.2295 N   0  0  0  0  0  0  0  0  0  0  0  0
   -3.3968    2.6178    0.7604 N   0  0  0  0  0  0  0  0  0  0  0  0
   -4.7585    2.9860    0.9141 C   0  0  0  0  0  0  0  0  0  0  0  0
   -5.7419    2.2276    0.4294 N   0  0  0  0  0  0  0  0  0  0  0  0
   -6.9048    2.9056    0.7881 O   0  0  0  0  0  0  0  0  0  0  0  0
   -6.6132    4.0796    1.4741 N   0  0  0  0  0  0  0  0  0  0  0  0
   -5.2841    4.1319    1.5424 C   0  0  0  0  0  0  0  0  0  0  0  0
   -4.5949    5.1318    2.1237 N   0  0  0  0  0  0  0  0  0  0  0  0
   -2.8274    1.4934    0.1680 C   0  0  0  0  0  0  0  0  0  0  0  0
   -3.5956    0.3529   -0.3907 C   0  0  0  0  0  0  0  0  0  0  0  0
   -4.1095   -0.3472    0.7383 O   0  0  0  0  0  0  0  0  0  0  0  0
   -4.8861   -1.4452    0.4932 C   0  0  0  0  0  0  0  0  0  0  0  0
   -5.1591   -1.9970   -0.7609 C   0  0  0  0  0  0  0  0  0  0  0  0
   -5.9684   -3.1331   -0.8638 C   0  0  0  0  0  0  0  0  0  0  0  0
   -6.4977   -3.7102    0.2834 C   0  0  0  0  0  0  0  0  0  0  0  0
   -7.2684   -4.8005    0.1781 F   0  0  0  0  0  0  0  0  0  0  0  0
   -6.2350   -3.1735    1.5359 C   0  0  0  0  0  0  0  0  0  0  0  0
   -5.4279   -2.0399    1.6385 C   0  0  0  0  0  0  0  0  0  0  0  0
    5.5783    1.1501    0.5132 C   0  0  0  0  0  0  0  0  0  0  0  0
    6.8261    0.5816    0.2446 C   0  0  0  0  0  0  0  0  0  0  0  0
    8.6134   -4.2718   -1.4953 H   0  0  0  0  0  0  0  0  0  0  0  0
    7.3507   -3.5997   -0.4434 H   0  0  0  0  0  0  0  0  0  0  0  0
    9.0378   -3.4420    0.0192 H   0  0  0  0  0  0  0  0  0  0  0  0
    9.4805   -2.0032   -1.9510 H   0  0  0  0  0  0  0  0  0  0  0  0
    7.8143   -2.0914   -2.4749 H   0  0  0  0  0  0  0  0  0  0  0  0
    5.8078   -2.0730   -1.6366 H   0  0  0  0  0  0  0  0  0  0  0  0
    3.6298   -1.0791   -1.1721 H   0  0  0  0  0  0  0  0  0  0  0  0
    3.1186    2.0783    0.9087 H   0  0  0  0  0  0  0  0  0  0  0  0
    0.9237    2.1587    0.7516 H   0  0  0  0  0  0  0  0  0  0  0  0
   -3.5992    5.0461    2.3182 H   0  0  0  0  0  0  0  0  0  0  0  0
   -5.0878    5.7924    2.7157 H   0  0  0  0  0  0  0  0  0  0  0  0
   -2.9472   -0.3085   -0.9710 H   0  0  0  0  0  0  0  0  0  0  0  0
   -4.3963    0.7024   -1.0512 H   0  0  0  0  0  0  0  0  0  0  0  0
   -4.7568   -1.5768   -1.6757 H   0  0  0  0  0  0  0  0  0  0  0  0
   -6.1858   -3.5713   -1.8327 H   0  0  0  0  0  0  0  0  0  0  0  0
   -6.6544   -3.6381    2.4210 H   0  0  0  0  0  0  0  0  0  0  0  0
   -5.2174   -1.6162    2.6175 H   0  0  0  0  0  0  0  0  0  0  0  0
    5.5247    2.0509    1.1183 H   0  0  0  0  0  0  0  0  0  0  0  0
    7.7260    1.0449    0.6430 H   0  0  0  0  0  0  0  0  0  0  0  0
  1  2  1  0
  2  3  1  0
  3  4  1  0
  4  5  2  0
  5  6  1  0
  6  7  2  0
  7  8  1  0
  8  9  2  3
  9 10  1  0
 10 11  1  0
 11 12  2  0
 11 13  1  0
 13 14  1  0
 14 15  2  0
 15 16  1  0
 16 17  1  0
 17 18  2  0
 18 19  1  0
 19 20  1  0
 20 21  2  0
 21 22  1  0
 16 23  1  0
 23 24  1  0
 24 25  1  0
 25 26  1  0
 26 27  2  0
 27 28  1  0
 28 29  2  0
 29 30  1  0
 29 31  1  0
 31 32  2  0
  7 33  1  0
 33 34  2  0
 34  4  1  0
 23 13  2  0
 32 26  1  0
 21 17  1  0
  1 35  1  0
  1 36  1  0
  1 37  1  0
  2 38  1  0
  2 39  1  0
  5 40  1  0
  6 41  1  0
  8 42  1  0
 10 43  1  0
 22 44  1  0
 22 45  1  0
 24 46  1  0
 24 47  1  0
 27 48  1  0
 28 49  1  0
 31 50  1  0
 32 51  1  0
 33 52  1  0
 34 53  1  0
M  END
$$$$
