
     RDKit          3D

 70 75  0  0  0  0  0  0  0  0999 V2000
    1.8795   -1.8091    0.4883 O   0  0  0  0  0  0  0  0  0  0  0  0
    2.0476   -0.6983   -0.4077 C   0  0  0  0  0  0  0  0  0  0  0  0
    2.5256    0.5372    0.3755 C   0  0  0  0  0  0  0  0  0  0  0  0
    3.7735    0.2464    1.0861 N   0  0  0  0  0  0  0  0  0  0  0  0
    4.9998    0.2812    0.4546 C   0  0  0  0  0  0  0  0  0  0  0  0
    5.0604    0.2750   -0.8501 N   0  0  0  0  0  0  0  0  0  0  0  0
    6.3089    0.3137   -1.5043 C   0  0  0  0  0  0  0  0  0  0  0  0
    6.3268    0.3049   -2.9001 C   0  0  0  0  0  0  0  0  0  0  0  0
    7.5368    0.3442   -3.5979 C   0  0  0  0  0  0  0  0  0  0  0  0
    8.7459    0.3924   -2.9023 C   0  0  0  0  0  0  0  0  0  0  0  0
    8.7528    0.4021   -1.5071 C   0  0  0  0  0  0  0  0  0  0  0  0
    7.5348    0.3631   -0.8225 C   0  0  0  0  0  0  0  0  0  0  0  0
    7.4500    0.3678    0.5796 N   0  0  0  0  0  0  0  0  0  0  0  0
    8.4506    0.4109    1.5207 C   0  0  0  0  0  0  0  0  0  0  0  0
    7.8686    0.3844    2.7705 C   0  0  0  0  0  0  0  0  0  0  0  0
    6.4675    0.3257    2.5813 C   0  0  0  0  0  0  0  0  0  0  0  0
    6.2309    0.3249    1.2183 C   0  0  0  0  0  0  0  0  0  0  0  0
    0.7541   -0.4227   -1.2098 C   0  0  0  0  0  0  0  0  0  0  0  0
   -0.3648    0.1886   -0.4585 N   0  0  0  0  0  0  0  0  0  0  0  0
   -0.8885   -0.7421    0.5697 C   0  0  0  0  0  0  0  0  0  0  0  0
   -2.3441   -0.4189    0.9754 C   0  0  0  0  0  0  0  0  0  0  0  0
   -3.3221   -0.5972   -0.1307 N   0  0  0  0  0  0  0  0  0  0  0  0
   -4.5328    0.2508    0.0800 C   0  0  0  0  0  0  0  0  0  0  0  0
   -5.1834    0.0537    1.4578 C   0  0  0  0  0  0  0  0  0  0  0  0
   -5.4923   -1.2262    1.9504 C   0  0  0  0  0  0  0  0  0  0  0  0
   -6.0966   -1.3853    3.1983 C   0  0  0  0  0  0  0  0  0  0  0  0
   -6.4047   -0.2681    3.9712 C   0  0  0  0  0  0  0  0  0  0  0  0
   -6.1143    1.0087    3.4952 C   0  0  0  0  0  0  0  0  0  0  0  0
   -5.5096    1.1701    2.2467 C   0  0  0  0  0  0  0  0  0  0  0  0
   -5.6030    0.0818   -1.0093 C   0  0  0  0  0  0  0  0  0  0  0  0
   -5.9497   -1.1805   -1.5206 C   0  0  0  0  0  0  0  0  0  0  0  0
   -6.9411   -1.3087   -2.4945 C   0  0  0  0  0  0  0  0  0  0  0  0
   -7.6042   -0.1791   -2.9688 C   0  0  0  0  0  0  0  0  0  0  0  0
   -7.2789    1.0793   -2.4683 C   0  0  0  0  0  0  0  0  0  0  0  0
   -6.2882    1.2100   -1.4932 C   0  0  0  0  0  0  0  0  0  0  0  0
   -2.6589   -0.3384   -1.4316 C   0  0  0  0  0  0  0  0  0  0  0  0
   -1.4504    0.6214   -1.3643 C   0  0  0  0  0  0  0  0  0  0  0  0
    2.7225   -1.8506    0.9798 H   0  0  0  0  0  0  0  0  0  0  0  0
    2.8136   -1.0098   -1.1265 H   0  0  0  0  0  0  0  0  0  0  0  0
    2.6481    1.4052   -0.2822 H   0  0  0  0  0  0  0  0  0  0  0  0
    1.7843    0.8031    1.1369 H   0  0  0  0  0  0  0  0  0  0  0  0
    3.7818    0.5881    2.0399 H   0  0  0  0  0  0  0  0  0  0  0  0
    5.3877    0.2666   -3.4459 H   0  0  0  0  0  0  0  0  0  0  0  0
    7.5337    0.3359   -4.6849 H   0  0  0  0  0  0  0  0  0  0  0  0
    9.6846    0.4215   -3.4504 H   0  0  0  0  0  0  0  0  0  0  0  0
    9.7053    0.4382   -0.9888 H   0  0  0  0  0  0  0  0  0  0  0  0
    9.4934    0.4541    1.2425 H   0  0  0  0  0  0  0  0  0  0  0  0
    8.3983    0.4026    3.7144 H   0  0  0  0  0  0  0  0  0  0  0  0
    5.7182    0.2867    3.3608 H   0  0  0  0  0  0  0  0  0  0  0  0
    0.4183   -1.3546   -1.6836 H   0  0  0  0  0  0  0  0  0  0  0  0
    1.0383    0.2652   -2.0172 H   0  0  0  0  0  0  0  0  0  0  0  0
   -0.8548   -1.7834    0.2220 H   0  0  0  0  0  0  0  0  0  0  0  0
   -0.2604   -0.6727    1.4650 H   0  0  0  0  0  0  0  0  0  0  0  0
   -2.3626    0.6111    1.3582 H   0  0  0  0  0  0  0  0  0  0  0  0
   -2.6183   -1.0806    1.8045 H   0  0  0  0  0  0  0  0  0  0  0  0
   -4.1859    1.2941    0.0267 H   0  0  0  0  0  0  0  0  0  0  0  0
   -5.2540   -2.1077    1.3591 H   0  0  0  0  0  0  0  0  0  0  0  0
   -6.3268   -2.3822    3.5648 H   0  0  0  0  0  0  0  0  0  0  0  0
   -6.8771   -0.3933    4.9417 H   0  0  0  0  0  0  0  0  0  0  0  0
   -6.3606    1.8804    4.0959 H   0  0  0  0  0  0  0  0  0  0  0  0
   -5.2970    2.1754    1.8913 H   0  0  0  0  0  0  0  0  0  0  0  0
   -5.4407   -2.0715   -1.1600 H   0  0  0  0  0  0  0  0  0  0  0  0
   -7.1978   -2.2916   -2.8785 H   0  0  0  0  0  0  0  0  0  0  0  0
   -8.3786   -0.2803   -3.7240 H   0  0  0  0  0  0  0  0  0  0  0  0
   -7.8020    1.9596   -2.8322 H   0  0  0  0  0  0  0  0  0  0  0  0
   -6.0564    2.1999   -1.1076 H   0  0  0  0  0  0  0  0  0  0  0  0
   -2.3090   -1.3065   -1.8138 H   0  0  0  0  0  0  0  0  0  0  0  0
   -3.3520    0.0313   -2.1943 H   0  0  0  0  0  0  0  0  0  0  0  0
   -1.0772    0.8046   -2.3794 H   0  0  0  0  0  0  0  0  0  0  0  0
   -1.8037    1.5974   -1.0071 H   0  0  0  0  0  0  0  0  0  0  0  0
  1  2  1  0
  2  3  1  0
  3  4  1  0
  4  5  1  0
  5  6  2  0
  6  7  1  0
  7  8  2  0
  8  9  1  0
  9 10  2  0
 10 11  1  0
 11 12  2  0
 12 13  1  0
 13 14  1  0
 14 15  2  0
 15 16  1  0
 16 17  2  0
  2 18  1  0
 18 19  1  0
 19 20  1  0
 20 21  1  0
 21 22  1  0
 22 23  1  0
 23 24  1  0
 24 25  2  0
 25 26  1  0
 26 27  2  0
 27 28  1  0
 28 29  2  0
 23 30  1  0
 30 31  2  0
 31 32  1  0
 32 33  2  0
 33 34  1  0
 34 35  2  0
 22 36  1  0
 36 37  1  0
 17  5  1  0
 37 19  1  0
 12  7  1  0
 17 13  1  0
 29 24  1  0
 35 30  1  0
  1 38  1  0
  2 39  1  0
  3 40  1  0
  3 41  1  0
  4 42  1  0
  8 43  1  0
  9 44  1  0
 10 45  1  0
 11 46  1  0
 14 47  1  0
 15 48  1  0
 16 49  1  0
 18 50  1  0
 18 51  1  0
 20 52  1  0
 20 53  1  0
 21 54  1  0
 21 55  1  0
 23 56  1  0
 25 57  1  0
 26 58  1  0
 27 59  1  0
 28 60  1  0
 29 61  1  0
 31 62  1  0
 32 63  1  0
 33 64  1  0
 34 65  1  0
 35 66  1  0
 36 67  1  0
 36 68  1  0
 37 69  1  0
 37 70  1  0
M  END
$$$$
