
     RDKit          3D

 25 27  0  0  0  0  0  0  0  0999 V2000
    5.3283    2.6561    0.5573 O   0  0  0  0  0  0  0  0  0  0  0  0
    4.2881    2.0583    0.3429 C   0  0  0  0  0  0  0  0  0  0  0  0
    3.2334    2.5222   -0.3738 N   0  0  0  0  0  0  0  0  0  0  0  0
    2.1216    1.7289   -0.5217 C   0  0  0  0  0  0  0  0  0  0  0  0
    0.8265    2.3218   -1.3853 S   0  0  0  0  0  0  0  0  0  0  0  0
    2.3472    0.4268    0.1832 C   0  0  0  0  0  0  0  0  0  0  0  0
    1.5591   -0.6522    0.3128 C   0  0  0  0  0  0  0  0  0  0  0  0
    0.2558   -0.8551   -0.2156 C   0  0  0  0  0  0  0  0  0  0  0  0
   -0.0112   -1.2466   -1.5075 C   0  0  0  0  0  0  0  0  0  0  0  0
   -1.3724   -1.3524   -1.6330 N   0  0  0  0  0  0  0  0  0  0  0  0
   -1.9871   -1.0748   -0.4319 C   0  0  0  0  0  0  0  0  0  0  0  0
   -3.3453   -1.0770   -0.0926 C   0  0  0  0  0  0  0  0  0  0  0  0
   -3.6847   -0.7511    1.2239 C   0  0  0  0  0  0  0  0  0  0  0  0
   -2.7041   -0.4355    2.1615 C   0  0  0  0  0  0  0  0  0  0  0  0
   -1.3503   -0.4362    1.8061 C   0  0  0  0  0  0  0  0  0  0  0  0
   -0.9812   -0.7612    0.4844 C   0  0  0  0  0  0  0  0  0  0  0  0
    3.9283    0.4539    0.9248 S   0  0  0  0  0  0  0  0  0  0  0  0
    3.2747    3.4463   -0.7760 H   0  0  0  0  0  0  0  0  0  0  0  0
    1.9287   -1.4895    0.9040 H   0  0  0  0  0  0  0  0  0  0  0  0
    0.6362   -1.4460   -2.3510 H   0  0  0  0  0  0  0  0  0  0  0  0
   -1.8616   -1.6054   -2.4802 H   0  0  0  0  0  0  0  0  0  0  0  0
   -4.1126   -1.3206   -0.8201 H   0  0  0  0  0  0  0  0  0  0  0  0
   -4.7316   -0.7427    1.5190 H   0  0  0  0  0  0  0  0  0  0  0  0
   -2.9913   -0.1833    3.1793 H   0  0  0  0  0  0  0  0  0  0  0  0
   -0.5946   -0.1847    2.5439 H   0  0  0  0  0  0  0  0  0  0  0  0
  1  2  2  0
  2  3  1  0
  3  4  1  0
  4  5  2  0
  4  6  1  0
  6  7  2  3
  7  8  1  0
  8  9  2  0
  9 10  1  0
 10 11  1  0
 11 12  2  0
 12 13  1  0
 13 14  2  0
 14 15  1  0
 15 16  2  0
  6 17  1  0
 17  2  1  0
 16  8  1  0
 16 11  1  0
  3 18  1  0
  7 19  1  0
  9 20  1  0
 10 21  1  0
 12 22  1  0
 13 23  1  0
 14 24  1  0
 15 25  1  0
M  END
$$$$
