
     RDKit          3D

 53 56  0  0  0  0  0  0  0  0999 V2000
    8.7043   -3.4407   -0.9667 C   0  0  0  0  0  0  0  0  0  0  0  0
    7.2832   -3.0710   -0.5813 C   0  0  0  0  0  0  0  0  0  0  0  0
    6.9977   -1.7881   -1.1356 O   0  0  0  0  0  0  0  0  0  0  0  0
    5.7605   -1.2616   -0.8863 C   0  0  0  0  0  0  0  0  0  0  0  0
    5.5440    0.0050   -1.4409 C   0  0  0  0  0  0  0  0  0  0  0  0
    4.3252    0.6643   -1.2632 C   0  0  0  0  0  0  0  0  0  0  0  0
    3.3129    0.0517   -0.5219 C   0  0  0  0  0  0  0  0  0  0  0  0
    2.0329    0.7681   -0.3384 C   0  0  0  0  0  0  0  0  0  0  0  0
    1.0797    0.2754    0.3874 N   0  0  0  0  0  0  0  0  0  0  0  0
   -0.0684    1.0088    0.5638 N   0  0  0  0  0  0  0  0  0  0  0  0
   -0.1677    2.4000    0.6008 C   0  0  0  0  0  0  0  0  0  0  0  0
    0.7635    3.1772    0.4143 O   0  0  0  0  0  0  0  0  0  0  0  0
   -1.5117    2.8900    0.9199 C   0  0  0  0  0  0  0  0  0  0  0  0
   -1.7074    4.1042    1.5178 N   0  0  0  0  0  0  0  0  0  0  0  0
   -3.0041    4.2746    1.7057 N   0  0  0  0  0  0  0  0  0  0  0  0
   -3.6704    3.1732    1.2600 N   0  0  0  0  0  0  0  0  0  0  0  0
   -5.0693    3.0377    1.4445 C   0  0  0  0  0  0  0  0  0  0  0  0
   -5.7058    1.9105    1.1214 N   0  0  0  0  0  0  0  0  0  0  0  0
   -7.0345    2.1604    1.4645 O   0  0  0  0  0  0  0  0  0  0  0  0
   -7.1866    3.4361    1.9966 N   0  0  0  0  0  0  0  0  0  0  0  0
   -5.9686    3.9781    1.9831 C   0  0  0  0  0  0  0  0  0  0  0  0
   -5.6833    5.2234    2.4067 N   0  0  0  0  0  0  0  0  0  0  0  0
   -2.7502    2.3118    0.6668 C   0  0  0  0  0  0  0  0  0  0  0  0
   -3.0906    1.0759   -0.0769 C   0  0  0  0  0  0  0  0  0  0  0  0
   -2.8304    0.0078    0.8360 O   0  0  0  0  0  0  0  0  0  0  0  0
   -3.2494   -1.1844    0.3101 C   0  0  0  0  0  0  0  0  0  0  0  0
   -2.4988   -1.8323   -0.6736 C   0  0  0  0  0  0  0  0  0  0  0  0
   -2.9379   -3.0594   -1.1707 C   0  0  0  0  0  0  0  0  0  0  0  0
   -4.1065   -3.6257   -0.6671 C   0  0  0  0  0  0  0  0  0  0  0  0
   -4.5251   -4.8038   -1.1471 F   0  0  0  0  0  0  0  0  0  0  0  0
   -4.8412   -2.9927    0.3311 C   0  0  0  0  0  0  0  0  0  0  0  0
   -4.4061   -1.7655    0.8306 C   0  0  0  0  0  0  0  0  0  0  0  0
    3.5204   -1.2132    0.0366 C   0  0  0  0  0  0  0  0  0  0  0  0
    4.7428   -1.8694   -0.1476 C   0  0  0  0  0  0  0  0  0  0  0  0
    8.9765   -4.4205   -0.5637 H   0  0  0  0  0  0  0  0  0  0  0  0
    8.8126   -3.4646   -2.0573 H   0  0  0  0  0  0  0  0  0  0  0  0
    9.4124   -2.6930   -0.5914 H   0  0  0  0  0  0  0  0  0  0  0  0
    6.5959   -3.8210   -0.9890 H   0  0  0  0  0  0  0  0  0  0  0  0
    7.2043   -3.0409    0.5110 H   0  0  0  0  0  0  0  0  0  0  0  0
    6.3357    0.4830   -2.0137 H   0  0  0  0  0  0  0  0  0  0  0  0
    4.1840    1.6513   -1.6972 H   0  0  0  0  0  0  0  0  0  0  0  0
    1.9442    1.7247   -0.8797 H   0  0  0  0  0  0  0  0  0  0  0  0
   -0.8092    0.4766    1.0190 H   0  0  0  0  0  0  0  0  0  0  0  0
   -4.7217    5.5275    2.5611 H   0  0  0  0  0  0  0  0  0  0  0  0
   -6.3824    5.7522    2.9197 H   0  0  0  0  0  0  0  0  0  0  0  0
   -2.4321    0.9914   -0.9499 H   0  0  0  0  0  0  0  0  0  0  0  0
   -4.1161    1.0554   -0.4553 H   0  0  0  0  0  0  0  0  0  0  0  0
   -1.5741   -1.3993   -1.0448 H   0  0  0  0  0  0  0  0  0  0  0  0
   -2.3751   -3.5811   -1.9383 H   0  0  0  0  0  0  0  0  0  0  0  0
   -5.7439   -3.4589    0.7136 H   0  0  0  0  0  0  0  0  0  0  0  0
   -4.9676   -1.2654    1.6157 H   0  0  0  0  0  0  0  0  0  0  0  0
    2.7373   -1.6940    0.6189 H   0  0  0  0  0  0  0  0  0  0  0  0
    4.8664   -2.8502    0.3013 H   0  0  0  0  0  0  0  0  0  0  0  0
  1  2  1  0
  2  3  1  0
  3  4  1  0
  4  5  2  0
  5  6  1  0
  6  7  2  0
  7  8  1  0
  8  9  2  3
  9 10  1  0
 10 11  1  0
 11 12  2  0
 11 13  1  0
 13 14  1  0
 14 15  2  0
 15 16  1  0
 16 17  1  0
 17 18  2  0
 18 19  1  0
 19 20  1  0
 20 21  2  0
 21 22  1  0
 16 23  1  0
 23 24  1  0
 24 25  1  0
 25 26  1  0
 26 27  2  0
 27 28  1  0
 28 29  2  0
 29 30  1  0
 29 31  1  0
 31 32  2  0
  7 33  1  0
 33 34  2  0
 34  4  1  0
 23 13  2  0
 32 26  1  0
 21 17  1  0
  1 35  1  0
  1 36  1  0
  1 37  1  0
  2 38  1  0
  2 39  1  0
  5 40  1  0
  6 41  1  0
  8 42  1  0
 10 43  1  0
 22 44  1  0
 22 45  1  0
 24 46  1  0
 24 47  1  0
 27 48  1  0
 28 49  1  0
 31 50  1  0
 32 51  1  0
 33 52  1  0
 34 53  1  0
M  END
$$$$
