
     RDKit          3D

 52 55  0  0  0  0  0  0  0  0999 V2000
    5.1859    1.4752    4.5604 C   0  0  0  0  0  0  0  0  0  0  0  0
    4.0223    0.6566    4.5401 O   0  0  0  0  0  0  0  0  0  0  0  0
    3.5483    0.2924    3.3108 C   0  0  0  0  0  0  0  0  0  0  0  0
    4.0948    0.6496    2.0807 C   0  0  0  0  0  0  0  0  0  0  0  0
    3.5059    0.2085    0.8865 C   0  0  0  0  0  0  0  0  0  0  0  0
    2.3670   -0.5963    0.9064 C   0  0  0  0  0  0  0  0  0  0  0  0
    1.6982   -1.0500   -0.2501 N   0  0  0  0  0  0  0  0  0  0  0  0
    2.0210   -0.7693   -1.5714 C   0  0  0  0  0  0  0  0  0  0  0  0
    3.0342   -0.2006   -1.9659 O   0  0  0  0  0  0  0  0  0  0  0  0
    0.9651   -1.2529   -2.5560 C   0  0  0  0  0  0  0  0  0  0  0  0
   -0.1330    0.1006   -3.0696 S   0  0  0  0  0  0  0  0  0  0  0  0
   -0.8092    0.5177   -1.4957 C   0  0  0  0  0  0  0  0  0  0  0  0
   -0.2217    1.5025   -0.8902 N   0  0  0  0  0  0  0  0  0  0  0  0
   -0.5855    1.7295    0.4016 C   0  0  0  0  0  0  0  0  0  0  0  0
   -1.4510    0.9907    1.0896 C   0  0  0  0  0  0  0  0  0  0  0  0
   -2.1283   -0.1418    0.4258 C   0  0  0  0  0  0  0  0  0  0  0  0
   -2.8808   -0.8806    1.0590 O   0  0  0  0  0  0  0  0  0  0  0  0
   -1.8087   -0.2814   -0.9302 N   0  0  0  0  0  0  0  0  0  0  0  0
   -2.5741   -1.2206   -1.6998 C   0  0  0  0  0  0  0  0  0  0  0  0
   -2.6371   -2.5632   -1.2917 C   0  0  0  0  0  0  0  0  0  0  0  0
   -3.3418   -3.5006   -2.0460 C   0  0  0  0  0  0  0  0  0  0  0  0
   -4.0042   -3.1032   -3.2044 C   0  0  0  0  0  0  0  0  0  0  0  0
   -3.9863   -1.7638   -3.6006 C   0  0  0  0  0  0  0  0  0  0  0  0
   -3.2852   -0.8125   -2.8511 C   0  0  0  0  0  0  0  0  0  0  0  0
   -3.2949    0.5345   -3.1145 O   0  0  0  0  0  0  0  0  0  0  0  0
   -3.8246    0.9525   -4.3659 C   0  0  0  0  0  0  0  0  0  0  0  0
   -1.6281    1.4033    2.7420 S   0  0  0  0  0  0  0  0  0  0  0  0
   -0.6486    2.9326    2.5307 C   0  0  0  0  0  0  0  0  0  0  0  0
    0.0910    2.8058    1.1946 C   0  0  0  0  0  0  0  0  0  0  0  0
    1.8225   -0.9552    2.1441 C   0  0  0  0  0  0  0  0  0  0  0  0
    2.4086   -0.5111    3.3347 C   0  0  0  0  0  0  0  0  0  0  0  0
    5.4545    1.6501    5.6072 H   0  0  0  0  0  0  0  0  0  0  0  0
    4.9871    2.4491    4.0987 H   0  0  0  0  0  0  0  0  0  0  0  0
    6.0338    0.9741    4.0777 H   0  0  0  0  0  0  0  0  0  0  0  0
    4.9791    1.2739    2.0045 H   0  0  0  0  0  0  0  0  0  0  0  0
    3.9648    0.5237   -0.0455 H   0  0  0  0  0  0  0  0  0  0  0  0
    0.8679   -1.6019   -0.0795 H   0  0  0  0  0  0  0  0  0  0  0  0
    1.4795   -1.6462   -3.4383 H   0  0  0  0  0  0  0  0  0  0  0  0
    0.3835   -2.0784   -2.1352 H   0  0  0  0  0  0  0  0  0  0  0  0
   -2.1328   -2.8949   -0.3865 H   0  0  0  0  0  0  0  0  0  0  0  0
   -3.3813   -4.5384   -1.7253 H   0  0  0  0  0  0  0  0  0  0  0  0
   -4.5593   -3.8330   -3.7900 H   0  0  0  0  0  0  0  0  0  0  0  0
   -4.5509   -1.4918   -4.4870 H   0  0  0  0  0  0  0  0  0  0  0  0
   -3.3242    0.4507   -5.2009 H   0  0  0  0  0  0  0  0  0  0  0  0
   -3.6388    2.0266   -4.4646 H   0  0  0  0  0  0  0  0  0  0  0  0
   -4.9074    0.7978   -4.4013 H   0  0  0  0  0  0  0  0  0  0  0  0
    0.0429    3.0696    3.3673 H   0  0  0  0  0  0  0  0  0  0  0  0
   -1.3377    3.7826    2.5085 H   0  0  0  0  0  0  0  0  0  0  0  0
    0.0764    3.7644    0.6632 H   0  0  0  0  0  0  0  0  0  0  0  0
    1.1414    2.5382    1.3640 H   0  0  0  0  0  0  0  0  0  0  0  0
    0.9309   -1.5730    2.2102 H   0  0  0  0  0  0  0  0  0  0  0  0
    1.9688   -0.7920    4.2889 H   0  0  0  0  0  0  0  0  0  0  0  0
  1  2  1  0
  2  3  1  0
  3  4  2  0
  4  5  1  0
  5  6  2  0
  6  7  1  0
  7  8  1  0
  8  9  2  0
  8 10  1  0
 10 11  1  0
 11 12  1  0
 12 13  2  0
 13 14  1  0
 14 15  2  0
 15 16  1  0
 16 17  2  0
 16 18  1  0
 18 19  1  0
 19 20  2  0
 20 21  1  0
 21 22  2  0
 22 23  1  0
 23 24  2  0
 24 25  1  0
 25 26  1  0
 15 27  1  0
 27 28  1  0
 28 29  1  0
  6 30  1  0
 30 31  2  0
 31  3  1  0
 18 12  1  0
 24 19  1  0
 29 14  1  0
  1 32  1  0
  1 33  1  0
  1 34  1  0
  4 35  1  0
  5 36  1  0
  7 37  1  0
 10 38  1  0
 10 39  1  0
 20 40  1  0
 21 41  1  0
 22 42  1  0
 23 43  1  0
 26 44  1  0
 26 45  1  0
 26 46  1  0
 28 47  1  0
 28 48  1  0
 29 49  1  0
 29 50  1  0
 30 51  1  0
 31 52  1  0
M  END
$$$$
