
     RDKit          3D

 69 74  0  0  0  0  0  0  0  0999 V2000
    7.0367   -1.9623   -0.8224 C   0  0  0  0  0  0  0  0  0  0  0  0
    6.1730   -2.3304    0.2426 O   0  0  0  0  0  0  0  0  0  0  0  0
    4.8769   -1.8785    0.1987 C   0  0  0  0  0  0  0  0  0  0  0  0
    4.3280   -1.1540   -0.8651 C   0  0  0  0  0  0  0  0  0  0  0  0
    2.9890   -0.7364   -0.8329 C   0  0  0  0  0  0  0  0  0  0  0  0
    2.1933   -1.0214    0.2903 C   0  0  0  0  0  0  0  0  0  0  0  0
    2.7440   -1.7596    1.3511 C   0  0  0  0  0  0  0  0  0  0  0  0
    4.0762   -2.1876    1.3151 C   0  0  0  0  0  0  0  0  0  0  0  0
    4.6840   -2.9136    2.3102 O   0  0  0  0  0  0  0  0  0  0  0  0
    3.9386   -3.1710    3.4903 C   0  0  0  0  0  0  0  0  0  0  0  0
    0.7320   -0.6097    0.3514 C   0  0  0  0  0  0  0  0  0  0  0  0
    0.4334    0.4466   -0.6303 N   0  0  0  0  0  0  0  0  0  0  0  0
   -0.9506    0.7084   -0.6127 C   0  0  0  0  0  0  0  0  0  0  0  0
   -1.7976   -0.1273   -1.2588 N   0  0  0  0  0  0  0  0  0  0  0  0
   -3.1259    0.1170   -1.2408 C   0  0  0  0  0  0  0  0  0  0  0  0
   -4.0174   -0.8949   -1.9543 C   0  0  0  0  0  0  0  0  0  0  0  0
   -4.6145   -1.9333   -1.0825 N   0  0  0  0  0  0  0  0  0  0  0  0
   -3.5763   -2.7415   -0.4069 C   0  0  0  0  0  0  0  0  0  0  0  0
   -4.1252   -4.1050    0.0374 C   0  0  0  0  0  0  0  0  0  0  0  0
   -4.5213   -4.9264   -1.0695 O   0  0  0  0  0  0  0  0  0  0  0  0
   -4.9594   -4.1673   -2.2047 C   0  0  0  0  0  0  0  0  0  0  0  0
   -5.5505   -2.7985   -1.8291 C   0  0  0  0  0  0  0  0  0  0  0  0
   -3.7263    1.1471   -0.6319 N   0  0  0  0  0  0  0  0  0  0  0  0
   -2.8652    1.9603   -0.0026 C   0  0  0  0  0  0  0  0  0  0  0  0
   -3.4379    3.3376    0.8214 S   0  0  0  0  0  0  0  0  0  0  0  0
   -1.8642    3.7954    1.2697 C   0  0  0  0  0  0  0  0  0  0  0  0
   -0.9032    2.9027    0.8289 C   0  0  0  0  0  0  0  0  0  0  0  0
   -1.4876    1.8218    0.0662 C   0  0  0  0  0  0  0  0  0  0  0  0
    0.5585    3.1211    1.0988 C   0  0  0  0  0  0  0  0  0  0  0  0
    0.7942    4.1943    2.1753 C   0  0  0  0  0  0  0  0  0  0  0  0
   -0.1128    5.4332    2.0173 C   0  0  0  0  0  0  0  0  0  0  0  0
    0.2106    6.2122    0.7377 C   0  0  0  0  0  0  0  0  0  0  0  0
   -1.6039    5.0317    2.0770 C   0  0  0  0  0  0  0  0  0  0  0  0
    0.8955    0.0849   -1.9781 C   0  0  0  0  0  0  0  0  0  0  0  0
    2.4276    0.0725   -1.9791 C   0  0  0  0  0  0  0  0  0  0  0  0
    6.7022   -2.3983   -1.7693 H   0  0  0  0  0  0  0  0  0  0  0  0
    8.0293   -2.3672   -0.6032 H   0  0  0  0  0  0  0  0  0  0  0  0
    7.1318   -0.8741   -0.8981 H   0  0  0  0  0  0  0  0  0  0  0  0
    4.9217   -0.9017   -1.7376 H   0  0  0  0  0  0  0  0  0  0  0  0
    2.1062   -1.9915    2.1980 H   0  0  0  0  0  0  0  0  0  0  0  0
    3.6393   -2.2394    3.9814 H   0  0  0  0  0  0  0  0  0  0  0  0
    4.5857   -3.7179    4.1829 H   0  0  0  0  0  0  0  0  0  0  0  0
    3.0711   -3.8038    3.2777 H   0  0  0  0  0  0  0  0  0  0  0  0
    0.1235   -1.5072    0.1717 H   0  0  0  0  0  0  0  0  0  0  0  0
    0.5145   -0.2395    1.3614 H   0  0  0  0  0  0  0  0  0  0  0  0
   -3.4434   -1.3595   -2.7672 H   0  0  0  0  0  0  0  0  0  0  0  0
   -4.8236   -0.3199   -2.4283 H   0  0  0  0  0  0  0  0  0  0  0  0
   -3.2069   -2.1988    0.4700 H   0  0  0  0  0  0  0  0  0  0  0  0
   -2.7286   -2.9213   -1.0810 H   0  0  0  0  0  0  0  0  0  0  0  0
   -4.9886   -3.9835    0.7024 H   0  0  0  0  0  0  0  0  0  0  0  0
   -3.3604   -4.6554    0.5946 H   0  0  0  0  0  0  0  0  0  0  0  0
   -4.1066   -4.0477   -2.8839 H   0  0  0  0  0  0  0  0  0  0  0  0
   -5.7092   -4.7684   -2.7298 H   0  0  0  0  0  0  0  0  0  0  0  0
   -6.4165   -2.9663   -1.1753 H   0  0  0  0  0  0  0  0  0  0  0  0
   -5.9374   -2.3013   -2.7274 H   0  0  0  0  0  0  0  0  0  0  0  0
    1.0493    3.4202    0.1648 H   0  0  0  0  0  0  0  0  0  0  0  0
    1.0306    2.1914    1.4325 H   0  0  0  0  0  0  0  0  0  0  0  0
    0.6019    3.7508    3.1624 H   0  0  0  0  0  0  0  0  0  0  0  0
    1.8502    4.4907    2.1700 H   0  0  0  0  0  0  0  0  0  0  0  0
    0.0843    6.1089    2.8600 H   0  0  0  0  0  0  0  0  0  0  0  0
   -0.0016    5.6337   -0.1664 H   0  0  0  0  0  0  0  0  0  0  0  0
   -0.3818    7.1317    0.6895 H   0  0  0  0  0  0  0  0  0  0  0  0
    1.2683    6.4968    0.7182 H   0  0  0  0  0  0  0  0  0  0  0  0
   -1.8750    4.8224    3.1207 H   0  0  0  0  0  0  0  0  0  0  0  0
   -2.2342    5.8639    1.7394 H   0  0  0  0  0  0  0  0  0  0  0  0
    0.5520    0.8178   -2.7194 H   0  0  0  0  0  0  0  0  0  0  0  0
    0.5164   -0.9020   -2.2785 H   0  0  0  0  0  0  0  0  0  0  0  0
    2.8030    1.0991   -1.8836 H   0  0  0  0  0  0  0  0  0  0  0  0
    2.7806   -0.3306   -2.9355 H   0  0  0  0  0  0  0  0  0  0  0  0
  1  2  1  0
  2  3  1  0
  3  4  2  0
  4  5  1  0
  5  6  2  0
  6  7  1  0
  7  8  2  0
  8  9  1  0
  9 10  1  0
  6 11  1  0
 11 12  1  0
 12 13  1  0
 13 14  2  0
 14 15  1  0
 15 16  1  0
 16 17  1  0
 17 18  1  0
 18 19  1  0
 19 20  1  0
 20 21  1  0
 21 22  1  0
 15 23  2  0
 23 24  1  0
 24 25  1  0
 25 26  1  0
 26 27  2  0
 27 28  1  0
 27 29  1  0
 29 30  1  0
 30 31  1  0
 31 32  1  0
 31 33  1  0
 12 34  1  0
 34 35  1  0
  8  3  1  0
 28 13  1  0
 35  5  1  0
 22 17  1  0
 28 24  2  0
 33 26  1  0
  1 36  1  0
  1 37  1  0
  1 38  1  0
  4 39  1  0
  7 40  1  0
 10 41  1  0
 10 42  1  0
 10 43  1  0
 11 44  1  0
 11 45  1  0
 16 46  1  0
 16 47  1  0
 18 48  1  0
 18 49  1  0
 19 50  1  0
 19 51  1  0
 21 52  1  0
 21 53  1  0
 22 54  1  0
 22 55  1  0
 29 56  1  0
 29 57  1  0
 30 58  1  0
 30 59  1  0
 31 60  1  0
 32 61  1  0
 32 62  1  0
 32 63  1  0
 33 64  1  0
 33 65  1  0
 34 66  1  0
 34 67  1  0
 35 68  1  0
 35 69  1  0
M  END
$$$$
