
     RDKit          3D

 57 60  0  0  0  0  0  0  0  0999 V2000
    9.4036    3.6946    1.5962 C   0  0  0  0  0  0  0  0  0  0  0  0
    8.0982    3.2440    0.9650 C   0  0  0  0  0  0  0  0  0  0  0  0
    7.7458    1.9849    1.5345 O   0  0  0  0  0  0  0  0  0  0  0  0
    6.5772    1.4146    1.1136 C   0  0  0  0  0  0  0  0  0  0  0  0
    6.2624    0.2026    1.7287 C   0  0  0  0  0  0  0  0  0  0  0  0
    5.0931   -0.4921    1.3963 C   0  0  0  0  0  0  0  0  0  0  0  0
    4.2191    0.0198    0.4393 C   0  0  0  0  0  0  0  0  0  0  0  0
    3.0219   -0.6094    0.0434 N   0  0  0  0  0  0  0  0  0  0  0  0
    2.4729   -1.7803    0.5472 C   0  0  0  0  0  0  0  0  0  0  0  0
    2.9383   -2.4769    1.4446 O   0  0  0  0  0  0  0  0  0  0  0  0
    1.1782   -2.1676   -0.1484 C   0  0  0  0  0  0  0  0  0  0  0  0
   -0.1650   -1.0862    0.4265 S   0  0  0  0  0  0  0  0  0  0  0  0
   -1.4884   -1.7200   -0.5005 C   0  0  0  0  0  0  0  0  0  0  0  0
   -1.3439   -2.5206   -1.5310 N   0  0  0  0  0  0  0  0  0  0  0  0
   -2.5874   -2.9080   -1.9392 N   0  0  0  0  0  0  0  0  0  0  0  0
   -3.4819   -2.3219   -1.1635 C   0  0  0  0  0  0  0  0  0  0  0  0
   -4.9532   -2.3443   -1.4242 C   0  0  0  0  0  0  0  0  0  0  0  0
   -5.4651   -1.0373   -1.9559 C   0  0  0  0  0  0  0  0  0  0  0  0
   -6.2650   -0.0938   -1.3328 C   0  0  0  0  0  0  0  0  0  0  0  0
   -6.4685    0.9719   -2.2371 C   0  0  0  0  0  0  0  0  0  0  0  0
   -5.7988    0.6556   -3.3961 C   0  0  0  0  0  0  0  0  0  0  0  0
   -5.1976   -0.5655   -3.2252 N   0  0  0  0  0  0  0  0  0  0  0  0
   -4.4013   -1.2233   -4.2412 C   0  0  0  0  0  0  0  0  0  0  0  0
   -2.8304   -1.5680   -0.1916 N   0  0  0  0  0  0  0  0  0  0  0  0
   -3.4190   -0.8202    0.8614 C   0  0  0  0  0  0  0  0  0  0  0  0
   -3.0039    0.4962    1.1093 C   0  0  0  0  0  0  0  0  0  0  0  0
   -3.5965    1.2289    2.1397 C   0  0  0  0  0  0  0  0  0  0  0  0
   -4.5897    0.6454    2.9171 C   0  0  0  0  0  0  0  0  0  0  0  0
   -5.1558    1.3516    3.9038 F   0  0  0  0  0  0  0  0  0  0  0  0
   -5.0040   -0.6611    2.6859 C   0  0  0  0  0  0  0  0  0  0  0  0
   -4.4196   -1.3999    1.6551 C   0  0  0  0  0  0  0  0  0  0  0  0
    4.5391    1.2341   -0.1808 C   0  0  0  0  0  0  0  0  0  0  0  0
    5.7096    1.9286    0.1532 C   0  0  0  0  0  0  0  0  0  0  0  0
   10.1940    2.9593    1.4129 H   0  0  0  0  0  0  0  0  0  0  0  0
    9.7189    4.6605    1.1916 H   0  0  0  0  0  0  0  0  0  0  0  0
    9.2965    3.7835    2.6826 H   0  0  0  0  0  0  0  0  0  0  0  0
    7.3228    3.9891    1.1778 H   0  0  0  0  0  0  0  0  0  0  0  0
    8.2391    3.1455   -0.1177 H   0  0  0  0  0  0  0  0  0  0  0  0
    6.9326   -0.2110    2.4791 H   0  0  0  0  0  0  0  0  0  0  0  0
    4.9013   -1.4302    1.9069 H   0  0  0  0  0  0  0  0  0  0  0  0
    2.4741   -0.1218   -0.6552 H   0  0  0  0  0  0  0  0  0  0  0  0
    1.3135   -2.0801   -1.2323 H   0  0  0  0  0  0  0  0  0  0  0  0
    0.9508   -3.2124    0.0879 H   0  0  0  0  0  0  0  0  0  0  0  0
   -5.1724   -3.1348   -2.1537 H   0  0  0  0  0  0  0  0  0  0  0  0
   -5.5097   -2.6314   -0.5278 H   0  0  0  0  0  0  0  0  0  0  0  0
   -6.6579   -0.1619   -0.3258 H   0  0  0  0  0  0  0  0  0  0  0  0
   -7.0433    1.8724   -2.0642 H   0  0  0  0  0  0  0  0  0  0  0  0
   -5.7054    1.2013   -4.3258 H   0  0  0  0  0  0  0  0  0  0  0  0
   -4.6824   -2.2776   -4.2906 H   0  0  0  0  0  0  0  0  0  0  0  0
   -3.3481   -1.1074   -3.9777 H   0  0  0  0  0  0  0  0  0  0  0  0
   -4.5931   -0.7544   -5.2096 H   0  0  0  0  0  0  0  0  0  0  0  0
   -2.2555    0.9862    0.4907 H   0  0  0  0  0  0  0  0  0  0  0  0
   -3.2944    2.2531    2.3365 H   0  0  0  0  0  0  0  0  0  0  0  0
   -5.7718   -1.0979    3.3170 H   0  0  0  0  0  0  0  0  0  0  0  0
   -4.7271   -2.4340    1.5227 H   0  0  0  0  0  0  0  0  0  0  0  0
    3.8829    1.6631   -0.9338 H   0  0  0  0  0  0  0  0  0  0  0  0
    5.9104    2.8647   -0.3563 H   0  0  0  0  0  0  0  0  0  0  0  0
  1  2  1  0
  2  3  1  0
  3  4  1  0
  4  5  2  0
  5  6  1  0
  6  7  2  0
  7  8  1  0
  8  9  1  0
  9 10  2  0
  9 11  1  0
 11 12  1  0
 12 13  1  0
 13 14  2  0
 14 15  1  0
 15 16  2  0
 16 17  1  0
 17 18  1  0
 18 19  2  0
 19 20  1  0
 20 21  2  0
 21 22  1  0
 22 23  1  0
 16 24  1  0
 24 25  1  0
 25 26  2  0
 26 27  1  0
 27 28  2  0
 28 29  1  0
 28 30  1  0
 30 31  2  0
  7 32  1  0
 32 33  2  0
 33  4  1  0
 24 13  1  0
 31 25  1  0
 22 18  1  0
  1 34  1  0
  1 35  1  0
  1 36  1  0
  2 37  1  0
  2 38  1  0
  5 39  1  0
  6 40  1  0
  8 41  1  0
 11 42  1  0
 11 43  1  0
 17 44  1  0
 17 45  1  0
 19 46  1  0
 20 47  1  0
 21 48  1  0
 23 49  1  0
 23 50  1  0
 23 51  1  0
 26 52  1  0
 27 53  1  0
 30 54  1  0
 31 55  1  0
 32 56  1  0
 33 57  1  0
M  END
$$$$
