
     RDKit          3D

 50 53  0  0  0  0  0  0  0  0999 V2000
   -6.4716   -1.3142    5.0655 C   0  0  0  0  0  0  0  0  0  0  0  0
   -5.4723   -1.2123    3.9520 C   0  0  0  0  0  0  0  0  0  0  0  0
   -5.8059   -0.5682    2.7564 C   0  0  0  0  0  0  0  0  0  0  0  0
   -4.8872   -0.4919    1.7019 C   0  0  0  0  0  0  0  0  0  0  0  0
   -3.6242   -1.0818    1.8196 C   0  0  0  0  0  0  0  0  0  0  0  0
   -2.6473   -1.0183    0.7774 N   0  0  0  0  0  0  0  0  0  0  0  0
   -1.3448   -1.2606    1.0909 N   0  0  0  0  0  0  0  0  0  0  0  0
   -0.6552   -0.8903    0.0095 C   0  0  0  0  0  0  0  0  0  0  0  0
    0.7946   -0.8641   -0.1264 C   0  0  0  0  0  0  0  0  0  0  0  0
    1.5781   -1.1603    0.7743 O   0  0  0  0  0  0  0  0  0  0  0  0
    1.2114   -0.4744   -1.4142 N   0  0  0  0  0  0  0  0  0  0  0  0
    2.6362   -0.3182   -1.6497 C   0  0  0  0  0  0  0  0  0  0  0  0
    3.1335    1.0303   -1.1212 C   0  0  0  0  0  0  0  0  0  0  0  0
    2.3985    1.9367   -0.7364 O   0  0  0  0  0  0  0  0  0  0  0  0
    4.5107    1.1582   -1.1549 N   0  0  0  0  0  0  0  0  0  0  0  0
    5.1382    2.3125   -0.5542 C   0  0  0  0  0  0  0  0  0  0  0  0
    6.5646    2.3540   -0.9972 C   0  0  0  0  0  0  0  0  0  0  0  0
    7.1030    3.0179   -2.0832 C   0  0  0  0  0  0  0  0  0  0  0  0
    8.5113    2.8285   -2.1915 C   0  0  0  0  0  0  0  0  0  0  0  0
    9.0033    2.0252   -1.1865 C   0  0  0  0  0  0  0  0  0  0  0  0
    7.7702    1.5014   -0.1235 S   0  0  0  0  0  0  0  0  0  0  0  0
    0.3628   -0.1423   -2.4764 N   0  0  0  0  0  0  0  0  0  0  0  0
   -0.9327   -0.1584   -2.3262 C   0  0  0  0  0  0  0  0  0  0  0  0
   -1.7904    0.2281   -3.4977 C   0  0  0  0  0  0  0  0  0  0  0  0
   -1.4958   -0.5480   -1.0558 C   0  0  0  0  0  0  0  0  0  0  0  0
   -2.7866   -0.7323   -0.5872 C   0  0  0  0  0  0  0  0  0  0  0  0
   -4.0792   -0.7093   -1.3193 C   0  0  0  0  0  0  0  0  0  0  0  0
   -3.2882   -1.7197    3.0256 C   0  0  0  0  0  0  0  0  0  0  0  0
   -4.2086   -1.7956    4.0754 C   0  0  0  0  0  0  0  0  0  0  0  0
   -7.0967   -0.4155    5.1100 H   0  0  0  0  0  0  0  0  0  0  0  0
   -7.1139   -2.1869    4.9119 H   0  0  0  0  0  0  0  0  0  0  0  0
   -5.9723   -1.4099    6.0354 H   0  0  0  0  0  0  0  0  0  0  0  0
   -6.7828   -0.1016    2.6431 H   0  0  0  0  0  0  0  0  0  0  0  0
   -5.1840    0.0772    0.8297 H   0  0  0  0  0  0  0  0  0  0  0  0
    3.1803   -1.1238   -1.1444 H   0  0  0  0  0  0  0  0  0  0  0  0
    2.8351   -0.3762   -2.7254 H   0  0  0  0  0  0  0  0  0  0  0  0
    5.0690    0.3166   -1.2151 H   0  0  0  0  0  0  0  0  0  0  0  0
    5.0467    2.2258    0.5343 H   0  0  0  0  0  0  0  0  0  0  0  0
    4.6062    3.2204   -0.8636 H   0  0  0  0  0  0  0  0  0  0  0  0
    6.5103    3.6140   -2.7683 H   0  0  0  0  0  0  0  0  0  0  0  0
    9.1337    3.2610   -2.9659 H   0  0  0  0  0  0  0  0  0  0  0  0
   10.0286    1.7194   -1.0236 H   0  0  0  0  0  0  0  0  0  0  0  0
   -2.5467    0.9554   -3.1906 H   0  0  0  0  0  0  0  0  0  0  0  0
   -2.2773   -0.6630   -3.9029 H   0  0  0  0  0  0  0  0  0  0  0  0
   -1.1767    0.6761   -4.2860 H   0  0  0  0  0  0  0  0  0  0  0  0
   -4.8080   -1.4016   -0.8872 H   0  0  0  0  0  0  0  0  0  0  0  0
   -3.9473   -1.0344   -2.3549 H   0  0  0  0  0  0  0  0  0  0  0  0
   -4.4978    0.3014   -1.3370 H   0  0  0  0  0  0  0  0  0  0  0  0
   -2.3091   -2.1777    3.1622 H   0  0  0  0  0  0  0  0  0  0  0  0
   -3.9238   -2.3094    4.9912 H   0  0  0  0  0  0  0  0  0  0  0  0
  1  2  1  0
  2  3  2  0
  3  4  1  0
  4  5  2  0
  5  6  1  0
  6  7  1  0
  7  8  2  0
  8  9  1  0
  9 10  2  0
  9 11  1  0
 11 12  1  0
 12 13  1  0
 13 14  2  0
 13 15  1  0
 15 16  1  0
 16 17  1  0
 17 18  2  0
 18 19  1  0
 19 20  2  0
 20 21  1  0
 11 22  1  0
 22 23  2  0
 23 24  1  0
 23 25  1  0
 25 26  2  0
 26 27  1  0
  5 28  1  0
 28 29  2  0
 29  2  1  0
 26  6  1  0
 25  8  1  0
 21 17  1  0
  1 30  1  0
  1 31  1  0
  1 32  1  0
  3 33  1  0
  4 34  1  0
 12 35  1  0
 12 36  1  0
 15 37  1  0
 16 38  1  0
 16 39  1  0
 18 40  1  0
 19 41  1  0
 20 42  1  0
 24 43  1  0
 24 44  1  0
 24 45  1  0
 27 46  1  0
 27 47  1  0
 27 48  1  0
 28 49  1  0
 29 50  1  0
M  END
$$$$
