
     RDKit          3D

 35 35  0  0  0  0  0  0  0  0999 V2000
   -4.4114    1.1147   -0.2244 C   0  0  0  0  0  0  0  0  0  0  0  0
   -3.1566    0.2404   -0.3486 C   0  0  0  0  0  0  0  0  0  0  0  0
   -3.5411   -1.1253   -0.9315 C   0  0  0  0  0  0  0  0  0  0  0  0
   -2.1354    0.9964   -1.0934 N   0  0  0  0  0  0  0  0  0  0  0  0
   -2.2029    0.8937   -2.5450 C   0  0  0  0  0  0  0  0  0  0  0  0
   -0.7714    0.8424   -0.5673 C   0  0  0  0  0  0  0  0  0  0  0  0
   -0.1232   -0.5476   -0.6646 C   0  0  0  0  0  0  0  0  0  0  0  0
    1.2565   -0.4864   -0.2561 O   0  0  0  0  0  0  0  0  0  0  0  0
    1.4647   -0.5555    1.0823 C   0  0  0  0  0  0  0  0  0  0  0  0
    0.6210   -0.6854    1.9503 O   0  0  0  0  0  0  0  0  0  0  0  0
    2.9131   -0.4395    1.3292 C   0  0  0  0  0  0  0  0  0  0  0  0
    3.7669   -1.3790    0.7299 C   0  0  0  0  0  0  0  0  0  0  0  0
    5.1417   -1.3221    0.9600 C   0  0  0  0  0  0  0  0  0  0  0  0
    5.6672   -0.3313    1.7875 C   0  0  0  0  0  0  0  0  0  0  0  0
    4.8207    0.6065    2.3836 C   0  0  0  0  0  0  0  0  0  0  0  0
    3.4406    0.5563    2.1575 C   0  0  0  0  0  0  0  0  0  0  0  0
    2.3726    1.9019    2.9643 Br  0  0  0  0  0  0  0  0  0  0  0  0
   -5.1603    0.6244    0.4075 H   0  0  0  0  0  0  0  0  0  0  0  0
   -4.8734    1.3096   -1.1982 H   0  0  0  0  0  0  0  0  0  0  0  0
   -4.1729    2.0792    0.2380 H   0  0  0  0  0  0  0  0  0  0  0  0
   -2.8029    0.0744    0.6778 H   0  0  0  0  0  0  0  0  0  0  0  0
   -4.0469   -1.0307   -1.8984 H   0  0  0  0  0  0  0  0  0  0  0  0
   -4.2298   -1.6437   -0.2548 H   0  0  0  0  0  0  0  0  0  0  0  0
   -2.6698   -1.7719   -1.0652 H   0  0  0  0  0  0  0  0  0  0  0  0
   -3.2017    1.1527   -2.9118 H   0  0  0  0  0  0  0  0  0  0  0  0
   -1.5132    1.6066   -3.0111 H   0  0  0  0  0  0  0  0  0  0  0  0
   -1.9508   -0.1059   -2.9131 H   0  0  0  0  0  0  0  0  0  0  0  0
   -0.7602    1.1710    0.4802 H   0  0  0  0  0  0  0  0  0  0  0  0
   -0.1146    1.5671   -1.0678 H   0  0  0  0  0  0  0  0  0  0  0  0
   -0.6602   -1.2951   -0.0706 H   0  0  0  0  0  0  0  0  0  0  0  0
   -0.1184   -0.8986   -1.7012 H   0  0  0  0  0  0  0  0  0  0  0  0
    3.3618   -2.1590    0.0889 H   0  0  0  0  0  0  0  0  0  0  0  0
    5.8024   -2.0514    0.4967 H   0  0  0  0  0  0  0  0  0  0  0  0
    6.7389   -0.2860    1.9683 H   0  0  0  0  0  0  0  0  0  0  0  0
    5.2490    1.3769    3.0213 H   0  0  0  0  0  0  0  0  0  0  0  0
  1  2  1  0
  2  3  1  0
  2  4  1  0
  4  5  1  0
  4  6  1  0
  6  7  1  0
  7  8  1  0
  8  9  1  0
  9 10  2  0
  9 11  1  0
 11 12  2  0
 12 13  1  0
 13 14  2  0
 14 15  1  0
 15 16  2  0
 16 17  1  0
 16 11  1  0
  1 18  1  0
  1 19  1  0
  1 20  1  0
  2 21  1  0
  3 22  1  0
  3 23  1  0
  3 24  1  0
  5 25  1  0
  5 26  1  0
  5 27  1  0
  6 28  1  0
  6 29  1  0
  7 30  1  0
  7 31  1  0
 12 32  1  0
 13 33  1  0
 14 34  1  0
 15 35  1  0
M  END
$$$$
