
     RDKit          3D

 36 37  0  0  0  0  0  0  0  0999 V2000
    1.2362   -0.9877    1.7353 O   0  0  0  0  0  0  0  0  0  0  0  0
    0.5783   -1.3591    0.7636 C   0  0  0  0  0  0  0  0  0  0  0  0
   -0.7284   -2.1442    0.8930 C   0  0  0  0  0  0  0  0  0  0  0  0
   -1.8885   -1.3120    0.8648 O   0  0  0  0  0  0  0  0  0  0  0  0
   -2.2428   -0.8563   -0.3606 C   0  0  0  0  0  0  0  0  0  0  0  0
   -1.6390   -1.0829   -1.3988 O   0  0  0  0  0  0  0  0  0  0  0  0
   -3.4735   -0.0238   -0.2839 C   0  0  0  0  0  0  0  0  0  0  0  0
   -3.9998    0.4911   -1.4776 C   0  0  0  0  0  0  0  0  0  0  0  0
   -5.1533    1.2801   -1.4584 C   0  0  0  0  0  0  0  0  0  0  0  0
   -5.7815    1.5559   -0.2452 C   0  0  0  0  0  0  0  0  0  0  0  0
   -7.3413    2.6226   -0.2179 Br  0  0  0  0  0  0  0  0  0  0  0  0
   -5.2678    1.0511    0.9485 C   0  0  0  0  0  0  0  0  0  0  0  0
   -4.1138    0.2612    0.9308 C   0  0  0  0  0  0  0  0  0  0  0  0
    0.9737   -1.1033   -0.5340 N   0  0  0  0  0  0  0  0  0  0  0  0
    2.0793   -0.1993   -0.7940 C   0  0  0  0  0  0  0  0  0  0  0  0
    3.4369   -0.7560   -0.3384 C   0  0  0  0  0  0  0  0  0  0  0  0
    4.2803    0.2759    0.2290 N   0  0  0  0  0  0  0  0  0  0  0  0
    4.3687    0.5831    1.5663 C   0  0  0  0  0  0  0  0  0  0  0  0
    3.6355   -0.0693    2.5120 O   0  0  0  0  0  0  0  0  0  0  0  0
    5.2274    1.5661    1.8523 C   0  0  0  0  0  0  0  0  0  0  0  0
    5.9703    2.2025    0.4187 S   0  0  0  0  0  0  0  0  0  0  0  0
    5.0599    1.0736   -0.5982 C   0  0  0  0  0  0  0  0  0  0  0  0
    5.1268    1.0457   -1.8164 O   0  0  0  0  0  0  0  0  0  0  0  0
   -0.7141   -2.6614    1.8585 H   0  0  0  0  0  0  0  0  0  0  0  0
   -0.7841   -2.9236    0.1231 H   0  0  0  0  0  0  0  0  0  0  0  0
   -3.5153    0.2807   -2.4297 H   0  0  0  0  0  0  0  0  0  0  0  0
   -5.5506    1.6727   -2.3913 H   0  0  0  0  0  0  0  0  0  0  0  0
   -5.7557    1.2663    1.8963 H   0  0  0  0  0  0  0  0  0  0  0  0
   -3.7275   -0.1210    1.8729 H   0  0  0  0  0  0  0  0  0  0  0  0
    0.2358   -1.1571   -1.2406 H   0  0  0  0  0  0  0  0  0  0  0  0
    1.8469    0.7471   -0.2910 H   0  0  0  0  0  0  0  0  0  0  0  0
    2.0968   -0.0051   -1.8719 H   0  0  0  0  0  0  0  0  0  0  0  0
    3.3458   -1.5795    0.3781 H   0  0  0  0  0  0  0  0  0  0  0  0
    3.9476   -1.1814   -1.2119 H   0  0  0  0  0  0  0  0  0  0  0  0
    2.7972   -0.3938    2.1178 H   0  0  0  0  0  0  0  0  0  0  0  0
    5.4333    1.9411    2.8446 H   0  0  0  0  0  0  0  0  0  0  0  0
  1  2  2  0
  2  3  1  0
  3  4  1  0
  4  5  1  0
  5  6  2  0
  5  7  1  0
  7  8  2  0
  8  9  1  0
  9 10  2  0
 10 11  1  0
 10 12  1  0
 12 13  2  0
  2 14  1  0
 14 15  1  0
 15 16  1  0
 16 17  1  0
 17 18  1  0
 18 19  1  0
 18 20  2  0
 20 21  1  0
 21 22  1  0
 22 23  2  0
 13  7  1  0
 22 17  1  0
  3 24  1  0
  3 25  1  0
  8 26  1  0
  9 27  1  0
 12 28  1  0
 13 29  1  0
 14 30  1  0
 15 31  1  0
 15 32  1  0
 16 33  1  0
 16 34  1  0
 19 35  1  0
 20 36  1  0
M  END
$$$$
