
     RDKit          3D

 51 55  0  0  0  0  0  0  0  0999 V2000
    4.7008    2.5552    4.2949 Cl  0  0  0  0  0  0  0  0  0  0  0  0
    4.6838    1.6584    2.8187 C   0  0  0  0  0  0  0  0  0  0  0  0
    4.4507    2.3597    1.6329 C   0  0  0  0  0  0  0  0  0  0  0  0
    4.4222    1.6861    0.4090 C   0  0  0  0  0  0  0  0  0  0  0  0
    4.6128    0.2990    0.3549 C   0  0  0  0  0  0  0  0  0  0  0  0
    4.5906   -0.4392   -0.9647 C   0  0  0  0  0  0  0  0  0  0  0  0
    3.2922   -0.3148   -1.7930 C   0  0  0  0  0  0  0  0  0  0  0  0
    2.2228   -1.2629   -1.4255 N   0  0  0  0  0  0  0  0  0  0  0  0
    1.6697   -0.9949   -0.0792 C   0  0  0  0  0  0  0  0  0  0  0  0
    0.2314   -1.5189    0.1413 C   0  0  0  0  0  0  0  0  0  0  0  0
   -0.7115   -0.9332   -0.8185 N   0  0  0  0  0  0  0  0  0  0  0  0
   -1.9765   -0.4852   -0.4505 C   0  0  0  0  0  0  0  0  0  0  0  0
   -2.4527    0.5670   -1.0738 N   0  0  0  0  0  0  0  0  0  0  0  0
   -3.7101    1.1020   -0.7387 C   0  0  0  0  0  0  0  0  0  0  0  0
   -4.1598    2.2273   -1.4339 C   0  0  0  0  0  0  0  0  0  0  0  0
   -5.3977    2.8038   -1.1368 C   0  0  0  0  0  0  0  0  0  0  0  0
   -6.2002    2.2574   -0.1350 C   0  0  0  0  0  0  0  0  0  0  0  0
   -5.7702    1.1335    0.5727 C   0  0  0  0  0  0  0  0  0  0  0  0
   -4.5295    0.5676    0.2629 C   0  0  0  0  0  0  0  0  0  0  0  0
   -4.0297   -0.5746    0.9093 N   0  0  0  0  0  0  0  0  0  0  0  0
   -4.6047   -1.3329    1.9011 C   0  0  0  0  0  0  0  0  0  0  0  0
   -3.7757   -2.4008    2.1620 C   0  0  0  0  0  0  0  0  0  0  0  0
   -2.6561   -2.2775    1.3081 C   0  0  0  0  0  0  0  0  0  0  0  0
   -2.8074   -1.1165    0.5681 C   0  0  0  0  0  0  0  0  0  0  0  0
   -0.1065   -0.4434   -2.0677 C   0  0  0  0  0  0  0  0  0  0  0  0
    1.1397   -1.2718   -2.4388 C   0  0  0  0  0  0  0  0  0  0  0  0
    4.8642   -0.3950    1.5489 C   0  0  0  0  0  0  0  0  0  0  0  0
    4.8950    0.2768    2.7765 C   0  0  0  0  0  0  0  0  0  0  0  0
    5.1907   -0.6591    4.1980 Cl  0  0  0  0  0  0  0  0  0  0  0  0
    4.2895    3.4346    1.6533 H   0  0  0  0  0  0  0  0  0  0  0  0
    4.2500    2.2571   -0.5019 H   0  0  0  0  0  0  0  0  0  0  0  0
    4.8214   -1.5022   -0.8137 H   0  0  0  0  0  0  0  0  0  0  0  0
    5.4223   -0.0429   -1.5628 H   0  0  0  0  0  0  0  0  0  0  0  0
    3.5886   -0.5424   -2.8260 H   0  0  0  0  0  0  0  0  0  0  0  0
    2.9157    0.7155   -1.8005 H   0  0  0  0  0  0  0  0  0  0  0  0
    1.6567    0.0840    0.1213 H   0  0  0  0  0  0  0  0  0  0  0  0
    2.3165   -1.4668    0.6659 H   0  0  0  0  0  0  0  0  0  0  0  0
   -0.0522   -1.2689    1.1692 H   0  0  0  0  0  0  0  0  0  0  0  0
    0.2161   -2.6099    0.0393 H   0  0  0  0  0  0  0  0  0  0  0  0
   -3.5362    2.6544   -2.2145 H   0  0  0  0  0  0  0  0  0  0  0  0
   -5.7348    3.6781   -1.6894 H   0  0  0  0  0  0  0  0  0  0  0  0
   -7.1641    2.7066    0.0917 H   0  0  0  0  0  0  0  0  0  0  0  0
   -6.4140    0.7242    1.3437 H   0  0  0  0  0  0  0  0  0  0  0  0
   -5.5596   -1.0743    2.3352 H   0  0  0  0  0  0  0  0  0  0  0  0
   -3.9651   -3.1887    2.8797 H   0  0  0  0  0  0  0  0  0  0  0  0
   -1.8305   -2.9714    1.2470 H   0  0  0  0  0  0  0  0  0  0  0  0
    0.1653    0.6141   -1.9635 H   0  0  0  0  0  0  0  0  0  0  0  0
   -0.8309   -0.5272   -2.8866 H   0  0  0  0  0  0  0  0  0  0  0  0
    1.5070   -0.9585   -3.4239 H   0  0  0  0  0  0  0  0  0  0  0  0
    0.8304   -2.3182   -2.5620 H   0  0  0  0  0  0  0  0  0  0  0  0
    5.0295   -1.4705    1.5235 H   0  0  0  0  0  0  0  0  0  0  0  0
  1  2  1  0
  2  3  2  0
  3  4  1  0
  4  5  2  0
  5  6  1  0
  6  7  1  0
  7  8  1  0
  8  9  1  0
  9 10  1  0
 10 11  1  0
 11 12  1  0
 12 13  2  0
 13 14  1  0
 14 15  2  0
 15 16  1  0
 16 17  2  0
 17 18  1  0
 18 19  2  0
 19 20  1  0
 20 21  1  0
 21 22  2  0
 22 23  1  0
 23 24  2  0
 11 25  1  0
 25 26  1  0
  5 27  1  0
 27 28  2  0
 28 29  1  0
 28  2  1  0
 26  8  1  0
 24 12  1  0
 19 14  1  0
 24 20  1  0
  3 30  1  0
  4 31  1  0
  6 32  1  0
  6 33  1  0
  7 34  1  0
  7 35  1  0
  9 36  1  0
  9 37  1  0
 10 38  1  0
 10 39  1  0
 15 40  1  0
 16 41  1  0
 17 42  1  0
 18 43  1  0
 21 44  1  0
 22 45  1  0
 23 46  1  0
 25 47  1  0
 25 48  1  0
 26 49  1  0
 26 50  1  0
 27 51  1  0
M  END
$$$$
