
     RDKit          3D

 58 60  0  0  0  0  0  0  0  0999 V2000
    9.8254   -1.1922   -2.1291 C   0  0  0  0  0  0  0  0  0  0  0  0
    8.5255   -1.0118   -1.4025 C   0  0  0  0  0  0  0  0  0  0  0  0
    7.4581   -1.8861   -1.6404 C   0  0  0  0  0  0  0  0  0  0  0  0
    6.2572   -1.7440   -0.9431 C   0  0  0  0  0  0  0  0  0  0  0  0
    6.1076   -0.7316    0.0132 C   0  0  0  0  0  0  0  0  0  0  0  0
    4.8013   -0.5689    0.7481 C   0  0  0  0  0  0  0  0  0  0  0  0
    3.7888    0.2358   -0.0722 C   0  0  0  0  0  0  0  0  0  0  0  0
    2.5487    0.4627    0.6494 N   0  0  0  0  0  0  0  0  0  0  0  0
    1.6003   -0.5273    0.7908 C   0  0  0  0  0  0  0  0  0  0  0  0
    1.7315   -1.6577    0.3330 O   0  0  0  0  0  0  0  0  0  0  0  0
    0.3716   -0.0717    1.5494 C   0  0  0  0  0  0  0  0  0  0  0  0
   -0.5925   -1.2180    1.8328 C   0  0  0  0  0  0  0  0  0  0  0  0
   -1.2140   -1.6800    0.5819 N   0  0  0  0  0  0  0  0  0  0  0  0
   -2.6370   -2.5670    0.6815 S   0  0  0  0  0  6  0  0  0  0  0  0
   -2.6667   -3.2349    1.9638 O   0  0  0  0  0  0  0  0  0  0  0  0
   -2.7842   -3.2829   -0.5644 O   0  0  0  0  0  0  0  0  0  0  0  0
   -3.8585   -1.2805    0.6869 C   0  0  0  0  0  0  0  0  0  0  0  0
   -4.6954   -1.1101    1.7878 C   0  0  0  0  0  0  0  0  0  0  0  0
   -5.6603   -0.0966    1.7712 C   0  0  0  0  0  0  0  0  0  0  0  0
   -5.8002    0.7534    0.6599 C   0  0  0  0  0  0  0  0  0  0  0  0
   -4.9484    0.5631   -0.4289 C   0  0  0  0  0  0  0  0  0  0  0  0
   -3.9798   -0.4515   -0.4270 C   0  0  0  0  0  0  0  0  0  0  0  0
   -5.0668    1.4459   -1.5997 C   0  0  0  0  0  0  0  0  0  0  0  0
   -4.2936    1.2906   -2.5413 O   0  0  0  0  0  0  0  0  0  0  0  0
   -6.0560    2.4150   -1.5531 N   0  0  0  0  0  0  0  0  0  0  0  0
   -6.2153    3.2908   -2.7011 C   0  0  0  0  0  0  0  0  0  0  0  0
   -6.9271    2.6191   -0.4890 C   0  0  0  0  0  0  0  0  0  0  0  0
   -7.7873    3.5025   -0.5268 O   0  0  0  0  0  0  0  0  0  0  0  0
   -6.7765    1.7843    0.6148 N   0  0  0  0  0  0  0  0  0  0  0  0
   -7.6732    1.9777    1.7481 C   0  0  0  0  0  0  0  0  0  0  0  0
    7.1784    0.1371    0.2580 C   0  0  0  0  0  0  0  0  0  0  0  0
    8.3797   -0.0065   -0.4397 C   0  0  0  0  0  0  0  0  0  0  0  0
   10.3989   -0.2593   -2.1499 H   0  0  0  0  0  0  0  0  0  0  0  0
    9.6500   -1.4895   -3.1687 H   0  0  0  0  0  0  0  0  0  0  0  0
   10.4259   -1.9622   -1.6344 H   0  0  0  0  0  0  0  0  0  0  0  0
    7.5553   -2.6861   -2.3715 H   0  0  0  0  0  0  0  0  0  0  0  0
    5.4383   -2.4327   -1.1482 H   0  0  0  0  0  0  0  0  0  0  0  0
    4.9773   -0.0758    1.7132 H   0  0  0  0  0  0  0  0  0  0  0  0
    4.3990   -1.5597    0.9960 H   0  0  0  0  0  0  0  0  0  0  0  0
    4.1941    1.2225   -0.3276 H   0  0  0  0  0  0  0  0  0  0  0  0
    3.5524   -0.2809   -1.0103 H   0  0  0  0  0  0  0  0  0  0  0  0
    2.3743    1.3856    1.0275 H   0  0  0  0  0  0  0  0  0  0  0  0
   -0.1247    0.7129    0.9665 H   0  0  0  0  0  0  0  0  0  0  0  0
    0.7016    0.3603    2.5013 H   0  0  0  0  0  0  0  0  0  0  0  0
   -0.0683   -2.0553    2.3058 H   0  0  0  0  0  0  0  0  0  0  0  0
   -1.3654   -0.8560    2.5189 H   0  0  0  0  0  0  0  0  0  0  0  0
   -0.5657   -2.0853   -0.1035 H   0  0  0  0  0  0  0  0  0  0  0  0
   -4.6119   -1.7603    2.6565 H   0  0  0  0  0  0  0  0  0  0  0  0
   -6.2955    0.0002    2.6473 H   0  0  0  0  0  0  0  0  0  0  0  0
   -3.3289   -0.5947   -1.2884 H   0  0  0  0  0  0  0  0  0  0  0  0
   -7.2012    3.1126   -3.1432 H   0  0  0  0  0  0  0  0  0  0  0  0
   -5.4500    3.1280   -3.4642 H   0  0  0  0  0  0  0  0  0  0  0  0
   -6.1686    4.3334   -2.3701 H   0  0  0  0  0  0  0  0  0  0  0  0
   -7.0840    2.2154    2.6403 H   0  0  0  0  0  0  0  0  0  0  0  0
   -8.3761    2.7996    1.5864 H   0  0  0  0  0  0  0  0  0  0  0  0
   -8.2586    1.0661    1.9083 H   0  0  0  0  0  0  0  0  0  0  0  0
    7.0885    0.9298    0.9974 H   0  0  0  0  0  0  0  0  0  0  0  0
    9.2020    0.6729   -0.2256 H   0  0  0  0  0  0  0  0  0  0  0  0
  1  2  1  0
  2  3  2  0
  3  4  1  0
  4  5  2  0
  5  6  1  0
  6  7  1  0
  7  8  1  0
  8  9  1  0
  9 10  2  0
  9 11  1  0
 11 12  1  0
 12 13  1  0
 13 14  1  0
 14 15  2  0
 14 16  2  0
 14 17  1  0
 17 18  2  0
 18 19  1  0
 19 20  2  0
 20 21  1  0
 21 22  2  0
 21 23  1  0
 23 24  2  0
 23 25  1  0
 25 26  1  0
 25 27  1  0
 27 28  2  0
 27 29  1  0
 29 30  1  0
  5 31  1  0
 31 32  2  0
 32  2  1  0
 22 17  1  0
 29 20  1  0
  1 33  1  0
  1 34  1  0
  1 35  1  0
  3 36  1  0
  4 37  1  0
  6 38  1  0
  6 39  1  0
  7 40  1  0
  7 41  1  0
  8 42  1  0
 11 43  1  0
 11 44  1  0
 12 45  1  0
 12 46  1  0
 13 47  1  0
 18 48  1  0
 19 49  1  0
 22 50  1  0
 26 51  1  0
 26 52  1  0
 26 53  1  0
 30 54  1  0
 30 55  1  0
 30 56  1  0
 31 57  1  0
 32 58  1  0
M  END
$$$$
