
     RDKit          3D

 46 49  0  0  0  0  0  0  0  0999 V2000
   -3.0822   -3.3838    1.1595 C   0  0  0  0  0  0  0  0  0  0  0  0
   -3.9620   -2.6045    0.3579 O   0  0  0  0  0  0  0  0  0  0  0  0
   -3.4937   -1.4010   -0.0886 C   0  0  0  0  0  0  0  0  0  0  0  0
   -4.3780   -0.6938   -0.8968 C   0  0  0  0  0  0  0  0  0  0  0  0
   -4.0229    0.5482   -1.4280 C   0  0  0  0  0  0  0  0  0  0  0  0
   -2.7691    1.1084   -1.1533 C   0  0  0  0  0  0  0  0  0  0  0  0
   -2.3432    2.3052   -1.6744 O   0  0  0  0  0  0  0  0  0  0  0  0
   -3.2202    3.0024   -2.5498 C   0  0  0  0  0  0  0  0  0  0  0  0
   -1.8603    0.4160   -0.3200 C   0  0  0  0  0  0  0  0  0  0  0  0
   -0.5297    0.9467    0.0269 C   0  0  0  0  0  0  0  0  0  0  0  0
   -0.4243    2.2566    0.3387 N   0  0  0  0  0  0  0  0  0  0  0  0
    0.8086    2.7015    0.6816 C   0  0  0  0  0  0  0  0  0  0  0  0
    0.9317    4.1482    1.0095 C   0  0  0  0  0  0  0  0  0  0  0  0
   -0.2212    4.8765    0.8925 N   0  0  0  0  0  0  0  0  0  0  0  0
    1.9905    4.6559    1.3570 O   0  0  0  0  0  0  0  0  0  0  0  0
    1.8866    1.8706    0.7320 C   0  0  0  0  0  0  0  0  0  0  0  0
    3.2147    2.0714    1.0715 N   0  0  0  0  0  0  0  0  0  0  0  0
    3.8909    0.8480    0.9750 C   0  0  0  0  0  0  0  0  0  0  0  0
    5.0801    0.7208    1.2156 O   0  0  0  0  0  0  0  0  0  0  0  0
    2.9264   -0.1174    0.5502 N   0  0  0  0  0  0  0  0  0  0  0  0
    3.1449   -1.5027    0.3207 C   0  0  0  0  0  0  0  0  0  0  0  0
    2.1977   -2.3301   -0.3092 C   0  0  0  0  0  0  0  0  0  0  0  0
    2.4390   -3.6942   -0.5217 C   0  0  0  0  0  0  0  0  0  0  0  0
    3.6368   -4.2527   -0.1086 C   0  0  0  0  0  0  0  0  0  0  0  0
    3.8673   -5.5558   -0.3108 F   0  0  0  0  0  0  0  0  0  0  0  0
    4.5978   -3.4708    0.5087 C   0  0  0  0  0  0  0  0  0  0  0  0
    4.3524   -2.1076    0.7180 C   0  0  0  0  0  0  0  0  0  0  0  0
    1.6830    0.5508    0.4099 C   0  0  0  0  0  0  0  0  0  0  0  0
    0.4883    0.0562    0.0707 N   0  0  0  0  0  0  0  0  0  0  0  0
   -2.2469   -0.8461    0.1944 C   0  0  0  0  0  0  0  0  0  0  0  0
   -2.8426   -2.8689    2.0957 H   0  0  0  0  0  0  0  0  0  0  0  0
   -3.5983   -4.3145    1.4141 H   0  0  0  0  0  0  0  0  0  0  0  0
   -2.1735   -3.6468    0.6079 H   0  0  0  0  0  0  0  0  0  0  0  0
   -5.3549   -1.1160   -1.1227 H   0  0  0  0  0  0  0  0  0  0  0  0
   -4.7509    1.0470   -2.0591 H   0  0  0  0  0  0  0  0  0  0  0  0
   -3.4367    2.4115   -3.4458 H   0  0  0  0  0  0  0  0  0  0  0  0
   -4.1402    3.2964   -2.0343 H   0  0  0  0  0  0  0  0  0  0  0  0
   -2.7129    3.9175   -2.8702 H   0  0  0  0  0  0  0  0  0  0  0  0
   -0.2092    5.8688    1.0794 H   0  0  0  0  0  0  0  0  0  0  0  0
   -1.0743    4.4270    0.5746 H   0  0  0  0  0  0  0  0  0  0  0  0
    3.6291    2.9522    1.3541 H   0  0  0  0  0  0  0  0  0  0  0  0
    1.2551   -1.9462   -0.6827 H   0  0  0  0  0  0  0  0  0  0  0  0
    1.6979   -4.3151   -1.0151 H   0  0  0  0  0  0  0  0  0  0  0  0
    5.5345   -3.9171    0.8275 H   0  0  0  0  0  0  0  0  0  0  0  0
    5.1352   -1.5434    1.2175 H   0  0  0  0  0  0  0  0  0  0  0  0
   -1.5412   -1.3754    0.8297 H   0  0  0  0  0  0  0  0  0  0  0  0
  1  2  1  0
  2  3  1  0
  3  4  2  0
  4  5  1  0
  5  6  2  0
  6  7  1  0
  7  8  1  0
  6  9  1  0
  9 10  1  0
 10 11  2  0
 11 12  1  0
 12 13  1  0
 13 14  1  0
 13 15  2  0
 12 16  2  0
 16 17  1  0
 17 18  1  0
 18 19  2  0
 18 20  1  0
 20 21  1  0
 21 22  2  0
 22 23  1  0
 23 24  2  0
 24 25  1  0
 24 26  1  0
 26 27  2  0
 20 28  1  0
 28 29  2  0
  9 30  2  0
 30  3  1  0
 29 10  1  0
 28 16  1  0
 27 21  1  0
  1 31  1  0
  1 32  1  0
  1 33  1  0
  4 34  1  0
  5 35  1  0
  8 36  1  0
  8 37  1  0
  8 38  1  0
 14 39  1  0
 14 40  1  0
 17 41  1  0
 22 42  1  0
 23 43  1  0
 26 44  1  0
 27 45  1  0
 30 46  1  0
M  END
$$$$
