
     RDKit          3D

 37 38  0  0  0  0  0  0  0  0999 V2000
   -0.0193    1.4502   -1.3625 O   0  0  0  0  0  0  0  0  0  0  0  0
    0.3345    0.2952   -1.5890 C   0  0  0  0  0  0  0  0  0  0  0  0
   -0.6582   -0.8562   -1.7624 C   0  0  0  0  0  0  0  0  0  0  0  0
   -1.9724   -0.5021   -1.3194 O   0  0  0  0  0  0  0  0  0  0  0  0
   -2.1063   -0.4761    0.0324 C   0  0  0  0  0  0  0  0  0  0  0  0
   -1.2452   -0.7954    0.8369 O   0  0  0  0  0  0  0  0  0  0  0  0
   -3.4731   -0.0345    0.4227 C   0  0  0  0  0  0  0  0  0  0  0  0
   -3.8325   -0.2099    1.7704 C   0  0  0  0  0  0  0  0  0  0  0  0
   -5.0976    0.1714    2.2271 C   0  0  0  0  0  0  0  0  0  0  0  0
   -6.0115    0.7338    1.3394 C   0  0  0  0  0  0  0  0  0  0  0  0
   -7.5687    1.2019    1.9006 Cl  0  0  0  0  0  0  0  0  0  0  0  0
   -5.6705    0.9211    0.0024 C   0  0  0  0  0  0  0  0  0  0  0  0
   -4.4056    0.5417   -0.4536 C   0  0  0  0  0  0  0  0  0  0  0  0
   -4.1700    0.7857   -1.7794 O   0  0  0  0  0  0  0  0  0  0  0  0
    1.6569   -0.0768   -1.7330 N   0  0  0  0  0  0  0  0  0  0  0  0
    2.7205    0.8395   -1.3536 C   0  0  0  0  0  0  0  0  0  0  0  0
    3.0126    0.8001    0.1564 C   0  0  0  0  0  0  0  0  0  0  0  0
    3.8969   -0.2982    0.5476 N   0  0  0  0  0  0  0  0  0  0  0  0
    5.0821   -0.1078    1.2210 C   0  0  0  0  0  0  0  0  0  0  0  0
    5.5022    1.1609    1.4871 O   0  0  0  0  0  0  0  0  0  0  0  0
    5.7246   -1.2331    1.5537 C   0  0  0  0  0  0  0  0  0  0  0  0
    4.8496   -2.6371    1.0316 S   0  0  0  0  0  0  0  0  0  0  0  0
    3.5651   -1.6299    0.3373 C   0  0  0  0  0  0  0  0  0  0  0  0
    2.5957   -2.0913   -0.2451 O   0  0  0  0  0  0  0  0  0  0  0  0
   -0.7251   -1.0796   -2.8323 H   0  0  0  0  0  0  0  0  0  0  0  0
   -0.3059   -1.7603   -1.2525 H   0  0  0  0  0  0  0  0  0  0  0  0
   -3.1257   -0.6473    2.4746 H   0  0  0  0  0  0  0  0  0  0  0  0
   -5.3599    0.0277    3.2723 H   0  0  0  0  0  0  0  0  0  0  0  0
   -6.3800    1.3658   -0.6905 H   0  0  0  0  0  0  0  0  0  0  0  0
   -3.2504    0.5267   -1.9861 H   0  0  0  0  0  0  0  0  0  0  0  0
    1.8608   -1.0662   -1.5837 H   0  0  0  0  0  0  0  0  0  0  0  0
    3.6094    0.5702   -1.9335 H   0  0  0  0  0  0  0  0  0  0  0  0
    2.4194    1.8534   -1.6391 H   0  0  0  0  0  0  0  0  0  0  0  0
    2.0829    0.6896    0.7273 H   0  0  0  0  0  0  0  0  0  0  0  0
    3.4640    1.7553    0.4434 H   0  0  0  0  0  0  0  0  0  0  0  0
    6.3360    1.1124    1.9852 H   0  0  0  0  0  0  0  0  0  0  0  0
    6.6647   -1.3007    2.0809 H   0  0  0  0  0  0  0  0  0  0  0  0
  1  2  2  0
  2  3  1  0
  3  4  1  0
  4  5  1  0
  5  6  2  0
  5  7  1  0
  7  8  2  0
  8  9  1  0
  9 10  2  0
 10 11  1  0
 10 12  1  0
 12 13  2  0
 13 14  1  0
  2 15  1  0
 15 16  1  0
 16 17  1  0
 17 18  1  0
 18 19  1  0
 19 20  1  0
 19 21  2  0
 21 22  1  0
 22 23  1  0
 23 24  2  0
 13  7  1  0
 23 18  1  0
  3 25  1  0
  3 26  1  0
  8 27  1  0
  9 28  1  0
 12 29  1  0
 14 30  1  0
 15 31  1  0
 16 32  1  0
 16 33  1  0
 17 34  1  0
 17 35  1  0
 20 36  1  0
 21 37  1  0
M  END
$$$$
