
     RDKit          3D

 48 49  0  0  0  0  0  0  0  0999 V2000
   -7.2331   -0.4459    2.8081 C   0  0  0  0  0  0  0  0  0  0  0  0
   -6.8051   -0.2192    1.3881 C   0  0  0  0  0  0  0  0  0  0  0  0
   -7.7521   -0.1102    0.3707 C   0  0  0  0  0  0  0  0  0  0  0  0
   -7.3426    0.0692   -0.9492 C   0  0  0  0  0  0  0  0  0  0  0  0
   -5.9781    0.1331   -1.2808 C   0  0  0  0  0  0  0  0  0  0  0  0
   -5.6083    0.3290   -2.7272 C   0  0  0  0  0  0  0  0  0  0  0  0
   -5.0103    0.0077   -0.2598 C   0  0  0  0  0  0  0  0  0  0  0  0
   -3.6402    0.0644   -0.6110 N   0  0  0  0  0  0  0  0  0  0  0  0
   -2.5369   -0.0347    0.2204 C   0  0  0  0  0  0  0  0  0  0  0  0
   -2.5360   -0.1904    1.4361 O   0  0  0  0  0  0  0  0  0  0  0  0
   -1.2442    0.0756   -0.5659 C   0  0  0  0  0  0  0  0  0  0  0  0
   -0.0246   -0.0413    0.3396 C   0  0  0  0  0  0  0  0  0  0  0  0
    1.2624    0.0670   -0.4466 C   0  0  0  0  0  0  0  0  0  0  0  0
    1.2924    0.2311   -1.6628 O   0  0  0  0  0  0  0  0  0  0  0  0
    2.3807   -0.0406    0.3689 N   0  0  0  0  0  0  0  0  0  0  0  0
    3.6195    0.0334   -0.1859 N   0  0  0  0  0  0  0  0  0  0  0  0
    4.6164   -0.0757    0.6318 C   0  0  0  0  0  0  0  0  0  0  0  0
    6.0056   -0.0105    0.1338 C   0  0  0  0  0  0  0  0  0  0  0  0
    7.0435   -0.1347    1.0636 C   0  0  0  0  0  0  0  0  0  0  0  0
    8.3733   -0.0770    0.6179 C   0  0  0  0  0  0  0  0  0  0  0  0
    9.4675   -0.2072    1.5890 N   0  0  0  0  0  4  0  0  0  0  0  0
   10.6289   -0.1489    1.1633 O   0  0  0  0  0  0  0  0  0  0  0  0
    9.1594   -0.3681    2.7787 O   0  0  0  0  0  1  0  0  0  0  0  0
    8.6691    0.1026   -0.7401 C   0  0  0  0  0  0  0  0  0  0  0  0
    7.6253    0.2254   -1.6588 C   0  0  0  0  0  0  0  0  0  0  0  0
    6.3013    0.1692   -1.2246 C   0  0  0  0  0  0  0  0  0  0  0  0
    5.3453    0.2985   -2.1934 O   0  0  0  0  0  0  0  0  0  0  0  0
   -5.4408   -0.1719    1.0614 C   0  0  0  0  0  0  0  0  0  0  0  0
   -7.2605   -1.5185    3.0239 H   0  0  0  0  0  0  0  0  0  0  0  0
   -6.5426    0.0399    3.5054 H   0  0  0  0  0  0  0  0  0  0  0  0
   -8.2273   -0.0242    2.9904 H   0  0  0  0  0  0  0  0  0  0  0  0
   -8.8144   -0.1631    0.5980 H   0  0  0  0  0  0  0  0  0  0  0  0
   -8.1023    0.1568   -1.7234 H   0  0  0  0  0  0  0  0  0  0  0  0
   -5.0254   -0.5242   -3.0891 H   0  0  0  0  0  0  0  0  0  0  0  0
   -6.4952    0.4135   -3.3645 H   0  0  0  0  0  0  0  0  0  0  0  0
   -5.0296    1.2502   -2.8502 H   0  0  0  0  0  0  0  0  0  0  0  0
   -3.4393    0.1941   -1.5936 H   0  0  0  0  0  0  0  0  0  0  0  0
   -1.2358    1.0412   -1.0861 H   0  0  0  0  0  0  0  0  0  0  0  0
   -1.2288   -0.7183   -1.3225 H   0  0  0  0  0  0  0  0  0  0  0  0
   -0.0369    0.7532    1.0955 H   0  0  0  0  0  0  0  0  0  0  0  0
   -0.0320   -1.0061    0.8610 H   0  0  0  0  0  0  0  0  0  0  0  0
    2.2776   -0.1750    1.3697 H   0  0  0  0  0  0  0  0  0  0  0  0
    4.4709   -0.2201    1.7177 H   0  0  0  0  0  0  0  0  0  0  0  0
    6.8191   -0.2743    2.1187 H   0  0  0  0  0  0  0  0  0  0  0  0
    9.6961    0.1488   -1.0978 H   0  0  0  0  0  0  0  0  0  0  0  0
    7.8399    0.3653   -2.7163 H   0  0  0  0  0  0  0  0  0  0  0  0
    4.4549    0.2442   -1.7742 H   0  0  0  0  0  0  0  0  0  0  0  0
   -4.7270   -0.2803    1.8722 H   0  0  0  0  0  0  0  0  0  0  0  0
  1  2  1  0
  2  3  2  0
  3  4  1  0
  4  5  2  0
  5  6  1  0
  5  7  1  0
  7  8  1  0
  8  9  1  0
  9 10  2  0
  9 11  1  0
 11 12  1  0
 12 13  1  0
 13 14  2  0
 13 15  1  0
 15 16  1  0
 16 17  2  3
 17 18  1  0
 18 19  2  0
 19 20  1  0
 20 21  1  0
 21 22  2  0
 21 23  1  0
 20 24  2  0
 24 25  1  0
 25 26  2  0
 26 27  1  0
  7 28  2  0
 28  2  1  0
 26 18  1  0
  1 29  1  0
  1 30  1  0
  1 31  1  0
  3 32  1  0
  4 33  1  0
  6 34  1  0
  6 35  1  0
  6 36  1  0
  8 37  1  0
 11 38  1  0
 11 39  1  0
 12 40  1  0
 12 41  1  0
 15 42  1  0
 17 43  1  0
 19 44  1  0
 24 45  1  0
 25 46  1  0
 27 47  1  0
 28 48  1  0
M  CHG  2  21   1  23  -1
M  END
$$$$
