
     RDKit          3D

 51 55  0  0  0  0  0  0  0  0999 V2000
    8.0135    1.2751    3.5871 F   0  0  0  0  0  0  0  0  0  0  0  0
    7.0550    0.7597    2.8062 C   0  0  0  0  0  0  0  0  0  0  0  0
    7.2965    0.5892    1.4485 C   0  0  0  0  0  0  0  0  0  0  0  0
    6.2986    0.0532    0.6337 C   0  0  0  0  0  0  0  0  0  0  0  0
    5.0600   -0.3156    1.1806 C   0  0  0  0  0  0  0  0  0  0  0  0
    3.9715   -0.8779    0.2954 C   0  0  0  0  0  0  0  0  0  0  0  0
    3.0411    0.2291   -0.2309 C   0  0  0  0  0  0  0  0  0  0  0  0
    2.0255   -0.2615   -1.1808 N   0  0  0  0  0  0  0  0  0  0  0  0
    1.2680    0.8616   -1.7840 C   0  0  0  0  0  0  0  0  0  0  0  0
   -0.1240    1.1125   -1.1691 C   0  0  0  0  0  0  0  0  0  0  0  0
   -0.9789   -0.0811   -1.2901 N   0  0  0  0  0  0  0  0  0  0  0  0
   -2.3271    0.0126   -0.9597 C   0  0  0  0  0  0  0  0  0  0  0  0
   -2.7166    1.0506   -0.2594 N   0  0  0  0  0  0  0  0  0  0  0  0
   -4.0577    1.1888    0.1448 C   0  0  0  0  0  0  0  0  0  0  0  0
   -4.4096    2.3070    0.9035 C   0  0  0  0  0  0  0  0  0  0  0  0
   -5.7241    2.4875    1.3419 C   0  0  0  0  0  0  0  0  0  0  0  0
   -6.7032    1.5457    1.0241 C   0  0  0  0  0  0  0  0  0  0  0  0
   -6.3740    0.4210    0.2667 C   0  0  0  0  0  0  0  0  0  0  0  0
   -5.0542    0.2542   -0.1642 C   0  0  0  0  0  0  0  0  0  0  0  0
   -4.6393   -0.8385   -0.9423 N   0  0  0  0  0  0  0  0  0  0  0  0
   -5.3767   -1.8930   -1.4265 C   0  0  0  0  0  0  0  0  0  0  0  0
   -4.5518   -2.6731   -2.2060 C   0  0  0  0  0  0  0  0  0  0  0  0
   -3.2684   -2.0798   -2.1790 C   0  0  0  0  0  0  0  0  0  0  0  0
   -3.3302   -0.9674   -1.3566 C   0  0  0  0  0  0  0  0  0  0  0  0
   -0.2616   -1.3639   -1.2637 C   0  0  0  0  0  0  0  0  0  0  0  0
    1.1042   -1.2357   -0.5519 C   0  0  0  0  0  0  0  0  0  0  0  0
    4.8334   -0.1306    2.5533 C   0  0  0  0  0  0  0  0  0  0  0  0
    5.8333    0.4056    3.3656 C   0  0  0  0  0  0  0  0  0  0  0  0
    8.2578    0.8748    1.0337 H   0  0  0  0  0  0  0  0  0  0  0  0
    6.4911   -0.0755   -0.4295 H   0  0  0  0  0  0  0  0  0  0  0  0
    4.4283   -1.4172   -0.5446 H   0  0  0  0  0  0  0  0  0  0  0  0
    3.4088   -1.6261    0.8668 H   0  0  0  0  0  0  0  0  0  0  0  0
    3.6674    0.9722   -0.7429 H   0  0  0  0  0  0  0  0  0  0  0  0
    2.5622    0.7505    0.6089 H   0  0  0  0  0  0  0  0  0  0  0  0
    1.8485    1.7921   -1.7682 H   0  0  0  0  0  0  0  0  0  0  0  0
    1.1333    0.6181   -2.8462 H   0  0  0  0  0  0  0  0  0  0  0  0
   -0.5907    1.9519   -1.6982 H   0  0  0  0  0  0  0  0  0  0  0  0
   -0.0181    1.3948   -0.1142 H   0  0  0  0  0  0  0  0  0  0  0  0
   -3.6485    3.0411    1.1540 H   0  0  0  0  0  0  0  0  0  0  0  0
   -5.9814    3.3638    1.9315 H   0  0  0  0  0  0  0  0  0  0  0  0
   -7.7250    1.6904    1.3665 H   0  0  0  0  0  0  0  0  0  0  0  0
   -7.1531   -0.2954    0.0294 H   0  0  0  0  0  0  0  0  0  0  0  0
   -6.4279   -2.0036   -1.2040 H   0  0  0  0  0  0  0  0  0  0  0  0
   -4.8470   -3.5641   -2.7452 H   0  0  0  0  0  0  0  0  0  0  0  0
   -2.3953   -2.4315   -2.7106 H   0  0  0  0  0  0  0  0  0  0  0  0
   -0.8406   -2.1252   -0.7290 H   0  0  0  0  0  0  0  0  0  0  0  0
   -0.1126   -1.7134   -2.2919 H   0  0  0  0  0  0  0  0  0  0  0  0
    0.9104   -0.9574    0.4933 H   0  0  0  0  0  0  0  0  0  0  0  0
    1.5835   -2.2213   -0.5441 H   0  0  0  0  0  0  0  0  0  0  0  0
    3.8782   -0.4040    2.9962 H   0  0  0  0  0  0  0  0  0  0  0  0
    5.6676    0.5498    4.4283 H   0  0  0  0  0  0  0  0  0  0  0  0
  1  2  1  0
  2  3  2  0
  3  4  1  0
  4  5  2  0
  5  6  1  0
  6  7  1  0
  7  8  1  0
  8  9  1  0
  9 10  1  0
 10 11  1  0
 11 12  1  0
 12 13  2  0
 13 14  1  0
 14 15  2  0
 15 16  1  0
 16 17  2  0
 17 18  1  0
 18 19  2  0
 19 20  1  0
 20 21  1  0
 21 22  2  0
 22 23  1  0
 23 24  2  0
 11 25  1  0
 25 26  1  0
  5 27  1  0
 27 28  2  0
 28  2  1  0
 26  8  1  0
 24 12  1  0
 19 14  1  0
 24 20  1  0
  3 29  1  0
  4 30  1  0
  6 31  1  0
  6 32  1  0
  7 33  1  0
  7 34  1  0
  9 35  1  0
  9 36  1  0
 10 37  1  0
 10 38  1  0
 15 39  1  0
 16 40  1  0
 17 41  1  0
 18 42  1  0
 21 43  1  0
 22 44  1  0
 23 45  1  0
 25 46  1  0
 25 47  1  0
 26 48  1  0
 26 49  1  0
 27 50  1  0
 28 51  1  0
M  END
$$$$
