
     RDKit          3D

 93 97  0  0  0  0  0  0  0  0999 V2000
   -5.9699    2.6052   -0.3932 C   0  0  0  0  0  0  0  0  0  0  0  0
   -6.1973    2.2222   -1.8492 C   0  0  0  0  0  0  0  0  0  0  0  0
   -5.4273    0.9639   -2.2483 C   0  0  0  0  0  0  0  0  0  0  0  0
   -3.9501    1.2136   -2.4339 C   0  0  0  0  0  0  0  0  0  0  0  0
   -3.4283    2.3150   -2.5568 O   0  0  0  0  0  0  0  0  0  0  0  0
   -3.2858    0.0256   -2.4703 O   0  0  0  0  0  0  0  0  0  0  0  0
   -1.8782    0.1472   -2.7131 C   0  0  0  0  0  0  0  0  0  0  0  0
   -1.1898   -1.1628   -2.3419 C   0  0  1  0  0  0  0  0  0  0  0  0
    0.2849   -1.2052   -2.8202 C   0  0  0  0  0  0  0  0  0  0  0  0
    1.1345   -1.0510   -1.5402 C   0  0  2  0  0  0  0  0  0  0  0  0
    1.0112    0.3746   -1.2964 O   0  0  0  0  0  0  0  0  0  0  0  0
    1.8215    1.0442   -0.4560 C   0  0  0  0  0  0  0  0  0  0  0  0
    2.6406    0.5672    0.3167 O   0  0  0  0  0  0  0  0  0  0  0  0
    1.5961    2.5045   -0.5206 C   0  0  0  0  0  0  0  0  0  0  0  0
    0.7988    3.1156   -1.4095 C   0  0  0  0  0  0  0  0  0  0  0  0
    0.5954    4.5692   -1.4618 C   0  0  0  0  0  0  0  0  0  0  0  0
   -0.6720    5.0647   -1.7955 C   0  0  0  0  0  0  0  0  0  0  0  0
   -0.8907    6.4393   -1.9101 C   0  0  0  0  0  0  0  0  0  0  0  0
    0.1586    7.3343   -1.7036 C   0  0  0  0  0  0  0  0  0  0  0  0
    1.4227    6.8524   -1.3796 C   0  0  0  0  0  0  0  0  0  0  0  0
    1.6421    5.4783   -1.2636 C   0  0  0  0  0  0  0  0  0  0  0  0
    2.5976   -1.5093   -1.8308 C   0  0  0  0  0  0  0  0  0  0  0  0
    3.3751   -0.7794   -2.4573 O   0  0  0  0  0  0  0  0  0  0  0  0
    3.0489   -2.9076   -1.5170 C   0  0  0  0  0  0  0  0  0  0  0  0
    2.7892   -3.9020   -2.6162 C   0  0  0  0  0  0  0  0  0  0  0  0
    3.7086   -3.2420   -0.3845 C   0  0  0  0  0  0  0  0  0  0  0  0
    4.0274   -2.4188    0.7960 C   0  0  0  0  0  0  0  0  0  0  0  0
    3.5585   -2.9593    2.1493 C   0  0  2  0  0  0  0  0  0  0  0  0
    2.7720   -2.0758    3.0946 C   0  0  0  0  0  0  0  0  0  0  0  0
    1.3104   -2.5334    3.3366 C   0  0  0  0  0  0  0  0  0  0  0  0
    0.3959   -2.6538    2.1216 C   0  0  2  0  0  0  0  0  0  0  0  0
   -1.0212   -3.0219    2.3949 C   0  0  0  0  0  0  0  0  0  0  0  0
    1.0014   -3.4221    1.1032 O   0  0  0  0  0  0  0  0  0  0  0  0
    0.8101   -2.0120    0.7927 C   0  0  1  0  0  0  0  0  0  0  0  0
    0.2889   -1.9498   -0.6012 C   0  0  1  0  0  0  0  0  0  0  0  0
   -1.1503   -1.4807   -0.8166 C   0  0  1  0  0  0  0  0  0  0  0  0
   -1.4206   -0.3357    0.0056 O   0  0  0  0  0  0  0  0  0  0  0  0
   -2.6117   -0.3335    0.6691 C   0  0  0  0  0  0  0  0  0  0  0  0
   -3.4832   -1.1824    0.5426 O   0  0  0  0  0  0  0  0  0  0  0  0
   -2.6819    0.8618    1.5862 C   0  0  0  0  0  0  0  0  0  0  0  0
   -3.7817    0.6965    2.6318 C   0  0  0  0  0  0  0  0  0  0  0  0
   -3.7487    1.8185    3.6550 C   0  0  0  0  0  0  0  0  0  0  0  0
    5.0445   -2.7877    1.8630 C   0  0  0  0  0  0  0  0  0  0  0  0
    5.8868   -4.0357    1.7265 C   0  0  0  0  0  0  0  0  0  0  0  0
    5.7920   -1.6472    2.5188 C   0  0  0  0  0  0  0  0  0  0  0  0
   -6.3122    1.8130    0.2762 H   0  0  0  0  0  0  0  0  0  0  0  0
   -6.5285    3.5105   -0.1560 H   0  0  0  0  0  0  0  0  0  0  0  0
   -4.9127    2.7925   -0.1816 H   0  0  0  0  0  0  0  0  0  0  0  0
   -7.2690    2.0392   -1.9930 H   0  0  0  0  0  0  0  0  0  0  0  0
   -5.9210    3.0645   -2.4958 H   0  0  0  0  0  0  0  0  0  0  0  0
   -5.8102    0.5947   -3.2072 H   0  0  0  0  0  0  0  0  0  0  0  0
   -5.5730    0.1801   -1.4948 H   0  0  0  0  0  0  0  0  0  0  0  0
   -1.7449    0.3385   -3.7853 H   0  0  0  0  0  0  0  0  0  0  0  0
   -1.4533    0.9828   -2.1499 H   0  0  0  0  0  0  0  0  0  0  0  0
   -1.7209   -1.9898   -2.8376 H   0  0  0  0  0  0  0  0  0  0  0  0
    0.4776   -2.1678   -3.3076 H   0  0  0  0  0  0  0  0  0  0  0  0
    0.4985   -0.4241   -3.5573 H   0  0  0  0  0  0  0  0  0  0  0  0
    2.1471    3.0633    0.2268 H   0  0  0  0  0  0  0  0  0  0  0  0
    0.2429    2.5460   -2.1496 H   0  0  0  0  0  0  0  0  0  0  0  0
   -1.5026    4.3839   -1.9667 H   0  0  0  0  0  0  0  0  0  0  0  0
   -1.8748    6.8110   -2.1764 H   0  0  0  0  0  0  0  0  0  0  0  0
   -0.0081    8.4021   -1.8060 H   0  0  0  0  0  0  0  0  0  0  0  0
    2.2444    7.5479   -1.2329 H   0  0  0  0  0  0  0  0  0  0  0  0
    2.6487    5.1288   -1.0392 H   0  0  0  0  0  0  0  0  0  0  0  0
    1.7123   -4.0181   -2.7817 H   0  0  0  0  0  0  0  0  0  0  0  0
    3.2523   -3.5726   -3.5535 H   0  0  0  0  0  0  0  0  0  0  0  0
    3.1951   -4.8933   -2.3841 H   0  0  0  0  0  0  0  0  0  0  0  0
    4.0039   -4.2853   -0.3025 H   0  0  0  0  0  0  0  0  0  0  0  0
    3.9678   -1.3539    0.6028 H   0  0  0  0  0  0  0  0  0  0  0  0
    3.2239   -3.9883    2.2255 H   0  0  0  0  0  0  0  0  0  0  0  0
    3.2857   -2.0872    4.0629 H   0  0  0  0  0  0  0  0  0  0  0  0
    2.7876   -1.0344    2.7540 H   0  0  0  0  0  0  0  0  0  0  0  0
    1.3290   -3.5108    3.8391 H   0  0  0  0  0  0  0  0  0  0  0  0
    0.8534   -1.8286    4.0419 H   0  0  0  0  0  0  0  0  0  0  0  0
   -1.5520   -3.3175    1.4872 H   0  0  0  0  0  0  0  0  0  0  0  0
   -1.0741   -3.8611    3.0929 H   0  0  0  0  0  0  0  0  0  0  0  0
   -1.5558   -2.1762    2.8396 H   0  0  0  0  0  0  0  0  0  0  0  0
    1.6230   -1.3170    0.9149 H   0  0  0  0  0  0  0  0  0  0  0  0
    0.3332   -2.9709   -1.0117 H   0  0  0  0  0  0  0  0  0  0  0  0
   -1.8327   -2.3108   -0.5910 H   0  0  0  0  0  0  0  0  0  0  0  0
   -1.7110    0.9618    2.0878 H   0  0  0  0  0  0  0  0  0  0  0  0
   -2.8605    1.7549    0.9740 H   0  0  0  0  0  0  0  0  0  0  0  0
   -4.7602    0.6837    2.1383 H   0  0  0  0  0  0  0  0  0  0  0  0
   -3.6748   -0.2660    3.1458 H   0  0  0  0  0  0  0  0  0  0  0  0
   -2.8291    1.7740    4.2447 H   0  0  0  0  0  0  0  0  0  0  0  0
   -3.8003    2.7994    3.1758 H   0  0  0  0  0  0  0  0  0  0  0  0
   -4.5913    1.7311    4.3457 H   0  0  0  0  0  0  0  0  0  0  0  0
    6.7124   -3.8627    1.0322 H   0  0  0  0  0  0  0  0  0  0  0  0
    6.3124   -4.3038    2.6937 H   0  0  0  0  0  0  0  0  0  0  0  0
    5.3182   -4.8992    1.3807 H   0  0  0  0  0  0  0  0  0  0  0  0
    5.2235   -0.7134    2.5104 H   0  0  0  0  0  0  0  0  0  0  0  0
    6.0218   -1.8981    3.5573 H   0  0  0  0  0  0  0  0  0  0  0  0
    6.7331   -1.4573    1.9950 H   0  0  0  0  0  0  0  0  0  0  0  0
  1  2  1  0
  2  3  1  0
  3  4  1  0
  4  5  2  0
  4  6  1  0
  6  7  1  0
  7  8  1  0
  8  9  1  0
  9 10  1  0
 10 11  1  1
 11 12  1  0
 12 13  2  0
 12 14  1  0
 14 15  2  0
 15 16  1  0
 16 17  2  0
 17 18  1  0
 18 19  2  0
 19 20  1  0
 20 21  2  0
 10 22  1  0
 22 23  2  0
 22 24  1  0
 24 25  1  0
 24 26  2  3
 26 27  1  0
 27 28  1  0
 28 29  1  0
 29 30  1  0
 30 31  1  0
 31 32  1  1
 31 33  1  0
 33 34  1  0
 34 35  1  0
 35 36  1  0
 36 37  1  0
 37 38  1  0
 38 39  2  0
 38 40  1  0
 40 41  1  0
 41 42  1  0
 28 43  1  0
 43 44  1  0
 43 45  1  0
 36  8  1  0
 35 10  1  0
 21 16  1  0
 43 27  1  0
 34 31  1  0
  1 46  1  0
  1 47  1  0
  1 48  1  0
  2 49  1  0
  2 50  1  0
  3 51  1  0
  3 52  1  0
  7 53  1  0
  7 54  1  0
  8 55  1  6
  9 56  1  0
  9 57  1  0
 14 58  1  0
 15 59  1  0
 17 60  1  0
 18 61  1  0
 19 62  1  0
 20 63  1  0
 21 64  1  0
 25 65  1  0
 25 66  1  0
 25 67  1  0
 26 68  1  0
 27 69  1  0
 28 70  1  6
 29 71  1  0
 29 72  1  0
 30 73  1  0
 30 74  1  0
 32 75  1  0
 32 76  1  0
 32 77  1  0
 34 78  1  1
 35 79  1  6
 36 80  1  6
 40 81  1  0
 40 82  1  0
 41 83  1  0
 41 84  1  0
 42 85  1  0
 42 86  1  0
 42 87  1  0
 44 88  1  0
 44 89  1  0
 44 90  1  0
 45 91  1  0
 45 92  1  0
 45 93  1  0
M  END
$$$$
