
     RDKit          3D

 41 43  0  0  0  0  0  0  0  0999 V2000
   -3.8596    0.3036    2.9040 C   0  0  0  0  0  0  0  0  0  0  0  0
   -3.7206   -0.4005    1.5867 C   0  0  0  0  0  0  0  0  0  0  0  0
   -4.2821   -1.6645    1.3950 C   0  0  0  0  0  0  0  0  0  0  0  0
   -4.1335   -2.3299    0.1755 C   0  0  0  0  0  0  0  0  0  0  0  0
   -3.4099   -1.7556   -0.8823 C   0  0  0  0  0  0  0  0  0  0  0  0
   -3.3035   -2.5199   -2.1721 C   0  0  0  0  0  0  0  0  0  0  0  0
   -2.8075   -0.5013   -0.6715 C   0  0  0  0  0  0  0  0  0  0  0  0
   -1.7977    0.2701   -1.9285 S   0  0  0  0  0  6  0  0  0  0  0  0
   -1.0608   -0.7472   -2.6464 O   0  0  0  0  0  0  0  0  0  0  0  0
   -2.6560    1.2087   -2.6202 O   0  0  0  0  0  0  0  0  0  0  0  0
   -0.6944    1.2034   -1.0787 N   0  0  0  0  0  0  0  0  0  0  0  0
    0.4390    0.6987   -0.3783 C   0  0  0  0  0  0  0  0  0  0  0  0
    0.6112   -0.6419   -0.0336 C   0  0  0  0  0  0  0  0  0  0  0  0
    1.7216   -1.0408    0.7141 C   0  0  0  0  0  0  0  0  0  0  0  0
    2.6605   -0.1008    1.1277 C   0  0  0  0  0  0  0  0  0  0  0  0
    3.7198   -0.5836    1.8453 O   0  0  0  0  0  0  0  0  0  0  0  0
    2.4980    1.2540    0.8177 C   0  0  0  0  0  0  0  0  0  0  0  0
    3.5980    2.5383    1.3955 S   0  0  0  0  0  0  0  0  0  0  0  0
    5.0713    2.1515    0.5547 C   0  0  0  0  0  0  0  0  0  0  0  0
    5.5995    2.9237   -0.4397 N   0  0  0  0  0  0  0  0  0  0  0  0
    6.6884    2.2717   -0.7727 C   0  0  0  0  0  0  0  0  0  0  0  0
    6.8064    1.1595   -0.0006 N   0  0  0  0  0  0  0  0  0  0  0  0
    5.7834    1.0609    0.8679 N   0  0  0  0  0  0  0  0  0  0  0  0
    1.3736    1.6410    0.0717 C   0  0  0  0  0  0  0  0  0  0  0  0
   -2.9742    0.1726    0.5511 C   0  0  0  0  0  0  0  0  0  0  0  0
   -3.8756    1.3898    2.7657 H   0  0  0  0  0  0  0  0  0  0  0  0
   -4.7958    0.0259    3.3995 H   0  0  0  0  0  0  0  0  0  0  0  0
   -3.0222    0.0418    3.5580 H   0  0  0  0  0  0  0  0  0  0  0  0
   -4.8478   -2.1412    2.1932 H   0  0  0  0  0  0  0  0  0  0  0  0
   -4.5958   -3.3086    0.0561 H   0  0  0  0  0  0  0  0  0  0  0  0
   -4.0630   -3.3078   -2.2279 H   0  0  0  0  0  0  0  0  0  0  0  0
   -2.3227   -2.9979   -2.2516 H   0  0  0  0  0  0  0  0  0  0  0  0
   -3.4750   -1.8653   -3.0321 H   0  0  0  0  0  0  0  0  0  0  0  0
   -0.7270    2.1874   -1.3387 H   0  0  0  0  0  0  0  0  0  0  0  0
   -0.0930   -1.4107   -0.3349 H   0  0  0  0  0  0  0  0  0  0  0  0
    1.8555   -2.0885    0.9711 H   0  0  0  0  0  0  0  0  0  0  0  0
    4.4542    0.0636    1.7710 H   0  0  0  0  0  0  0  0  0  0  0  0
    7.4028    2.5471   -1.5356 H   0  0  0  0  0  0  0  0  0  0  0  0
    7.5299    0.4483   -0.0072 H   0  0  0  0  0  0  0  0  0  0  0  0
    1.2283    2.6940   -0.1595 H   0  0  0  0  0  0  0  0  0  0  0  0
   -2.5238    1.1504    0.7053 H   0  0  0  0  0  0  0  0  0  0  0  0
  1  2  1  0
  2  3  2  0
  3  4  1  0
  4  5  2  0
  5  6  1  0
  5  7  1  0
  7  8  1  0
  8  9  2  0
  8 10  2  0
  8 11  1  0
 11 12  1  0
 12 13  2  0
 13 14  1  0
 14 15  2  0
 15 16  1  0
 15 17  1  0
 17 18  1  0
 18 19  1  0
 19 20  1  0
 20 21  2  0
 21 22  1  0
 22 23  1  0
 17 24  2  0
  7 25  2  0
 25  2  1  0
 24 12  1  0
 23 19  2  0
  1 26  1  0
  1 27  1  0
  1 28  1  0
  3 29  1  0
  4 30  1  0
  6 31  1  0
  6 32  1  0
  6 33  1  0
 11 34  1  0
 13 35  1  0
 14 36  1  0
 16 37  1  0
 21 38  1  0
 22 39  1  0
 24 40  1  0
 25 41  1  0
M  END
$$$$
