
     RDKit          3D

 53 56  0  0  0  0  0  0  0  0999 V2000
   -7.3490   -1.3565   -2.4849 C   0  0  0  0  0  0  0  0  0  0  0  0
   -6.1837   -0.7211   -1.7856 C   0  0  0  0  0  0  0  0  0  0  0  0
   -5.1566   -0.1186   -2.5172 C   0  0  0  0  0  0  0  0  0  0  0  0
   -4.0534    0.4414   -1.8641 C   0  0  0  0  0  0  0  0  0  0  0  0
   -3.9621    0.4162   -0.4623 C   0  0  0  0  0  0  0  0  0  0  0  0
   -2.8187    0.9981    0.1674 N   0  0  0  0  0  0  0  0  0  0  0  0
   -1.7061    1.2312   -0.5838 N   0  0  0  0  0  0  0  0  0  0  0  0
   -0.7525    1.5331    0.2996 C   0  0  0  0  0  0  0  0  0  0  0  0
    0.6532    1.7723    0.0074 C   0  0  0  0  0  0  0  0  0  0  0  0
    1.1508    1.7044   -1.1177 O   0  0  0  0  0  0  0  0  0  0  0  0
    1.4055    2.0728    1.1594 N   0  0  0  0  0  0  0  0  0  0  0  0
    2.8337    2.3050    1.0074 C   0  0  0  0  0  0  0  0  0  0  0  0
    3.5423    0.9671    0.7974 C   0  0  0  0  0  0  0  0  0  0  0  0
    3.8531    0.2233    1.7244 O   0  0  0  0  0  0  0  0  0  0  0  0
    3.7384    0.6410   -0.5343 N   0  0  0  0  0  0  0  0  0  0  0  0
    4.2223   -0.6718   -0.9267 C   0  0  0  0  0  0  0  0  0  0  0  0
    5.6700   -0.9497   -0.5016 C   0  0  0  0  0  0  0  0  0  0  0  0
    6.1933   -2.2061   -1.1389 C   0  0  0  0  0  0  0  0  0  0  0  0
    5.8072   -3.5114   -0.8985 C   0  0  0  0  0  0  0  0  0  0  0  0
    6.5146   -4.4432   -1.7121 C   0  0  0  0  0  0  0  0  0  0  0  0
    7.4286   -3.8203   -2.5346 C   0  0  0  0  0  0  0  0  0  0  0  0
    7.4288   -2.1232   -2.3282 S   0  0  0  0  0  0  0  0  0  0  0  0
    0.8889    2.1872    2.4536 N   0  0  0  0  0  0  0  0  0  0  0  0
   -0.3747    1.9726    2.6942 C   0  0  0  0  0  0  0  0  0  0  0  0
   -0.8643    2.0969    4.1088 C   0  0  0  0  0  0  0  0  0  0  0  0
   -1.2540    1.6288    1.6026 C   0  0  0  0  0  0  0  0  0  0  0  0
   -2.6137    1.3883    1.4972 C   0  0  0  0  0  0  0  0  0  0  0  0
   -3.6914    1.5465    2.5085 C   0  0  0  0  0  0  0  0  0  0  0  0
   -4.9712   -0.2238    0.2657 C   0  0  0  0  0  0  0  0  0  0  0  0
   -6.0731   -0.7854   -0.3924 C   0  0  0  0  0  0  0  0  0  0  0  0
   -8.2724   -1.2077   -1.9123 H   0  0  0  0  0  0  0  0  0  0  0  0
   -7.5051   -0.9130   -3.4748 H   0  0  0  0  0  0  0  0  0  0  0  0
   -7.1707   -2.4299   -2.6057 H   0  0  0  0  0  0  0  0  0  0  0  0
   -5.2049   -0.0781   -3.6043 H   0  0  0  0  0  0  0  0  0  0  0  0
   -3.2741    0.9052   -2.4678 H   0  0  0  0  0  0  0  0  0  0  0  0
    3.2390    2.7880    1.9029 H   0  0  0  0  0  0  0  0  0  0  0  0
    3.0106    2.9674    0.1530 H   0  0  0  0  0  0  0  0  0  0  0  0
    3.0876    1.0849   -1.1840 H   0  0  0  0  0  0  0  0  0  0  0  0
    3.5438   -1.4233   -0.5030 H   0  0  0  0  0  0  0  0  0  0  0  0
    4.1300   -0.7199   -2.0192 H   0  0  0  0  0  0  0  0  0  0  0  0
    6.3001   -0.0891   -0.7611 H   0  0  0  0  0  0  0  0  0  0  0  0
    5.7369   -1.0579    0.5873 H   0  0  0  0  0  0  0  0  0  0  0  0
    5.0425   -3.7860   -0.1772 H   0  0  0  0  0  0  0  0  0  0  0  0
    6.3614   -5.5155   -1.6936 H   0  0  0  0  0  0  0  0  0  0  0  0
    8.0956   -4.2778   -3.2518 H   0  0  0  0  0  0  0  0  0  0  0  0
   -1.4510    1.2158    4.3848 H   0  0  0  0  0  0  0  0  0  0  0  0
   -1.4794    2.9945    4.2048 H   0  0  0  0  0  0  0  0  0  0  0  0
   -0.0189    2.1817    4.7984 H   0  0  0  0  0  0  0  0  0  0  0  0
   -4.6461    1.8228    2.0520 H   0  0  0  0  0  0  0  0  0  0  0  0
   -3.8156    0.6295    3.0919 H   0  0  0  0  0  0  0  0  0  0  0  0
   -3.4570    2.3566    3.2042 H   0  0  0  0  0  0  0  0  0  0  0  0
   -4.9175   -0.3551    1.3400 H   0  0  0  0  0  0  0  0  0  0  0  0
   -6.8411   -1.2884    0.1925 H   0  0  0  0  0  0  0  0  0  0  0  0
  1  2  1  0
  2  3  2  0
  3  4  1  0
  4  5  2  0
  5  6  1  0
  6  7  1  0
  7  8  2  0
  8  9  1  0
  9 10  2  0
  9 11  1  0
 11 12  1  0
 12 13  1  0
 13 14  2  0
 13 15  1  0
 15 16  1  0
 16 17  1  0
 17 18  1  0
 18 19  2  0
 19 20  1  0
 20 21  2  0
 21 22  1  0
 11 23  1  0
 23 24  2  0
 24 25  1  0
 24 26  1  0
 26 27  2  0
 27 28  1  0
  5 29  1  0
 29 30  2  0
 30  2  1  0
 27  6  1  0
 26  8  1  0
 22 18  1  0
  1 31  1  0
  1 32  1  0
  1 33  1  0
  3 34  1  0
  4 35  1  0
 12 36  1  0
 12 37  1  0
 15 38  1  0
 16 39  1  0
 16 40  1  0
 17 41  1  0
 17 42  1  0
 19 43  1  0
 20 44  1  0
 21 45  1  0
 25 46  1  0
 25 47  1  0
 25 48  1  0
 28 49  1  0
 28 50  1  0
 28 51  1  0
 29 52  1  0
 30 53  1  0
M  END
$$$$
