
     RDKit          3D

 59 62  0  0  0  0  0  0  0  0999 V2000
   -7.4673   -1.7172   -0.3425 C   0  0  0  0  0  0  0  0  0  0  0  0
   -6.6836   -0.6156    0.3485 C   0  0  0  0  0  0  0  0  0  0  0  0
   -5.4014   -0.3644   -0.2924 N   0  0  0  0  0  0  0  0  0  0  0  0
   -5.1948    0.5559   -1.3028 C   0  0  0  0  0  0  0  0  0  0  0  0
   -6.0827    1.4209   -1.9646 C   0  0  0  0  0  0  0  0  0  0  0  0
   -5.5715    2.2559   -2.9631 C   0  0  0  0  0  0  0  0  0  0  0  0
   -4.2215    2.2297   -3.2957 C   0  0  0  0  0  0  0  0  0  0  0  0
   -3.3460    1.3628   -2.6353 C   0  0  0  0  0  0  0  0  0  0  0  0
   -3.8362    0.5104   -1.6220 C   0  0  0  0  0  0  0  0  0  0  0  0
   -3.2263   -0.4700   -0.7786 C   0  0  0  0  0  0  0  0  0  0  0  0
   -1.9044   -0.9508   -0.6419 C   0  0  0  0  0  0  0  0  0  0  0  0
   -1.6048   -1.9519    0.2951 C   0  0  0  0  0  0  0  0  0  0  0  0
   -0.2602   -2.3668    0.3710 N   0  0  0  0  0  0  0  0  0  0  0  0
    0.3004   -3.3083    1.2244 C   0  0  0  0  0  0  0  0  0  0  0  0
   -0.2995   -3.9771    2.0598 O   0  0  0  0  0  0  0  0  0  0  0  0
    1.8098   -3.4691    0.9720 C   0  0  0  0  0  0  0  0  0  0  0  0
    2.4706   -4.3466    2.0255 C   0  0  0  0  0  0  0  0  0  0  0  0
    2.3963   -2.1537    1.0126 O   0  0  0  0  0  0  0  0  0  0  0  0
    3.4876   -1.9665    0.2334 C   0  0  0  0  0  0  0  0  0  0  0  0
    3.9736   -2.7909   -0.5230 O   0  0  0  0  0  0  0  0  0  0  0  0
    4.0116   -0.5839    0.4024 C   0  0  0  0  0  0  0  0  0  0  0  0
    3.4703    0.3202    1.3232 C   0  0  0  0  0  0  0  0  0  0  0  0
    4.0044    1.6089    1.4404 C   0  0  0  0  0  0  0  0  0  0  0  0
    5.0850    2.0152    0.6457 C   0  0  0  0  0  0  0  0  0  0  0  0
    5.5609    3.3314    0.8340 N   0  0  0  0  0  0  0  0  0  0  0  0
    6.6273    3.9443    0.1837 C   0  0  0  0  0  0  0  0  0  0  0  0
    7.3483    3.4176   -0.6566 O   0  0  0  0  0  0  0  0  0  0  0  0
    6.8571    5.3631    0.6666 C   0  0  0  0  0  0  0  0  0  0  0  0
    7.4921    6.1955   -0.3553 C   0  0  0  0  0  0  0  0  0  0  0  0
    7.9775    6.9155   -1.1264 N   0  0  0  0  0  0  0  0  0  0  0  0
    5.6202    1.1100   -0.2722 C   0  0  0  0  0  0  0  0  0  0  0  0
    5.0887   -0.1805   -0.3934 C   0  0  0  0  0  0  0  0  0  0  0  0
   -2.6256   -2.4735    1.0849 C   0  0  0  0  0  0  0  0  0  0  0  0
   -3.9449   -2.0142    0.9712 C   0  0  0  0  0  0  0  0  0  0  0  0
   -4.2225   -1.0067    0.0352 C   0  0  0  0  0  0  0  0  0  0  0  0
   -6.9138   -2.6625   -0.3356 H   0  0  0  0  0  0  0  0  0  0  0  0
   -8.4225   -1.8779    0.1657 H   0  0  0  0  0  0  0  0  0  0  0  0
   -7.6748   -1.4606   -1.3865 H   0  0  0  0  0  0  0  0  0  0  0  0
   -6.4959   -0.8726    1.3963 H   0  0  0  0  0  0  0  0  0  0  0  0
   -7.2528    0.3200    0.3533 H   0  0  0  0  0  0  0  0  0  0  0  0
   -7.1396    1.4496   -1.7193 H   0  0  0  0  0  0  0  0  0  0  0  0
   -6.2410    2.9335   -3.4874 H   0  0  0  0  0  0  0  0  0  0  0  0
   -3.8432    2.8842   -4.0764 H   0  0  0  0  0  0  0  0  0  0  0  0
   -2.2943    1.3459   -2.9048 H   0  0  0  0  0  0  0  0  0  0  0  0
   -1.1311   -0.5315   -1.2776 H   0  0  0  0  0  0  0  0  0  0  0  0
    0.3888   -1.8893   -0.2434 H   0  0  0  0  0  0  0  0  0  0  0  0
    1.9163   -3.9244   -0.0212 H   0  0  0  0  0  0  0  0  0  0  0  0
    2.3535   -3.9125    3.0247 H   0  0  0  0  0  0  0  0  0  0  0  0
    2.0374   -5.3518    2.0351 H   0  0  0  0  0  0  0  0  0  0  0  0
    3.5460   -4.4334    1.8410 H   0  0  0  0  0  0  0  0  0  0  0  0
    2.6360    0.0398    1.9621 H   0  0  0  0  0  0  0  0  0  0  0  0
    3.5603    2.2848    2.1676 H   0  0  0  0  0  0  0  0  0  0  0  0
    5.0674    3.8727    1.5338 H   0  0  0  0  0  0  0  0  0  0  0  0
    7.4854    5.3125    1.5621 H   0  0  0  0  0  0  0  0  0  0  0  0
    5.9019    5.8167    0.9535 H   0  0  0  0  0  0  0  0  0  0  0  0
    6.4553    1.3687   -0.9166 H   0  0  0  0  0  0  0  0  0  0  0  0
    5.5276   -0.8664   -1.1169 H   0  0  0  0  0  0  0  0  0  0  0  0
   -2.4344   -3.2543    1.8150 H   0  0  0  0  0  0  0  0  0  0  0  0
   -4.7212   -2.4411    1.5986 H   0  0  0  0  0  0  0  0  0  0  0  0
  1  2  1  0
  2  3  1  0
  3  4  1  0
  4  5  2  0
  5  6  1  0
  6  7  2  0
  7  8  1  0
  8  9  2  0
  9 10  1  0
 10 11  2  0
 11 12  1  0
 12 13  1  0
 13 14  1  0
 14 15  2  0
 14 16  1  0
 16 17  1  0
 16 18  1  0
 18 19  1  0
 19 20  2  0
 19 21  1  0
 21 22  2  0
 22 23  1  0
 23 24  2  0
 24 25  1  0
 25 26  1  0
 26 27  2  0
 26 28  1  0
 28 29  1  0
 29 30  3  0
 24 31  1  0
 31 32  2  0
 12 33  2  0
 33 34  1  0
 34 35  2  0
 35  3  1  0
  9  4  1  0
 35 10  1  0
 32 21  1  0
  1 36  1  0
  1 37  1  0
  1 38  1  0
  2 39  1  0
  2 40  1  0
  5 41  1  0
  6 42  1  0
  7 43  1  0
  8 44  1  0
 11 45  1  0
 13 46  1  0
 16 47  1  0
 17 48  1  0
 17 49  1  0
 17 50  1  0
 22 51  1  0
 23 52  1  0
 25 53  1  0
 28 54  1  0
 28 55  1  0
 31 56  1  0
 32 57  1  0
 33 58  1  0
 34 59  1  0
M  END
$$$$
