
     RDKit          3D

 46 49  0  0  0  0  0  0  0  0999 V2000
   -2.9877    5.4429    0.1228 N   0  0  0  0  0  0  0  0  0  0  0  0
   -3.7007    4.3615    0.4888 C   0  0  0  0  0  0  0  0  0  0  0  0
   -4.9938    4.3908    0.8110 N   0  0  0  0  0  0  0  0  0  0  0  0
   -5.3255    3.0791    1.1339 O   0  0  0  0  0  0  0  0  0  0  0  0
   -4.2254    2.2335    1.0081 N   0  0  0  0  0  0  0  0  0  0  0  0
   -3.2409    3.0344    0.6003 C   0  0  0  0  0  0  0  0  0  0  0  0
   -1.9396    2.5332    0.3348 N   0  0  0  0  0  0  0  0  0  0  0  0
   -0.9362    3.3637   -0.0824 N   0  0  0  0  0  0  0  0  0  0  0  0
    0.1653    2.6592   -0.2695 N   0  0  0  0  0  0  0  0  0  0  0  0
   -0.1065    1.3495    0.0246 C   0  0  0  0  0  0  0  0  0  0  0  0
    0.9080    0.3017   -0.0889 C   0  0  0  0  0  0  0  0  0  0  0  0
    0.6858   -0.8667    0.2112 O   0  0  0  0  0  0  0  0  0  0  0  0
    2.1175    0.7935   -0.5582 N   0  0  0  0  0  0  0  0  0  0  0  0
    3.1876   -0.0318   -0.7417 N   0  0  0  0  0  0  0  0  0  0  0  0
    4.2565    0.5413   -1.1954 C   0  0  0  0  0  0  0  0  0  0  0  0
    5.4974   -0.2149   -1.4558 C   0  0  0  0  0  0  0  0  0  0  0  0
    6.6125    0.4698   -1.9477 C   0  0  0  0  0  0  0  0  0  0  0  0
    7.7927   -0.2284   -2.2076 C   0  0  0  0  0  0  0  0  0  0  0  0
    7.8569   -1.6035   -1.9763 C   0  0  0  0  0  0  0  0  0  0  0  0
    6.7435   -2.2850   -1.4836 C   0  0  0  0  0  0  0  0  0  0  0  0
    5.5611   -1.5923   -1.2223 C   0  0  0  0  0  0  0  0  0  0  0  0
   -1.4343    1.2360    0.4130 C   0  0  0  0  0  0  0  0  0  0  0  0
   -2.2089    0.0317    0.8106 C   0  0  0  0  0  0  0  0  0  0  0  0
   -3.0911   -0.6423   -0.6366 S   0  0  0  0  0  0  0  0  0  0  0  0
   -3.8121   -2.0729    0.1420 C   0  0  0  0  0  0  0  0  0  0  0  0
   -5.1535   -2.0531    0.5392 C   0  0  0  0  0  0  0  0  0  0  0  0
   -5.7181   -3.1712    1.1561 C   0  0  0  0  0  0  0  0  0  0  0  0
   -4.9442   -4.3090    1.3822 C   0  0  0  0  0  0  0  0  0  0  0  0
   -3.6064   -4.3333    0.9880 C   0  0  0  0  0  0  0  0  0  0  0  0
   -3.0413   -3.2187    0.3645 C   0  0  0  0  0  0  0  0  0  0  0  0
   -2.0571    5.3534   -0.2825 H   0  0  0  0  0  0  0  0  0  0  0  0
   -3.4765    6.2986   -0.1184 H   0  0  0  0  0  0  0  0  0  0  0  0
    2.1873    1.7820   -0.7833 H   0  0  0  0  0  0  0  0  0  0  0  0
    4.2848    1.6251   -1.4101 H   0  0  0  0  0  0  0  0  0  0  0  0
    6.5758    1.5399   -2.1338 H   0  0  0  0  0  0  0  0  0  0  0  0
    8.6626    0.2977   -2.5925 H   0  0  0  0  0  0  0  0  0  0  0  0
    8.7759   -2.1461   -2.1816 H   0  0  0  0  0  0  0  0  0  0  0  0
    6.7944   -3.3566   -1.3040 H   0  0  0  0  0  0  0  0  0  0  0  0
    4.6949   -2.1293   -0.8407 H   0  0  0  0  0  0  0  0  0  0  0  0
   -2.9110    0.2449    1.6209 H   0  0  0  0  0  0  0  0  0  0  0  0
   -1.5384   -0.7371    1.2051 H   0  0  0  0  0  0  0  0  0  0  0  0
   -5.7655   -1.1694    0.3726 H   0  0  0  0  0  0  0  0  0  0  0  0
   -6.7612   -3.1512    1.4665 H   0  0  0  0  0  0  0  0  0  0  0  0
   -5.3842   -5.1783    1.8648 H   0  0  0  0  0  0  0  0  0  0  0  0
   -3.0031   -5.2209    1.1595 H   0  0  0  0  0  0  0  0  0  0  0  0
   -1.9971   -3.2512    0.0564 H   0  0  0  0  0  0  0  0  0  0  0  0
  1  2  1  0
  2  3  2  0
  3  4  1  0
  4  5  1  0
  5  6  2  0
  6  7  1  0
  7  8  1  0
  8  9  2  0
  9 10  1  0
 10 11  1  0
 11 12  2  0
 11 13  1  0
 13 14  1  0
 14 15  2  3
 15 16  1  0
 16 17  2  0
 17 18  1  0
 18 19  2  0
 19 20  1  0
 20 21  2  0
 10 22  2  0
 22 23  1  0
 23 24  1  0
 24 25  1  0
 25 26  2  0
 26 27  1  0
 27 28  2  0
 28 29  1  0
 29 30  2  0
  6  2  1  0
 22  7  1  0
 30 25  1  0
 21 16  1  0
  1 31  1  0
  1 32  1  0
 13 33  1  0
 15 34  1  0
 17 35  1  0
 18 36  1  0
 19 37  1  0
 20 38  1  0
 21 39  1  0
 23 40  1  0
 23 41  1  0
 26 42  1  0
 27 43  1  0
 28 44  1  0
 29 45  1  0
 30 46  1  0
M  END
$$$$
