
     RDKit          3D

 37 37  0  0  0  0  0  0  0  0999 V2000
   -3.3082   -3.6200   -1.3481 C   0  0  0  0  0  0  0  0  0  0  0  0
   -2.5597   -2.8591   -0.3996 O   0  0  0  0  0  0  0  0  0  0  0  0
   -2.0162   -1.7196   -0.9088 C   0  0  0  0  0  0  0  0  0  0  0  0
   -2.1641   -1.3143   -2.0573 O   0  0  0  0  0  0  0  0  0  0  0  0
   -1.2413   -0.9584    0.1713 C   0  0  0  0  0  0  0  0  0  0  0  0
   -2.1873   -0.1647    1.0817 C   0  0  0  0  0  0  0  0  0  0  0  0
   -3.0125    0.8925    0.3467 C   0  0  0  0  0  0  0  0  0  0  0  0
   -4.1672    1.7533    1.4674 S   0  0  0  0  0  0  0  0  0  0  0  0
   -2.9952    2.7912    2.3770 C   0  0  0  0  0  0  0  0  0  0  0  0
   -0.2508   -0.0879   -0.4714 N   0  0  0  0  0  0  0  0  0  0  0  0
    0.9979   -0.5891   -0.7492 C   0  0  0  0  0  0  0  0  0  0  0  0
    1.3910   -1.6907   -0.3948 O   0  0  0  0  0  0  0  0  0  0  0  0
    1.7325    0.3070   -1.4770 N   0  0  0  0  0  0  0  0  0  0  0  0
    3.1187    0.0432   -1.7945 C   0  0  0  0  0  0  0  0  0  0  0  0
    3.9780    0.6332   -0.7202 C   0  0  0  0  0  0  0  0  0  0  0  0
    4.3344    0.0708    0.4907 C   0  0  0  0  0  0  0  0  0  0  0  0
    5.1673    0.9288    1.2641 C   0  0  0  0  0  0  0  0  0  0  0  0
    5.4191    2.1190    0.6196 C   0  0  0  0  0  0  0  0  0  0  0  0
    4.6513    2.1985   -0.9062 S   0  0  0  0  0  0  0  0  0  0  0  0
   -4.1689   -3.0456   -1.7044 H   0  0  0  0  0  0  0  0  0  0  0  0
   -3.6756   -4.5196   -0.8466 H   0  0  0  0  0  0  0  0  0  0  0  0
   -2.6715   -3.9253   -2.1845 H   0  0  0  0  0  0  0  0  0  0  0  0
   -0.7050   -1.6970    0.7795 H   0  0  0  0  0  0  0  0  0  0  0  0
   -1.5839    0.3115    1.8638 H   0  0  0  0  0  0  0  0  0  0  0  0
   -2.8647   -0.8688    1.5825 H   0  0  0  0  0  0  0  0  0  0  0  0
   -2.3758    1.6359   -0.1429 H   0  0  0  0  0  0  0  0  0  0  0  0
   -3.6250    0.4243   -0.4298 H   0  0  0  0  0  0  0  0  0  0  0  0
   -3.5531    3.4728    3.0249 H   0  0  0  0  0  0  0  0  0  0  0  0
   -2.3428    2.1812    3.0059 H   0  0  0  0  0  0  0  0  0  0  0  0
   -2.3938    3.3872    1.6859 H   0  0  0  0  0  0  0  0  0  0  0  0
   -0.6114    0.4495   -1.2509 H   0  0  0  0  0  0  0  0  0  0  0  0
    1.4875    1.2765   -1.3437 H   0  0  0  0  0  0  0  0  0  0  0  0
    3.2931   -1.0348   -1.8817 H   0  0  0  0  0  0  0  0  0  0  0  0
    3.3224    0.4988   -2.7691 H   0  0  0  0  0  0  0  0  0  0  0  0
    4.0033   -0.9134    0.8050 H   0  0  0  0  0  0  0  0  0  0  0  0
    5.5603    0.6846    2.2433 H   0  0  0  0  0  0  0  0  0  0  0  0
    6.0171    2.9485    0.9714 H   0  0  0  0  0  0  0  0  0  0  0  0
  1  2  1  0
  2  3  1  0
  3  4  2  0
  3  5  1  0
  5  6  1  0
  6  7  1  0
  7  8  1  0
  8  9  1  0
  5 10  1  0
 10 11  1  0
 11 12  2  0
 11 13  1  0
 13 14  1  0
 14 15  1  0
 15 16  2  0
 16 17  1  0
 17 18  2  0
 18 19  1  0
 19 15  1  0
  1 20  1  0
  1 21  1  0
  1 22  1  0
  5 23  1  0
  6 24  1  0
  6 25  1  0
  7 26  1  0
  7 27  1  0
  9 28  1  0
  9 29  1  0
  9 30  1  0
 10 31  1  0
 13 32  1  0
 14 33  1  0
 14 34  1  0
 16 35  1  0
 17 36  1  0
 18 37  1  0
M  END
$$$$
