
     RDKit          3D

 20 21  0  0  0  0  0  0  0  0999 V2000
    4.3964    0.0543   -1.3512 O   0  0  0  0  0  0  0  0  0  0  0  0
    3.8124    0.0584   -0.2751 C   0  0  0  0  0  0  0  0  0  0  0  0
    2.3387    0.0357   -0.1800 C   0  0  0  0  0  0  0  0  0  0  0  0
    1.7313    0.0418    1.0786 C   0  0  0  0  0  0  0  0  0  0  0  0
    0.3350    0.0204    1.1811 C   0  0  0  0  0  0  0  0  0  0  0  0
   -0.4543   -0.0071    0.0210 C   0  0  0  0  0  0  0  0  0  0  0  0
   -1.8721   -0.0292    0.0968 N   0  0  0  0  0  0  0  0  0  0  0  0
   -2.6806   -0.0282    1.2085 C   0  0  0  0  0  0  0  0  0  0  0  0
   -3.9469   -0.0532    0.8598 N   0  0  0  0  0  0  0  0  0  0  0  0
   -3.8799   -0.0693   -0.4992 C   0  0  0  0  0  0  0  0  0  0  0  0
   -2.6504   -0.0559   -1.0140 N   0  0  0  0  0  0  0  0  0  0  0  0
    0.1665   -0.0130   -1.2390 C   0  0  0  0  0  0  0  0  0  0  0  0
    1.5601    0.0084   -1.3385 C   0  0  0  0  0  0  0  0  0  0  0  0
    4.3673    0.0795    0.6778 H   0  0  0  0  0  0  0  0  0  0  0  0
    2.3313    0.0630    1.9855 H   0  0  0  0  0  0  0  0  0  0  0  0
   -0.0984    0.0260    2.1773 H   0  0  0  0  0  0  0  0  0  0  0  0
   -2.3113   -0.0094    2.2223 H   0  0  0  0  0  0  0  0  0  0  0  0
   -4.7554   -0.0916   -1.1362 H   0  0  0  0  0  0  0  0  0  0  0  0
   -0.4215   -0.0342   -2.1560 H   0  0  0  0  0  0  0  0  0  0  0  0
    2.0320    0.0036   -2.3195 H   0  0  0  0  0  0  0  0  0  0  0  0
  1  2  2  0
  2  3  1  0
  3  4  2  0
  4  5  1  0
  5  6  2  0
  6  7  1  0
  7  8  1  0
  8  9  2  0
  9 10  1  0
 10 11  2  0
  6 12  1  0
 12 13  2  0
 13  3  1  0
 11  7  1  0
  2 14  1  0
  4 15  1  0
  5 16  1  0
  8 17  1  0
 10 18  1  0
 12 19  1  0
 13 20  1  0
M  END
$$$$
