
     RDKit          3D

 65 69  0  0  0  0  0  0  0  0999 V2000
    6.2404    1.9324   -0.1036 O   0  0  0  0  0  0  0  0  0  0  0  0
    6.5799    0.7845   -0.4129 C   0  0  0  0  0  0  0  0  0  0  0  0
    7.9924    0.4860   -0.9942 C   0  0  0  0  0  0  0  0  0  0  0  0
    8.9930    1.6773   -1.1024 C   0  0  0  0  0  0  0  0  0  0  0  0
   10.1155    0.6819   -0.7578 C   0  0  0  0  0  0  0  0  0  0  0  0
    9.0436   -0.1687   -0.0526 C   0  0  0  0  0  0  0  0  0  0  0  0
    5.7350   -0.3146   -0.2866 N   0  0  0  0  0  0  0  0  0  0  0  0
    6.0800   -1.7035   -0.6298 C   0  0  0  0  0  0  0  0  0  0  0  0
    4.8113   -2.5490   -0.4695 C   0  0  0  0  0  0  0  0  0  0  0  0
    3.8858   -1.5896    0.2049 C   0  0  0  0  0  0  0  0  0  0  0  0
    2.6173   -1.8566    0.7001 C   0  0  0  0  0  0  0  0  0  0  0  0
    1.9075   -0.7996    1.2781 C   0  0  0  0  0  0  0  0  0  0  0  0
    0.2988   -1.0915    1.9702 S   0  0  0  0  0  6  0  0  0  0  0  0
   -0.0340   -2.4893    1.7976 O   0  0  0  0  0  0  0  0  0  0  0  0
    0.2685   -0.4584    3.2699 O   0  0  0  0  0  0  0  0  0  0  0  0
   -0.6896   -0.1917    0.9661 N   0  0  0  0  0  0  0  0  0  0  0  0
   -1.1553   -0.7823   -0.2973 C   0  0  0  0  0  0  0  0  0  0  0  0
   -2.2502    0.1275   -0.8974 C   0  0  0  0  0  0  0  0  0  0  0  0
   -3.2695    0.5420    0.0921 N   0  0  0  0  0  0  0  0  0  0  0  0
   -4.0539    1.6886   -0.4328 C   0  0  0  0  0  0  0  0  0  0  0  0
   -5.4827    1.8059    0.1482 C   0  0  0  0  0  0  0  0  0  0  0  0
   -6.2651    0.6096   -0.2050 N   0  0  0  0  0  0  0  0  0  0  0  0
   -7.6525    0.5974   -0.0780 C   0  0  0  0  0  0  0  0  0  0  0  0
   -8.4145   -0.4166   -0.6901 C   0  0  0  0  0  0  0  0  0  0  0  0
   -9.8129   -0.4591   -0.6002 C   0  0  0  0  0  0  0  0  0  0  0  0
  -10.4967    0.5212    0.1082 C   0  0  0  0  0  0  0  0  0  0  0  0
   -9.7807    1.5440    0.7188 C   0  0  0  0  0  0  0  0  0  0  0  0
   -8.3874    1.5786    0.6194 C   0  0  0  0  0  0  0  0  0  0  0  0
   -7.7623    2.5853    1.2530 F   0  0  0  0  0  0  0  0  0  0  0  0
   -5.5184   -0.6612   -0.2552 C   0  0  0  0  0  0  0  0  0  0  0  0
   -4.1690   -0.5612    0.5020 C   0  0  0  0  0  0  0  0  0  0  0  0
    2.4595    0.4914    1.3545 C   0  0  0  0  0  0  0  0  0  0  0  0
    3.7358    0.7423    0.8384 C   0  0  0  0  0  0  0  0  0  0  0  0
    4.4406   -0.3075    0.2689 C   0  0  0  0  0  0  0  0  0  0  0  0
    7.9244   -0.0321   -1.9629 H   0  0  0  0  0  0  0  0  0  0  0  0
    9.0675    2.1452   -2.0873 H   0  0  0  0  0  0  0  0  0  0  0  0
    8.8587    2.4609   -0.3470 H   0  0  0  0  0  0  0  0  0  0  0  0
   10.9168    1.0653   -0.1200 H   0  0  0  0  0  0  0  0  0  0  0  0
   10.5575    0.1944   -1.6356 H   0  0  0  0  0  0  0  0  0  0  0  0
    9.1711   -1.2497   -0.1559 H   0  0  0  0  0  0  0  0  0  0  0  0
    8.9095    0.0739    1.0078 H   0  0  0  0  0  0  0  0  0  0  0  0
    6.8576   -2.0402    0.0650 H   0  0  0  0  0  0  0  0  0  0  0  0
    6.4800   -1.7610   -1.6466 H   0  0  0  0  0  0  0  0  0  0  0  0
    4.4105   -2.8429   -1.4447 H   0  0  0  0  0  0  0  0  0  0  0  0
    5.0010   -3.4400    0.1369 H   0  0  0  0  0  0  0  0  0  0  0  0
    2.1960   -2.8565    0.6452 H   0  0  0  0  0  0  0  0  0  0  0  0
   -1.3991    0.3497    1.4700 H   0  0  0  0  0  0  0  0  0  0  0  0
   -0.3193   -0.8722   -0.9971 H   0  0  0  0  0  0  0  0  0  0  0  0
   -1.5677   -1.7796   -0.1213 H   0  0  0  0  0  0  0  0  0  0  0  0
   -2.7117   -0.3625   -1.7631 H   0  0  0  0  0  0  0  0  0  0  0  0
   -1.7426    1.0277   -1.2690 H   0  0  0  0  0  0  0  0  0  0  0  0
   -3.5025    2.6114   -0.2179 H   0  0  0  0  0  0  0  0  0  0  0  0
   -4.1498    1.6121   -1.5249 H   0  0  0  0  0  0  0  0  0  0  0  0
   -5.9441    2.7020   -0.2836 H   0  0  0  0  0  0  0  0  0  0  0  0
   -5.4315    1.9263    1.2375 H   0  0  0  0  0  0  0  0  0  0  0  0
   -7.9239   -1.1867   -1.2807 H   0  0  0  0  0  0  0  0  0  0  0  0
  -10.3624   -1.2577   -1.0945 H   0  0  0  0  0  0  0  0  0  0  0  0
  -11.5799    0.4901    0.1813 H   0  0  0  0  0  0  0  0  0  0  0  0
  -10.2942    2.3182    1.2817 H   0  0  0  0  0  0  0  0  0  0  0  0
   -6.0908   -1.4751    0.2071 H   0  0  0  0  0  0  0  0  0  0  0  0
   -5.3353   -0.9292   -1.3028 H   0  0  0  0  0  0  0  0  0  0  0  0
   -4.3966   -0.3963    1.5648 H   0  0  0  0  0  0  0  0  0  0  0  0
   -3.6644   -1.5333    0.4673 H   0  0  0  0  0  0  0  0  0  0  0  0
    1.9017    1.3006    1.8233 H   0  0  0  0  0  0  0  0  0  0  0  0
    4.1531    1.7420    0.9103 H   0  0  0  0  0  0  0  0  0  0  0  0
  1  2  2  0
  2  3  1  0
  3  4  1  0
  4  5  1  0
  5  6  1  0
  2  7  1  0
  7  8  1  0
  8  9  1  0
  9 10  1  0
 10 11  2  0
 11 12  1  0
 12 13  1  0
 13 14  2  0
 13 15  2  0
 13 16  1  0
 16 17  1  0
 17 18  1  0
 18 19  1  0
 19 20  1  0
 20 21  1  0
 21 22  1  0
 22 23  1  0
 23 24  2  0
 24 25  1  0
 25 26  2  0
 26 27  1  0
 27 28  2  0
 28 29  1  0
 22 30  1  0
 30 31  1  0
 12 32  2  0
 32 33  1  0
 33 34  2  0
  6  3  1  0
 34  7  1  0
 34 10  1  0
 31 19  1  0
 28 23  1  0
  3 35  1  0
  4 36  1  0
  4 37  1  0
  5 38  1  0
  5 39  1  0
  6 40  1  0
  6 41  1  0
  8 42  1  0
  8 43  1  0
  9 44  1  0
  9 45  1  0
 11 46  1  0
 16 47  1  0
 17 48  1  0
 17 49  1  0
 18 50  1  0
 18 51  1  0
 20 52  1  0
 20 53  1  0
 21 54  1  0
 21 55  1  0
 24 56  1  0
 25 57  1  0
 26 58  1  0
 27 59  1  0
 30 60  1  0
 30 61  1  0
 31 62  1  0
 31 63  1  0
 32 64  1  0
 33 65  1  0
M  END
$$$$
