
     RDKit          3D

 29 29  0  0  0  0  0  0  0  0999 V2000
   -0.8950   -2.7002    1.6215 C   0  0  0  0  0  0  0  0  0  0  0  0
   -1.9830   -2.3676    1.2353 C   0  0  0  0  0  0  0  0  0  0  0  0
   -3.3194   -1.9756    0.7699 C   0  0  0  0  0  0  0  0  0  0  0  0
   -3.2827   -1.2501   -0.5026 N   0  0  0  0  0  0  0  0  0  0  0  0
   -2.6818    0.0812   -0.3888 C   0  0  0  0  0  0  0  0  0  0  0  0
   -1.3115    0.1109   -1.0626 C   0  0  0  0  0  0  0  0  0  0  0  0
   -0.6533    1.4791   -0.9019 C   0  0  0  0  0  0  0  0  0  0  0  0
    0.6192    1.5088   -1.5477 O   0  0  0  0  0  0  0  0  0  0  0  0
    1.7425    1.1818   -0.8363 C   0  0  0  0  0  0  0  0  0  0  0  0
    1.7395    0.5848    0.4288 C   0  0  0  0  0  0  0  0  0  0  0  0
    2.9444    0.2776    1.0706 C   0  0  0  0  0  0  0  0  0  0  0  0
    4.1580    0.5613    0.4494 C   0  0  0  0  0  0  0  0  0  0  0  0
    5.6338    0.1798    1.2464 Cl  0  0  0  0  0  0  0  0  0  0  0  0
    4.1831    1.1473   -0.8109 C   0  0  0  0  0  0  0  0  0  0  0  0
    2.9789    1.4529   -1.4503 C   0  0  0  0  0  0  0  0  0  0  0  0
    3.0637    2.1828   -3.0175 Cl  0  0  0  0  0  0  0  0  0  0  0  0
    0.0706   -3.0057    1.9522 H   0  0  0  0  0  0  0  0  0  0  0  0
   -3.8407   -1.3871    1.5340 H   0  0  0  0  0  0  0  0  0  0  0  0
   -3.9141   -2.8845    0.6213 H   0  0  0  0  0  0  0  0  0  0  0  0
   -4.2447   -1.1490   -0.8245 H   0  0  0  0  0  0  0  0  0  0  0  0
   -3.3362    0.7979   -0.9006 H   0  0  0  0  0  0  0  0  0  0  0  0
   -2.6168    0.4205    0.6524 H   0  0  0  0  0  0  0  0  0  0  0  0
   -0.6569   -0.6664   -0.6557 H   0  0  0  0  0  0  0  0  0  0  0  0
   -1.4076   -0.1186   -2.1318 H   0  0  0  0  0  0  0  0  0  0  0  0
   -1.2714    2.2294   -1.4092 H   0  0  0  0  0  0  0  0  0  0  0  0
   -0.5929    1.8024    0.1440 H   0  0  0  0  0  0  0  0  0  0  0  0
    0.8179    0.3293    0.9416 H   0  0  0  0  0  0  0  0  0  0  0  0
    2.9259   -0.1877    2.0532 H   0  0  0  0  0  0  0  0  0  0  0  0
    5.1307    1.3649   -1.2953 H   0  0  0  0  0  0  0  0  0  0  0  0
  1  2  3  0
  2  3  1  0
  3  4  1  0
  4  5  1  0
  5  6  1  0
  6  7  1  0
  7  8  1  0
  8  9  1  0
  9 10  2  0
 10 11  1  0
 11 12  2  0
 12 13  1  0
 12 14  1  0
 14 15  2  0
 15 16  1  0
 15  9  1  0
  1 17  1  0
  3 18  1  0
  3 19  1  0
  4 20  1  0
  5 21  1  0
  5 22  1  0
  6 23  1  0
  6 24  1  0
  7 25  1  0
  7 26  1  0
 10 27  1  0
 11 28  1  0
 14 29  1  0
M  END
$$$$
