
     RDKit          3D

 37 39  0  0  0  0  0  0  0  0999 V2000
    5.1912   -0.0782   -0.5137 N   0  0  0  0  0  0  0  0  0  0  0  0
    3.7906   -0.4312   -0.3256 C   0  0  0  0  0  0  0  0  0  0  0  0
    2.9016    0.4877   -1.1630 C   0  0  0  0  0  0  0  0  0  0  0  0
    1.4181    0.1095   -1.1053 C   0  0  0  0  0  0  0  0  0  0  0  0
    0.8039    0.2918    0.2916 C   0  0  0  0  0  0  0  0  0  0  0  0
   -0.6627    0.0820    0.2758 N   0  0  0  0  0  0  0  0  0  0  0  0
   -1.1356   -1.2307    0.5709 C   0  0  0  0  0  0  0  0  0  0  0  0
   -0.2942   -2.3659    0.5163 C   0  0  0  0  0  0  0  0  0  0  0  0
   -0.7520   -3.6607    0.7913 C   0  0  0  0  0  0  0  0  0  0  0  0
   -2.0777   -3.8684    1.1299 C   0  0  0  0  0  0  0  0  0  0  0  0
   -2.9382   -2.7790    1.1883 C   0  0  0  0  0  0  0  0  0  0  0  0
   -2.4823   -1.4746    0.9097 C   0  0  0  0  0  0  0  0  0  0  0  0
   -3.7055   -0.1950    1.0587 S   0  0  0  0  0  0  0  0  0  0  0  0
   -2.8635    1.2149    0.3827 C   0  0  0  0  0  0  0  0  0  0  0  0
   -3.6671    2.3559    0.1823 C   0  0  0  0  0  0  0  0  0  0  0  0
   -3.1272    3.5338   -0.3209 C   0  0  0  0  0  0  0  0  0  0  0  0
   -1.7782    3.5717   -0.6266 C   0  0  0  0  0  0  0  0  0  0  0  0
   -1.0873    5.0162   -1.2592 Cl  0  0  0  0  0  0  0  0  0  0  0  0
   -0.9722    2.4456   -0.4293 C   0  0  0  0  0  0  0  0  0  0  0  0
   -1.4838    1.2331    0.0875 C   0  0  0  0  0  0  0  0  0  0  0  0
    5.7766   -0.6697    0.0752 H   0  0  0  0  0  0  0  0  0  0  0  0
    5.3558    0.8806   -0.2093 H   0  0  0  0  0  0  0  0  0  0  0  0
    3.5451   -0.3476    0.7375 H   0  0  0  0  0  0  0  0  0  0  0  0
    3.6411   -1.4742   -0.6241 H   0  0  0  0  0  0  0  0  0  0  0  0
    3.2221    0.4437   -2.2121 H   0  0  0  0  0  0  0  0  0  0  0  0
    3.0257    1.5292   -0.8400 H   0  0  0  0  0  0  0  0  0  0  0  0
    1.2938   -0.9221   -1.4522 H   0  0  0  0  0  0  0  0  0  0  0  0
    0.8822    0.7275   -1.8350 H   0  0  0  0  0  0  0  0  0  0  0  0
    1.0533    1.2839    0.6900 H   0  0  0  0  0  0  0  0  0  0  0  0
    1.2824   -0.3766    1.0173 H   0  0  0  0  0  0  0  0  0  0  0  0
    0.7512   -2.2870    0.2388 H   0  0  0  0  0  0  0  0  0  0  0  0
   -0.0662   -4.5022    0.7326 H   0  0  0  0  0  0  0  0  0  0  0  0
   -2.4432   -4.8686    1.3445 H   0  0  0  0  0  0  0  0  0  0  0  0
   -3.9792   -2.9503    1.4559 H   0  0  0  0  0  0  0  0  0  0  0  0
   -4.7287    2.3284    0.4223 H   0  0  0  0  0  0  0  0  0  0  0  0
   -3.7601    4.4034   -0.4708 H   0  0  0  0  0  0  0  0  0  0  0  0
    0.0702    2.5430   -0.7123 H   0  0  0  0  0  0  0  0  0  0  0  0
  1  2  1  0
  2  3  1  0
  3  4  1  0
  4  5  1  0
  5  6  1  0
  6  7  1  0
  7  8  2  0
  8  9  1  0
  9 10  2  0
 10 11  1  0
 11 12  2  0
 12 13  1  0
 13 14  1  0
 14 15  2  0
 15 16  1  0
 16 17  2  0
 17 18  1  0
 17 19  1  0
 19 20  2  0
 20  6  1  0
 12  7  1  0
 20 14  1  0
  1 21  1  0
  1 22  1  0
  2 23  1  0
  2 24  1  0
  3 25  1  0
  3 26  1  0
  4 27  1  0
  4 28  1  0
  5 29  1  0
  5 30  1  0
  8 31  1  0
  9 32  1  0
 10 33  1  0
 11 34  1  0
 15 35  1  0
 16 36  1  0
 19 37  1  0
M  END
$$$$
