
     RDKit          3D

 52 56  0  0  0  0  0  0  0  0999 V2000
    3.3957   -2.3752   -0.7730 O   0  0  0  0  0  0  0  0  0  0  0  0
    2.5043   -2.1356    0.0386 C   0  0  0  0  0  0  0  0  0  0  0  0
    1.4896   -3.2062    0.4125 C   0  0  0  0  0  0  0  0  0  0  0  0
   -0.0513   -3.0198   -0.5310 S   0  0  0  0  0  0  0  0  0  0  0  0
   -0.9023   -1.8428    0.4179 C   0  0  0  0  0  0  0  0  0  0  0  0
   -0.3583   -1.1690    1.4069 N   0  0  0  0  0  0  0  0  0  0  0  0
   -1.3227   -0.3883    1.9682 N   0  0  0  0  0  0  0  0  0  0  0  0
   -2.4554   -0.6006    1.3222 C   0  0  0  0  0  0  0  0  0  0  0  0
   -3.7067    0.1946    1.5328 C   0  0  0  0  0  0  0  0  0  0  0  0
   -4.0114    1.1128    0.3787 C   0  0  0  0  0  0  0  0  0  0  0  0
   -3.1916    2.0649   -0.2023 C   0  0  0  0  0  0  0  0  0  0  0  0
   -3.8282    2.7453   -1.2813 C   0  0  0  0  0  0  0  0  0  0  0  0
   -5.1127    2.2917   -1.4894 C   0  0  0  0  0  0  0  0  0  0  0  0
   -5.5513    1.0706   -0.3765 S   0  0  0  0  0  0  0  0  0  0  0  0
   -2.2555   -1.5621    0.3353 N   0  0  0  0  0  0  0  0  0  0  0  0
   -3.2291   -2.1342   -0.5209 C   0  0  0  0  0  0  0  0  0  0  0  0
   -4.4326   -2.6110    0.0204 C   0  0  0  0  0  0  0  0  0  0  0  0
   -5.3888   -3.1919   -0.8151 C   0  0  0  0  0  0  0  0  0  0  0  0
   -5.1512   -3.2909   -2.1858 C   0  0  0  0  0  0  0  0  0  0  0  0
   -3.9555   -2.8133   -2.7261 C   0  0  0  0  0  0  0  0  0  0  0  0
   -2.9891   -2.2404   -1.8960 C   0  0  0  0  0  0  0  0  0  0  0  0
    2.3102   -0.9390    0.7061 N   0  0  0  0  0  0  0  0  0  0  0  0
    3.1038    0.2231    0.6552 C   0  0  0  0  0  0  0  0  0  0  0  0
    2.6105    1.3535    1.3240 C   0  0  0  0  0  0  0  0  0  0  0  0
    3.3374    2.5479    1.3393 C   0  0  0  0  0  0  0  0  0  0  0  0
    4.5696    2.6147    0.6968 C   0  0  0  0  0  0  0  0  0  0  0  0
    5.0814    1.4842    0.0528 C   0  0  0  0  0  0  0  0  0  0  0  0
    4.3415    0.2985    0.0119 C   0  0  0  0  0  0  0  0  0  0  0  0
    6.3120    1.4658   -0.5598 O   0  0  0  0  0  0  0  0  0  0  0  0
    7.1176    2.5730   -0.1405 C   0  0  0  0  0  0  0  0  0  0  0  0
    6.3129    3.8616   -0.1882 C   0  0  0  0  0  0  0  0  0  0  0  0
    5.2301    3.8160    0.7505 O   0  0  0  0  0  0  0  0  0  0  0  0
    1.3093   -3.2080    1.4927 H   0  0  0  0  0  0  0  0  0  0  0  0
    1.9254   -4.1813    0.1675 H   0  0  0  0  0  0  0  0  0  0  0  0
   -4.5498   -0.4628    1.7683 H   0  0  0  0  0  0  0  0  0  0  0  0
   -3.5722    0.8198    2.4264 H   0  0  0  0  0  0  0  0  0  0  0  0
   -2.1780    2.2606    0.1291 H   0  0  0  0  0  0  0  0  0  0  0  0
   -3.3669    3.5252   -1.8772 H   0  0  0  0  0  0  0  0  0  0  0  0
   -5.8201    2.6264   -2.2377 H   0  0  0  0  0  0  0  0  0  0  0  0
   -4.6281   -2.5899    1.0906 H   0  0  0  0  0  0  0  0  0  0  0  0
   -6.3136   -3.5826   -0.3928 H   0  0  0  0  0  0  0  0  0  0  0  0
   -5.8974   -3.7462   -2.8341 H   0  0  0  0  0  0  0  0  0  0  0  0
   -3.7765   -2.8884   -3.7964 H   0  0  0  0  0  0  0  0  0  0  0  0
   -2.0792   -1.8544   -2.3499 H   0  0  0  0  0  0  0  0  0  0  0  0
    1.4400   -0.8573    1.2360 H   0  0  0  0  0  0  0  0  0  0  0  0
    1.6537    1.3168    1.8426 H   0  0  0  0  0  0  0  0  0  0  0  0
    2.9424    3.4191    1.8534 H   0  0  0  0  0  0  0  0  0  0  0  0
    4.7712   -0.5535   -0.5033 H   0  0  0  0  0  0  0  0  0  0  0  0
    7.4924    2.3696    0.8720 H   0  0  0  0  0  0  0  0  0  0  0  0
    7.9777    2.6346   -0.8166 H   0  0  0  0  0  0  0  0  0  0  0  0
    6.9473    4.7131    0.0780 H   0  0  0  0  0  0  0  0  0  0  0  0
    5.8999    4.0416   -1.1895 H   0  0  0  0  0  0  0  0  0  0  0  0
  1  2  2  0
  2  3  1  0
  3  4  1  0
  4  5  1  0
  5  6  2  0
  6  7  1  0
  7  8  2  0
  8  9  1  0
  9 10  1  0
 10 11  2  0
 11 12  1  0
 12 13  2  0
 13 14  1  0
  8 15  1  0
 15 16  1  0
 16 17  2  0
 17 18  1  0
 18 19  2  0
 19 20  1  0
 20 21  2  0
  2 22  1  0
 22 23  1  0
 23 24  2  0
 24 25  1  0
 25 26  2  0
 26 27  1  0
 27 28  2  0
 27 29  1  0
 29 30  1  0
 30 31  1  0
 31 32  1  0
 15  5  1  0
 21 16  1  0
 28 23  1  0
 14 10  1  0
 32 26  1  0
  3 33  1  0
  3 34  1  0
  9 35  1  0
  9 36  1  0
 11 37  1  0
 12 38  1  0
 13 39  1  0
 17 40  1  0
 18 41  1  0
 19 42  1  0
 20 43  1  0
 21 44  1  0
 22 45  1  0
 24 46  1  0
 25 47  1  0
 28 48  1  0
 30 49  1  0
 30 50  1  0
 31 51  1  0
 31 52  1  0
M  END
$$$$
