
     RDKit          3D

 60 63  0  0  0  0  0  0  0  0999 V2000
    8.6533   -0.8167   -1.8552 C   0  0  0  0  0  0  0  0  0  0  0  0
    8.3881   -0.9567   -0.4646 O   0  0  0  0  0  0  0  0  0  0  0  0
    7.0940   -1.2182   -0.1052 C   0  0  0  0  0  0  0  0  0  0  0  0
    6.8540   -1.1988    1.2703 C   0  0  0  0  0  0  0  0  0  0  0  0
    5.5751   -1.4516    1.7755 C   0  0  0  0  0  0  0  0  0  0  0  0
    4.5151   -1.7450    0.9086 C   0  0  0  0  0  0  0  0  0  0  0  0
    3.1347   -1.9964    1.4607 C   0  0  0  0  0  0  0  0  0  0  0  0
    2.3316   -0.7998    1.4050 N   0  0  0  0  0  0  0  0  0  0  0  0
    2.2655    0.0921    2.4600 C   0  0  0  0  0  0  0  0  0  0  0  0
    2.8592   -0.0859    3.5203 O   0  0  0  0  0  0  0  0  0  0  0  0
    1.5454    1.4099    2.1153 C   0  0  0  0  0  0  0  0  0  0  0  0
    1.1607    2.2194    3.3499 C   0  0  0  0  0  0  0  0  0  0  0  0
    0.4285    1.1817    1.1818 N   0  0  0  0  0  0  0  0  0  0  0  0
    0.6648    1.5749   -0.1469 N   0  0  0  0  0  0  0  0  0  0  0  0
   -0.2604    1.4653   -1.0595 C   0  0  0  0  0  0  0  0  0  0  0  0
    0.0631    1.9037   -2.4618 C   0  0  0  0  0  0  0  0  0  0  0  0
   -1.5430    0.9141   -0.7016 C   0  0  0  0  0  0  0  0  0  0  0  0
   -2.7026    0.6341   -1.4055 C   0  0  0  0  0  0  0  0  0  0  0  0
   -2.9688    0.6896   -2.8658 C   0  0  0  0  0  0  0  0  0  0  0  0
   -3.6230    0.2008   -0.4445 N   0  0  0  0  0  0  0  0  0  0  0  0
   -5.0384    0.0179   -0.5292 C   0  0  0  0  0  0  0  0  0  0  0  0
   -5.8086    0.6141   -1.5346 C   0  0  0  0  0  0  0  0  0  0  0  0
   -7.1969    0.4316   -1.5627 C   0  0  0  0  0  0  0  0  0  0  0  0
   -7.8380   -0.3437   -0.5908 C   0  0  0  0  0  0  0  0  0  0  0  0
   -9.3309   -0.4946   -0.6030 C   0  0  0  0  0  0  0  0  0  0  0  0
   -7.0744   -0.9127    0.4317 C   0  0  0  0  0  0  0  0  0  0  0  0
   -5.6875   -0.7320    0.4653 C   0  0  0  0  0  0  0  0  0  0  0  0
   -3.0030   -0.0383    0.7433 N   0  0  0  0  0  0  0  0  0  0  0  0
   -1.7788    0.4742    0.6045 C   0  0  0  0  0  0  0  0  0  0  0  0
   -0.7562    0.5641    1.6395 C   0  0  0  0  0  0  0  0  0  0  0  0
   -0.9097    0.1378    2.7795 O   0  0  0  0  0  0  0  0  0  0  0  0
    4.7568   -1.7576   -0.4726 C   0  0  0  0  0  0  0  0  0  0  0  0
    6.0396   -1.4987   -0.9754 C   0  0  0  0  0  0  0  0  0  0  0  0
    8.4659   -1.7527   -2.3927 H   0  0  0  0  0  0  0  0  0  0  0  0
    8.0774    0.0092   -2.2864 H   0  0  0  0  0  0  0  0  0  0  0  0
    9.7133   -0.5769   -1.9663 H   0  0  0  0  0  0  0  0  0  0  0  0
    7.6673   -0.9775    1.9578 H   0  0  0  0  0  0  0  0  0  0  0  0
    5.4061   -1.4114    2.8519 H   0  0  0  0  0  0  0  0  0  0  0  0
    2.6260   -2.7693    0.8738 H   0  0  0  0  0  0  0  0  0  0  0  0
    3.1920   -2.3611    2.4922 H   0  0  0  0  0  0  0  0  0  0  0  0
    2.0260   -0.4599    0.4997 H   0  0  0  0  0  0  0  0  0  0  0  0
    2.2896    2.0075    1.5685 H   0  0  0  0  0  0  0  0  0  0  0  0
    2.0565    2.5575    3.8802 H   0  0  0  0  0  0  0  0  0  0  0  0
    0.5820    3.1035    3.0669 H   0  0  0  0  0  0  0  0  0  0  0  0
    0.5718    1.6393    4.0653 H   0  0  0  0  0  0  0  0  0  0  0  0
   -0.7423    2.5275   -2.8639 H   0  0  0  0  0  0  0  0  0  0  0  0
    0.9884    2.4864   -2.4735 H   0  0  0  0  0  0  0  0  0  0  0  0
    0.1926    1.0169   -3.0925 H   0  0  0  0  0  0  0  0  0  0  0  0
   -3.2816    1.6943   -3.1677 H   0  0  0  0  0  0  0  0  0  0  0  0
   -2.0686    0.4295   -3.4326 H   0  0  0  0  0  0  0  0  0  0  0  0
   -3.7245   -0.0383   -3.1755 H   0  0  0  0  0  0  0  0  0  0  0  0
   -5.3816    1.2737   -2.2811 H   0  0  0  0  0  0  0  0  0  0  0  0
   -7.7791    0.9173   -2.3429 H   0  0  0  0  0  0  0  0  0  0  0  0
   -9.7098   -0.5330   -1.6267 H   0  0  0  0  0  0  0  0  0  0  0  0
   -9.6353   -1.4204   -0.1119 H   0  0  0  0  0  0  0  0  0  0  0  0
   -9.7952    0.3470   -0.0865 H   0  0  0  0  0  0  0  0  0  0  0  0
   -7.5509   -1.4975    1.2160 H   0  0  0  0  0  0  0  0  0  0  0  0
   -5.1240   -1.1883    1.2781 H   0  0  0  0  0  0  0  0  0  0  0  0
    3.9484   -1.9723   -1.1693 H   0  0  0  0  0  0  0  0  0  0  0  0
    6.1804   -1.5295   -2.0502 H   0  0  0  0  0  0  0  0  0  0  0  0
  1  2  1  0
  2  3  1  0
  3  4  2  0
  4  5  1  0
  5  6  2  0
  6  7  1  0
  7  8  1  0
  8  9  1  0
  9 10  2  0
  9 11  1  0
 11 12  1  0
 11 13  1  0
 13 14  1  0
 14 15  2  0
 15 16  1  0
 15 17  1  0
 17 18  2  0
 18 19  1  0
 18 20  1  0
 20 21  1  0
 21 22  2  0
 22 23  1  0
 23 24  2  0
 24 25  1  0
 24 26  1  0
 26 27  2  0
 20 28  1  0
 28 29  2  0
 29 30  1  0
 30 31  2  0
  6 32  1  0
 32 33  2  0
 33  3  1  0
 30 13  1  0
 29 17  1  0
 27 21  1  0
  1 34  1  0
  1 35  1  0
  1 36  1  0
  4 37  1  0
  5 38  1  0
  7 39  1  0
  7 40  1  0
  8 41  1  0
 11 42  1  0
 12 43  1  0
 12 44  1  0
 12 45  1  0
 16 46  1  0
 16 47  1  0
 16 48  1  0
 19 49  1  0
 19 50  1  0
 19 51  1  0
 22 52  1  0
 23 53  1  0
 25 54  1  0
 25 55  1  0
 25 56  1  0
 26 57  1  0
 27 58  1  0
 32 59  1  0
 33 60  1  0
M  END
$$$$
