
     RDKit          3D

 52 54  0  0  0  0  0  0  0  0999 V2000
   -4.6004    0.9634    1.4168 C   0  0  0  0  0  0  0  0  0  0  0  0
   -3.7457   -0.1252    0.9605 N   0  0  0  0  0  0  0  0  0  0  0  0
   -4.3303   -1.4690    0.9696 C   0  0  0  0  0  0  0  0  0  0  0  0
   -5.5072   -1.6110    0.0341 C   0  0  0  0  0  0  0  0  0  0  0  0
   -5.3191   -1.6805   -1.3547 C   0  0  0  0  0  0  0  0  0  0  0  0
   -6.4143   -1.8050   -2.2121 C   0  0  0  0  0  0  0  0  0  0  0  0
   -7.7073   -1.8595   -1.6930 C   0  0  0  0  0  0  0  0  0  0  0  0
   -7.9078   -1.7890   -0.3166 C   0  0  0  0  0  0  0  0  0  0  0  0
   -6.8148   -1.6638    0.5437 C   0  0  0  0  0  0  0  0  0  0  0  0
   -2.4869    0.1932    0.4587 C   0  0  0  0  0  0  0  0  0  0  0  0
   -2.0745    1.3562    0.4187 O   0  0  0  0  0  0  0  0  0  0  0  0
   -1.6052   -0.9591   -0.0295 C   0  0  0  0  0  0  0  0  0  0  0  0
   -0.3657   -0.4404   -0.5186 O   0  0  0  0  0  0  0  0  0  0  0  0
    0.5143   -1.3848   -0.9493 C   0  0  0  0  0  0  0  0  0  0  0  0
    0.3163   -2.5913   -0.8946 O   0  0  0  0  0  0  0  0  0  0  0  0
    1.8014   -0.7443   -1.4328 C   0  0  0  0  0  0  0  0  0  0  0  0
    1.5834    0.6369   -1.8866 N   0  0  0  0  0  0  0  0  0  0  0  0
    2.8676    1.5127   -2.4920 S   0  0  0  0  0  6  0  0  0  0  0  0
    3.5082    0.7036   -3.5050 O   0  0  0  0  0  0  0  0  0  0  0  0
    2.3816    2.8454   -2.7673 O   0  0  0  0  0  0  0  0  0  0  0  0
    3.9566    1.6158   -1.0940 C   0  0  0  0  0  0  0  0  0  0  0  0
    3.6297    2.4689   -0.0385 C   0  0  0  0  0  0  0  0  0  0  0  0
    4.4801    2.5495    1.0652 C   0  0  0  0  0  0  0  0  0  0  0  0
    5.6608    1.7884    1.1192 C   0  0  0  0  0  0  0  0  0  0  0  0
    6.5250    1.8585    2.2236 C   0  0  0  0  0  0  0  0  0  0  0  0
    7.6974    1.1007    2.2616 C   0  0  0  0  0  0  0  0  0  0  0  0
    8.0221    0.2648    1.1968 C   0  0  0  0  0  0  0  0  0  0  0  0
    7.1750    0.1829    0.0905 C   0  0  0  0  0  0  0  0  0  0  0  0
    5.9915    0.9363    0.0370 C   0  0  0  0  0  0  0  0  0  0  0  0
    5.1328    0.8606   -1.0693 C   0  0  0  0  0  0  0  0  0  0  0  0
   -5.3319    1.1924    0.6353 H   0  0  0  0  0  0  0  0  0  0  0  0
   -5.1191    0.6585    2.3318 H   0  0  0  0  0  0  0  0  0  0  0  0
   -4.0261    1.8690    1.6310 H   0  0  0  0  0  0  0  0  0  0  0  0
   -4.6346   -1.6805    2.0021 H   0  0  0  0  0  0  0  0  0  0  0  0
   -3.5903   -2.2339    0.7202 H   0  0  0  0  0  0  0  0  0  0  0  0
   -4.3221   -1.6343   -1.7827 H   0  0  0  0  0  0  0  0  0  0  0  0
   -6.2597   -1.8542   -3.2863 H   0  0  0  0  0  0  0  0  0  0  0  0
   -8.5587   -1.9548   -2.3625 H   0  0  0  0  0  0  0  0  0  0  0  0
   -8.9167   -1.8265    0.0885 H   0  0  0  0  0  0  0  0  0  0  0  0
   -6.9938   -1.6023    1.6153 H   0  0  0  0  0  0  0  0  0  0  0  0
   -1.4094   -1.6283    0.8155 H   0  0  0  0  0  0  0  0  0  0  0  0
   -2.1162   -1.4791   -0.8450 H   0  0  0  0  0  0  0  0  0  0  0  0
    2.4984   -0.7629   -0.5905 H   0  0  0  0  0  0  0  0  0  0  0  0
    2.1884   -1.3448   -2.2615 H   0  0  0  0  0  0  0  0  0  0  0  0
    0.8629    1.1833   -1.4058 H   0  0  0  0  0  0  0  0  0  0  0  0
    2.7258    3.0739   -0.0700 H   0  0  0  0  0  0  0  0  0  0  0  0
    4.2184    3.2169    1.8843 H   0  0  0  0  0  0  0  0  0  0  0  0
    6.2926    2.5085    3.0649 H   0  0  0  0  0  0  0  0  0  0  0  0
    8.3584    1.1667    3.1225 H   0  0  0  0  0  0  0  0  0  0  0  0
    8.9368   -0.3233    1.2240 H   0  0  0  0  0  0  0  0  0  0  0  0
    7.4494   -0.4741   -0.7330 H   0  0  0  0  0  0  0  0  0  0  0  0
    5.3830    0.2148   -1.9095 H   0  0  0  0  0  0  0  0  0  0  0  0
  1  2  1  0
  2  3  1  0
  3  4  1  0
  4  5  2  0
  5  6  1  0
  6  7  2  0
  7  8  1  0
  8  9  2  0
  2 10  1  0
 10 11  2  0
 10 12  1  0
 12 13  1  0
 13 14  1  0
 14 15  2  0
 14 16  1  0
 16 17  1  0
 17 18  1  0
 18 19  2  0
 18 20  2  0
 18 21  1  0
 21 22  2  0
 22 23  1  0
 23 24  2  0
 24 25  1  0
 25 26  2  0
 26 27  1  0
 27 28  2  0
 28 29  1  0
 29 30  2  0
  9  4  1  0
 30 21  1  0
 29 24  1  0
  1 31  1  0
  1 32  1  0
  1 33  1  0
  3 34  1  0
  3 35  1  0
  5 36  1  0
  6 37  1  0
  7 38  1  0
  8 39  1  0
  9 40  1  0
 12 41  1  0
 12 42  1  0
 16 43  1  0
 16 44  1  0
 17 45  1  0
 22 46  1  0
 23 47  1  0
 25 48  1  0
 26 49  1  0
 27 50  1  0
 28 51  1  0
 30 52  1  0
M  END
$$$$
