
     RDKit          3D

 83 86  0  0  0  0  0  0  0  0999 V2000
   -4.0178   -7.7353    2.0008 C   0  0  0  0  0  0  0  0  0  0  0  0
   -4.7349   -6.5207    2.1892 O   0  0  0  0  0  0  0  0  0  0  0  0
   -4.0838   -5.3740    1.8238 C   0  0  0  0  0  0  0  0  0  0  0  0
   -2.7174   -5.2572    1.5778 C   0  0  0  0  0  0  0  0  0  0  0  0
   -2.1770   -4.0202    1.2020 C   0  0  0  0  0  0  0  0  0  0  0  0
   -2.9859   -2.8872    1.0618 C   0  0  0  0  0  0  0  0  0  0  0  0
   -2.3553   -1.6948    0.6515 N   0  0  0  0  0  0  0  0  0  0  0  0
   -2.9565   -0.5299    0.2054 C   0  0  0  0  0  0  0  0  0  0  0  0
   -4.1642   -0.3327    0.1458 O   0  0  0  0  0  0  0  0  0  0  0  0
   -1.9939    0.3805   -0.1994 N   0  0  0  0  0  0  0  0  0  0  0  0
   -2.1752    1.5646   -0.9495 C   0  0  0  0  0  0  0  0  0  0  0  0
   -3.3803    1.8910   -1.5794 C   0  0  0  0  0  0  0  0  0  0  0  0
   -3.4746    3.0268   -2.3869 C   0  0  0  0  0  0  0  0  0  0  0  0
   -2.3655    3.8477   -2.5673 C   0  0  0  0  0  0  0  0  0  0  0  0
   -1.1632    3.5449   -1.9175 C   0  0  0  0  0  0  0  0  0  0  0  0
   -1.0609    2.4125   -1.1035 C   0  0  0  0  0  0  0  0  0  0  0  0
    0.1020    1.9711   -0.5513 O   0  0  0  0  0  0  0  0  0  0  0  0
    0.8253    2.7352    0.4330 C   0  0  0  0  0  0  0  0  0  0  0  0
    1.3623    1.6653    1.4217 C   0  0  0  0  0  0  0  0  0  0  0  0
    2.1703    0.6186    0.7758 N   0  0  0  0  0  0  0  0  0  0  0  0
    3.5056    1.0059    0.3377 C   0  0  0  0  0  0  0  0  0  0  0  0
    1.5966   -0.6319    0.5528 C   0  0  0  0  0  0  0  0  0  0  0  0
    0.4541   -0.9071    0.9248 O   0  0  0  0  0  0  0  0  0  0  0  0
    2.4143   -1.5166   -0.1105 N   0  0  0  0  0  0  0  0  0  0  0  0
    2.3559   -2.9206   -0.0427 C   0  0  0  0  0  0  0  0  0  0  0  0
    1.6982   -3.5976    0.9850 C   0  0  0  0  0  0  0  0  0  0  0  0
    1.7363   -4.9940    1.0439 C   0  0  0  0  0  0  0  0  0  0  0  0
    2.4389   -5.7314    0.0893 C   0  0  0  0  0  0  0  0  0  0  0  0
    2.4073   -7.0846    0.2730 O   0  0  0  0  0  0  0  0  0  0  0  0
    3.2696   -7.8638   -0.5480 C   0  0  0  0  0  0  0  0  0  0  0  0
    3.0948   -5.0566   -0.9392 C   0  0  0  0  0  0  0  0  0  0  0  0
    3.0621   -3.6570   -0.9999 C   0  0  0  0  0  0  0  0  0  0  0  0
    0.0625    3.8757    1.1761 C   0  0  0  0  0  0  0  0  0  0  0  0
    0.8464    4.4211    2.3835 C   0  0  0  0  0  0  0  0  0  0  0  0
   -0.3228    5.0777    0.2853 C   0  0  0  0  0  0  0  0  0  0  0  0
    0.4171    5.1662   -0.9746 N   0  0  0  0  0  0  0  0  0  0  0  0
    1.5327    6.1403   -1.0673 C   0  0  0  0  0  0  0  0  0  0  0  0
    2.8437    5.4909   -1.5256 C   0  0  0  0  0  0  0  0  0  0  0  0
    1.1710    7.3776   -1.9228 C   0  0  0  0  0  0  0  0  0  0  0  0
    1.3253    7.1603   -3.3240 O   0  0  0  0  0  0  0  0  0  0  0  0
   -0.0466    4.4897   -2.1053 C   0  0  0  0  0  0  0  0  0  0  0  0
    0.3622    4.6966   -3.2438 O   0  0  0  0  0  0  0  0  0  0  0  0
   -4.3499   -3.0039    1.3313 C   0  0  0  0  0  0  0  0  0  0  0  0
   -4.8904   -4.2396    1.7127 C   0  0  0  0  0  0  0  0  0  0  0  0
   -3.6705   -7.8303    0.9633 H   0  0  0  0  0  0  0  0  0  0  0  0
   -3.1827   -7.8159    2.7063 H   0  0  0  0  0  0  0  0  0  0  0  0
   -4.7059   -8.5616    2.2016 H   0  0  0  0  0  0  0  0  0  0  0  0
   -2.0397   -6.1000    1.6685 H   0  0  0  0  0  0  0  0  0  0  0  0
   -1.1152   -3.9612    0.9900 H   0  0  0  0  0  0  0  0  0  0  0  0
   -1.3408   -1.7182    0.5657 H   0  0  0  0  0  0  0  0  0  0  0  0
   -1.0458    0.2041    0.1277 H   0  0  0  0  0  0  0  0  0  0  0  0
   -4.2567    1.2536   -1.4926 H   0  0  0  0  0  0  0  0  0  0  0  0
   -4.4117    3.2552   -2.8845 H   0  0  0  0  0  0  0  0  0  0  0  0
   -2.4365    4.7235   -3.2080 H   0  0  0  0  0  0  0  0  0  0  0  0
    1.6937    3.1570   -0.0811 H   0  0  0  0  0  0  0  0  0  0  0  0
    0.5115    1.2043    1.9352 H   0  0  0  0  0  0  0  0  0  0  0  0
    2.0021    2.1062    2.1907 H   0  0  0  0  0  0  0  0  0  0  0  0
    4.1889    0.1523    0.3330 H   0  0  0  0  0  0  0  0  0  0  0  0
    3.4339    1.4183   -0.6740 H   0  0  0  0  0  0  0  0  0  0  0  0
    3.9133    1.7676    1.0112 H   0  0  0  0  0  0  0  0  0  0  0  0
    2.9751   -1.1218   -0.8503 H   0  0  0  0  0  0  0  0  0  0  0  0
    1.1756   -3.0601    1.7724 H   0  0  0  0  0  0  0  0  0  0  0  0
    1.2277   -5.5105    1.8552 H   0  0  0  0  0  0  0  0  0  0  0  0
    2.9284   -7.8510   -1.5857 H   0  0  0  0  0  0  0  0  0  0  0  0
    4.3087   -7.5277   -0.4708 H   0  0  0  0  0  0  0  0  0  0  0  0
    3.2261   -8.8972   -0.1923 H   0  0  0  0  0  0  0  0  0  0  0  0
    3.6418   -5.5910   -1.7114 H   0  0  0  0  0  0  0  0  0  0  0  0
    3.5998   -3.1624   -1.8058 H   0  0  0  0  0  0  0  0  0  0  0  0
   -0.8760    3.4635    1.5748 H   0  0  0  0  0  0  0  0  0  0  0  0
    1.8597    4.7293    2.0976 H   0  0  0  0  0  0  0  0  0  0  0  0
    0.9156    3.6717    3.1778 H   0  0  0  0  0  0  0  0  0  0  0  0
    0.3409    5.2825    2.8322 H   0  0  0  0  0  0  0  0  0  0  0  0
   -1.3994    5.0245    0.0694 H   0  0  0  0  0  0  0  0  0  0  0  0
   -0.2204    6.0340    0.8153 H   0  0  0  0  0  0  0  0  0  0  0  0
    1.7048    6.5045   -0.0465 H   0  0  0  0  0  0  0  0  0  0  0  0
    3.1702    4.7088   -0.8257 H   0  0  0  0  0  0  0  0  0  0  0  0
    2.7599    5.0256   -2.5185 H   0  0  0  0  0  0  0  0  0  0  0  0
    3.6447    6.2434   -1.5808 H   0  0  0  0  0  0  0  0  0  0  0  0
    1.8352    8.2068   -1.6540 H   0  0  0  0  0  0  0  0  0  0  0  0
    0.1382    7.6982   -1.7316 H   0  0  0  0  0  0  0  0  0  0  0  0
    0.8424    6.3330   -3.5323 H   0  0  0  0  0  0  0  0  0  0  0  0
   -5.0194   -2.1495    1.2601 H   0  0  0  0  0  0  0  0  0  0  0  0
   -5.9562   -4.3131    1.9187 H   0  0  0  0  0  0  0  0  0  0  0  0
  1  2  1  0
  2  3  1  0
  3  4  2  0
  4  5  1  0
  5  6  2  0
  6  7  1  0
  7  8  1  0
  8  9  2  0
  8 10  1  0
 10 11  1  0
 11 12  2  0
 12 13  1  0
 13 14  2  0
 14 15  1  0
 15 16  2  0
 16 17  1  0
 17 18  1  0
 18 19  1  0
 19 20  1  0
 20 21  1  0
 20 22  1  0
 22 23  2  0
 22 24  1  0
 24 25  1  0
 25 26  2  0
 26 27  1  0
 27 28  2  0
 28 29  1  0
 29 30  1  0
 28 31  1  0
 31 32  2  0
 18 33  1  0
 33 34  1  0
 33 35  1  0
 35 36  1  0
 36 37  1  0
 37 38  1  0
 37 39  1  0
 39 40  1  0
 36 41  1  0
 41 42  2  0
  6 43  1  0
 43 44  2  0
 44  3  1  0
 16 11  1  0
 32 25  1  0
 41 15  1  0
  1 45  1  0
  1 46  1  0
  1 47  1  0
  4 48  1  0
  5 49  1  0
  7 50  1  0
 10 51  1  0
 12 52  1  0
 13 53  1  0
 14 54  1  0
 18 55  1  0
 19 56  1  0
 19 57  1  0
 21 58  1  0
 21 59  1  0
 21 60  1  0
 24 61  1  0
 26 62  1  0
 27 63  1  0
 30 64  1  0
 30 65  1  0
 30 66  1  0
 31 67  1  0
 32 68  1  0
 33 69  1  0
 34 70  1  0
 34 71  1  0
 34 72  1  0
 35 73  1  0
 35 74  1  0
 37 75  1  0
 38 76  1  0
 38 77  1  0
 38 78  1  0
 39 79  1  0
 39 80  1  0
 40 81  1  0
 43 82  1  0
 44 83  1  0
M  END
$$$$
