
     RDKit          3D

 51 55  0  0  0  0  0  0  0  0999 V2000
   -2.5384   -2.4194    0.4907 C   0  0  0  0  0  0  0  0  0  0  0  0
   -2.2024   -0.9527    0.6032 C   0  0  0  0  0  0  0  0  0  0  0  0
   -1.0215   -0.5752   -0.0193 N   0  0  0  0  0  0  0  0  0  0  0  0
   -0.5837    0.7023   -0.0213 C   0  0  0  0  0  0  0  0  0  0  0  0
    0.5125    1.3343   -0.5677 C   0  0  0  0  0  0  0  0  0  0  0  0
    1.5462    0.6932   -1.3600 C   0  0  0  0  0  0  0  0  0  0  0  0
    1.4930   -0.4993   -1.6498 O   0  0  0  0  0  0  0  0  0  0  0  0
    2.5829    1.5104   -1.7513 N   0  0  0  0  0  0  0  0  0  0  0  0
    3.7439    0.9860   -2.4328 C   0  0  0  0  0  0  0  0  0  0  0  0
    4.8922    0.8215   -1.4701 C   0  0  0  0  0  0  0  0  0  0  0  0
    5.8779    1.8288   -1.3505 C   0  0  0  0  0  0  0  0  0  0  0  0
    6.9331    1.6978   -0.4416 C   0  0  0  0  0  0  0  0  0  0  0  0
    6.9740    0.5603    0.3344 C   0  0  0  0  0  0  0  0  0  0  0  0
    6.0174   -0.4212    0.2314 C   0  0  0  0  0  0  0  0  0  0  0  0
    4.9662   -0.3211   -0.6551 C   0  0  0  0  0  0  0  0  0  0  0  0
    6.2396   -1.4542    1.0872 O   0  0  0  0  0  0  0  0  0  0  0  0
    7.4472   -1.0106    1.7398 C   0  0  0  0  0  0  0  0  0  0  0  0
    7.9195    0.2682    1.2668 O   0  0  0  0  0  0  0  0  0  0  0  0
    0.3398    2.6792   -0.1607 C   0  0  0  0  0  0  0  0  0  0  0  0
   -0.7537    2.8808    0.5805 N   0  0  0  0  0  0  0  0  0  0  0  0
   -1.3272    1.6474    0.6479 N   0  0  0  0  0  0  0  0  0  0  0  0
   -2.5214    1.3815    1.3379 C   0  0  0  0  0  0  0  0  0  0  0  0
   -3.1024    2.2620    1.9610 O   0  0  0  0  0  0  0  0  0  0  0  0
   -2.9813   -0.0540    1.2578 C   0  0  0  0  0  0  0  0  0  0  0  0
   -4.2961   -0.3388    1.9415 C   0  0  0  0  0  0  0  0  0  0  0  0
   -5.4284   -0.7123    1.0094 C   0  0  0  0  0  0  0  0  0  0  0  0
   -6.1941   -1.8642    1.2505 C   0  0  0  0  0  0  0  0  0  0  0  0
   -7.2555   -2.2035    0.4065 C   0  0  0  0  0  0  0  0  0  0  0  0
   -7.5733   -1.3923   -0.6819 C   0  0  0  0  0  0  0  0  0  0  0  0
   -6.8320   -0.2383   -0.9236 C   0  0  0  0  0  0  0  0  0  0  0  0
   -5.7756    0.0949   -0.0797 C   0  0  0  0  0  0  0  0  0  0  0  0
   -5.0861    1.2150   -0.3360 F   0  0  0  0  0  0  0  0  0  0  0  0
   -3.3158   -2.7401    1.1875 H   0  0  0  0  0  0  0  0  0  0  0  0
   -1.6537   -3.0278    0.7106 H   0  0  0  0  0  0  0  0  0  0  0  0
   -2.8694   -2.6519   -0.5267 H   0  0  0  0  0  0  0  0  0  0  0  0
   -0.5012   -1.2966   -0.5270 H   0  0  0  0  0  0  0  0  0  0  0  0
    2.6591    2.4409   -1.3713 H   0  0  0  0  0  0  0  0  0  0  0  0
    4.0070    1.6997   -3.2213 H   0  0  0  0  0  0  0  0  0  0  0  0
    3.5184    0.0322   -2.9227 H   0  0  0  0  0  0  0  0  0  0  0  0
    5.8264    2.7219   -1.9704 H   0  0  0  0  0  0  0  0  0  0  0  0
    7.6941    2.4642   -0.3470 H   0  0  0  0  0  0  0  0  0  0  0  0
    4.2181   -1.1064   -0.7129 H   0  0  0  0  0  0  0  0  0  0  0  0
    7.2570   -0.9373    2.8168 H   0  0  0  0  0  0  0  0  0  0  0  0
    8.2314   -1.7578    1.5715 H   0  0  0  0  0  0  0  0  0  0  0  0
    0.9675    3.5355   -0.3698 H   0  0  0  0  0  0  0  0  0  0  0  0
   -4.1326   -1.1415    2.6729 H   0  0  0  0  0  0  0  0  0  0  0  0
   -4.6379    0.5121    2.5428 H   0  0  0  0  0  0  0  0  0  0  0  0
   -5.9708   -2.5074    2.0993 H   0  0  0  0  0  0  0  0  0  0  0  0
   -7.8387   -3.1004    0.6023 H   0  0  0  0  0  0  0  0  0  0  0  0
   -8.4006   -1.6553   -1.3360 H   0  0  0  0  0  0  0  0  0  0  0  0
   -7.0708    0.4093   -1.7614 H   0  0  0  0  0  0  0  0  0  0  0  0
  1  2  1  0
  2  3  1  0
  3  4  1  0
  4  5  2  0
  5  6  1  0
  6  7  2  0
  6  8  1  0
  8  9  1  0
  9 10  1  0
 10 11  2  0
 11 12  1  0
 12 13  2  0
 13 14  1  0
 14 15  2  0
 14 16  1  0
 16 17  1  0
 17 18  1  0
  5 19  1  0
 19 20  2  0
 20 21  1  0
 21 22  1  0
 22 23  2  0
 22 24  1  0
 24 25  1  0
 25 26  1  0
 26 27  2  0
 27 28  1  0
 28 29  2  0
 29 30  1  0
 30 31  2  0
 31 32  1  0
 24  2  2  0
 31 26  1  0
 21  4  1  0
 15 10  1  0
 18 13  1  0
  1 33  1  0
  1 34  1  0
  1 35  1  0
  3 36  1  0
  8 37  1  0
  9 38  1  0
  9 39  1  0
 11 40  1  0
 12 41  1  0
 15 42  1  0
 17 43  1  0
 17 44  1  0
 19 45  1  0
 25 46  1  0
 25 47  1  0
 27 48  1  0
 28 49  1  0
 29 50  1  0
 30 51  1  0
M  END
$$$$
