
     RDKit          3D

 41 42  0  0  0  0  0  0  0  0999 V2000
   -4.4845    1.2988    0.1849 C   0  0  0  0  0  0  0  0  0  0  0  0
   -3.9212    0.2332    1.1186 C   0  0  0  0  0  0  0  0  0  0  0  0
   -2.7816   -0.4907    0.5192 N   0  0  0  0  0  0  0  0  0  0  0  0
   -3.1387   -1.4923   -0.4999 C   0  0  0  0  0  0  0  0  0  0  0  0
   -2.1987   -2.6905   -0.4514 C   0  0  0  0  0  0  0  0  0  0  0  0
   -1.6004    0.2531    0.3910 C   0  0  0  0  0  0  0  0  0  0  0  0
   -1.0060    0.8237    1.5306 C   0  0  0  0  0  0  0  0  0  0  0  0
    0.1655    1.5881    1.4534 C   0  0  0  0  0  0  0  0  0  0  0  0
    0.7894    1.7970    0.2240 C   0  0  0  0  0  0  0  0  0  0  0  0
    1.9874    2.6387    0.1623 C   0  0  0  0  0  0  0  0  0  0  0  0
    3.1280    2.3699   -0.4921 C   0  0  0  0  0  0  0  0  0  0  0  0
    3.3850    1.1261   -1.2572 C   0  0  0  0  0  0  0  0  0  0  0  0
    3.5130    1.1847   -2.4797 O   0  0  0  0  0  0  0  0  0  0  0  0
    3.5434   -0.1522   -0.5234 C   0  0  0  0  0  0  0  0  0  0  0  0
    3.7812   -0.2289    0.8525 C   0  0  0  0  0  0  0  0  0  0  0  0
    4.0048   -1.4701    1.4414 C   0  0  0  0  0  0  0  0  0  0  0  0
    3.9884   -2.5936    0.6322 C   0  0  0  0  0  0  0  0  0  0  0  0
    3.7458   -2.5593   -0.6959 N   0  0  0  0  0  0  0  0  0  0  0  0
    3.5268   -1.3384   -1.2438 C   0  0  0  0  0  0  0  0  0  0  0  0
    0.2118    1.2422   -0.9219 C   0  0  0  0  0  0  0  0  0  0  0  0
   -0.9563    0.4730   -0.8341 C   0  0  0  0  0  0  0  0  0  0  0  0
   -3.7432    2.0777   -0.0257 H   0  0  0  0  0  0  0  0  0  0  0  0
   -4.7988    0.8668   -0.7708 H   0  0  0  0  0  0  0  0  0  0  0  0
   -5.3555    1.7803    0.6435 H   0  0  0  0  0  0  0  0  0  0  0  0
   -4.7168   -0.4837    1.3621 H   0  0  0  0  0  0  0  0  0  0  0  0
   -3.6464    0.6912    2.0755 H   0  0  0  0  0  0  0  0  0  0  0  0
   -4.1496   -1.8754   -0.2994 H   0  0  0  0  0  0  0  0  0  0  0  0
   -3.1817   -1.0562   -1.5061 H   0  0  0  0  0  0  0  0  0  0  0  0
   -2.5140   -3.4438   -1.1820 H   0  0  0  0  0  0  0  0  0  0  0  0
   -1.1649   -2.4124   -0.6789 H   0  0  0  0  0  0  0  0  0  0  0  0
   -2.2100   -3.1546    0.5413 H   0  0  0  0  0  0  0  0  0  0  0  0
   -1.4468    0.6536    2.5108 H   0  0  0  0  0  0  0  0  0  0  0  0
    0.5806    2.0036    2.3687 H   0  0  0  0  0  0  0  0  0  0  0  0
    1.9070    3.5843    0.6954 H   0  0  0  0  0  0  0  0  0  0  0  0
    3.9276    3.0996   -0.5322 H   0  0  0  0  0  0  0  0  0  0  0  0
    3.8156    0.6577    1.4744 H   0  0  0  0  0  0  0  0  0  0  0  0
    4.1919   -1.5600    2.5046 H   0  0  0  0  0  0  0  0  0  0  0  0
    4.1880   -3.5807    1.0420 H   0  0  0  0  0  0  0  0  0  0  0  0
    3.3439   -1.3463   -2.3179 H   0  0  0  0  0  0  0  0  0  0  0  0
    0.6512    1.4082   -1.9041 H   0  0  0  0  0  0  0  0  0  0  0  0
   -1.3612    0.0774   -1.7604 H   0  0  0  0  0  0  0  0  0  0  0  0
  1  2  1  0
  2  3  1  0
  3  4  1  0
  4  5  1  0
  3  6  1  0
  6  7  2  0
  7  8  1  0
  8  9  2  0
  9 10  1  0
 10 11  2  3
 11 12  1  0
 12 13  2  0
 12 14  1  0
 14 15  2  0
 15 16  1  0
 16 17  2  0
 17 18  1  0
 18 19  2  0
  9 20  1  0
 20 21  2  0
 21  6  1  0
 19 14  1  0
  1 22  1  0
  1 23  1  0
  1 24  1  0
  2 25  1  0
  2 26  1  0
  4 27  1  0
  4 28  1  0
  5 29  1  0
  5 30  1  0
  5 31  1  0
  7 32  1  0
  8 33  1  0
 10 34  1  0
 11 35  1  0
 15 36  1  0
 16 37  1  0
 17 38  1  0
 19 39  1  0
 20 40  1  0
 21 41  1  0
M  END
$$$$
