
     RDKit          3D

 62 65  0  0  0  0  0  0  0  0999 V2000
   -3.7171   -2.1535    2.9641 C   0  0  0  0  0  0  0  0  0  0  0  0
   -3.6655   -0.6336    2.9227 C   0  0  0  0  0  0  0  0  0  0  0  0
   -3.5334   -0.1524    1.5516 N   0  0  0  0  0  0  0  0  0  0  0  0
   -2.3590    0.0226    0.7932 C   0  0  0  0  0  0  0  0  0  0  0  0
   -1.1085   -0.1471    1.2727 C   0  0  0  0  0  0  0  0  0  0  0  0
    0.1520    0.0186    0.5816 C   0  0  0  0  0  0  0  0  0  0  0  0
    1.3292   -0.1901    1.1886 C   0  0  0  0  0  0  0  0  0  0  0  0
    2.6139   -0.0545    0.4689 C   0  0  0  0  0  0  0  0  0  0  0  0
    3.0453    0.9812   -0.1922 N   0  0  0  0  0  4  0  0  0  0  0  0
    2.4421    2.3190   -0.3708 C   0  0  0  0  0  0  0  0  0  0  0  0
    1.8731    2.4652   -1.7712 C   0  0  0  0  0  0  0  0  0  0  0  0
    4.3964    0.6975   -0.7158 C   0  0  0  0  0  0  0  0  0  0  0  0
    5.2373    1.5184   -1.4464 C   0  0  0  0  0  0  0  0  0  0  0  0
    6.4801    1.0015   -1.8218 C   0  0  0  0  0  0  0  0  0  0  0  0
    6.8520   -0.3040   -1.4619 C   0  0  0  0  0  0  0  0  0  0  0  0
    5.9909   -1.1149   -0.7193 C   0  0  0  0  0  0  0  0  0  0  0  0
    4.7611   -0.5947   -0.3507 C   0  0  0  0  0  0  0  0  0  0  0  0
    3.6488   -1.2105    0.4515 C   0  0  0  0  0  0  0  0  0  0  0  0
    3.0689   -2.4398   -0.2534 C   0  0  0  0  0  0  0  0  0  0  0  0
    4.1175   -1.5529    1.8686 C   0  0  0  0  0  0  0  0  0  0  0  0
   -2.7807    0.4341   -0.6598 C   0  0  0  0  0  0  0  0  0  0  0  0
   -2.3414   -0.5908   -1.7181 C   0  0  0  0  0  0  0  0  0  0  0  0
   -2.3299    1.8580   -1.0184 C   0  0  0  0  0  0  0  0  0  0  0  0
   -4.3013    0.4075   -0.5512 C   0  0  0  0  0  0  0  0  0  0  0  0
   -5.2528    0.6695   -1.5318 C   0  0  0  0  0  0  0  0  0  0  0  0
   -6.6004    0.5643   -1.1925 C   0  0  0  0  0  0  0  0  0  0  0  0
   -6.9765    0.2022    0.1076 C   0  0  0  0  0  0  0  0  0  0  0  0
   -6.0097   -0.0570    1.0865 C   0  0  0  0  0  0  0  0  0  0  0  0
   -4.6677    0.0485    0.7559 C   0  0  0  0  0  0  0  0  0  0  0  0
   -3.7964   -2.5017    3.9984 H   0  0  0  0  0  0  0  0  0  0  0  0
   -4.5791   -2.5388    2.4097 H   0  0  0  0  0  0  0  0  0  0  0  0
   -2.8151   -2.5930    2.5261 H   0  0  0  0  0  0  0  0  0  0  0  0
   -4.5533   -0.2154    3.4106 H   0  0  0  0  0  0  0  0  0  0  0  0
   -2.8239   -0.2839    3.5316 H   0  0  0  0  0  0  0  0  0  0  0  0
   -1.0151   -0.4456    2.3156 H   0  0  0  0  0  0  0  0  0  0  0  0
    0.1143    0.3040   -0.4611 H   0  0  0  0  0  0  0  0  0  0  0  0
    1.3806   -0.5423    2.2160 H   0  0  0  0  0  0  0  0  0  0  0  0
    1.6530    2.4495    0.3758 H   0  0  0  0  0  0  0  0  0  0  0  0
    3.2057    3.0773   -0.1659 H   0  0  0  0  0  0  0  0  0  0  0  0
    1.3686    3.4318   -1.8699 H   0  0  0  0  0  0  0  0  0  0  0  0
    1.1455    1.6812   -2.0025 H   0  0  0  0  0  0  0  0  0  0  0  0
    2.6538    2.4212   -2.5372 H   0  0  0  0  0  0  0  0  0  0  0  0
    4.9767    2.5305   -1.7351 H   0  0  0  0  0  0  0  0  0  0  0  0
    7.1738    1.6125   -2.3991 H   0  0  0  0  0  0  0  0  0  0  0  0
    7.8267   -0.6863   -1.7647 H   0  0  0  0  0  0  0  0  0  0  0  0
    6.2927   -2.1221   -0.4430 H   0  0  0  0  0  0  0  0  0  0  0  0
    3.8198   -3.2298   -0.3627 H   0  0  0  0  0  0  0  0  0  0  0  0
    2.2251   -2.8590    0.3067 H   0  0  0  0  0  0  0  0  0  0  0  0
    2.7010   -2.1914   -1.2559 H   0  0  0  0  0  0  0  0  0  0  0  0
    3.3096   -1.9953    2.4615 H   0  0  0  0  0  0  0  0  0  0  0  0
    4.9462   -2.2706    1.8553 H   0  0  0  0  0  0  0  0  0  0  0  0
    4.4613   -0.6597    2.4036 H   0  0  0  0  0  0  0  0  0  0  0  0
   -2.6581   -1.6059   -1.4485 H   0  0  0  0  0  0  0  0  0  0  0  0
   -2.7776   -0.3647   -2.6986 H   0  0  0  0  0  0  0  0  0  0  0  0
   -1.2573   -0.6107   -1.8558 H   0  0  0  0  0  0  0  0  0  0  0  0
   -1.2430    1.9393   -1.0993 H   0  0  0  0  0  0  0  0  0  0  0  0
   -2.7460    2.1781   -1.9815 H   0  0  0  0  0  0  0  0  0  0  0  0
   -2.6582    2.5851   -0.2654 H   0  0  0  0  0  0  0  0  0  0  0  0
   -4.9646    0.9467   -2.5407 H   0  0  0  0  0  0  0  0  0  0  0  0
   -7.3660    0.7616   -1.9396 H   0  0  0  0  0  0  0  0  0  0  0  0
   -8.0320    0.1216    0.3583 H   0  0  0  0  0  0  0  0  0  0  0  0
   -6.3337   -0.3363    2.0828 H   0  0  0  0  0  0  0  0  0  0  0  0
  1  2  1  0
  2  3  1  0
  3  4  1  0
  4  5  2  3
  5  6  1  0
  6  7  2  3
  7  8  1  0
  8  9  2  0
  9 10  1  0
 10 11  1  0
  9 12  1  0
 12 13  2  0
 13 14  1  0
 14 15  2  0
 15 16  1  0
 16 17  2  0
 17 18  1  0
 18 19  1  0
 18 20  1  0
  4 21  1  0
 21 22  1  0
 21 23  1  0
 21 24  1  0
 24 25  2  0
 25 26  1  0
 26 27  2  0
 27 28  1  0
 28 29  2  0
 29  3  1  0
 18  8  1  0
 29 24  1  0
 17 12  1  0
  1 30  1  0
  1 31  1  0
  1 32  1  0
  2 33  1  0
  2 34  1  0
  5 35  1  0
  6 36  1  0
  7 37  1  0
 10 38  1  0
 10 39  1  0
 11 40  1  0
 11 41  1  0
 11 42  1  0
 13 43  1  0
 14 44  1  0
 15 45  1  0
 16 46  1  0
 19 47  1  0
 19 48  1  0
 19 49  1  0
 20 50  1  0
 20 51  1  0
 20 52  1  0
 22 53  1  0
 22 54  1  0
 22 55  1  0
 23 56  1  0
 23 57  1  0
 23 58  1  0
 25 59  1  0
 26 60  1  0
 27 61  1  0
 28 62  1  0
M  CHG  1   9   1
M  END
$$$$
