
     RDKit          3D

 43 43  0  0  0  0  0  0  0  0999 V2000
   -4.2318   -1.6848    3.6544 C   0  0  0  0  0  0  0  0  0  0  0  0
   -3.9714   -0.4702    2.8153 C   0  0  0  0  0  0  0  0  0  0  0  0
   -3.3092    0.8678    3.6898 Cl  0  0  0  0  0  0  0  0  0  0  0  0
   -4.2126   -0.4066    1.4948 C   0  0  0  0  0  0  0  0  0  0  0  0
   -4.0343    0.7783    0.5960 C   0  0  0  0  0  0  0  0  0  0  0  0
   -2.8203    0.7194   -0.3465 N   0  0  0  0  0  4  0  0  0  0  0  0
   -2.8946   -0.5039   -1.2508 C   0  0  0  0  0  0  0  0  0  0  0  0
   -2.8472    1.9781   -1.2166 C   0  0  0  0  0  0  0  0  0  0  0  0
   -1.5002    0.7003    0.5105 C   0  0  0  0  0  0  0  0  0  0  0  0
   -0.1745    0.7110   -0.2492 C   0  0  0  0  0  0  0  0  0  0  0  0
   -0.0629    0.6523   -1.4653 O   0  0  0  0  0  0  0  0  0  0  0  0
    0.8571    0.7832    0.6352 O   0  0  0  0  0  0  0  0  0  0  0  0
    2.1799    0.8263    0.0621 C   0  0  0  0  0  0  0  0  0  0  0  0
    2.6798   -0.5861   -0.2359 C   0  0  0  0  0  0  0  0  0  0  0  0
    4.0747   -0.5792   -0.7991 C   0  0  0  0  0  0  0  0  0  0  0  0
    4.2818   -0.4192   -2.1761 C   0  0  0  0  0  0  0  0  0  0  0  0
    5.5762   -0.3910   -2.6969 C   0  0  0  0  0  0  0  0  0  0  0  0
    6.6734   -0.5185   -1.8476 C   0  0  0  0  0  0  0  0  0  0  0  0
    6.4780   -0.6736   -0.4767 C   0  0  0  0  0  0  0  0  0  0  0  0
    5.1847   -0.7021    0.0471 C   0  0  0  0  0  0  0  0  0  0  0  0
   -4.9513   -1.4567    4.4478 H   0  0  0  0  0  0  0  0  0  0  0  0
   -3.3043   -2.0396    4.1159 H   0  0  0  0  0  0  0  0  0  0  0  0
   -4.6427   -2.5086    3.0612 H   0  0  0  0  0  0  0  0  0  0  0  0
   -4.6465   -1.2857    1.0204 H   0  0  0  0  0  0  0  0  0  0  0  0
   -3.9530    1.7180    1.1533 H   0  0  0  0  0  0  0  0  0  0  0  0
   -4.9241    0.8676   -0.0404 H   0  0  0  0  0  0  0  0  0  0  0  0
   -2.7126   -1.3984   -0.6491 H   0  0  0  0  0  0  0  0  0  0  0  0
   -3.8926   -0.5388   -1.6984 H   0  0  0  0  0  0  0  0  0  0  0  0
   -2.1458   -0.4224   -2.0410 H   0  0  0  0  0  0  0  0  0  0  0  0
   -2.7224    2.8492   -0.5669 H   0  0  0  0  0  0  0  0  0  0  0  0
   -2.0458    1.9330   -1.9558 H   0  0  0  0  0  0  0  0  0  0  0  0
   -3.8136    2.0195   -1.7286 H   0  0  0  0  0  0  0  0  0  0  0  0
   -1.5434    1.5885    1.1497 H   0  0  0  0  0  0  0  0  0  0  0  0
   -1.5317   -0.2133    1.1116 H   0  0  0  0  0  0  0  0  0  0  0  0
    2.1914    1.4658   -0.8295 H   0  0  0  0  0  0  0  0  0  0  0  0
    2.8270    1.3104    0.8025 H   0  0  0  0  0  0  0  0  0  0  0  0
    2.0018   -1.0945   -0.9328 H   0  0  0  0  0  0  0  0  0  0  0  0
    2.6427   -1.1921    0.6787 H   0  0  0  0  0  0  0  0  0  0  0  0
    3.4379   -0.3173   -2.8548 H   0  0  0  0  0  0  0  0  0  0  0  0
    5.7310   -0.2706   -3.7663 H   0  0  0  0  0  0  0  0  0  0  0  0
    7.6816   -0.4981   -2.2542 H   0  0  0  0  0  0  0  0  0  0  0  0
    7.3356   -0.7736    0.1843 H   0  0  0  0  0  0  0  0  0  0  0  0
    5.0542   -0.8238    1.1201 H   0  0  0  0  0  0  0  0  0  0  0  0
  1  2  1  0
  2  3  1  0
  2  4  2  3
  4  5  1  0
  5  6  1  0
  6  7  1  0
  6  8  1  0
  6  9  1  0
  9 10  1  0
 10 11  2  0
 10 12  1  0
 12 13  1  0
 13 14  1  0
 14 15  1  0
 15 16  2  0
 16 17  1  0
 17 18  2  0
 18 19  1  0
 19 20  2  0
 20 15  1  0
  1 21  1  0
  1 22  1  0
  1 23  1  0
  4 24  1  0
  5 25  1  0
  5 26  1  0
  7 27  1  0
  7 28  1  0
  7 29  1  0
  8 30  1  0
  8 31  1  0
  8 32  1  0
  9 33  1  0
  9 34  1  0
 13 35  1  0
 13 36  1  0
 14 37  1  0
 14 38  1  0
 16 39  1  0
 17 40  1  0
 18 41  1  0
 19 42  1  0
 20 43  1  0
M  CHG  1   6   1
M  END
$$$$
