
     RDKit          3D

 59 64  0  0  0  0  0  0  0  0999 V2000
    4.2433   -1.9540    1.1771 O   0  0  0  0  0  0  0  0  0  0  0  0
    3.5962   -0.9767    0.8106 C   0  0  0  0  0  0  0  0  0  0  0  0
    4.2839    0.2988    0.4876 C   0  0  0  0  0  0  0  0  0  0  0  0
    5.5404    0.2732    0.0216 C   0  0  0  0  0  0  0  0  0  0  0  0
    6.2629    1.4635   -0.2876 C   0  0  0  0  0  0  0  0  0  0  0  0
    5.9310    2.8013   -0.1388 C   0  0  0  0  0  0  0  0  0  0  0  0
    6.9536    3.6897   -0.5859 C   0  0  0  0  0  0  0  0  0  0  0  0
    8.0483    3.0117   -1.0652 C   0  0  0  0  0  0  0  0  0  0  0  0
    7.8436    1.3200   -0.9712 S   0  0  0  0  0  0  0  0  0  0  0  0
    2.2050   -0.9647    0.7133 N   0  0  0  0  0  0  0  0  0  0  0  0
    1.5030   -0.1600   -0.2848 C   0  0  0  0  0  0  0  0  0  0  0  0
    0.0599    0.1249    0.1245 C   0  0  0  0  0  0  0  0  0  0  0  0
   -0.7314   -1.1677    0.4520 C   0  0  0  0  0  0  0  0  0  0  0  0
    0.0825   -1.9215    1.5398 C   0  0  0  0  0  0  0  0  0  0  0  0
    1.5206   -2.1904    1.1051 C   0  0  0  0  0  0  0  0  0  0  0  0
   -0.7577   -1.9343   -0.7773 O   0  0  0  0  0  0  0  0  0  0  0  0
   -1.5844   -3.0235   -0.7844 C   0  0  0  0  0  0  0  0  0  0  0  0
   -1.3388   -3.9749   -1.7755 C   0  0  0  0  0  0  0  0  0  0  0  0
   -2.1211   -5.1295   -1.8401 C   0  0  0  0  0  0  0  0  0  0  0  0
   -3.1434   -5.3219   -0.9167 C   0  0  0  0  0  0  0  0  0  0  0  0
   -3.8884   -6.4323   -0.9831 F   0  0  0  0  0  0  0  0  0  0  0  0
   -3.4111   -4.3759    0.0648 C   0  0  0  0  0  0  0  0  0  0  0  0
   -2.6307   -3.2183    0.1188 C   0  0  0  0  0  0  0  0  0  0  0  0
   -2.9140   -2.1726    1.1209 C   0  0  0  0  0  0  0  0  0  0  0  0
   -3.7259   -2.3924    2.0128 O   0  0  0  0  0  0  0  0  0  0  0  0
   -2.1834   -0.8507    0.9141 C   0  0  0  0  0  0  0  0  0  0  0  0
   -3.0160   -0.0102   -0.0490 C   0  0  0  0  0  0  0  0  0  0  0  0
   -2.9505    1.2988    0.6562 C   0  0  0  0  0  0  0  0  0  0  0  0
   -3.4007    2.5598    0.0217 C   0  0  0  0  0  0  0  0  0  0  0  0
   -3.8921    2.5892   -1.2886 C   0  0  0  0  0  0  0  0  0  0  0  0
   -4.3124    3.7972   -1.8518 C   0  0  0  0  0  0  0  0  0  0  0  0
   -4.2445    4.9771   -1.1112 C   0  0  0  0  0  0  0  0  0  0  0  0
   -3.7562    4.9534    0.1934 C   0  0  0  0  0  0  0  0  0  0  0  0
   -3.3349    3.7488    0.7595 C   0  0  0  0  0  0  0  0  0  0  0  0
   -2.4785    1.2410    1.8602 N   0  0  0  0  0  0  0  0  0  0  0  0
   -2.1756   -0.1117    2.1390 O   0  0  0  0  0  0  0  0  0  0  0  0
    3.7469    1.2136    0.6897 H   0  0  0  0  0  0  0  0  0  0  0  0
    6.0322   -0.6860   -0.1339 H   0  0  0  0  0  0  0  0  0  0  0  0
    4.9914    3.1460    0.2748 H   0  0  0  0  0  0  0  0  0  0  0  0
    6.8872    4.7697   -0.5547 H   0  0  0  0  0  0  0  0  0  0  0  0
    8.9637    3.4278   -1.4636 H   0  0  0  0  0  0  0  0  0  0  0  0
    2.0119    0.7903   -0.4633 H   0  0  0  0  0  0  0  0  0  0  0  0
    1.5404   -0.7121   -1.2324 H   0  0  0  0  0  0  0  0  0  0  0  0
   -0.4102    0.6678   -0.7030 H   0  0  0  0  0  0  0  0  0  0  0  0
    0.0751    0.7901    0.9962 H   0  0  0  0  0  0  0  0  0  0  0  0
   -0.3736   -2.8858    1.7878 H   0  0  0  0  0  0  0  0  0  0  0  0
    0.0991   -1.3303    2.4644 H   0  0  0  0  0  0  0  0  0  0  0  0
    1.5560   -2.8837    0.2558 H   0  0  0  0  0  0  0  0  0  0  0  0
    2.0569   -2.6677    1.9336 H   0  0  0  0  0  0  0  0  0  0  0  0
   -0.5342   -3.8258   -2.4906 H   0  0  0  0  0  0  0  0  0  0  0  0
   -1.9367   -5.8824   -2.6010 H   0  0  0  0  0  0  0  0  0  0  0  0
   -4.2213   -4.5450    0.7681 H   0  0  0  0  0  0  0  0  0  0  0  0
   -4.0639   -0.3220   -0.1008 H   0  0  0  0  0  0  0  0  0  0  0  0
   -2.6026    0.0307   -1.0589 H   0  0  0  0  0  0  0  0  0  0  0  0
   -3.9627    1.6901   -1.8935 H   0  0  0  0  0  0  0  0  0  0  0  0
   -4.6957    3.8206   -2.8699 H   0  0  0  0  0  0  0  0  0  0  0  0
   -4.5747    5.9146   -1.5520 H   0  0  0  0  0  0  0  0  0  0  0  0
   -3.7060    5.8697    0.7735 H   0  0  0  0  0  0  0  0  0  0  0  0
   -2.9616    3.7450    1.7819 H   0  0  0  0  0  0  0  0  0  0  0  0
  1  2  2  0
  2  3  1  0
  3  4  2  3
  4  5  1  0
  5  6  2  0
  6  7  1  0
  7  8  2  0
  8  9  1  0
  2 10  1  0
 10 11  1  0
 11 12  1  0
 12 13  1  0
 13 14  1  0
 14 15  1  0
 13 16  1  0
 16 17  1  0
 17 18  2  0
 18 19  1  0
 19 20  2  0
 20 21  1  0
 20 22  1  0
 22 23  2  0
 23 24  1  0
 24 25  2  0
 24 26  1  0
 26 27  1  0
 27 28  1  0
 28 29  1  0
 29 30  2  0
 30 31  1  0
 31 32  2  0
 32 33  1  0
 33 34  2  0
 28 35  2  0
 35 36  1  0
  9  5  1  0
 15 10  1  0
 23 17  1  0
 36 26  1  0
 26 13  1  0
 34 29  1  0
  3 37  1  0
  4 38  1  0
  6 39  1  0
  7 40  1  0
  8 41  1  0
 11 42  1  0
 11 43  1  0
 12 44  1  0
 12 45  1  0
 14 46  1  0
 14 47  1  0
 15 48  1  0
 15 49  1  0
 18 50  1  0
 19 51  1  0
 22 52  1  0
 27 53  1  0
 27 54  1  0
 30 55  1  0
 31 56  1  0
 32 57  1  0
 33 58  1  0
 34 59  1  0
M  END
$$$$
