
     RDKit          3D

 57 59  0  0  0  0  0  0  0  0999 V2000
   10.5709    0.0171    1.6482 C   0  0  0  0  0  0  0  0  0  0  0  0
    9.9992    0.7626    0.5797 O   0  0  0  0  0  0  0  0  0  0  0  0
    8.6363    0.7366    0.4738 C   0  0  0  0  0  0  0  0  0  0  0  0
    8.1243    1.4003   -0.6425 C   0  0  0  0  0  0  0  0  0  0  0  0
    6.7454    1.4551   -0.8781 C   0  0  0  0  0  0  0  0  0  0  0  0
    5.8618    0.8490    0.0103 C   0  0  0  0  0  0  0  0  0  0  0  0
    4.5000    0.8209   -0.0833 O   0  0  0  0  0  0  0  0  0  0  0  0
    3.8711    1.3823   -1.2391 C   0  0  0  0  0  0  0  0  0  0  0  0
    3.8500    0.3978   -2.4107 C   0  0  0  0  0  0  0  0  0  0  0  0
    2.7464   -1.0262   -2.1155 S   0  0  0  0  0  0  0  0  0  0  0  0
    1.1968   -0.2639   -2.2276 C   0  0  0  0  0  0  0  0  0  0  0  0
    0.9561    0.9132   -2.7572 N   0  0  0  0  0  0  0  0  0  0  0  0
   -0.3795    1.1818   -2.6036 N   0  0  0  0  0  0  0  0  0  0  0  0
   -0.9303    0.1524   -1.9900 C   0  0  0  0  0  0  0  0  0  0  0  0
   -2.3569    0.0488   -1.5886 C   0  0  0  0  0  0  0  0  0  0  0  0
   -2.5974    0.7761   -0.2701 C   0  0  0  0  0  0  0  0  0  0  0  0
   -3.9578    0.6045    0.2161 N   0  0  0  0  0  0  0  0  0  0  0  0
   -4.3505   -0.5716    0.8220 C   0  0  0  0  0  0  0  0  0  0  0  0
   -3.5874   -1.5151    0.9943 O   0  0  0  0  0  0  0  0  0  0  0  0
   -5.7817   -0.6699    1.2252 C   0  0  0  0  0  0  0  0  0  0  0  0
   -6.3549   -1.9430    1.3286 C   0  0  0  0  0  0  0  0  0  0  0  0
   -7.6963   -2.0779    1.6920 C   0  0  0  0  0  0  0  0  0  0  0  0
   -8.4791   -0.9490    1.9639 C   0  0  0  0  0  0  0  0  0  0  0  0
   -9.7743   -1.2213    2.3053 O   0  0  0  0  0  0  0  0  0  0  0  0
  -10.6407   -0.1053    2.4828 C   0  0  0  0  0  0  0  0  0  0  0  0
   -7.9021    0.3208    1.8817 C   0  0  0  0  0  0  0  0  0  0  0  0
   -6.5570    0.4617    1.5186 C   0  0  0  0  0  0  0  0  0  0  0  0
    0.0359   -0.8006   -1.7517 N   0  0  0  0  0  0  0  0  0  0  0  0
   -0.1802   -2.0848   -1.1329 C   0  0  0  0  0  0  0  0  0  0  0  0
    6.3746    0.1886    1.1303 C   0  0  0  0  0  0  0  0  0  0  0  0
    7.7532    0.1278    1.3635 C   0  0  0  0  0  0  0  0  0  0  0  0
   10.3273   -1.0462    1.5593 H   0  0  0  0  0  0  0  0  0  0  0  0
   10.2569    0.4138    2.6216 H   0  0  0  0  0  0  0  0  0  0  0  0
   11.6603    0.1188    1.5832 H   0  0  0  0  0  0  0  0  0  0  0  0
    8.8075    1.8796   -1.3408 H   0  0  0  0  0  0  0  0  0  0  0  0
    6.4091    1.9820   -1.7625 H   0  0  0  0  0  0  0  0  0  0  0  0
    4.3374    2.3305   -1.5259 H   0  0  0  0  0  0  0  0  0  0  0  0
    2.8527    1.6519   -0.9413 H   0  0  0  0  0  0  0  0  0  0  0  0
    3.5470    0.9078   -3.3310 H   0  0  0  0  0  0  0  0  0  0  0  0
    4.8488   -0.0167   -2.5771 H   0  0  0  0  0  0  0  0  0  0  0  0
   -2.6718   -0.9956   -1.5197 H   0  0  0  0  0  0  0  0  0  0  0  0
   -2.9836    0.4950   -2.3667 H   0  0  0  0  0  0  0  0  0  0  0  0
   -1.9100    0.4121    0.5016 H   0  0  0  0  0  0  0  0  0  0  0  0
   -2.4251    1.8500   -0.3854 H   0  0  0  0  0  0  0  0  0  0  0  0
   -4.6529    1.2687   -0.0907 H   0  0  0  0  0  0  0  0  0  0  0  0
   -5.7613   -2.8354    1.1235 H   0  0  0  0  0  0  0  0  0  0  0  0
   -8.1354   -3.0716    1.7675 H   0  0  0  0  0  0  0  0  0  0  0  0
  -10.6973    0.5004    1.5708 H   0  0  0  0  0  0  0  0  0  0  0  0
  -10.3324    0.5025    3.3435 H   0  0  0  0  0  0  0  0  0  0  0  0
  -11.6416   -0.4917    2.6901 H   0  0  0  0  0  0  0  0  0  0  0  0
   -8.4688    1.2218    2.1063 H   0  0  0  0  0  0  0  0  0  0  0  0
   -6.1281    1.4606    1.4974 H   0  0  0  0  0  0  0  0  0  0  0  0
   -0.4291   -1.9220   -0.0801 H   0  0  0  0  0  0  0  0  0  0  0  0
   -1.0012   -2.5882   -1.6451 H   0  0  0  0  0  0  0  0  0  0  0  0
    0.7083   -2.7140   -1.2045 H   0  0  0  0  0  0  0  0  0  0  0  0
    5.6908   -0.2871    1.8331 H   0  0  0  0  0  0  0  0  0  0  0  0
    8.0967   -0.3957    2.2485 H   0  0  0  0  0  0  0  0  0  0  0  0
  1  2  1  0
  2  3  1  0
  3  4  2  0
  4  5  1  0
  5  6  2  0
  6  7  1  0
  7  8  1  0
  8  9  1  0
  9 10  1  0
 10 11  1  0
 11 12  2  0
 12 13  1  0
 13 14  2  0
 14 15  1  0
 15 16  1  0
 16 17  1  0
 17 18  1  0
 18 19  2  0
 18 20  1  0
 20 21  2  0
 21 22  1  0
 22 23  2  0
 23 24  1  0
 24 25  1  0
 23 26  1  0
 26 27  2  0
 14 28  1  0
 28 29  1  0
  6 30  1  0
 30 31  2  0
 31  3  1  0
 28 11  1  0
 27 20  1  0
  1 32  1  0
  1 33  1  0
  1 34  1  0
  4 35  1  0
  5 36  1  0
  8 37  1  0
  8 38  1  0
  9 39  1  0
  9 40  1  0
 15 41  1  0
 15 42  1  0
 16 43  1  0
 16 44  1  0
 17 45  1  0
 21 46  1  0
 22 47  1  0
 25 48  1  0
 25 49  1  0
 25 50  1  0
 26 51  1  0
 27 52  1  0
 29 53  1  0
 29 54  1  0
 29 55  1  0
 30 56  1  0
 31 57  1  0
M  END
$$$$
