
     RDKit          3D

 53 55  0  0  0  0  0  0  0  0999 V2000
    5.6982    0.9250    4.3736 C   0  0  0  0  0  0  0  0  0  0  0  0
    4.3735    1.1458    3.9061 O   0  0  0  0  0  0  0  0  0  0  0  0
    4.1940    1.2022    2.5519 C   0  0  0  0  0  0  0  0  0  0  0  0
    2.8835    1.4803    2.1496 C   0  0  0  0  0  0  0  0  0  0  0  0
    2.5549    1.5675    0.7956 C   0  0  0  0  0  0  0  0  0  0  0  0
    3.5445    1.3487   -0.1650 C   0  0  0  0  0  0  0  0  0  0  0  0
    3.1437    1.4834   -1.8952 S   0  0  0  0  0  6  0  0  0  0  0  0
    4.3676    1.8130   -2.5959 O   0  0  0  0  0  0  0  0  0  0  0  0
    1.9737    2.3252   -2.0098 O   0  0  0  0  0  0  0  0  0  0  0  0
    2.7126   -0.0742   -2.3415 N   0  0  0  0  0  0  0  0  0  0  0  0
    3.7332   -1.1268   -2.3999 C   0  0  0  0  0  0  0  0  0  0  0  0
    3.1200   -2.2541   -1.5983 C   0  0  0  0  0  0  0  0  0  0  0  0
    1.7133   -2.0889   -1.7946 O   0  0  0  0  0  0  0  0  0  0  0  0
    1.4936   -0.6609   -1.7659 C   0  0  0  0  0  0  0  0  0  0  0  0
    0.2402   -0.3286   -2.5981 C   0  0  0  0  0  0  0  0  0  0  0  0
   -0.9798   -0.9131   -2.0658 N   0  0  0  0  0  0  0  0  0  0  0  0
   -1.5005   -0.5344   -0.8515 C   0  0  0  0  0  0  0  0  0  0  0  0
   -1.0488    0.3384   -0.1229 O   0  0  0  0  0  0  0  0  0  0  0  0
   -2.7486   -1.3417   -0.4266 C   0  0  0  0  0  0  0  0  0  0  0  0
   -3.1728   -2.2384   -1.1420 O   0  0  0  0  0  0  0  0  0  0  0  0
   -3.2786   -0.9382    0.7751 N   0  0  0  0  0  0  0  0  0  0  0  0
   -4.5284   -1.4473    1.2775 C   0  0  0  0  0  0  0  0  0  0  0  0
   -5.6818   -0.5740    0.8557 C   0  0  0  0  0  0  0  0  0  0  0  0
   -6.4004   -0.9124   -0.3054 C   0  0  0  0  0  0  0  0  0  0  0  0
   -7.4654   -0.1245   -0.7454 C   0  0  0  0  0  0  0  0  0  0  0  0
   -7.8247    1.0189   -0.0377 C   0  0  0  0  0  0  0  0  0  0  0  0
   -7.1139    1.3781    1.1068 C   0  0  0  0  0  0  0  0  0  0  0  0
   -6.0458    0.5908    1.5492 C   0  0  0  0  0  0  0  0  0  0  0  0
   -5.1951    1.1150    2.9592 Cl  0  0  0  0  0  0  0  0  0  0  0  0
    4.8631    1.0968    0.2249 C   0  0  0  0  0  0  0  0  0  0  0  0
    5.1839    1.0159    1.5843 C   0  0  0  0  0  0  0  0  0  0  0  0
    5.6717    0.9283    5.4675 H   0  0  0  0  0  0  0  0  0  0  0  0
    6.0712   -0.0531    4.0525 H   0  0  0  0  0  0  0  0  0  0  0  0
    6.3694    1.7291    4.0541 H   0  0  0  0  0  0  0  0  0  0  0  0
    2.1122    1.6404    2.9005 H   0  0  0  0  0  0  0  0  0  0  0  0
    1.5316    1.8038    0.5075 H   0  0  0  0  0  0  0  0  0  0  0  0
    4.7118   -0.8404   -2.0107 H   0  0  0  0  0  0  0  0  0  0  0  0
    3.8530   -1.4193   -3.4488 H   0  0  0  0  0  0  0  0  0  0  0  0
    3.4378   -3.2424   -1.9405 H   0  0  0  0  0  0  0  0  0  0  0  0
    3.3380   -2.1569   -0.5287 H   0  0  0  0  0  0  0  0  0  0  0  0
    1.3647   -0.3889   -0.7164 H   0  0  0  0  0  0  0  0  0  0  0  0
    0.3471   -0.7137   -3.6183 H   0  0  0  0  0  0  0  0  0  0  0  0
    0.0849    0.7525   -2.6558 H   0  0  0  0  0  0  0  0  0  0  0  0
   -1.3831   -1.7379   -2.5027 H   0  0  0  0  0  0  0  0  0  0  0  0
   -2.8706   -0.1094    1.1993 H   0  0  0  0  0  0  0  0  0  0  0  0
   -4.6786   -2.4726    0.9183 H   0  0  0  0  0  0  0  0  0  0  0  0
   -4.4559   -1.5129    2.3678 H   0  0  0  0  0  0  0  0  0  0  0  0
   -6.1235   -1.7957   -0.8807 H   0  0  0  0  0  0  0  0  0  0  0  0
   -8.0098   -0.4023   -1.6450 H   0  0  0  0  0  0  0  0  0  0  0  0
   -8.6520    1.6349   -0.3808 H   0  0  0  0  0  0  0  0  0  0  0  0
   -7.3937    2.2787    1.6480 H   0  0  0  0  0  0  0  0  0  0  0  0
    5.6488    0.9744   -0.5177 H   0  0  0  0  0  0  0  0  0  0  0  0
    6.2159    0.8161    1.8546 H   0  0  0  0  0  0  0  0  0  0  0  0
  1  2  1  0
  2  3  1  0
  3  4  2  0
  4  5  1  0
  5  6  2  0
  6  7  1  0
  7  8  2  0
  7  9  2  0
  7 10  1  0
 10 11  1  0
 11 12  1  0
 12 13  1  0
 13 14  1  0
 14 15  1  0
 15 16  1  0
 16 17  1  0
 17 18  2  0
 17 19  1  0
 19 20  2  0
 19 21  1  0
 21 22  1  0
 22 23  1  0
 23 24  2  0
 24 25  1  0
 25 26  2  0
 26 27  1  0
 27 28  2  0
 28 29  1  0
  6 30  1  0
 30 31  2  0
 31  3  1  0
 14 10  1  0
 28 23  1  0
  1 32  1  0
  1 33  1  0
  1 34  1  0
  4 35  1  0
  5 36  1  0
 11 37  1  0
 11 38  1  0
 12 39  1  0
 12 40  1  0
 14 41  1  0
 15 42  1  0
 15 43  1  0
 16 44  1  0
 21 45  1  0
 22 46  1  0
 22 47  1  0
 24 48  1  0
 25 49  1  0
 26 50  1  0
 27 51  1  0
 30 52  1  0
 31 53  1  0
M  END
$$$$
