
     RDKit          3D

 34 36  0  0  0  0  0  0  0  0999 V2000
    5.2641    0.1876   -1.7901 C   0  0  0  0  0  0  0  0  0  0  0  0
    4.6485    0.4832   -0.5184 N   0  0  0  0  0  0  0  0  0  0  0  0
    5.2755    0.8857    0.6195 C   0  0  0  0  0  0  0  0  0  0  0  0
    4.2797    1.0329    1.5507 C   0  0  0  0  0  0  0  0  0  0  0  0
    4.5187    1.5681    3.3279 Br  0  0  0  0  0  0  0  0  0  0  0  0
    3.0676    0.7000    0.8994 C   0  0  0  0  0  0  0  0  0  0  0  0
    1.6875    0.6827    1.4291 C   0  0  0  0  0  0  0  0  0  0  0  0
    1.4354    1.0018    2.5846 O   0  0  0  0  0  0  0  0  0  0  0  0
    0.7850    0.2770    0.4617 N   0  0  0  0  0  0  0  0  0  0  0  0
   -0.5857    0.1178    0.5707 C   0  0  0  0  0  0  0  0  0  0  0  0
   -1.3897    0.4128    2.0561 S   0  0  0  0  0  0  0  0  0  0  0  0
   -2.8528   -0.0102    1.3860 C   0  0  0  0  0  0  0  0  0  0  0  0
   -2.7842   -0.3604    0.0663 C   0  0  0  0  0  0  0  0  0  0  0  0
   -1.4554   -0.2795   -0.4524 C   0  0  0  0  0  0  0  0  0  0  0  0
   -0.9905   -0.5676   -1.8071 C   0  0  0  0  0  0  0  0  0  0  0  0
   -1.9469   -0.6388   -2.7795 N   0  0  0  0  0  0  0  0  0  0  0  0
    0.1928   -0.7041   -2.1045 O   0  0  0  0  0  0  0  0  0  0  0  0
   -4.1309   -0.7479   -0.4341 C   0  0  0  0  0  0  0  0  0  0  0  0
   -4.9497   -0.9151    0.8833 C   0  0  0  0  0  0  0  0  0  0  0  0
   -4.2084   -0.0904    1.9758 C   0  0  0  0  0  0  0  0  0  0  0  0
    3.3148    0.3643   -0.3898 N   0  0  0  0  0  0  0  0  0  0  0  0
    4.8461    0.8634   -2.5402 H   0  0  0  0  0  0  0  0  0  0  0  0
    5.0462   -0.8527   -2.0443 H   0  0  0  0  0  0  0  0  0  0  0  0
    6.3442    0.3353   -1.7145 H   0  0  0  0  0  0  0  0  0  0  0  0
    6.3453    1.0286    0.6736 H   0  0  0  0  0  0  0  0  0  0  0  0
    1.2046    0.0507   -0.4448 H   0  0  0  0  0  0  0  0  0  0  0  0
   -2.8598   -0.2364   -2.6377 H   0  0  0  0  0  0  0  0  0  0  0  0
   -1.5992   -0.6878   -3.7276 H   0  0  0  0  0  0  0  0  0  0  0  0
   -4.5577    0.0546   -1.0448 H   0  0  0  0  0  0  0  0  0  0  0  0
   -4.1201   -1.6785   -1.0081 H   0  0  0  0  0  0  0  0  0  0  0  0
   -5.9940   -0.6093    0.7663 H   0  0  0  0  0  0  0  0  0  0  0  0
   -4.9468   -1.9746    1.1721 H   0  0  0  0  0  0  0  0  0  0  0  0
   -4.6506    0.9065    2.0719 H   0  0  0  0  0  0  0  0  0  0  0  0
   -4.2337   -0.5997    2.9429 H   0  0  0  0  0  0  0  0  0  0  0  0
  1  2  1  0
  2  3  1  0
  3  4  2  0
  4  5  1  0
  4  6  1  0
  6  7  1  0
  7  8  2  0
  7  9  1  0
  9 10  1  0
 10 11  1  0
 11 12  1  0
 12 13  2  0
 13 14  1  0
 14 15  1  0
 15 16  1  0
 15 17  2  0
 13 18  1  0
 18 19  1  0
 19 20  1  0
  6 21  2  0
 21  2  1  0
 14 10  2  0
 20 12  1  0
  1 22  1  0
  1 23  1  0
  1 24  1  0
  3 25  1  0
  9 26  1  0
 16 27  1  0
 16 28  1  0
 18 29  1  0
 18 30  1  0
 19 31  1  0
 19 32  1  0
 20 33  1  0
 20 34  1  0
M  END
$$$$
