
     RDKit          3D

 40 41  0  0  0  0  0  0  0  0999 V2000
    6.3991   -0.5055   -5.0850 C   0  0  0  0  0  0  0  0  0  0  0  0
    5.6923   -0.2027   -3.7739 C   0  0  0  0  0  0  0  0  0  0  0  0
    4.1757   -0.1845   -3.9465 C   0  0  0  0  0  0  0  0  0  0  0  0
    3.4446    0.1171   -2.6458 C   0  0  0  0  0  0  0  0  0  0  0  0
    4.0377    0.3148   -1.5924 O   0  0  0  0  0  0  0  0  0  0  0  0
    2.0706    0.1303   -2.8327 N   0  0  0  0  0  0  0  0  0  0  0  0
    1.0737    0.3745   -1.8664 C   0  0  0  0  0  0  0  0  0  0  0  0
    1.3372    0.6626   -0.5258 C   0  0  0  0  0  0  0  0  0  0  0  0
    0.2896    0.8941    0.3767 C   0  0  0  0  0  0  0  0  0  0  0  0
   -1.0391    0.8320   -0.0549 C   0  0  0  0  0  0  0  0  0  0  0  0
   -2.1894    1.0715    0.8598 C   0  0  0  0  0  0  0  0  0  0  0  0
   -3.2927    1.3816    0.4155 O   0  0  0  0  0  0  0  0  0  0  0  0
   -1.9564    0.8940    2.2111 N   0  0  0  0  0  0  0  0  0  0  0  0
   -3.0862    0.8835    3.0507 N   0  0  0  0  0  0  0  0  0  0  0  0
   -3.1481   -0.0780    4.0468 C   0  0  0  0  0  0  0  0  0  0  0  0
   -2.1500   -0.7421    4.3366 O   0  0  0  0  0  0  0  0  0  0  0  0
   -4.4387   -0.2517    4.6977 C   0  0  0  0  0  0  0  0  0  0  0  0
   -4.7365   -1.1423    5.7143 C   0  0  0  0  0  0  0  0  0  0  0  0
   -6.0961   -1.0659    6.1328 C   0  0  0  0  0  0  0  0  0  0  0  0
   -6.7981   -0.1187    5.4229 C   0  0  0  0  0  0  0  0  0  0  0  0
   -5.8196    0.6680    4.2631 S   0  0  0  0  0  0  0  0  0  0  0  0
   -1.3068    0.5577   -1.4002 C   0  0  0  0  0  0  0  0  0  0  0  0
   -0.2579    0.3274   -2.2967 C   0  0  0  0  0  0  0  0  0  0  0  0
    6.1018   -1.4846   -5.4740 H   0  0  0  0  0  0  0  0  0  0  0  0
    7.4836   -0.5135   -4.9379 H   0  0  0  0  0  0  0  0  0  0  0  0
    6.1644    0.2507   -5.8409 H   0  0  0  0  0  0  0  0  0  0  0  0
    6.0369    0.7659   -3.3926 H   0  0  0  0  0  0  0  0  0  0  0  0
    5.9749   -0.9556   -3.0285 H   0  0  0  0  0  0  0  0  0  0  0  0
    3.8326   -1.1589   -4.3143 H   0  0  0  0  0  0  0  0  0  0  0  0
    3.8954    0.5790   -4.6822 H   0  0  0  0  0  0  0  0  0  0  0  0
    1.7412   -0.0595   -3.7711 H   0  0  0  0  0  0  0  0  0  0  0  0
    2.3527    0.7241   -0.1455 H   0  0  0  0  0  0  0  0  0  0  0  0
    0.5442    1.1441    1.4031 H   0  0  0  0  0  0  0  0  0  0  0  0
   -1.1719    0.3336    2.5435 H   0  0  0  0  0  0  0  0  0  0  0  0
   -3.9454    1.2541    2.6448 H   0  0  0  0  0  0  0  0  0  0  0  0
   -4.0016   -1.8194    6.1362 H   0  0  0  0  0  0  0  0  0  0  0  0
   -6.5352   -1.6746    6.9141 H   0  0  0  0  0  0  0  0  0  0  0  0
   -7.8404    0.1505    5.5287 H   0  0  0  0  0  0  0  0  0  0  0  0
   -2.3348    0.5200   -1.7569 H   0  0  0  0  0  0  0  0  0  0  0  0
   -0.5032    0.1134   -3.3340 H   0  0  0  0  0  0  0  0  0  0  0  0
  1  2  1  0
  2  3  1  0
  3  4  1  0
  4  5  2  0
  4  6  1  0
  6  7  1  0
  7  8  2  0
  8  9  1  0
  9 10  2  0
 10 11  1  0
 11 12  2  0
 11 13  1  0
 13 14  1  0
 14 15  1  0
 15 16  2  0
 15 17  1  0
 17 18  2  0
 18 19  1  0
 19 20  2  0
 20 21  1  0
 10 22  1  0
 22 23  2  0
 23  7  1  0
 21 17  1  0
  1 24  1  0
  1 25  1  0
  1 26  1  0
  2 27  1  0
  2 28  1  0
  3 29  1  0
  3 30  1  0
  6 31  1  0
  8 32  1  0
  9 33  1  0
 13 34  1  0
 14 35  1  0
 18 36  1  0
 19 37  1  0
 20 38  1  0
 22 39  1  0
 23 40  1  0
M  END
$$$$
