
     RDKit          3D

 58 60  0  0  0  0  0  0  0  0999 V2000
    7.4836    2.1751   -1.8750 C   0  0  0  0  0  0  0  0  0  0  0  0
    6.5153    2.1359   -0.7668 C   0  0  0  0  0  0  0  0  0  0  0  0
    5.4329    1.3480   -0.4673 C   0  0  0  0  0  0  0  0  0  0  0  0
    4.9500    1.8566    0.7578 C   0  0  0  0  0  0  0  0  0  0  0  0
    3.8901    1.4317    1.5266 N   0  0  0  0  0  0  0  0  0  0  0  0
    3.0865    0.3499    1.2406 C   0  0  0  0  0  0  0  0  0  0  0  0
    3.1889   -0.3845    0.2608 O   0  0  0  0  0  0  0  0  0  0  0  0
    2.0573    0.1043    2.3312 C   0  0  0  0  0  0  0  0  0  0  0  0
    1.0325   -0.9424    1.9050 C   0  0  0  0  0  0  0  0  0  0  0  0
    0.0588   -0.3900    0.8768 C   0  0  0  0  0  0  0  0  0  0  0  0
   -0.0303    0.8248    0.6710 O   0  0  0  0  0  0  0  0  0  0  0  0
   -0.7589   -1.2949    0.2181 N   0  0  0  0  0  0  0  0  0  0  0  0
   -1.7399   -0.7516   -0.7228 C   0  0  0  0  0  0  0  0  0  0  0  0
   -2.9446   -0.2336    0.0686 C   0  0  0  0  0  0  0  0  0  0  0  0
   -3.7097   -0.9843    0.6697 O   0  0  0  0  0  0  0  0  0  0  0  0
   -3.0182    1.1485    0.1246 N   0  0  0  0  0  0  0  0  0  0  0  0
   -3.9714    1.8041    0.9972 C   0  0  0  0  0  0  0  0  0  0  0  0
   -3.8037    3.3263    0.9726 C   0  0  0  0  0  0  0  0  0  0  0  0
   -5.1845    3.8470    1.3325 C   0  0  0  0  0  0  0  0  0  0  0  0
   -6.1063    2.9313    0.5430 C   0  0  0  0  0  0  0  0  0  0  0  0
   -5.4415    1.5563    0.6064 C   0  0  0  0  0  0  0  0  0  0  0  0
   -0.8377   -2.7299    0.4972 C   0  0  0  0  0  0  0  0  0  0  0  0
   -0.3158   -3.5701   -0.6493 C   0  0  0  0  0  0  0  0  0  0  0  0
    0.9619   -3.3466   -1.1899 C   0  0  0  0  0  0  0  0  0  0  0  0
    1.4375   -4.1383   -2.2365 C   0  0  0  0  0  0  0  0  0  0  0  0
    0.6399   -5.1561   -2.7430 C   0  0  0  0  0  0  0  0  0  0  0  0
    1.0958   -5.9133   -3.7494 F   0  0  0  0  0  0  0  0  0  0  0  0
   -0.6270   -5.3936   -2.2266 C   0  0  0  0  0  0  0  0  0  0  0  0
   -1.1036   -4.6038   -1.1787 C   0  0  0  0  0  0  0  0  0  0  0  0
    5.6892    2.8923    1.1690 N   0  0  0  0  0  0  0  0  0  0  0  0
    6.6711    3.0641    0.2107 O   0  0  0  0  0  0  0  0  0  0  0  0
    8.5065    2.2341   -1.4934 H   0  0  0  0  0  0  0  0  0  0  0  0
    7.4060    1.2775   -2.4956 H   0  0  0  0  0  0  0  0  0  0  0  0
    7.3006    3.0457   -2.5119 H   0  0  0  0  0  0  0  0  0  0  0  0
    5.0526    0.5259   -1.0522 H   0  0  0  0  0  0  0  0  0  0  0  0
    3.7439    1.9798    2.3622 H   0  0  0  0  0  0  0  0  0  0  0  0
    1.5744    1.0488    2.6048 H   0  0  0  0  0  0  0  0  0  0  0  0
    2.5983   -0.2653    3.2103 H   0  0  0  0  0  0  0  0  0  0  0  0
    1.5445   -1.8227    1.5080 H   0  0  0  0  0  0  0  0  0  0  0  0
    0.4480   -1.2452    2.7806 H   0  0  0  0  0  0  0  0  0  0  0  0
   -1.2864    0.0567   -1.3100 H   0  0  0  0  0  0  0  0  0  0  0  0
   -2.0789   -1.5213   -1.4258 H   0  0  0  0  0  0  0  0  0  0  0  0
   -2.1135    1.6081    0.0171 H   0  0  0  0  0  0  0  0  0  0  0  0
   -3.7996    1.4289    2.0153 H   0  0  0  0  0  0  0  0  0  0  0  0
   -3.5211    3.6769   -0.0285 H   0  0  0  0  0  0  0  0  0  0  0  0
   -3.0333    3.6663    1.6730 H   0  0  0  0  0  0  0  0  0  0  0  0
   -5.3177    4.9009    1.0669 H   0  0  0  0  0  0  0  0  0  0  0  0
   -5.3649    3.7355    2.4080 H   0  0  0  0  0  0  0  0  0  0  0  0
   -6.1622    3.2664   -0.5001 H   0  0  0  0  0  0  0  0  0  0  0  0
   -7.1244    2.9189    0.9431 H   0  0  0  0  0  0  0  0  0  0  0  0
   -5.5551    1.0315   -0.3487 H   0  0  0  0  0  0  0  0  0  0  0  0
   -5.9246    0.9405    1.3753 H   0  0  0  0  0  0  0  0  0  0  0  0
   -1.8877   -2.9689    0.7043 H   0  0  0  0  0  0  0  0  0  0  0  0
   -0.2833   -2.9989    1.4012 H   0  0  0  0  0  0  0  0  0  0  0  0
    1.5932   -2.5385   -0.8146 H   0  0  0  0  0  0  0  0  0  0  0  0
    2.4219   -3.9599   -2.6615 H   0  0  0  0  0  0  0  0  0  0  0  0
   -1.2360   -6.1871   -2.6451 H   0  0  0  0  0  0  0  0  0  0  0  0
   -2.0996   -4.7979   -0.7823 H   0  0  0  0  0  0  0  0  0  0  0  0
  1  2  1  0
  2  3  2  0
  3  4  1  0
  4  5  1  0
  5  6  1  0
  6  7  2  0
  6  8  1  0
  8  9  1  0
  9 10  1  0
 10 11  2  0
 10 12  1  0
 12 13  1  0
 13 14  1  0
 14 15  2  0
 14 16  1  0
 16 17  1  0
 17 18  1  0
 18 19  1  0
 19 20  1  0
 20 21  1  0
 12 22  1  0
 22 23  1  0
 23 24  2  0
 24 25  1  0
 25 26  2  0
 26 27  1  0
 26 28  1  0
 28 29  2  0
  4 30  2  0
 30 31  1  0
 31  2  1  0
 21 17  1  0
 29 23  1  0
  1 32  1  0
  1 33  1  0
  1 34  1  0
  3 35  1  0
  5 36  1  0
  8 37  1  0
  8 38  1  0
  9 39  1  0
  9 40  1  0
 13 41  1  0
 13 42  1  0
 16 43  1  0
 17 44  1  0
 18 45  1  0
 18 46  1  0
 19 47  1  0
 19 48  1  0
 20 49  1  0
 20 50  1  0
 21 51  1  0
 21 52  1  0
 22 53  1  0
 22 54  1  0
 24 55  1  0
 25 56  1  0
 28 57  1  0
 29 58  1  0
M  END
$$$$
