
     RDKit          3D

 28 31  0  0  0  0  0  0  0  0999 V2000
    3.9837    1.1559    1.5589 C   0  0  0  0  0  0  0  0  0  0  0  0
    2.6202    1.1636    1.1629 O   0  0  0  0  0  0  0  0  0  0  0  0
    2.0896    0.0213    0.6182 C   0  0  0  0  0  0  0  0  0  0  0  0
    2.8549   -1.1941    0.4274 C   0  0  0  0  0  0  0  0  0  0  0  0
    2.3396   -2.4024   -0.1353 C   0  0  0  0  0  0  0  0  0  0  0  0
    0.9887   -2.3096   -0.4987 C   0  0  0  0  0  0  0  0  0  0  0  0
    0.1258   -3.1894   -1.0510 N   0  0  0  0  0  0  0  0  0  0  0  0
   -1.1064   -2.5202   -1.1830 O   0  0  0  0  0  0  0  0  0  0  0  0
   -0.9688   -1.2574   -0.7121 C   0  0  0  0  0  0  0  0  0  0  0  0
    0.3018   -1.0932   -0.2846 C   0  0  0  0  0  0  0  0  0  0  0  0
    0.7294    0.1032    0.2484 C   0  0  0  0  0  0  0  0  0  0  0  0
   -0.2469    1.2261    0.3460 C   0  0  0  0  0  0  0  0  0  0  0  0
    0.0627    2.3156    0.8081 O   0  0  0  0  0  0  0  0  0  0  0  0
   -1.6589    0.9847   -0.1491 C   0  0  0  0  0  0  0  0  0  0  0  0
   -2.6076    2.0067   -0.0779 C   0  0  0  0  0  0  0  0  0  0  0  0
   -3.9060    1.7740   -0.5369 C   0  0  0  0  0  0  0  0  0  0  0  0
   -4.2580    0.5273   -1.0650 C   0  0  0  0  0  0  0  0  0  0  0  0
   -3.3169   -0.5024   -1.1411 C   0  0  0  0  0  0  0  0  0  0  0  0
   -2.0195   -0.2768   -0.6848 C   0  0  0  0  0  0  0  0  0  0  0  0
    4.6425    0.9832    0.7017 H   0  0  0  0  0  0  0  0  0  0  0  0
    4.2198    2.1442    1.9650 H   0  0  0  0  0  0  0  0  0  0  0  0
    4.1604    0.4208    2.3507 H   0  0  0  0  0  0  0  0  0  0  0  0
    3.9026   -1.2235    0.7237 H   0  0  0  0  0  0  0  0  0  0  0  0
    2.9323   -3.2970   -0.2672 H   0  0  0  0  0  0  0  0  0  0  0  0
   -2.3399    2.9784    0.3318 H   0  0  0  0  0  0  0  0  0  0  0  0
   -4.6476    2.5684   -0.4828 H   0  0  0  0  0  0  0  0  0  0  0  0
   -5.2731    0.3592   -1.4191 H   0  0  0  0  0  0  0  0  0  0  0  0
   -3.6046   -1.4664   -1.5540 H   0  0  0  0  0  0  0  0  0  0  0  0
  1  2  1  0
  2  3  1  0
  3  4  1  0
  4  5  2  0
  5  6  1  0
  6  7  2  0
  7  8  1  0
  8  9  1  0
  9 10  2  0
 10 11  1  0
 11 12  1  0
 12 13  2  0
 12 14  1  0
 14 15  2  0
 15 16  1  0
 16 17  2  0
 17 18  1  0
 18 19  2  0
 11  3  2  0
 19 14  1  0
 10  6  1  0
 19  9  1  0
  1 20  1  0
  1 21  1  0
  1 22  1  0
  4 23  1  0
  5 24  1  0
 15 25  1  0
 16 26  1  0
 17 27  1  0
 18 28  1  0
M  END
$$$$
