
     RDKit          3D

 39 39  0  0  0  0  0  0  0  0999 V2000
   -2.8719    3.6894    0.6515 C   0  0  0  0  0  0  0  0  0  0  0  0
   -2.5203    2.2445    0.4629 C   0  0  0  0  0  0  0  0  0  0  0  0
   -3.2542    1.4118   -0.0549 O   0  0  0  0  0  0  0  0  0  0  0  0
   -1.2674    2.0045    0.9368 O   0  0  0  0  0  0  0  0  0  0  0  0
   -0.8162    0.6428    0.8527 C   0  0  0  0  0  0  0  0  0  0  0  0
   -0.2925    0.3431   -0.5505 C   0  0  0  0  0  0  0  0  0  0  0  0
    0.3274   -1.0536   -0.7317 C   0  0  0  0  0  0  0  0  0  0  0  0
    1.4041   -1.2849    0.2481 N   0  0  0  0  0  0  0  0  0  0  0  0
    2.8730   -0.5274    0.0939 S   0  0  0  0  0  6  0  0  0  0  0  0
    3.7176   -1.0555    1.1393 O   0  0  0  0  0  0  0  0  0  0  0  0
    3.2660   -0.5625   -1.2932 O   0  0  0  0  0  0  0  0  0  0  0  0
    2.5472    1.0084    0.4813 O   0  0  0  0  0  0  0  0  0  0  0  0
    3.6222    1.9424    0.4133 C   0  0  0  0  0  0  0  0  0  0  0  0
    3.1433    3.3657    0.7305 C   0  0  0  0  0  0  0  0  0  0  0  0
    4.5286    4.4988    0.6396 Cl  0  0  0  0  0  0  0  0  0  0  0  0
    1.8989    3.8910   -0.4458 Cl  0  0  0  0  0  0  0  0  0  0  0  0
    2.4480    3.4466    2.3805 Cl  0  0  0  0  0  0  0  0  0  0  0  0
   -0.6422   -2.2356   -0.7295 C   0  0  0  0  0  0  0  0  0  0  0  0
   -0.1127   -3.5396   -0.7707 C   0  0  0  0  0  0  0  0  0  0  0  0
   -0.9441   -4.6615   -0.8017 C   0  0  0  0  0  0  0  0  0  0  0  0
   -2.3278   -4.5027   -0.8135 C   0  0  0  0  0  0  0  0  0  0  0  0
   -2.8733   -3.2257   -0.7925 C   0  0  0  0  0  0  0  0  0  0  0  0
   -2.0398   -2.1020   -0.7562 C   0  0  0  0  0  0  0  0  0  0  0  0
   -2.1980    4.3142    0.0602 H   0  0  0  0  0  0  0  0  0  0  0  0
   -2.8119    3.9479    1.7113 H   0  0  0  0  0  0  0  0  0  0  0  0
   -3.8964    3.8606    0.3121 H   0  0  0  0  0  0  0  0  0  0  0  0
   -0.0142    0.5485    1.5922 H   0  0  0  0  0  0  0  0  0  0  0  0
   -1.6126   -0.0398    1.1679 H   0  0  0  0  0  0  0  0  0  0  0  0
    0.4491    1.1067   -0.8098 H   0  0  0  0  0  0  0  0  0  0  0  0
   -1.0869    0.5014   -1.2889 H   0  0  0  0  0  0  0  0  0  0  0  0
    0.7680   -1.0681   -1.7374 H   0  0  0  0  0  0  0  0  0  0  0  0
    1.1357   -1.5087    1.2030 H   0  0  0  0  0  0  0  0  0  0  0  0
    4.0615    1.9082   -0.5911 H   0  0  0  0  0  0  0  0  0  0  0  0
    4.3963    1.6361    1.1276 H   0  0  0  0  0  0  0  0  0  0  0  0
    0.9653   -3.6896   -0.7907 H   0  0  0  0  0  0  0  0  0  0  0  0
   -0.5104   -5.6567   -0.8301 H   0  0  0  0  0  0  0  0  0  0  0  0
   -2.9800   -5.3727   -0.8442 H   0  0  0  0  0  0  0  0  0  0  0  0
   -3.9545   -3.0976   -0.8139 H   0  0  0  0  0  0  0  0  0  0  0  0
   -2.5251   -1.1285   -0.7585 H   0  0  0  0  0  0  0  0  0  0  0  0
  1  2  1  0
  2  3  2  0
  2  4  1  0
  4  5  1  0
  5  6  1  0
  6  7  1  0
  7  8  1  0
  8  9  1  0
  9 10  2  0
  9 11  2  0
  9 12  1  0
 12 13  1  0
 13 14  1  0
 14 15  1  0
 14 16  1  0
 14 17  1  0
  7 18  1  0
 18 19  2  0
 19 20  1  0
 20 21  2  0
 21 22  1  0
 22 23  2  0
 23 18  1  0
  1 24  1  0
  1 25  1  0
  1 26  1  0
  5 27  1  0
  5 28  1  0
  6 29  1  0
  6 30  1  0
  7 31  1  0
  8 32  1  0
 13 33  1  0
 13 34  1  0
 19 35  1  0
 20 36  1  0
 21 37  1  0
 22 38  1  0
 23 39  1  0
M  END
$$$$
