
     RDKit          3D

 58 62  0  0  0  0  0  0  0  0999 V2000
    6.6819    1.8342    4.7862 C   0  0  0  0  0  0  0  0  0  0  0  0
    6.6043    2.1432    3.4004 O   0  0  0  0  0  0  0  0  0  0  0  0
    5.4109    1.9165    2.7615 C   0  0  0  0  0  0  0  0  0  0  0  0
    4.2678    1.4063    3.3816 C   0  0  0  0  0  0  0  0  0  0  0  0
    3.0959    1.2094    2.6459 C   0  0  0  0  0  0  0  0  0  0  0  0
    3.0395    1.5234    1.2819 C   0  0  0  0  0  0  0  0  0  0  0  0
    1.7958    1.3087    0.5466 C   0  0  0  0  0  0  0  0  0  0  0  0
    0.6867    0.7121    0.9417 N   0  0  0  0  0  0  0  0  0  0  0  0
   -0.1574    0.7949   -0.1486 C   0  0  0  0  0  0  0  0  0  0  0  0
   -1.5219    0.2076   -0.0901 C   0  0  0  0  0  0  0  0  0  0  0  0
   -1.6980   -0.8242   -1.0992 N   0  0  0  0  0  0  0  0  0  0  0  0
   -2.5409   -0.8088   -2.1812 C   0  0  0  0  0  0  0  0  0  0  0  0
   -3.5831    0.5190   -2.5700 S   0  0  0  0  0  0  0  0  0  0  0  0
   -5.1289   -0.3733   -2.9229 C   0  0  0  0  0  0  0  0  0  0  0  0
   -5.7615   -0.9395   -1.6741 C   0  0  0  0  0  0  0  0  0  0  0  0
   -5.5856   -2.2910   -1.3362 C   0  0  0  0  0  0  0  0  0  0  0  0
   -6.1468   -2.8151   -0.1677 C   0  0  0  0  0  0  0  0  0  0  0  0
   -6.8903   -1.9916    0.6751 C   0  0  0  0  0  0  0  0  0  0  0  0
   -7.0620   -0.6529    0.3459 C   0  0  0  0  0  0  0  0  0  0  0  0
   -7.7720    0.1407    1.1587 F   0  0  0  0  0  0  0  0  0  0  0  0
   -6.5078   -0.1202   -0.8147 C   0  0  0  0  0  0  0  0  0  0  0  0
   -2.4729   -1.9187   -2.8791 N   0  0  0  0  0  0  0  0  0  0  0  0
   -1.5647   -2.7059   -2.2167 C   0  0  0  0  0  0  0  0  0  0  0  0
   -1.1215   -3.9928   -2.5187 C   0  0  0  0  0  0  0  0  0  0  0  0
   -0.1973   -4.5311   -1.6386 C   0  0  0  0  0  0  0  0  0  0  0  0
    0.2845   -3.9024   -0.5413 N   0  0  0  0  0  0  0  0  0  0  0  0
   -0.1400   -2.6495   -0.2521 C   0  0  0  0  0  0  0  0  0  0  0  0
   -1.0698   -2.0539   -1.0931 C   0  0  0  0  0  0  0  0  0  0  0  0
    0.4835    1.4686   -1.1691 C   0  0  0  0  0  0  0  0  0  0  0  0
    0.1271    1.8723   -2.5408 C   0  0  0  0  0  0  0  0  0  0  0  0
    1.7367    1.7951   -0.7335 O   0  0  0  0  0  0  0  0  0  0  0  0
    4.1905    2.0338    0.6617 C   0  0  0  0  0  0  0  0  0  0  0  0
    5.3735    2.2278    1.3870 C   0  0  0  0  0  0  0  0  0  0  0  0
    6.5385    2.7190    0.8500 O   0  0  0  0  0  0  0  0  0  0  0  0
    6.5839    2.9239   -0.5550 C   0  0  0  0  0  0  0  0  0  0  0  0
    7.6950    2.0717    5.1279 H   0  0  0  0  0  0  0  0  0  0  0  0
    6.5140    0.7658    4.9627 H   0  0  0  0  0  0  0  0  0  0  0  0
    5.9836    2.4483    5.3661 H   0  0  0  0  0  0  0  0  0  0  0  0
    4.2525    1.1490    4.4355 H   0  0  0  0  0  0  0  0  0  0  0  0
    2.2167    0.8094    3.1488 H   0  0  0  0  0  0  0  0  0  0  0  0
   -1.7001   -0.2677    0.8815 H   0  0  0  0  0  0  0  0  0  0  0  0
   -2.2763    0.9886   -0.2065 H   0  0  0  0  0  0  0  0  0  0  0  0
   -4.9569   -1.1599   -3.6689 H   0  0  0  0  0  0  0  0  0  0  0  0
   -5.8257    0.3352   -3.3877 H   0  0  0  0  0  0  0  0  0  0  0  0
   -4.9995   -2.9450   -1.9820 H   0  0  0  0  0  0  0  0  0  0  0  0
   -6.0033   -3.8639    0.0801 H   0  0  0  0  0  0  0  0  0  0  0  0
   -7.3363   -2.3839    1.5834 H   0  0  0  0  0  0  0  0  0  0  0  0
   -6.6606    0.9331   -1.0346 H   0  0  0  0  0  0  0  0  0  0  0  0
   -1.4787   -4.5328   -3.3829 H   0  0  0  0  0  0  0  0  0  0  0  0
    0.1994   -5.5302   -1.7998 H   0  0  0  0  0  0  0  0  0  0  0  0
    0.2779   -2.1755    0.6282 H   0  0  0  0  0  0  0  0  0  0  0  0
    0.0471    0.9954   -3.1900 H   0  0  0  0  0  0  0  0  0  0  0  0
   -0.8307    2.4014   -2.5495 H   0  0  0  0  0  0  0  0  0  0  0  0
    0.8827    2.5411   -2.9652 H   0  0  0  0  0  0  0  0  0  0  0  0
    4.1447    2.2746   -0.3959 H   0  0  0  0  0  0  0  0  0  0  0  0
    6.3816    1.9959   -1.0997 H   0  0  0  0  0  0  0  0  0  0  0  0
    5.8962    3.7194   -0.8580 H   0  0  0  0  0  0  0  0  0  0  0  0
    7.5980    3.2445   -0.8131 H   0  0  0  0  0  0  0  0  0  0  0  0
  1  2  1  0
  2  3  1  0
  3  4  2  0
  4  5  1  0
  5  6  2  0
  6  7  1  0
  7  8  2  0
  8  9  1  0
  9 10  1  0
 10 11  1  0
 11 12  1  0
 12 13  1  0
 13 14  1  0
 14 15  1  0
 15 16  2  0
 16 17  1  0
 17 18  2  0
 18 19  1  0
 19 20  1  0
 19 21  2  0
 12 22  2  0
 22 23  1  0
 23 24  2  0
 24 25  1  0
 25 26  2  0
 26 27  1  0
 27 28  2  0
  9 29  2  0
 29 30  1  0
 29 31  1  0
  6 32  1  0
 32 33  2  0
 33 34  1  0
 34 35  1  0
 33  3  1  0
 31  7  1  0
 28 11  1  0
 21 15  1  0
 28 23  1  0
  1 36  1  0
  1 37  1  0
  1 38  1  0
  4 39  1  0
  5 40  1  0
 10 41  1  0
 10 42  1  0
 14 43  1  0
 14 44  1  0
 16 45  1  0
 17 46  1  0
 18 47  1  0
 21 48  1  0
 24 49  1  0
 25 50  1  0
 27 51  1  0
 30 52  1  0
 30 53  1  0
 30 54  1  0
 32 55  1  0
 35 56  1  0
 35 57  1  0
 35 58  1  0
M  END
$$$$
