
     RDKit          3D

 27 27  0  0  0  0  0  0  0  0999 V2000
   -2.0176    1.6270   -1.2856 C   0  0  0  0  0  0  0  0  0  0  0  0
   -1.2792    0.6147   -0.3902 C   0  0  0  0  0  0  0  0  0  0  0  0
   -1.9095    0.6462    1.0098 C   0  0  0  0  0  0  0  0  0  0  0  0
   -1.4427   -0.7842   -0.9894 C   0  0  0  0  0  0  0  0  0  0  0  0
    0.4706    1.1160   -0.3257 S   0  0  0  0  0  6  0  0  0  0  0  0
    1.0902    0.9810   -1.6275 O   0  0  0  0  0  0  0  0  0  0  0  0
    0.5718    2.3636    0.4086 O   0  0  0  0  0  0  0  0  0  0  0  0
    1.3089   -0.0129    0.7037 C   0  0  0  0  0  0  0  0  0  0  0  0
    1.3033    0.1190    2.1329 C   0  0  0  0  0  0  0  0  0  0  0  0
    2.0960   -0.8209    2.7492 C   0  0  0  0  0  0  0  0  0  0  0  0
    2.8749   -1.8337    1.6191 S   0  0  0  0  0  0  0  0  0  0  0  0
    2.1315   -1.0450    0.2853 C   0  0  0  0  0  0  0  0  0  0  0  0
    2.4618   -1.5238   -1.0306 C   0  0  0  0  0  0  0  0  0  0  0  0
    3.5622   -1.8019   -1.4831 O   0  0  0  0  0  0  0  0  0  0  0  0
    1.3518   -1.7502   -1.7628 O   0  0  0  0  0  0  0  0  0  0  0  0
   -3.0825    1.3825   -1.3683 H   0  0  0  0  0  0  0  0  0  0  0  0
   -1.5989    1.6412   -2.2982 H   0  0  0  0  0  0  0  0  0  0  0  0
   -1.9388    2.6439   -0.8850 H   0  0  0  0  0  0  0  0  0  0  0  0
   -2.9870    0.4513    0.9596 H   0  0  0  0  0  0  0  0  0  0  0  0
   -1.4768   -0.1158    1.6649 H   0  0  0  0  0  0  0  0  0  0  0  0
   -1.7728    1.6195    1.4930 H   0  0  0  0  0  0  0  0  0  0  0  0
   -2.5004   -1.0675   -1.0428 H   0  0  0  0  0  0  0  0  0  0  0  0
   -0.9347   -1.5431   -0.3864 H   0  0  0  0  0  0  0  0  0  0  0  0
   -1.0435   -0.8307   -2.0076 H   0  0  0  0  0  0  0  0  0  0  0  0
    0.7643    0.8857    2.6792 H   0  0  0  0  0  0  0  0  0  0  0  0
    2.2771   -0.9446    3.8088 H   0  0  0  0  0  0  0  0  0  0  0  0
    1.7200   -2.0174   -2.6309 H   0  0  0  0  0  0  0  0  0  0  0  0
  1  2  1  0
  2  3  1  0
  2  4  1  0
  2  5  1  0
  5  6  2  0
  5  7  2  0
  5  8  1  0
  8  9  1  0
  9 10  2  0
 10 11  1  0
 11 12  1  0
 12 13  1  0
 13 14  2  0
 13 15  1  0
 12  8  2  0
  1 16  1  0
  1 17  1  0
  1 18  1  0
  3 19  1  0
  3 20  1  0
  3 21  1  0
  4 22  1  0
  4 23  1  0
  4 24  1  0
  9 25  1  0
 10 26  1  0
 15 27  1  0
M  END
$$$$
