
     RDKit          3D

 37 39  0  0  0  0  0  0  0  0999 V2000
   -4.2707    2.4170    0.8835 C   0  0  0  0  0  0  0  0  0  0  0  0
   -4.1710    1.0690    0.2232 C   0  0  0  0  0  0  0  0  0  0  0  0
   -4.8760    0.8267   -0.9654 C   0  0  0  0  0  0  0  0  0  0  0  0
   -4.7965   -0.4135   -1.5951 C   0  0  0  0  0  0  0  0  0  0  0  0
   -4.0120   -1.4210   -1.0432 C   0  0  0  0  0  0  0  0  0  0  0  0
   -3.3046   -1.1935    0.1401 C   0  0  0  0  0  0  0  0  0  0  0  0
   -3.3797    0.0474    0.7809 C   0  0  0  0  0  0  0  0  0  0  0  0
   -2.7136    0.3834    1.9316 O   0  0  0  0  0  0  0  0  0  0  0  0
   -1.9390   -0.6140    2.5838 C   0  0  0  0  0  0  0  0  0  0  0  0
   -0.5577   -0.8556    1.9630 C   0  0  0  0  0  0  0  0  0  0  0  0
    0.0383   -1.9097    2.1625 O   0  0  0  0  0  0  0  0  0  0  0  0
   -0.1114    0.2270    1.2396 N   0  0  0  0  0  0  0  0  0  0  0  0
    1.0787    0.3484    0.5719 C   0  0  0  0  0  0  0  0  0  0  0  0
    1.3830    1.4161   -0.1286 N   0  0  0  0  0  0  0  0  0  0  0  0
    2.6313    1.3167   -0.7075 N   0  0  0  0  0  0  0  0  0  0  0  0
    3.2357    0.1754   -0.4255 C   0  0  0  0  0  0  0  0  0  0  0  0
    4.5757   -0.1975   -0.9115 C   0  0  0  0  0  0  0  0  0  0  0  0
    5.2727    0.7025   -1.7289 C   0  0  0  0  0  0  0  0  0  0  0  0
    6.5329    0.3608   -2.1906 C   0  0  0  0  0  0  0  0  0  0  0  0
    7.1442   -0.8041   -1.8988 N   0  0  0  0  0  0  0  0  0  0  0  0
    6.4660   -1.6631   -1.1123 C   0  0  0  0  0  0  0  0  0  0  0  0
    5.2012   -1.4109   -0.6021 C   0  0  0  0  0  0  0  0  0  0  0  0
    2.2862   -0.8475    0.5840 S   0  0  0  0  0  0  0  0  0  0  0  0
   -4.6786    2.3145    1.8943 H   0  0  0  0  0  0  0  0  0  0  0  0
   -4.9307    3.0904    0.3265 H   0  0  0  0  0  0  0  0  0  0  0  0
   -3.2833    2.8872    0.9347 H   0  0  0  0  0  0  0  0  0  0  0  0
   -5.4924    1.6057   -1.4088 H   0  0  0  0  0  0  0  0  0  0  0  0
   -5.3454   -0.5924   -2.5162 H   0  0  0  0  0  0  0  0  0  0  0  0
   -3.9479   -2.3885   -1.5356 H   0  0  0  0  0  0  0  0  0  0  0  0
   -2.7045   -2.0125    0.5232 H   0  0  0  0  0  0  0  0  0  0  0  0
   -1.7589   -0.2570    3.6045 H   0  0  0  0  0  0  0  0  0  0  0  0
   -2.4888   -1.5576    2.6758 H   0  0  0  0  0  0  0  0  0  0  0  0
   -0.7424    1.0116    1.1170 H   0  0  0  0  0  0  0  0  0  0  0  0
    4.8437    1.6614   -2.0067 H   0  0  0  0  0  0  0  0  0  0  0  0
    7.0985    1.0367   -2.8258 H   0  0  0  0  0  0  0  0  0  0  0  0
    6.9814   -2.5943   -0.8928 H   0  0  0  0  0  0  0  0  0  0  0  0
    4.7358   -2.1653    0.0226 H   0  0  0  0  0  0  0  0  0  0  0  0
  1  2  1  0
  2  3  2  0
  3  4  1  0
  4  5  2  0
  5  6  1  0
  6  7  2  0
  7  8  1  0
  8  9  1  0
  9 10  1  0
 10 11  2  0
 10 12  1  0
 12 13  1  0
 13 14  2  0
 14 15  1  0
 15 16  2  0
 16 17  1  0
 17 18  2  0
 18 19  1  0
 19 20  2  0
 20 21  1  0
 21 22  2  0
 16 23  1  0
  7  2  1  0
 23 13  1  0
 22 17  1  0
  1 24  1  0
  1 25  1  0
  1 26  1  0
  3 27  1  0
  4 28  1  0
  5 29  1  0
  6 30  1  0
  9 31  1  0
  9 32  1  0
 12 33  1  0
 18 34  1  0
 19 35  1  0
 21 36  1  0
 22 37  1  0
M  END
$$$$
