
     RDKit          3D

 56 61  0  0  0  0  0  0  0  0999 V2000
    5.8405   -0.8486    0.9391 C   0  0  0  0  0  0  0  0  0  0  0  0
    4.6307   -0.5787    0.0960 C   0  0  0  0  0  0  0  0  0  0  0  0
    4.7445   -0.1622   -1.2440 C   0  0  0  0  0  0  0  0  0  0  0  0
    6.2929    0.0579   -1.9863 Cl  0  0  0  0  0  0  0  0  0  0  0  0
    3.6090    0.0943   -2.0384 C   0  0  0  0  0  0  0  0  0  0  0  0
    2.3231   -0.0555   -1.5184 C   0  0  0  0  0  0  0  0  0  0  0  0
    2.1983   -0.4596   -0.1982 C   0  0  0  0  0  0  0  0  0  0  0  0
    3.3362   -0.7155    0.5835 C   0  0  0  0  0  0  0  0  0  0  0  0
    2.9463   -1.1077    1.8628 N   0  0  0  0  0  0  0  0  0  0  0  0
    1.5565   -1.1237    2.0034 C   0  0  0  0  0  0  0  0  0  0  0  0
    0.9669   -1.4178    3.0334 O   0  0  0  0  0  0  0  0  0  0  0  0
    0.9682   -0.7109    0.6290 C   0  0  0  0  0  0  0  0  0  0  0  0
    0.0553   -1.7651    0.0765 N   0  0  0  0  0  0  0  0  0  0  0  0
   -1.3690   -1.2883    0.2035 C   0  0  2  0  0  0  0  0  0  0  0  0
   -2.2135   -1.6079   -1.0457 C   0  0  0  0  0  0  0  0  0  0  0  0
   -2.3466   -3.0807   -1.3577 C   0  0  0  0  0  0  0  0  0  0  0  0
   -1.8667   -3.5933   -2.5715 C   0  0  0  0  0  0  0  0  0  0  0  0
   -1.9957   -4.9513   -2.8683 C   0  0  0  0  0  0  0  0  0  0  0  0
   -2.6086   -5.8098   -1.9585 C   0  0  0  0  0  0  0  0  0  0  0  0
   -3.0953   -5.3110   -0.7522 C   0  0  0  0  0  0  0  0  0  0  0  0
   -2.9683   -3.9533   -0.4535 C   0  0  0  0  0  0  0  0  0  0  0  0
   -1.2056    0.1696    0.4341 C   0  0  0  0  0  0  0  0  0  0  0  0
    0.1274    0.4922    0.6787 C   0  0  0  0  0  0  0  0  0  0  0  0
    0.2322    1.8446    0.8609 C   0  0  0  0  0  0  0  0  0  0  0  0
    1.3423    2.5689    0.9950 O   0  0  0  0  0  0  0  0  0  0  0  0
   -1.0751    2.3690    0.8271 N   0  0  0  0  0  0  0  0  0  0  0  0
   -1.4461    3.7227    1.1100 C   0  0  0  0  0  0  0  0  0  0  0  0
   -0.7219    4.4691    2.0553 C   0  0  0  0  0  0  0  0  0  0  0  0
   -1.0817    5.7904    2.3327 C   0  0  0  0  0  0  0  0  0  0  0  0
   -2.1630    6.3611    1.6735 C   0  0  0  0  0  0  0  0  0  0  0  0
   -2.5053    7.6278    1.9410 F   0  0  0  0  0  0  0  0  0  0  0  0
   -2.8979    5.6337    0.7462 C   0  0  0  0  0  0  0  0  0  0  0  0
   -2.5448    4.3109    0.4661 C   0  0  0  0  0  0  0  0  0  0  0  0
   -1.9551    1.3156    0.5079 C   0  0  0  0  0  0  0  0  0  0  0  0
   -3.2701    1.4893    0.4050 O   0  0  0  0  0  0  0  0  0  0  0  0
    5.5832   -1.1890    1.9458 H   0  0  0  0  0  0  0  0  0  0  0  0
    6.4542   -1.6332    0.4844 H   0  0  0  0  0  0  0  0  0  0  0  0
    6.4372    0.0628    1.0488 H   0  0  0  0  0  0  0  0  0  0  0  0
    3.7310    0.4178   -3.0700 H   0  0  0  0  0  0  0  0  0  0  0  0
    1.4509    0.1535   -2.1294 H   0  0  0  0  0  0  0  0  0  0  0  0
    3.5565   -1.3403    2.6303 H   0  0  0  0  0  0  0  0  0  0  0  0
    0.2637   -1.8627   -0.9136 H   0  0  0  0  0  0  0  0  0  0  0  0
   -1.8027   -1.7507    1.0982 H   0  0  0  0  0  0  0  0  0  0  0  0
   -1.7966   -1.0827   -1.9166 H   0  0  0  0  0  0  0  0  0  0  0  0
   -3.2267   -1.2030   -0.9236 H   0  0  0  0  0  0  0  0  0  0  0  0
   -1.3873   -2.9408   -3.2973 H   0  0  0  0  0  0  0  0  0  0  0  0
   -1.6171   -5.3400   -3.8100 H   0  0  0  0  0  0  0  0  0  0  0  0
   -2.7065   -6.8673   -2.1886 H   0  0  0  0  0  0  0  0  0  0  0  0
   -3.5725   -5.9805   -0.0411 H   0  0  0  0  0  0  0  0  0  0  0  0
   -3.3562   -3.5869    0.4940 H   0  0  0  0  0  0  0  0  0  0  0  0
    1.1536    3.4881    0.7342 H   0  0  0  0  0  0  0  0  0  0  0  0
    0.0889    4.0261    2.6308 H   0  0  0  0  0  0  0  0  0  0  0  0
   -0.5367    6.3706    3.0710 H   0  0  0  0  0  0  0  0  0  0  0  0
   -3.7417    6.0982    0.2457 H   0  0  0  0  0  0  0  0  0  0  0  0
   -3.1240    3.7707   -0.2783 H   0  0  0  0  0  0  0  0  0  0  0  0
   -3.6911    0.6131    0.3723 H   0  0  0  0  0  0  0  0  0  0  0  0
  1  2  1  0
  2  3  2  0
  3  4  1  0
  3  5  1  0
  5  6  2  0
  6  7  1  0
  7  8  2  0
  8  9  1  0
  9 10  1  0
 10 11  2  0
 10 12  1  0
 12 13  1  0
 13 14  1  0
 14 15  1  0
 15 16  1  0
 16 17  2  0
 17 18  1  0
 18 19  2  0
 19 20  1  0
 20 21  2  0
 14 22  1  0
 22 23  1  0
 23 24  2  0
 24 25  1  0
 24 26  1  0
 26 27  1  0
 27 28  2  0
 28 29  1  0
 29 30  2  0
 30 31  1  0
 30 32  1  0
 32 33  2  0
 26 34  1  0
 34 35  1  0
  8  2  1  0
 23 12  1  0
 33 27  1  0
 12  7  1  0
 21 16  1  0
 34 22  2  0
  1 36  1  0
  1 37  1  0
  1 38  1  0
  5 39  1  0
  6 40  1  0
  9 41  1  0
 13 42  1  0
 14 43  1  1
 15 44  1  0
 15 45  1  0
 17 46  1  0
 18 47  1  0
 19 48  1  0
 20 49  1  0
 21 50  1  0
 25 51  1  0
 28 52  1  0
 29 53  1  0
 32 54  1  0
 33 55  1  0
 35 56  1  0
M  END
$$$$
