
     RDKit          3D

 51 55  0  0  0  0  0  0  0  0999 V2000
    8.9296    2.8493    1.4032 Cl  0  0  0  0  0  0  0  0  0  0  0  0
    7.5736    1.8586    0.9974 C   0  0  0  0  0  0  0  0  0  0  0  0
    7.2877    0.7738    1.8308 C   0  0  0  0  0  0  0  0  0  0  0  0
    6.2028   -0.0613    1.5529 C   0  0  0  0  0  0  0  0  0  0  0  0
    5.3934    0.1766    0.4354 C   0  0  0  0  0  0  0  0  0  0  0  0
    4.2083   -0.7149    0.1430 C   0  0  0  0  0  0  0  0  0  0  0  0
    2.9191   -0.1726    0.7844 C   0  0  0  0  0  0  0  0  0  0  0  0
    1.7669   -1.0587    0.5566 N   0  0  0  0  0  0  0  0  0  0  0  0
    1.2504   -0.9969   -0.8312 C   0  0  0  0  0  0  0  0  0  0  0  0
   -0.1057   -0.2788   -1.0055 C   0  0  0  0  0  0  0  0  0  0  0  0
   -1.1454   -0.8813   -0.1545 N   0  0  0  0  0  0  0  0  0  0  0  0
   -2.4744   -0.5141   -0.3470 C   0  0  0  0  0  0  0  0  0  0  0  0
   -2.7172    0.5569   -1.0640 N   0  0  0  0  0  0  0  0  0  0  0  0
   -4.0345    1.0096   -1.2656 C   0  0  0  0  0  0  0  0  0  0  0  0
   -4.2295    2.1654   -2.0245 C   0  0  0  0  0  0  0  0  0  0  0  0
   -5.5153    2.6660   -2.2457 C   0  0  0  0  0  0  0  0  0  0  0  0
   -6.6231    2.0115   -1.7063 C   0  0  0  0  0  0  0  0  0  0  0  0
   -6.4517    0.8546   -0.9452 C   0  0  0  0  0  0  0  0  0  0  0  0
   -5.1588    0.3664   -0.7323 C   0  0  0  0  0  0  0  0  0  0  0  0
   -4.8963   -0.7976    0.0076 N   0  0  0  0  0  0  0  0  0  0  0  0
   -5.7770   -1.6539    0.6253 C   0  0  0  0  0  0  0  0  0  0  0  0
   -5.0575   -2.6992    1.1600 C   0  0  0  0  0  0  0  0  0  0  0  0
   -3.6943   -2.4591    0.8702 C   0  0  0  0  0  0  0  0  0  0  0  0
   -3.6082   -1.2552    0.1915 C   0  0  0  0  0  0  0  0  0  0  0  0
   -0.6688   -1.3895    1.1402 C   0  0  0  0  0  0  0  0  0  0  0  0
    0.6911   -0.7714    1.5302 C   0  0  0  0  0  0  0  0  0  0  0  0
    5.6819    1.2697   -0.3950 C   0  0  0  0  0  0  0  0  0  0  0  0
    6.7682    2.1078   -0.1183 C   0  0  0  0  0  0  0  0  0  0  0  0
    7.0548    3.4312   -1.1919 Cl  0  0  0  0  0  0  0  0  0  0  0  0
    7.9073    0.5724    2.7016 H   0  0  0  0  0  0  0  0  0  0  0  0
    5.9945   -0.9003    2.2150 H   0  0  0  0  0  0  0  0  0  0  0  0
    4.4153   -1.7264    0.5166 H   0  0  0  0  0  0  0  0  0  0  0  0
    4.1035   -0.8138   -0.9439 H   0  0  0  0  0  0  0  0  0  0  0  0
    3.1001   -0.0900    1.8650 H   0  0  0  0  0  0  0  0  0  0  0  0
    2.7035    0.8438    0.4286 H   0  0  0  0  0  0  0  0  0  0  0  0
    1.9739   -0.5428   -1.5176 H   0  0  0  0  0  0  0  0  0  0  0  0
    1.1301   -2.0352   -1.1666 H   0  0  0  0  0  0  0  0  0  0  0  0
    0.0058    0.7858   -0.7640 H   0  0  0  0  0  0  0  0  0  0  0  0
   -0.4013   -0.3553   -2.0589 H   0  0  0  0  0  0  0  0  0  0  0  0
   -3.3682    2.6783   -2.4440 H   0  0  0  0  0  0  0  0  0  0  0  0
   -5.6496    3.5669   -2.8388 H   0  0  0  0  0  0  0  0  0  0  0  0
   -7.6220    2.4039   -1.8814 H   0  0  0  0  0  0  0  0  0  0  0  0
   -7.3285    0.3617   -0.5392 H   0  0  0  0  0  0  0  0  0  0  0  0
   -6.8421   -1.4745    0.6247 H   0  0  0  0  0  0  0  0  0  0  0  0
   -5.4719   -3.5478    1.6891 H   0  0  0  0  0  0  0  0  0  0  0  0
   -2.8677   -3.1054    1.1298 H   0  0  0  0  0  0  0  0  0  0  0  0
   -1.3816   -1.1517    1.9381 H   0  0  0  0  0  0  0  0  0  0  0  0
   -0.5742   -2.4800    1.0838 H   0  0  0  0  0  0  0  0  0  0  0  0
    0.9876   -1.1651    2.5096 H   0  0  0  0  0  0  0  0  0  0  0  0
    0.5576    0.3136    1.6430 H   0  0  0  0  0  0  0  0  0  0  0  0
    5.0574    1.4690   -1.2638 H   0  0  0  0  0  0  0  0  0  0  0  0
  1  2  1  0
  2  3  2  0
  3  4  1  0
  4  5  2  0
  5  6  1  0
  6  7  1  0
  7  8  1  0
  8  9  1  0
  9 10  1  0
 10 11  1  0
 11 12  1  0
 12 13  2  0
 13 14  1  0
 14 15  2  0
 15 16  1  0
 16 17  2  0
 17 18  1  0
 18 19  2  0
 19 20  1  0
 20 21  1  0
 21 22  2  0
 22 23  1  0
 23 24  2  0
 11 25  1  0
 25 26  1  0
  5 27  1  0
 27 28  2  0
 28 29  1  0
 28  2  1  0
 26  8  1  0
 24 12  1  0
 19 14  1  0
 24 20  1  0
  3 30  1  0
  4 31  1  0
  6 32  1  0
  6 33  1  0
  7 34  1  0
  7 35  1  0
  9 36  1  0
  9 37  1  0
 10 38  1  0
 10 39  1  0
 15 40  1  0
 16 41  1  0
 17 42  1  0
 18 43  1  0
 21 44  1  0
 22 45  1  0
 23 46  1  0
 25 47  1  0
 25 48  1  0
 26 49  1  0
 26 50  1  0
 27 51  1  0
M  END
$$$$
