
     RDKit          3D

 60 63  0  0  0  0  0  0  0  0999 V2000
    8.7264   -1.7969   -1.2071 C   0  0  0  0  0  0  0  0  0  0  0  0
    7.7329   -1.0032   -1.8445 O   0  0  0  0  0  0  0  0  0  0  0  0
    6.7782   -0.4495   -1.0337 C   0  0  0  0  0  0  0  0  0  0  0  0
    6.7204   -0.5498    0.3577 C   0  0  0  0  0  0  0  0  0  0  0  0
    5.6798    0.0626    1.0645 C   0  0  0  0  0  0  0  0  0  0  0  0
    4.6882    0.7910    0.3936 C   0  0  0  0  0  0  0  0  0  0  0  0
    3.5504    1.4105    1.1656 C   0  0  0  0  0  0  0  0  0  0  0  0
    2.4551    0.4819    1.2883 N   0  0  0  0  0  0  0  0  0  0  0  0
    2.3391   -0.3843    2.3559 C   0  0  0  0  0  0  0  0  0  0  0  0
    3.0972   -0.3588    3.3233 O   0  0  0  0  0  0  0  0  0  0  0  0
    1.3056   -1.5074    2.1590 C   0  0  0  0  0  0  0  0  0  0  0  0
    2.0161   -2.7518    1.6281 C   0  0  0  0  0  0  0  0  0  0  0  0
    0.2091   -1.0645    1.2765 N   0  0  0  0  0  0  0  0  0  0  0  0
    0.4111   -1.1770   -0.1135 N   0  0  0  0  0  0  0  0  0  0  0  0
   -0.5068   -0.8042   -0.9633 C   0  0  0  0  0  0  0  0  0  0  0  0
   -0.2327   -0.9775   -2.4315 C   0  0  0  0  0  0  0  0  0  0  0  0
   -1.7327   -0.2263   -0.4713 C   0  0  0  0  0  0  0  0  0  0  0  0
   -2.8616    0.3039   -1.0752 C   0  0  0  0  0  0  0  0  0  0  0  0
   -3.1407    0.5794   -2.5092 C   0  0  0  0  0  0  0  0  0  0  0  0
   -3.7360    0.6090   -0.0219 N   0  0  0  0  0  0  0  0  0  0  0  0
   -5.1205    0.9619   -0.0354 C   0  0  0  0  0  0  0  0  0  0  0  0
   -5.9536    0.6813   -1.1240 C   0  0  0  0  0  0  0  0  0  0  0  0
   -7.3105    1.0270   -1.0849 C   0  0  0  0  0  0  0  0  0  0  0  0
   -7.8567    1.6586    0.0381 C   0  0  0  0  0  0  0  0  0  0  0  0
   -9.3181    1.9940    0.0931 C   0  0  0  0  0  0  0  0  0  0  0  0
   -7.0338    1.9075    1.1399 C   0  0  0  0  0  0  0  0  0  0  0  0
   -5.6799    1.5596    1.1067 C   0  0  0  0  0  0  0  0  0  0  0  0
   -3.0976    0.5232    1.1757 N   0  0  0  0  0  0  0  0  0  0  0  0
   -1.9263   -0.0579    0.9038 C   0  0  0  0  0  0  0  0  0  0  0  0
   -0.9172   -0.4590    1.8755 C   0  0  0  0  0  0  0  0  0  0  0  0
   -1.0361   -0.2926    3.0863 O   0  0  0  0  0  0  0  0  0  0  0  0
    4.7493    0.8861   -1.0024 C   0  0  0  0  0  0  0  0  0  0  0  0
    5.7897    0.2724   -1.7058 C   0  0  0  0  0  0  0  0  0  0  0  0
    9.3825   -2.1987   -1.9831 H   0  0  0  0  0  0  0  0  0  0  0  0
    8.2779   -2.6467   -0.6805 H   0  0  0  0  0  0  0  0  0  0  0  0
    9.3380   -1.1925   -0.5305 H   0  0  0  0  0  0  0  0  0  0  0  0
    7.4642   -1.0975    0.9284 H   0  0  0  0  0  0  0  0  0  0  0  0
    5.6385   -0.0383    2.1498 H   0  0  0  0  0  0  0  0  0  0  0  0
    3.8871    1.7360    2.1541 H   0  0  0  0  0  0  0  0  0  0  0  0
    3.1729    2.2933    0.6395 H   0  0  0  0  0  0  0  0  0  0  0  0
    1.9502    0.2130    0.4491 H   0  0  0  0  0  0  0  0  0  0  0  0
    0.8864   -1.7326    3.1461 H   0  0  0  0  0  0  0  0  0  0  0  0
    1.3007   -3.5626    1.4507 H   0  0  0  0  0  0  0  0  0  0  0  0
    2.7622   -3.1048    2.3497 H   0  0  0  0  0  0  0  0  0  0  0  0
    2.5468   -2.5523    0.6875 H   0  0  0  0  0  0  0  0  0  0  0  0
   -1.0898   -1.4450   -2.9248 H   0  0  0  0  0  0  0  0  0  0  0  0
   -0.0354    0.0007   -2.8812 H   0  0  0  0  0  0  0  0  0  0  0  0
    0.6455   -1.6130   -2.5832 H   0  0  0  0  0  0  0  0  0  0  0  0
   -3.7930    1.4465   -2.6422 H   0  0  0  0  0  0  0  0  0  0  0  0
   -3.5884   -0.2937   -2.9923 H   0  0  0  0  0  0  0  0  0  0  0  0
   -2.2198    0.8218   -3.0462 H   0  0  0  0  0  0  0  0  0  0  0  0
   -5.6046    0.1476   -1.9999 H   0  0  0  0  0  0  0  0  0  0  0  0
   -7.9438    0.7855   -1.9363 H   0  0  0  0  0  0  0  0  0  0  0  0
   -9.4843    2.9079    0.6730 H   0  0  0  0  0  0  0  0  0  0  0  0
   -9.8741    1.1724    0.5583 H   0  0  0  0  0  0  0  0  0  0  0  0
   -9.7210    2.1675   -0.9109 H   0  0  0  0  0  0  0  0  0  0  0  0
   -7.4389    2.3724    2.0363 H   0  0  0  0  0  0  0  0  0  0  0  0
   -5.0690    1.7714    1.9835 H   0  0  0  0  0  0  0  0  0  0  0  0
    3.9911    1.4359   -1.5517 H   0  0  0  0  0  0  0  0  0  0  0  0
    5.8304    0.3566   -2.7881 H   0  0  0  0  0  0  0  0  0  0  0  0
  1  2  1  0
  2  3  1  0
  3  4  2  0
  4  5  1  0
  5  6  2  0
  6  7  1  0
  7  8  1  0
  8  9  1  0
  9 10  2  0
  9 11  1  0
 11 12  1  0
 11 13  1  0
 13 14  1  0
 14 15  2  0
 15 16  1  0
 15 17  1  0
 17 18  2  0
 18 19  1  0
 18 20  1  0
 20 21  1  0
 21 22  2  0
 22 23  1  0
 23 24  2  0
 24 25  1  0
 24 26  1  0
 26 27  2  0
 20 28  1  0
 28 29  2  0
 29 30  1  0
 30 31  2  0
  6 32  1  0
 32 33  2  0
 33  3  1  0
 30 13  1  0
 29 17  1  0
 27 21  1  0
  1 34  1  0
  1 35  1  0
  1 36  1  0
  4 37  1  0
  5 38  1  0
  7 39  1  0
  7 40  1  0
  8 41  1  0
 11 42  1  0
 12 43  1  0
 12 44  1  0
 12 45  1  0
 16 46  1  0
 16 47  1  0
 16 48  1  0
 19 49  1  0
 19 50  1  0
 19 51  1  0
 22 52  1  0
 23 53  1  0
 25 54  1  0
 25 55  1  0
 25 56  1  0
 26 57  1  0
 27 58  1  0
 32 59  1  0
 33 60  1  0
M  END
$$$$
