
     RDKit          3D

 51 55  0  0  0  0  0  0  0  0999 V2000
    9.2832   -1.5170    1.6485 Cl  0  0  0  0  0  0  0  0  0  0  0  0
    7.7345   -0.7672    1.4939 C   0  0  0  0  0  0  0  0  0  0  0  0
    7.5817    0.2144    0.5110 C   0  0  0  0  0  0  0  0  0  0  0  0
    6.3517    0.8540    0.3392 C   0  0  0  0  0  0  0  0  0  0  0  0
    5.2607    0.5220    1.1518 C   0  0  0  0  0  0  0  0  0  0  0  0
    3.9239    1.1997    0.9553 C   0  0  0  0  0  0  0  0  0  0  0  0
    3.0316    0.4186   -0.0252 C   0  0  0  0  0  0  0  0  0  0  0  0
    1.7494    1.0943   -0.2763 N   0  0  0  0  0  0  0  0  0  0  0  0
    0.7912    0.9761    0.8450 C   0  0  0  0  0  0  0  0  0  0  0  0
   -0.2873   -0.1224    0.6943 C   0  0  0  0  0  0  0  0  0  0  0  0
   -1.0506    0.0171   -0.5535 N   0  0  0  0  0  0  0  0  0  0  0  0
   -2.4349   -0.1249   -0.5875 C   0  0  0  0  0  0  0  0  0  0  0  0
   -3.1146    0.6773   -1.3710 N   0  0  0  0  0  0  0  0  0  0  0  0
   -4.5194    0.6191   -1.4252 C   0  0  0  0  0  0  0  0  0  0  0  0
   -5.1881    1.5122   -2.2648 C   0  0  0  0  0  0  0  0  0  0  0  0
   -6.5831    1.5060   -2.3478 C   0  0  0  0  0  0  0  0  0  0  0  0
   -7.3251    0.6019   -1.5872 C   0  0  0  0  0  0  0  0  0  0  0  0
   -6.6775   -0.2997   -0.7417 C   0  0  0  0  0  0  0  0  0  0  0  0
   -5.2812   -0.2807   -0.6691 C   0  0  0  0  0  0  0  0  0  0  0  0
   -4.5484   -1.1611    0.1427 N   0  0  0  0  0  0  0  0  0  0  0  0
   -4.9998   -2.1643    0.9675 C   0  0  0  0  0  0  0  0  0  0  0  0
   -3.9057   -2.8115    1.4969 C   0  0  0  0  0  0  0  0  0  0  0  0
   -2.7537   -2.1677    0.9885 C   0  0  0  0  0  0  0  0  0  0  0  0
   -3.1700   -1.1199    0.1843 C   0  0  0  0  0  0  0  0  0  0  0  0
   -0.3828    0.8028   -1.6065 C   0  0  0  0  0  0  0  0  0  0  0  0
    1.1443    0.6060   -1.5380 C   0  0  0  0  0  0  0  0  0  0  0  0
    5.4182   -0.4673    2.1335 C   0  0  0  0  0  0  0  0  0  0  0  0
    6.6496   -1.1096    2.3071 C   0  0  0  0  0  0  0  0  0  0  0  0
    6.7585   -2.3161    3.5395 Cl  0  0  0  0  0  0  0  0  0  0  0  0
    8.4190    0.4870   -0.1274 H   0  0  0  0  0  0  0  0  0  0  0  0
    6.2513    1.6147   -0.4334 H   0  0  0  0  0  0  0  0  0  0  0  0
    4.0865    2.2196    0.5827 H   0  0  0  0  0  0  0  0  0  0  0  0
    3.4415    1.3122    1.9332 H   0  0  0  0  0  0  0  0  0  0  0  0
    3.5833    0.3341   -0.9718 H   0  0  0  0  0  0  0  0  0  0  0  0
    2.8672   -0.6074    0.3299 H   0  0  0  0  0  0  0  0  0  0  0  0
    0.2774    1.9435    0.9237 H   0  0  0  0  0  0  0  0  0  0  0  0
    1.3020    0.8399    1.8043 H   0  0  0  0  0  0  0  0  0  0  0  0
    0.1923   -1.1077    0.7097 H   0  0  0  0  0  0  0  0  0  0  0  0
   -0.9492   -0.0537    1.5650 H   0  0  0  0  0  0  0  0  0  0  0  0
   -4.6123    2.2189   -2.8564 H   0  0  0  0  0  0  0  0  0  0  0  0
   -7.0880    2.2080   -3.0064 H   0  0  0  0  0  0  0  0  0  0  0  0
   -8.4104    0.6000   -1.6553 H   0  0  0  0  0  0  0  0  0  0  0  0
   -7.2759   -0.9950   -0.1628 H   0  0  0  0  0  0  0  0  0  0  0  0
   -6.0534   -2.3601    1.1031 H   0  0  0  0  0  0  0  0  0  0  0  0
   -3.9360   -3.6624    2.1654 H   0  0  0  0  0  0  0  0  0  0  0  0
   -1.7302   -2.4494    1.1907 H   0  0  0  0  0  0  0  0  0  0  0  0
   -0.7303    0.4694   -2.5918 H   0  0  0  0  0  0  0  0  0  0  0  0
   -0.6321    1.8662   -1.5021 H   0  0  0  0  0  0  0  0  0  0  0  0
    1.6133    1.1339   -2.3762 H   0  0  0  0  0  0  0  0  0  0  0  0
    1.3509   -0.4654   -1.6698 H   0  0  0  0  0  0  0  0  0  0  0  0
    4.5771   -0.7383    2.7687 H   0  0  0  0  0  0  0  0  0  0  0  0
  1  2  1  0
  2  3  2  0
  3  4  1  0
  4  5  2  0
  5  6  1  0
  6  7  1  0
  7  8  1  0
  8  9  1  0
  9 10  1  0
 10 11  1  0
 11 12  1  0
 12 13  2  0
 13 14  1  0
 14 15  2  0
 15 16  1  0
 16 17  2  0
 17 18  1  0
 18 19  2  0
 19 20  1  0
 20 21  1  0
 21 22  2  0
 22 23  1  0
 23 24  2  0
 11 25  1  0
 25 26  1  0
  5 27  1  0
 27 28  2  0
 28 29  1  0
 28  2  1  0
 26  8  1  0
 24 12  1  0
 19 14  1  0
 24 20  1  0
  3 30  1  0
  4 31  1  0
  6 32  1  0
  6 33  1  0
  7 34  1  0
  7 35  1  0
  9 36  1  0
  9 37  1  0
 10 38  1  0
 10 39  1  0
 15 40  1  0
 16 41  1  0
 17 42  1  0
 18 43  1  0
 21 44  1  0
 22 45  1  0
 23 46  1  0
 25 47  1  0
 25 48  1  0
 26 49  1  0
 26 50  1  0
 27 51  1  0
M  END
$$$$
