
     RDKit          3D

114117  0  0  0  0  0  0  0  0999 V2000
   -1.3537   -3.2335   -4.1309 C   0  0  0  0  0  0  0  0  0  0  0  0
   -0.4160   -3.3592   -2.9263 C   0  0  0  0  0  0  0  0  0  0  0  0
   -0.6386   -4.7148   -2.2462 C   0  0  0  0  0  0  0  0  0  0  0  0
   -0.6007   -2.1757   -1.9502 C   0  0  0  0  0  0  0  0  0  0  0  0
   -1.7907   -2.3426   -1.1579 O   0  0  0  0  0  0  0  0  0  0  0  0
   -2.8625   -1.5912   -1.5004 C   0  0  0  0  0  0  0  0  0  0  0  0
   -2.9565   -0.9798   -2.5637 O   0  0  0  0  0  0  0  0  0  0  0  0
   -3.9628   -1.5867   -0.4208 C   0  0  0  0  0  0  0  0  0  0  0  0
   -3.5995   -2.2654    0.9221 C   0  0  0  0  0  0  0  0  0  0  0  0
   -3.7517   -3.7691    0.9100 C   0  0  0  0  0  0  0  0  0  0  0  0
   -2.6251   -4.5975    0.9938 C   0  0  0  0  0  0  0  0  0  0  0  0
   -2.7633   -5.9854    0.9891 C   0  0  0  0  0  0  0  0  0  0  0  0
   -4.0303   -6.5607    0.8869 C   0  0  0  0  0  0  0  0  0  0  0  0
   -5.1578   -5.7453    0.8117 C   0  0  0  0  0  0  0  0  0  0  0  0
   -5.0228   -4.3570    0.8150 C   0  0  0  0  0  0  0  0  0  0  0  0
   -4.4266   -0.1803   -0.2425 N   0  0  0  0  0  0  0  0  0  0  0  0
   -5.6553    0.1799   -0.9321 C   0  0  0  0  0  0  0  0  0  0  0  0
   -3.5340    0.7216    0.3293 C   0  0  0  0  0  0  0  0  0  0  0  0
   -2.4080    0.3471    0.6704 O   0  0  0  0  0  0  0  0  0  0  0  0
   -3.9562    2.1980    0.5292 C   0  0  0  0  0  0  0  0  0  0  0  0
   -5.0189    2.3260    1.6481 C   0  0  0  0  0  0  0  0  0  0  0  0
   -4.4435    2.0376    3.0358 C   0  0  0  0  0  0  0  0  0  0  0  0
   -5.6287    3.7344    1.6372 C   0  0  0  0  0  0  0  0  0  0  0  0
   -2.8208    3.0060    0.8914 O   0  0  0  0  0  0  0  0  0  0  0  0
   -1.8636    3.1083   -0.0740 C   0  0  0  0  0  0  0  0  0  0  0  0
   -2.0194    2.7749   -1.2459 O   0  0  0  0  0  0  0  0  0  0  0  0
   -0.5839    3.7275    0.4972 C   0  0  0  0  0  0  0  0  0  0  0  0
   -0.4046    5.1247   -0.1266 C   0  0  0  0  0  0  0  0  0  0  0  0
    0.8150    5.8563    0.3871 C   0  0  0  0  0  0  0  0  0  0  0  0
    1.9326    6.0469   -0.4395 C   0  0  0  0  0  0  0  0  0  0  0  0
    3.0675    6.7006    0.0435 C   0  0  0  0  0  0  0  0  0  0  0  0
    3.0925    7.1807    1.3516 C   0  0  0  0  0  0  0  0  0  0  0  0
    1.9848    7.0071    2.1798 C   0  0  0  0  0  0  0  0  0  0  0  0
    0.8501    6.3501    1.6989 C   0  0  0  0  0  0  0  0  0  0  0  0
    0.5995    2.8456    0.3220 N   0  0  0  0  0  0  0  0  0  0  0  0
    0.9276    2.3987   -1.0259 C   0  0  0  0  0  0  0  0  0  0  0  0
    1.0543    2.1727    1.4622 C   0  0  0  0  0  0  0  0  0  0  0  0
    0.4711    2.2876    2.5447 O   0  0  0  0  0  0  0  0  0  0  0  0
    2.3871    1.3846    1.4108 C   0  0  0  0  0  0  0  0  0  0  0  0
    3.5787    2.3690    1.2159 C   0  0  0  0  0  0  0  0  0  0  0  0
    3.7324    3.2994    2.4307 C   0  0  0  0  0  0  0  0  0  0  0  0
    4.9097    1.6595    0.9572 C   0  0  0  0  0  0  0  0  0  0  0  0
    2.3463    0.3690    0.3945 O   0  0  0  0  0  0  0  0  0  0  0  0
    2.9159   -0.8318    0.7231 C   0  0  0  0  0  0  0  0  0  0  0  0
    3.4540   -1.0622    1.7981 O   0  0  0  0  0  0  0  0  0  0  0  0
    2.9870   -1.7622   -0.5090 C   0  0  0  0  0  0  0  0  0  0  0  0
    3.2726   -3.2300   -0.1176 C   0  0  0  0  0  0  0  0  0  0  0  0
    4.7585   -3.5173   -0.0171 C   0  0  0  0  0  0  0  0  0  0  0  0
    5.4051   -3.4918    1.2255 C   0  0  0  0  0  0  0  0  0  0  0  0
    6.7815   -3.7136    1.3133 C   0  0  0  0  0  0  0  0  0  0  0  0
    7.5241   -3.9641    0.1611 C   0  0  0  0  0  0  0  0  0  0  0  0
    6.8904   -4.0006   -1.0816 C   0  0  0  0  0  0  0  0  0  0  0  0
    5.5142   -3.7770   -1.1709 C   0  0  0  0  0  0  0  0  0  0  0  0
    1.8193   -1.6288   -1.4231 N   0  0  0  0  0  0  0  0  0  0  0  0
    2.0925   -1.1048   -2.7557 C   0  0  0  0  0  0  0  0  0  0  0  0
    0.5904   -2.1074   -0.9661 C   0  0  0  0  0  0  0  0  0  0  0  0
    0.4769   -2.4888    0.2028 O   0  0  0  0  0  0  0  0  0  0  0  0
   -1.1749   -4.0458   -4.8400 H   0  0  0  0  0  0  0  0  0  0  0  0
   -2.4085   -3.2765   -3.8348 H   0  0  0  0  0  0  0  0  0  0  0  0
   -1.1866   -2.2853   -4.6560 H   0  0  0  0  0  0  0  0  0  0  0  0
    0.6078   -3.3518   -3.3176 H   0  0  0  0  0  0  0  0  0  0  0  0
   -1.6871   -4.8599   -1.9734 H   0  0  0  0  0  0  0  0  0  0  0  0
   -0.3579   -5.5352   -2.9179 H   0  0  0  0  0  0  0  0  0  0  0  0
   -0.0366   -4.8047   -1.3386 H   0  0  0  0  0  0  0  0  0  0  0  0
   -0.6398   -1.2153   -2.4746 H   0  0  0  0  0  0  0  0  0  0  0  0
   -4.8006   -2.1396   -0.8686 H   0  0  0  0  0  0  0  0  0  0  0  0
   -2.5831   -2.0093    1.2401 H   0  0  0  0  0  0  0  0  0  0  0  0
   -4.2575   -1.8838    1.7100 H   0  0  0  0  0  0  0  0  0  0  0  0
   -1.6293   -4.1621    1.0775 H   0  0  0  0  0  0  0  0  0  0  0  0
   -1.8822   -6.6166    1.0576 H   0  0  0  0  0  0  0  0  0  0  0  0
   -4.1355   -7.6417    0.8839 H   0  0  0  0  0  0  0  0  0  0  0  0
   -6.1467   -6.1943    0.7365 H   0  0  0  0  0  0  0  0  0  0  0  0
   -5.9132   -3.7370    0.7604 H   0  0  0  0  0  0  0  0  0  0  0  0
   -6.4781   -0.3962   -0.4888 H   0  0  0  0  0  0  0  0  0  0  0  0
   -5.5591   -0.0817   -1.9887 H   0  0  0  0  0  0  0  0  0  0  0  0
   -5.8956    1.2398   -0.8637 H   0  0  0  0  0  0  0  0  0  0  0  0
   -4.3577    2.5880   -0.4136 H   0  0  0  0  0  0  0  0  0  0  0  0
   -5.8358    1.6186    1.4706 H   0  0  0  0  0  0  0  0  0  0  0  0
   -3.6771    2.7644    3.3153 H   0  0  0  0  0  0  0  0  0  0  0  0
   -5.2301    2.0873    3.7925 H   0  0  0  0  0  0  0  0  0  0  0  0
   -4.0044    1.0406    3.0809 H   0  0  0  0  0  0  0  0  0  0  0  0
   -4.8723    4.5092    1.8100 H   0  0  0  0  0  0  0  0  0  0  0  0
   -6.3940    3.8347    2.4148 H   0  0  0  0  0  0  0  0  0  0  0  0
   -6.1033    3.9489    0.6674 H   0  0  0  0  0  0  0  0  0  0  0  0
   -0.7478    3.8843    1.5697 H   0  0  0  0  0  0  0  0  0  0  0  0
   -1.2858    5.7399    0.0891 H   0  0  0  0  0  0  0  0  0  0  0  0
   -0.3628    5.0664   -1.2206 H   0  0  0  0  0  0  0  0  0  0  0  0
    1.9333    5.6725   -1.4595 H   0  0  0  0  0  0  0  0  0  0  0  0
    3.9336    6.8382   -0.6017 H   0  0  0  0  0  0  0  0  0  0  0  0
    3.9725    7.6970    1.7278 H   0  0  0  0  0  0  0  0  0  0  0  0
    2.0093    7.3702    3.2051 H   0  0  0  0  0  0  0  0  0  0  0  0
   -0.0008    6.2172    2.3623 H   0  0  0  0  0  0  0  0  0  0  0  0
    0.3740    1.4758   -1.2380 H   0  0  0  0  0  0  0  0  0  0  0  0
    1.9953    2.2013   -1.1360 H   0  0  0  0  0  0  0  0  0  0  0  0
    0.6631    3.1642   -1.7594 H   0  0  0  0  0  0  0  0  0  0  0  0
    2.4767    0.9181    2.4016 H   0  0  0  0  0  0  0  0  0  0  0  0
    3.3935    3.0088    0.3449 H   0  0  0  0  0  0  0  0  0  0  0  0
    2.8295    3.8956    2.5918 H   0  0  0  0  0  0  0  0  0  0  0  0
    3.9284    2.7297    3.3469 H   0  0  0  0  0  0  0  0  0  0  0  0
    4.5639    3.9983    2.2840 H   0  0  0  0  0  0  0  0  0  0  0  0
    5.1792    0.9950    1.7836 H   0  0  0  0  0  0  0  0  0  0  0  0
    4.8712    1.0748    0.0319 H   0  0  0  0  0  0  0  0  0  0  0  0
    5.7214    2.3874    0.8395 H   0  0  0  0  0  0  0  0  0  0  0  0
    3.8487   -1.3813   -1.0756 H   0  0  0  0  0  0  0  0  0  0  0  0
    2.7884   -3.4935    0.8286 H   0  0  0  0  0  0  0  0  0  0  0  0
    2.8585   -3.9170   -0.8695 H   0  0  0  0  0  0  0  0  0  0  0  0
    4.8446   -3.2907    2.1356 H   0  0  0  0  0  0  0  0  0  0  0  0
    7.2708   -3.6883    2.2838 H   0  0  0  0  0  0  0  0  0  0  0  0
    8.5958   -4.1361    0.2343 H   0  0  0  0  0  0  0  0  0  0  0  0
    7.4715   -4.1983   -1.9791 H   0  0  0  0  0  0  0  0  0  0  0  0
    5.0362   -3.8079   -2.1469 H   0  0  0  0  0  0  0  0  0  0  0  0
    1.1875   -0.8813   -3.3225 H   0  0  0  0  0  0  0  0  0  0  0  0
    2.6808   -1.8441   -3.3075 H   0  0  0  0  0  0  0  0  0  0  0  0
    2.6729   -0.1803   -2.6589 H   0  0  0  0  0  0  0  0  0  0  0  0
  1  2  1  0
  2  3  1  0
  2  4  1  0
  4  5  1  0
  5  6  1  0
  6  7  2  0
  6  8  1  0
  8  9  1  0
  9 10  1  0
 10 11  2  0
 11 12  1  0
 12 13  2  0
 13 14  1  0
 14 15  2  0
  8 16  1  0
 16 17  1  0
 16 18  1  0
 18 19  2  0
 18 20  1  0
 20 21  1  0
 21 22  1  0
 21 23  1  0
 20 24  1  0
 24 25  1  0
 25 26  2  0
 25 27  1  0
 27 28  1  0
 28 29  1  0
 29 30  2  0
 30 31  1  0
 31 32  2  0
 32 33  1  0
 33 34  2  0
 27 35  1  0
 35 36  1  0
 35 37  1  0
 37 38  2  0
 37 39  1  0
 39 40  1  0
 40 41  1  0
 40 42  1  0
 39 43  1  0
 43 44  1  0
 44 45  2  0
 44 46  1  0
 46 47  1  0
 47 48  1  0
 48 49  2  0
 49 50  1  0
 50 51  2  0
 51 52  1  0
 52 53  2  0
 46 54  1  0
 54 55  1  0
 54 56  1  0
 56 57  2  0
 56  4  1  0
 15 10  1  0
 34 29  1  0
 53 48  1  0
  1 58  1  0
  1 59  1  0
  1 60  1  0
  2 61  1  0
  3 62  1  0
  3 63  1  0
  3 64  1  0
  4 65  1  0
  8 66  1  0
  9 67  1  0
  9 68  1  0
 11 69  1  0
 12 70  1  0
 13 71  1  0
 14 72  1  0
 15 73  1  0
 17 74  1  0
 17 75  1  0
 17 76  1  0
 20 77  1  0
 21 78  1  0
 22 79  1  0
 22 80  1  0
 22 81  1  0
 23 82  1  0
 23 83  1  0
 23 84  1  0
 27 85  1  0
 28 86  1  0
 28 87  1  0
 30 88  1  0
 31 89  1  0
 32 90  1  0
 33 91  1  0
 34 92  1  0
 36 93  1  0
 36 94  1  0
 36 95  1  0
 39 96  1  0
 40 97  1  0
 41 98  1  0
 41 99  1  0
 41100  1  0
 42101  1  0
 42102  1  0
 42103  1  0
 46104  1  0
 47105  1  0
 47106  1  0
 49107  1  0
 50108  1  0
 51109  1  0
 52110  1  0
 53111  1  0
 55112  1  0
 55113  1  0
 55114  1  0
M  END
$$$$
