
     RDKit          3D

 40 42  0  0  0  0  0  0  0  0999 V2000
   -6.4774    1.2202    0.4449 C   0  0  0  0  0  0  0  0  0  0  0  0
   -6.7795   -0.3351   -0.3725 S   0  0  0  0  0  6  0  0  0  0  0  0
   -6.6638   -0.1409   -1.7999 O   0  0  0  0  0  0  0  0  0  0  0  0
   -7.9754   -0.9064    0.2110 O   0  0  0  0  0  0  0  0  0  0  0  0
   -5.5131   -1.2915    0.1841 N   0  0  0  0  0  0  0  0  0  0  0  0
   -4.1559   -0.9157   -0.0210 C   0  0  0  0  0  0  0  0  0  0  0  0
   -3.2934   -0.9377    1.0796 C   0  0  0  0  0  0  0  0  0  0  0  0
   -1.9462   -0.5916    0.9304 C   0  0  0  0  0  0  0  0  0  0  0  0
   -1.4528   -0.2388   -0.3312 C   0  0  0  0  0  0  0  0  0  0  0  0
   -0.0294    0.1492   -0.5322 C   0  0  0  0  0  0  0  0  0  0  0  0
    0.2137    1.0572   -1.3160 O   0  0  0  0  0  0  0  0  0  0  0  0
    0.8808   -0.6038    0.1863 N   0  0  0  0  0  0  0  0  0  0  0  0
    2.2818   -0.4378    0.2300 C   0  0  0  0  0  0  0  0  0  0  0  0
    3.0124   -1.3858    0.9619 C   0  0  0  0  0  0  0  0  0  0  0  0
    4.4041   -1.2981    1.0573 C   0  0  0  0  0  0  0  0  0  0  0  0
    5.0762   -0.2605    0.4209 C   0  0  0  0  0  0  0  0  0  0  0  0
    4.3546    0.7061   -0.2842 C   0  0  0  0  0  0  0  0  0  0  0  0
    2.9646    0.6104   -0.3915 C   0  0  0  0  0  0  0  0  0  0  0  0
    4.9481    1.7770   -0.9050 O   0  0  0  0  0  0  0  0  0  0  0  0
    6.2936    1.9649   -0.4541 C   0  0  0  0  0  0  0  0  0  0  0  0
    7.0362    0.6397   -0.4185 C   0  0  0  0  0  0  0  0  0  0  0  0
    6.4421   -0.2470    0.5370 O   0  0  0  0  0  0  0  0  0  0  0  0
   -2.3153   -0.2206   -1.4322 C   0  0  0  0  0  0  0  0  0  0  0  0
   -3.6596   -0.5735   -1.2788 C   0  0  0  0  0  0  0  0  0  0  0  0
   -7.3162    1.8829    0.2197 H   0  0  0  0  0  0  0  0  0  0  0  0
   -6.4216    1.0500    1.5217 H   0  0  0  0  0  0  0  0  0  0  0  0
   -5.5532    1.6577    0.0645 H   0  0  0  0  0  0  0  0  0  0  0  0
   -5.7505   -1.7720    1.0514 H   0  0  0  0  0  0  0  0  0  0  0  0
   -3.6607   -1.2085    2.0662 H   0  0  0  0  0  0  0  0  0  0  0  0
   -1.3041   -0.5737    1.8073 H   0  0  0  0  0  0  0  0  0  0  0  0
    0.5207   -1.4093    0.6808 H   0  0  0  0  0  0  0  0  0  0  0  0
    2.5124   -2.2110    1.4621 H   0  0  0  0  0  0  0  0  0  0  0  0
    4.9621   -2.0436    1.6167 H   0  0  0  0  0  0  0  0  0  0  0  0
    2.4440    1.3774   -0.9555 H   0  0  0  0  0  0  0  0  0  0  0  0
    6.2672    2.4374    0.5357 H   0  0  0  0  0  0  0  0  0  0  0  0
    6.7831    2.6547   -1.1486 H   0  0  0  0  0  0  0  0  0  0  0  0
    7.0308    0.1492   -1.3999 H   0  0  0  0  0  0  0  0  0  0  0  0
    8.0778    0.7972   -0.1215 H   0  0  0  0  0  0  0  0  0  0  0  0
   -1.9411    0.0589   -2.4160 H   0  0  0  0  0  0  0  0  0  0  0  0
   -4.2971   -0.5872   -2.1596 H   0  0  0  0  0  0  0  0  0  0  0  0
  1  2  1  0
  2  3  2  0
  2  4  2  0
  2  5  1  0
  5  6  1  0
  6  7  2  0
  7  8  1  0
  8  9  2  0
  9 10  1  0
 10 11  2  0
 10 12  1  0
 12 13  1  0
 13 14  2  0
 14 15  1  0
 15 16  2  0
 16 17  1  0
 17 18  2  0
 17 19  1  0
 19 20  1  0
 20 21  1  0
 21 22  1  0
  9 23  1  0
 23 24  2  0
 24  6  1  0
 18 13  1  0
 22 16  1  0
  1 25  1  0
  1 26  1  0
  1 27  1  0
  5 28  1  0
  7 29  1  0
  8 30  1  0
 12 31  1  0
 14 32  1  0
 15 33  1  0
 18 34  1  0
 20 35  1  0
 20 36  1  0
 21 37  1  0
 21 38  1  0
 23 39  1  0
 24 40  1  0
M  END
$$$$
