
     RDKit          3D

 54 57  0  0  0  0  0  0  0  0999 V2000
   -4.6216    4.4918   -2.5250 C   0  0  0  0  0  0  0  0  0  0  0  0
   -3.9669    3.2292   -2.0481 C   0  0  0  0  0  0  0  0  0  0  0  0
   -4.5343    1.9814   -2.3017 C   0  0  0  0  0  0  0  0  0  0  0  0
   -3.9060    0.7973   -1.8753 C   0  0  0  0  0  0  0  0  0  0  0  0
   -4.5750   -0.5112   -2.2113 C   0  0  0  0  0  0  0  0  0  0  0  0
   -2.6684    0.8635   -1.1871 C   0  0  0  0  0  0  0  0  0  0  0  0
   -2.0661   -0.3646   -0.8141 N   0  0  0  0  0  0  0  0  0  0  0  0
   -0.7057   -0.6475   -0.8239 C   0  0  0  0  0  0  0  0  0  0  0  0
    0.1759    0.0918   -1.2537 O   0  0  0  0  0  0  0  0  0  0  0  0
   -0.4015   -2.0700   -0.3312 C   0  0  0  0  0  0  0  0  0  0  0  0
    0.9261   -2.1644    0.2754 N   0  0  0  0  0  0  0  0  0  0  0  0
    1.0041   -1.8728    1.6326 C   0  0  0  0  0  0  0  0  0  0  0  0
   -0.0083   -1.5859    2.2783 O   0  0  0  0  0  0  0  0  0  0  0  0
    2.2555   -1.9323    2.2223 N   0  0  0  0  0  0  0  0  0  0  0  0
    2.3546   -1.6055    3.6380 C   0  0  0  0  0  0  0  0  0  0  0  0
    2.5645   -0.1371    3.8025 C   0  0  0  0  0  0  0  0  0  0  0  0
    1.7866    0.9724    3.5334 C   0  0  0  0  0  0  0  0  0  0  0  0
    2.5504    2.1011    3.9146 C   0  0  0  0  0  0  0  0  0  0  0  0
    3.7406    1.6114    4.3987 C   0  0  0  0  0  0  0  0  0  0  0  0
    3.7557    0.2550    4.3402 O   0  0  0  0  0  0  0  0  0  0  0  0
    3.4197   -2.3051    1.5687 C   0  0  0  0  0  0  0  0  0  0  0  0
    4.4994   -2.4848    2.1275 O   0  0  0  0  0  0  0  0  0  0  0  0
    3.3252   -2.5097    0.1150 C   0  0  0  0  0  0  0  0  0  0  0  0
    4.4919   -2.7832   -0.6170 C   0  0  0  0  0  0  0  0  0  0  0  0
    4.4251   -2.9612   -1.9949 C   0  0  0  0  0  0  0  0  0  0  0  0
    3.1967   -2.8597   -2.6379 C   0  0  0  0  0  0  0  0  0  0  0  0
    2.0354   -2.5902   -1.9036 C   0  0  0  0  0  0  0  0  0  0  0  0
    2.0823   -2.4201   -0.5108 C   0  0  0  0  0  0  0  0  0  0  0  0
   -2.1296    2.1259   -0.8591 C   0  0  0  0  0  0  0  0  0  0  0  0
   -0.9263    2.3393    0.0213 C   0  0  0  0  0  0  0  0  0  0  0  0
   -2.7720    3.2895   -1.3279 C   0  0  0  0  0  0  0  0  0  0  0  0
   -3.9709    5.0055   -3.2405 H   0  0  0  0  0  0  0  0  0  0  0  0
   -4.8232    5.1572   -1.6789 H   0  0  0  0  0  0  0  0  0  0  0  0
   -5.5753    4.2873   -3.0232 H   0  0  0  0  0  0  0  0  0  0  0  0
   -5.4733    1.9269   -2.8495 H   0  0  0  0  0  0  0  0  0  0  0  0
   -3.9076   -1.1369   -2.8121 H   0  0  0  0  0  0  0  0  0  0  0  0
   -5.4927   -0.3618   -2.7918 H   0  0  0  0  0  0  0  0  0  0  0  0
   -4.8523   -1.0408   -1.2940 H   0  0  0  0  0  0  0  0  0  0  0  0
   -2.6763   -1.1700   -0.8064 H   0  0  0  0  0  0  0  0  0  0  0  0
   -0.5119   -2.7773   -1.1594 H   0  0  0  0  0  0  0  0  0  0  0  0
   -1.1598   -2.3593    0.4079 H   0  0  0  0  0  0  0  0  0  0  0  0
    3.1786   -2.1610    4.1001 H   0  0  0  0  0  0  0  0  0  0  0  0
    1.4390   -1.9027    4.1620 H   0  0  0  0  0  0  0  0  0  0  0  0
    0.7918    0.9620    3.1070 H   0  0  0  0  0  0  0  0  0  0  0  0
    2.2701    3.1427    3.8450 H   0  0  0  0  0  0  0  0  0  0  0  0
    4.6329    2.0706    4.8004 H   0  0  0  0  0  0  0  0  0  0  0  0
    5.4544   -2.8484   -0.1124 H   0  0  0  0  0  0  0  0  0  0  0  0
    5.3286   -3.1650   -2.5638 H   0  0  0  0  0  0  0  0  0  0  0  0
    3.1380   -2.9786   -3.7174 H   0  0  0  0  0  0  0  0  0  0  0  0
    1.1127   -2.4920   -2.4662 H   0  0  0  0  0  0  0  0  0  0  0  0
   -0.8013    1.5287    0.7455 H   0  0  0  0  0  0  0  0  0  0  0  0
   -1.0474    3.2509    0.6196 H   0  0  0  0  0  0  0  0  0  0  0  0
   -0.0211    2.4539   -0.5821 H   0  0  0  0  0  0  0  0  0  0  0  0
   -2.3411    4.2639   -1.1023 H   0  0  0  0  0  0  0  0  0  0  0  0
  1  2  1  0
  2  3  2  0
  3  4  1  0
  4  5  1  0
  4  6  2  0
  6  7  1  0
  7  8  1  0
  8  9  2  0
  8 10  1  0
 10 11  1  0
 11 12  1  0
 12 13  2  0
 12 14  1  0
 14 15  1  0
 15 16  1  0
 16 17  2  0
 17 18  1  0
 18 19  2  0
 19 20  1  0
 14 21  1  0
 21 22  2  0
 21 23  1  0
 23 24  2  0
 24 25  1  0
 25 26  2  0
 26 27  1  0
 27 28  2  0
  6 29  1  0
 29 30  1  0
 29 31  2  0
 31  2  1  0
 28 11  1  0
 20 16  1  0
 28 23  1  0
  1 32  1  0
  1 33  1  0
  1 34  1  0
  3 35  1  0
  5 36  1  0
  5 37  1  0
  5 38  1  0
  7 39  1  0
 10 40  1  0
 10 41  1  0
 15 42  1  0
 15 43  1  0
 17 44  1  0
 18 45  1  0
 19 46  1  0
 24 47  1  0
 25 48  1  0
 26 49  1  0
 27 50  1  0
 30 51  1  0
 30 52  1  0
 30 53  1  0
 31 54  1  0
M  END
$$$$
