
     RDKit          3D

 39 41  0  0  0  0  0  0  0  0999 V2000
   -4.9626   -0.2818   -0.5021 C   0  0  0  0  0  0  0  0  0  0  0  0
   -3.8469    0.6646   -0.9240 C   0  0  0  0  0  0  0  0  0  0  0  0
   -2.6321    0.4522   -0.1413 N   0  0  0  0  0  0  0  0  0  0  0  0
   -2.5087    1.1611    1.0442 C   0  0  0  0  0  0  0  0  0  0  0  0
   -3.3600    1.9391    1.4698 O   0  0  0  0  0  0  0  0  0  0  0  0
   -1.2800    0.9450    1.8207 C   0  0  0  0  0  0  0  0  0  0  0  0
   -1.0793    1.6785    3.0017 C   0  0  0  0  0  0  0  0  0  0  0  0
    0.0751    1.4894    3.7538 C   0  0  0  0  0  0  0  0  0  0  0  0
    1.0238    0.5686    3.3263 C   0  0  0  0  0  0  0  0  0  0  0  0
    0.8176   -0.1617    2.1495 C   0  0  0  0  0  0  0  0  0  0  0  0
   -0.3402    0.0166    1.3749 C   0  0  0  0  0  0  0  0  0  0  0  0
   -0.5877   -0.7111    0.1761 N   0  0  0  0  0  0  0  0  0  0  0  0
    0.3693   -1.7138   -0.3056 C   0  0  0  0  0  0  0  0  0  0  0  0
    1.5807   -1.1235   -1.0059 C   0  0  0  0  0  0  0  0  0  0  0  0
    2.8722   -1.5601   -0.6659 C   0  0  0  0  0  0  0  0  0  0  0  0
    3.9962   -1.0410   -1.3146 C   0  0  0  0  0  0  0  0  0  0  0  0
    3.8309   -0.0854   -2.3243 C   0  0  0  0  0  0  0  0  0  0  0  0
    5.0088    0.4630   -3.0075 N   0  0  0  0  0  4  0  0  0  0  0  0
    6.1237    0.0575   -2.6481 O   0  0  0  0  0  0  0  0  0  0  0  0
    4.8206    1.3002   -3.9016 O   0  0  0  0  0  1  0  0  0  0  0  0
    2.5514    0.3450   -2.6915 C   0  0  0  0  0  0  0  0  0  0  0  0
    1.4340   -0.1801   -2.0364 C   0  0  0  0  0  0  0  0  0  0  0  0
   -1.7344   -0.5082   -0.5882 C   0  0  0  0  0  0  0  0  0  0  0  0
   -1.9426   -1.1496   -1.6217 O   0  0  0  0  0  0  0  0  0  0  0  0
   -5.8602   -0.1016   -1.1016 H   0  0  0  0  0  0  0  0  0  0  0  0
   -5.2214   -0.1413    0.5524 H   0  0  0  0  0  0  0  0  0  0  0  0
   -4.6659   -1.3271   -0.6361 H   0  0  0  0  0  0  0  0  0  0  0  0
   -4.1848    1.7004   -0.8052 H   0  0  0  0  0  0  0  0  0  0  0  0
   -3.6302    0.5221   -1.9888 H   0  0  0  0  0  0  0  0  0  0  0  0
   -1.8244    2.3989    3.3350 H   0  0  0  0  0  0  0  0  0  0  0  0
    0.2322    2.0579    4.6672 H   0  0  0  0  0  0  0  0  0  0  0  0
    1.9303    0.4152    3.9079 H   0  0  0  0  0  0  0  0  0  0  0  0
    1.5951   -0.8639    1.8705 H   0  0  0  0  0  0  0  0  0  0  0  0
    0.6648   -2.3477    0.5393 H   0  0  0  0  0  0  0  0  0  0  0  0
   -0.1122   -2.4006   -1.0125 H   0  0  0  0  0  0  0  0  0  0  0  0
    3.0145   -2.3116    0.1090 H   0  0  0  0  0  0  0  0  0  0  0  0
    4.9849   -1.3929   -1.0265 H   0  0  0  0  0  0  0  0  0  0  0  0
    2.4047    1.0778   -3.4826 H   0  0  0  0  0  0  0  0  0  0  0  0
    0.4431    0.1497   -2.3452 H   0  0  0  0  0  0  0  0  0  0  0  0
  1  2  1  0
  2  3  1  0
  3  4  1  0
  4  5  2  0
  4  6  1  0
  6  7  2  0
  7  8  1  0
  8  9  2  0
  9 10  1  0
 10 11  2  0
 11 12  1  0
 12 13  1  0
 13 14  1  0
 14 15  2  0
 15 16  1  0
 16 17  2  0
 17 18  1  0
 18 19  2  0
 18 20  1  0
 17 21  1  0
 21 22  2  0
 12 23  1  0
 23 24  2  0
 23  3  1  0
 11  6  1  0
 22 14  1  0
  1 25  1  0
  1 26  1  0
  1 27  1  0
  2 28  1  0
  2 29  1  0
  7 30  1  0
  8 31  1  0
  9 32  1  0
 10 33  1  0
 13 34  1  0
 13 35  1  0
 15 36  1  0
 16 37  1  0
 21 38  1  0
 22 39  1  0
M  CHG  2  18   1  20  -1
M  END
$$$$
