
     RDKit          3D

 40 42  0  0  0  0  0  0  0  0999 V2000
   -6.1415    0.6275   -1.5302 C   0  0  0  0  0  0  0  0  0  0  0  0
   -6.4546   -0.8219   -0.5414 S   0  0  0  0  0  6  0  0  0  0  0  0
   -5.8303   -1.9587   -1.1810 O   0  0  0  0  0  0  0  0  0  0  0  0
   -7.8640   -0.8237   -0.2120 O   0  0  0  0  0  0  0  0  0  0  0  0
   -5.6510   -0.4569    0.8931 N   0  0  0  0  0  0  0  0  0  0  0  0
   -4.2403   -0.2786    0.8879 C   0  0  0  0  0  0  0  0  0  0  0  0
   -3.3834   -1.3218    0.5364 C   0  0  0  0  0  0  0  0  0  0  0  0
   -1.9989   -1.1241    0.5247 C   0  0  0  0  0  0  0  0  0  0  0  0
   -1.4683    0.1285    0.8573 C   0  0  0  0  0  0  0  0  0  0  0  0
    0.0003    0.3919    0.8612 C   0  0  0  0  0  0  0  0  0  0  0  0
    0.4358    1.2018    1.6701 O   0  0  0  0  0  0  0  0  0  0  0  0
    0.7214   -0.2924   -0.1006 N   0  0  0  0  0  0  0  0  0  0  0  0
    2.1187   -0.2676   -0.3014 C   0  0  0  0  0  0  0  0  0  0  0  0
    2.6155   -0.9834   -1.4011 C   0  0  0  0  0  0  0  0  0  0  0  0
    3.9869   -1.0239   -1.6682 C   0  0  0  0  0  0  0  0  0  0  0  0
    4.8736   -0.3530   -0.8333 C   0  0  0  0  0  0  0  0  0  0  0  0
    4.3867    0.3815    0.2509 C   0  0  0  0  0  0  0  0  0  0  0  0
    3.0167    0.4115    0.5254 C   0  0  0  0  0  0  0  0  0  0  0  0
    5.2006    1.0917    1.0983 O   0  0  0  0  0  0  0  0  0  0  0  0
    6.5039    1.2786    0.5366 C   0  0  0  0  0  0  0  0  0  0  0  0
    7.0259   -0.0236   -0.0469 C   0  0  0  0  0  0  0  0  0  0  0  0
    6.2059   -0.4531   -1.1402 O   0  0  0  0  0  0  0  0  0  0  0  0
   -2.3325    1.1655    1.2338 C   0  0  0  0  0  0  0  0  0  0  0  0
   -3.7155    0.9630    1.2475 C   0  0  0  0  0  0  0  0  0  0  0  0
   -6.4817    1.5097   -0.9847 H   0  0  0  0  0  0  0  0  0  0  0  0
   -5.0761    0.6885   -1.7574 H   0  0  0  0  0  0  0  0  0  0  0  0
   -6.7088    0.5266   -2.4583 H   0  0  0  0  0  0  0  0  0  0  0  0
   -6.2015    0.1415    1.5087 H   0  0  0  0  0  0  0  0  0  0  0  0
   -3.7824   -2.3045    0.2924 H   0  0  0  0  0  0  0  0  0  0  0  0
   -1.3555   -1.9674    0.2885 H   0  0  0  0  0  0  0  0  0  0  0  0
    0.1951   -0.8239   -0.7811 H   0  0  0  0  0  0  0  0  0  0  0  0
    1.9450   -1.5224   -2.0654 H   0  0  0  0  0  0  0  0  0  0  0  0
    4.3620   -1.5866   -2.5185 H   0  0  0  0  0  0  0  0  0  0  0  0
    2.6837    0.9782    1.3885 H   0  0  0  0  0  0  0  0  0  0  0  0
    6.4466    2.0662   -0.2250 H   0  0  0  0  0  0  0  0  0  0  0  0
    7.1638    1.6259    1.3377 H   0  0  0  0  0  0  0  0  0  0  0  0
    7.0480   -0.8211    0.7062 H   0  0  0  0  0  0  0  0  0  0  0  0
    8.0423    0.1133   -0.4290 H   0  0  0  0  0  0  0  0  0  0  0  0
   -1.9266    2.1348    1.5200 H   0  0  0  0  0  0  0  0  0  0  0  0
   -4.3654    1.7823    1.5420 H   0  0  0  0  0  0  0  0  0  0  0  0
  1  2  1  0
  2  3  2  0
  2  4  2  0
  2  5  1  0
  5  6  1  0
  6  7  2  0
  7  8  1  0
  8  9  2  0
  9 10  1  0
 10 11  2  0
 10 12  1  0
 12 13  1  0
 13 14  2  0
 14 15  1  0
 15 16  2  0
 16 17  1  0
 17 18  2  0
 17 19  1  0
 19 20  1  0
 20 21  1  0
 21 22  1  0
  9 23  1  0
 23 24  2  0
 24  6  1  0
 18 13  1  0
 22 16  1  0
  1 25  1  0
  1 26  1  0
  1 27  1  0
  5 28  1  0
  7 29  1  0
  8 30  1  0
 12 31  1  0
 14 32  1  0
 15 33  1  0
 18 34  1  0
 20 35  1  0
 20 36  1  0
 21 37  1  0
 21 38  1  0
 23 39  1  0
 24 40  1  0
M  END
$$$$
