
     RDKit          3D

 58 62  0  0  0  0  0  0  0  0999 V2000
    5.1697   -0.1658    6.1882 C   0  0  0  0  0  0  0  0  0  0  0  0
    5.5212    0.5054    4.9858 O   0  0  0  0  0  0  0  0  0  0  0  0
    4.6756    0.3683    3.9131 C   0  0  0  0  0  0  0  0  0  0  0  0
    3.6059   -0.5289    3.8625 C   0  0  0  0  0  0  0  0  0  0  0  0
    2.8016   -0.6032    2.7211 C   0  0  0  0  0  0  0  0  0  0  0  0
    3.0481    0.2144    1.6119 C   0  0  0  0  0  0  0  0  0  0  0  0
    2.1856    0.1127    0.4375 C   0  0  0  0  0  0  0  0  0  0  0  0
    1.1840   -0.7135    0.2053 N   0  0  0  0  0  0  0  0  0  0  0  0
    0.7147   -0.3509   -1.0430 C   0  0  0  0  0  0  0  0  0  0  0  0
   -0.4315   -1.0811   -1.6487 C   0  0  0  0  0  0  0  0  0  0  0  0
   -1.4519   -0.1817   -2.1627 N   0  0  0  0  0  0  0  0  0  0  0  0
   -2.3854    0.5168   -1.4385 C   0  0  0  0  0  0  0  0  0  0  0  0
   -2.4940    0.4595    0.2884 S   0  0  0  0  0  0  0  0  0  0  0  0
   -4.2970    0.3847    0.5062 C   0  0  0  0  0  0  0  0  0  0  0  0
   -4.8576   -0.9747    0.1607 C   0  0  0  0  0  0  0  0  0  0  0  0
   -4.7750   -2.0390    1.0756 C   0  0  0  0  0  0  0  0  0  0  0  0
   -5.2654   -3.3053    0.7433 C   0  0  0  0  0  0  0  0  0  0  0  0
   -5.8416   -3.5212   -0.5070 C   0  0  0  0  0  0  0  0  0  0  0  0
   -5.9240   -2.4705   -1.4138 C   0  0  0  0  0  0  0  0  0  0  0  0
   -6.4729   -2.6816   -2.6177 F   0  0  0  0  0  0  0  0  0  0  0  0
   -5.4395   -1.2057   -1.0944 C   0  0  0  0  0  0  0  0  0  0  0  0
   -3.1775    1.2269   -2.2081 N   0  0  0  0  0  0  0  0  0  0  0  0
   -2.7631    0.9679   -3.4887 C   0  0  0  0  0  0  0  0  0  0  0  0
   -3.2619    1.4603   -4.6938 C   0  0  0  0  0  0  0  0  0  0  0  0
   -2.6285    1.0036   -5.8367 C   0  0  0  0  0  0  0  0  0  0  0  0
   -1.5914    0.1337   -5.8510 N   0  0  0  0  0  0  0  0  0  0  0  0
   -1.1138   -0.3499   -4.6818 C   0  0  0  0  0  0  0  0  0  0  0  0
   -1.6952    0.0765   -3.4964 C   0  0  0  0  0  0  0  0  0  0  0  0
    1.4884    0.6838   -1.5317 C   0  0  0  0  0  0  0  0  0  0  0  0
    1.5132    1.4869   -2.7687 C   0  0  0  0  0  0  0  0  0  0  0  0
    2.4288    0.9871   -0.5881 O   0  0  0  0  0  0  0  0  0  0  0  0
    4.1272    1.1107    1.6651 C   0  0  0  0  0  0  0  0  0  0  0  0
    4.9444    1.1909    2.8008 C   0  0  0  0  0  0  0  0  0  0  0  0
    6.0178    2.0401    2.9252 O   0  0  0  0  0  0  0  0  0  0  0  0
    6.3607    2.8442    1.8041 C   0  0  0  0  0  0  0  0  0  0  0  0
    5.2313   -1.2515    6.0645 H   0  0  0  0  0  0  0  0  0  0  0  0
    4.1776    0.1381    6.5374 H   0  0  0  0  0  0  0  0  0  0  0  0
    5.8933    0.1218    6.9567 H   0  0  0  0  0  0  0  0  0  0  0  0
    3.3733   -1.1908    4.6902 H   0  0  0  0  0  0  0  0  0  0  0  0
    1.9728   -1.3093    2.7017 H   0  0  0  0  0  0  0  0  0  0  0  0
   -0.9111   -1.7469   -0.9228 H   0  0  0  0  0  0  0  0  0  0  0  0
   -0.0753   -1.7131   -2.4687 H   0  0  0  0  0  0  0  0  0  0  0  0
   -4.5201    0.6042    1.5570 H   0  0  0  0  0  0  0  0  0  0  0  0
   -4.7906    1.1721   -0.0747 H   0  0  0  0  0  0  0  0  0  0  0  0
   -4.3190   -1.8865    2.0528 H   0  0  0  0  0  0  0  0  0  0  0  0
   -5.1928   -4.1218    1.4573 H   0  0  0  0  0  0  0  0  0  0  0  0
   -6.2234   -4.4997   -0.7820 H   0  0  0  0  0  0  0  0  0  0  0  0
   -5.5098   -0.4107   -1.8343 H   0  0  0  0  0  0  0  0  0  0  0  0
   -4.0899    2.1545   -4.7284 H   0  0  0  0  0  0  0  0  0  0  0  0
   -2.9542    1.3409   -6.8174 H   0  0  0  0  0  0  0  0  0  0  0  0
   -0.2853   -1.0442   -4.7433 H   0  0  0  0  0  0  0  0  0  0  0  0
    2.3962    2.1331   -2.8049 H   0  0  0  0  0  0  0  0  0  0  0  0
    1.5408    0.8372   -3.6490 H   0  0  0  0  0  0  0  0  0  0  0  0
    0.6270    2.1255   -2.8299 H   0  0  0  0  0  0  0  0  0  0  0  0
    4.3156    1.7430    0.8046 H   0  0  0  0  0  0  0  0  0  0  0  0
    5.5612    3.5557    1.5707 H   0  0  0  0  0  0  0  0  0  0  0  0
    7.2530    3.4214    2.0658 H   0  0  0  0  0  0  0  0  0  0  0  0
    6.6098    2.2256    0.9346 H   0  0  0  0  0  0  0  0  0  0  0  0
  1  2  1  0
  2  3  1  0
  3  4  2  0
  4  5  1  0
  5  6  2  0
  6  7  1  0
  7  8  2  0
  8  9  1  0
  9 10  1  0
 10 11  1  0
 11 12  1  0
 12 13  1  0
 13 14  1  0
 14 15  1  0
 15 16  2  0
 16 17  1  0
 17 18  2  0
 18 19  1  0
 19 20  1  0
 19 21  2  0
 12 22  2  0
 22 23  1  0
 23 24  2  0
 24 25  1  0
 25 26  2  0
 26 27  1  0
 27 28  2  0
  9 29  2  0
 29 30  1  0
 29 31  1  0
  6 32  1  0
 32 33  2  0
 33 34  1  0
 34 35  1  0
 33  3  1  0
 31  7  1  0
 28 11  1  0
 21 15  1  0
 28 23  1  0
  1 36  1  0
  1 37  1  0
  1 38  1  0
  4 39  1  0
  5 40  1  0
 10 41  1  0
 10 42  1  0
 14 43  1  0
 14 44  1  0
 16 45  1  0
 17 46  1  0
 18 47  1  0
 21 48  1  0
 24 49  1  0
 25 50  1  0
 27 51  1  0
 30 52  1  0
 30 53  1  0
 30 54  1  0
 32 55  1  0
 35 56  1  0
 35 57  1  0
 35 58  1  0
M  END
$$$$
