
     RDKit          3D

 62 65  0  0  0  0  0  0  0  0999 V2000
   -2.0563    0.2222   -2.6955 C   0  0  0  0  0  0  0  0  0  0  0  0
   -2.5310   -0.7010   -1.5826 C   0  0  0  0  0  0  0  0  0  0  0  0
   -3.0357    0.0646   -0.4513 N   0  0  0  0  0  0  0  0  0  0  0  0
   -2.4422    0.3162    0.7956 C   0  0  0  0  0  0  0  0  0  0  0  0
   -1.1631    0.2366    1.2178 C   0  0  0  0  0  0  0  0  0  0  0  0
    0.0268   -0.0554    0.4467 C   0  0  0  0  0  0  0  0  0  0  0  0
    1.2276   -0.2290    1.0169 C   0  0  0  0  0  0  0  0  0  0  0  0
    2.5029   -0.4846    0.2946 C   0  0  0  0  0  0  0  0  0  0  0  0
    3.6355   -0.7362    0.8921 N   0  0  0  0  0  4  0  0  0  0  0  0
    3.9395   -0.9012    2.3298 C   0  0  0  0  0  0  0  0  0  0  0  0
    4.3651    0.4280    2.9248 C   0  0  0  0  0  0  0  0  0  0  0  0
    4.7106   -0.8807   -0.1047 C   0  0  0  0  0  0  0  0  0  0  0  0
    6.0598   -1.1182    0.0981 C   0  0  0  0  0  0  0  0  0  0  0  0
    6.8803   -1.2020   -1.0297 C   0  0  0  0  0  0  0  0  0  0  0  0
    6.3436   -1.0464   -2.3174 C   0  0  0  0  0  0  0  0  0  0  0  0
    4.9807   -0.8027   -2.4988 C   0  0  0  0  0  0  0  0  0  0  0  0
    4.1731   -0.7206   -1.3741 C   0  0  0  0  0  0  0  0  0  0  0  0
    2.6889   -0.4661   -1.2585 C   0  0  0  0  0  0  0  0  0  0  0  0
    2.3552    0.9021   -1.8618 C   0  0  0  0  0  0  0  0  0  0  0  0
    1.9313   -1.6078   -1.9459 C   0  0  0  0  0  0  0  0  0  0  0  0
   -3.5671    0.7986    1.7827 C   0  0  0  0  0  0  0  0  0  0  0  0
   -3.2965    2.2133    2.3177 C   0  0  0  0  0  0  0  0  0  0  0  0
   -3.7720   -0.1966    2.9343 C   0  0  0  0  0  0  0  0  0  0  0  0
   -4.7830    0.8077    0.8760 C   0  0  0  0  0  0  0  0  0  0  0  0
   -6.0923    1.1662    1.1750 C   0  0  0  0  0  0  0  0  0  0  0  0
   -7.0494    1.0799    0.1658 C   0  0  0  0  0  0  0  0  0  0  0  0
   -6.6896    0.6407   -1.1146 C   0  0  0  0  0  0  0  0  0  0  0  0
   -5.3680    0.2805   -1.4023 C   0  0  0  0  0  0  0  0  0  0  0  0
   -4.4104    0.3625   -0.4021 C   0  0  0  0  0  0  0  0  0  0  0  0
   -2.8830    0.8111   -3.1053 H   0  0  0  0  0  0  0  0  0  0  0  0
   -1.2988    0.9265   -2.3400 H   0  0  0  0  0  0  0  0  0  0  0  0
   -1.6223   -0.3633   -3.5120 H   0  0  0  0  0  0  0  0  0  0  0  0
   -3.2910   -1.3887   -1.9735 H   0  0  0  0  0  0  0  0  0  0  0  0
   -1.7135   -1.3591   -1.2709 H   0  0  0  0  0  0  0  0  0  0  0  0
   -0.9802    0.4669    2.2675 H   0  0  0  0  0  0  0  0  0  0  0  0
   -0.1024   -0.0809   -0.6232 H   0  0  0  0  0  0  0  0  0  0  0  0
    1.2871   -0.1673    2.1011 H   0  0  0  0  0  0  0  0  0  0  0  0
    3.0460   -1.2819    2.8340 H   0  0  0  0  0  0  0  0  0  0  0  0
    4.7138   -1.6656    2.4499 H   0  0  0  0  0  0  0  0  0  0  0  0
    4.5743    0.3110    3.9929 H   0  0  0  0  0  0  0  0  0  0  0  0
    3.5814    1.1857    2.8169 H   0  0  0  0  0  0  0  0  0  0  0  0
    5.2712    0.8156    2.4468 H   0  0  0  0  0  0  0  0  0  0  0  0
    6.5027   -1.2351    1.0812 H   0  0  0  0  0  0  0  0  0  0  0  0
    7.9482   -1.3880   -0.9162 H   0  0  0  0  0  0  0  0  0  0  0  0
    7.0000   -1.1144   -3.1850 H   0  0  0  0  0  0  0  0  0  0  0  0
    4.5797   -0.6812   -3.5025 H   0  0  0  0  0  0  0  0  0  0  0  0
    2.8669    1.7098   -1.3241 H   0  0  0  0  0  0  0  0  0  0  0  0
    2.6572    0.9632   -2.9137 H   0  0  0  0  0  0  0  0  0  0  0  0
    1.2851    1.1210   -1.8257 H   0  0  0  0  0  0  0  0  0  0  0  0
    0.8497   -1.4578   -1.9334 H   0  0  0  0  0  0  0  0  0  0  0  0
    2.2238   -1.7083   -2.9977 H   0  0  0  0  0  0  0  0  0  0  0  0
    2.1283   -2.5691   -1.4558 H   0  0  0  0  0  0  0  0  0  0  0  0
   -4.1389    2.5831    2.9140 H   0  0  0  0  0  0  0  0  0  0  0  0
   -2.4101    2.2394    2.9609 H   0  0  0  0  0  0  0  0  0  0  0  0
   -3.1363    2.9284    1.5017 H   0  0  0  0  0  0  0  0  0  0  0  0
   -4.6294    0.0844    3.5573 H   0  0  0  0  0  0  0  0  0  0  0  0
   -2.8944   -0.2398    3.5890 H   0  0  0  0  0  0  0  0  0  0  0  0
   -3.9587   -1.2114    2.5619 H   0  0  0  0  0  0  0  0  0  0  0  0
   -6.3722    1.5044    2.1674 H   0  0  0  0  0  0  0  0  0  0  0  0
   -8.0812    1.3554    0.3713 H   0  0  0  0  0  0  0  0  0  0  0  0
   -7.4464    0.5815   -1.8938 H   0  0  0  0  0  0  0  0  0  0  0  0
   -5.1214   -0.0458   -2.4059 H   0  0  0  0  0  0  0  0  0  0  0  0
  1  2  1  0
  2  3  1  0
  3  4  1  0
  4  5  2  3
  5  6  1  0
  6  7  2  3
  7  8  1  0
  8  9  2  0
  9 10  1  0
 10 11  1  0
  9 12  1  0
 12 13  2  0
 13 14  1  0
 14 15  2  0
 15 16  1  0
 16 17  2  0
 17 18  1  0
 18 19  1  0
 18 20  1  0
  4 21  1  0
 21 22  1  0
 21 23  1  0
 21 24  1  0
 24 25  2  0
 25 26  1  0
 26 27  2  0
 27 28  1  0
 28 29  2  0
 29  3  1  0
 18  8  1  0
 29 24  1  0
 17 12  1  0
  1 30  1  0
  1 31  1  0
  1 32  1  0
  2 33  1  0
  2 34  1  0
  5 35  1  0
  6 36  1  0
  7 37  1  0
 10 38  1  0
 10 39  1  0
 11 40  1  0
 11 41  1  0
 11 42  1  0
 13 43  1  0
 14 44  1  0
 15 45  1  0
 16 46  1  0
 19 47  1  0
 19 48  1  0
 19 49  1  0
 20 50  1  0
 20 51  1  0
 20 52  1  0
 22 53  1  0
 22 54  1  0
 22 55  1  0
 23 56  1  0
 23 57  1  0
 23 58  1  0
 25 59  1  0
 26 60  1  0
 27 61  1  0
 28 62  1  0
M  CHG  1   9   1
M  END
$$$$
