
     RDKit          3D

 52 56  0  0  0  0  0  0  0  0999 V2000
    3.0870   -3.0184   -1.1536 O   0  0  0  0  0  0  0  0  0  0  0  0
    2.4317   -2.7112   -0.1641 C   0  0  0  0  0  0  0  0  0  0  0  0
    1.5538   -3.7466    0.5290 C   0  0  0  0  0  0  0  0  0  0  0  0
   -0.1599   -3.6456   -0.0429 S   0  0  0  0  0  0  0  0  0  0  0  0
   -0.7133   -2.2268    0.7845 C   0  0  0  0  0  0  0  0  0  0  0  0
   -0.0656   -1.6447    1.7718 N   0  0  0  0  0  0  0  0  0  0  0  0
   -0.8228   -0.6013    2.2154 N   0  0  0  0  0  0  0  0  0  0  0  0
   -1.9272   -0.5521    1.4915 C   0  0  0  0  0  0  0  0  0  0  0  0
   -2.9619    0.5228    1.6048 C   0  0  0  0  0  0  0  0  0  0  0  0
   -3.1639    1.3186    0.3493 C   0  0  0  0  0  0  0  0  0  0  0  0
   -4.2831    1.3630   -0.4645 C   0  0  0  0  0  0  0  0  0  0  0  0
   -4.1065    2.2168   -1.5902 C   0  0  0  0  0  0  0  0  0  0  0  0
   -2.8728    2.8267   -1.5851 C   0  0  0  0  0  0  0  0  0  0  0  0
   -1.9332    2.3653   -0.2300 S   0  0  0  0  0  0  0  0  0  0  0  0
   -1.9177   -1.5900    0.5637 N   0  0  0  0  0  0  0  0  0  0  0  0
   -2.9235   -1.9262   -0.3696 C   0  0  0  0  0  0  0  0  0  0  0  0
   -2.6001   -2.0827   -1.7243 C   0  0  0  0  0  0  0  0  0  0  0  0
   -3.6017   -2.3912   -2.6467 C   0  0  0  0  0  0  0  0  0  0  0  0
   -4.9193   -2.5569   -2.2216 C   0  0  0  0  0  0  0  0  0  0  0  0
   -5.2409   -2.4143   -0.8712 C   0  0  0  0  0  0  0  0  0  0  0  0
   -4.2464   -2.0923    0.0599 C   0  0  0  0  0  0  0  0  0  0  0  0
    2.4168   -1.4818    0.4620 N   0  0  0  0  0  0  0  0  0  0  0  0
    3.1645   -0.3314    0.1522 C   0  0  0  0  0  0  0  0  0  0  0  0
    4.0498   -0.2404   -0.9238 C   0  0  0  0  0  0  0  0  0  0  0  0
    4.7932    0.9271   -1.1336 C   0  0  0  0  0  0  0  0  0  0  0  0
    4.6627    2.0036   -0.2612 C   0  0  0  0  0  0  0  0  0  0  0  0
    3.7538    1.9345    0.7996 C   0  0  0  0  0  0  0  0  0  0  0  0
    3.0109    0.7702    1.0040 C   0  0  0  0  0  0  0  0  0  0  0  0
    3.5571    2.9589    1.6973 O   0  0  0  0  0  0  0  0  0  0  0  0
    4.1648    4.1783    1.2577 C   0  0  0  0  0  0  0  0  0  0  0  0
    5.5468    3.9233    0.6800 C   0  0  0  0  0  0  0  0  0  0  0  0
    5.4554    3.1008   -0.4931 O   0  0  0  0  0  0  0  0  0  0  0  0
    1.9402   -4.7383    0.2748 H   0  0  0  0  0  0  0  0  0  0  0  0
    1.6294   -3.6552    1.6145 H   0  0  0  0  0  0  0  0  0  0  0  0
   -3.9060    0.0876    1.9394 H   0  0  0  0  0  0  0  0  0  0  0  0
   -2.6663    1.2126    2.4095 H   0  0  0  0  0  0  0  0  0  0  0  0
   -5.1827    0.7889   -0.2755 H   0  0  0  0  0  0  0  0  0  0  0  0
   -4.8495    2.3680   -2.3587 H   0  0  0  0  0  0  0  0  0  0  0  0
   -2.4750    3.5232   -2.3094 H   0  0  0  0  0  0  0  0  0  0  0  0
   -1.5848   -1.9309   -2.0863 H   0  0  0  0  0  0  0  0  0  0  0  0
   -3.3560   -2.4940   -3.7016 H   0  0  0  0  0  0  0  0  0  0  0  0
   -5.6933   -2.7985   -2.9459 H   0  0  0  0  0  0  0  0  0  0  0  0
   -6.2640   -2.5599   -0.5394 H   0  0  0  0  0  0  0  0  0  0  0  0
   -4.5181   -2.0128    1.1121 H   0  0  0  0  0  0  0  0  0  0  0  0
    1.7741   -1.3839    1.2548 H   0  0  0  0  0  0  0  0  0  0  0  0
    4.1903   -1.0620   -1.6115 H   0  0  0  0  0  0  0  0  0  0  0  0
    5.4879    0.9848   -1.9632 H   0  0  0  0  0  0  0  0  0  0  0  0
    2.3211    0.7310    1.8408 H   0  0  0  0  0  0  0  0  0  0  0  0
    4.2370    4.8388    2.1241 H   0  0  0  0  0  0  0  0  0  0  0  0
    3.5049    4.6494    0.5213 H   0  0  0  0  0  0  0  0  0  0  0  0
    6.2034    3.4236    1.4067 H   0  0  0  0  0  0  0  0  0  0  0  0
    6.0189    4.8714    0.3901 H   0  0  0  0  0  0  0  0  0  0  0  0
  1  2  2  0
  2  3  1  0
  3  4  1  0
  4  5  1  0
  5  6  2  0
  6  7  1  0
  7  8  2  0
  8  9  1  0
  9 10  1  0
 10 11  2  0
 11 12  1  0
 12 13  2  0
 13 14  1  0
  8 15  1  0
 15 16  1  0
 16 17  2  0
 17 18  1  0
 18 19  2  0
 19 20  1  0
 20 21  2  0
  2 22  1  0
 22 23  1  0
 23 24  2  0
 24 25  1  0
 25 26  2  0
 26 27  1  0
 27 28  2  0
 27 29  1  0
 29 30  1  0
 30 31  1  0
 31 32  1  0
 15  5  1  0
 21 16  1  0
 28 23  1  0
 14 10  1  0
 32 26  1  0
  3 33  1  0
  3 34  1  0
  9 35  1  0
  9 36  1  0
 11 37  1  0
 12 38  1  0
 13 39  1  0
 17 40  1  0
 18 41  1  0
 19 42  1  0
 20 43  1  0
 21 44  1  0
 22 45  1  0
 24 46  1  0
 25 47  1  0
 28 48  1  0
 30 49  1  0
 30 50  1  0
 31 51  1  0
 31 52  1  0
M  END
$$$$
