
     RDKit          3D

 36 36  0  0  0  0  0  0  0  0999 V2000
    2.7641   -3.6532    2.7582 C   0  0  0  0  0  0  0  0  0  0  0  0
    2.3484   -3.3505    1.3297 C   0  0  0  0  0  0  0  0  0  0  0  0
    1.0115   -3.7696    1.0627 O   0  0  0  0  0  0  0  0  0  0  0  0
    0.0239   -2.9468    1.6808 C   0  0  0  0  0  0  0  0  0  0  0  0
   -1.3243   -3.2321    1.0277 C   0  0  0  0  0  0  0  0  0  0  0  0
   -1.3847   -2.7842   -0.4329 C   0  0  0  0  0  0  0  0  0  0  0  0
   -1.6458   -1.3575   -0.5618 N   0  0  0  0  0  0  0  0  0  0  0  0
   -0.6437   -0.4400   -0.7914 C   0  0  0  0  0  0  0  0  0  0  0  0
    0.5393   -0.7597   -0.8702 O   0  0  0  0  0  0  0  0  0  0  0  0
   -1.0725    0.9939   -0.9322 C   0  0  0  0  0  0  0  0  0  0  0  0
   -2.4350    1.3339   -0.7385 C   0  0  0  0  0  0  0  0  0  0  0  0
   -3.5575    1.5732   -0.5653 N   0  0  0  0  0  0  0  0  0  0  0  0
   -0.1086    1.8762   -1.2594 C   0  0  0  0  0  0  0  0  0  0  0  0
   -0.2649    3.2808   -1.4527 C   0  0  0  0  0  0  0  0  0  0  0  0
   -1.2125    4.2032   -1.0050 C   0  0  0  0  0  0  0  0  0  0  0  0
   -0.8619    5.4875   -1.4985 C   0  0  0  0  0  0  0  0  0  0  0  0
    0.2894    5.2895   -2.2111 C   0  0  0  0  0  0  0  0  0  0  0  0
    1.1282    6.1895   -2.9368 N   0  0  0  0  0  4  0  0  0  0  0  0
    0.7785    7.3778   -2.9425 O   0  0  0  0  0  0  0  0  0  0  0  0
    2.1280    5.7251   -3.4984 O   0  0  0  0  0  1  0  0  0  0  0  0
    0.6678    3.9889   -2.1904 O   0  0  0  0  0  0  0  0  0  0  0  0
    3.8269   -3.4391    2.9036 H   0  0  0  0  0  0  0  0  0  0  0  0
    2.5774   -4.7044    3.0003 H   0  0  0  0  0  0  0  0  0  0  0  0
    2.1947   -3.0511    3.4728 H   0  0  0  0  0  0  0  0  0  0  0  0
    2.4690   -2.2867    1.0964 H   0  0  0  0  0  0  0  0  0  0  0  0
    2.9971   -3.9078    0.6458 H   0  0  0  0  0  0  0  0  0  0  0  0
   -0.0325   -3.2048    2.7437 H   0  0  0  0  0  0  0  0  0  0  0  0
    0.2820   -1.8864    1.5946 H   0  0  0  0  0  0  0  0  0  0  0  0
   -1.4994   -4.3147    1.0558 H   0  0  0  0  0  0  0  0  0  0  0  0
   -2.1225   -2.7499    1.6037 H   0  0  0  0  0  0  0  0  0  0  0  0
   -2.2265   -3.2845   -0.9245 H   0  0  0  0  0  0  0  0  0  0  0  0
   -0.4754   -3.0529   -0.9803 H   0  0  0  0  0  0  0  0  0  0  0  0
   -2.6170   -1.0760   -0.4987 H   0  0  0  0  0  0  0  0  0  0  0  0
    0.9042    1.5124   -1.4346 H   0  0  0  0  0  0  0  0  0  0  0  0
   -2.0685    3.9940   -0.3766 H   0  0  0  0  0  0  0  0  0  0  0  0
   -1.3774    6.4260   -1.3450 H   0  0  0  0  0  0  0  0  0  0  0  0
  1  2  1  0
  2  3  1  0
  3  4  1  0
  4  5  1  0
  5  6  1  0
  6  7  1  0
  7  8  1  0
  8  9  2  0
  8 10  1  0
 10 11  1  0
 11 12  3  0
 10 13  2  3
 13 14  1  0
 14 15  2  0
 15 16  1  0
 16 17  2  0
 17 18  1  0
 18 19  2  0
 18 20  1  0
 17 21  1  0
 21 14  1  0
  1 22  1  0
  1 23  1  0
  1 24  1  0
  2 25  1  0
  2 26  1  0
  4 27  1  0
  4 28  1  0
  5 29  1  0
  5 30  1  0
  6 31  1  0
  6 32  1  0
  7 33  1  0
 13 34  1  0
 15 35  1  0
 16 36  1  0
M  CHG  2  18   1  20  -1
M  END
$$$$
