
     RDKit          3D

 43 46  0  0  0  0  0  0  0  0999 V2000
   -1.6635    1.7123   -1.0854 O   0  0  0  0  0  0  0  0  0  0  0  0
   -1.8917    0.7789   -0.3257 C   0  0  0  0  0  0  0  0  0  0  0  0
   -0.9646   -0.0738    0.2458 N   0  0  0  0  0  0  0  0  0  0  0  0
    0.4397   -0.0037    0.1410 C   0  0  0  0  0  0  0  0  0  0  0  0
    1.1797   -1.0288    0.7394 C   0  0  0  0  0  0  0  0  0  0  0  0
    2.5803   -1.0326    0.6874 C   0  0  0  0  0  0  0  0  0  0  0  0
    3.2654   -0.0088    0.0369 C   0  0  0  0  0  0  0  0  0  0  0  0
    4.6672    0.0688   -0.0655 N   0  0  0  0  0  0  0  0  0  0  0  0
    5.6185   -0.8059    0.4335 C   0  0  0  0  0  0  0  0  0  0  0  0
    5.3591   -1.8233    1.0703 O   0  0  0  0  0  0  0  0  0  0  0  0
    7.0043   -0.4289    0.1456 C   0  0  0  0  0  0  0  0  0  0  0  0
    8.1415   -1.1216    0.5246 C   0  0  0  0  0  0  0  0  0  0  0  0
    9.3429   -0.4923    0.0893 C   0  0  0  0  0  0  0  0  0  0  0  0
    9.0902    0.6649   -0.6110 C   0  0  0  0  0  0  0  0  0  0  0  0
    7.4160    0.9839   -0.7386 S   0  0  0  0  0  0  0  0  0  0  0  0
    2.5252    1.0180   -0.5587 C   0  0  0  0  0  0  0  0  0  0  0  0
    1.1249    1.0220   -0.5062 C   0  0  0  0  0  0  0  0  0  0  0  0
   -3.3110    0.4724    0.0091 C   0  0  0  0  0  0  0  0  0  0  0  0
   -3.6859    0.0285    1.2814 C   0  0  0  0  0  0  0  0  0  0  0  0
   -5.0281   -0.2482    1.5544 C   0  0  0  0  0  0  0  0  0  0  0  0
   -6.0123   -0.0778    0.5672 C   0  0  0  0  0  0  0  0  0  0  0  0
   -7.3641   -0.3537    0.8277 C   0  0  0  0  0  0  0  0  0  0  0  0
   -8.3323   -0.1730   -0.1614 C   0  0  0  0  0  0  0  0  0  0  0  0
   -7.9625    0.2870   -1.4218 C   0  0  0  0  0  0  0  0  0  0  0  0
   -6.6232    0.5669   -1.6971 C   0  0  0  0  0  0  0  0  0  0  0  0
   -5.6367    0.3887   -0.7143 C   0  0  0  0  0  0  0  0  0  0  0  0
   -4.2859    0.6653   -0.9775 C   0  0  0  0  0  0  0  0  0  0  0  0
   -1.3252   -0.8794    0.7400 H   0  0  0  0  0  0  0  0  0  0  0  0
    0.6843   -1.8468    1.2561 H   0  0  0  0  0  0  0  0  0  0  0  0
    3.1004   -1.8553    1.1676 H   0  0  0  0  0  0  0  0  0  0  0  0
    5.0374    0.8657   -0.5689 H   0  0  0  0  0  0  0  0  0  0  0  0
    8.1029   -2.0448    1.0930 H   0  0  0  0  0  0  0  0  0  0  0  0
   10.3400   -0.8703    0.2807 H   0  0  0  0  0  0  0  0  0  0  0  0
    9.8094    1.3400   -1.0549 H   0  0  0  0  0  0  0  0  0  0  0  0
    3.0201    1.8369   -1.0750 H   0  0  0  0  0  0  0  0  0  0  0  0
    0.6019    1.8466   -0.9803 H   0  0  0  0  0  0  0  0  0  0  0  0
   -2.9551   -0.0777    2.0783 H   0  0  0  0  0  0  0  0  0  0  0  0
   -5.3046   -0.5887    2.5503 H   0  0  0  0  0  0  0  0  0  0  0  0
   -7.6752   -0.7112    1.8068 H   0  0  0  0  0  0  0  0  0  0  0  0
   -9.3756   -0.3896    0.0537 H   0  0  0  0  0  0  0  0  0  0  0  0
   -8.7160    0.4301   -2.1921 H   0  0  0  0  0  0  0  0  0  0  0  0
   -6.3544    0.9278   -2.6878 H   0  0  0  0  0  0  0  0  0  0  0  0
   -3.9837    1.0314   -1.9577 H   0  0  0  0  0  0  0  0  0  0  0  0
  1  2  2  0
  2  3  1  0
  3  4  1  0
  4  5  2  0
  5  6  1  0
  6  7  2  0
  7  8  1  0
  8  9  1  0
  9 10  2  0
  9 11  1  0
 11 12  2  0
 12 13  1  0
 13 14  2  0
 14 15  1  0
  7 16  1  0
 16 17  2  0
  2 18  1  0
 18 19  2  0
 19 20  1  0
 20 21  2  0
 21 22  1  0
 22 23  2  0
 23 24  1  0
 24 25  2  0
 25 26  1  0
 26 27  2  0
 17  4  1  0
 27 18  1  0
 15 11  1  0
 26 21  1  0
  3 28  1  0
  5 29  1  0
  6 30  1  0
  8 31  1  0
 12 32  1  0
 13 33  1  0
 14 34  1  0
 16 35  1  0
 17 36  1  0
 19 37  1  0
 20 38  1  0
 22 39  1  0
 23 40  1  0
 24 41  1  0
 25 42  1  0
 27 43  1  0
M  END
$$$$
