
     RDKit          3D

 56 61  0  0  0  0  0  0  0  0999 V2000
    5.8755   -0.8311    0.3711 C   0  0  0  0  0  0  0  0  0  0  0  0
    4.5471   -0.6926   -0.3092 C   0  0  0  0  0  0  0  0  0  0  0  0
    4.4483   -0.4879   -1.6987 C   0  0  0  0  0  0  0  0  0  0  0  0
    5.8624   -0.3800   -2.6918 Cl  0  0  0  0  0  0  0  0  0  0  0  0
    3.2006   -0.3681   -2.3420 C   0  0  0  0  0  0  0  0  0  0  0  0
    2.0115   -0.4480   -1.6167 C   0  0  0  0  0  0  0  0  0  0  0  0
    2.0942   -0.6458   -0.2479 C   0  0  0  0  0  0  0  0  0  0  0  0
    3.3434   -0.7727    0.3815 C   0  0  0  0  0  0  0  0  0  0  0  0
    3.1592   -0.9974    1.7454 N   0  0  0  0  0  0  0  0  0  0  0  0
    1.8075   -1.0354    2.0840 C   0  0  0  0  0  0  0  0  0  0  0  0
    1.3675   -1.2758    3.1994 O   0  0  0  0  0  0  0  0  0  0  0  0
    1.0080   -0.7769    0.7835 C   0  0  0  0  0  0  0  0  0  0  0  0
    0.0170   -1.8726    0.5050 N   0  0  0  0  0  0  0  0  0  0  0  0
   -1.3605   -1.2747    0.3109 C   0  0  2  0  0  0  0  0  0  0  0  0
   -1.9235   -1.5880   -1.0847 C   0  0  0  0  0  0  0  0  0  0  0  0
   -2.3604   -3.0273   -1.2374 C   0  0  0  0  0  0  0  0  0  0  0  0
   -3.6784   -3.4037   -0.9447 C   0  0  0  0  0  0  0  0  0  0  0  0
   -4.0780   -4.7349   -1.0729 C   0  0  0  0  0  0  0  0  0  0  0  0
   -3.1645   -5.7013   -1.4901 C   0  0  0  0  0  0  0  0  0  0  0  0
   -1.8501   -5.3382   -1.7778 C   0  0  0  0  0  0  0  0  0  0  0  0
   -1.4489   -4.0077   -1.6509 C   0  0  0  0  0  0  0  0  0  0  0  0
   -1.1313    0.1679    0.5393 C   0  0  0  0  0  0  0  0  0  0  0  0
    0.2047    0.4499    0.7969 C   0  0  0  0  0  0  0  0  0  0  0  0
    0.3353    1.7894    1.0481 C   0  0  0  0  0  0  0  0  0  0  0  0
    1.4218    2.4460    1.4512 O   0  0  0  0  0  0  0  0  0  0  0  0
   -0.9393    2.3628    0.8831 N   0  0  0  0  0  0  0  0  0  0  0  0
   -1.2572    3.7456    1.0282 C   0  0  0  0  0  0  0  0  0  0  0  0
   -0.3663    4.7231    0.5587 C   0  0  0  0  0  0  0  0  0  0  0  0
   -0.6815    6.0759    0.7008 C   0  0  0  0  0  0  0  0  0  0  0  0
   -1.8753    6.4443    1.3107 C   0  0  0  0  0  0  0  0  0  0  0  0
   -2.1729    7.7427    1.4463 F   0  0  0  0  0  0  0  0  0  0  0  0
   -2.7645    5.4854    1.7827 C   0  0  0  0  0  0  0  0  0  0  0  0
   -2.4592    4.1302    1.6419 C   0  0  0  0  0  0  0  0  0  0  0  0
   -1.8443    1.3357    0.5551 C   0  0  0  0  0  0  0  0  0  0  0  0
   -3.1295    1.5144    0.2545 O   0  0  0  0  0  0  0  0  0  0  0  0
    5.7836   -0.9134    1.4575 H   0  0  0  0  0  0  0  0  0  0  0  0
    6.3898   -1.7306    0.0175 H   0  0  0  0  0  0  0  0  0  0  0  0
    6.4997    0.0466    0.1735 H   0  0  0  0  0  0  0  0  0  0  0  0
    3.1560   -0.2132   -3.4179 H   0  0  0  0  0  0  0  0  0  0  0  0
    1.0509   -0.3572   -2.1129 H   0  0  0  0  0  0  0  0  0  0  0  0
    3.8848   -1.1454    2.4288 H   0  0  0  0  0  0  0  0  0  0  0  0
   -0.0419   -2.4216    1.3657 H   0  0  0  0  0  0  0  0  0  0  0  0
   -2.0245   -1.6656    1.0925 H   0  0  0  0  0  0  0  0  0  0  0  0
   -1.1939   -1.3435   -1.8681 H   0  0  0  0  0  0  0  0  0  0  0  0
   -2.7865   -0.9415   -1.2942 H   0  0  0  0  0  0  0  0  0  0  0  0
   -4.4020   -2.6612   -0.6155 H   0  0  0  0  0  0  0  0  0  0  0  0
   -5.1023   -5.0181   -0.8458 H   0  0  0  0  0  0  0  0  0  0  0  0
   -3.4758   -6.7377   -1.5883 H   0  0  0  0  0  0  0  0  0  0  0  0
   -1.1348   -6.0912   -2.0975 H   0  0  0  0  0  0  0  0  0  0  0  0
   -0.4171   -3.7380   -1.8672 H   0  0  0  0  0  0  0  0  0  0  0  0
    1.1500    3.2467    1.9344 H   0  0  0  0  0  0  0  0  0  0  0  0
    0.5528    4.4532    0.0407 H   0  0  0  0  0  0  0  0  0  0  0  0
   -0.0092    6.8447    0.3314 H   0  0  0  0  0  0  0  0  0  0  0  0
   -3.6840    5.8002    2.2674 H   0  0  0  0  0  0  0  0  0  0  0  0
   -3.1455    3.3950    2.0595 H   0  0  0  0  0  0  0  0  0  0  0  0
   -3.2689    2.4381   -0.0199 H   0  0  0  0  0  0  0  0  0  0  0  0
  1  2  1  0
  2  3  2  0
  3  4  1  0
  3  5  1  0
  5  6  2  0
  6  7  1  0
  7  8  2  0
  8  9  1  0
  9 10  1  0
 10 11  2  0
 10 12  1  0
 12 13  1  0
 13 14  1  0
 14 15  1  0
 15 16  1  0
 16 17  2  0
 17 18  1  0
 18 19  2  0
 19 20  1  0
 20 21  2  0
 14 22  1  0
 22 23  1  0
 23 24  2  0
 24 25  1  0
 24 26  1  0
 26 27  1  0
 27 28  2  0
 28 29  1  0
 29 30  2  0
 30 31  1  0
 30 32  1  0
 32 33  2  0
 26 34  1  0
 34 35  1  0
  8  2  1  0
 23 12  1  0
 33 27  1  0
 12  7  1  0
 21 16  1  0
 34 22  2  0
  1 36  1  0
  1 37  1  0
  1 38  1  0
  5 39  1  0
  6 40  1  0
  9 41  1  0
 13 42  1  0
 14 43  1  1
 15 44  1  0
 15 45  1  0
 17 46  1  0
 18 47  1  0
 19 48  1  0
 20 49  1  0
 21 50  1  0
 25 51  1  0
 28 52  1  0
 29 53  1  0
 32 54  1  0
 33 55  1  0
 35 56  1  0
M  END
$$$$
