
     RDKit          3D

 39 41  0  0  0  0  0  0  0  0999 V2000
   -4.1099   -1.1478   -1.2178 C   0  0  0  0  0  0  0  0  0  0  0  0
   -4.0204    0.2899   -0.7240 C   0  0  0  0  0  0  0  0  0  0  0  0
   -2.7549    0.5515   -0.0434 N   0  0  0  0  0  0  0  0  0  0  0  0
   -2.6978    0.2824    1.3159 C   0  0  0  0  0  0  0  0  0  0  0  0
   -3.6411   -0.1616    1.9672 O   0  0  0  0  0  0  0  0  0  0  0  0
   -1.4195    0.5472    1.9906 C   0  0  0  0  0  0  0  0  0  0  0  0
   -1.3230    0.3447    3.3772 C   0  0  0  0  0  0  0  0  0  0  0  0
   -0.1242    0.5917    4.0375 C   0  0  0  0  0  0  0  0  0  0  0  0
    0.9732    1.0401    3.3127 C   0  0  0  0  0  0  0  0  0  0  0  0
    0.8719    1.2393    1.9304 C   0  0  0  0  0  0  0  0  0  0  0  0
   -0.3289    0.9930    1.2451 C   0  0  0  0  0  0  0  0  0  0  0  0
   -0.4676    1.1738   -0.1606 N   0  0  0  0  0  0  0  0  0  0  0  0
    0.6737    1.5951   -0.9809 C   0  0  0  0  0  0  0  0  0  0  0  0
    1.6669    0.4835   -1.2702 C   0  0  0  0  0  0  0  0  0  0  0  0
    1.2413   -0.7498   -1.7917 C   0  0  0  0  0  0  0  0  0  0  0  0
    2.1606   -1.7638   -2.0741 C   0  0  0  0  0  0  0  0  0  0  0  0
    3.5230   -1.5417   -1.8463 C   0  0  0  0  0  0  0  0  0  0  0  0
    4.4939   -2.6030   -2.1396 N   0  0  0  0  0  4  0  0  0  0  0  0
    5.6903   -2.3662   -1.9180 O   0  0  0  0  0  0  0  0  0  0  0  0
    4.0615   -3.6736   -2.5896 O   0  0  0  0  0  1  0  0  0  0  0  0
    3.9684   -0.3120   -1.3470 C   0  0  0  0  0  0  0  0  0  0  0  0
    3.0409    0.6958   -1.0681 C   0  0  0  0  0  0  0  0  0  0  0  0
   -1.6713    0.9381   -0.8206 C   0  0  0  0  0  0  0  0  0  0  0  0
   -1.7690    1.0539   -2.0453 O   0  0  0  0  0  0  0  0  0  0  0  0
   -4.0319   -1.8562   -0.3866 H   0  0  0  0  0  0  0  0  0  0  0  0
   -5.0659   -1.3169   -1.7226 H   0  0  0  0  0  0  0  0  0  0  0  0
   -3.3051   -1.3740   -1.9248 H   0  0  0  0  0  0  0  0  0  0  0  0
   -4.1315    0.9751   -1.5721 H   0  0  0  0  0  0  0  0  0  0  0  0
   -4.8535    0.4922   -0.0411 H   0  0  0  0  0  0  0  0  0  0  0  0
   -2.1844   -0.0062    3.9429 H   0  0  0  0  0  0  0  0  0  0  0  0
   -0.0483    0.4346    5.1106 H   0  0  0  0  0  0  0  0  0  0  0  0
    1.9150    1.2352    3.8212 H   0  0  0  0  0  0  0  0  0  0  0  0
    1.7638    1.5894    1.4230 H   0  0  0  0  0  0  0  0  0  0  0  0
    1.1585    2.4489   -0.4920 H   0  0  0  0  0  0  0  0  0  0  0  0
    0.3326    1.9868   -1.9470 H   0  0  0  0  0  0  0  0  0  0  0  0
    0.1857   -0.9293   -1.9909 H   0  0  0  0  0  0  0  0  0  0  0  0
    1.7988   -2.7095   -2.4729 H   0  0  0  0  0  0  0  0  0  0  0  0
    5.0261   -0.1220   -1.1751 H   0  0  0  0  0  0  0  0  0  0  0  0
    3.4022    1.6513   -0.6914 H   0  0  0  0  0  0  0  0  0  0  0  0
  1  2  1  0
  2  3  1  0
  3  4  1  0
  4  5  2  0
  4  6  1  0
  6  7  2  0
  7  8  1  0
  8  9  2  0
  9 10  1  0
 10 11  2  0
 11 12  1  0
 12 13  1  0
 13 14  1  0
 14 15  2  0
 15 16  1  0
 16 17  2  0
 17 18  1  0
 18 19  2  0
 18 20  1  0
 17 21  1  0
 21 22  2  0
 12 23  1  0
 23 24  2  0
 23  3  1  0
 11  6  1  0
 22 14  1  0
  1 25  1  0
  1 26  1  0
  1 27  1  0
  2 28  1  0
  2 29  1  0
  7 30  1  0
  8 31  1  0
  9 32  1  0
 10 33  1  0
 13 34  1  0
 13 35  1  0
 15 36  1  0
 16 37  1  0
 21 38  1  0
 22 39  1  0
M  CHG  2  18   1  20  -1
M  END
$$$$
