
     RDKit          3D

 25 26  0  0  0  0  0  0  0  0999 V2000
    4.4941   -2.7225   -0.9887 O   0  0  0  0  0  0  0  0  0  0  0  0
    4.5393   -1.7168   -0.2674 N   0  0  0  0  0  4  0  0  0  0  0  0
    5.5744   -1.2558    0.2339 O   0  0  0  0  0  1  0  0  0  0  0  0
    3.2898   -1.0271    0.0144 C   0  0  0  0  0  0  0  0  0  0  0  0
    3.2603    0.1203    0.8023 C   0  0  0  0  0  0  0  0  0  0  0  0
    2.0294    0.7371    1.0359 C   0  0  0  0  0  0  0  0  0  0  0  0
    0.8602    0.1994    0.4871 C   0  0  0  0  0  0  0  0  0  0  0  0
   -0.3525    0.8765    0.7483 N   0  0  0  0  0  0  0  0  0  0  0  0
   -1.6271    0.6796    0.1717 C   0  0  0  0  0  0  0  0  0  0  0  0
   -1.8144    0.1480   -1.1090 C   0  0  0  0  0  0  0  0  0  0  0  0
   -3.0931    0.0320   -1.6646 C   0  0  0  0  0  0  0  0  0  0  0  0
   -4.2066    0.4709   -0.9546 C   0  0  0  0  0  0  0  0  0  0  0  0
   -4.0400    1.0360    0.3057 C   0  0  0  0  0  0  0  0  0  0  0  0
   -2.7600    1.1493    0.8569 C   0  0  0  0  0  0  0  0  0  0  0  0
    0.9020   -0.9109   -0.2824 N   0  0  0  0  0  0  0  0  0  0  0  0
    2.1014   -1.5060   -0.5051 C   0  0  0  0  0  0  0  0  0  0  0  0
    4.1655    0.5446    1.2294 H   0  0  0  0  0  0  0  0  0  0  0  0
    1.9873    1.6429    1.6339 H   0  0  0  0  0  0  0  0  0  0  0  0
   -0.4223    1.0874    1.7373 H   0  0  0  0  0  0  0  0  0  0  0  0
   -0.9648   -0.1804   -1.7007 H   0  0  0  0  0  0  0  0  0  0  0  0
   -3.2120   -0.3961   -2.6564 H   0  0  0  0  0  0  0  0  0  0  0  0
   -5.1991    0.3820   -1.3877 H   0  0  0  0  0  0  0  0  0  0  0  0
   -4.9036    1.3947    0.8591 H   0  0  0  0  0  0  0  0  0  0  0  0
   -2.6583    1.6093    1.8363 H   0  0  0  0  0  0  0  0  0  0  0  0
    2.0501   -2.3945   -1.1295 H   0  0  0  0  0  0  0  0  0  0  0  0
  1  2  2  0
  2  3  1  0
  2  4  1  0
  4  5  2  0
  5  6  1  0
  6  7  2  0
  7  8  1  0
  8  9  1  0
  9 10  2  0
 10 11  1  0
 11 12  2  0
 12 13  1  0
 13 14  2  0
  7 15  1  0
 15 16  2  0
 16  4  1  0
 14  9  1  0
  5 17  1  0
  6 18  1  0
  8 19  1  0
 10 20  1  0
 11 21  1  0
 12 22  1  0
 13 23  1  0
 14 24  1  0
 16 25  1  0
M  CHG  2   2   1   3  -1
M  END
$$$$
