
     RDKit          3D

 63 67  0  0  0  0  0  0  0  0999 V2000
    8.8255   -0.2031   -3.0974 C   0  0  0  0  0  0  0  0  0  0  0  0
    7.5419    0.5894   -3.2567 C   0  0  0  0  0  0  0  0  0  0  0  0
    6.6503    0.2116   -2.2031 O   0  0  0  0  0  0  0  0  0  0  0  0
    5.4585    0.8778   -2.2132 C   0  0  0  0  0  0  0  0  0  0  0  0
    5.1470    1.7275   -3.0393 O   0  0  0  0  0  0  0  0  0  0  0  0
    4.5787    0.4703   -1.1255 C   0  0  0  0  0  0  0  0  0  0  0  0
    3.2812    0.9834   -0.8353 C   0  0  0  0  0  0  0  0  0  0  0  0
    2.7797    0.3159    0.2677 C   0  0  0  0  0  0  0  0  0  0  0  0
    1.5178    0.4287    0.9902 C   0  0  0  0  0  0  0  0  0  0  0  0
    0.4675    1.2537    0.5800 N   0  0  0  0  0  0  0  0  0  0  0  0
    0.0426    1.2253   -0.8364 C   0  0  0  0  0  0  0  0  0  0  0  0
   -1.4774    1.4516   -1.0206 C   0  0  0  0  0  0  0  0  0  0  0  0
   -2.2943    0.5571   -0.1806 N   0  0  0  0  0  0  0  0  0  0  0  0
   -3.7286    0.8414   -0.3253 C   0  0  0  0  0  0  0  0  0  0  0  0
   -4.6044   -0.3173    0.1857 C   0  0  0  0  0  0  0  0  0  0  0  0
   -6.0839   -0.0062    0.0577 C   0  0  0  0  0  0  0  0  0  0  0  0
   -6.6877    0.7623    1.0708 C   0  0  0  0  0  0  0  0  0  0  0  0
   -8.0411    1.0923    1.0127 C   0  0  0  0  0  0  0  0  0  0  0  0
   -8.8142    0.6616   -0.0587 C   0  0  0  0  0  0  0  0  0  0  0  0
   -8.2327   -0.0973   -1.0739 C   0  0  0  0  0  0  0  0  0  0  0  0
   -6.8658   -0.4396   -1.0375 C   0  0  0  0  0  0  0  0  0  0  0  0
   -6.2917   -1.2743   -2.1636 C   0  0  0  0  0  0  0  0  0  0  0  0
   -5.1909   -0.7113   -2.7343 F   0  0  0  0  0  0  0  0  0  0  0  0
   -7.1675   -1.4741   -3.1905 F   0  0  0  0  0  0  0  0  0  0  0  0
   -5.9153   -2.5186   -1.7577 F   0  0  0  0  0  0  0  0  0  0  0  0
   -1.8366    0.5768    1.2309 C   0  0  0  0  0  0  0  0  0  0  0  0
   -0.6397    1.5106    1.5162 C   0  0  0  0  0  0  0  0  0  0  0  0
    1.3709   -0.2744    2.0869 N   0  0  0  0  0  0  0  0  0  0  0  0
    2.3802   -1.1487    2.5304 C   0  0  0  0  0  0  0  0  0  0  0  0
    2.1565   -1.8822    3.6972 C   0  0  0  0  0  0  0  0  0  0  0  0
    3.1216   -2.7716    4.1773 C   0  0  0  0  0  0  0  0  0  0  0  0
    4.3253   -2.9357    3.4909 C   0  0  0  0  0  0  0  0  0  0  0  0
    4.5702   -2.2124    2.3231 C   0  0  0  0  0  0  0  0  0  0  0  0
    3.5939   -1.3273    1.8545 C   0  0  0  0  0  0  0  0  0  0  0  0
    3.7606   -0.5521    0.6957 N   0  0  0  0  0  0  0  0  0  0  0  0
    4.8356   -0.4869   -0.1579 C   0  0  0  0  0  0  0  0  0  0  0  0
    9.5397    0.0485   -3.8872 H   0  0  0  0  0  0  0  0  0  0  0  0
    8.6225   -1.2795   -3.1325 H   0  0  0  0  0  0  0  0  0  0  0  0
    9.2859    0.0028   -2.1249 H   0  0  0  0  0  0  0  0  0  0  0  0
    7.7604    1.6614   -3.1927 H   0  0  0  0  0  0  0  0  0  0  0  0
    7.0848    0.3624   -4.2262 H   0  0  0  0  0  0  0  0  0  0  0  0
    2.7851    1.7692   -1.3885 H   0  0  0  0  0  0  0  0  0  0  0  0
    0.3028    0.2579   -1.2834 H   0  0  0  0  0  0  0  0  0  0  0  0
    0.5717    2.0088   -1.3866 H   0  0  0  0  0  0  0  0  0  0  0  0
   -1.7183    1.2848   -2.0778 H   0  0  0  0  0  0  0  0  0  0  0  0
   -1.7164    2.5013   -0.8030 H   0  0  0  0  0  0  0  0  0  0  0  0
   -3.9869    1.7805    0.1816 H   0  0  0  0  0  0  0  0  0  0  0  0
   -3.9633    0.9941   -1.3863 H   0  0  0  0  0  0  0  0  0  0  0  0
   -4.3908   -0.5331    1.2401 H   0  0  0  0  0  0  0  0  0  0  0  0
   -4.3565   -1.2405   -0.3493 H   0  0  0  0  0  0  0  0  0  0  0  0
   -6.1001    1.1067    1.9204 H   0  0  0  0  0  0  0  0  0  0  0  0
   -8.4927    1.6824    1.8067 H   0  0  0  0  0  0  0  0  0  0  0  0
   -9.8707    0.9148   -0.1052 H   0  0  0  0  0  0  0  0  0  0  0  0
   -8.8587   -0.4271   -1.9028 H   0  0  0  0  0  0  0  0  0  0  0  0
   -1.5563   -0.4505    1.4913 H   0  0  0  0  0  0  0  0  0  0  0  0
   -2.6457    0.8622    1.9137 H   0  0  0  0  0  0  0  0  0  0  0  0
   -0.9529    2.5566    1.4052 H   0  0  0  0  0  0  0  0  0  0  0  0
   -0.3266    1.4144    2.5624 H   0  0  0  0  0  0  0  0  0  0  0  0
    1.2189   -1.7575    4.2326 H   0  0  0  0  0  0  0  0  0  0  0  0
    2.9314   -3.3355    5.0867 H   0  0  0  0  0  0  0  0  0  0  0  0
    5.0734   -3.6289    3.8687 H   0  0  0  0  0  0  0  0  0  0  0  0
    5.5147   -2.3558    1.8087 H   0  0  0  0  0  0  0  0  0  0  0  0
    5.7112   -1.1050   -0.0161 H   0  0  0  0  0  0  0  0  0  0  0  0
  1  2  1  0
  2  3  1  0
  3  4  1  0
  4  5  2  0
  4  6  1  0
  6  7  1  0
  7  8  2  0
  8  9  1  0
  9 10  1  0
 10 11  1  0
 11 12  1  0
 12 13  1  0
 13 14  1  0
 14 15  1  0
 15 16  1  0
 16 17  2  0
 17 18  1  0
 18 19  2  0
 19 20  1  0
 20 21  2  0
 21 22  1  0
 22 23  1  0
 22 24  1  0
 22 25  1  0
 13 26  1  0
 26 27  1  0
  9 28  2  0
 28 29  1  0
 29 30  2  0
 30 31  1  0
 31 32  2  0
 32 33  1  0
 33 34  2  0
 34 35  1  0
 35 36  1  0
 36  6  2  0
 35  8  1  0
 27 10  1  0
 34 29  1  0
 21 16  1  0
  1 37  1  0
  1 38  1  0
  1 39  1  0
  2 40  1  0
  2 41  1  0
  7 42  1  0
 11 43  1  0
 11 44  1  0
 12 45  1  0
 12 46  1  0
 14 47  1  0
 14 48  1  0
 15 49  1  0
 15 50  1  0
 17 51  1  0
 18 52  1  0
 19 53  1  0
 20 54  1  0
 26 55  1  0
 26 56  1  0
 27 57  1  0
 27 58  1  0
 30 59  1  0
 31 60  1  0
 32 61  1  0
 33 62  1  0
 36 63  1  0
M  END
$$$$
