
     RDKit          3D

 29 30  0  0  0  0  0  0  0  0999 V2000
   -3.4610   -0.1724    0.6330 C   0  0  0  0  0  0  0  0  0  0  0  0
   -2.1951   -0.3679   -0.1525 C   0  0  0  0  0  0  0  0  0  0  0  0
   -1.0215   -0.8231    0.3307 C   0  0  0  0  0  0  0  0  0  0  0  0
   -0.8135   -1.2968    1.7454 C   0  0  0  0  0  0  0  0  0  0  0  0
    0.2099   -0.9124   -0.5520 C   0  0  0  0  0  0  0  0  0  0  0  0
    1.3306    0.0188   -0.1170 C   0  0  0  0  0  0  0  0  0  0  0  0
    2.5442   -0.5066    0.3553 C   0  0  0  0  0  0  0  0  0  0  0  0
    3.5772    0.3416    0.7597 C   0  0  0  0  0  0  0  0  0  0  0  0
    3.4114    1.7237    0.6972 C   0  0  0  0  0  0  0  0  0  0  0  0
    2.2136    2.2605    0.2307 C   0  0  0  0  0  0  0  0  0  0  0  0
    1.1796    1.4148   -0.1735 C   0  0  0  0  0  0  0  0  0  0  0  0
   -0.1103   -0.6867   -1.9462 N   0  0  0  0  0  0  0  0  0  0  0  0
   -1.2771   -0.1661   -2.3880 C   0  0  0  0  0  0  0  0  0  0  0  0
   -1.4856    0.2550   -3.9818 S   0  0  0  0  0  0  0  0  0  0  0  0
   -2.2760   -0.0183   -1.4800 N   0  0  0  0  0  0  0  0  0  0  0  0
   -3.2983   -0.1593    1.7134 H   0  0  0  0  0  0  0  0  0  0  0  0
   -3.9235    0.7884    0.3796 H   0  0  0  0  0  0  0  0  0  0  0  0
   -4.1762   -0.9678    0.4000 H   0  0  0  0  0  0  0  0  0  0  0  0
   -0.2420   -2.2316    1.7525 H   0  0  0  0  0  0  0  0  0  0  0  0
   -1.7490   -1.5085    2.2691 H   0  0  0  0  0  0  0  0  0  0  0  0
   -0.2601   -0.5499    2.3230 H   0  0  0  0  0  0  0  0  0  0  0  0
    0.5743   -1.9476   -0.5242 H   0  0  0  0  0  0  0  0  0  0  0  0
    2.6948   -1.5825    0.4123 H   0  0  0  0  0  0  0  0  0  0  0  0
    4.5127   -0.0761    1.1230 H   0  0  0  0  0  0  0  0  0  0  0  0
    4.2164    2.3831    1.0108 H   0  0  0  0  0  0  0  0  0  0  0  0
    2.0831    3.3383    0.1794 H   0  0  0  0  0  0  0  0  0  0  0  0
    0.2498    1.8486   -0.5369 H   0  0  0  0  0  0  0  0  0  0  0  0
    0.6425   -0.7415   -2.6186 H   0  0  0  0  0  0  0  0  0  0  0  0
   -3.1513    0.3424   -1.8445 H   0  0  0  0  0  0  0  0  0  0  0  0
  1  2  1  0
  2  3  2  0
  3  4  1  0
  3  5  1  0
  5  6  1  0
  6  7  2  0
  7  8  1  0
  8  9  2  0
  9 10  1  0
 10 11  2  0
  5 12  1  0
 12 13  1  0
 13 14  2  0
 13 15  1  0
 15  2  1  0
 11  6  1  0
  1 16  1  0
  1 17  1  0
  1 18  1  0
  4 19  1  0
  4 20  1  0
  4 21  1  0
  5 22  1  0
  7 23  1  0
  8 24  1  0
  9 25  1  0
 10 26  1  0
 11 27  1  0
 12 28  1  0
 15 29  1  0
M  END
$$$$
