
     RDKit          3D

 60 65  0  0  0  0  0  0  0  0999 V2000
    1.9226   -4.3077   -0.8782 O   0  0  0  0  0  0  0  0  0  0  0  0
    2.3136   -3.2841   -0.3287 C   0  0  0  0  0  0  0  0  0  0  0  0
    1.4248   -2.3600    0.2110 N   0  0  0  0  0  0  0  0  0  0  0  0
    1.8032   -1.1865    0.8485 C   0  0  0  0  0  0  0  0  0  0  0  0
    0.6963   -0.2803    1.3877 C   0  0  0  0  0  0  0  0  0  0  0  0
   -0.2062    0.2791    0.2839 C   0  0  0  0  0  0  0  0  0  0  0  0
   -1.4269   -0.5725   -0.0401 C   0  0  0  0  0  0  0  0  0  0  0  0
   -2.1325   -1.0364    1.1748 N   0  0  0  0  0  0  0  0  0  0  0  0
   -3.2792    0.0168    1.8824 S   0  0  0  0  0  6  0  0  0  0  0  0
   -3.9134   -0.6786    2.9814 O   0  0  0  0  0  0  0  0  0  0  0  0
   -2.6344    1.2968    2.0790 O   0  0  0  0  0  0  0  0  0  0  0  0
   -4.4960    0.1832    0.6021 C   0  0  0  0  0  0  0  0  0  0  0  0
   -5.2793   -0.9266    0.2643 C   0  0  0  0  0  0  0  0  0  0  0  0
   -6.2369   -0.8102   -0.7437 C   0  0  0  0  0  0  0  0  0  0  0  0
   -6.4064    0.4076   -1.4025 C   0  0  0  0  0  0  0  0  0  0  0  0
   -5.6423    1.5221   -1.0332 C   0  0  0  0  0  0  0  0  0  0  0  0
   -4.6759    1.4126   -0.0367 C   0  0  0  0  0  0  0  0  0  0  0  0
   -5.7846    2.7547   -1.6172 O   0  0  0  0  0  0  0  0  0  0  0  0
   -7.0141    2.8465   -2.3466 C   0  0  0  0  0  0  0  0  0  0  0  0
   -7.2164    1.6124   -3.2100 C   0  0  0  0  0  0  0  0  0  0  0  0
   -7.3499    0.4406   -2.3970 O   0  0  0  0  0  0  0  0  0  0  0  0
   -1.2610   -1.7598    2.1262 C   0  0  0  0  0  0  0  0  0  0  0  0
   -0.0738   -0.9100    2.5518 C   0  0  0  0  0  0  0  0  0  0  0  0
    3.0465   -0.8210    1.0119 N   0  0  0  0  0  0  0  0  0  0  0  0
    3.9348   -1.6991    0.4864 C   0  0  0  0  0  0  0  0  0  0  0  0
    3.6819   -2.8845   -0.1582 C   0  0  0  0  0  0  0  0  0  0  0  0
    4.8431   -3.4859   -0.5323 N   0  0  0  0  0  0  0  0  0  0  0  0
    5.8424   -2.6954   -0.1390 N   0  0  0  0  0  0  0  0  0  0  0  0
    5.2966   -1.6067    0.4588 N   0  0  0  0  0  0  0  0  0  0  0  0
    6.1327   -0.5564    1.0004 C   0  0  0  0  0  0  0  0  0  0  0  0
    6.3035    0.5725    0.0148 C   0  0  0  0  0  0  0  0  0  0  0  0
    7.2772    0.4986   -0.9949 C   0  0  0  0  0  0  0  0  0  0  0  0
    7.4245    1.5360   -1.9196 C   0  0  0  0  0  0  0  0  0  0  0  0
    6.5970    2.6547   -1.8482 C   0  0  0  0  0  0  0  0  0  0  0  0
    5.6269    2.7254   -0.8562 C   0  0  0  0  0  0  0  0  0  0  0  0
    4.8254    3.7967   -0.7927 F   0  0  0  0  0  0  0  0  0  0  0  0
    5.4709    1.6996    0.0707 C   0  0  0  0  0  0  0  0  0  0  0  0
    0.4605   -2.6225    0.0953 H   0  0  0  0  0  0  0  0  0  0  0  0
    1.2352    0.5827    1.8086 H   0  0  0  0  0  0  0  0  0  0  0  0
   -0.5500    1.2716    0.5997 H   0  0  0  0  0  0  0  0  0  0  0  0
    0.3698    0.4440   -0.6351 H   0  0  0  0  0  0  0  0  0  0  0  0
   -1.1369   -1.4552   -0.6201 H   0  0  0  0  0  0  0  0  0  0  0  0
   -2.1019   -0.0150   -0.6964 H   0  0  0  0  0  0  0  0  0  0  0  0
   -5.1465   -1.8751    0.7806 H   0  0  0  0  0  0  0  0  0  0  0  0
   -6.8464   -1.6665   -1.0203 H   0  0  0  0  0  0  0  0  0  0  0  0
   -4.0845    2.2819    0.2394 H   0  0  0  0  0  0  0  0  0  0  0  0
   -7.8358    2.9765   -1.6314 H   0  0  0  0  0  0  0  0  0  0  0  0
   -6.9618    3.7425   -2.9730 H   0  0  0  0  0  0  0  0  0  0  0  0
   -6.3764    1.4632   -3.8996 H   0  0  0  0  0  0  0  0  0  0  0  0
   -8.1313    1.7107   -3.8026 H   0  0  0  0  0  0  0  0  0  0  0  0
   -0.9300   -2.6898    1.6531 H   0  0  0  0  0  0  0  0  0  0  0  0
   -1.8276   -2.0801    3.0070 H   0  0  0  0  0  0  0  0  0  0  0  0
    0.5983   -1.5137    3.1736 H   0  0  0  0  0  0  0  0  0  0  0  0
   -0.4416   -0.1002    3.1951 H   0  0  0  0  0  0  0  0  0  0  0  0
    5.6748   -0.2038    1.9318 H   0  0  0  0  0  0  0  0  0  0  0  0
    7.1033   -0.9912    1.2663 H   0  0  0  0  0  0  0  0  0  0  0  0
    7.9228   -0.3758   -1.0732 H   0  0  0  0  0  0  0  0  0  0  0  0
    8.1807    1.4669   -2.6978 H   0  0  0  0  0  0  0  0  0  0  0  0
    6.6980    3.4669   -2.5608 H   0  0  0  0  0  0  0  0  0  0  0  0
    4.6926    1.7879    0.8241 H   0  0  0  0  0  0  0  0  0  0  0  0
  1  2  2  0
  2  3  1  0
  3  4  1  0
  4  5  1  0
  5  6  1  0
  6  7  1  0
  7  8  1  0
  8  9  1  0
  9 10  2  0
  9 11  2  0
  9 12  1  0
 12 13  2  0
 13 14  1  0
 14 15  2  0
 15 16  1  0
 16 17  2  0
 16 18  1  0
 18 19  1  0
 19 20  1  0
 20 21  1  0
  8 22  1  0
 22 23  1  0
  4 24  2  0
 24 25  1  0
 25 26  2  0
 26 27  1  0
 27 28  2  0
 28 29  1  0
 29 30  1  0
 30 31  1  0
 31 32  2  0
 32 33  1  0
 33 34  2  0
 34 35  1  0
 35 36  1  0
 35 37  2  0
 26  2  1  0
 37 31  1  0
 23  5  1  0
 29 25  1  0
 17 12  1  0
 21 15  1  0
  3 38  1  0
  5 39  1  0
  6 40  1  0
  6 41  1  0
  7 42  1  0
  7 43  1  0
 13 44  1  0
 14 45  1  0
 17 46  1  0
 19 47  1  0
 19 48  1  0
 20 49  1  0
 20 50  1  0
 22 51  1  0
 22 52  1  0
 23 53  1  0
 23 54  1  0
 30 55  1  0
 30 56  1  0
 32 57  1  0
 33 58  1  0
 34 59  1  0
 37 60  1  0
M  END
$$$$
