
     RDKit          3D

 44 46  0  0  0  0  0  0  0  0999 V2000
   -5.1907   -2.1937    1.6377 C   0  0  0  0  0  0  0  0  0  0  0  0
   -4.4714   -1.6130    0.4550 C   0  0  0  0  0  0  0  0  0  0  0  0
   -3.2956   -2.2098   -0.0203 C   0  0  0  0  0  0  0  0  0  0  0  0
   -2.6099   -1.6582   -1.1035 C   0  0  0  0  0  0  0  0  0  0  0  0
   -3.0890   -0.4878   -1.6970 C   0  0  0  0  0  0  0  0  0  0  0  0
   -2.2231    0.2203   -3.0794 S   0  0  0  0  0  6  0  0  0  0  0  0
   -1.4029   -0.8106   -3.6773 O   0  0  0  0  0  0  0  0  0  0  0  0
   -3.1885    0.9598   -3.8665 O   0  0  0  0  0  0  0  0  0  0  0  0
   -1.2295    1.3815   -2.3549 N   0  0  0  0  0  0  0  0  0  0  0  0
   -0.3601    0.9928   -1.2972 C   0  0  0  0  0  0  0  0  0  0  0  0
   -0.6059    1.4785   -0.0126 C   0  0  0  0  0  0  0  0  0  0  0  0
    0.2024    1.0826    1.0601 C   0  0  0  0  0  0  0  0  0  0  0  0
   -0.0719    1.5954    2.4451 C   0  0  0  0  0  0  0  0  0  0  0  0
    1.2660    0.2003    0.8181 C   0  0  0  0  0  0  0  0  0  0  0  0
    2.0363   -0.1487    1.8972 O   0  0  0  0  0  0  0  0  0  0  0  0
    1.5201   -0.3012   -0.4701 C   0  0  0  0  0  0  0  0  0  0  0  0
    2.7744   -1.5222   -0.8372 S   0  0  0  0  0  0  0  0  0  0  0  0
    4.2492   -0.6627   -0.5055 C   0  0  0  0  0  0  0  0  0  0  0  0
    5.2666   -0.6205   -1.3670 N   0  0  0  0  0  0  0  0  0  0  0  0
    6.1687    0.0997   -0.6845 N   0  0  0  0  0  0  0  0  0  0  0  0
    5.6950    0.4508    0.5482 C   0  0  0  0  0  0  0  0  0  0  0  0
    6.4810    1.2435    1.5162 C   0  0  0  0  0  0  0  0  0  0  0  0
    4.4797   -0.0344    0.6922 N   0  0  0  0  0  0  0  0  0  0  0  0
    0.6921    0.1060   -1.5248 C   0  0  0  0  0  0  0  0  0  0  0  0
   -4.2612    0.1175   -1.2361 C   0  0  0  0  0  0  0  0  0  0  0  0
   -4.9437   -0.4422   -0.1547 C   0  0  0  0  0  0  0  0  0  0  0  0
   -6.2697   -2.0217    1.5602 H   0  0  0  0  0  0  0  0  0  0  0  0
   -5.0386   -3.2767    1.6956 H   0  0  0  0  0  0  0  0  0  0  0  0
   -4.8235   -1.7350    2.5613 H   0  0  0  0  0  0  0  0  0  0  0  0
   -2.9085   -3.1125    0.4487 H   0  0  0  0  0  0  0  0  0  0  0  0
   -1.7053   -2.1397   -1.4688 H   0  0  0  0  0  0  0  0  0  0  0  0
   -1.7006    2.2811   -2.2780 H   0  0  0  0  0  0  0  0  0  0  0  0
   -1.4379    2.1553    0.1642 H   0  0  0  0  0  0  0  0  0  0  0  0
   -0.2956    0.7629    3.1200 H   0  0  0  0  0  0  0  0  0  0  0  0
   -0.9313    2.2741    2.4591 H   0  0  0  0  0  0  0  0  0  0  0  0
    0.7937    2.1487    2.8235 H   0  0  0  0  0  0  0  0  0  0  0  0
    2.9432   -0.3243    1.5658 H   0  0  0  0  0  0  0  0  0  0  0  0
    7.0663    0.3058   -1.1097 H   0  0  0  0  0  0  0  0  0  0  0  0
    7.3258    0.6596    1.8933 H   0  0  0  0  0  0  0  0  0  0  0  0
    6.8683    2.1545    1.0494 H   0  0  0  0  0  0  0  0  0  0  0  0
    5.8600    1.5361    2.3683 H   0  0  0  0  0  0  0  0  0  0  0  0
    0.8676   -0.2725   -2.5302 H   0  0  0  0  0  0  0  0  0  0  0  0
   -4.6497    1.0154   -1.7107 H   0  0  0  0  0  0  0  0  0  0  0  0
   -5.8524    0.0350    0.2070 H   0  0  0  0  0  0  0  0  0  0  0  0
  1  2  1  0
  2  3  2  0
  3  4  1  0
  4  5  2  0
  5  6  1  0
  6  7  2  0
  6  8  2  0
  6  9  1  0
  9 10  1  0
 10 11  2  0
 11 12  1  0
 12 13  1  0
 12 14  2  0
 14 15  1  0
 14 16  1  0
 16 17  1  0
 17 18  1  0
 18 19  2  0
 19 20  1  0
 20 21  1  0
 21 22  1  0
 21 23  2  0
 16 24  2  0
  5 25  1  0
 25 26  2  0
 26  2  1  0
 24 10  1  0
 23 18  1  0
  1 27  1  0
  1 28  1  0
  1 29  1  0
  3 30  1  0
  4 31  1  0
  9 32  1  0
 11 33  1  0
 13 34  1  0
 13 35  1  0
 13 36  1  0
 15 37  1  0
 20 38  1  0
 22 39  1  0
 22 40  1  0
 22 41  1  0
 24 42  1  0
 25 43  1  0
 26 44  1  0
M  END
$$$$
