
     RDKit          3D

 57 61  0  0  0  0  0  0  0  0999 V2000
    0.9557   -2.5371    1.5228 O   0  0  0  0  0  0  0  0  0  0  0  0
    0.3098   -1.3568    1.0128 C   0  0  0  0  0  0  0  0  0  0  0  0
    1.3467   -0.4842    0.2805 C   0  0  0  0  0  0  0  0  0  0  0  0
    2.4405   -0.1760    1.2054 N   0  0  0  0  0  0  0  0  0  0  0  0
    3.6760    0.2373    0.7501 C   0  0  0  0  0  0  0  0  0  0  0  0
    4.0079    0.0455   -0.4973 N   0  0  0  0  0  0  0  0  0  0  0  0
    5.2687    0.4615   -0.9710 C   0  0  0  0  0  0  0  0  0  0  0  0
    5.5823    0.2321   -2.3113 C   0  0  0  0  0  0  0  0  0  0  0  0
    6.8185    0.6246   -2.8314 C   0  0  0  0  0  0  0  0  0  0  0  0
    7.7562    1.2542   -2.0116 C   0  0  0  0  0  0  0  0  0  0  0  0
    7.4651    1.4933   -0.6684 C   0  0  0  0  0  0  0  0  0  0  0  0
    6.2249    1.0941   -0.1620 C   0  0  0  0  0  0  0  0  0  0  0  0
    5.8520    1.2909    1.1774 N   0  0  0  0  0  0  0  0  0  0  0  0
    6.5533    1.8682    2.2089 C   0  0  0  0  0  0  0  0  0  0  0  0
    5.7714    1.8178    3.3423 C   0  0  0  0  0  0  0  0  0  0  0  0
    4.5534    1.1905    2.9868 C   0  0  0  0  0  0  0  0  0  0  0  0
    4.6221    0.8803    1.6410 C   0  0  0  0  0  0  0  0  0  0  0  0
   -0.8414   -1.7895    0.0827 C   0  0  0  0  0  0  0  0  0  0  0  0
   -1.6626   -0.6783   -0.4303 N   0  0  0  0  0  0  0  0  0  0  0  0
   -2.5805   -1.1359   -1.4995 C   0  0  0  0  0  0  0  0  0  0  0  0
   -4.0120   -1.5108   -1.0485 C   0  0  0  0  0  0  0  0  0  0  0  0
   -4.6584   -0.3945   -0.3358 N   0  0  0  0  0  0  0  0  0  0  0  0
   -6.0303   -0.2105   -0.3981 C   0  0  0  0  0  0  0  0  0  0  0  0
   -6.6295    1.0432   -0.1849 C   0  0  0  0  0  0  0  0  0  0  0  0
   -8.0173    1.2258   -0.2460 C   0  0  0  0  0  0  0  0  0  0  0  0
   -8.8501    0.1494   -0.5198 C   0  0  0  0  0  0  0  0  0  0  0  0
   -8.2930   -1.1058   -0.7291 C   0  0  0  0  0  0  0  0  0  0  0  0
   -6.9046   -1.2783   -0.6632 C   0  0  0  0  0  0  0  0  0  0  0  0
   -3.7605    0.6250    0.2268 C   0  0  0  0  0  0  0  0  0  0  0  0
   -2.4205   -0.0172    0.6604 C   0  0  0  0  0  0  0  0  0  0  0  0
    1.8829   -2.2773    1.6954 H   0  0  0  0  0  0  0  0  0  0  0  0
   -0.0792   -0.8218    1.8870 H   0  0  0  0  0  0  0  0  0  0  0  0
    1.7340   -1.0457   -0.5774 H   0  0  0  0  0  0  0  0  0  0  0  0
    0.8997    0.4475   -0.0810 H   0  0  0  0  0  0  0  0  0  0  0  0
    2.1370    0.2893    2.0534 H   0  0  0  0  0  0  0  0  0  0  0  0
    4.8548   -0.2585   -2.9523 H   0  0  0  0  0  0  0  0  0  0  0  0
    7.0483    0.4367   -3.8766 H   0  0  0  0  0  0  0  0  0  0  0  0
    8.7164    1.5576   -2.4218 H   0  0  0  0  0  0  0  0  0  0  0  0
    8.2105    1.9823   -0.0503 H   0  0  0  0  0  0  0  0  0  0  0  0
    7.5485    2.2646    2.0695 H   0  0  0  0  0  0  0  0  0  0  0  0
    6.0521    2.1889    4.3190 H   0  0  0  0  0  0  0  0  0  0  0  0
    3.7231    0.9866    3.6485 H   0  0  0  0  0  0  0  0  0  0  0  0
   -1.4652   -2.5355    0.5930 H   0  0  0  0  0  0  0  0  0  0  0  0
   -0.3859   -2.3265   -0.7603 H   0  0  0  0  0  0  0  0  0  0  0  0
   -2.1462   -1.9672   -2.0688 H   0  0  0  0  0  0  0  0  0  0  0  0
   -2.6615   -0.3088   -2.2180 H   0  0  0  0  0  0  0  0  0  0  0  0
   -4.5735   -1.7792   -1.9515 H   0  0  0  0  0  0  0  0  0  0  0  0
   -3.9798   -2.3894   -0.3935 H   0  0  0  0  0  0  0  0  0  0  0  0
   -6.0222    1.9209    0.0145 H   0  0  0  0  0  0  0  0  0  0  0  0
   -8.4405    2.2132   -0.0784 H   0  0  0  0  0  0  0  0  0  0  0  0
   -9.9249    0.2876   -0.5689 H   0  0  0  0  0  0  0  0  0  0  0  0
   -8.9328   -1.9588   -0.9353 H   0  0  0  0  0  0  0  0  0  0  0  0
   -6.5183   -2.2841   -0.8021 H   0  0  0  0  0  0  0  0  0  0  0  0
   -3.5805    1.4168   -0.5098 H   0  0  0  0  0  0  0  0  0  0  0  0
   -4.2040    1.0820    1.1194 H   0  0  0  0  0  0  0  0  0  0  0  0
   -1.7863    0.7590    1.1040 H   0  0  0  0  0  0  0  0  0  0  0  0
   -2.6505   -0.7394    1.4565 H   0  0  0  0  0  0  0  0  0  0  0  0
  1  2  1  0
  2  3  1  0
  3  4  1  0
  4  5  1  0
  5  6  2  0
  6  7  1  0
  7  8  2  0
  8  9  1  0
  9 10  2  0
 10 11  1  0
 11 12  2  0
 12 13  1  0
 13 14  1  0
 14 15  2  0
 15 16  1  0
 16 17  2  0
  2 18  1  0
 18 19  1  0
 19 20  1  0
 20 21  1  0
 21 22  1  0
 22 23  1  0
 23 24  2  0
 24 25  1  0
 25 26  2  0
 26 27  1  0
 27 28  2  0
 22 29  1  0
 29 30  1  0
 17  5  1  0
 30 19  1  0
 12  7  1  0
 17 13  1  0
 28 23  1  0
  1 31  1  0
  2 32  1  0
  3 33  1  0
  3 34  1  0
  4 35  1  0
  8 36  1  0
  9 37  1  0
 10 38  1  0
 11 39  1  0
 14 40  1  0
 15 41  1  0
 16 42  1  0
 18 43  1  0
 18 44  1  0
 20 45  1  0
 20 46  1  0
 21 47  1  0
 21 48  1  0
 24 49  1  0
 25 50  1  0
 26 51  1  0
 27 52  1  0
 28 53  1  0
 29 54  1  0
 29 55  1  0
 30 56  1  0
 30 57  1  0
M  END
$$$$
