
     RDKit          3D

 39 40  0  0  0  0  0  0  0  0999 V2000
   -0.8687   -3.2564    0.8911 C   0  0  0  0  0  0  0  0  0  0  0  0
   -1.2062   -1.9629    0.1482 C   0  0  0  0  0  0  0  0  0  0  0  0
   -2.5581   -1.6641    0.4782 O   0  0  0  0  0  0  0  0  0  0  0  0
   -3.2733   -0.7877   -0.2921 C   0  0  0  0  0  0  0  0  0  0  0  0
   -2.7407   -0.0176   -1.3317 C   0  0  0  0  0  0  0  0  0  0  0  0
   -3.5559    0.8623   -2.0540 C   0  0  0  0  0  0  0  0  0  0  0  0
   -4.9143    0.9750   -1.7347 C   0  0  0  0  0  0  0  0  0  0  0  0
   -5.7669    1.8970   -2.4944 N   0  0  0  0  0  4  0  0  0  0  0  0
   -6.9564    1.9884   -2.1614 O   0  0  0  0  0  0  0  0  0  0  0  0
   -5.2465    2.5244   -3.4275 O   0  0  0  0  0  1  0  0  0  0  0  0
   -5.4647    0.2159   -0.6992 C   0  0  0  0  0  0  0  0  0  0  0  0
   -4.6414   -0.6582    0.0154 C   0  0  0  0  0  0  0  0  0  0  0  0
   -5.3660   -1.5861    1.2844 Cl  0  0  0  0  0  0  0  0  0  0  0  0
   -0.1852   -0.8675    0.5480 C   0  0  0  0  0  0  0  0  0  0  0  0
   -0.5159    0.1186    1.1995 O   0  0  0  0  0  0  0  0  0  0  0  0
    1.0905   -1.1200    0.0559 N   0  0  0  0  0  0  0  0  0  0  0  0
    2.2447   -0.3240    0.2125 C   0  0  0  0  0  0  0  0  0  0  0  0
    3.4276   -0.7964   -0.3701 C   0  0  0  0  0  0  0  0  0  0  0  0
    4.6171   -0.0680   -0.2629 C   0  0  0  0  0  0  0  0  0  0  0  0
    4.6433    1.1428    0.4359 C   0  0  0  0  0  0  0  0  0  0  0  0
    5.9319    1.8812    0.5202 C   0  0  0  0  0  0  0  0  0  0  0  0
    6.0707    2.8054    1.5180 N   0  0  0  0  0  0  0  0  0  0  0  0
    6.8536    1.6508   -0.2526 O   0  0  0  0  0  0  0  0  0  0  0  0
    3.4625    1.6255    1.0075 C   0  0  0  0  0  0  0  0  0  0  0  0
    2.2725    0.8922    0.8982 C   0  0  0  0  0  0  0  0  0  0  0  0
   -0.9162   -3.1034    1.9755 H   0  0  0  0  0  0  0  0  0  0  0  0
   -1.5959   -4.0390    0.6482 H   0  0  0  0  0  0  0  0  0  0  0  0
    0.1311   -3.6263    0.6449 H   0  0  0  0  0  0  0  0  0  0  0  0
   -1.1185   -2.1630   -0.9275 H   0  0  0  0  0  0  0  0  0  0  0  0
   -1.6898   -0.0569   -1.5996 H   0  0  0  0  0  0  0  0  0  0  0  0
   -3.1132    1.4558   -2.8528 H   0  0  0  0  0  0  0  0  0  0  0  0
   -6.5184    0.2954   -0.4407 H   0  0  0  0  0  0  0  0  0  0  0  0
    1.2208   -1.9743   -0.4719 H   0  0  0  0  0  0  0  0  0  0  0  0
    3.4482   -1.7353   -0.9178 H   0  0  0  0  0  0  0  0  0  0  0  0
    5.5256   -0.4497   -0.7258 H   0  0  0  0  0  0  0  0  0  0  0  0
    6.9957    3.2027    1.6256 H   0  0  0  0  0  0  0  0  0  0  0  0
    5.4607    2.8316    2.3219 H   0  0  0  0  0  0  0  0  0  0  0  0
    3.4336    2.5814    1.5221 H   0  0  0  0  0  0  0  0  0  0  0  0
    1.3821    1.3107    1.3577 H   0  0  0  0  0  0  0  0  0  0  0  0
  1  2  1  0
  2  3  1  0
  3  4  1  0
  4  5  2  0
  5  6  1  0
  6  7  2  0
  7  8  1  0
  8  9  2  0
  8 10  1  0
  7 11  1  0
 11 12  2  0
 12 13  1  0
  2 14  1  0
 14 15  2  0
 14 16  1  0
 16 17  1  0
 17 18  2  0
 18 19  1  0
 19 20  2  0
 20 21  1  0
 21 22  1  0
 21 23  2  0
 20 24  1  0
 24 25  2  0
 12  4  1  0
 25 17  1  0
  1 26  1  0
  1 27  1  0
  1 28  1  0
  2 29  1  0
  5 30  1  0
  6 31  1  0
 11 32  1  0
 16 33  1  0
 18 34  1  0
 19 35  1  0
 22 36  1  0
 22 37  1  0
 24 38  1  0
 25 39  1  0
M  CHG  2   8   1  10  -1
M  END
$$$$
