
     RDKit          3D

 23 23  0  0  0  0  0  0  0  0999 V2000
   -2.2438    1.7891    0.1881 C   0  0  0  0  0  0  0  0  0  0  0  0
   -1.8604    0.3266    0.1677 C   0  0  0  0  0  0  0  0  0  0  0  0
   -0.4359    0.0055    0.0876 C   0  0  0  0  0  0  0  0  0  0  0  0
    0.5669    0.8830   -0.0878 C   0  0  0  0  0  0  0  0  0  0  0  0
    1.9237    0.4525   -0.1378 C   0  0  0  0  0  0  0  0  0  0  0  0
    3.0669    1.2219   -0.3291 C   0  0  0  0  0  0  0  0  0  0  0  0
    4.1873    0.3581   -0.3020 C   0  0  0  0  0  0  0  0  0  0  0  0
    3.6829   -0.8993   -0.0951 C   0  0  0  0  0  0  0  0  0  0  0  0
    2.3331   -0.8566    0.0052 O   0  0  0  0  0  0  0  0  0  0  0  0
   -2.8441   -0.5925    0.2640 C   0  0  0  0  0  0  0  0  0  0  0  0
   -2.7851   -2.0624    0.2588 C   0  0  0  0  0  0  0  0  0  0  0  0
   -3.6020   -2.7769    0.8135 O   0  0  0  0  0  0  0  0  0  0  0  0
   -1.8034   -2.5758   -0.4916 O   0  0  0  0  0  0  0  0  0  0  0  0
   -3.3242    1.9346    0.3002 H   0  0  0  0  0  0  0  0  0  0  0  0
   -1.7636    2.3054    1.0266 H   0  0  0  0  0  0  0  0  0  0  0  0
   -1.9513    2.2790   -0.7471 H   0  0  0  0  0  0  0  0  0  0  0  0
   -0.1702   -1.0451    0.1916 H   0  0  0  0  0  0  0  0  0  0  0  0
    0.3813    1.9451   -0.1997 H   0  0  0  0  0  0  0  0  0  0  0  0
    3.0812    2.2936   -0.4731 H   0  0  0  0  0  0  0  0  0  0  0  0
    5.2291    0.6202   -0.4186 H   0  0  0  0  0  0  0  0  0  0  0  0
    4.1272   -1.8799    0.0005 H   0  0  0  0  0  0  0  0  0  0  0  0
   -3.8699   -0.2553    0.3949 H   0  0  0  0  0  0  0  0  0  0  0  0
   -1.9256   -3.5440   -0.4170 H   0  0  0  0  0  0  0  0  0  0  0  0
  1  2  1  0
  2  3  1  0
  3  4  2  3
  4  5  1  0
  5  6  2  0
  6  7  1  0
  7  8  2  0
  8  9  1  0
  2 10  2  3
 10 11  1  0
 11 12  2  0
 11 13  1  0
  9  5  1  0
  1 14  1  0
  1 15  1  0
  1 16  1  0
  3 17  1  0
  4 18  1  0
  6 19  1  0
  7 20  1  0
  8 21  1  0
 10 22  1  0
 13 23  1  0
M  END
$$$$
