
     RDKit          3D

 53 54  0  0  0  0  0  0  0  0999 V2000
   -4.9536   -1.0659   -2.7731 C   0  0  0  0  0  0  0  0  0  0  0  0
   -5.8971   -1.9447   -1.9715 C   0  0  0  0  0  0  0  0  0  0  0  0
   -5.9793   -1.5588   -0.5517 N   0  0  0  0  0  0  0  0  0  0  0  0
   -6.6844   -0.3074   -0.2277 C   0  0  0  0  0  0  0  0  0  0  0  0
   -8.1222   -0.6168    0.1530 C   0  0  0  0  0  0  0  0  0  0  0  0
   -4.9924   -2.2907    0.6046 S   0  0  0  0  0  6  0  0  0  0  0  0
   -5.5071   -1.9656    1.9184 O   0  0  0  0  0  0  0  0  0  0  0  0
   -4.7717   -3.6660    0.2090 O   0  0  0  0  0  0  0  0  0  0  0  0
   -3.4388   -1.4342    0.4319 C   0  0  0  0  0  0  0  0  0  0  0  0
   -3.2543   -0.2013    1.0641 C   0  0  0  0  0  0  0  0  0  0  0  0
   -2.0248    0.4536    0.9545 C   0  0  0  0  0  0  0  0  0  0  0  0
   -0.9728   -0.1261    0.2290 C   0  0  0  0  0  0  0  0  0  0  0  0
    0.3138    0.6172    0.1437 C   0  0  0  0  0  0  0  0  0  0  0  0
    0.5304    1.6611    0.7390 O   0  0  0  0  0  0  0  0  0  0  0  0
    1.1733   -0.0076   -0.6986 O   0  0  0  0  0  0  0  0  0  0  0  0
    2.4681    0.5896   -0.7472 C   0  0  0  0  0  0  0  0  0  0  0  0
    3.3033    0.2942    0.5020 C   0  0  0  0  0  0  0  0  0  0  0  0
    3.0781   -0.6527    1.2520 O   0  0  0  0  0  0  0  0  0  0  0  0
    4.3496    1.1695    0.6952 N   0  0  0  0  0  0  0  0  0  0  0  0
    5.2093    1.0705    1.8622 C   0  0  0  0  0  0  0  0  0  0  0  0
    6.3357    2.1091    1.8643 C   0  0  0  0  0  0  0  0  0  0  0  0
    7.2560    1.9400    0.7507 N   0  0  0  0  0  0  0  0  0  0  0  0
    8.4227    1.2212    0.8289 C   0  0  0  0  0  0  0  0  0  0  0  0
    8.7803    0.6709    2.0221 O   0  0  0  0  0  0  0  0  0  0  0  0
    9.0987    1.1322   -0.3225 C   0  0  0  0  0  0  0  0  0  0  0  0
    8.2690    1.9619   -1.6057 S   0  0  0  0  0  0  0  0  0  0  0  0
    6.9455    2.4082   -0.5156 C   0  0  0  0  0  0  0  0  0  0  0  0
    5.9352    2.9977   -0.8694 O   0  0  0  0  0  0  0  0  0  0  0  0
   -1.1576   -1.3798   -0.3724 C   0  0  0  0  0  0  0  0  0  0  0  0
   -2.3866   -2.0379   -0.2650 C   0  0  0  0  0  0  0  0  0  0  0  0
   -3.9261   -1.1385   -2.4129 H   0  0  0  0  0  0  0  0  0  0  0  0
   -4.9581   -1.3768   -3.8228 H   0  0  0  0  0  0  0  0  0  0  0  0
   -5.2449   -0.0123   -2.7392 H   0  0  0  0  0  0  0  0  0  0  0  0
   -6.9026   -1.8909   -2.4059 H   0  0  0  0  0  0  0  0  0  0  0  0
   -5.5919   -2.9918   -2.0672 H   0  0  0  0  0  0  0  0  0  0  0  0
   -6.6732    0.3800   -1.0786 H   0  0  0  0  0  0  0  0  0  0  0  0
   -6.1925    0.2208    0.5939 H   0  0  0  0  0  0  0  0  0  0  0  0
   -8.1684   -1.2823    1.0211 H   0  0  0  0  0  0  0  0  0  0  0  0
   -8.6520   -1.1059   -0.6711 H   0  0  0  0  0  0  0  0  0  0  0  0
   -8.6564    0.3055    0.4015 H   0  0  0  0  0  0  0  0  0  0  0  0
   -4.0505    0.2478    1.6531 H   0  0  0  0  0  0  0  0  0  0  0  0
   -1.8846    1.4145    1.4477 H   0  0  0  0  0  0  0  0  0  0  0  0
    2.3903    1.6691   -0.9225 H   0  0  0  0  0  0  0  0  0  0  0  0
    2.9958    0.1553   -1.6031 H   0  0  0  0  0  0  0  0  0  0  0  0
    4.4202    1.9984    0.1063 H   0  0  0  0  0  0  0  0  0  0  0  0
    4.5781    1.2073    2.7473 H   0  0  0  0  0  0  0  0  0  0  0  0
    5.6166    0.0536    1.8970 H   0  0  0  0  0  0  0  0  0  0  0  0
    5.8996    3.1130    1.7874 H   0  0  0  0  0  0  0  0  0  0  0  0
    6.8864    2.0697    2.8105 H   0  0  0  0  0  0  0  0  0  0  0  0
    9.6151    0.1869    1.9000 H   0  0  0  0  0  0  0  0  0  0  0  0
   10.0335    0.6145   -0.4782 H   0  0  0  0  0  0  0  0  0  0  0  0
   -0.3485   -1.8628   -0.9160 H   0  0  0  0  0  0  0  0  0  0  0  0
   -2.5123   -3.0168   -0.7235 H   0  0  0  0  0  0  0  0  0  0  0  0
  1  2  1  0
  2  3  1  0
  3  4  1  0
  4  5  1  0
  3  6  1  0
  6  7  2  0
  6  8  2  0
  6  9  1  0
  9 10  2  0
 10 11  1  0
 11 12  2  0
 12 13  1  0
 13 14  2  0
 13 15  1  0
 15 16  1  0
 16 17  1  0
 17 18  2  0
 17 19  1  0
 19 20  1  0
 20 21  1  0
 21 22  1  0
 22 23  1  0
 23 24  1  0
 23 25  2  0
 25 26  1  0
 26 27  1  0
 27 28  2  0
 12 29  1  0
 29 30  2  0
 30  9  1  0
 27 22  1  0
  1 31  1  0
  1 32  1  0
  1 33  1  0
  2 34  1  0
  2 35  1  0
  4 36  1  0
  4 37  1  0
  5 38  1  0
  5 39  1  0
  5 40  1  0
 10 41  1  0
 11 42  1  0
 16 43  1  0
 16 44  1  0
 19 45  1  0
 20 46  1  0
 20 47  1  0
 21 48  1  0
 21 49  1  0
 24 50  1  0
 25 51  1  0
 29 52  1  0
 30 53  1  0
M  END
$$$$
