
     RDKit          3D

 39 42  0  0  0  0  0  0  0  0999 V2000
    6.0335    0.4995   -0.7372 C   0  0  0  0  0  0  0  0  0  0  0  0
    5.8566   -0.1295    0.5072 C   0  0  0  0  0  0  0  0  0  0  0  0
    4.5882   -0.5408    0.9300 C   0  0  0  0  0  0  0  0  0  0  0  0
    3.5093   -0.3135    0.0924 C   0  0  0  0  0  0  0  0  0  0  0  0
    3.6943    0.3190   -1.1566 C   0  0  0  0  0  0  0  0  0  0  0  0
    4.9465    0.7294   -1.5828 C   0  0  0  0  0  0  0  0  0  0  0  0
    2.3691    0.4512   -1.8795 C   0  0  0  0  0  0  0  0  0  0  0  0
    1.4095   -0.1827   -0.8934 C   0  0  0  0  0  0  0  0  0  0  0  0
    0.0395   -0.3454   -1.0184 C   0  0  0  0  0  0  0  0  0  0  0  0
   -0.6622   -0.9600    0.0317 C   0  0  0  0  0  0  0  0  0  0  0  0
   -2.1615   -1.1613   -0.0711 C   0  0  0  0  0  0  0  0  0  0  0  0
   -2.9093    0.0965   -0.2253 N   0  0  0  0  0  0  0  0  0  0  0  0
   -2.7572    0.9690    0.9627 C   0  0  0  0  0  0  0  0  0  0  0  0
   -3.9298    1.9504    1.1063 C   0  0  0  0  0  0  0  0  0  0  0  0
   -5.1814    1.2848    1.3292 O   0  0  0  0  0  0  0  0  0  0  0  0
   -5.2424   -0.0141    0.7252 C   0  0  0  0  0  0  0  0  0  0  0  0
   -4.3388   -0.1498   -0.5101 C   0  0  0  0  0  0  0  0  0  0  0  0
    0.0385   -1.3989    1.1780 C   0  0  0  0  0  0  0  0  0  0  0  0
    1.4238   -1.2304    1.2936 C   0  0  0  0  0  0  0  0  0  0  0  0
    2.1036   -0.6209    0.2538 C   0  0  0  0  0  0  0  0  0  0  0  0
    7.0298    0.8102   -1.0435 H   0  0  0  0  0  0  0  0  0  0  0  0
    6.7180   -0.2981    1.1493 H   0  0  0  0  0  0  0  0  0  0  0  0
    4.4624   -1.0251    1.8921 H   0  0  0  0  0  0  0  0  0  0  0  0
    5.0831    1.2150   -2.5431 H   0  0  0  0  0  0  0  0  0  0  0  0
    2.1195    1.5040   -2.0402 H   0  0  0  0  0  0  0  0  0  0  0  0
    2.3837   -0.1082   -2.8194 H   0  0  0  0  0  0  0  0  0  0  0  0
   -0.4847    0.0033   -1.9035 H   0  0  0  0  0  0  0  0  0  0  0  0
   -2.3267   -1.8001   -0.9492 H   0  0  0  0  0  0  0  0  0  0  0  0
   -2.5320   -1.7278    0.7935 H   0  0  0  0  0  0  0  0  0  0  0  0
   -1.8226    1.5344    0.8813 H   0  0  0  0  0  0  0  0  0  0  0  0
   -2.7116    0.3654    1.8789 H   0  0  0  0  0  0  0  0  0  0  0  0
   -3.7596    2.6182    1.9570 H   0  0  0  0  0  0  0  0  0  0  0  0
   -4.0276    2.5795    0.2138 H   0  0  0  0  0  0  0  0  0  0  0  0
   -6.2859   -0.1963    0.4488 H   0  0  0  0  0  0  0  0  0  0  0  0
   -4.9738   -0.7566    1.4856 H   0  0  0  0  0  0  0  0  0  0  0  0
   -4.4964   -1.1245   -0.9867 H   0  0  0  0  0  0  0  0  0  0  0  0
   -4.6495    0.6024   -1.2463 H   0  0  0  0  0  0  0  0  0  0  0  0
   -0.4998   -1.8763    1.9943 H   0  0  0  0  0  0  0  0  0  0  0  0
    1.9441   -1.5720    2.1818 H   0  0  0  0  0  0  0  0  0  0  0  0
  1  2  2  0
  2  3  1  0
  3  4  2  0
  4  5  1  0
  5  6  2  0
  5  7  1  0
  7  8  1  0
  8  9  2  0
  9 10  1  0
 10 11  1  0
 11 12  1  0
 12 13  1  0
 13 14  1  0
 14 15  1  0
 15 16  1  0
 16 17  1  0
 10 18  2  0
 18 19  1  0
 19 20  2  0
  6  1  1  0
 20  8  1  0
 20  4  1  0
 17 12  1  0
  1 21  1  0
  2 22  1  0
  3 23  1  0
  6 24  1  0
  7 25  1  0
  7 26  1  0
  9 27  1  0
 11 28  1  0
 11 29  1  0
 13 30  1  0
 13 31  1  0
 14 32  1  0
 14 33  1  0
 16 34  1  0
 16 35  1  0
 17 36  1  0
 17 37  1  0
 18 38  1  0
 19 39  1  0
M  END
$$$$
