
     RDKit          3D

 36 37  0  0  0  0  0  0  0  0999 V2000
   -3.7175   -1.7637    0.4842 C   0  0  0  0  0  0  0  0  0  0  0  0
   -3.2859   -1.0341   -0.7849 C   0  0  0  0  0  0  0  0  0  0  0  0
   -1.9978   -0.3258   -0.7292 N   0  0  0  0  0  0  0  0  0  0  0  0
   -1.9403    0.7310    0.3009 C   0  0  0  0  0  0  0  0  0  0  0  0
   -2.9615    1.8623    0.1110 C   0  0  0  0  0  0  0  0  0  0  0  0
   -2.7707    2.8518    1.1204 O   0  0  0  0  0  0  0  0  0  0  0  0
   -0.8753   -1.2705   -0.5859 C   0  0  0  0  0  0  0  0  0  0  0  0
    0.3993   -0.6452   -1.0914 C   0  0  0  0  0  0  0  0  0  0  0  0
    0.5965   -0.2737   -2.4089 C   0  0  0  0  0  0  0  0  0  0  0  0
    2.1358    0.3879   -2.6929 S   0  0  0  0  0  0  0  0  0  0  0  0
    2.6019    0.1941   -1.0489 C   0  0  0  0  0  0  0  0  0  0  0  0
    3.8449    0.5449   -0.4812 C   0  0  0  0  0  0  0  0  0  0  0  0
    4.0726    0.3154    0.8819 C   0  0  0  0  0  0  0  0  0  0  0  0
    5.3779    0.7165    1.5044 C   0  0  0  0  0  0  0  0  0  0  0  0
    3.0580   -0.2309    1.6623 C   0  0  0  0  0  0  0  0  0  0  0  0
    1.8265   -0.5775    1.0942 C   0  0  0  0  0  0  0  0  0  0  0  0
    1.5759   -0.3724   -0.2869 C   0  0  0  0  0  0  0  0  0  0  0  0
   -2.9831   -2.5146    0.7905 H   0  0  0  0  0  0  0  0  0  0  0  0
   -3.8770   -1.0717    1.3163 H   0  0  0  0  0  0  0  0  0  0  0  0
   -4.6647   -2.2839    0.3060 H   0  0  0  0  0  0  0  0  0  0  0  0
   -3.2532   -1.7594   -1.6086 H   0  0  0  0  0  0  0  0  0  0  0  0
   -4.0761   -0.3328   -1.0767 H   0  0  0  0  0  0  0  0  0  0  0  0
   -0.9524    1.2087    0.2910 H   0  0  0  0  0  0  0  0  0  0  0  0
   -2.0411    0.3134    1.3109 H   0  0  0  0  0  0  0  0  0  0  0  0
   -3.9888    1.4985    0.1995 H   0  0  0  0  0  0  0  0  0  0  0  0
   -2.8316    2.3364   -0.8675 H   0  0  0  0  0  0  0  0  0  0  0  0
   -3.3623    3.5922    0.9020 H   0  0  0  0  0  0  0  0  0  0  0  0
   -1.0482   -2.1644   -1.2010 H   0  0  0  0  0  0  0  0  0  0  0  0
   -0.7754   -1.6208    0.4474 H   0  0  0  0  0  0  0  0  0  0  0  0
   -0.1130   -0.3575   -3.2209 H   0  0  0  0  0  0  0  0  0  0  0  0
    4.6169    0.9903   -1.1036 H   0  0  0  0  0  0  0  0  0  0  0  0
    6.1980    0.6270    0.7842 H   0  0  0  0  0  0  0  0  0  0  0  0
    5.3236    1.7527    1.8524 H   0  0  0  0  0  0  0  0  0  0  0  0
    5.6210    0.0698    2.3541 H   0  0  0  0  0  0  0  0  0  0  0  0
    3.2111   -0.3934    2.7272 H   0  0  0  0  0  0  0  0  0  0  0  0
    1.0560   -1.0007    1.7331 H   0  0  0  0  0  0  0  0  0  0  0  0
  1  2  1  0
  2  3  1  0
  3  4  1  0
  4  5  1  0
  5  6  1  0
  3  7  1  0
  7  8  1  0
  8  9  2  0
  9 10  1  0
 10 11  1  0
 11 12  2  0
 12 13  1  0
 13 14  1  0
 13 15  2  0
 15 16  1  0
 16 17  2  0
 17  8  1  0
 17 11  1  0
  1 18  1  0
  1 19  1  0
  1 20  1  0
  2 21  1  0
  2 22  1  0
  4 23  1  0
  4 24  1  0
  5 25  1  0
  5 26  1  0
  6 27  1  0
  7 28  1  0
  7 29  1  0
  9 30  1  0
 12 31  1  0
 14 32  1  0
 14 33  1  0
 14 34  1  0
 15 35  1  0
 16 36  1  0
M  END
$$$$
