
     RDKit          3D

 54 57  0  0  0  0  0  0  0  0999 V2000
    6.5340    2.4654    1.9382 C   0  0  0  0  0  0  0  0  0  0  0  0
    6.4839    0.9468    2.1239 C   0  0  0  0  0  0  0  0  0  0  0  0
    7.8715    0.3284    1.9359 C   0  0  0  0  0  0  0  0  0  0  0  0
    5.4589    0.3055    1.2063 C   0  0  0  0  0  0  0  0  0  0  0  0
    5.5673    0.3805   -0.1889 C   0  0  0  0  0  0  0  0  0  0  0  0
    4.6120   -0.2174   -1.0204 C   0  0  0  0  0  0  0  0  0  0  0  0
    3.5285   -0.9020   -0.4736 C   0  0  0  0  0  0  0  0  0  0  0  0
    2.5261   -1.5328   -1.2350 N   0  0  0  0  0  0  0  0  0  0  0  0
    2.3814   -1.5433   -2.6111 C   0  0  0  0  0  0  0  0  0  0  0  0
    3.1092   -0.9865   -3.4285 O   0  0  0  0  0  0  0  0  0  0  0  0
    1.1708   -2.3625   -3.0757 C   0  0  0  0  0  0  0  0  0  0  0  0
   -0.0829   -1.7021   -2.8876 O   0  0  0  0  0  0  0  0  0  0  0  0
   -0.5865   -1.7588   -1.6334 C   0  0  0  0  0  0  0  0  0  0  0  0
   -0.0459   -2.2966   -0.6787 O   0  0  0  0  0  0  0  0  0  0  0  0
   -1.8990   -1.0635   -1.5530 C   0  0  0  0  0  0  0  0  0  0  0  0
   -2.4671   -0.3990   -2.6458 C   0  0  0  0  0  0  0  0  0  0  0  0
   -3.7059    0.2422   -2.5146 C   0  0  0  0  0  0  0  0  0  0  0  0
   -4.3997    0.2334   -1.2934 C   0  0  0  0  0  0  0  0  0  0  0  0
   -3.8243   -0.4291   -0.2194 C   0  0  0  0  0  0  0  0  0  0  0  0
   -2.5835   -1.0758   -0.3333 C   0  0  0  0  0  0  0  0  0  0  0  0
   -4.6369   -0.4829    1.3280 S   0  0  0  0  0  6  0  0  0  0  0  0
   -3.7820    0.2277    2.2573 O   0  0  0  0  0  0  0  0  0  0  0  0
   -5.0138   -1.8661    1.5371 O   0  0  0  0  0  0  0  0  0  0  0  0
   -6.1233    0.4290    1.2202 C   0  0  0  0  0  0  0  0  0  0  0  0
   -6.9122    0.5423    2.3734 C   0  0  0  0  0  0  0  0  0  0  0  0
   -8.1052    1.2593    2.3253 C   0  0  0  0  0  0  0  0  0  0  0  0
   -8.5040    1.8572    1.1324 C   0  0  0  0  0  0  0  0  0  0  0  0
   -7.7088    1.7380   -0.0113 C   0  0  0  0  0  0  0  0  0  0  0  0
   -6.5028    1.0190    0.0225 C   0  0  0  0  0  0  0  0  0  0  0  0
   -5.7050    0.9317   -1.2232 C   0  0  0  0  0  0  0  0  0  0  0  0
   -6.1397    1.4620   -2.2423 O   0  0  0  0  0  0  0  0  0  0  0  0
    3.4157   -0.9823    0.9185 C   0  0  0  0  0  0  0  0  0  0  0  0
    4.3690   -0.3852    1.7500 C   0  0  0  0  0  0  0  0  0  0  0  0
    6.8812    2.7450    0.9376 H   0  0  0  0  0  0  0  0  0  0  0  0
    5.5434    2.9105    2.0843 H   0  0  0  0  0  0  0  0  0  0  0  0
    7.2159    2.9196    2.6653 H   0  0  0  0  0  0  0  0  0  0  0  0
    6.1863    0.7598    3.1643 H   0  0  0  0  0  0  0  0  0  0  0  0
    7.8393   -0.7571    2.0817 H   0  0  0  0  0  0  0  0  0  0  0  0
    8.2728    0.5187    0.9345 H   0  0  0  0  0  0  0  0  0  0  0  0
    8.5792    0.7432    2.6618 H   0  0  0  0  0  0  0  0  0  0  0  0
    6.3998    0.9066   -0.6511 H   0  0  0  0  0  0  0  0  0  0  0  0
    4.7493   -0.1294   -2.0933 H   0  0  0  0  0  0  0  0  0  0  0  0
    1.7851   -1.9911   -0.7027 H   0  0  0  0  0  0  0  0  0  0  0  0
    1.2822   -2.5446   -4.1504 H   0  0  0  0  0  0  0  0  0  0  0  0
    1.1770   -3.3491   -2.5955 H   0  0  0  0  0  0  0  0  0  0  0  0
   -1.9609   -0.3649   -3.6090 H   0  0  0  0  0  0  0  0  0  0  0  0
   -4.1254    0.7537   -3.3818 H   0  0  0  0  0  0  0  0  0  0  0  0
   -2.1571   -1.5874    0.5302 H   0  0  0  0  0  0  0  0  0  0  0  0
   -6.6002    0.0741    3.3058 H   0  0  0  0  0  0  0  0  0  0  0  0
   -8.7236    1.3521    3.2155 H   0  0  0  0  0  0  0  0  0  0  0  0
   -9.4353    2.4182    1.0887 H   0  0  0  0  0  0  0  0  0  0  0  0
   -8.0409    2.2146   -0.9335 H   0  0  0  0  0  0  0  0  0  0  0  0
    2.5827   -1.5090    1.3782 H   0  0  0  0  0  0  0  0  0  0  0  0
    4.2495   -0.4660    2.8282 H   0  0  0  0  0  0  0  0  0  0  0  0
  1  2  1  0
  2  3  1  0
  2  4  1  0
  4  5  2  0
  5  6  1  0
  6  7  2  0
  7  8  1  0
  8  9  1  0
  9 10  2  0
  9 11  1  0
 11 12  1  0
 12 13  1  0
 13 14  2  0
 13 15  1  0
 15 16  2  0
 16 17  1  0
 17 18  2  0
 18 19  1  0
 19 20  2  0
 19 21  1  0
 21 22  2  0
 21 23  2  0
 21 24  1  0
 24 25  2  0
 25 26  1  0
 26 27  2  0
 27 28  1  0
 28 29  2  0
 29 30  1  0
 30 31  2  0
  7 32  1  0
 32 33  2  0
 33  4  1  0
 20 15  1  0
 29 24  1  0
 30 18  1  0
  1 34  1  0
  1 35  1  0
  1 36  1  0
  2 37  1  0
  3 38  1  0
  3 39  1  0
  3 40  1  0
  5 41  1  0
  6 42  1  0
  8 43  1  0
 11 44  1  0
 11 45  1  0
 16 46  1  0
 17 47  1  0
 20 48  1  0
 25 49  1  0
 26 50  1  0
 27 51  1  0
 28 52  1  0
 32 53  1  0
 33 54  1  0
M  END
$$$$
