
     RDKit          3D

 55 58  0  0  0  0  0  0  0  0999 V2000
    3.4444    2.7619   -0.5840 O   0  0  0  0  0  0  0  0  0  0  0  0
    2.6642    2.0701   -1.2412 C   0  0  0  0  0  0  0  0  0  0  0  0
    1.5097    2.6643   -2.0225 C   0  0  0  0  0  0  0  0  0  0  0  0
    0.0986    2.9932   -0.9290 S   0  0  0  0  0  0  0  0  0  0  0  0
   -0.5365    1.3973   -0.7359 C   0  0  0  0  0  0  0  0  0  0  0  0
   -0.1022    0.3326   -1.3665 N   0  0  0  0  0  0  0  0  0  0  0  0
   -0.8432   -0.7346   -0.9346 N   0  0  0  0  0  0  0  0  0  0  0  0
   -1.7069   -0.3085   -0.0281 C   0  0  0  0  0  0  0  0  0  0  0  0
   -2.6706   -1.1516    0.6721 C   0  0  0  0  0  0  0  0  0  0  0  0
   -3.6348   -1.8407   -0.0768 C   0  0  0  0  0  0  0  0  0  0  0  0
   -4.5697   -2.6648    0.5521 C   0  0  0  0  0  0  0  0  0  0  0  0
   -4.5423   -2.8192    1.9371 C   0  0  0  0  0  0  0  0  0  0  0  0
   -3.5769   -2.1565    2.6949 C   0  0  0  0  0  0  0  0  0  0  0  0
   -2.6455   -1.3316    2.0615 C   0  0  0  0  0  0  0  0  0  0  0  0
   -1.6977   -0.6900    2.8132 O   0  0  0  0  0  0  0  0  0  0  0  0
   -1.5777    1.0628    0.0878 N   0  0  0  0  0  0  0  0  0  0  0  0
   -2.3965    1.9488    0.8931 C   0  0  0  0  0  0  0  0  0  0  0  0
   -3.7463    2.2044    0.2635 C   0  0  0  0  0  0  0  0  0  0  0  0
   -3.8716    3.0292   -0.8636 C   0  0  0  0  0  0  0  0  0  0  0  0
   -5.1213    3.2564   -1.4429 C   0  0  0  0  0  0  0  0  0  0  0  0
   -6.2603    2.6642   -0.9023 C   0  0  0  0  0  0  0  0  0  0  0  0
   -6.1514    1.8434    0.2174 C   0  0  0  0  0  0  0  0  0  0  0  0
   -4.9033    1.6174    0.7997 C   0  0  0  0  0  0  0  0  0  0  0  0
    2.7838    0.6986   -1.3478 N   0  0  0  0  0  0  0  0  0  0  0  0
    3.7683    0.0733   -0.5756 N   0  0  0  0  0  0  0  0  0  0  0  0
    4.1587   -1.2092   -0.8954 C   0  0  0  0  0  0  0  0  0  0  0  0
    3.5554   -1.9090   -1.7068 O   0  0  0  0  0  0  0  0  0  0  0  0
    5.3777   -1.7337   -0.2018 C   0  0  0  0  0  0  0  0  0  0  0  0
    5.7254   -3.0733   -0.4427 C   0  0  0  0  0  0  0  0  0  0  0  0
    6.8513   -3.6401    0.1588 C   0  0  0  0  0  0  0  0  0  0  0  0
    7.6449   -2.8745    1.0085 C   0  0  0  0  0  0  0  0  0  0  0  0
    7.3167   -1.5420    1.2576 C   0  0  0  0  0  0  0  0  0  0  0  0
    6.1898   -0.9744    0.6550 C   0  0  0  0  0  0  0  0  0  0  0  0
    5.8990    0.3389    0.9147 O   0  0  0  0  0  0  0  0  0  0  0  0
    1.2270    2.0228   -2.8634 H   0  0  0  0  0  0  0  0  0  0  0  0
    1.8509    3.6134   -2.4499 H   0  0  0  0  0  0  0  0  0  0  0  0
   -3.6582   -1.7346   -1.1602 H   0  0  0  0  0  0  0  0  0  0  0  0
   -5.3145   -3.1890   -0.0416 H   0  0  0  0  0  0  0  0  0  0  0  0
   -5.2694   -3.4637    2.4241 H   0  0  0  0  0  0  0  0  0  0  0  0
   -3.5674   -2.2915    3.7722 H   0  0  0  0  0  0  0  0  0  0  0  0
   -1.6346   -1.1337    3.6756 H   0  0  0  0  0  0  0  0  0  0  0  0
   -1.8746    2.8987    1.0463 H   0  0  0  0  0  0  0  0  0  0  0  0
   -2.5039    1.5137    1.8903 H   0  0  0  0  0  0  0  0  0  0  0  0
   -2.9990    3.5044   -1.3039 H   0  0  0  0  0  0  0  0  0  0  0  0
   -5.2051    3.8972   -2.3162 H   0  0  0  0  0  0  0  0  0  0  0  0
   -7.2324    2.8409   -1.3553 H   0  0  0  0  0  0  0  0  0  0  0  0
   -7.0386    1.3786    0.6380 H   0  0  0  0  0  0  0  0  0  0  0  0
   -4.8429    0.9720    1.6736 H   0  0  0  0  0  0  0  0  0  0  0  0
    1.9769    0.1168   -1.5976 H   0  0  0  0  0  0  0  0  0  0  0  0
    4.3725    0.6777   -0.0151 H   0  0  0  0  0  0  0  0  0  0  0  0
    5.1140   -3.6853   -1.1050 H   0  0  0  0  0  0  0  0  0  0  0  0
    7.1050   -4.6786   -0.0388 H   0  0  0  0  0  0  0  0  0  0  0  0
    8.5214   -3.3164    1.4753 H   0  0  0  0  0  0  0  0  0  0  0  0
    7.9507   -0.9632    1.9223 H   0  0  0  0  0  0  0  0  0  0  0  0
    6.5892    0.7167    1.4889 H   0  0  0  0  0  0  0  0  0  0  0  0
  1  2  2  0
  2  3  1  0
  3  4  1  0
  4  5  1  0
  5  6  2  0
  6  7  1  0
  7  8  2  0
  8  9  1  0
  9 10  2  0
 10 11  1  0
 11 12  2  0
 12 13  1  0
 13 14  2  0
 14 15  1  0
  8 16  1  0
 16 17  1  0
 17 18  1  0
 18 19  2  0
 19 20  1  0
 20 21  2  0
 21 22  1  0
 22 23  2  0
  2 24  1  0
 24 25  1  0
 25 26  1  0
 26 27  2  0
 26 28  1  0
 28 29  2  0
 29 30  1  0
 30 31  2  0
 31 32  1  0
 32 33  2  0
 33 34  1  0
 16  5  1  0
 23 18  1  0
 33 28  1  0
 14  9  1  0
  3 35  1  0
  3 36  1  0
 10 37  1  0
 11 38  1  0
 12 39  1  0
 13 40  1  0
 15 41  1  0
 17 42  1  0
 17 43  1  0
 19 44  1  0
 20 45  1  0
 21 46  1  0
 22 47  1  0
 23 48  1  0
 24 49  1  0
 25 50  1  0
 29 51  1  0
 30 52  1  0
 31 53  1  0
 32 54  1  0
 34 55  1  0
M  END
$$$$
