
     RDKit          3D

 43 45  0  0  0  0  0  0  0  0999 V2000
    7.9141   -0.0534    2.4076 C   0  0  0  0  0  0  0  0  0  0  0  0
    6.6157   -0.4773    1.9905 O   0  0  0  0  0  0  0  0  0  0  0  0
    5.7891    0.5413    1.6442 C   0  0  0  0  0  0  0  0  0  0  0  0
    6.0704    1.7292    1.6721 O   0  0  0  0  0  0  0  0  0  0  0  0
    4.4618    0.0203    1.2173 C   0  0  0  0  0  0  0  0  0  0  0  0
    4.1485   -1.3437    1.2288 C   0  0  0  0  0  0  0  0  0  0  0  0
    2.8834   -1.7739    0.8168 C   0  0  0  0  0  0  0  0  0  0  0  0
    1.9162   -0.8550    0.4020 C   0  0  0  0  0  0  0  0  0  0  0  0
    0.7262   -1.4059    0.0186 O   0  0  0  0  0  0  0  0  0  0  0  0
   -0.4380   -0.5812    0.0754 C   0  0  0  0  0  0  0  0  0  0  0  0
   -0.7969    0.0808   -1.2665 C   0  0  0  0  0  0  0  0  0  0  0  0
    0.0937    0.3453   -2.0841 O   0  0  0  0  0  0  0  0  0  0  0  0
   -2.1482    0.2874   -1.5910 N   0  0  0  0  0  0  0  0  0  0  0  0
   -2.4119    0.3668   -3.0317 C   0  0  0  0  0  0  0  0  0  0  0  0
   -3.8620    0.5913   -3.4263 C   0  0  0  0  0  0  0  0  0  0  0  0
   -4.7506   -0.3499   -2.6364 C   0  0  0  0  0  0  0  0  0  0  0  0
   -4.5418   -0.0682   -1.1738 C   0  0  0  0  0  0  0  0  0  0  0  0
   -5.6351   -0.1516   -0.2965 C   0  0  0  0  0  0  0  0  0  0  0  0
   -5.4823    0.1610    1.0501 C   0  0  0  0  0  0  0  0  0  0  0  0
   -4.2431    0.5766    1.5211 C   0  0  0  0  0  0  0  0  0  0  0  0
   -3.1469    0.6407    0.6544 C   0  0  0  0  0  0  0  0  0  0  0  0
   -3.2611    0.2689   -0.6910 C   0  0  0  0  0  0  0  0  0  0  0  0
    2.2325    0.5026    0.3713 C   0  0  0  0  0  0  0  0  0  0  0  0
    3.4976    0.9389    0.7824 C   0  0  0  0  0  0  0  0  0  0  0  0
    8.4237    0.4764    1.5966 H   0  0  0  0  0  0  0  0  0  0  0  0
    8.4966   -0.9441    2.6587 H   0  0  0  0  0  0  0  0  0  0  0  0
    7.8434    0.5770    3.2996 H   0  0  0  0  0  0  0  0  0  0  0  0
    4.8755   -2.0846    1.5507 H   0  0  0  0  0  0  0  0  0  0  0  0
    2.6487   -2.8359    0.8219 H   0  0  0  0  0  0  0  0  0  0  0  0
   -1.2465   -1.2626    0.3571 H   0  0  0  0  0  0  0  0  0  0  0  0
   -0.3431    0.1754    0.8596 H   0  0  0  0  0  0  0  0  0  0  0  0
   -2.0529   -0.5711   -3.4766 H   0  0  0  0  0  0  0  0  0  0  0  0
   -1.7978    1.1718   -3.4545 H   0  0  0  0  0  0  0  0  0  0  0  0
   -4.1421    1.6335   -3.2235 H   0  0  0  0  0  0  0  0  0  0  0  0
   -3.9880    0.4276   -4.5022 H   0  0  0  0  0  0  0  0  0  0  0  0
   -5.7954   -0.1794   -2.9204 H   0  0  0  0  0  0  0  0  0  0  0  0
   -4.5093   -1.3983   -2.8465 H   0  0  0  0  0  0  0  0  0  0  0  0
   -6.6159   -0.4433   -0.6659 H   0  0  0  0  0  0  0  0  0  0  0  0
   -6.3341    0.1083    1.7232 H   0  0  0  0  0  0  0  0  0  0  0  0
   -4.1287    0.8667    2.5629 H   0  0  0  0  0  0  0  0  0  0  0  0
   -2.2262    1.0455    1.0574 H   0  0  0  0  0  0  0  0  0  0  0  0
    1.5306    1.2443    0.0034 H   0  0  0  0  0  0  0  0  0  0  0  0
    3.7304    2.0019    0.7476 H   0  0  0  0  0  0  0  0  0  0  0  0
  1  2  1  0
  2  3  1  0
  3  4  2  0
  3  5  1  0
  5  6  2  0
  6  7  1  0
  7  8  2  0
  8  9  1  0
  9 10  1  0
 10 11  1  0
 11 12  2  0
 11 13  1  0
 13 14  1  0
 14 15  1  0
 15 16  1  0
 16 17  1  0
 17 18  2  0
 18 19  1  0
 19 20  2  0
 20 21  1  0
 21 22  2  0
  8 23  1  0
 23 24  2  0
 24  5  1  0
 22 13  1  0
 22 17  1  0
  1 25  1  0
  1 26  1  0
  1 27  1  0
  6 28  1  0
  7 29  1  0
 10 30  1  0
 10 31  1  0
 14 32  1  0
 14 33  1  0
 15 34  1  0
 15 35  1  0
 16 36  1  0
 16 37  1  0
 18 38  1  0
 19 39  1  0
 20 40  1  0
 21 41  1  0
 23 42  1  0
 24 43  1  0
M  END
$$$$
