
     RDKit          3D

 68 69  0  0  0  0  0  0  0  0999 V2000
    0.7157    1.0403    4.8560 C   0  0  0  0  0  0  0  0  0  0  0  0
    0.7968    0.2874    3.6517 O   0  0  0  0  0  0  0  0  0  0  0  0
    0.0176   -0.9082    3.7243 C   0  0  0  0  0  0  0  0  0  0  0  0
    0.1201   -1.6704    2.3965 C   0  0  0  0  0  0  0  0  0  0  0  0
   -0.5022   -0.9588    1.2650 N   0  0  0  0  0  0  0  0  0  0  0  0
    0.2095   -0.3330    0.2475 C   0  0  0  0  0  0  0  0  0  0  0  0
   -0.3561    0.1905   -0.7171 O   0  0  0  0  0  0  0  0  0  0  0  0
    1.7233   -0.3250    0.3392 C   0  0  0  0  0  0  0  0  0  0  0  0
    2.3511    0.3845   -0.8592 C   0  0  0  0  0  0  0  0  0  0  0  0
    3.8646    0.3497   -0.7959 C   0  0  0  0  0  0  0  0  0  0  0  0
    4.4703    0.0483    0.2293 O   0  0  0  0  0  0  0  0  0  0  0  0
    4.4384    0.7121   -1.9956 N   0  0  0  0  0  0  0  0  0  0  0  0
    5.7914    0.7436   -2.2470 C   0  0  0  0  0  0  0  0  0  0  0  0
    6.8706    0.4693   -1.3781 C   0  0  0  0  0  0  0  0  0  0  0  0
    7.9915    0.6388   -2.1541 C   0  0  0  0  0  0  0  0  0  0  0  0
    9.4394    0.5210   -1.9110 C   0  0  0  0  0  0  0  0  0  0  0  0
    7.6126    1.0015   -3.4080 O   0  0  0  0  0  0  0  0  0  0  0  0
    6.2327    1.0560   -3.4728 N   0  0  0  0  0  0  0  0  0  0  0  0
   -1.9849   -0.9746    1.2188 C   0  0  0  0  0  0  0  0  0  0  0  0
   -2.4533   -1.9364    0.0899 C   0  0  0  0  0  0  0  0  0  0  0  0
   -2.7563   -3.1041    0.3364 O   0  0  0  0  0  0  0  0  0  0  0  0
   -2.4347   -1.4058   -1.1866 N   0  0  0  0  0  0  0  0  0  0  0  0
   -2.6565   -2.1611   -2.4248 C   0  0  0  0  0  0  0  0  0  0  0  0
   -2.5525   -1.1739   -3.6027 C   0  0  0  0  0  0  0  0  0  0  0  0
   -1.5864   -3.2505   -2.5953 C   0  0  0  0  0  0  0  0  0  0  0  0
   -4.0590   -2.7891   -2.4493 C   0  0  0  0  0  0  0  0  0  0  0  0
   -2.6767    0.3909    1.2647 C   0  0  0  0  0  0  0  0  0  0  0  0
   -2.0338    1.5296    1.7716 C   0  0  0  0  0  0  0  0  0  0  0  0
   -2.6987    2.7574    1.8615 C   0  0  0  0  0  0  0  0  0  0  0  0
   -4.0279    2.8780    1.4648 C   0  0  0  0  0  0  0  0  0  0  0  0
   -4.5572    4.1313    1.6040 O   0  0  0  0  0  0  0  0  0  0  0  0
   -5.9191    4.2992    1.2338 C   0  0  0  0  0  0  0  0  0  0  0  0
   -4.6916    1.7523    0.9835 C   0  0  0  0  0  0  0  0  0  0  0  0
   -4.0269    0.5208    0.8949 C   0  0  0  0  0  0  0  0  0  0  0  0
   -0.3190    1.3343    5.0555 H   0  0  0  0  0  0  0  0  0  0  0  0
    1.1134    0.4614    5.6955 H   0  0  0  0  0  0  0  0  0  0  0  0
    1.3174    1.9451    4.7389 H   0  0  0  0  0  0  0  0  0  0  0  0
   -1.0236   -0.6543    3.9509 H   0  0  0  0  0  0  0  0  0  0  0  0
    0.4072   -1.5399    4.5309 H   0  0  0  0  0  0  0  0  0  0  0  0
   -0.3754   -2.6440    2.4848 H   0  0  0  0  0  0  0  0  0  0  0  0
    1.1720   -1.8702    2.1866 H   0  0  0  0  0  0  0  0  0  0  0  0
    2.0214    0.1728    1.2676 H   0  0  0  0  0  0  0  0  0  0  0  0
    2.0829   -1.3596    0.3544 H   0  0  0  0  0  0  0  0  0  0  0  0
    2.0269   -0.0972   -1.7919 H   0  0  0  0  0  0  0  0  0  0  0  0
    2.0317    1.4341   -0.8927 H   0  0  0  0  0  0  0  0  0  0  0  0
    3.8631    0.9545   -2.7931 H   0  0  0  0  0  0  0  0  0  0  0  0
    6.8448    0.1934   -0.3318 H   0  0  0  0  0  0  0  0  0  0  0  0
    9.8386   -0.3591   -2.4243 H   0  0  0  0  0  0  0  0  0  0  0  0
    9.6537    0.4216   -0.8438 H   0  0  0  0  0  0  0  0  0  0  0  0
    9.9661    1.4072   -2.2791 H   0  0  0  0  0  0  0  0  0  0  0  0
   -2.3237   -1.4625    2.1464 H   0  0  0  0  0  0  0  0  0  0  0  0
   -1.8753   -0.5486   -1.2637 H   0  0  0  0  0  0  0  0  0  0  0  0
   -1.5724   -0.6809   -3.6221 H   0  0  0  0  0  0  0  0  0  0  0  0
   -2.6926   -1.6802   -4.5627 H   0  0  0  0  0  0  0  0  0  0  0  0
   -3.3102   -0.3838   -3.5213 H   0  0  0  0  0  0  0  0  0  0  0  0
   -1.6921   -3.7615   -3.5582 H   0  0  0  0  0  0  0  0  0  0  0  0
   -1.6575   -4.0094   -1.8112 H   0  0  0  0  0  0  0  0  0  0  0  0
   -0.5778   -2.8248   -2.5460 H   0  0  0  0  0  0  0  0  0  0  0  0
   -4.8298   -2.0258   -2.2889 H   0  0  0  0  0  0  0  0  0  0  0  0
   -4.2584   -3.2688   -3.4164 H   0  0  0  0  0  0  0  0  0  0  0  0
   -4.1874   -3.5516   -1.6744 H   0  0  0  0  0  0  0  0  0  0  0  0
   -0.9986    1.4845    2.1010 H   0  0  0  0  0  0  0  0  0  0  0  0
   -2.1705    3.6268    2.2451 H   0  0  0  0  0  0  0  0  0  0  0  0
   -6.0744    4.0766    0.1730 H   0  0  0  0  0  0  0  0  0  0  0  0
   -6.5750    3.6898    1.8655 H   0  0  0  0  0  0  0  0  0  0  0  0
   -6.1833    5.3496    1.3957 H   0  0  0  0  0  0  0  0  0  0  0  0
   -5.7285    1.7942    0.6685 H   0  0  0  0  0  0  0  0  0  0  0  0
   -4.5857   -0.3356    0.5254 H   0  0  0  0  0  0  0  0  0  0  0  0
  1  2  1  0
  2  3  1  0
  3  4  1  0
  4  5  1  0
  5  6  1  0
  6  7  2  0
  6  8  1  0
  8  9  1  0
  9 10  1  0
 10 11  2  0
 10 12  1  0
 12 13  1  0
 13 14  1  0
 14 15  2  0
 15 16  1  0
 15 17  1  0
 17 18  1  0
  5 19  1  0
 19 20  1  0
 20 21  2  0
 20 22  1  0
 22 23  1  0
 23 24  1  0
 23 25  1  0
 23 26  1  0
 19 27  1  0
 27 28  2  0
 28 29  1  0
 29 30  2  0
 30 31  1  0
 31 32  1  0
 30 33  1  0
 33 34  2  0
 18 13  2  0
 34 27  1  0
  1 35  1  0
  1 36  1  0
  1 37  1  0
  3 38  1  0
  3 39  1  0
  4 40  1  0
  4 41  1  0
  8 42  1  0
  8 43  1  0
  9 44  1  0
  9 45  1  0
 12 46  1  0
 14 47  1  0
 16 48  1  0
 16 49  1  0
 16 50  1  0
 19 51  1  0
 22 52  1  0
 24 53  1  0
 24 54  1  0
 24 55  1  0
 25 56  1  0
 25 57  1  0
 25 58  1  0
 26 59  1  0
 26 60  1  0
 26 61  1  0
 28 62  1  0
 29 63  1  0
 32 64  1  0
 32 65  1  0
 32 66  1  0
 33 67  1  0
 34 68  1  0
M  END
$$$$
