
     RDKit          3D

 52 54  0  0  0  0  0  0  0  0999 V2000
   -3.2598    1.6461   -1.7419 C   0  0  0  0  0  0  0  0  0  0  0  0
   -3.3108    0.6128   -0.7159 N   0  0  0  0  0  0  0  0  0  0  0  0
   -4.6428    0.2089   -0.2610 C   0  0  0  0  0  0  0  0  0  0  0  0
   -5.4594   -0.4899   -1.3246 C   0  0  0  0  0  0  0  0  0  0  0  0
   -6.7823   -0.0884   -1.5675 C   0  0  0  0  0  0  0  0  0  0  0  0
   -7.5587   -0.7397   -2.5280 C   0  0  0  0  0  0  0  0  0  0  0  0
   -7.0258   -1.8024   -3.2535 C   0  0  0  0  0  0  0  0  0  0  0  0
   -5.7170   -2.2167   -3.0180 C   0  0  0  0  0  0  0  0  0  0  0  0
   -4.9393   -1.5684   -2.0563 C   0  0  0  0  0  0  0  0  0  0  0  0
   -2.1229   -0.0055   -0.3394 C   0  0  0  0  0  0  0  0  0  0  0  0
   -1.0412    0.2769   -0.8636 O   0  0  0  0  0  0  0  0  0  0  0  0
   -2.1908   -1.0767    0.7601 C   0  0  0  0  0  0  0  0  0  0  0  0
   -0.8919   -1.5644    1.1092 O   0  0  0  0  0  0  0  0  0  0  0  0
   -0.1709   -0.7091    1.8879 C   0  0  0  0  0  0  0  0  0  0  0  0
   -0.6030    0.3232    2.3905 O   0  0  0  0  0  0  0  0  0  0  0  0
    1.2596   -1.1939    2.0183 C   0  0  0  0  0  0  0  0  0  0  0  0
    1.9233   -0.4652    3.1049 N   0  0  0  0  0  0  0  0  0  0  0  0
    3.5109   -0.7941    3.4770 S   0  0  0  0  0  6  0  0  0  0  0  0
    3.6351   -2.2266    3.6321 O   0  0  0  0  0  0  0  0  0  0  0  0
    3.8993    0.1260    4.5216 O   0  0  0  0  0  0  0  0  0  0  0  0
    4.3667   -0.3197    1.9968 C   0  0  0  0  0  0  0  0  0  0  0  0
    4.8925   -1.2948    1.1490 C   0  0  0  0  0  0  0  0  0  0  0  0
    5.5647   -0.9034   -0.0097 C   0  0  0  0  0  0  0  0  0  0  0  0
    5.7232    0.4572   -0.3243 C   0  0  0  0  0  0  0  0  0  0  0  0
    6.3968    0.8630   -1.4871 C   0  0  0  0  0  0  0  0  0  0  0  0
    6.5509    2.2176   -1.7865 C   0  0  0  0  0  0  0  0  0  0  0  0
    6.0347    3.1837   -0.9280 C   0  0  0  0  0  0  0  0  0  0  0  0
    5.3625    2.7985    0.2329 C   0  0  0  0  0  0  0  0  0  0  0  0
    5.1977    1.4407    0.5484 C   0  0  0  0  0  0  0  0  0  0  0  0
    4.5237    1.0404    1.7114 C   0  0  0  0  0  0  0  0  0  0  0  0
   -3.5986    1.2250   -2.6926 H   0  0  0  0  0  0  0  0  0  0  0  0
   -2.2475    2.0369   -1.8748 H   0  0  0  0  0  0  0  0  0  0  0  0
   -3.9135    2.4738   -1.4522 H   0  0  0  0  0  0  0  0  0  0  0  0
   -4.5892   -0.4519    0.6074 H   0  0  0  0  0  0  0  0  0  0  0  0
   -5.1500    1.1214    0.0756 H   0  0  0  0  0  0  0  0  0  0  0  0
   -7.2204    0.7384   -1.0118 H   0  0  0  0  0  0  0  0  0  0  0  0
   -8.5811   -0.4173   -2.7105 H   0  0  0  0  0  0  0  0  0  0  0  0
   -7.6303   -2.3082   -4.0018 H   0  0  0  0  0  0  0  0  0  0  0  0
   -5.2997   -3.0452   -3.5850 H   0  0  0  0  0  0  0  0  0  0  0  0
   -3.9189   -1.9070   -1.8958 H   0  0  0  0  0  0  0  0  0  0  0  0
   -2.7015   -0.6915    1.6493 H   0  0  0  0  0  0  0  0  0  0  0  0
   -2.7556   -1.9316    0.3764 H   0  0  0  0  0  0  0  0  0  0  0  0
    1.7570   -1.0006    1.0643 H   0  0  0  0  0  0  0  0  0  0  0  0
    1.2535   -2.2641    2.2440 H   0  0  0  0  0  0  0  0  0  0  0  0
    1.5812    0.4720    3.3277 H   0  0  0  0  0  0  0  0  0  0  0  0
    4.7880   -2.3529    1.3789 H   0  0  0  0  0  0  0  0  0  0  0  0
    5.9702   -1.6698   -0.6678 H   0  0  0  0  0  0  0  0  0  0  0  0
    6.8090    0.1244   -2.1714 H   0  0  0  0  0  0  0  0  0  0  0  0
    7.0749    2.5175   -2.6904 H   0  0  0  0  0  0  0  0  0  0  0  0
    6.1554    4.2388   -1.1605 H   0  0  0  0  0  0  0  0  0  0  0  0
    4.9678    3.5699    0.8908 H   0  0  0  0  0  0  0  0  0  0  0  0
    4.1242    1.7858    2.3964 H   0  0  0  0  0  0  0  0  0  0  0  0
  1  2  1  0
  2  3  1  0
  3  4  1  0
  4  5  2  0
  5  6  1  0
  6  7  2  0
  7  8  1  0
  8  9  2  0
  2 10  1  0
 10 11  2  0
 10 12  1  0
 12 13  1  0
 13 14  1  0
 14 15  2  0
 14 16  1  0
 16 17  1  0
 17 18  1  0
 18 19  2  0
 18 20  2  0
 18 21  1  0
 21 22  2  0
 22 23  1  0
 23 24  2  0
 24 25  1  0
 25 26  2  0
 26 27  1  0
 27 28  2  0
 28 29  1  0
 29 30  2  0
  9  4  1  0
 30 21  1  0
 29 24  1  0
  1 31  1  0
  1 32  1  0
  1 33  1  0
  3 34  1  0
  3 35  1  0
  5 36  1  0
  6 37  1  0
  7 38  1  0
  8 39  1  0
  9 40  1  0
 12 41  1  0
 12 42  1  0
 16 43  1  0
 16 44  1  0
 17 45  1  0
 22 46  1  0
 23 47  1  0
 25 48  1  0
 26 49  1  0
 27 50  1  0
 28 51  1  0
 30 52  1  0
M  END
$$$$
