
     RDKit          3D

 28 30  0  0  0  0  0  0  0  0999 V2000
    0.0294   -3.3421   -1.0990 O   0  0  0  0  0  0  0  0  0  0  0  0
    0.1496   -2.3701   -0.3409 C   0  0  0  0  0  0  0  0  0  0  0  0
   -0.5782   -2.3692    0.9655 C   0  0  0  0  0  0  0  0  0  0  0  0
   -1.1876   -1.0518    1.3853 C   0  0  0  0  0  0  0  0  0  0  0  0
   -1.9333   -0.3111    0.3224 C   0  0  0  0  0  0  0  0  0  0  0  0
   -2.0666    1.0181   -0.0350 C   0  0  0  0  0  0  0  0  0  0  0  0
   -2.9484    1.0568   -1.1416 C   0  0  0  0  0  0  0  0  0  0  0  0
   -3.3143   -0.2445   -1.3836 C   0  0  0  0  0  0  0  0  0  0  0  0
   -2.7158   -1.0776   -0.4968 O   0  0  0  0  0  0  0  0  0  0  0  0
    0.0572   -0.0961    2.2871 S   0  0  0  0  0  0  0  0  0  0  0  0
    1.1937    0.4157    1.0155 C   0  0  0  0  0  0  0  0  0  0  0  0
    1.8577    1.6194    1.3514 C   0  0  0  0  0  0  0  0  0  0  0  0
    2.7805    2.2225    0.4986 C   0  0  0  0  0  0  0  0  0  0  0  0
    3.0657    1.6293   -0.7169 C   0  0  0  0  0  0  0  0  0  0  0  0
    2.4319    0.4356   -1.0610 C   0  0  0  0  0  0  0  0  0  0  0  0
    1.4968   -0.1974   -0.2091 C   0  0  0  0  0  0  0  0  0  0  0  0
    1.0032   -1.4030   -0.7386 N   0  0  0  0  0  0  0  0  0  0  0  0
   -1.3997   -3.0917    0.8496 H   0  0  0  0  0  0  0  0  0  0  0  0
    0.0814   -2.7973    1.7308 H   0  0  0  0  0  0  0  0  0  0  0  0
   -1.9349   -1.2867    2.1552 H   0  0  0  0  0  0  0  0  0  0  0  0
   -1.5837    1.8606    0.4413 H   0  0  0  0  0  0  0  0  0  0  0  0
   -3.2802    1.9260   -1.6916 H   0  0  0  0  0  0  0  0  0  0  0  0
   -3.9607   -0.7200   -2.1082 H   0  0  0  0  0  0  0  0  0  0  0  0
    1.6521    2.1126    2.3018 H   0  0  0  0  0  0  0  0  0  0  0  0
    3.2684    3.1494    0.7883 H   0  0  0  0  0  0  0  0  0  0  0  0
    3.7815    2.0845   -1.3964 H   0  0  0  0  0  0  0  0  0  0  0  0
    2.6894   -0.0060   -2.0229 H   0  0  0  0  0  0  0  0  0  0  0  0
    1.3650   -1.6593   -1.6512 H   0  0  0  0  0  0  0  0  0  0  0  0
  1  2  2  0
  2  3  1  0
  3  4  1  0
  4  5  1  0
  5  6  2  0
  6  7  1  0
  7  8  2  0
  8  9  1  0
  4 10  1  0
 10 11  1  0
 11 12  2  0
 12 13  1  0
 13 14  2  0
 14 15  1  0
 15 16  2  0
 16 17  1  0
 17  2  1  0
  9  5  1  0
 16 11  1  0
  3 18  1  0
  3 19  1  0
  4 20  1  0
  6 21  1  0
  7 22  1  0
  8 23  1  0
 12 24  1  0
 13 25  1  0
 14 26  1  0
 15 27  1  0
 17 28  1  0
M  END
$$$$
