
     RDKit          3D

 44 46  0  0  0  0  0  0  0  0999 V2000
   -5.4279   -0.2954   -3.5584 C   0  0  0  0  0  0  0  0  0  0  0  0
   -4.7310   -0.7427   -2.3066 C   0  0  0  0  0  0  0  0  0  0  0  0
   -4.3761   -2.0883   -2.1367 C   0  0  0  0  0  0  0  0  0  0  0  0
   -3.7014   -2.5023   -0.9872 C   0  0  0  0  0  0  0  0  0  0  0  0
   -3.3638   -1.5610   -0.0118 C   0  0  0  0  0  0  0  0  0  0  0  0
   -2.5118   -2.0892    1.4511 S   0  0  0  0  0  6  0  0  0  0  0  0
   -2.9805   -3.4225    1.7686 O   0  0  0  0  0  0  0  0  0  0  0  0
   -2.5613   -1.0311    2.4366 O   0  0  0  0  0  0  0  0  0  0  0  0
   -0.9183   -2.2768    0.9090 N   0  0  0  0  0  0  0  0  0  0  0  0
   -0.1207   -1.1067    0.7766 C   0  0  0  0  0  0  0  0  0  0  0  0
   -0.1356   -0.3999   -0.4243 C   0  0  0  0  0  0  0  0  0  0  0  0
    0.6057    0.7801   -0.5587 C   0  0  0  0  0  0  0  0  0  0  0  0
    0.5876    1.5397   -1.8543 C   0  0  0  0  0  0  0  0  0  0  0  0
    1.3667    1.2309    0.5308 C   0  0  0  0  0  0  0  0  0  0  0  0
    2.0860    2.3832    0.3444 O   0  0  0  0  0  0  0  0  0  0  0  0
    1.3772    0.5326    1.7512 C   0  0  0  0  0  0  0  0  0  0  0  0
    2.2289    1.0976    3.2189 S   0  0  0  0  0  0  0  0  0  0  0  0
    3.8953    1.0076    2.7320 C   0  0  0  0  0  0  0  0  0  0  0  0
    4.7971    0.2618    3.3725 N   0  0  0  0  0  0  0  0  0  0  0  0
    5.9105    0.5284    2.6732 N   0  0  0  0  0  0  0  0  0  0  0  0
    5.6619    1.4094    1.6582 C   0  0  0  0  0  0  0  0  0  0  0  0
    6.7079    1.8802    0.7271 C   0  0  0  0  0  0  0  0  0  0  0  0
    4.3867    1.7354    1.6787 N   0  0  0  0  0  0  0  0  0  0  0  0
    0.6173   -0.6397    1.8633 C   0  0  0  0  0  0  0  0  0  0  0  0
   -3.7113   -0.2169   -0.1664 C   0  0  0  0  0  0  0  0  0  0  0  0
   -4.3845    0.1901   -1.3191 C   0  0  0  0  0  0  0  0  0  0  0  0
   -6.0738    0.5662   -3.3592 H   0  0  0  0  0  0  0  0  0  0  0  0
   -6.0641   -1.0924   -3.9574 H   0  0  0  0  0  0  0  0  0  0  0  0
   -4.6904   -0.0173   -4.3175 H   0  0  0  0  0  0  0  0  0  0  0  0
   -4.6295   -2.8229   -2.8986 H   0  0  0  0  0  0  0  0  0  0  0  0
   -3.4416   -3.5507   -0.8601 H   0  0  0  0  0  0  0  0  0  0  0  0
   -0.4899   -3.0908    1.3486 H   0  0  0  0  0  0  0  0  0  0  0  0
   -0.7204   -0.7703   -1.2629 H   0  0  0  0  0  0  0  0  0  0  0  0
    1.5920    1.5718   -2.2887 H   0  0  0  0  0  0  0  0  0  0  0  0
    0.2287    2.5610   -1.6910 H   0  0  0  0  0  0  0  0  0  0  0  0
   -0.0776    1.0693   -2.5862 H   0  0  0  0  0  0  0  0  0  0  0  0
    2.8542    2.3626    0.9536 H   0  0  0  0  0  0  0  0  0  0  0  0
    6.7839    0.0867    2.9392 H   0  0  0  0  0  0  0  0  0  0  0  0
    7.4993    2.4062    1.2697 H   0  0  0  0  0  0  0  0  0  0  0  0
    6.2847    2.5690   -0.0104 H   0  0  0  0  0  0  0  0  0  0  0  0
    7.1540    1.0379    0.1895 H   0  0  0  0  0  0  0  0  0  0  0  0
    0.5828   -1.1777    2.8077 H   0  0  0  0  0  0  0  0  0  0  0  0
   -3.4550    0.5165    0.5955 H   0  0  0  0  0  0  0  0  0  0  0  0
   -4.6419    1.2405   -1.4408 H   0  0  0  0  0  0  0  0  0  0  0  0
  1  2  1  0
  2  3  2  0
  3  4  1  0
  4  5  2  0
  5  6  1  0
  6  7  2  0
  6  8  2  0
  6  9  1  0
  9 10  1  0
 10 11  2  0
 11 12  1  0
 12 13  1  0
 12 14  2  0
 14 15  1  0
 14 16  1  0
 16 17  1  0
 17 18  1  0
 18 19  2  0
 19 20  1  0
 20 21  1  0
 21 22  1  0
 21 23  2  0
 16 24  2  0
  5 25  1  0
 25 26  2  0
 26  2  1  0
 24 10  1  0
 23 18  1  0
  1 27  1  0
  1 28  1  0
  1 29  1  0
  3 30  1  0
  4 31  1  0
  9 32  1  0
 11 33  1  0
 13 34  1  0
 13 35  1  0
 13 36  1  0
 15 37  1  0
 20 38  1  0
 22 39  1  0
 22 40  1  0
 22 41  1  0
 24 42  1  0
 25 43  1  0
 26 44  1  0
M  END
$$$$
