
     RDKit          3D

 58 62  0  0  0  0  0  0  0  0999 V2000
    8.8596   -0.3269    0.6529 C   0  0  0  0  0  0  0  0  0  0  0  0
    8.0934   -1.4435    1.0866 O   0  0  0  0  0  0  0  0  0  0  0  0
    6.7343   -1.3537    0.9593 C   0  0  0  0  0  0  0  0  0  0  0  0
    6.0348   -2.4784    1.4065 C   0  0  0  0  0  0  0  0  0  0  0  0
    4.6395   -2.5261    1.3381 C   0  0  0  0  0  0  0  0  0  0  0  0
    3.9188   -1.4508    0.8212 C   0  0  0  0  0  0  0  0  0  0  0  0
    2.5161   -1.5416    0.7874 N   0  0  0  0  0  0  0  0  0  0  0  0
    1.7846   -0.5547    0.3291 C   0  0  0  0  0  0  0  0  0  0  0  0
    0.4006   -0.6989    0.3670 N   0  0  0  0  0  0  0  0  0  0  0  0
   -0.4893    0.4302    0.6756 C   0  0  0  0  0  0  0  0  0  0  0  0
   -1.6443    0.0295    1.6229 C   0  0  0  0  0  0  0  0  0  0  0  0
   -2.4442   -1.1302    1.1942 N   0  0  0  0  0  0  0  0  0  0  0  0
   -3.7928   -0.8112    0.7107 C   0  0  0  0  0  0  0  0  0  0  0  0
   -3.8893    0.1143   -0.5219 C   0  0  0  0  0  0  0  0  0  0  0  0
   -5.2819    0.5205   -0.9870 C   0  0  0  0  0  0  0  0  0  0  0  0
   -6.4420   -0.0684   -0.4544 C   0  0  0  0  0  0  0  0  0  0  0  0
   -7.7123    0.3063   -0.8975 C   0  0  0  0  0  0  0  0  0  0  0  0
   -7.8517    1.2731   -1.8845 C   0  0  0  0  0  0  0  0  0  0  0  0
   -6.7185    1.8665   -2.4341 C   0  0  0  0  0  0  0  0  0  0  0  0
   -5.4272    1.5019   -2.0038 C   0  0  0  0  0  0  0  0  0  0  0  0
   -4.2299    2.1816   -2.6397 C   0  0  0  0  0  0  0  0  0  0  0  0
   -4.5573    3.0299   -3.6561 F   0  0  0  0  0  0  0  0  0  0  0  0
   -3.5208    2.9339   -1.7510 F   0  0  0  0  0  0  0  0  0  0  0  0
   -3.3407    1.2988   -3.1745 F   0  0  0  0  0  0  0  0  0  0  0  0
   -1.6910   -2.0332    0.3065 C   0  0  0  0  0  0  0  0  0  0  0  0
   -0.1768   -2.0356    0.5990 C   0  0  0  0  0  0  0  0  0  0  0  0
    2.4690    0.6192   -0.2002 C   0  0  0  0  0  0  0  0  0  0  0  0
    2.0074    1.7495   -0.8535 C   0  0  0  0  0  0  0  0  0  0  0  0
    3.1204    2.5736   -1.1386 C   0  0  0  0  0  0  0  0  0  0  0  0
    4.2407    1.9153   -0.6835 C   0  0  0  0  0  0  0  0  0  0  0  0
    3.8448    0.7125   -0.1473 N   0  0  0  0  0  0  0  0  0  0  0  0
    4.6289   -0.3296    0.3757 C   0  0  0  0  0  0  0  0  0  0  0  0
    6.0281   -0.2687    0.4375 C   0  0  0  0  0  0  0  0  0  0  0  0
    8.7307   -0.1533   -0.4208 H   0  0  0  0  0  0  0  0  0  0  0  0
    8.6137    0.5698    1.2317 H   0  0  0  0  0  0  0  0  0  0  0  0
    9.9150   -0.5570    0.8284 H   0  0  0  0  0  0  0  0  0  0  0  0
    6.5800   -3.3265    1.8140 H   0  0  0  0  0  0  0  0  0  0  0  0
    4.1089   -3.4056    1.6923 H   0  0  0  0  0  0  0  0  0  0  0  0
    0.0664    1.2405    1.1612 H   0  0  0  0  0  0  0  0  0  0  0  0
   -0.9027    0.8176   -0.2620 H   0  0  0  0  0  0  0  0  0  0  0  0
   -2.2769    0.9026    1.8242 H   0  0  0  0  0  0  0  0  0  0  0  0
   -1.2022   -0.2346    2.5929 H   0  0  0  0  0  0  0  0  0  0  0  0
   -4.3450   -0.3557    1.5433 H   0  0  0  0  0  0  0  0  0  0  0  0
   -4.3098   -1.7563    0.5001 H   0  0  0  0  0  0  0  0  0  0  0  0
   -3.3960   -0.3713   -1.3711 H   0  0  0  0  0  0  0  0  0  0  0  0
   -3.3422    1.0355   -0.2956 H   0  0  0  0  0  0  0  0  0  0  0  0
   -6.3889   -0.8328    0.3170 H   0  0  0  0  0  0  0  0  0  0  0  0
   -8.5952   -0.1622   -0.4687 H   0  0  0  0  0  0  0  0  0  0  0  0
   -8.8413    1.5633   -2.2284 H   0  0  0  0  0  0  0  0  0  0  0  0
   -6.8466    2.6212   -3.2097 H   0  0  0  0  0  0  0  0  0  0  0  0
   -1.8252   -1.7548   -0.7452 H   0  0  0  0  0  0  0  0  0  0  0  0
   -2.0803   -3.0507    0.4253 H   0  0  0  0  0  0  0  0  0  0  0  0
    0.0078   -2.3510    1.6336 H   0  0  0  0  0  0  0  0  0  0  0  0
    0.3008   -2.7651   -0.0662 H   0  0  0  0  0  0  0  0  0  0  0  0
    0.9792    1.9664   -1.1064 H   0  0  0  0  0  0  0  0  0  0  0  0
    3.1084    3.5362   -1.6335 H   0  0  0  0  0  0  0  0  0  0  0  0
    5.2789    2.2098   -0.7241 H   0  0  0  0  0  0  0  0  0  0  0  0
    6.5513    0.6093    0.0829 H   0  0  0  0  0  0  0  0  0  0  0  0
  1  2  1  0
  2  3  1  0
  3  4  2  0
  4  5  1  0
  5  6  2  0
  6  7  1  0
  7  8  2  0
  8  9  1  0
  9 10  1  0
 10 11  1  0
 11 12  1  0
 12 13  1  0
 13 14  1  0
 14 15  1  0
 15 16  2  0
 16 17  1  0
 17 18  2  0
 18 19  1  0
 19 20  2  0
 20 21  1  0
 21 22  1  0
 21 23  1  0
 21 24  1  0
 12 25  1  0
 25 26  1  0
  8 27  1  0
 27 28  2  0
 28 29  1  0
 29 30  2  0
 30 31  1  0
 31 32  1  0
 32 33  2  0
 33  3  1  0
 32  6  1  0
 26  9  1  0
 31 27  1  0
 20 15  1  0
  1 34  1  0
  1 35  1  0
  1 36  1  0
  4 37  1  0
  5 38  1  0
 10 39  1  0
 10 40  1  0
 11 41  1  0
 11 42  1  0
 13 43  1  0
 13 44  1  0
 14 45  1  0
 14 46  1  0
 16 47  1  0
 17 48  1  0
 18 49  1  0
 19 50  1  0
 25 51  1  0
 25 52  1  0
 26 53  1  0
 26 54  1  0
 28 55  1  0
 29 56  1  0
 30 57  1  0
 33 58  1  0
M  END
$$$$
