
     RDKit          3D

 44 46  0  0  0  0  0  0  0  0999 V2000
   -5.5093   -0.1424   -3.4478 C   0  0  0  0  0  0  0  0  0  0  0  0
   -4.7522   -0.7073   -2.2815 C   0  0  0  0  0  0  0  0  0  0  0  0
   -5.1867   -0.4646   -0.9708 C   0  0  0  0  0  0  0  0  0  0  0  0
   -4.4680   -0.9638    0.1166 C   0  0  0  0  0  0  0  0  0  0  0  0
   -3.2984   -1.6936   -0.1092 C   0  0  0  0  0  0  0  0  0  0  0  0
   -2.3897   -2.3328    1.2732 S   0  0  0  0  0  6  0  0  0  0  0  0
   -1.4266   -3.3029    0.7996 O   0  0  0  0  0  0  0  0  0  0  0  0
   -3.3503   -2.6799    2.3003 O   0  0  0  0  0  0  0  0  0  0  0  0
   -1.5725   -0.9654    1.8483 N   0  0  0  0  0  0  0  0  0  0  0  0
   -0.3912   -0.5631    1.1660 C   0  0  0  0  0  0  0  0  0  0  0  0
   -0.4885    0.3086    0.0832 C   0  0  0  0  0  0  0  0  0  0  0  0
    0.6575    0.6788   -0.6309 C   0  0  0  0  0  0  0  0  0  0  0  0
    0.5495    1.6195   -1.7968 C   0  0  0  0  0  0  0  0  0  0  0  0
    1.9009    0.1650   -0.2318 C   0  0  0  0  0  0  0  0  0  0  0  0
    2.9944    0.5695   -0.9533 O   0  0  0  0  0  0  0  0  0  0  0  0
    2.0078   -0.7262    0.8505 C   0  0  0  0  0  0  0  0  0  0  0  0
    3.5344   -1.5115    1.3519 S   0  0  0  0  0  0  0  0  0  0  0  0
    4.4796   -0.1587    1.8982 C   0  0  0  0  0  0  0  0  0  0  0  0
    4.9656   -0.0688    3.1372 N   0  0  0  0  0  0  0  0  0  0  0  0
    5.6302    1.0952    3.0806 N   0  0  0  0  0  0  0  0  0  0  0  0
    5.5371    1.6617    1.8401 C   0  0  0  0  0  0  0  0  0  0  0  0
    6.1747    2.9486    1.4933 C   0  0  0  0  0  0  0  0  0  0  0  0
    4.8152    0.8788    1.0665 N   0  0  0  0  0  0  0  0  0  0  0  0
    0.8437   -1.0904    1.5410 C   0  0  0  0  0  0  0  0  0  0  0  0
   -2.8531   -1.9442   -1.4092 C   0  0  0  0  0  0  0  0  0  0  0  0
   -3.5760   -1.4407   -2.4916 C   0  0  0  0  0  0  0  0  0  0  0  0
   -5.4196   -0.7938   -4.3235 H   0  0  0  0  0  0  0  0  0  0  0  0
   -5.1201    0.8485   -3.7012 H   0  0  0  0  0  0  0  0  0  0  0  0
   -6.5761   -0.0552   -3.2164 H   0  0  0  0  0  0  0  0  0  0  0  0
   -6.0924    0.1109   -0.7908 H   0  0  0  0  0  0  0  0  0  0  0  0
   -4.8207   -0.7799    1.1288 H   0  0  0  0  0  0  0  0  0  0  0  0
   -1.5476   -0.9727    2.8675 H   0  0  0  0  0  0  0  0  0  0  0  0
   -1.4580    0.7086   -0.2041 H   0  0  0  0  0  0  0  0  0  0  0  0
    0.9494    1.1509   -2.7019 H   0  0  0  0  0  0  0  0  0  0  0  0
    1.1007    2.5426   -1.5906 H   0  0  0  0  0  0  0  0  0  0  0  0
   -0.4923    1.8902   -1.9989 H   0  0  0  0  0  0  0  0  0  0  0  0
    3.7798    0.5150   -0.3687 H   0  0  0  0  0  0  0  0  0  0  0  0
    6.1148    1.4331    3.9050 H   0  0  0  0  0  0  0  0  0  0  0  0
    5.8020    3.7506    2.1377 H   0  0  0  0  0  0  0  0  0  0  0  0
    5.9579    3.2178    0.4550 H   0  0  0  0  0  0  0  0  0  0  0  0
    7.2610    2.8845    1.6088 H   0  0  0  0  0  0  0  0  0  0  0  0
    0.8973   -1.8047    2.3592 H   0  0  0  0  0  0  0  0  0  0  0  0
   -1.9459   -2.5181   -1.5870 H   0  0  0  0  0  0  0  0  0  0  0  0
   -3.2184   -1.6279   -3.5023 H   0  0  0  0  0  0  0  0  0  0  0  0
  1  2  1  0
  2  3  2  0
  3  4  1  0
  4  5  2  0
  5  6  1  0
  6  7  2  0
  6  8  2  0
  6  9  1  0
  9 10  1  0
 10 11  2  0
 11 12  1  0
 12 13  1  0
 12 14  2  0
 14 15  1  0
 14 16  1  0
 16 17  1  0
 17 18  1  0
 18 19  2  0
 19 20  1  0
 20 21  1  0
 21 22  1  0
 21 23  2  0
 16 24  2  0
  5 25  1  0
 25 26  2  0
 26  2  1  0
 24 10  1  0
 23 18  1  0
  1 27  1  0
  1 28  1  0
  1 29  1  0
  3 30  1  0
  4 31  1  0
  9 32  1  0
 11 33  1  0
 13 34  1  0
 13 35  1  0
 13 36  1  0
 15 37  1  0
 20 38  1  0
 22 39  1  0
 22 40  1  0
 22 41  1  0
 24 42  1  0
 25 43  1  0
 26 44  1  0
M  END
$$$$
