
     RDKit          3D

 65 69  0  0  0  0  0  0  0  0999 V2000
    3.4106   -1.0238    2.3833 O   0  0  0  0  0  0  0  0  0  0  0  0
    4.1130   -0.9947    1.3654 C   0  0  0  0  0  0  0  0  0  0  0  0
    5.3640   -1.9090    1.2192 C   0  0  0  0  0  0  0  0  0  0  0  0
    6.7477   -1.2887    1.5636 C   0  0  0  0  0  0  0  0  0  0  0  0
    7.1490   -2.6552    2.1454 C   0  0  0  0  0  0  0  0  0  0  0  0
    5.6503   -2.9213    2.3680 C   0  0  0  0  0  0  0  0  0  0  0  0
    3.8429   -0.1631    0.2826 N   0  0  0  0  0  0  0  0  0  0  0  0
    4.6168   -0.1070   -0.9679 C   0  0  0  0  0  0  0  0  0  0  0  0
    3.9551    0.9315   -1.8830 C   0  0  0  0  0  0  0  0  0  0  0  0
    2.8159    1.4095   -1.0434 C   0  0  0  0  0  0  0  0  0  0  0  0
    1.8699    2.3666   -1.3825 C   0  0  0  0  0  0  0  0  0  0  0  0
    0.8763    2.6621   -0.4448 C   0  0  0  0  0  0  0  0  0  0  0  0
   -0.3653    3.8706   -0.8265 S   0  0  0  0  0  6  0  0  0  0  0  0
   -0.7273    4.5310    0.4089 O   0  0  0  0  0  0  0  0  0  0  0  0
    0.0366    4.6118   -2.0014 O   0  0  0  0  0  0  0  0  0  0  0  0
   -1.6723    2.8998   -1.2308 N   0  0  0  0  0  0  0  0  0  0  0  0
   -1.7949    2.4328   -2.6223 C   0  0  0  0  0  0  0  0  0  0  0  0
   -2.8649    1.3244   -2.7321 C   0  0  0  0  0  0  0  0  0  0  0  0
   -2.3824   -0.0661   -2.5812 N   0  0  0  0  0  0  0  0  0  0  0  0
   -3.5288   -1.0055   -2.6981 C   0  0  0  0  0  0  0  0  0  0  0  0
   -4.1400   -1.5596   -1.3805 C   0  0  0  0  0  0  0  0  0  0  0  0
   -3.9761   -0.6184   -0.2601 N   0  0  0  0  0  0  0  0  0  0  0  0
   -4.7375   -0.8077    0.9081 C   0  0  0  0  0  0  0  0  0  0  0  0
   -4.7568    0.2003    1.8935 C   0  0  0  0  0  0  0  0  0  0  0  0
   -5.5156    0.0830    3.0661 C   0  0  0  0  0  0  0  0  0  0  0  0
   -6.2908   -1.0493    3.2866 C   0  0  0  0  0  0  0  0  0  0  0  0
   -6.3039   -2.0612    2.3338 C   0  0  0  0  0  0  0  0  0  0  0  0
   -5.5413   -1.9373    1.1683 C   0  0  0  0  0  0  0  0  0  0  0  0
   -5.5862   -2.9681    0.3089 F   0  0  0  0  0  0  0  0  0  0  0  0
   -2.5825   -0.1679   -0.0338 C   0  0  0  0  0  0  0  0  0  0  0  0
   -1.7037   -0.3225   -1.2975 C   0  0  0  0  0  0  0  0  0  0  0  0
    0.8513    2.0323    0.8116 C   0  0  0  0  0  0  0  0  0  0  0  0
    1.8121    1.0685    1.1322 C   0  0  0  0  0  0  0  0  0  0  0  0
    2.7864    0.7617    0.1946 C   0  0  0  0  0  0  0  0  0  0  0  0
    5.3751   -2.4324    0.2520 H   0  0  0  0  0  0  0  0  0  0  0  0
    7.3454   -0.9545    0.7125 H   0  0  0  0  0  0  0  0  0  0  0  0
    6.7067   -0.4844    2.3073 H   0  0  0  0  0  0  0  0  0  0  0  0
    7.7683   -2.6256    3.0454 H   0  0  0  0  0  0  0  0  0  0  0  0
    7.6127   -3.3269    1.4138 H   0  0  0  0  0  0  0  0  0  0  0  0
    5.3250   -3.9491    2.1847 H   0  0  0  0  0  0  0  0  0  0  0  0
    5.2953   -2.6082    3.3566 H   0  0  0  0  0  0  0  0  0  0  0  0
    5.6514    0.1675   -0.7376 H   0  0  0  0  0  0  0  0  0  0  0  0
    4.6206   -1.0982   -1.4343 H   0  0  0  0  0  0  0  0  0  0  0  0
    3.5989    0.4717   -2.8102 H   0  0  0  0  0  0  0  0  0  0  0  0
    4.6457    1.7468   -2.1185 H   0  0  0  0  0  0  0  0  0  0  0  0
    1.8994    2.8649   -2.3478 H   0  0  0  0  0  0  0  0  0  0  0  0
   -2.5263    3.1994   -0.7597 H   0  0  0  0  0  0  0  0  0  0  0  0
   -2.1178    3.2833   -3.2341 H   0  0  0  0  0  0  0  0  0  0  0  0
   -0.8341    2.0794   -3.0101 H   0  0  0  0  0  0  0  0  0  0  0  0
   -3.6939    1.5408   -2.0458 H   0  0  0  0  0  0  0  0  0  0  0  0
   -3.2748    1.4019   -3.7485 H   0  0  0  0  0  0  0  0  0  0  0  0
   -3.1914   -1.8676   -3.2880 H   0  0  0  0  0  0  0  0  0  0  0  0
   -4.3312   -0.5581   -3.2989 H   0  0  0  0  0  0  0  0  0  0  0  0
   -3.6547   -2.5117   -1.1311 H   0  0  0  0  0  0  0  0  0  0  0  0
   -5.2001   -1.7512   -1.5799 H   0  0  0  0  0  0  0  0  0  0  0  0
   -4.1936    1.1192    1.7496 H   0  0  0  0  0  0  0  0  0  0  0  0
   -5.4992    0.8818    3.8020 H   0  0  0  0  0  0  0  0  0  0  0  0
   -6.8828   -1.1410    4.1930 H   0  0  0  0  0  0  0  0  0  0  0  0
   -6.9002   -2.9549    2.4852 H   0  0  0  0  0  0  0  0  0  0  0  0
   -2.5874    0.8861    0.2607 H   0  0  0  0  0  0  0  0  0  0  0  0
   -2.1195   -0.7422    0.7789 H   0  0  0  0  0  0  0  0  0  0  0  0
   -0.8003    0.2869   -1.2036 H   0  0  0  0  0  0  0  0  0  0  0  0
   -1.3274   -1.3557   -1.3256 H   0  0  0  0  0  0  0  0  0  0  0  0
    0.0844    2.2855    1.5418 H   0  0  0  0  0  0  0  0  0  0  0  0
    1.7781    0.5872    2.1041 H   0  0  0  0  0  0  0  0  0  0  0  0
  1  2  2  0
  2  3  1  0
  3  4  1  0
  4  5  1  0
  5  6  1  0
  2  7  1  0
  7  8  1  0
  8  9  1  0
  9 10  1  0
 10 11  2  0
 11 12  1  0
 12 13  1  0
 13 14  2  0
 13 15  2  0
 13 16  1  0
 16 17  1  0
 17 18  1  0
 18 19  1  0
 19 20  1  0
 20 21  1  0
 21 22  1  0
 22 23  1  0
 23 24  2  0
 24 25  1  0
 25 26  2  0
 26 27  1  0
 27 28  2  0
 28 29  1  0
 22 30  1  0
 30 31  1  0
 12 32  2  0
 32 33  1  0
 33 34  2  0
  6  3  1  0
 34  7  1  0
 34 10  1  0
 31 19  1  0
 28 23  1  0
  3 35  1  0
  4 36  1  0
  4 37  1  0
  5 38  1  0
  5 39  1  0
  6 40  1  0
  6 41  1  0
  8 42  1  0
  8 43  1  0
  9 44  1  0
  9 45  1  0
 11 46  1  0
 16 47  1  0
 17 48  1  0
 17 49  1  0
 18 50  1  0
 18 51  1  0
 20 52  1  0
 20 53  1  0
 21 54  1  0
 21 55  1  0
 24 56  1  0
 25 57  1  0
 26 58  1  0
 27 59  1  0
 30 60  1  0
 30 61  1  0
 31 62  1  0
 31 63  1  0
 32 64  1  0
 33 65  1  0
M  END
$$$$
