
     RDKit          3D

 57 60  0  0  0  0  0  0  0  0999 V2000
   -7.7800    2.1115    2.7802 C   0  0  0  0  0  0  0  0  0  0  0  0
   -7.4421    0.6298    2.7174 C   0  0  0  0  0  0  0  0  0  0  0  0
   -6.2766    0.3596    1.8015 C   0  0  0  0  0  0  0  0  0  0  0  0
   -6.4836    0.1023    0.4441 C   0  0  0  0  0  0  0  0  0  0  0  0
   -5.3978   -0.1316   -0.4069 C   0  0  0  0  0  0  0  0  0  0  0  0
   -4.0716   -0.1077    0.0621 C   0  0  0  0  0  0  0  0  0  0  0  0
   -2.9419   -0.3510   -0.8616 C   0  0  0  0  0  0  0  0  0  0  0  0
   -1.6822    0.1931   -0.6781 C   0  0  0  0  0  0  0  0  0  0  0  0
   -0.6878   -0.0990   -1.6144 C   0  0  0  0  0  0  0  0  0  0  0  0
    0.6536    0.4839   -1.3844 C   0  0  0  0  0  0  0  0  0  0  0  0
    1.0962    1.2777   -2.2022 O   0  0  0  0  0  0  0  0  0  0  0  0
    1.2597    0.0257   -0.2301 N   0  0  0  0  0  0  0  0  0  0  0  0
    2.5118    0.4142    0.2878 C   0  0  0  0  0  0  0  0  0  0  0  0
    3.3069    1.4194   -0.2699 C   0  0  0  0  0  0  0  0  0  0  0  0
    4.5391    1.7524    0.3035 C   0  0  0  0  0  0  0  0  0  0  0  0
    4.9829    1.0679    1.4363 C   0  0  0  0  0  0  0  0  0  0  0  0
    6.5313    1.5093    2.1799 S   0  0  0  0  0  6  0  0  0  0  0  0
    6.7913    2.8964    1.8515 O   0  0  0  0  0  0  0  0  0  0  0  0
    6.5479    1.0598    3.5532 O   0  0  0  0  0  0  0  0  0  0  0  0
    7.6396    0.6393    1.3013 N   0  0  0  0  0  0  0  0  0  0  0  0
    7.7279   -0.7560    1.2664 C   0  0  0  0  0  0  0  0  0  0  0  0
    8.8712   -1.2738    0.4401 C   0  0  0  0  0  0  0  0  0  0  0  0
    6.9379   -1.4979    1.8305 O   0  0  0  0  0  0  0  0  0  0  0  0
    4.1910    0.0767    2.0163 C   0  0  0  0  0  0  0  0  0  0  0  0
    2.9614   -0.2497    1.4379 C   0  0  0  0  0  0  0  0  0  0  0  0
   -0.9497   -0.9104   -2.7356 C   0  0  0  0  0  0  0  0  0  0  0  0
   -0.0012   -1.2482   -3.7338 C   0  0  0  0  0  0  0  0  0  0  0  0
   -0.3487   -2.0686   -4.8048 C   0  0  0  0  0  0  0  0  0  0  0  0
   -1.6419   -2.5630   -4.8931 C   0  0  0  0  0  0  0  0  0  0  0  0
   -2.5778   -2.2315   -3.9104 C   0  0  0  0  0  0  0  0  0  0  0  0
   -2.2571   -1.4149   -2.8339 C   0  0  0  0  0  0  0  0  0  0  0  0
   -3.2128   -1.1464   -1.9267 N   0  0  0  0  0  0  0  0  0  0  0  0
   -3.8832    0.1507    1.4320 C   0  0  0  0  0  0  0  0  0  0  0  0
   -4.9667    0.3852    2.2882 C   0  0  0  0  0  0  0  0  0  0  0  0
   -8.0470    2.5002    1.7915 H   0  0  0  0  0  0  0  0  0  0  0  0
   -6.9330    2.6970    3.1537 H   0  0  0  0  0  0  0  0  0  0  0  0
   -8.6290    2.2779    3.4508 H   0  0  0  0  0  0  0  0  0  0  0  0
   -8.3181    0.0643    2.3771 H   0  0  0  0  0  0  0  0  0  0  0  0
   -7.2141    0.2585    3.7240 H   0  0  0  0  0  0  0  0  0  0  0  0
   -7.4908    0.0807    0.0340 H   0  0  0  0  0  0  0  0  0  0  0  0
   -5.5953   -0.3314   -1.4597 H   0  0  0  0  0  0  0  0  0  0  0  0
   -1.4718    0.8606    0.1507 H   0  0  0  0  0  0  0  0  0  0  0  0
    0.7774   -0.7044    0.2809 H   0  0  0  0  0  0  0  0  0  0  0  0
    2.9904    1.9739   -1.1487 H   0  0  0  0  0  0  0  0  0  0  0  0
    5.1344    2.5484   -0.1385 H   0  0  0  0  0  0  0  0  0  0  0  0
    8.2817    1.2260    0.7790 H   0  0  0  0  0  0  0  0  0  0  0  0
    8.9051   -2.3651    0.4997 H   0  0  0  0  0  0  0  0  0  0  0  0
    8.7346   -0.9779   -0.6035 H   0  0  0  0  0  0  0  0  0  0  0  0
    9.8142   -0.8700    0.8184 H   0  0  0  0  0  0  0  0  0  0  0  0
    4.5288   -0.4537    2.9052 H   0  0  0  0  0  0  0  0  0  0  0  0
    2.3665   -1.0339    1.8998 H   0  0  0  0  0  0  0  0  0  0  0  0
    1.0160   -0.8618   -3.6872 H   0  0  0  0  0  0  0  0  0  0  0  0
    0.3870   -2.3141   -5.5665 H   0  0  0  0  0  0  0  0  0  0  0  0
   -1.9297   -3.2027   -5.7234 H   0  0  0  0  0  0  0  0  0  0  0  0
   -3.5902   -2.6227   -3.9874 H   0  0  0  0  0  0  0  0  0  0  0  0
   -2.8864    0.1603    1.8656 H   0  0  0  0  0  0  0  0  0  0  0  0
   -4.7781    0.5848    3.3410 H   0  0  0  0  0  0  0  0  0  0  0  0
  1  2  1  0
  2  3  1  0
  3  4  2  0
  4  5  1  0
  5  6  2  0
  6  7  1  0
  7  8  2  0
  8  9  1  0
  9 10  1  0
 10 11  2  0
 10 12  1  0
 12 13  1  0
 13 14  2  0
 14 15  1  0
 15 16  2  0
 16 17  1  0
 17 18  2  0
 17 19  2  0
 17 20  1  0
 20 21  1  0
 21 22  1  0
 21 23  2  0
 16 24  1  0
 24 25  2  0
  9 26  2  0
 26 27  1  0
 27 28  2  0
 28 29  1  0
 29 30  2  0
 30 31  1  0
 31 32  2  0
  6 33  1  0
 33 34  2  0
 34  3  1  0
 32  7  1  0
 25 13  1  0
 31 26  1  0
  1 35  1  0
  1 36  1  0
  1 37  1  0
  2 38  1  0
  2 39  1  0
  4 40  1  0
  5 41  1  0
  8 42  1  0
 12 43  1  0
 14 44  1  0
 15 45  1  0
 20 46  1  0
 22 47  1  0
 22 48  1  0
 22 49  1  0
 24 50  1  0
 25 51  1  0
 27 52  1  0
 28 53  1  0
 29 54  1  0
 30 55  1  0
 33 56  1  0
 34 57  1  0
M  END
$$$$
