
     RDKit          3D

 48 49  0  0  0  0  0  0  0  0999 V2000
   -5.0468   -2.0838    0.8612 C   0  0  0  0  0  0  0  0  0  0  0  0
   -4.5853   -1.4984   -0.4626 C   0  0  0  0  0  0  0  0  0  0  0  0
   -5.0585   -0.1258   -0.6737 N   0  0  0  0  0  0  0  0  0  0  0  0
   -6.4829    0.0624   -0.9517 C   0  0  0  0  0  0  0  0  0  0  0  0
   -7.2194    0.6936    0.2227 C   0  0  0  0  0  0  0  0  0  0  0  0
   -4.2278    0.9927   -0.7853 C   0  0  0  0  0  0  0  0  0  0  0  0
   -4.6110    2.0897   -1.1868 O   0  0  0  0  0  0  0  0  0  0  0  0
   -2.8066    0.8760   -0.4008 C   0  0  0  0  0  0  0  0  0  0  0  0
   -2.4500    0.6063    0.9213 C   0  0  0  0  0  0  0  0  0  0  0  0
   -1.0987    0.5242    1.2740 C   0  0  0  0  0  0  0  0  0  0  0  0
   -0.1025    0.7276    0.3152 C   0  0  0  0  0  0  0  0  0  0  0  0
    1.2745    0.6686    0.5918 N   0  0  0  0  0  0  0  0  0  0  0  0
    1.8963    0.3835    1.7939 C   0  0  0  0  0  0  0  0  0  0  0  0
    1.3473    0.1002    2.8542 O   0  0  0  0  0  0  0  0  0  0  0  0
    3.4249    0.4198    1.6982 C   0  0  0  0  0  0  0  0  0  0  0  0
    3.8501    0.8863    0.4153 O   0  0  0  0  0  0  0  0  0  0  0  0
    5.0763    0.4006    0.0438 C   0  0  0  0  0  0  0  0  0  0  0  0
    6.2064    0.5956    0.8442 C   0  0  0  0  0  0  0  0  0  0  0  0
    7.4509    0.1235    0.4176 C   0  0  0  0  0  0  0  0  0  0  0  0
    7.5561   -0.5384   -0.8147 C   0  0  0  0  0  0  0  0  0  0  0  0
    8.8638   -1.0351   -1.2617 N   0  0  0  0  0  4  0  0  0  0  0  0
    8.8971   -1.7093   -2.2996 O   0  0  0  0  0  0  0  0  0  0  0  0
    9.8526   -0.7472   -0.5737 O   0  0  0  0  0  1  0  0  0  0  0  0
    6.4322   -0.7181   -1.6326 C   0  0  0  0  0  0  0  0  0  0  0  0
    5.1958   -0.2378   -1.2000 C   0  0  0  0  0  0  0  0  0  0  0  0
    3.8174   -0.4591   -2.2200 Cl  0  0  0  0  0  0  0  0  0  0  0  0
   -0.4745    1.0197   -1.0061 C   0  0  0  0  0  0  0  0  0  0  0  0
   -1.8226    1.1013   -1.3643 C   0  0  0  0  0  0  0  0  0  0  0  0
   -4.7447   -1.4548    1.7041 H   0  0  0  0  0  0  0  0  0  0  0  0
   -6.1363   -2.1853    0.8924 H   0  0  0  0  0  0  0  0  0  0  0  0
   -4.6156   -3.0795    1.0037 H   0  0  0  0  0  0  0  0  0  0  0  0
   -4.9598   -2.1100   -1.2927 H   0  0  0  0  0  0  0  0  0  0  0  0
   -3.4939   -1.5456   -0.5208 H   0  0  0  0  0  0  0  0  0  0  0  0
   -6.5885    0.7047   -1.8337 H   0  0  0  0  0  0  0  0  0  0  0  0
   -6.9362   -0.9042   -1.2003 H   0  0  0  0  0  0  0  0  0  0  0  0
   -6.8055    1.6770    0.4728 H   0  0  0  0  0  0  0  0  0  0  0  0
   -7.1489    0.0672    1.1161 H   0  0  0  0  0  0  0  0  0  0  0  0
   -8.2796    0.8230   -0.0185 H   0  0  0  0  0  0  0  0  0  0  0  0
   -3.2150    0.4731    1.6812 H   0  0  0  0  0  0  0  0  0  0  0  0
   -0.8575    0.3137    2.3116 H   0  0  0  0  0  0  0  0  0  0  0  0
    1.9070    0.8553   -0.1831 H   0  0  0  0  0  0  0  0  0  0  0  0
    3.7813   -0.5992    1.8981 H   0  0  0  0  0  0  0  0  0  0  0  0
    3.7906    1.1074    2.4688 H   0  0  0  0  0  0  0  0  0  0  0  0
    6.1388    1.1353    1.7858 H   0  0  0  0  0  0  0  0  0  0  0  0
    8.3248    0.2841    1.0484 H   0  0  0  0  0  0  0  0  0  0  0  0
    6.5100   -1.2203   -2.5950 H   0  0  0  0  0  0  0  0  0  0  0  0
    0.2783    1.1949   -1.7725 H   0  0  0  0  0  0  0  0  0  0  0  0
   -2.1042    1.3445   -2.3862 H   0  0  0  0  0  0  0  0  0  0  0  0
  1  2  1  0
  2  3  1  0
  3  4  1  0
  4  5  1  0
  3  6  1  0
  6  7  2  0
  6  8  1  0
  8  9  2  0
  9 10  1  0
 10 11  2  0
 11 12  1  0
 12 13  1  0
 13 14  2  0
 13 15  1  0
 15 16  1  0
 16 17  1  0
 17 18  2  0
 18 19  1  0
 19 20  2  0
 20 21  1  0
 21 22  2  0
 21 23  1  0
 20 24  1  0
 24 25  2  0
 25 26  1  0
 11 27  1  0
 27 28  2  0
 28  8  1  0
 25 17  1  0
  1 29  1  0
  1 30  1  0
  1 31  1  0
  2 32  1  0
  2 33  1  0
  4 34  1  0
  4 35  1  0
  5 36  1  0
  5 37  1  0
  5 38  1  0
  9 39  1  0
 10 40  1  0
 12 41  1  0
 15 42  1  0
 15 43  1  0
 18 44  1  0
 19 45  1  0
 24 46  1  0
 27 47  1  0
 28 48  1  0
M  CHG  2  21   1  23  -1
M  END
$$$$
