
     RDKit          3D

 60 62  0  0  0  0  0  0  0  0999 V2000
   -8.2237    2.5816   -0.2814 C   0  0  0  0  0  0  0  0  0  0  0  0
   -7.8686    1.3824   -1.1481 C   0  0  0  0  0  0  0  0  0  0  0  0
   -6.4510    0.9250   -0.9233 C   0  0  0  0  0  0  0  0  0  0  0  0
   -5.3836    1.5876   -1.5371 C   0  0  0  0  0  0  0  0  0  0  0  0
   -4.0690    1.1676   -1.3155 C   0  0  0  0  0  0  0  0  0  0  0  0
   -3.7956    0.0781   -0.4793 C   0  0  0  0  0  0  0  0  0  0  0  0
   -2.4417   -0.2738   -0.3141 N   0  0  0  0  0  0  0  0  0  0  0  0
   -1.9131   -1.3363    0.4051 C   0  0  0  0  0  0  0  0  0  0  0  0
   -2.5667   -2.1680    1.0275 O   0  0  0  0  0  0  0  0  0  0  0  0
   -0.3657   -1.3654    0.3579 C   0  0  0  0  0  0  0  0  0  0  0  0
    0.0825   -1.5410   -1.0397 N   0  0  0  0  0  0  0  0  0  0  0  0
    0.6141   -0.2441   -1.9363 S   0  0  0  0  0  6  0  0  0  0  0  0
   -0.2480    0.8712   -1.6026 O   0  0  0  0  0  0  0  0  0  0  0  0
    0.7647   -0.7088   -3.2949 O   0  0  0  0  0  0  0  0  0  0  0  0
    2.2275    0.0441   -1.2639 C   0  0  0  0  0  0  0  0  0  0  0  0
    3.2714   -0.8354   -1.5964 C   0  0  0  0  0  0  0  0  0  0  0  0
    4.5531   -0.6329   -1.0744 C   0  0  0  0  0  0  0  0  0  0  0  0
    4.7656    0.4490   -0.2338 C   0  0  0  0  0  0  0  0  0  0  0  0
    3.7239    1.3252    0.0816 C   0  0  0  0  0  0  0  0  0  0  0  0
    2.4461    1.1438   -0.4288 C   0  0  0  0  0  0  0  0  0  0  0  0
    4.1908    2.4288    0.9764 C   0  0  0  0  0  0  0  0  0  0  0  0
    5.6522    2.0395    1.2320 C   0  0  0  0  0  0  0  0  0  0  0  0
    5.9488    0.8515    0.4128 N   0  0  0  0  0  0  0  0  0  0  0  0
    7.1752    0.2165    0.3250 C   0  0  0  0  0  0  0  0  0  0  0  0
    8.2820    0.8331    1.1477 C   0  0  0  0  0  0  0  0  0  0  0  0
    7.4086   -0.7809   -0.3565 O   0  0  0  0  0  0  0  0  0  0  0  0
    0.3270   -2.4381    1.2332 C   0  0  0  0  0  0  0  0  0  0  0  0
    0.0929   -2.1914    2.7273 C   0  0  0  0  0  0  0  0  0  0  0  0
   -0.0181   -3.8859    0.8693 C   0  0  0  0  0  0  0  0  0  0  0  0
   -4.8587   -0.5788    0.1379 C   0  0  0  0  0  0  0  0  0  0  0  0
   -6.1759   -0.1566   -0.0797 C   0  0  0  0  0  0  0  0  0  0  0  0
   -7.5833    3.4403   -0.5082 H   0  0  0  0  0  0  0  0  0  0  0  0
   -9.2617    2.8804   -0.4556 H   0  0  0  0  0  0  0  0  0  0  0  0
   -8.1104    2.3497    0.7827 H   0  0  0  0  0  0  0  0  0  0  0  0
   -8.0066    1.6344   -2.2073 H   0  0  0  0  0  0  0  0  0  0  0  0
   -8.5634    0.5597   -0.9385 H   0  0  0  0  0  0  0  0  0  0  0  0
   -5.5675    2.4359   -2.1930 H   0  0  0  0  0  0  0  0  0  0  0  0
   -3.2618    1.7027   -1.8108 H   0  0  0  0  0  0  0  0  0  0  0  0
   -1.7740    0.3157   -0.8132 H   0  0  0  0  0  0  0  0  0  0  0  0
   -0.0300   -0.3887    0.7316 H   0  0  0  0  0  0  0  0  0  0  0  0
   -0.2348   -2.3530   -1.5696 H   0  0  0  0  0  0  0  0  0  0  0  0
    3.0933   -1.6779   -2.2613 H   0  0  0  0  0  0  0  0  0  0  0  0
    5.3511   -1.3204   -1.3366 H   0  0  0  0  0  0  0  0  0  0  0  0
    1.6478    1.8388   -0.1851 H   0  0  0  0  0  0  0  0  0  0  0  0
    3.6202    2.4637    1.9100 H   0  0  0  0  0  0  0  0  0  0  0  0
    4.1260    3.3965    0.4675 H   0  0  0  0  0  0  0  0  0  0  0  0
    5.8161    1.7867    2.2865 H   0  0  0  0  0  0  0  0  0  0  0  0
    6.3359    2.8530    0.9651 H   0  0  0  0  0  0  0  0  0  0  0  0
    8.4728    1.8589    0.8211 H   0  0  0  0  0  0  0  0  0  0  0  0
    8.0223    0.8107    2.2096 H   0  0  0  0  0  0  0  0  0  0  0  0
    9.2008    0.2550    1.0090 H   0  0  0  0  0  0  0  0  0  0  0  0
    1.4093   -2.3304    1.0693 H   0  0  0  0  0  0  0  0  0  0  0  0
   -0.9522   -2.3457    3.0113 H   0  0  0  0  0  0  0  0  0  0  0  0
    0.3741   -1.1694    3.0030 H   0  0  0  0  0  0  0  0  0  0  0  0
    0.7032   -2.8747    3.3287 H   0  0  0  0  0  0  0  0  0  0  0  0
    0.5773   -4.5788    1.4726 H   0  0  0  0  0  0  0  0  0  0  0  0
   -1.0691   -4.1221    1.0499 H   0  0  0  0  0  0  0  0  0  0  0  0
    0.2040   -4.1016   -0.1787 H   0  0  0  0  0  0  0  0  0  0  0  0
   -4.7012   -1.4220    0.8022 H   0  0  0  0  0  0  0  0  0  0  0  0
   -6.9852   -0.6851    0.4196 H   0  0  0  0  0  0  0  0  0  0  0  0
  1  2  1  0
  2  3  1  0
  3  4  2  0
  4  5  1  0
  5  6  2  0
  6  7  1  0
  7  8  1  0
  8  9  2  0
  8 10  1  0
 10 11  1  0
 11 12  1  0
 12 13  2  0
 12 14  2  0
 12 15  1  0
 15 16  2  0
 16 17  1  0
 17 18  2  0
 18 19  1  0
 19 20  2  0
 19 21  1  0
 21 22  1  0
 22 23  1  0
 23 24  1  0
 24 25  1  0
 24 26  2  0
 10 27  1  0
 27 28  1  0
 27 29  1  0
  6 30  1  0
 30 31  2  0
 31  3  1  0
 20 15  1  0
 23 18  1  0
  1 32  1  0
  1 33  1  0
  1 34  1  0
  2 35  1  0
  2 36  1  0
  4 37  1  0
  5 38  1  0
  7 39  1  0
 10 40  1  0
 11 41  1  0
 16 42  1  0
 17 43  1  0
 20 44  1  0
 21 45  1  0
 21 46  1  0
 22 47  1  0
 22 48  1  0
 25 49  1  0
 25 50  1  0
 25 51  1  0
 27 52  1  0
 28 53  1  0
 28 54  1  0
 28 55  1  0
 29 56  1  0
 29 57  1  0
 29 58  1  0
 30 59  1  0
 31 60  1  0
M  END
$$$$
