
     RDKit          3D

 58 62  0  0  0  0  0  0  0  0999 V2000
    6.8755    3.9990    0.1581 C   0  0  0  0  0  0  0  0  0  0  0  0
    6.7173    2.5926    0.2934 O   0  0  0  0  0  0  0  0  0  0  0  0
    5.4448    2.1317    0.4898 C   0  0  0  0  0  0  0  0  0  0  0  0
    5.3421    0.7470    0.6405 C   0  0  0  0  0  0  0  0  0  0  0  0
    4.1008    0.1417    0.8480 C   0  0  0  0  0  0  0  0  0  0  0  0
    2.9401    0.9195    0.9109 C   0  0  0  0  0  0  0  0  0  0  0  0
    1.5919    0.2709    1.1085 C   0  0  0  0  0  0  0  0  0  0  0  0
    0.9389   -0.0911   -0.2291 C   0  0  0  0  0  0  0  0  0  0  0  0
   -0.3678   -0.7439   -0.0186 N   0  0  0  0  0  0  0  0  0  0  0  0
   -1.5087    0.0587    0.1092 C   0  0  0  0  0  0  0  0  0  0  0  0
   -1.3964    1.3581    0.1314 N   0  0  0  0  0  0  0  0  0  0  0  0
   -2.8562   -0.5962    0.2374 C   0  0  0  0  0  0  0  0  0  0  0  0
   -4.1687    0.0945    0.1525 C   0  0  0  0  0  0  0  0  0  0  0  0
   -5.1655   -0.3217    0.7324 O   0  0  0  0  0  0  0  0  0  0  0  0
   -4.1776    1.1996   -0.6600 N   0  0  0  0  0  0  0  0  0  0  0  0
   -5.4030    1.9289   -0.8947 C   0  0  0  0  0  0  0  0  0  0  0  0
   -5.0856    3.1554   -1.6617 C   0  0  0  0  0  0  0  0  0  0  0  0
   -5.3073    3.5439   -2.9670 C   0  0  0  0  0  0  0  0  0  0  0  0
   -4.7474    4.8371   -3.1002 C   0  0  0  0  0  0  0  0  0  0  0  0
   -4.2219    5.1554   -1.8701 C   0  0  0  0  0  0  0  0  0  0  0  0
   -4.4191    4.1398   -0.9915 O   0  0  0  0  0  0  0  0  0  0  0  0
   -2.8523   -1.9300    0.4004 C   0  0  0  0  0  0  0  0  0  0  0  0
   -1.6264   -2.7153    0.4173 C   0  0  0  0  0  0  0  0  0  0  0  0
   -1.6985   -4.1856    0.6514 C   0  0  0  0  0  0  0  0  0  0  0  0
   -2.7917   -4.7273    0.8276 O   0  0  0  0  0  0  0  0  0  0  0  0
   -0.4903   -4.8606    0.6493 N   0  0  0  0  0  0  0  0  0  0  0  0
   -0.4715   -6.2333    0.8752 C   0  0  0  0  0  0  0  0  0  0  0  0
    0.6702   -6.9323    0.8756 C   0  0  0  0  0  0  0  0  0  0  0  0
    1.9200   -6.2621    0.6359 C   0  0  0  0  0  0  0  0  0  0  0  0
    1.9482   -4.9429    0.4125 C   0  0  0  0  0  0  0  0  0  0  0  0
    0.6785   -4.1614    0.4129 C   0  0  0  0  0  0  0  0  0  0  0  0
    0.7377   -2.8874    0.1943 N   0  0  0  0  0  0  0  0  0  0  0  0
   -0.4203   -2.1429    0.1967 C   0  0  0  0  0  0  0  0  0  0  0  0
    3.0436    2.3067    0.7524 C   0  0  0  0  0  0  0  0  0  0  0  0
    4.2889    2.9100    0.5454 C   0  0  0  0  0  0  0  0  0  0  0  0
    6.5471    4.5231    1.0617 H   0  0  0  0  0  0  0  0  0  0  0  0
    6.3514    4.3717   -0.7281 H   0  0  0  0  0  0  0  0  0  0  0  0
    7.9424    4.2033    0.0245 H   0  0  0  0  0  0  0  0  0  0  0  0
    6.2385    0.1339    0.5956 H   0  0  0  0  0  0  0  0  0  0  0  0
    4.0470   -0.9388    0.9593 H   0  0  0  0  0  0  0  0  0  0  0  0
    1.7092   -0.6228    1.7347 H   0  0  0  0  0  0  0  0  0  0  0  0
    0.9454    0.9454    1.6842 H   0  0  0  0  0  0  0  0  0  0  0  0
    1.6011   -0.7439   -0.8135 H   0  0  0  0  0  0  0  0  0  0  0  0
    0.8226    0.8049   -0.8536 H   0  0  0  0  0  0  0  0  0  0  0  0
   -2.2990    1.8178    0.3059 H   0  0  0  0  0  0  0  0  0  0  0  0
   -3.3931    1.3798   -1.2793 H   0  0  0  0  0  0  0  0  0  0  0  0
   -5.8681    2.1720    0.0665 H   0  0  0  0  0  0  0  0  0  0  0  0
   -6.0863    1.2796   -1.4522 H   0  0  0  0  0  0  0  0  0  0  0  0
   -5.8122    2.9643   -3.7279 H   0  0  0  0  0  0  0  0  0  0  0  0
   -4.7288    5.4641   -3.9812 H   0  0  0  0  0  0  0  0  0  0  0  0
   -3.7041    6.0198   -1.4751 H   0  0  0  0  0  0  0  0  0  0  0  0
   -3.7901   -2.4747    0.4988 H   0  0  0  0  0  0  0  0  0  0  0  0
   -1.4280   -6.7191    1.0533 H   0  0  0  0  0  0  0  0  0  0  0  0
    0.6745   -8.0029    1.0534 H   0  0  0  0  0  0  0  0  0  0  0  0
    2.8331   -6.8489    0.6408 H   0  0  0  0  0  0  0  0  0  0  0  0
    2.8670   -4.4010    0.2273 H   0  0  0  0  0  0  0  0  0  0  0  0
    2.1504    2.9282    0.7882 H   0  0  0  0  0  0  0  0  0  0  0  0
    4.3177    3.9879    0.4299 H   0  0  0  0  0  0  0  0  0  0  0  0
  1  2  1  0
  2  3  1  0
  3  4  2  0
  4  5  1  0
  5  6  2  0
  6  7  1  0
  7  8  1  0
  8  9  1  0
  9 10  1  0
 10 11  2  3
 10 12  1  0
 12 13  1  0
 13 14  2  0
 13 15  1  0
 15 16  1  0
 16 17  1  0
 17 18  2  0
 18 19  1  0
 19 20  2  0
 20 21  1  0
 12 22  2  0
 22 23  1  0
 23 24  1  0
 24 25  2  0
 24 26  1  0
 26 27  1  0
 27 28  2  0
 28 29  1  0
 29 30  2  0
 30 31  1  0
 31 32  2  0
 32 33  1  0
  6 34  1  0
 34 35  2  0
 35  3  1  0
 33  9  1  0
 21 17  1  0
 33 23  2  0
 31 26  1  0
  1 36  1  0
  1 37  1  0
  1 38  1  0
  4 39  1  0
  5 40  1  0
  7 41  1  0
  7 42  1  0
  8 43  1  0
  8 44  1  0
 11 45  1  0
 15 46  1  0
 16 47  1  0
 16 48  1  0
 18 49  1  0
 19 50  1  0
 20 51  1  0
 22 52  1  0
 27 53  1  0
 28 54  1  0
 29 55  1  0
 30 56  1  0
 34 57  1  0
 35 58  1  0
M  END
$$$$
