
     RDKit          3D

 53 55  0  0  0  0  0  0  0  0999 V2000
    8.0490    2.9007    2.8082 C   0  0  0  0  0  0  0  0  0  0  0  0
    8.0217    2.0514    1.6677 O   0  0  0  0  0  0  0  0  0  0  0  0
    6.7913    1.7162    1.1737 C   0  0  0  0  0  0  0  0  0  0  0  0
    5.5595    2.0902    1.7166 C   0  0  0  0  0  0  0  0  0  0  0  0
    4.3700    1.6744    1.1103 C   0  0  0  0  0  0  0  0  0  0  0  0
    4.4186    0.8792   -0.0381 C   0  0  0  0  0  0  0  0  0  0  0  0
    2.8969    0.3615   -0.7913 S   0  0  0  0  0  6  0  0  0  0  0  0
    3.2069   -0.4421   -1.9545 O   0  0  0  0  0  0  0  0  0  0  0  0
    2.0432    1.5247   -0.8773 O   0  0  0  0  0  0  0  0  0  0  0  0
    2.2541   -0.6762    0.3764 N   0  0  0  0  0  0  0  0  0  0  0  0
    3.0016   -1.9207    0.6604 C   0  0  0  0  0  0  0  0  0  0  0  0
    2.0363   -3.0200    0.2794 C   0  0  0  0  0  0  0  0  0  0  0  0
    0.7578   -2.4491    0.5613 O   0  0  0  0  0  0  0  0  0  0  0  0
    0.8567   -1.0861    0.0942 C   0  0  0  0  0  0  0  0  0  0  0  0
   -0.1468   -0.2150    0.8747 C   0  0  0  0  0  0  0  0  0  0  0  0
   -1.5195   -0.6823    0.7806 N   0  0  0  0  0  0  0  0  0  0  0  0
   -2.2313   -0.6022   -0.3926 C   0  0  0  0  0  0  0  0  0  0  0  0
   -1.8652   -0.0394   -1.4141 O   0  0  0  0  0  0  0  0  0  0  0  0
   -3.5934   -1.3321   -0.3483 C   0  0  0  0  0  0  0  0  0  0  0  0
   -3.9371   -1.9308    0.6615 O   0  0  0  0  0  0  0  0  0  0  0  0
   -4.3125   -1.2202   -1.5136 N   0  0  0  0  0  0  0  0  0  0  0  0
   -5.6646   -1.6987   -1.6379 C   0  0  0  0  0  0  0  0  0  0  0  0
   -6.6596   -0.6140   -1.3145 C   0  0  0  0  0  0  0  0  0  0  0  0
   -7.1571   -0.5191   -0.0019 C   0  0  0  0  0  0  0  0  0  0  0  0
   -8.0674    0.4789    0.3504 C   0  0  0  0  0  0  0  0  0  0  0  0
   -8.4893    1.4036   -0.6005 C   0  0  0  0  0  0  0  0  0  0  0  0
   -7.9951    1.3341   -1.9025 C   0  0  0  0  0  0  0  0  0  0  0  0
   -7.0822    0.3356   -2.2577 C   0  0  0  0  0  0  0  0  0  0  0  0
   -6.4949    0.3302   -3.8829 Cl  0  0  0  0  0  0  0  0  0  0  0  0
    5.6422    0.5073   -0.5949 C   0  0  0  0  0  0  0  0  0  0  0  0
    6.8242    0.9259    0.0189 C   0  0  0  0  0  0  0  0  0  0  0  0
    7.5824    2.4153    3.6717 H   0  0  0  0  0  0  0  0  0  0  0  0
    7.5781    3.8658    2.5939 H   0  0  0  0  0  0  0  0  0  0  0  0
    9.0972    3.0900    3.0589 H   0  0  0  0  0  0  0  0  0  0  0  0
    5.4900    2.7061    2.6074 H   0  0  0  0  0  0  0  0  0  0  0  0
    3.4130    1.9742    1.5325 H   0  0  0  0  0  0  0  0  0  0  0  0
    3.9521   -2.0161    0.1307 H   0  0  0  0  0  0  0  0  0  0  0  0
    3.2079   -1.9412    1.7363 H   0  0  0  0  0  0  0  0  0  0  0  0
    2.1811   -3.9340    0.8611 H   0  0  0  0  0  0  0  0  0  0  0  0
    2.0898   -3.2600   -0.7886 H   0  0  0  0  0  0  0  0  0  0  0  0
    0.6345   -1.0936   -0.9794 H   0  0  0  0  0  0  0  0  0  0  0  0
    0.1010   -0.2166    1.9422 H   0  0  0  0  0  0  0  0  0  0  0  0
   -0.1133    0.8201    0.5200 H   0  0  0  0  0  0  0  0  0  0  0  0
   -1.8736   -1.3369    1.4736 H   0  0  0  0  0  0  0  0  0  0  0  0
   -3.9283   -0.6096   -2.2303 H   0  0  0  0  0  0  0  0  0  0  0  0
   -5.8128   -2.5577   -0.9722 H   0  0  0  0  0  0  0  0  0  0  0  0
   -5.8004   -2.0751   -2.6567 H   0  0  0  0  0  0  0  0  0  0  0  0
   -6.8261   -1.2253    0.7592 H   0  0  0  0  0  0  0  0  0  0  0  0
   -8.4416    0.5359    1.3698 H   0  0  0  0  0  0  0  0  0  0  0  0
   -9.1961    2.1829   -0.3272 H   0  0  0  0  0  0  0  0  0  0  0  0
   -8.3212    2.0665   -2.6369 H   0  0  0  0  0  0  0  0  0  0  0  0
    5.6891   -0.0976   -1.4973 H   0  0  0  0  0  0  0  0  0  0  0  0
    7.7833    0.6406   -0.4084 H   0  0  0  0  0  0  0  0  0  0  0  0
  1  2  1  0
  2  3  1  0
  3  4  2  0
  4  5  1  0
  5  6  2  0
  6  7  1  0
  7  8  2  0
  7  9  2  0
  7 10  1  0
 10 11  1  0
 11 12  1  0
 12 13  1  0
 13 14  1  0
 14 15  1  0
 15 16  1  0
 16 17  1  0
 17 18  2  0
 17 19  1  0
 19 20  2  0
 19 21  1  0
 21 22  1  0
 22 23  1  0
 23 24  2  0
 24 25  1  0
 25 26  2  0
 26 27  1  0
 27 28  2  0
 28 29  1  0
  6 30  1  0
 30 31  2  0
 31  3  1  0
 14 10  1  0
 28 23  1  0
  1 32  1  0
  1 33  1  0
  1 34  1  0
  4 35  1  0
  5 36  1  0
 11 37  1  0
 11 38  1  0
 12 39  1  0
 12 40  1  0
 14 41  1  0
 15 42  1  0
 15 43  1  0
 16 44  1  0
 21 45  1  0
 22 46  1  0
 22 47  1  0
 24 48  1  0
 25 49  1  0
 26 50  1  0
 27 51  1  0
 30 52  1  0
 31 53  1  0
M  END
$$$$
