
     RDKit          3D

 41 43  0  0  0  0  0  0  0  0999 V2000
   -3.6401   -0.8195    3.3152 C   0  0  0  0  0  0  0  0  0  0  0  0
   -3.6001   -0.8654    1.8164 C   0  0  0  0  0  0  0  0  0  0  0  0
   -4.6124   -0.2731    1.0587 C   0  0  0  0  0  0  0  0  0  0  0  0
   -4.5582   -0.2913   -0.3378 C   0  0  0  0  0  0  0  0  0  0  0  0
   -3.4804   -0.8833   -1.0170 C   0  0  0  0  0  0  0  0  0  0  0  0
   -3.4970   -0.8831   -2.5196 C   0  0  0  0  0  0  0  0  0  0  0  0
   -2.4562   -1.4692   -0.2493 C   0  0  0  0  0  0  0  0  0  0  0  0
   -1.0408   -2.2578   -0.9982 S   0  0  0  0  0  6  0  0  0  0  0  0
   -0.2495   -2.8937    0.0343 O   0  0  0  0  0  0  0  0  0  0  0  0
   -1.5014   -3.0219   -2.1385 O   0  0  0  0  0  0  0  0  0  0  0  0
   -0.1633   -0.9507   -1.6260 N   0  0  0  0  0  0  0  0  0  0  0  0
    0.6360   -0.1957   -0.7238 C   0  0  0  0  0  0  0  0  0  0  0  0
    0.0662    0.8598   -0.0163 C   0  0  0  0  0  0  0  0  0  0  0  0
    0.8371    1.5718    0.9004 C   0  0  0  0  0  0  0  0  0  0  0  0
    2.1725    1.2264    1.1052 C   0  0  0  0  0  0  0  0  0  0  0  0
    2.8486    1.9896    2.0171 O   0  0  0  0  0  0  0  0  0  0  0  0
    2.7553    0.1551    0.4121 C   0  0  0  0  0  0  0  0  0  0  0  0
    4.4220   -0.4261    0.6894 S   0  0  0  0  0  0  0  0  0  0  0  0
    5.3760    0.9327    0.1740 C   0  0  0  0  0  0  0  0  0  0  0  0
    5.3000    2.1551    0.7923 N   0  0  0  0  0  0  0  0  0  0  0  0
    6.1796    2.8711    0.1304 C   0  0  0  0  0  0  0  0  0  0  0  0
    6.7578    2.1049   -0.8324 N   0  0  0  0  0  0  0  0  0  0  0  0
    6.2621    0.8578   -0.8217 N   0  0  0  0  0  0  0  0  0  0  0  0
    1.9663   -0.5585   -0.5026 C   0  0  0  0  0  0  0  0  0  0  0  0
   -2.5187   -1.4569    1.1550 C   0  0  0  0  0  0  0  0  0  0  0  0
   -3.1715   -1.7111    3.7451 H   0  0  0  0  0  0  0  0  0  0  0  0
   -3.1118    0.0682    3.6762 H   0  0  0  0  0  0  0  0  0  0  0  0
   -4.6727   -0.7886    3.6787 H   0  0  0  0  0  0  0  0  0  0  0  0
   -5.4583    0.2035    1.5502 H   0  0  0  0  0  0  0  0  0  0  0  0
   -5.3737    0.1665   -0.8956 H   0  0  0  0  0  0  0  0  0  0  0  0
   -4.2583   -0.1966   -2.9070 H   0  0  0  0  0  0  0  0  0  0  0  0
   -3.7332   -1.8821   -2.8974 H   0  0  0  0  0  0  0  0  0  0  0  0
   -2.5411   -0.5446   -2.9280 H   0  0  0  0  0  0  0  0  0  0  0  0
    0.2511   -1.2053   -2.5220 H   0  0  0  0  0  0  0  0  0  0  0  0
   -0.9706    1.1426   -0.1752 H   0  0  0  0  0  0  0  0  0  0  0  0
    0.4011    2.3986    1.4549 H   0  0  0  0  0  0  0  0  0  0  0  0
    3.8058    1.9319    1.8131 H   0  0  0  0  0  0  0  0  0  0  0  0
    6.4332    3.9085    0.2978 H   0  0  0  0  0  0  0  0  0  0  0  0
    7.4733    2.3519   -1.5076 H   0  0  0  0  0  0  0  0  0  0  0  0
    2.3836   -1.4147   -1.0277 H   0  0  0  0  0  0  0  0  0  0  0  0
   -1.7182   -1.9066    1.7415 H   0  0  0  0  0  0  0  0  0  0  0  0
  1  2  1  0
  2  3  2  0
  3  4  1  0
  4  5  2  0
  5  6  1  0
  5  7  1  0
  7  8  1  0
  8  9  2  0
  8 10  2  0
  8 11  1  0
 11 12  1  0
 12 13  2  0
 13 14  1  0
 14 15  2  0
 15 16  1  0
 15 17  1  0
 17 18  1  0
 18 19  1  0
 19 20  1  0
 20 21  2  0
 21 22  1  0
 22 23  1  0
 17 24  2  0
  7 25  2  0
 25  2  1  0
 24 12  1  0
 23 19  2  0
  1 26  1  0
  1 27  1  0
  1 28  1  0
  3 29  1  0
  4 30  1  0
  6 31  1  0
  6 32  1  0
  6 33  1  0
 11 34  1  0
 13 35  1  0
 14 36  1  0
 16 37  1  0
 21 38  1  0
 22 39  1  0
 24 40  1  0
 25 41  1  0
M  END
$$$$
