
     RDKit          3D

 60 62  0  0  0  0  0  0  0  0999 V2000
   -2.6711    3.4879   -3.3461 C   0  0  0  0  0  0  0  0  0  0  0  0
   -3.5597    2.3738   -2.8147 C   0  0  0  0  0  0  0  0  0  0  0  0
   -2.8157    1.4445   -1.8908 C   0  0  0  0  0  0  0  0  0  0  0  0
   -1.9829    0.4436   -2.4000 C   0  0  0  0  0  0  0  0  0  0  0  0
   -1.3068   -0.4241   -1.5362 C   0  0  0  0  0  0  0  0  0  0  0  0
   -1.4439   -0.3044   -0.1482 C   0  0  0  0  0  0  0  0  0  0  0  0
   -0.7389   -1.2279    0.6541 N   0  0  0  0  0  0  0  0  0  0  0  0
   -0.6096   -1.2094    2.0323 C   0  0  0  0  0  0  0  0  0  0  0  0
   -1.0555   -0.3507    2.7933 O   0  0  0  0  0  0  0  0  0  0  0  0
    0.2246   -2.3835    2.5966 C   0  0  0  0  0  0  0  0  0  0  0  0
    1.1693   -1.7626    3.5557 N   0  0  0  0  0  0  0  0  0  0  0  0
    2.7592   -1.4996    3.1023 S   0  0  0  0  0  6  0  0  0  0  0  0
    3.3495   -0.6371    4.0997 O   0  0  0  0  0  0  0  0  0  0  0  0
    3.3235   -2.7885    2.7670 O   0  0  0  0  0  0  0  0  0  0  0  0
    2.6014   -0.5663    1.5994 C   0  0  0  0  0  0  0  0  0  0  0  0
    2.9281   -1.1678    0.3714 C   0  0  0  0  0  0  0  0  0  0  0  0
    2.7124   -0.4784   -0.8244 C   0  0  0  0  0  0  0  0  0  0  0  0
    2.1801    0.8004   -0.7660 C   0  0  0  0  0  0  0  0  0  0  0  0
    1.8964    1.4049    0.4610 C   0  0  0  0  0  0  0  0  0  0  0  0
    2.1064    0.7400    1.6595 C   0  0  0  0  0  0  0  0  0  0  0  0
    1.3206    2.7720    0.2771 C   0  0  0  0  0  0  0  0  0  0  0  0
    1.3557    2.9330   -1.2476 C   0  0  0  0  0  0  0  0  0  0  0  0
    1.8437    1.6661   -1.8213 N   0  0  0  0  0  0  0  0  0  0  0  0
    1.9099    1.3618   -3.1682 C   0  0  0  0  0  0  0  0  0  0  0  0
    1.5577    2.4921   -4.1039 C   0  0  0  0  0  0  0  0  0  0  0  0
    2.2141    0.2624   -3.6305 O   0  0  0  0  0  0  0  0  0  0  0  0
   -0.6785   -3.3884    3.3426 C   0  0  0  0  0  0  0  0  0  0  0  0
   -1.7205   -4.0095    2.4054 C   0  0  0  0  0  0  0  0  0  0  0  0
    0.1499   -4.5103    3.9815 C   0  0  0  0  0  0  0  0  0  0  0  0
   -2.2653    0.7021    0.3590 C   0  0  0  0  0  0  0  0  0  0  0  0
   -2.9427    1.5710   -0.5041 C   0  0  0  0  0  0  0  0  0  0  0  0
   -2.2279    4.0681   -2.5296 H   0  0  0  0  0  0  0  0  0  0  0  0
   -3.2534    4.1704   -3.9725 H   0  0  0  0  0  0  0  0  0  0  0  0
   -1.8555    3.0859   -3.9567 H   0  0  0  0  0  0  0  0  0  0  0  0
   -3.9762    1.7973   -3.6508 H   0  0  0  0  0  0  0  0  0  0  0  0
   -4.4186    2.8115   -2.2905 H   0  0  0  0  0  0  0  0  0  0  0  0
   -1.8561    0.3265   -3.4744 H   0  0  0  0  0  0  0  0  0  0  0  0
   -0.6636   -1.1854   -1.9714 H   0  0  0  0  0  0  0  0  0  0  0  0
   -0.1973   -1.9156    0.1427 H   0  0  0  0  0  0  0  0  0  0  0  0
    0.7663   -2.9002    1.7974 H   0  0  0  0  0  0  0  0  0  0  0  0
    0.7735   -1.0259    4.1469 H   0  0  0  0  0  0  0  0  0  0  0  0
    3.3407   -2.1742    0.3374 H   0  0  0  0  0  0  0  0  0  0  0  0
    2.9626   -0.9511   -1.7687 H   0  0  0  0  0  0  0  0  0  0  0  0
    1.8583    1.2073    2.6085 H   0  0  0  0  0  0  0  0  0  0  0  0
    1.9292    3.5351    0.7718 H   0  0  0  0  0  0  0  0  0  0  0  0
    0.2938    2.8189    0.6531 H   0  0  0  0  0  0  0  0  0  0  0  0
    0.3632    3.1631   -1.6507 H   0  0  0  0  0  0  0  0  0  0  0  0
    2.0409    3.7362   -1.5438 H   0  0  0  0  0  0  0  0  0  0  0  0
    2.1766    3.3684   -3.8979 H   0  0  0  0  0  0  0  0  0  0  0  0
    1.7464    2.1803   -5.1358 H   0  0  0  0  0  0  0  0  0  0  0  0
    0.4997    2.7420   -4.0074 H   0  0  0  0  0  0  0  0  0  0  0  0
   -1.2176   -2.8692    4.1463 H   0  0  0  0  0  0  0  0  0  0  0  0
   -2.3207   -4.7587    2.9333 H   0  0  0  0  0  0  0  0  0  0  0  0
   -1.2427   -4.5006    1.5508 H   0  0  0  0  0  0  0  0  0  0  0  0
   -2.4127   -3.2537    2.0215 H   0  0  0  0  0  0  0  0  0  0  0  0
   -0.4991   -5.2334    4.4868 H   0  0  0  0  0  0  0  0  0  0  0  0
    0.7336   -5.0494    3.2276 H   0  0  0  0  0  0  0  0  0  0  0  0
    0.8434   -4.1176    4.7317 H   0  0  0  0  0  0  0  0  0  0  0  0
   -2.4160    0.8355    1.4258 H   0  0  0  0  0  0  0  0  0  0  0  0
   -3.5820    2.3416   -0.0779 H   0  0  0  0  0  0  0  0  0  0  0  0
  1  2  1  0
  2  3  1  0
  3  4  2  0
  4  5  1  0
  5  6  2  0
  6  7  1  0
  7  8  1  0
  8  9  2  0
  8 10  1  0
 10 11  1  0
 11 12  1  0
 12 13  2  0
 12 14  2  0
 12 15  1  0
 15 16  2  0
 16 17  1  0
 17 18  2  0
 18 19  1  0
 19 20  2  0
 19 21  1  0
 21 22  1  0
 22 23  1  0
 23 24  1  0
 24 25  1  0
 24 26  2  0
 10 27  1  0
 27 28  1  0
 27 29  1  0
  6 30  1  0
 30 31  2  0
 31  3  1  0
 20 15  1  0
 23 18  1  0
  1 32  1  0
  1 33  1  0
  1 34  1  0
  2 35  1  0
  2 36  1  0
  4 37  1  0
  5 38  1  0
  7 39  1  0
 10 40  1  0
 11 41  1  0
 16 42  1  0
 17 43  1  0
 20 44  1  0
 21 45  1  0
 21 46  1  0
 22 47  1  0
 22 48  1  0
 25 49  1  0
 25 50  1  0
 25 51  1  0
 27 52  1  0
 28 53  1  0
 28 54  1  0
 28 55  1  0
 29 56  1  0
 29 57  1  0
 29 58  1  0
 30 59  1  0
 31 60  1  0
M  END
$$$$
