
     RDKit          3D

 59 63  0  0  0  0  0  0  0  0999 V2000
   -5.9181   -0.1846    2.4989 C   0  0  0  0  0  0  0  0  0  0  0  0
   -4.9478   -0.1692    1.3258 C   0  0  0  0  0  0  0  0  0  0  0  0
   -4.4704   -1.5743    0.9273 C   0  0  0  0  0  0  0  0  0  0  0  0
   -3.6421   -2.1859    1.9572 N   0  0  0  0  0  0  0  0  0  0  0  0
   -2.3393   -1.7024    2.0287 C   0  0  0  0  0  0  0  0  0  0  0  0
   -1.8168   -1.7273    3.2637 N   0  0  0  0  0  0  0  0  0  0  0  0
   -0.5486   -1.3373    3.3649 C   0  0  0  0  0  0  0  0  0  0  0  0
    0.2280   -0.9370    2.3562 N   0  0  0  0  0  0  0  0  0  0  0  0
   -0.3131   -0.9222    1.1152 C   0  0  0  0  0  0  0  0  0  0  0  0
    0.5427   -0.4886    0.0781 N   0  0  0  0  0  0  0  0  0  0  0  0
    1.0002    0.9117    0.3342 C   0  0  0  0  0  0  0  0  0  0  0  0
    2.4896    1.0073    0.7299 C   0  0  0  0  0  0  0  0  0  0  0  0
    3.3370    0.4098   -0.3228 N   0  0  0  0  0  0  0  0  0  0  0  0
    4.7110    0.5169   -0.1169 C   0  0  0  0  0  0  0  0  0  0  0  0
    5.6110    0.1343   -1.1144 C   0  0  0  0  0  0  0  0  0  0  0  0
    6.9846    0.2601   -0.9076 C   0  0  0  0  0  0  0  0  0  0  0  0
    7.4419    0.7778    0.2926 C   0  0  0  0  0  0  0  0  0  0  0  0
    6.4984    1.1547    1.2280 C   0  0  0  0  0  0  0  0  0  0  0  0
    5.1637    1.0399    1.0441 N   0  0  0  0  0  0  0  0  0  0  0  0
    2.8236   -0.8435   -0.9106 C   0  0  0  0  0  0  0  0  0  0  0  0
    1.6722   -1.4461   -0.0736 C   0  0  0  0  0  0  0  0  0  0  0  0
   -1.6481   -1.2889    0.8801 C   0  0  0  0  0  0  0  0  0  0  0  0
   -2.3549   -1.2783   -0.3813 N   0  0  0  0  0  0  0  0  0  0  0  0
   -1.6790   -1.0816   -1.6578 C   0  0  0  0  0  0  0  0  0  0  0  0
   -1.5215    0.3581   -2.1142 C   0  0  0  0  0  0  0  0  0  0  0  0
   -0.5682    0.6461   -3.1074 C   0  0  0  0  0  0  0  0  0  0  0  0
   -0.3934    1.9490   -3.5799 C   0  0  0  0  0  0  0  0  0  0  0  0
   -1.1824    2.9768   -3.0724 C   0  0  0  0  0  0  0  0  0  0  0  0
   -0.9476    4.7421   -3.7055 Br  0  0  0  0  0  0  0  0  0  0  0  0
   -2.1466    2.7118   -2.1038 C   0  0  0  0  0  0  0  0  0  0  0  0
   -2.3189    1.4071   -1.6322 C   0  0  0  0  0  0  0  0  0  0  0  0
   -3.7358   -1.5120   -0.4224 C   0  0  0  0  0  0  0  0  0  0  0  0
   -4.3794   -1.5739   -1.4740 O   0  0  0  0  0  0  0  0  0  0  0  0
   -6.7835   -0.8198    2.2845 H   0  0  0  0  0  0  0  0  0  0  0  0
   -5.4381   -0.5499    3.4116 H   0  0  0  0  0  0  0  0  0  0  0  0
   -6.2832    0.8281    2.6974 H   0  0  0  0  0  0  0  0  0  0  0  0
   -5.4509    0.2976    0.4694 H   0  0  0  0  0  0  0  0  0  0  0  0
   -4.1000    0.4814    1.5721 H   0  0  0  0  0  0  0  0  0  0  0  0
   -5.3392   -2.2274    0.7785 H   0  0  0  0  0  0  0  0  0  0  0  0
   -4.0288   -2.2666    2.8914 H   0  0  0  0  0  0  0  0  0  0  0  0
   -0.1046   -1.3481    4.3540 H   0  0  0  0  0  0  0  0  0  0  0  0
    0.3803    1.4225    1.0829 H   0  0  0  0  0  0  0  0  0  0  0  0
    0.8638    1.4693   -0.5995 H   0  0  0  0  0  0  0  0  0  0  0  0
    2.6510    0.5013    1.6904 H   0  0  0  0  0  0  0  0  0  0  0  0
    2.7403    2.0681    0.8554 H   0  0  0  0  0  0  0  0  0  0  0  0
    5.2512   -0.2397   -2.0667 H   0  0  0  0  0  0  0  0  0  0  0  0
    7.6841   -0.0352   -1.6838 H   0  0  0  0  0  0  0  0  0  0  0  0
    8.5007    0.8945    0.4909 H   0  0  0  0  0  0  0  0  0  0  0  0
    6.7952    1.5754    2.1841 H   0  0  0  0  0  0  0  0  0  0  0  0
    2.4617   -0.6208   -1.9215 H   0  0  0  0  0  0  0  0  0  0  0  0
    3.6027   -1.6100   -1.0009 H   0  0  0  0  0  0  0  0  0  0  0  0
    2.0832   -1.7548    0.8973 H   0  0  0  0  0  0  0  0  0  0  0  0
    1.3076   -2.3518   -0.5734 H   0  0  0  0  0  0  0  0  0  0  0  0
   -2.2560   -1.5871   -2.4436 H   0  0  0  0  0  0  0  0  0  0  0  0
   -0.7229   -1.6120   -1.6496 H   0  0  0  0  0  0  0  0  0  0  0  0
    0.0544   -0.1487   -3.5126 H   0  0  0  0  0  0  0  0  0  0  0  0
    0.3577    2.1485   -4.3393 H   0  0  0  0  0  0  0  0  0  0  0  0
   -2.7727    3.5089   -1.7121 H   0  0  0  0  0  0  0  0  0  0  0  0
   -3.0860    1.2259   -0.8853 H   0  0  0  0  0  0  0  0  0  0  0  0
  1  2  1  0
  2  3  1  0
  3  4  1  0
  4  5  1  0
  5  6  2  0
  6  7  1  0
  7  8  2  0
  8  9  1  0
  9 10  1  0
 10 11  1  0
 11 12  1  0
 12 13  1  0
 13 14  1  0
 14 15  2  0
 15 16  1  0
 16 17  2  0
 17 18  1  0
 18 19  2  0
 13 20  1  0
 20 21  1  0
  9 22  2  0
 22 23  1  0
 23 24  1  0
 24 25  1  0
 25 26  2  0
 26 27  1  0
 27 28  2  0
 28 29  1  0
 28 30  1  0
 30 31  2  0
 23 32  1  0
 32 33  2  0
 32  3  1  0
 22  5  1  0
 31 25  1  0
 21 10  1  0
 19 14  1  0
  1 34  1  0
  1 35  1  0
  1 36  1  0
  2 37  1  0
  2 38  1  0
  3 39  1  0
  4 40  1  0
  7 41  1  0
 11 42  1  0
 11 43  1  0
 12 44  1  0
 12 45  1  0
 15 46  1  0
 16 47  1  0
 17 48  1  0
 18 49  1  0
 20 50  1  0
 20 51  1  0
 21 52  1  0
 21 53  1  0
 24 54  1  0
 24 55  1  0
 26 56  1  0
 27 57  1  0
 30 58  1  0
 31 59  1  0
M  END
$$$$
