
     RDKit          3D

 58 60  0  0  0  0  0  0  0  0999 V2000
    9.5662    2.4260   -0.1237 C   0  0  0  0  0  0  0  0  0  0  0  0
    8.1769    2.6365    0.3162 C   0  0  0  0  0  0  0  0  0  0  0  0
    6.9544    2.1866   -0.1162 C   0  0  0  0  0  0  0  0  0  0  0  0
    6.0247    2.7810    0.7647 C   0  0  0  0  0  0  0  0  0  0  0  0
    4.6524    2.6730    0.7943 N   0  0  0  0  0  0  0  0  0  0  0  0
    3.8936    1.9317   -0.0825 C   0  0  0  0  0  0  0  0  0  0  0  0
    4.3229    1.2672   -1.0201 O   0  0  0  0  0  0  0  0  0  0  0  0
    2.4148    2.0305    0.2313 C   0  0  0  0  0  0  0  0  0  0  0  0
    1.5803    1.1708   -0.7129 C   0  0  0  0  0  0  0  0  0  0  0  0
    0.1016    1.2699   -0.3949 C   0  0  0  0  0  0  0  0  0  0  0  0
   -0.3078    2.0560    0.4617 O   0  0  0  0  0  0  0  0  0  0  0  0
   -0.7622    0.4564   -1.1152 N   0  0  0  0  0  0  0  0  0  0  0  0
   -2.1756    0.4875   -0.7344 C   0  0  0  0  0  0  0  0  0  0  0  0
   -2.4921   -0.4269    0.4623 C   0  0  0  0  0  0  0  0  0  0  0  0
   -1.6404   -0.9669    1.1637 O   0  0  0  0  0  0  0  0  0  0  0  0
   -3.8518   -0.5757    0.6856 N   0  0  0  0  0  0  0  0  0  0  0  0
   -4.3416   -1.3310    1.8284 C   0  0  0  0  0  0  0  0  0  0  0  0
   -5.8156   -1.6908    1.6679 C   0  0  0  0  0  0  0  0  0  0  0  0
   -6.5770   -0.4478    2.1244 C   0  0  0  0  0  0  0  0  0  0  0  0
   -5.6184    0.3364    3.0212 C   0  0  0  0  0  0  0  0  0  0  0  0
   -4.3419   -0.4959    3.1069 C   0  0  0  0  0  0  0  0  0  0  0  0
   -0.3788   -0.3768   -2.2579 C   0  0  0  0  0  0  0  0  0  0  0  0
   -0.7818   -1.8277   -2.1371 C   0  0  0  0  0  0  0  0  0  0  0  0
   -1.6669   -2.4016   -3.0646 C   0  0  0  0  0  0  0  0  0  0  0  0
   -2.0322   -3.7446   -2.9549 C   0  0  0  0  0  0  0  0  0  0  0  0
   -1.5134   -4.5155   -1.9219 C   0  0  0  0  0  0  0  0  0  0  0  0
   -1.8698   -5.8024   -1.8170 F   0  0  0  0  0  0  0  0  0  0  0  0
   -0.6310   -3.9707   -0.9988 C   0  0  0  0  0  0  0  0  0  0  0  0
   -0.2606   -2.6296   -1.1095 C   0  0  0  0  0  0  0  0  0  0  0  0
    6.6463    3.5433    1.6719 N   0  0  0  0  0  0  0  0  0  0  0  0
    7.9965    3.4520    1.3878 O   0  0  0  0  0  0  0  0  0  0  0  0
   10.0032    3.3659   -0.4751 H   0  0  0  0  0  0  0  0  0  0  0  0
    9.6134    1.7009   -0.9423 H   0  0  0  0  0  0  0  0  0  0  0  0
   10.1777    2.0473    0.7009 H   0  0  0  0  0  0  0  0  0  0  0  0
    6.7668    1.5236   -0.9474 H   0  0  0  0  0  0  0  0  0  0  0  0
    4.2139    3.1992    1.5385 H   0  0  0  0  0  0  0  0  0  0  0  0
    2.2564    1.7121    1.2689 H   0  0  0  0  0  0  0  0  0  0  0  0
    2.1159    3.0826    0.1496 H   0  0  0  0  0  0  0  0  0  0  0  0
    1.7383    1.5023   -1.7456 H   0  0  0  0  0  0  0  0  0  0  0  0
    1.8934    0.1245   -0.6214 H   0  0  0  0  0  0  0  0  0  0  0  0
   -2.7902    0.1962   -1.5932 H   0  0  0  0  0  0  0  0  0  0  0  0
   -2.4594    1.5084   -0.4539 H   0  0  0  0  0  0  0  0  0  0  0  0
   -4.4815    0.0790    0.2403 H   0  0  0  0  0  0  0  0  0  0  0  0
   -3.7218   -2.2273    1.9406 H   0  0  0  0  0  0  0  0  0  0  0  0
   -6.0644   -2.5278    2.3321 H   0  0  0  0  0  0  0  0  0  0  0  0
   -6.0825   -1.9819    0.6469 H   0  0  0  0  0  0  0  0  0  0  0  0
   -7.4960   -0.7201    2.6537 H   0  0  0  0  0  0  0  0  0  0  0  0
   -6.8660    0.1647    1.2628 H   0  0  0  0  0  0  0  0  0  0  0  0
   -5.4066    1.3140    2.5719 H   0  0  0  0  0  0  0  0  0  0  0  0
   -6.0448    0.5176    4.0133 H   0  0  0  0  0  0  0  0  0  0  0  0
   -4.4017   -1.1588    3.9790 H   0  0  0  0  0  0  0  0  0  0  0  0
   -3.4534    0.1327    3.2227 H   0  0  0  0  0  0  0  0  0  0  0  0
   -0.8557    0.0758   -3.1367 H   0  0  0  0  0  0  0  0  0  0  0  0
    0.6960   -0.3381   -2.4515 H   0  0  0  0  0  0  0  0  0  0  0  0
   -2.0774   -1.8088   -3.8785 H   0  0  0  0  0  0  0  0  0  0  0  0
   -2.7173   -4.1948   -3.6661 H   0  0  0  0  0  0  0  0  0  0  0  0
   -0.2435   -4.5858   -0.1929 H   0  0  0  0  0  0  0  0  0  0  0  0
    0.4156   -2.2041   -0.3692 H   0  0  0  0  0  0  0  0  0  0  0  0
  1  2  1  0
  2  3  2  0
  3  4  1  0
  4  5  1  0
  5  6  1  0
  6  7  2  0
  6  8  1  0
  8  9  1  0
  9 10  1  0
 10 11  2  0
 10 12  1  0
 12 13  1  0
 13 14  1  0
 14 15  2  0
 14 16  1  0
 16 17  1  0
 17 18  1  0
 18 19  1  0
 19 20  1  0
 20 21  1  0
 12 22  1  0
 22 23  1  0
 23 24  2  0
 24 25  1  0
 25 26  2  0
 26 27  1  0
 26 28  1  0
 28 29  2  0
  4 30  2  0
 30 31  1  0
 31  2  1  0
 21 17  1  0
 29 23  1  0
  1 32  1  0
  1 33  1  0
  1 34  1  0
  3 35  1  0
  5 36  1  0
  8 37  1  0
  8 38  1  0
  9 39  1  0
  9 40  1  0
 13 41  1  0
 13 42  1  0
 16 43  1  0
 17 44  1  0
 18 45  1  0
 18 46  1  0
 19 47  1  0
 19 48  1  0
 20 49  1  0
 20 50  1  0
 21 51  1  0
 21 52  1  0
 22 53  1  0
 22 54  1  0
 24 55  1  0
 25 56  1  0
 28 57  1  0
 29 58  1  0
M  END
$$$$
