
     RDKit          3D

 32 33  0  0  0  0  0  0  0  0999 V2000
    4.3684    0.1250   -1.3161 C   0  0  0  0  0  0  0  0  0  0  0  0
    4.2501   -1.0441   -0.3533 C   0  0  0  0  0  0  0  0  0  0  0  0
    3.0039   -0.7345    0.9326 S   0  0  0  0  0  0  0  0  0  0  0  0
    1.5061   -0.8752    0.0677 C   0  0  0  0  0  0  0  0  0  0  0  0
    1.1393   -1.6311   -1.0198 C   0  0  0  0  0  0  0  0  0  0  0  0
   -0.1651   -1.3997   -1.3600 N   0  0  0  0  0  0  0  0  0  0  0  0
   -0.6264   -0.5354   -0.4747 C   0  0  0  0  0  0  0  0  0  0  0  0
   -1.9864   -0.0027   -0.4726 C   0  0  0  0  0  0  0  0  0  0  0  0
   -2.9164   -0.4095    0.4914 C   0  0  0  0  0  0  0  0  0  0  0  0
   -4.2107    0.1148    0.4872 C   0  0  0  0  0  0  0  0  0  0  0  0
   -4.5852    1.0404   -0.4862 C   0  0  0  0  0  0  0  0  0  0  0  0
   -3.6706    1.4361   -1.4614 C   0  0  0  0  0  0  0  0  0  0  0  0
   -2.3764    0.9122   -1.4578 C   0  0  0  0  0  0  0  0  0  0  0  0
    0.3699   -0.1830    0.4234 N   0  0  0  0  0  0  0  0  0  0  0  0
    0.2409    0.8037    1.4830 C   0  0  0  0  0  0  0  0  0  0  0  0
   -0.0322    0.1835    2.8435 C   0  0  0  0  0  0  0  0  0  0  0  0
    3.4420    0.2913   -1.8748 H   0  0  0  0  0  0  0  0  0  0  0  0
    4.6294    1.0508   -0.7922 H   0  0  0  0  0  0  0  0  0  0  0  0
    5.1599   -0.0751   -2.0461 H   0  0  0  0  0  0  0  0  0  0  0  0
    4.0267   -1.9710   -0.8900 H   0  0  0  0  0  0  0  0  0  0  0  0
    5.2113   -1.1905    0.1504 H   0  0  0  0  0  0  0  0  0  0  0  0
    1.7413   -2.3287   -1.5858 H   0  0  0  0  0  0  0  0  0  0  0  0
   -2.6431   -1.1502    1.2388 H   0  0  0  0  0  0  0  0  0  0  0  0
   -4.9297   -0.2078    1.2358 H   0  0  0  0  0  0  0  0  0  0  0  0
   -5.5949    1.4433   -0.4934 H   0  0  0  0  0  0  0  0  0  0  0  0
   -3.9663    2.1451   -2.2303 H   0  0  0  0  0  0  0  0  0  0  0  0
   -1.6714    1.2128   -2.2299 H   0  0  0  0  0  0  0  0  0  0  0  0
    1.1585    1.4009    1.5069 H   0  0  0  0  0  0  0  0  0  0  0  0
   -0.5635    1.4972    1.2175 H   0  0  0  0  0  0  0  0  0  0  0  0
   -0.9554   -0.4031    2.8379 H   0  0  0  0  0  0  0  0  0  0  0  0
   -0.1330    0.9669    3.6011 H   0  0  0  0  0  0  0  0  0  0  0  0
    0.7790   -0.4825    3.1530 H   0  0  0  0  0  0  0  0  0  0  0  0
  1  2  1  0
  2  3  1  0
  3  4  1  0
  4  5  2  0
  5  6  1  0
  6  7  2  0
  7  8  1  0
  8  9  2  0
  9 10  1  0
 10 11  2  0
 11 12  1  0
 12 13  2  0
  7 14  1  0
 14 15  1  0
 15 16  1  0
 14  4  1  0
 13  8  1  0
  1 17  1  0
  1 18  1  0
  1 19  1  0
  2 20  1  0
  2 21  1  0
  5 22  1  0
  9 23  1  0
 10 24  1  0
 11 25  1  0
 12 26  1  0
 13 27  1  0
 15 28  1  0
 15 29  1  0
 16 30  1  0
 16 31  1  0
 16 32  1  0
M  END
$$$$
