
     RDKit          3D

 43 45  0  0  0  0  0  0  0  0999 V2000
    7.2073    1.3733    1.0231 C   0  0  0  0  0  0  0  0  0  0  0  0
    5.9758    0.7682    0.6267 O   0  0  0  0  0  0  0  0  0  0  0  0
    4.9272    1.0778    1.4300 C   0  0  0  0  0  0  0  0  0  0  0  0
    4.9697    1.8030    2.4113 O   0  0  0  0  0  0  0  0  0  0  0  0
    3.6854    0.4087    0.9544 C   0  0  0  0  0  0  0  0  0  0  0  0
    3.6575   -0.4097   -0.1830 C   0  0  0  0  0  0  0  0  0  0  0  0
    2.4626   -1.0156   -0.5919 C   0  0  0  0  0  0  0  0  0  0  0  0
    1.2878   -0.8036    0.1296 C   0  0  0  0  0  0  0  0  0  0  0  0
    0.0661   -1.3402   -0.1625 O   0  0  0  0  0  0  0  0  0  0  0  0
   -0.1302   -1.7952   -1.4927 C   0  0  0  0  0  0  0  0  0  0  0  0
   -1.5973   -2.1231   -1.7967 C   0  0  0  0  0  0  0  0  0  0  0  0
   -1.8419   -3.1660   -2.4216 O   0  0  0  0  0  0  0  0  0  0  0  0
   -2.6340   -1.3061   -1.3283 N   0  0  0  0  0  0  0  0  0  0  0  0
   -3.9166   -1.9980   -1.1722 C   0  0  0  0  0  0  0  0  0  0  0  0
   -5.0718   -1.1471   -0.6721 C   0  0  0  0  0  0  0  0  0  0  0  0
   -4.6122   -0.3198    0.5124 C   0  0  0  0  0  0  0  0  0  0  0  0
   -3.4667    0.5425    0.0596 C   0  0  0  0  0  0  0  0  0  0  0  0
   -3.3425    1.8434    0.5742 C   0  0  0  0  0  0  0  0  0  0  0  0
   -2.3236    2.6806    0.1326 C   0  0  0  0  0  0  0  0  0  0  0  0
   -1.4383    2.2290   -0.8378 C   0  0  0  0  0  0  0  0  0  0  0  0
   -1.5481    0.9274   -1.3389 C   0  0  0  0  0  0  0  0  0  0  0  0
   -2.5242    0.0437   -0.8627 C   0  0  0  0  0  0  0  0  0  0  0  0
    1.3170    0.0010    1.2704 C   0  0  0  0  0  0  0  0  0  0  0  0
    2.5058    0.6091    1.6807 C   0  0  0  0  0  0  0  0  0  0  0  0
    7.9812    1.0600    0.3169 H   0  0  0  0  0  0  0  0  0  0  0  0
    7.4953    1.0370    2.0241 H   0  0  0  0  0  0  0  0  0  0  0  0
    7.1273    2.4644    0.9877 H   0  0  0  0  0  0  0  0  0  0  0  0
    4.5605   -0.5911   -0.7612 H   0  0  0  0  0  0  0  0  0  0  0  0
    2.4873   -1.6576   -1.4669 H   0  0  0  0  0  0  0  0  0  0  0  0
    0.2373   -1.0924   -2.2473 H   0  0  0  0  0  0  0  0  0  0  0  0
    0.4224   -2.7367   -1.6112 H   0  0  0  0  0  0  0  0  0  0  0  0
   -3.7491   -2.8321   -0.4773 H   0  0  0  0  0  0  0  0  0  0  0  0
   -4.1928   -2.4429   -2.1364 H   0  0  0  0  0  0  0  0  0  0  0  0
   -5.9152   -1.7872   -0.3906 H   0  0  0  0  0  0  0  0  0  0  0  0
   -5.4212   -0.4892   -1.4788 H   0  0  0  0  0  0  0  0  0  0  0  0
   -5.4474    0.2959    0.8654 H   0  0  0  0  0  0  0  0  0  0  0  0
   -4.2865   -0.9568    1.3429 H   0  0  0  0  0  0  0  0  0  0  0  0
   -4.0519    2.2134    1.3111 H   0  0  0  0  0  0  0  0  0  0  0  0
   -2.2357    3.6898    0.5260 H   0  0  0  0  0  0  0  0  0  0  0  0
   -0.6619    2.8900   -1.2148 H   0  0  0  0  0  0  0  0  0  0  0  0
   -0.8721    0.6503   -2.1377 H   0  0  0  0  0  0  0  0  0  0  0  0
    0.4032    0.1640    1.8383 H   0  0  0  0  0  0  0  0  0  0  0  0
    2.5049    1.2377    2.5692 H   0  0  0  0  0  0  0  0  0  0  0  0
  1  2  1  0
  2  3  1  0
  3  4  2  0
  3  5  1  0
  5  6  2  0
  6  7  1  0
  7  8  2  0
  8  9  1  0
  9 10  1  0
 10 11  1  0
 11 12  2  0
 11 13  1  0
 13 14  1  0
 14 15  1  0
 15 16  1  0
 16 17  1  0
 17 18  2  0
 18 19  1  0
 19 20  2  0
 20 21  1  0
 21 22  2  0
  8 23  1  0
 23 24  2  0
 24  5  1  0
 22 13  1  0
 22 17  1  0
  1 25  1  0
  1 26  1  0
  1 27  1  0
  6 28  1  0
  7 29  1  0
 10 30  1  0
 10 31  1  0
 14 32  1  0
 14 33  1  0
 15 34  1  0
 15 35  1  0
 16 36  1  0
 16 37  1  0
 18 38  1  0
 19 39  1  0
 20 40  1  0
 21 41  1  0
 23 42  1  0
 24 43  1  0
M  END
$$$$
