
     RDKit          3D

 35 36  0  0  0  0  0  0  0  0999 V2000
   -5.2727   -2.0646   -1.3636 C   0  0  0  0  0  0  0  0  0  0  0  0
   -4.0940   -1.1668   -1.1305 C   0  0  0  0  0  0  0  0  0  0  0  0
   -4.2374    0.0168   -0.3999 C   0  0  0  0  0  0  0  0  0  0  0  0
   -3.1356    0.8439   -0.1492 C   0  0  0  0  0  0  0  0  0  0  0  0
   -1.8664    0.4989   -0.6163 C   0  0  0  0  0  0  0  0  0  0  0  0
   -0.7205    1.2907   -0.3898 N   0  0  0  0  0  0  0  0  0  0  0  0
   -0.6168    2.4940    0.2841 C   0  0  0  0  0  0  0  0  0  0  0  0
   -1.5401    3.1504    0.7552 O   0  0  0  0  0  0  0  0  0  0  0  0
    0.8257    3.0128    0.3326 C   0  0  0  0  0  0  0  0  0  0  0  0
    1.8067    1.9891    0.1250 O   0  0  0  0  0  0  0  0  0  0  0  0
    2.1243    1.2843    1.2404 C   0  0  0  0  0  0  0  0  0  0  0  0
    1.6980    1.4602    2.3649 O   0  0  0  0  0  0  0  0  0  0  0  0
    3.0657    0.2207    0.8548 C   0  0  0  0  0  0  0  0  0  0  0  0
    4.2742    0.5851    0.2434 C   0  0  0  0  0  0  0  0  0  0  0  0
    5.1856   -0.4041   -0.1174 C   0  0  0  0  0  0  0  0  0  0  0  0
    6.6685    0.0357   -0.8680 Cl  0  0  0  0  0  0  0  0  0  0  0  0
    4.9046   -1.7479    0.1253 C   0  0  0  0  0  0  0  0  0  0  0  0
    3.6987   -2.1083    0.7330 C   0  0  0  0  0  0  0  0  0  0  0  0
    2.7744   -1.1254    1.1010 C   0  0  0  0  0  0  0  0  0  0  0  0
    1.2844   -1.6455    1.7981 Cl  0  0  0  0  0  0  0  0  0  0  0  0
   -1.7231   -0.7010   -1.3369 C   0  0  0  0  0  0  0  0  0  0  0  0
   -0.0270   -1.2582   -2.0033 Br  0  0  0  0  0  0  0  0  0  0  0  0
   -2.8231   -1.5283   -1.5879 C   0  0  0  0  0  0  0  0  0  0  0  0
   -5.1661   -2.6120   -2.3061 H   0  0  0  0  0  0  0  0  0  0  0  0
   -6.1991   -1.4842   -1.4287 H   0  0  0  0  0  0  0  0  0  0  0  0
   -5.3627   -2.7843   -0.5442 H   0  0  0  0  0  0  0  0  0  0  0  0
   -5.2121    0.3101   -0.0138 H   0  0  0  0  0  0  0  0  0  0  0  0
   -3.3059    1.7504    0.4237 H   0  0  0  0  0  0  0  0  0  0  0  0
    0.1450    0.9138   -0.7632 H   0  0  0  0  0  0  0  0  0  0  0  0
    0.9957    3.5373    1.2799 H   0  0  0  0  0  0  0  0  0  0  0  0
    0.9405    3.7407   -0.4773 H   0  0  0  0  0  0  0  0  0  0  0  0
    4.5025    1.6319    0.0574 H   0  0  0  0  0  0  0  0  0  0  0  0
    5.6171   -2.5198   -0.1573 H   0  0  0  0  0  0  0  0  0  0  0  0
    3.4840   -3.1600    0.9123 H   0  0  0  0  0  0  0  0  0  0  0  0
   -2.6928   -2.4564   -2.1398 H   0  0  0  0  0  0  0  0  0  0  0  0
  1  2  1  0
  2  3  2  0
  3  4  1  0
  4  5  2  0
  5  6  1  0
  6  7  1  0
  7  8  2  0
  7  9  1  0
  9 10  1  0
 10 11  1  0
 11 12  2  0
 11 13  1  0
 13 14  2  0
 14 15  1  0
 15 16  1  0
 15 17  2  0
 17 18  1  0
 18 19  2  0
 19 20  1  0
  5 21  1  0
 21 22  1  0
 21 23  2  0
 23  2  1  0
 19 13  1  0
  1 24  1  0
  1 25  1  0
  1 26  1  0
  3 27  1  0
  4 28  1  0
  6 29  1  0
  9 30  1  0
  9 31  1  0
 14 32  1  0
 17 33  1  0
 18 34  1  0
 23 35  1  0
M  END
$$$$
