
     RDKit          3D

 38 38  0  0  0  0  0  0  0  0999 V2000
    5.2699    3.2611    3.1997 C   0  0  0  0  0  0  0  0  0  0  0  0
    5.6098    1.9075    2.9248 O   0  0  0  0  0  0  0  0  0  0  0  0
    4.5269    1.1715    2.3527 C   0  0  0  0  0  0  0  0  0  0  0  0
    4.4051    1.4226    0.8464 C   0  0  0  0  0  0  0  0  0  0  0  0
    3.4325    0.5557    0.2033 N   0  0  0  0  0  0  0  0  0  0  0  0
    2.0793    0.7886    0.3237 C   0  0  0  0  0  0  0  0  0  0  0  0
    1.6453    1.7344    0.9778 O   0  0  0  0  0  0  0  0  0  0  0  0
    1.1635   -0.1787   -0.3806 C   0  0  0  0  0  0  0  0  0  0  0  0
    1.7389   -1.2423   -1.1212 C   0  0  0  0  0  0  0  0  0  0  0  0
    2.2725   -2.0912   -1.7066 N   0  0  0  0  0  0  0  0  0  0  0  0
   -0.1630    0.0427   -0.2552 C   0  0  0  0  0  0  0  0  0  0  0  0
   -1.3329   -0.6730   -0.7864 C   0  0  0  0  0  0  0  0  0  0  0  0
   -1.1457   -1.9106   -1.6297 C   0  0  0  0  0  0  0  0  0  0  0  0
   -2.5561   -0.1829   -0.4867 C   0  0  0  0  0  0  0  0  0  0  0  0
   -3.8340   -0.7539   -0.9210 C   0  0  0  0  0  0  0  0  0  0  0  0
   -4.3984   -0.3698   -2.1420 C   0  0  0  0  0  0  0  0  0  0  0  0
   -5.6133   -0.9190   -2.5559 C   0  0  0  0  0  0  0  0  0  0  0  0
   -6.2672   -1.8525   -1.7520 C   0  0  0  0  0  0  0  0  0  0  0  0
   -5.7082   -2.2380   -0.5339 C   0  0  0  0  0  0  0  0  0  0  0  0
   -4.4936   -1.6901   -0.1177 C   0  0  0  0  0  0  0  0  0  0  0  0
    6.1324    3.7401    3.6712 H   0  0  0  0  0  0  0  0  0  0  0  0
    5.0381    3.8016    2.2782 H   0  0  0  0  0  0  0  0  0  0  0  0
    4.4241    3.3123    3.8921 H   0  0  0  0  0  0  0  0  0  0  0  0
    3.5914    1.3867    2.8824 H   0  0  0  0  0  0  0  0  0  0  0  0
    4.7446    0.1104    2.5193 H   0  0  0  0  0  0  0  0  0  0  0  0
    5.3713    1.2544    0.3580 H   0  0  0  0  0  0  0  0  0  0  0  0
    4.1272    2.4641    0.6515 H   0  0  0  0  0  0  0  0  0  0  0  0
    3.7956   -0.2412   -0.3075 H   0  0  0  0  0  0  0  0  0  0  0  0
   -0.4469    0.9101    0.3486 H   0  0  0  0  0  0  0  0  0  0  0  0
   -0.6144   -2.6844   -1.0658 H   0  0  0  0  0  0  0  0  0  0  0  0
   -2.0876   -2.3633   -1.9529 H   0  0  0  0  0  0  0  0  0  0  0  0
   -0.5909   -1.6738   -2.5433 H   0  0  0  0  0  0  0  0  0  0  0  0
   -2.6759    0.7096    0.1256 H   0  0  0  0  0  0  0  0  0  0  0  0
   -3.8955    0.3556   -2.7767 H   0  0  0  0  0  0  0  0  0  0  0  0
   -6.0489   -0.6193   -3.5056 H   0  0  0  0  0  0  0  0  0  0  0  0
   -7.2128   -2.2801   -2.0755 H   0  0  0  0  0  0  0  0  0  0  0  0
   -6.2178   -2.9661    0.0919 H   0  0  0  0  0  0  0  0  0  0  0  0
   -4.0652   -1.9988    0.8329 H   0  0  0  0  0  0  0  0  0  0  0  0
  1  2  1  0
  2  3  1  0
  3  4  1  0
  4  5  1  0
  5  6  1  0
  6  7  2  0
  6  8  1  0
  8  9  1  0
  9 10  3  0
  8 11  2  3
 11 12  1  0
 12 13  1  0
 12 14  2  3
 14 15  1  0
 15 16  2  0
 16 17  1  0
 17 18  2  0
 18 19  1  0
 19 20  2  0
 20 15  1  0
  1 21  1  0
  1 22  1  0
  1 23  1  0
  3 24  1  0
  3 25  1  0
  4 26  1  0
  4 27  1  0
  5 28  1  0
 11 29  1  0
 13 30  1  0
 13 31  1  0
 13 32  1  0
 14 33  1  0
 16 34  1  0
 17 35  1  0
 18 36  1  0
 19 37  1  0
 20 38  1  0
M  END
$$$$
