
     RDKit          3D

 60 62  0  0  0  0  0  0  0  0999 V2000
   -6.2020    5.1256   -2.4671 C   0  0  0  0  0  0  0  0  0  0  0  0
   -5.3061    4.2214   -1.6723 C   0  0  0  0  0  0  0  0  0  0  0  0
   -5.8489    3.2479   -0.8319 C   0  0  0  0  0  0  0  0  0  0  0  0
   -5.0105    2.3953   -0.1158 C   0  0  0  0  0  0  0  0  0  0  0  0
   -3.6158    2.4917   -0.2492 C   0  0  0  0  0  0  0  0  0  0  0  0
   -2.6271    1.3613    0.7164 S   0  0  0  0  0  6  0  0  0  0  0  0
   -3.4954    0.7145    1.6823 O   0  0  0  0  0  0  0  0  0  0  0  0
   -1.4233    2.0325    1.1507 O   0  0  0  0  0  0  0  0  0  0  0  0
   -2.2826    0.1600   -0.4306 N   0  0  0  0  0  0  0  0  0  0  0  0
   -0.9071   -0.1835   -0.6712 C   0  0  0  0  0  0  0  0  0  0  0  0
   -0.0917   -0.5600    0.4042 C   0  0  0  0  0  0  0  0  0  0  0  0
    1.2344   -0.9633    0.2028 C   0  0  0  0  0  0  0  0  0  0  0  0
    2.0828   -1.3415    1.4122 C   0  0  0  0  0  0  0  0  0  0  0  0
    2.4206   -2.8200    1.4547 C   0  0  0  0  0  0  0  0  0  0  0  0
    1.6893   -3.7202    1.0581 O   0  0  0  0  0  0  0  0  0  0  0  0
    3.6212   -3.0239    2.0686 O   0  0  0  0  0  0  0  0  0  0  0  0
    4.0306   -4.3919    2.2643 C   0  0  0  0  0  0  0  0  0  0  0  0
    3.3861   -4.9368    3.5351 C   0  0  0  0  0  0  0  0  0  0  0  0
    5.5515   -4.3796    2.3870 C   0  0  0  0  0  0  0  0  0  0  0  0
    3.3074   -0.4561    1.5900 C   0  0  0  0  0  0  0  0  0  0  0  0
    3.9254    0.0164    0.6241 O   0  0  0  0  0  0  0  0  0  0  0  0
    3.7434   -0.2249    3.0290 C   0  0  0  0  0  0  0  0  0  0  0  0
    3.5481    1.0691    3.4062 F   0  0  0  0  0  0  0  0  0  0  0  0
    3.0580   -0.9855    3.9294 F   0  0  0  0  0  0  0  0  0  0  0  0
    5.0621   -0.4931    3.2259 F   0  0  0  0  0  0  0  0  0  0  0  0
    1.6983   -1.0366   -1.1177 C   0  0  0  0  0  0  0  0  0  0  0  0
    3.0021   -1.4079   -1.3432 O   0  0  0  0  0  0  0  0  0  0  0  0
    0.8781   -0.7382   -2.2299 C   0  0  0  0  0  0  0  0  0  0  0  0
    1.3424   -0.8561   -3.5580 C   0  0  0  0  0  0  0  0  0  0  0  0
    0.5238   -0.5559   -4.6478 C   0  0  0  0  0  0  0  0  0  0  0  0
   -0.7792   -0.1289   -4.4322 C   0  0  0  0  0  0  0  0  0  0  0  0
   -1.2596   -0.0054   -3.1273 C   0  0  0  0  0  0  0  0  0  0  0  0
   -0.4493   -0.3049   -2.0053 C   0  0  0  0  0  0  0  0  0  0  0  0
   -3.0463    3.4577   -1.0981 C   0  0  0  0  0  0  0  0  0  0  0  0
   -1.5652    3.6447   -1.2735 C   0  0  0  0  0  0  0  0  0  0  0  0
   -3.9126    4.3118   -1.8045 C   0  0  0  0  0  0  0  0  0  0  0  0
   -6.4024    4.6846   -3.4482 H   0  0  0  0  0  0  0  0  0  0  0  0
   -7.1539    5.2876   -1.9496 H   0  0  0  0  0  0  0  0  0  0  0  0
   -5.7369    6.1081   -2.6060 H   0  0  0  0  0  0  0  0  0  0  0  0
   -6.9273    3.1499   -0.7231 H   0  0  0  0  0  0  0  0  0  0  0  0
   -5.4588    1.6547    0.5441 H   0  0  0  0  0  0  0  0  0  0  0  0
   -2.8536   -0.6618   -0.2225 H   0  0  0  0  0  0  0  0  0  0  0  0
   -0.4987   -0.5297    1.4142 H   0  0  0  0  0  0  0  0  0  0  0  0
    1.4591   -1.1729    2.3030 H   0  0  0  0  0  0  0  0  0  0  0  0
    3.7544   -5.0054    1.3969 H   0  0  0  0  0  0  0  0  0  0  0  0
    3.6096   -4.2920    4.3926 H   0  0  0  0  0  0  0  0  0  0  0  0
    2.2943   -4.9612    3.4410 H   0  0  0  0  0  0  0  0  0  0  0  0
    3.7280   -5.9512    3.7558 H   0  0  0  0  0  0  0  0  0  0  0  0
    5.9479   -5.3839    2.5722 H   0  0  0  0  0  0  0  0  0  0  0  0
    6.0018   -3.9923    1.4674 H   0  0  0  0  0  0  0  0  0  0  0  0
    5.8735   -3.7153    3.1986 H   0  0  0  0  0  0  0  0  0  0  0  0
    3.5610   -0.7234   -0.9106 H   0  0  0  0  0  0  0  0  0  0  0  0
    2.3592   -1.1941   -3.7519 H   0  0  0  0  0  0  0  0  0  0  0  0
    0.9061   -0.6598   -5.6599 H   0  0  0  0  0  0  0  0  0  0  0  0
   -1.4252    0.1068   -5.2743 H   0  0  0  0  0  0  0  0  0  0  0  0
   -2.2842    0.3367   -2.9872 H   0  0  0  0  0  0  0  0  0  0  0  0
   -1.3423    4.3550   -2.0794 H   0  0  0  0  0  0  0  0  0  0  0  0
   -1.1188    4.0504   -0.3608 H   0  0  0  0  0  0  0  0  0  0  0  0
   -1.0799    2.7048   -1.5463 H   0  0  0  0  0  0  0  0  0  0  0  0
   -3.4962    5.0689   -2.4679 H   0  0  0  0  0  0  0  0  0  0  0  0
  1  2  1  0
  2  3  2  0
  3  4  1  0
  4  5  2  0
  5  6  1  0
  6  7  2  0
  6  8  2  0
  6  9  1  0
  9 10  1  0
 10 11  2  0
 11 12  1  0
 12 13  1  0
 13 14  1  0
 14 15  2  0
 14 16  1  0
 16 17  1  0
 17 18  1  0
 17 19  1  0
 13 20  1  0
 20 21  2  0
 20 22  1  0
 22 23  1  0
 22 24  1  0
 22 25  1  0
 12 26  2  0
 26 27  1  0
 26 28  1  0
 28 29  2  0
 29 30  1  0
 30 31  2  0
 31 32  1  0
 32 33  2  0
  5 34  1  0
 34 35  1  0
 34 36  2  0
 36  2  1  0
 33 10  1  0
 33 28  1  0
  1 37  1  0
  1 38  1  0
  1 39  1  0
  3 40  1  0
  4 41  1  0
  9 42  1  0
 11 43  1  0
 13 44  1  0
 17 45  1  0
 18 46  1  0
 18 47  1  0
 18 48  1  0
 19 49  1  0
 19 50  1  0
 19 51  1  0
 27 52  1  0
 29 53  1  0
 30 54  1  0
 31 55  1  0
 32 56  1  0
 35 57  1  0
 35 58  1  0
 35 59  1  0
 36 60  1  0
M  END
$$$$
