
     RDKit          3D

 49 52  0  0  0  0  0  0  0  0999 V2000
   -3.6439   -0.0271    2.8100 O   0  0  0  0  0  0  0  0  0  0  0  0
   -3.1391    1.0735    2.6915 C   0  0  0  0  0  0  0  0  0  0  0  0
   -2.9760    1.8741    3.7635 O   0  0  0  0  0  0  0  0  0  0  0  0
   -2.6512    1.7108    1.4432 C   0  0  0  0  0  0  0  0  0  0  0  0
   -2.8955    3.0948    1.3061 C   0  0  0  0  0  0  0  0  0  0  0  0
   -2.6470    3.7508    0.1048 C   0  0  0  0  0  0  0  0  0  0  0  0
   -2.1936    3.0212   -0.9844 C   0  0  0  0  0  0  0  0  0  0  0  0
   -1.9493    1.6454   -0.8542 C   0  0  0  0  0  0  0  0  0  0  0  0
   -1.5349    0.8929   -2.0606 C   0  0  0  0  0  0  0  0  0  0  0  0
   -1.2682    1.4741   -3.1080 O   0  0  0  0  0  0  0  0  0  0  0  0
   -1.4766   -0.5796   -1.9870 C   0  0  0  0  0  0  0  0  0  0  0  0
   -1.2942   -1.3260   -3.1590 C   0  0  0  0  0  0  0  0  0  0  0  0
   -1.2448   -2.7153   -3.0936 C   0  0  0  0  0  0  0  0  0  0  0  0
   -1.3879   -3.3516   -1.8639 C   0  0  0  0  0  0  0  0  0  0  0  0
   -1.5601   -2.5992   -0.6964 C   0  0  0  0  0  0  0  0  0  0  0  0
   -1.5790   -1.1956   -0.7307 C   0  0  0  0  0  0  0  0  0  0  0  0
   -1.7368   -0.4111    0.4412 N   0  0  0  0  0  0  0  0  0  0  0  0
   -0.8363   -0.7955    1.5747 C   0  0  0  0  0  0  0  0  0  0  0  0
    0.5628   -0.1324    1.5955 C   0  0  0  0  0  0  0  0  0  0  0  0
    0.4772    1.2623    1.9244 O   0  0  0  0  0  0  0  0  0  0  0  0
    1.3847   -0.2977    0.3015 C   0  0  0  0  0  0  0  0  0  0  0  0
    2.7121    0.3550    0.4443 N   0  0  0  0  0  0  0  0  0  0  0  0
    3.3410    0.5636   -0.8738 C   0  0  0  0  0  0  0  0  0  0  0  0
    3.9883   -0.7621   -1.2374 C   0  0  0  0  0  0  0  0  0  0  0  0
    4.2816   -1.4294    0.0982 C   0  0  0  0  0  0  0  0  0  0  0  0
    3.6786   -0.5059    1.1495 C   0  0  0  0  0  0  0  0  0  0  0  0
   -2.1065    0.9627    0.3735 C   0  0  0  0  0  0  0  0  0  0  0  0
   -3.3208    1.3405    4.5088 H   0  0  0  0  0  0  0  0  0  0  0  0
   -3.3098    3.6641    2.1363 H   0  0  0  0  0  0  0  0  0  0  0  0
   -2.8407    4.8160    0.0096 H   0  0  0  0  0  0  0  0  0  0  0  0
   -2.0382    3.5180   -1.9402 H   0  0  0  0  0  0  0  0  0  0  0  0
   -1.2002   -0.8235   -4.1193 H   0  0  0  0  0  0  0  0  0  0  0  0
   -1.1138   -3.2991   -4.0012 H   0  0  0  0  0  0  0  0  0  0  0  0
   -1.3808   -4.4379   -1.8113 H   0  0  0  0  0  0  0  0  0  0  0  0
   -1.7189   -3.1337    0.2368 H   0  0  0  0  0  0  0  0  0  0  0  0
   -1.3161   -0.5746    2.5298 H   0  0  0  0  0  0  0  0  0  0  0  0
   -0.6851   -1.8800    1.6022 H   0  0  0  0  0  0  0  0  0  0  0  0
    1.1069   -0.5943    2.4277 H   0  0  0  0  0  0  0  0  0  0  0  0
    1.3428    1.6306    1.6478 H   0  0  0  0  0  0  0  0  0  0  0  0
    1.4639   -1.3531    0.0173 H   0  0  0  0  0  0  0  0  0  0  0  0
    0.8573    0.2328   -0.4958 H   0  0  0  0  0  0  0  0  0  0  0  0
    2.6460    0.9183   -1.6427 H   0  0  0  0  0  0  0  0  0  0  0  0
    4.1147    1.3350   -0.7703 H   0  0  0  0  0  0  0  0  0  0  0  0
    3.2978   -1.3831   -1.8201 H   0  0  0  0  0  0  0  0  0  0  0  0
    4.8966   -0.6215   -1.8317 H   0  0  0  0  0  0  0  0  0  0  0  0
    5.3576   -1.5572    0.2553 H   0  0  0  0  0  0  0  0  0  0  0  0
    3.8163   -2.4210    0.1314 H   0  0  0  0  0  0  0  0  0  0  0  0
    4.4671    0.1331    1.5669 H   0  0  0  0  0  0  0  0  0  0  0  0
    3.2525   -1.0621    1.9901 H   0  0  0  0  0  0  0  0  0  0  0  0
  1  2  2  0
  2  3  1  0
  2  4  1  0
  4  5  2  0
  5  6  1  0
  6  7  2  0
  7  8  1  0
  8  9  1  0
  9 10  2  0
  9 11  1  0
 11 12  2  0
 12 13  1  0
 13 14  2  0
 14 15  1  0
 15 16  2  0
 16 17  1  0
 17 18  1  0
 18 19  1  0
 19 20  1  0
 19 21  1  0
 21 22  1  0
 22 23  1  0
 23 24  1  0
 24 25  1  0
 25 26  1  0
 17 27  1  0
 27  4  1  0
 27  8  2  0
 16 11  1  0
 26 22  1  0
  3 28  1  0
  5 29  1  0
  6 30  1  0
  7 31  1  0
 12 32  1  0
 13 33  1  0
 14 34  1  0
 15 35  1  0
 18 36  1  0
 18 37  1  0
 19 38  1  0
 20 39  1  0
 21 40  1  0
 21 41  1  0
 23 42  1  0
 23 43  1  0
 24 44  1  0
 24 45  1  0
 25 46  1  0
 25 47  1  0
 26 48  1  0
 26 49  1  0
M  END
$$$$
