
     RDKit          3D

 46 49  0  0  0  0  0  0  0  0999 V2000
    4.2486    0.4175   -1.1552 O   0  0  0  0  0  0  0  0  0  0  0  0
    3.6944   -0.1349   -0.2081 C   0  0  0  0  0  0  0  0  0  0  0  0
    3.6727   -1.6548   -0.0988 C   0  0  0  0  0  0  0  0  0  0  0  0
    2.1878   -2.3329   -0.9083 S   0  0  0  0  0  0  0  0  0  0  0  0
    0.9681   -1.8027    0.1936 C   0  0  0  0  0  0  0  0  0  0  0  0
    1.1747   -1.5279    1.4600 N   0  0  0  0  0  0  0  0  0  0  0  0
    0.0068   -1.0401    1.9752 N   0  0  0  0  0  0  0  0  0  0  0  0
   -0.9043   -1.0426    1.0178 C   0  0  0  0  0  0  0  0  0  0  0  0
   -2.3248   -0.6030    1.1796 C   0  0  0  0  0  0  0  0  0  0  0  0
   -2.6503    0.6845    0.4737 C   0  0  0  0  0  0  0  0  0  0  0  0
   -3.5931    0.8981   -0.5149 C   0  0  0  0  0  0  0  0  0  0  0  0
   -3.6273    2.2541   -0.9501 C   0  0  0  0  0  0  0  0  0  0  0  0
   -2.7225    3.0365   -0.2691 C   0  0  0  0  0  0  0  0  0  0  0  0
   -1.8428    2.1402    0.8889 S   0  0  0  0  0  0  0  0  0  0  0  0
   -0.3308   -1.5340   -0.1389 N   0  0  0  0  0  0  0  0  0  0  0  0
   -0.9565   -1.6739   -1.4387 C   0  0  0  0  0  0  0  0  0  0  0  0
   -1.7508   -2.9240   -1.5049 C   0  0  0  0  0  0  0  0  0  0  0  0
   -1.4189   -4.2586   -1.6216 C   0  0  0  0  0  0  0  0  0  0  0  0
   -2.6405   -4.9734   -1.6343 C   0  0  0  0  0  0  0  0  0  0  0  0
   -3.6376   -4.0329   -1.5293 C   0  0  0  0  0  0  0  0  0  0  0  0
   -3.1075   -2.7854   -1.4522 O   0  0  0  0  0  0  0  0  0  0  0  0
    3.0279    0.5010    0.8272 N   0  0  0  0  0  0  0  0  0  0  0  0
    2.8405    1.8856    1.0131 C   0  0  0  0  0  0  0  0  0  0  0  0
    1.9773    2.2748    2.0456 C   0  0  0  0  0  0  0  0  0  0  0  0
    1.7366    3.6275    2.2903 C   0  0  0  0  0  0  0  0  0  0  0  0
    0.6698    4.0888    3.5599 Cl  0  0  0  0  0  0  0  0  0  0  0  0
    2.3497    4.6075    1.5182 C   0  0  0  0  0  0  0  0  0  0  0  0
    3.2106    4.2202    0.4960 C   0  0  0  0  0  0  0  0  0  0  0  0
    3.9778    5.4263   -0.4648 Cl  0  0  0  0  0  0  0  0  0  0  0  0
    3.4608    2.8692    0.2404 C   0  0  0  0  0  0  0  0  0  0  0  0
    3.7380   -1.9727    0.9467 H   0  0  0  0  0  0  0  0  0  0  0  0
    4.5600   -2.0458   -0.6076 H   0  0  0  0  0  0  0  0  0  0  0  0
   -2.5383   -0.4793    2.2496 H   0  0  0  0  0  0  0  0  0  0  0  0
   -2.9947   -1.3991    0.8358 H   0  0  0  0  0  0  0  0  0  0  0  0
   -4.2281    0.1148   -0.9142 H   0  0  0  0  0  0  0  0  0  0  0  0
   -4.2868    2.6388   -1.7187 H   0  0  0  0  0  0  0  0  0  0  0  0
   -2.5387    4.0956   -0.3890 H   0  0  0  0  0  0  0  0  0  0  0  0
   -0.1887   -1.6679   -2.2174 H   0  0  0  0  0  0  0  0  0  0  0  0
   -1.5764   -0.7932   -1.6197 H   0  0  0  0  0  0  0  0  0  0  0  0
   -0.4191   -4.6672   -1.6872 H   0  0  0  0  0  0  0  0  0  0  0  0
   -2.7788   -6.0431   -1.7115 H   0  0  0  0  0  0  0  0  0  0  0  0
   -4.7172   -4.0870   -1.4983 H   0  0  0  0  0  0  0  0  0  0  0  0
    2.4901   -0.1028    1.4535 H   0  0  0  0  0  0  0  0  0  0  0  0
    1.4767    1.5263    2.6576 H   0  0  0  0  0  0  0  0  0  0  0  0
    2.1606    5.6594    1.7104 H   0  0  0  0  0  0  0  0  0  0  0  0
    4.1452    2.6125   -0.5619 H   0  0  0  0  0  0  0  0  0  0  0  0
  1  2  2  0
  2  3  1  0
  3  4  1  0
  4  5  1  0
  5  6  2  0
  6  7  1  0
  7  8  2  0
  8  9  1  0
  9 10  1  0
 10 11  2  0
 11 12  1  0
 12 13  2  0
 13 14  1  0
  8 15  1  0
 15 16  1  0
 16 17  1  0
 17 18  2  0
 18 19  1  0
 19 20  2  0
 20 21  1  0
  2 22  1  0
 22 23  1  0
 23 24  2  0
 24 25  1  0
 25 26  1  0
 25 27  2  0
 27 28  1  0
 28 29  1  0
 28 30  2  0
 15  5  1  0
 21 17  1  0
 30 23  1  0
 14 10  1  0
  3 31  1  0
  3 32  1  0
  9 33  1  0
  9 34  1  0
 11 35  1  0
 12 36  1  0
 13 37  1  0
 16 38  1  0
 16 39  1  0
 18 40  1  0
 19 41  1  0
 20 42  1  0
 22 43  1  0
 24 44  1  0
 27 45  1  0
 30 46  1  0
M  END
$$$$
