
     RDKit          3D

 59 62  0  0  0  0  0  0  0  0999 V2000
   -6.7516   -1.3287    0.8001 C   0  0  0  0  0  0  0  0  0  0  0  0
   -6.3635   -1.2978   -0.6684 C   0  0  0  0  0  0  0  0  0  0  0  0
   -5.0835   -0.6400   -0.8867 N   0  0  0  0  0  0  0  0  0  0  0  0
   -4.9261    0.7137   -1.1179 C   0  0  0  0  0  0  0  0  0  0  0  0
   -5.8650    1.7571   -1.1905 C   0  0  0  0  0  0  0  0  0  0  0  0
   -5.3982    3.0503   -1.4430 C   0  0  0  0  0  0  0  0  0  0  0  0
   -4.0410    3.2992   -1.6167 C   0  0  0  0  0  0  0  0  0  0  0  0
   -3.1133    2.2559   -1.5380 C   0  0  0  0  0  0  0  0  0  0  0  0
   -3.5585    0.9409   -1.2838 C   0  0  0  0  0  0  0  0  0  0  0  0
   -2.8905   -0.3145   -1.1391 C   0  0  0  0  0  0  0  0  0  0  0  0
   -1.5343   -0.7086   -1.1933 C   0  0  0  0  0  0  0  0  0  0  0  0
   -1.1749   -2.0519   -1.0009 C   0  0  0  0  0  0  0  0  0  0  0  0
    0.1985   -2.3581   -1.0699 N   0  0  0  0  0  0  0  0  0  0  0  0
    0.8090   -3.5945   -0.9232 C   0  0  0  0  0  0  0  0  0  0  0  0
    0.2467   -4.6723   -0.7549 O   0  0  0  0  0  0  0  0  0  0  0  0
    2.3366   -3.5195   -1.1052 C   0  0  0  0  0  0  0  0  0  0  0  0
    2.6678   -3.6916   -2.5824 C   0  0  0  0  0  0  0  0  0  0  0  0
    2.8785   -2.2499   -0.7016 O   0  0  0  0  0  0  0  0  0  0  0  0
    3.0659   -2.1079    0.6357 C   0  0  0  0  0  0  0  0  0  0  0  0
    2.7924   -2.9377    1.4849 O   0  0  0  0  0  0  0  0  0  0  0  0
    3.6494   -0.7734    0.9406 C   0  0  0  0  0  0  0  0  0  0  0  0
    3.8400   -0.4230    2.2809 C   0  0  0  0  0  0  0  0  0  0  0  0
    4.3880    0.8205    2.6219 C   0  0  0  0  0  0  0  0  0  0  0  0
    4.7514    1.7319    1.6296 C   0  0  0  0  0  0  0  0  0  0  0  0
    5.3072    3.0040    1.8850 N   0  0  0  0  0  0  0  0  0  0  0  0
    5.5737    3.5741    3.1231 C   0  0  0  0  0  0  0  0  0  0  0  0
    5.3855    3.0533    4.2186 O   0  0  0  0  0  0  0  0  0  0  0  0
    6.1809    4.9563    3.0322 C   0  0  0  0  0  0  0  0  0  0  0  0
    5.1594    5.9379    2.6771 C   0  0  0  0  0  0  0  0  0  0  0  0
    4.3676    6.7205    2.3492 N   0  0  0  0  0  0  0  0  0  0  0  0
    4.5605    1.3780    0.2874 C   0  0  0  0  0  0  0  0  0  0  0  0
    4.0156    0.1355   -0.0579 C   0  0  0  0  0  0  0  0  0  0  0  0
   -2.1687   -2.9941   -0.7524 C   0  0  0  0  0  0  0  0  0  0  0  0
   -3.5212   -2.6304   -0.6909 C   0  0  0  0  0  0  0  0  0  0  0  0
   -3.8610   -1.2838   -0.8903 C   0  0  0  0  0  0  0  0  0  0  0  0
   -7.7197   -1.8238    0.9256 H   0  0  0  0  0  0  0  0  0  0  0  0
   -6.8299   -0.3166    1.2109 H   0  0  0  0  0  0  0  0  0  0  0  0
   -6.0103   -1.8734    1.3939 H   0  0  0  0  0  0  0  0  0  0  0  0
   -7.1221   -0.7728   -1.2581 H   0  0  0  0  0  0  0  0  0  0  0  0
   -6.3002   -2.3135   -1.0728 H   0  0  0  0  0  0  0  0  0  0  0  0
   -6.9267    1.5789   -1.0539 H   0  0  0  0  0  0  0  0  0  0  0  0
   -6.1075    3.8725   -1.5039 H   0  0  0  0  0  0  0  0  0  0  0  0
   -3.6967    4.3115   -1.8145 H   0  0  0  0  0  0  0  0  0  0  0  0
   -2.0553    2.4605   -1.6716 H   0  0  0  0  0  0  0  0  0  0  0  0
   -0.7813    0.0487   -1.3847 H   0  0  0  0  0  0  0  0  0  0  0  0
    0.8259   -1.5777   -1.2233 H   0  0  0  0  0  0  0  0  0  0  0  0
    2.8041   -4.3310   -0.5342 H   0  0  0  0  0  0  0  0  0  0  0  0
    3.7512   -3.6526   -2.7381 H   0  0  0  0  0  0  0  0  0  0  0  0
    2.2912   -4.6446   -2.9669 H   0  0  0  0  0  0  0  0  0  0  0  0
    2.2320   -2.8844   -3.1824 H   0  0  0  0  0  0  0  0  0  0  0  0
    3.5620   -1.1140    3.0755 H   0  0  0  0  0  0  0  0  0  0  0  0
    4.5121    1.0400    3.6779 H   0  0  0  0  0  0  0  0  0  0  0  0
    5.5002    3.5655    1.0630 H   0  0  0  0  0  0  0  0  0  0  0  0
    6.6359    5.2024    3.9973 H   0  0  0  0  0  0  0  0  0  0  0  0
    6.9896    4.9458    2.2922 H   0  0  0  0  0  0  0  0  0  0  0  0
    4.8342    2.0605   -0.5133 H   0  0  0  0  0  0  0  0  0  0  0  0
    3.8904   -0.1055   -1.1100 H   0  0  0  0  0  0  0  0  0  0  0  0
   -1.9286   -4.0413   -0.5925 H   0  0  0  0  0  0  0  0  0  0  0  0
   -4.2735   -3.3866   -0.4886 H   0  0  0  0  0  0  0  0  0  0  0  0
  1  2  1  0
  2  3  1  0
  3  4  1  0
  4  5  2  0
  5  6  1  0
  6  7  2  0
  7  8  1  0
  8  9  2  0
  9 10  1  0
 10 11  2  0
 11 12  1  0
 12 13  1  0
 13 14  1  0
 14 15  2  0
 14 16  1  0
 16 17  1  0
 16 18  1  0
 18 19  1  0
 19 20  2  0
 19 21  1  0
 21 22  2  0
 22 23  1  0
 23 24  2  0
 24 25  1  0
 25 26  1  0
 26 27  2  0
 26 28  1  0
 28 29  1  0
 29 30  3  0
 24 31  1  0
 31 32  2  0
 12 33  2  0
 33 34  1  0
 34 35  2  0
 35  3  1  0
  9  4  1  0
 35 10  1  0
 32 21  1  0
  1 36  1  0
  1 37  1  0
  1 38  1  0
  2 39  1  0
  2 40  1  0
  5 41  1  0
  6 42  1  0
  7 43  1  0
  8 44  1  0
 11 45  1  0
 13 46  1  0
 16 47  1  0
 17 48  1  0
 17 49  1  0
 17 50  1  0
 22 51  1  0
 23 52  1  0
 25 53  1  0
 28 54  1  0
 28 55  1  0
 31 56  1  0
 32 57  1  0
 33 58  1  0
 34 59  1  0
M  END
$$$$
