
     RDKit          3D

 58 59  0  0  0  0  0  0  0  0999 V2000
    8.4123   -2.9122   -1.8615 C   0  0  0  0  0  0  0  0  0  0  0  0
    8.7362   -1.5235   -1.3267 C   0  0  0  0  0  0  0  0  0  0  0  0
    8.0455   -0.3938   -2.1041 C   0  0  0  0  0  0  0  0  0  0  0  0
    6.5184   -0.4210   -2.0328 C   0  0  0  0  0  0  0  0  0  0  0  0
    6.1252   -0.3492   -0.6608 O   0  0  0  0  0  0  0  0  0  0  0  0
    4.7861   -0.3760   -0.3866 C   0  0  0  0  0  0  0  0  0  0  0  0
    4.4727   -0.3643    0.9783 C   0  0  0  0  0  0  0  0  0  0  0  0
    3.1413   -0.3835    1.4089 C   0  0  0  0  0  0  0  0  0  0  0  0
    2.1060   -0.4060    0.4659 C   0  0  0  0  0  0  0  0  0  0  0  0
    0.6719   -0.4370    0.8676 C   0  0  0  0  0  0  0  0  0  0  0  0
   -0.1720   -0.9315    0.1283 O   0  0  0  0  0  0  0  0  0  0  0  0
    0.3632    0.1353    2.0852 N   0  0  0  0  0  0  0  0  0  0  0  0
   -1.0273    0.3249    2.4715 C   0  0  0  0  0  0  0  0  0  0  0  0
   -1.5050    1.7132    2.0653 C   0  0  0  0  0  0  0  0  0  0  0  0
   -0.7804    2.6969    1.9724 O   0  0  0  0  0  0  0  0  0  0  0  0
   -2.8552    1.7169    1.8887 O   0  0  0  0  0  0  0  0  0  0  0  0
   -3.3774    2.9799    1.4752 C   0  0  0  0  0  0  0  0  0  0  0  0
   -4.8728    2.8640    1.2082 C   0  0  0  0  0  0  0  0  0  0  0  0
   -5.6571    3.7546    1.5550 O   0  0  0  0  0  0  0  0  0  0  0  0
   -5.3802    1.6270    0.5365 C   0  0  0  0  0  0  0  0  0  0  0  0
   -6.5136    1.0324    0.9698 C   0  0  0  0  0  0  0  0  0  0  0  0
   -7.2642    1.5602    2.0176 N   0  0  0  0  0  0  0  0  0  0  0  0
   -6.9290   -0.1495    0.3570 N   0  0  0  0  0  0  0  0  0  0  0  0
   -8.1434   -0.8175    0.8297 C   0  0  0  0  0  0  0  0  0  0  0  0
   -6.2147   -0.7858   -0.6630 C   0  0  0  0  0  0  0  0  0  0  0  0
   -6.6298   -1.8058   -1.2207 O   0  0  0  0  0  0  0  0  0  0  0  0
   -5.0139   -0.1952   -1.0274 N   0  0  0  0  0  0  0  0  0  0  0  0
   -4.2524   -0.8138   -2.0993 C   0  0  0  0  0  0  0  0  0  0  0  0
   -4.6289    1.0537   -0.5980 C   0  0  0  0  0  0  0  0  0  0  0  0
   -3.7324    1.7100   -1.1268 O   0  0  0  0  0  0  0  0  0  0  0  0
    2.4187   -0.4301   -0.8999 C   0  0  0  0  0  0  0  0  0  0  0  0
    3.7539   -0.4110   -1.3256 C   0  0  0  0  0  0  0  0  0  0  0  0
    7.3505   -3.1536   -1.7454 H   0  0  0  0  0  0  0  0  0  0  0  0
    8.9847   -3.6693   -1.3142 H   0  0  0  0  0  0  0  0  0  0  0  0
    8.6668   -2.9941   -2.9262 H   0  0  0  0  0  0  0  0  0  0  0  0
    8.4698   -1.4724   -0.2629 H   0  0  0  0  0  0  0  0  0  0  0  0
    9.8196   -1.3687   -1.3849 H   0  0  0  0  0  0  0  0  0  0  0  0
    8.3965    0.5576   -1.6820 H   0  0  0  0  0  0  0  0  0  0  0  0
    8.3592   -0.4152   -3.1559 H   0  0  0  0  0  0  0  0  0  0  0  0
    6.1344   -1.3384   -2.4964 H   0  0  0  0  0  0  0  0  0  0  0  0
    6.1314    0.4476   -2.5821 H   0  0  0  0  0  0  0  0  0  0  0  0
    5.2776   -0.3467    1.7122 H   0  0  0  0  0  0  0  0  0  0  0  0
    2.9375   -0.4032    2.4757 H   0  0  0  0  0  0  0  0  0  0  0  0
    1.0305    0.7889    2.4828 H   0  0  0  0  0  0  0  0  0  0  0  0
   -1.0927    0.2341    3.5618 H   0  0  0  0  0  0  0  0  0  0  0  0
   -1.6554   -0.4397    1.9990 H   0  0  0  0  0  0  0  0  0  0  0  0
   -2.8754    3.3486    0.5725 H   0  0  0  0  0  0  0  0  0  0  0  0
   -3.2408    3.6994    2.2942 H   0  0  0  0  0  0  0  0  0  0  0  0
   -7.0264    2.5412    2.2152 H   0  0  0  0  0  0  0  0  0  0  0  0
   -8.2656    1.4751    1.8715 H   0  0  0  0  0  0  0  0  0  0  0  0
   -8.2985   -1.7912    0.3492 H   0  0  0  0  0  0  0  0  0  0  0  0
   -8.0726   -0.9871    1.9129 H   0  0  0  0  0  0  0  0  0  0  0  0
   -9.0119   -0.1902    0.6059 H   0  0  0  0  0  0  0  0  0  0  0  0
   -4.3063   -1.9043   -2.0287 H   0  0  0  0  0  0  0  0  0  0  0  0
   -4.6838   -0.5040   -3.0598 H   0  0  0  0  0  0  0  0  0  0  0  0
   -3.1983   -0.5039   -2.0647 H   0  0  0  0  0  0  0  0  0  0  0  0
    1.6206   -0.4507   -1.6434 H   0  0  0  0  0  0  0  0  0  0  0  0
    3.9468   -0.4221   -2.3943 H   0  0  0  0  0  0  0  0  0  0  0  0
  1  2  1  0
  2  3  1  0
  3  4  1  0
  4  5  1  0
  5  6  1  0
  6  7  2  0
  7  8  1  0
  8  9  2  0
  9 10  1  0
 10 11  2  0
 10 12  1  0
 12 13  1  0
 13 14  1  0
 14 15  2  0
 14 16  1  0
 16 17  1  0
 17 18  1  0
 18 19  2  0
 18 20  1  0
 20 21  2  0
 21 22  1  0
 21 23  1  0
 23 24  1  0
 23 25  1  0
 25 26  2  0
 25 27  1  0
 27 28  1  0
 27 29  1  0
 29 30  2  0
  9 31  1  0
 31 32  2  0
 32  6  1  0
 29 20  1  0
  1 33  1  0
  1 34  1  0
  1 35  1  0
  2 36  1  0
  2 37  1  0
  3 38  1  0
  3 39  1  0
  4 40  1  0
  4 41  1  0
  7 42  1  0
  8 43  1  0
 12 44  1  0
 13 45  1  0
 13 46  1  0
 17 47  1  0
 17 48  1  0
 22 49  1  0
 22 50  1  0
 24 51  1  0
 24 52  1  0
 24 53  1  0
 28 54  1  0
 28 55  1  0
 28 56  1  0
 31 57  1  0
 32 58  1  0
M  END
$$$$
