
     RDKit          3D

 56 59  0  0  0  0  0  0  0  0999 V2000
    3.9316    4.8711    1.7599 C   0  0  0  0  0  0  0  0  0  0  0  0
    4.8382    3.7188    2.1557 C   0  0  0  0  0  0  0  0  0  0  0  0
    4.0793    2.6521    2.7255 O   0  0  0  0  0  0  0  0  0  0  0  0
    3.5905    1.6764    1.9025 C   0  0  0  0  0  0  0  0  0  0  0  0
    3.6379    1.6659    0.5093 C   0  0  0  0  0  0  0  0  0  0  0  0
    3.0895    0.5949   -0.2072 C   0  0  0  0  0  0  0  0  0  0  0  0
    2.4906   -0.4765    0.4638 C   0  0  0  0  0  0  0  0  0  0  0  0
    1.9200   -1.5876   -0.2855 C   0  0  0  0  0  0  0  0  0  0  0  0
    0.6163   -1.7982   -0.7144 C   0  0  0  0  0  0  0  0  0  0  0  0
   -0.5571   -0.9486   -0.5248 C   0  0  0  0  0  0  0  0  0  0  0  0
   -0.5128    0.1278    0.0644 O   0  0  0  0  0  0  0  0  0  0  0  0
   -1.7086   -1.4980   -1.0953 N   0  0  0  0  0  0  0  0  0  0  0  0
   -2.8055   -0.7166   -1.3486 N   0  0  0  0  0  0  0  0  0  0  0  0
   -3.5154   -0.3183   -0.3311 C   0  0  0  0  0  0  0  0  0  0  0  0
   -3.3089   -0.7397    1.1071 C   0  0  0  0  0  0  0  0  0  0  0  0
   -4.6282    0.6274   -0.5700 C   0  0  0  0  0  0  0  0  0  0  0  0
   -4.5442    1.9063   -0.0070 C   0  0  0  0  0  0  0  0  0  0  0  0
   -5.5792    2.8207   -0.2085 C   0  0  0  0  0  0  0  0  0  0  0  0
   -6.6957    2.4569   -0.9631 C   0  0  0  0  0  0  0  0  0  0  0  0
   -6.7785    1.1805   -1.5244 C   0  0  0  0  0  0  0  0  0  0  0  0
   -5.7359    0.2688   -1.3425 C   0  0  0  0  0  0  0  0  0  0  0  0
   -5.8641   -1.0014   -1.8388 O   0  0  0  0  0  0  0  0  0  0  0  0
   -5.6031   -1.0166   -3.2430 C   0  0  0  0  0  0  0  0  0  0  0  0
    0.5511   -2.9823   -1.4027 N   0  0  0  0  0  0  0  0  0  0  0  0
    1.7564   -3.5200   -1.4204 N   0  0  0  0  0  0  0  0  0  0  0  0
    2.6226   -2.7038   -0.7472 N   0  0  0  0  0  0  0  0  0  0  0  0
    3.9900   -3.0478   -0.5931 C   0  0  0  0  0  0  0  0  0  0  0  0
    4.8243   -2.2812    0.1096 N   0  0  0  0  0  0  0  0  0  0  0  0
    6.0435   -2.9519    0.0424 O   0  0  0  0  0  0  0  0  0  0  0  0
    5.9348   -4.1223   -0.7010 N   0  0  0  0  0  0  0  0  0  0  0  0
    4.6636   -4.1763   -1.0973 C   0  0  0  0  0  0  0  0  0  0  0  0
    4.1472   -5.1625   -1.8547 N   0  0  0  0  0  0  0  0  0  0  0  0
    2.4276   -0.4581    1.8595 C   0  0  0  0  0  0  0  0  0  0  0  0
    2.9768    0.6128    2.5697 C   0  0  0  0  0  0  0  0  0  0  0  0
    3.3280    5.1924    2.6146 H   0  0  0  0  0  0  0  0  0  0  0  0
    4.5185    5.7225    1.4051 H   0  0  0  0  0  0  0  0  0  0  0  0
    3.2316    4.5769    0.9727 H   0  0  0  0  0  0  0  0  0  0  0  0
    5.4819    3.3874    1.3324 H   0  0  0  0  0  0  0  0  0  0  0  0
    5.5160    4.0688    2.9423 H   0  0  0  0  0  0  0  0  0  0  0  0
    4.0815    2.4778   -0.0559 H   0  0  0  0  0  0  0  0  0  0  0  0
    3.1318    0.6132   -1.2933 H   0  0  0  0  0  0  0  0  0  0  0  0
   -1.5225   -2.1879   -1.8203 H   0  0  0  0  0  0  0  0  0  0  0  0
   -2.9932   -1.7857    1.1602 H   0  0  0  0  0  0  0  0  0  0  0  0
   -2.5560   -0.1044    1.5793 H   0  0  0  0  0  0  0  0  0  0  0  0
   -4.2431   -0.6476    1.6712 H   0  0  0  0  0  0  0  0  0  0  0  0
   -3.6697    2.1991    0.5700 H   0  0  0  0  0  0  0  0  0  0  0  0
   -5.5145    3.8183    0.2221 H   0  0  0  0  0  0  0  0  0  0  0  0
   -7.5057    3.1674   -1.1109 H   0  0  0  0  0  0  0  0  0  0  0  0
   -7.6602    0.8965   -2.0943 H   0  0  0  0  0  0  0  0  0  0  0  0
   -6.4123   -0.5284   -3.7960 H   0  0  0  0  0  0  0  0  0  0  0  0
   -4.6432   -0.5471   -3.4839 H   0  0  0  0  0  0  0  0  0  0  0  0
   -5.5602   -2.0620   -3.5627 H   0  0  0  0  0  0  0  0  0  0  0  0
    3.1410   -5.2685   -1.9744 H   0  0  0  0  0  0  0  0  0  0  0  0
    4.6812   -6.0158   -1.9839 H   0  0  0  0  0  0  0  0  0  0  0  0
    1.9511   -1.2660    2.4089 H   0  0  0  0  0  0  0  0  0  0  0  0
    2.9236    0.6205    3.6560 H   0  0  0  0  0  0  0  0  0  0  0  0
  1  2  1  0
  2  3  1  0
  3  4  1  0
  4  5  2  0
  5  6  1  0
  6  7  2  0
  7  8  1  0
  8  9  2  0
  9 10  1  0
 10 11  2  0
 10 12  1  0
 12 13  1  0
 13 14  2  3
 14 15  1  0
 14 16  1  0
 16 17  2  0
 17 18  1  0
 18 19  2  0
 19 20  1  0
 20 21  2  0
 21 22  1  0
 22 23  1  0
  9 24  1  0
 24 25  2  0
 25 26  1  0
 26 27  1  0
 27 28  2  0
 28 29  1  0
 29 30  1  0
 30 31  2  0
 31 32  1  0
  7 33  1  0
 33 34  2  0
 34  4  1  0
 26  8  1  0
 31 27  1  0
 21 16  1  0
  1 35  1  0
  1 36  1  0
  1 37  1  0
  2 38  1  0
  2 39  1  0
  5 40  1  0
  6 41  1  0
 12 42  1  0
 15 43  1  0
 15 44  1  0
 15 45  1  0
 17 46  1  0
 18 47  1  0
 19 48  1  0
 20 49  1  0
 23 50  1  0
 23 51  1  0
 23 52  1  0
 32 53  1  0
 32 54  1  0
 33 55  1  0
 34 56  1  0
M  END
$$$$
