
     RDKit          3D

 40 41  0  0  0  0  0  0  0  0999 V2000
   -5.2419    2.7430   -1.7542 C   0  0  0  0  0  0  0  0  0  0  0  0
   -4.5101    3.0179   -0.5657 O   0  0  0  0  0  0  0  0  0  0  0  0
   -3.5994    2.0787   -0.1693 C   0  0  0  0  0  0  0  0  0  0  0  0
   -3.3491    0.8600   -0.7998 C   0  0  0  0  0  0  0  0  0  0  0  0
   -2.3836   -0.0125   -0.2840 C   0  0  0  0  0  0  0  0  0  0  0  0
   -1.6566    0.3285    0.8635 C   0  0  0  0  0  0  0  0  0  0  0  0
   -0.6342   -0.6301    1.3570 C   0  0  0  0  0  0  0  0  0  0  0  0
   -0.5045   -1.7630    0.9247 O   0  0  0  0  0  0  0  0  0  0  0  0
    0.1473   -0.0527    2.3061 O   0  0  0  0  0  0  0  0  0  0  0  0
    1.2106   -0.8887    2.7732 C   0  0  0  0  0  0  0  0  0  0  0  0
    2.3749   -0.9789    1.7835 C   0  0  0  0  0  0  0  0  0  0  0  0
    3.1077   -1.9627    1.7008 O   0  0  0  0  0  0  0  0  0  0  0  0
    2.5444    0.1456    1.0085 N   0  0  0  0  0  0  0  0  0  0  0  0
    3.6296    0.3183    0.0577 C   0  0  0  0  0  0  0  0  0  0  0  0
    3.8071   -0.8145   -0.9680 C   0  0  0  0  0  0  0  0  0  0  0  0
    2.5625   -1.2523   -1.5722 N   0  0  0  0  0  0  0  0  0  0  0  0
    1.9965   -2.4939   -1.4051 C   0  0  0  0  0  0  0  0  0  0  0  0
    2.5464   -3.4218   -0.5719 O   0  0  0  0  0  0  0  0  0  0  0  0
    0.8812   -2.6972   -2.1116 C   0  0  0  0  0  0  0  0  0  0  0  0
    0.4526   -1.2949   -3.0408 S   0  0  0  0  0  0  0  0  0  0  0  0
    1.8700   -0.4184   -2.4379 C   0  0  0  0  0  0  0  0  0  0  0  0
    2.1471    0.7273   -2.7557 O   0  0  0  0  0  0  0  0  0  0  0  0
   -1.9113    1.5486    1.4985 C   0  0  0  0  0  0  0  0  0  0  0  0
   -2.8792    2.4145    0.9807 C   0  0  0  0  0  0  0  0  0  0  0  0
   -5.9067    3.5918   -1.9411 H   0  0  0  0  0  0  0  0  0  0  0  0
   -4.5738    2.6468   -2.6165 H   0  0  0  0  0  0  0  0  0  0  0  0
   -5.8660    1.8512   -1.6351 H   0  0  0  0  0  0  0  0  0  0  0  0
   -3.8840    0.5556   -1.6938 H   0  0  0  0  0  0  0  0  0  0  0  0
   -2.1995   -0.9595   -0.7892 H   0  0  0  0  0  0  0  0  0  0  0  0
    1.5946   -0.4498    3.6997 H   0  0  0  0  0  0  0  0  0  0  0  0
    0.8419   -1.8943    3.0062 H   0  0  0  0  0  0  0  0  0  0  0  0
    1.8978    0.9159    1.1414 H   0  0  0  0  0  0  0  0  0  0  0  0
    4.5566    0.4436    0.6279 H   0  0  0  0  0  0  0  0  0  0  0  0
    3.4331    1.2638   -0.4591 H   0  0  0  0  0  0  0  0  0  0  0  0
    4.4584   -0.4490   -1.7721 H   0  0  0  0  0  0  0  0  0  0  0  0
    4.3323   -1.6626   -0.5178 H   0  0  0  0  0  0  0  0  0  0  0  0
    2.8593   -2.9514    0.2300 H   0  0  0  0  0  0  0  0  0  0  0  0
    0.2974   -3.6062   -2.0991 H   0  0  0  0  0  0  0  0  0  0  0  0
   -1.3740    1.8410    2.3966 H   0  0  0  0  0  0  0  0  0  0  0  0
   -3.0751    3.3625    1.4772 H   0  0  0  0  0  0  0  0  0  0  0  0
  1  2  1  0
  2  3  1  0
  3  4  2  0
  4  5  1  0
  5  6  2  0
  6  7  1  0
  7  8  2  0
  7  9  1  0
  9 10  1  0
 10 11  1  0
 11 12  2  0
 11 13  1  0
 13 14  1  0
 14 15  1  0
 15 16  1  0
 16 17  1  0
 17 18  1  0
 17 19  2  0
 19 20  1  0
 20 21  1  0
 21 22  2  0
  6 23  1  0
 23 24  2  0
 24  3  1  0
 21 16  1  0
  1 25  1  0
  1 26  1  0
  1 27  1  0
  4 28  1  0
  5 29  1  0
 10 30  1  0
 10 31  1  0
 13 32  1  0
 14 33  1  0
 14 34  1  0
 15 35  1  0
 15 36  1  0
 18 37  1  0
 19 38  1  0
 23 39  1  0
 24 40  1  0
M  END
$$$$
