
     RDKit          3D

 53 58  0  0  0  0  0  0  0  0999 V2000
   -0.9932    2.0712    0.1698 O   0  0  0  0  0  0  0  0  0  0  0  0
   -1.4617    1.0623   -0.3663 C   0  0  0  0  0  0  0  0  0  0  0  0
   -0.5912    0.3345   -1.4142 C   0  0  0  0  0  0  0  0  0  0  0  0
    0.8216    0.3113   -0.9852 N   0  0  0  0  0  4  0  0  0  0  0  0
    1.5050   -0.7660   -0.4242 C   0  0  0  0  0  0  0  0  0  0  0  0
    2.7941   -0.3613   -0.0948 C   0  0  0  0  0  0  0  0  0  0  0  0
    3.9050   -1.2432    0.5867 C   0  0  0  0  0  0  0  0  0  0  0  0
    5.1401   -0.6950    0.9349 C   0  0  0  0  0  0  0  0  0  0  0  0
    6.1186   -1.4919    1.5416 C   0  0  0  0  0  0  0  0  0  0  0  0
    5.8710   -2.8407    1.8068 C   0  0  0  0  0  0  0  0  0  0  0  0
    7.1241   -3.7596    2.5551 Cl  0  0  0  0  0  0  0  0  0  0  0  0
    4.6343   -3.3917    1.4640 C   0  0  0  0  0  0  0  0  0  0  0  0
    4.2434   -5.0484    1.7568 Cl  0  0  0  0  0  0  0  0  0  0  0  0
    3.6536   -2.5943    0.8572 C   0  0  0  0  0  0  0  0  0  0  0  0
    2.8261    0.9597   -0.5034 N   0  0  0  0  0  0  0  0  0  0  0  0
    1.6471    1.3540   -0.9809 C   0  0  0  0  0  0  0  0  0  0  0  0
    1.6309    2.7779   -1.3924 C   0  0  0  0  0  0  0  0  0  0  0  0
    3.1337    3.1188   -1.4163 C   0  0  0  0  0  0  0  0  0  0  0  0
    3.8000    2.0433   -0.5159 C   0  0  0  0  0  0  0  0  0  0  0  0
   -2.6667    0.4250   -0.0225 N   0  0  0  0  0  0  0  0  0  0  0  0
   -3.4204   -0.3426   -0.9804 C   0  0  0  0  0  0  0  0  0  0  0  0
   -3.4684    0.0830   -2.3237 C   0  0  0  0  0  0  0  0  0  0  0  0
   -4.1758   -0.6384   -3.2886 C   0  0  0  0  0  0  0  0  0  0  0  0
   -4.8615   -1.7909   -2.9271 C   0  0  0  0  0  0  0  0  0  0  0  0
   -4.8586   -2.2070   -1.5978 C   0  0  0  0  0  0  0  0  0  0  0  0
   -4.1590   -1.4809   -0.6232 C   0  0  0  0  0  0  0  0  0  0  0  0
   -4.2043   -2.0710    1.0451 S   0  0  0  0  0  0  0  0  0  0  0  0
   -3.9700   -0.5174    1.8794 C   0  0  0  0  0  0  0  0  0  0  0  0
   -4.4929   -0.4063    3.1780 C   0  0  0  0  0  0  0  0  0  0  0  0
   -4.2943    0.7504    3.9241 C   0  0  0  0  0  0  0  0  0  0  0  0
   -3.5675    1.7983    3.3773 C   0  0  0  0  0  0  0  0  0  0  0  0
   -3.0385    1.6894    2.0861 C   0  0  0  0  0  0  0  0  0  0  0  0
   -3.2274    0.5347    1.3056 C   0  0  0  0  0  0  0  0  0  0  0  0
   -0.6455    0.8704   -2.3666 H   0  0  0  0  0  0  0  0  0  0  0  0
   -0.8996   -0.7043   -1.5596 H   0  0  0  0  0  0  0  0  0  0  0  0
    0.9726   -1.6959   -0.3140 H   0  0  0  0  0  0  0  0  0  0  0  0
    5.3775    0.3479    0.7645 H   0  0  0  0  0  0  0  0  0  0  0  0
    7.0781   -1.0523    1.8106 H   0  0  0  0  0  0  0  0  0  0  0  0
    2.7041   -3.0575    0.6033 H   0  0  0  0  0  0  0  0  0  0  0  0
    1.0998    3.3317   -0.6168 H   0  0  0  0  0  0  0  0  0  0  0  0
    1.1477    2.8642   -2.3661 H   0  0  0  0  0  0  0  0  0  0  0  0
    3.3464    4.1396   -1.0880 H   0  0  0  0  0  0  0  0  0  0  0  0
    3.5097    3.0074   -2.4403 H   0  0  0  0  0  0  0  0  0  0  0  0
    4.7505    1.7120   -0.9398 H   0  0  0  0  0  0  0  0  0  0  0  0
    3.9325    2.4095    0.5063 H   0  0  0  0  0  0  0  0  0  0  0  0
   -3.0137    1.0196   -2.6376 H   0  0  0  0  0  0  0  0  0  0  0  0
   -4.2154   -0.2878   -4.3183 H   0  0  0  0  0  0  0  0  0  0  0  0
   -5.4218   -2.3531   -3.6717 H   0  0  0  0  0  0  0  0  0  0  0  0
   -5.4205   -3.0991   -1.3243 H   0  0  0  0  0  0  0  0  0  0  0  0
   -5.0572   -1.2259    3.6198 H   0  0  0  0  0  0  0  0  0  0  0  0
   -4.7072    0.8327    4.9269 H   0  0  0  0  0  0  0  0  0  0  0  0
   -3.4170    2.7113    3.9499 H   0  0  0  0  0  0  0  0  0  0  0  0
   -2.5183    2.5624    1.7036 H   0  0  0  0  0  0  0  0  0  0  0  0
  1  2  2  0
  2  3  1  0
  3  4  1  0
  4  5  1  0
  5  6  2  0
  6  7  1  0
  7  8  2  0
  8  9  1  0
  9 10  2  0
 10 11  1  0
 10 12  1  0
 12 13  1  0
 12 14  2  0
  6 15  1  0
 15 16  1  0
 16 17  1  0
 17 18  1  0
 18 19  1  0
  2 20  1  0
 20 21  1  0
 21 22  2  0
 22 23  1  0
 23 24  2  0
 24 25  1  0
 25 26  2  0
 26 27  1  0
 27 28  1  0
 28 29  2  0
 29 30  1  0
 30 31  2  0
 31 32  1  0
 32 33  2  0
 16  4  2  0
 33 20  1  0
 14  7  1  0
 19 15  1  0
 26 21  1  0
 33 28  1  0
  3 34  1  0
  3 35  1  0
  5 36  1  0
  8 37  1  0
  9 38  1  0
 14 39  1  0
 17 40  1  0
 17 41  1  0
 18 42  1  0
 18 43  1  0
 19 44  1  0
 19 45  1  0
 22 46  1  0
 23 47  1  0
 24 48  1  0
 25 49  1  0
 29 50  1  0
 30 51  1  0
 31 52  1  0
 32 53  1  0
M  CHG  1   4   1
M  END
$$$$
