
     RDKit          3D

 47 50  0  0  0  0  0  0  0  0999 V2000
    0.4157   -1.3009   -3.0158 C   0  0  0  0  0  0  0  0  0  0  0  0
    0.2192   -1.5880   -1.5545 C   0  0  0  0  0  0  0  0  0  0  0  0
    1.0420   -2.4154   -0.9696 N   0  0  0  0  0  0  0  0  0  0  0  0
    0.9091   -2.7249    0.3936 N   0  0  0  0  0  0  0  0  0  0  0  0
    1.9237   -3.6172    0.9564 C   0  0  0  0  0  0  0  0  0  0  0  0
    3.1989   -2.8645    1.3461 C   0  0  0  0  0  0  0  0  0  0  0  0
    4.0728   -3.3699    2.0468 O   0  0  0  0  0  0  0  0  0  0  0  0
    3.3346   -1.6246    0.7656 N   0  0  0  0  0  0  0  0  0  0  0  0
    4.5497   -0.8609    0.8792 C   0  0  0  0  0  0  0  0  0  0  0  0
    4.2677    0.5170    0.3750 C   0  0  0  0  0  0  0  0  0  0  0  0
    3.7957    1.6049    1.0840 C   0  0  0  0  0  0  0  0  0  0  0  0
    3.6334    2.7584    0.2640 C   0  0  0  0  0  0  0  0  0  0  0  0
    3.9836    2.5132   -1.0446 C   0  0  0  0  0  0  0  0  0  0  0  0
    4.4975    0.8996   -1.2805 S   0  0  0  0  0  0  0  0  0  0  0  0
   -0.0415   -2.1547    1.2656 C   0  0  0  0  0  0  0  0  0  0  0  0
   -0.0923   -2.3990    2.4683 O   0  0  0  0  0  0  0  0  0  0  0  0
   -0.9521   -1.2446    0.5834 C   0  0  0  0  0  0  0  0  0  0  0  0
   -1.9846   -0.6015    1.1307 N   0  0  0  0  0  0  0  0  0  0  0  0
   -2.4813    0.1856    0.1377 N   0  0  0  0  0  0  0  0  0  0  0  0
   -3.4689    1.1641    0.4723 C   0  0  0  0  0  0  0  0  0  0  0  0
   -4.1404    1.0544    1.7031 C   0  0  0  0  0  0  0  0  0  0  0  0
   -5.1089    1.9906    2.0732 C   0  0  0  0  0  0  0  0  0  0  0  0
   -5.4075    3.0547    1.2277 C   0  0  0  0  0  0  0  0  0  0  0  0
   -4.7298    3.1895    0.0183 C   0  0  0  0  0  0  0  0  0  0  0  0
   -3.7594    2.2535   -0.3576 C   0  0  0  0  0  0  0  0  0  0  0  0
   -1.8873   -0.1299   -1.0914 C   0  0  0  0  0  0  0  0  0  0  0  0
   -2.3830    0.3312   -2.4140 C   0  0  0  0  0  0  0  0  0  0  0  0
   -0.8334   -0.9745   -0.7837 C   0  0  0  0  0  0  0  0  0  0  0  0
   -0.3669   -1.7993   -3.5938 H   0  0  0  0  0  0  0  0  0  0  0  0
    1.3868   -1.6789   -3.3494 H   0  0  0  0  0  0  0  0  0  0  0  0
    0.3816   -0.2238   -3.1986 H   0  0  0  0  0  0  0  0  0  0  0  0
    1.5312   -4.1149    1.8486 H   0  0  0  0  0  0  0  0  0  0  0  0
    2.1788   -4.3740    0.2073 H   0  0  0  0  0  0  0  0  0  0  0  0
    2.7219   -1.4447   -0.0247 H   0  0  0  0  0  0  0  0  0  0  0  0
    5.3315   -1.3641    0.2999 H   0  0  0  0  0  0  0  0  0  0  0  0
    4.8677   -0.8418    1.9275 H   0  0  0  0  0  0  0  0  0  0  0  0
    3.5742    1.5715    2.1449 H   0  0  0  0  0  0  0  0  0  0  0  0
    3.2790    3.7189    0.6178 H   0  0  0  0  0  0  0  0  0  0  0  0
    3.9630    3.2045   -1.8759 H   0  0  0  0  0  0  0  0  0  0  0  0
   -3.9270    0.2329    2.3862 H   0  0  0  0  0  0  0  0  0  0  0  0
   -5.6251    1.8867    3.0244 H   0  0  0  0  0  0  0  0  0  0  0  0
   -6.1581    3.7855    1.5177 H   0  0  0  0  0  0  0  0  0  0  0  0
   -4.9470    4.0356   -0.6295 H   0  0  0  0  0  0  0  0  0  0  0  0
   -3.2242    2.4415   -1.2800 H   0  0  0  0  0  0  0  0  0  0  0  0
   -3.4682    0.4688   -2.4198 H   0  0  0  0  0  0  0  0  0  0  0  0
   -1.8923    1.2632   -2.7094 H   0  0  0  0  0  0  0  0  0  0  0  0
   -2.1803   -0.4138   -3.1884 H   0  0  0  0  0  0  0  0  0  0  0  0
  1  2  1  0
  2  3  2  0
  3  4  1  0
  4  5  1  0
  5  6  1  0
  6  7  2  0
  6  8  1  0
  8  9  1  0
  9 10  1  0
 10 11  2  0
 11 12  1  0
 12 13  2  0
 13 14  1  0
  4 15  1  0
 15 16  2  0
 15 17  1  0
 17 18  2  0
 18 19  1  0
 19 20  1  0
 20 21  2  0
 21 22  1  0
 22 23  2  0
 23 24  1  0
 24 25  2  0
 19 26  1  0
 26 27  1  0
 26 28  2  0
 28  2  1  0
 14 10  1  0
 28 17  1  0
 25 20  1  0
  1 29  1  0
  1 30  1  0
  1 31  1  0
  5 32  1  0
  5 33  1  0
  8 34  1  0
  9 35  1  0
  9 36  1  0
 11 37  1  0
 12 38  1  0
 13 39  1  0
 21 40  1  0
 22 41  1  0
 23 42  1  0
 24 43  1  0
 25 44  1  0
 27 45  1  0
 27 46  1  0
 27 47  1  0
M  END
$$$$
