
     RDKit          3D

 37 39  0  0  0  0  0  0  0  0999 V2000
   -0.0448    0.5439    4.7953 C   0  0  0  0  0  0  0  0  0  0  0  0
    1.5285    0.3792    3.9114 S   0  0  0  0  0  0  0  0  0  0  0  0
    0.9520    0.3299    2.2197 C   0  0  0  0  0  0  0  0  0  0  0  0
    1.8757    0.1411    1.2145 C   0  0  0  0  0  0  0  0  0  0  0  0
    1.4060    0.1112   -0.0849 C   0  0  0  0  0  0  0  0  0  0  0  0
    2.3097   -0.0712   -1.1497 N   0  0  0  0  0  0  0  0  0  0  0  0
    1.7378    0.1279   -2.5033 C   0  0  0  0  0  0  0  0  0  0  0  0
    1.4022   -1.2228   -3.1508 C   0  0  0  0  0  0  0  0  0  0  0  0
    2.5570   -2.0650   -3.3304 O   0  0  0  0  0  0  0  0  0  0  0  0
    3.6113   -1.7858   -2.3961 C   0  0  0  0  0  0  0  0  0  0  0  0
    3.0962   -1.3242   -1.0234 C   0  0  0  0  0  0  0  0  0  0  0  0
    0.0996    0.2798   -0.3401 N   0  0  0  0  0  0  0  0  0  0  0  0
   -0.7355    0.4403    0.6998 C   0  0  0  0  0  0  0  0  0  0  0  0
   -2.1567    0.6654    0.4137 C   0  0  0  0  0  0  0  0  0  0  0  0
   -2.8186    1.7474    1.0356 C   0  0  0  0  0  0  0  0  0  0  0  0
   -4.1664    2.0233    0.7908 C   0  0  0  0  0  0  0  0  0  0  0  0
   -4.8900    1.2185   -0.0809 C   0  0  0  0  0  0  0  0  0  0  0  0
   -4.2669    0.1362   -0.6992 C   0  0  0  0  0  0  0  0  0  0  0  0
   -2.9140   -0.1427   -0.4540 C   0  0  0  0  0  0  0  0  0  0  0  0
   -2.2659   -1.5515   -1.2274 Cl  0  0  0  0  0  0  0  0  0  0  0  0
   -0.3579    0.4859    1.9861 N   0  0  0  0  0  0  0  0  0  0  0  0
   -0.6958   -0.3109    4.5919 H   0  0  0  0  0  0  0  0  0  0  0  0
    0.1544    0.5745    5.8700 H   0  0  0  0  0  0  0  0  0  0  0  0
   -0.5528    1.4710    4.5151 H   0  0  0  0  0  0  0  0  0  0  0  0
    2.9304    0.0436    1.4340 H   0  0  0  0  0  0  0  0  0  0  0  0
    0.8700    0.7969   -2.5157 H   0  0  0  0  0  0  0  0  0  0  0  0
    2.5065    0.6282   -3.1059 H   0  0  0  0  0  0  0  0  0  0  0  0
    0.9571   -1.0689   -4.1387 H   0  0  0  0  0  0  0  0  0  0  0  0
    0.6788   -1.7787   -2.5448 H   0  0  0  0  0  0  0  0  0  0  0  0
    4.2025   -2.7006   -2.2875 H   0  0  0  0  0  0  0  0  0  0  0  0
    4.2651   -1.0262   -2.8405 H   0  0  0  0  0  0  0  0  0  0  0  0
    2.4715   -2.1254   -0.6055 H   0  0  0  0  0  0  0  0  0  0  0  0
    3.9493   -1.1600   -0.3560 H   0  0  0  0  0  0  0  0  0  0  0  0
   -2.2680    2.3927    1.7201 H   0  0  0  0  0  0  0  0  0  0  0  0
   -4.6459    2.8670    1.2815 H   0  0  0  0  0  0  0  0  0  0  0  0
   -5.9391    1.4275   -0.2750 H   0  0  0  0  0  0  0  0  0  0  0  0
   -4.8433   -0.4972   -1.3696 H   0  0  0  0  0  0  0  0  0  0  0  0
  1  2  1  0
  2  3  1  0
  3  4  2  0
  4  5  1  0
  5  6  1  0
  6  7  1  0
  7  8  1  0
  8  9  1  0
  9 10  1  0
 10 11  1  0
  5 12  2  0
 12 13  1  0
 13 14  1  0
 14 15  2  0
 15 16  1  0
 16 17  2  0
 17 18  1  0
 18 19  2  0
 19 20  1  0
 13 21  2  0
 21  3  1  0
 11  6  1  0
 19 14  1  0
  1 22  1  0
  1 23  1  0
  1 24  1  0
  4 25  1  0
  7 26  1  0
  7 27  1  0
  8 28  1  0
  8 29  1  0
 10 30  1  0
 10 31  1  0
 11 32  1  0
 11 33  1  0
 15 34  1  0
 16 35  1  0
 17 36  1  0
 18 37  1  0
M  END
$$$$
