
     RDKit          3D

 57 60  0  0  0  0  0  0  0  0999 V2000
   -8.1364    0.6226    2.0673 C   0  0  0  0  0  0  0  0  0  0  0  0
   -7.0843    1.2289    1.3262 O   0  0  0  0  0  0  0  0  0  0  0  0
   -5.8067    0.8627    1.6522 C   0  0  0  0  0  0  0  0  0  0  0  0
   -5.4451   -0.0459    2.6457 C   0  0  0  0  0  0  0  0  0  0  0  0
   -4.0960   -0.3332    2.8841 C   0  0  0  0  0  0  0  0  0  0  0  0
   -3.1008    0.2850    2.1287 C   0  0  0  0  0  0  0  0  0  0  0  0
   -1.7194    0.0506    2.3013 N   0  0  0  0  0  0  0  0  0  0  0  0
   -1.0949   -0.8371    3.1540 C   0  0  0  0  0  0  0  0  0  0  0  0
   -1.6540   -1.5706    3.9675 O   0  0  0  0  0  0  0  0  0  0  0  0
    0.4220   -0.8066    3.0777 C   0  0  0  0  0  0  0  0  0  0  0  0
    0.9320   -0.8786    1.7145 N   0  0  0  0  0  0  0  0  0  0  0  0
    1.5742    0.1478    1.0746 C   0  0  0  0  0  0  0  0  0  0  0  0
    1.8435   -0.2649   -0.2144 C   0  0  0  0  0  0  0  0  0  0  0  0
    2.6502    0.6705   -1.4303 S   0  0  0  0  0  6  0  0  0  0  0  0
    2.7945    1.9801   -0.8224 O   0  0  0  0  0  0  0  0  0  0  0  0
    1.8612    0.4502   -2.6260 O   0  0  0  0  0  0  0  0  0  0  0  0
    4.2416   -0.1388   -1.5555 C   0  0  0  0  0  0  0  0  0  0  0  0
    5.0847    0.5837   -2.5726 C   0  0  0  0  0  0  0  0  0  0  0  0
    5.0152    0.2383   -3.9303 C   0  0  0  0  0  0  0  0  0  0  0  0
    5.7924    0.9134   -4.8725 C   0  0  0  0  0  0  0  0  0  0  0  0
    6.6444    1.9395   -4.4691 C   0  0  0  0  0  0  0  0  0  0  0  0
    6.7176    2.2949   -3.1238 C   0  0  0  0  0  0  0  0  0  0  0  0
    5.9408    1.6226   -2.1792 C   0  0  0  0  0  0  0  0  0  0  0  0
    1.3719   -1.6012   -0.3592 C   0  0  0  0  0  0  0  0  0  0  0  0
    1.3495   -2.5410   -1.4131 C   0  0  0  0  0  0  0  0  0  0  0  0
    0.8032   -3.8110   -1.2010 C   0  0  0  0  0  0  0  0  0  0  0  0
    0.2764   -4.1561    0.0384 C   0  0  0  0  0  0  0  0  0  0  0  0
    0.2739   -3.2443    1.0967 C   0  0  0  0  0  0  0  0  0  0  0  0
    0.8253   -1.9714    0.8765 C   0  0  0  0  0  0  0  0  0  0  0  0
   -3.4625    1.2019    1.1203 C   0  0  0  0  0  0  0  0  0  0  0  0
   -2.4095    1.7603    0.4313 O   0  0  0  0  0  0  0  0  0  0  0  0
   -2.7306    2.5640   -0.6984 C   0  0  0  0  0  0  0  0  0  0  0  0
   -4.8113    1.4855    0.8925 C   0  0  0  0  0  0  0  0  0  0  0  0
   -8.0685    0.8773    3.1303 H   0  0  0  0  0  0  0  0  0  0  0  0
   -8.1483   -0.4624    1.9192 H   0  0  0  0  0  0  0  0  0  0  0  0
   -9.0832    1.0207    1.6896 H   0  0  0  0  0  0  0  0  0  0  0  0
   -6.1844   -0.5521    3.2578 H   0  0  0  0  0  0  0  0  0  0  0  0
   -3.8572   -1.0444    3.6682 H   0  0  0  0  0  0  0  0  0  0  0  0
   -1.1497    0.5793    1.6434 H   0  0  0  0  0  0  0  0  0  0  0  0
    0.7852    0.1159    3.5425 H   0  0  0  0  0  0  0  0  0  0  0  0
    0.8408   -1.6594    3.6226 H   0  0  0  0  0  0  0  0  0  0  0  0
    1.7756    1.0930    1.5653 H   0  0  0  0  0  0  0  0  0  0  0  0
    4.0868   -1.1801   -1.8523 H   0  0  0  0  0  0  0  0  0  0  0  0
    4.7152   -0.1203   -0.5688 H   0  0  0  0  0  0  0  0  0  0  0  0
    4.3470   -0.5519   -4.2684 H   0  0  0  0  0  0  0  0  0  0  0  0
    5.7276    0.6435   -5.9231 H   0  0  0  0  0  0  0  0  0  0  0  0
    7.2459    2.4677   -5.2044 H   0  0  0  0  0  0  0  0  0  0  0  0
    7.3757    3.1020   -2.8102 H   0  0  0  0  0  0  0  0  0  0  0  0
    6.0032    1.9253   -1.1353 H   0  0  0  0  0  0  0  0  0  0  0  0
    1.7345   -2.2854   -2.3973 H   0  0  0  0  0  0  0  0  0  0  0  0
    0.7809   -4.5299   -2.0168 H   0  0  0  0  0  0  0  0  0  0  0  0
   -0.1521   -5.1454    0.1848 H   0  0  0  0  0  0  0  0  0  0  0  0
   -0.1571   -3.5235    2.0543 H   0  0  0  0  0  0  0  0  0  0  0  0
   -1.7908    2.8602   -1.1746 H   0  0  0  0  0  0  0  0  0  0  0  0
   -3.2517    3.4771   -0.3933 H   0  0  0  0  0  0  0  0  0  0  0  0
   -3.3139    1.9999   -1.4343 H   0  0  0  0  0  0  0  0  0  0  0  0
   -5.1243    2.1914    0.1304 H   0  0  0  0  0  0  0  0  0  0  0  0
  1  2  1  0
  2  3  1  0
  3  4  2  0
  4  5  1  0
  5  6  2  0
  6  7  1  0
  7  8  1  0
  8  9  2  0
  8 10  1  0
 10 11  1  0
 11 12  1  0
 12 13  2  0
 13 14  1  0
 14 15  2  0
 14 16  2  0
 14 17  1  0
 17 18  1  0
 18 19  2  0
 19 20  1  0
 20 21  2  0
 21 22  1  0
 22 23  2  0
 13 24  1  0
 24 25  2  0
 25 26  1  0
 26 27  2  0
 27 28  1  0
 28 29  2  0
  6 30  1  0
 30 31  1  0
 31 32  1  0
 30 33  2  0
 33  3  1  0
 29 11  1  0
 23 18  1  0
 29 24  1  0
  1 34  1  0
  1 35  1  0
  1 36  1  0
  4 37  1  0
  5 38  1  0
  7 39  1  0
 10 40  1  0
 10 41  1  0
 12 42  1  0
 17 43  1  0
 17 44  1  0
 19 45  1  0
 20 46  1  0
 21 47  1  0
 22 48  1  0
 23 49  1  0
 25 50  1  0
 26 51  1  0
 27 52  1  0
 28 53  1  0
 32 54  1  0
 32 55  1  0
 32 56  1  0
 33 57  1  0
M  END
$$$$
