
     RDKit          3D

 37 39  0  0  0  0  0  0  0  0999 V2000
   -3.4327   -1.6596    0.9895 C   0  0  0  0  0  0  0  0  0  0  0  0
   -4.3117   -0.4639    0.7505 C   0  0  0  0  0  0  0  0  0  0  0  0
   -5.7065   -0.5989    0.8035 C   0  0  0  0  0  0  0  0  0  0  0  0
   -6.5339    0.5060    0.5937 C   0  0  0  0  0  0  0  0  0  0  0  0
   -5.9759    1.7548    0.3284 C   0  0  0  0  0  0  0  0  0  0  0  0
   -4.5893    1.9026    0.2687 C   0  0  0  0  0  0  0  0  0  0  0  0
   -3.7566    0.7958    0.4627 C   0  0  0  0  0  0  0  0  0  0  0  0
   -2.3882    0.8717    0.4398 O   0  0  0  0  0  0  0  0  0  0  0  0
   -1.8514    1.7627   -0.5399 C   0  0  0  0  0  0  0  0  0  0  0  0
   -0.3612    1.4816   -0.7598 C   0  0  0  0  0  0  0  0  0  0  0  0
    0.2727    2.1075   -1.6053 O   0  0  0  0  0  0  0  0  0  0  0  0
    0.1221    0.5038    0.0786 N   0  0  0  0  0  0  0  0  0  0  0  0
    1.3952    0.0054    0.1388 C   0  0  0  0  0  0  0  0  0  0  0  0
    1.7492   -0.9063    1.0159 N   0  0  0  0  0  0  0  0  0  0  0  0
    3.0788   -1.2530    0.8932 N   0  0  0  0  0  0  0  0  0  0  0  0
    3.6864   -0.6037   -0.0862 C   0  0  0  0  0  0  0  0  0  0  0  0
    5.1070   -0.7684   -0.4359 C   0  0  0  0  0  0  0  0  0  0  0  0
    5.9441   -1.4698    0.4436 C   0  0  0  0  0  0  0  0  0  0  0  0
    7.2816   -1.6288    0.1204 C   0  0  0  0  0  0  0  0  0  0  0  0
    7.8385   -1.1495   -1.0108 N   0  0  0  0  0  0  0  0  0  0  0  0
    7.0228   -0.4824   -1.8534 C   0  0  0  0  0  0  0  0  0  0  0  0
    5.6733   -0.2686   -1.6149 C   0  0  0  0  0  0  0  0  0  0  0  0
    2.6422    0.4928   -0.9106 S   0  0  0  0  0  0  0  0  0  0  0  0
   -4.0236   -2.5608    1.1933 H   0  0  0  0  0  0  0  0  0  0  0  0
   -2.7810   -1.4847    1.8536 H   0  0  0  0  0  0  0  0  0  0  0  0
   -2.8194   -1.8578    0.1034 H   0  0  0  0  0  0  0  0  0  0  0  0
   -6.1585   -1.5669    1.0152 H   0  0  0  0  0  0  0  0  0  0  0  0
   -7.6141    0.3915    0.6413 H   0  0  0  0  0  0  0  0  0  0  0  0
   -6.6219    2.6148    0.1720 H   0  0  0  0  0  0  0  0  0  0  0  0
   -4.1855    2.8940    0.0884 H   0  0  0  0  0  0  0  0  0  0  0  0
   -1.9373    2.7977   -0.1928 H   0  0  0  0  0  0  0  0  0  0  0  0
   -2.3527    1.6281   -1.5063 H   0  0  0  0  0  0  0  0  0  0  0  0
   -0.5258    0.1015    0.7491 H   0  0  0  0  0  0  0  0  0  0  0  0
    5.5645   -1.8899    1.3712 H   0  0  0  0  0  0  0  0  0  0  0  0
    7.9586   -2.1612    0.7847 H   0  0  0  0  0  0  0  0  0  0  0  0
    7.4952   -0.1126   -2.7608 H   0  0  0  0  0  0  0  0  0  0  0  0
    5.0950    0.2748   -2.3556 H   0  0  0  0  0  0  0  0  0  0  0  0
  1  2  1  0
  2  3  2  0
  3  4  1  0
  4  5  2  0
  5  6  1  0
  6  7  2  0
  7  8  1  0
  8  9  1  0
  9 10  1  0
 10 11  2  0
 10 12  1  0
 12 13  1  0
 13 14  2  0
 14 15  1  0
 15 16  2  0
 16 17  1  0
 17 18  2  0
 18 19  1  0
 19 20  2  0
 20 21  1  0
 21 22  2  0
 16 23  1  0
  7  2  1  0
 23 13  1  0
 22 17  1  0
  1 24  1  0
  1 25  1  0
  1 26  1  0
  3 27  1  0
  4 28  1  0
  5 29  1  0
  6 30  1  0
  9 31  1  0
  9 32  1  0
 12 33  1  0
 18 34  1  0
 19 35  1  0
 21 36  1  0
 22 37  1  0
M  END
$$$$
