
     RDKit          3D

 33 35  0  0  0  0  0  0  0  0999 V2000
   -1.9057   -1.1814    0.4714 O   0  0  0  0  0  0  0  0  0  0  0  0
   -2.4309   -0.0941    0.2475 C   0  0  0  0  0  0  0  0  0  0  0  0
   -1.7080    1.0750    0.0445 N   0  0  0  0  0  0  0  0  0  0  0  0
   -0.3313    1.2508   -0.0403 C   0  0  0  0  0  0  0  0  0  0  0  0
    0.1682    2.8269   -0.2665 S   0  0  0  0  0  0  0  0  0  0  0  0
    0.4003    0.0931    0.0777 N   0  0  0  0  0  0  0  0  0  0  0  0
    1.7806   -0.2064    0.0195 C   0  0  0  0  0  0  0  0  0  0  0  0
    2.1177   -1.5680    0.2702 C   0  0  0  0  0  0  0  0  0  0  0  0
    3.4408   -2.0302    0.2476 C   0  0  0  0  0  0  0  0  0  0  0  0
    4.4057   -1.0997   -0.0334 C   0  0  0  0  0  0  0  0  0  0  0  0
    5.7845   -1.2435   -0.1290 N   0  0  0  0  0  0  0  0  0  0  0  0
    6.3460    0.0029   -0.4426 C   0  0  0  0  0  0  0  0  0  0  0  0
    7.5280    0.2479   -0.6024 O   0  0  0  0  0  0  0  0  0  0  0  0
    5.2808    0.9099   -0.5365 N   0  0  0  0  0  0  0  0  0  0  0  0
    4.0917    0.2320   -0.2844 C   0  0  0  0  0  0  0  0  0  0  0  0
    2.7979    0.7086   -0.2676 C   0  0  0  0  0  0  0  0  0  0  0  0
   -3.9071    0.0211    0.2235 C   0  0  0  0  0  0  0  0  0  0  0  0
   -4.6548   -0.9172    0.9286 C   0  0  0  0  0  0  0  0  0  0  0  0
   -6.0099   -0.9152    0.9849 N   0  0  0  0  0  0  0  0  0  0  0  0
   -6.6466    0.0571    0.2913 C   0  0  0  0  0  0  0  0  0  0  0  0
   -5.9851    1.0213   -0.4545 C   0  0  0  0  0  0  0  0  0  0  0  0
   -6.9515    2.3304   -1.4072 Br  0  0  0  0  0  0  0  0  0  0  0  0
   -4.5923    1.0053   -0.4947 C   0  0  0  0  0  0  0  0  0  0  0  0
   -2.2074    1.9513   -0.0235 H   0  0  0  0  0  0  0  0  0  0  0  0
   -0.1877   -0.7201    0.2723 H   0  0  0  0  0  0  0  0  0  0  0  0
    1.3312   -2.2892    0.4916 H   0  0  0  0  0  0  0  0  0  0  0  0
    3.6784   -3.0684    0.4425 H   0  0  0  0  0  0  0  0  0  0  0  0
    6.3237   -2.0838   -0.0021 H   0  0  0  0  0  0  0  0  0  0  0  0
    5.3919    1.8873   -0.7512 H   0  0  0  0  0  0  0  0  0  0  0  0
    2.6276    1.7508   -0.4820 H   0  0  0  0  0  0  0  0  0  0  0  0
   -4.1778   -1.7180    1.4903 H   0  0  0  0  0  0  0  0  0  0  0  0
   -7.7311    0.0285    0.3540 H   0  0  0  0  0  0  0  0  0  0  0  0
   -4.0680    1.7349   -1.1035 H   0  0  0  0  0  0  0  0  0  0  0  0
  1  2  2  0
  2  3  1  0
  3  4  1  0
  4  5  2  0
  4  6  1  0
  6  7  1  0
  7  8  2  0
  8  9  1  0
  9 10  2  0
 10 11  1  0
 11 12  1  0
 12 13  2  0
 12 14  1  0
 14 15  1  0
 15 16  2  0
  2 17  1  0
 17 18  2  0
 18 19  1  0
 19 20  2  0
 20 21  1  0
 21 22  1  0
 21 23  2  0
 16  7  1  0
 23 17  1  0
 15 10  1  0
  3 24  1  0
  6 25  1  0
  8 26  1  0
  9 27  1  0
 11 28  1  0
 14 29  1  0
 16 30  1  0
 18 31  1  0
 20 32  1  0
 23 33  1  0
M  END
$$$$
