
     RDKit          3D

 57 62  0  0  0  0  0  0  0  0999 V2000
    7.1778    3.5325   -1.1838 C   0  0  0  0  0  0  0  0  0  0  0  0
    7.1175    2.2824   -0.5071 O   0  0  0  0  0  0  0  0  0  0  0  0
    5.9099    1.6465   -0.4769 C   0  0  0  0  0  0  0  0  0  0  0  0
    4.7297    2.0909   -1.0686 C   0  0  0  0  0  0  0  0  0  0  0  0
    3.5563    1.3320   -0.9597 C   0  0  0  0  0  0  0  0  0  0  0  0
    3.5551    0.1230   -0.2530 C   0  0  0  0  0  0  0  0  0  0  0  0
    2.2345   -0.7200   -0.1394 C   0  0  0  0  0  0  0  0  0  0  0  0
    1.0187   -0.4356   -0.7497 C   0  0  0  0  0  0  0  0  0  0  0  0
    0.1059   -1.4407   -0.4313 N   0  0  0  0  0  4  0  0  0  0  0  0
   -1.3176   -1.4928   -0.8131 C   0  0  0  0  0  0  0  0  0  0  0  0
   -2.1989   -0.9662    0.3418 C   0  0  0  0  0  0  0  0  0  0  0  0
   -1.8820   -1.2717    1.4953 O   0  0  0  0  0  0  0  0  0  0  0  0
   -3.2155   -0.0685   -0.0298 N   0  0  0  0  0  0  0  0  0  0  0  0
   -3.9139   -0.1937   -1.2836 C   0  0  0  0  0  0  0  0  0  0  0  0
   -4.1826   -1.4781   -1.7996 C   0  0  0  0  0  0  0  0  0  0  0  0
   -4.8453   -1.6474   -3.0179 C   0  0  0  0  0  0  0  0  0  0  0  0
   -5.2659   -0.5366   -3.7374 C   0  0  0  0  0  0  0  0  0  0  0  0
   -5.0446    0.7401   -3.2265 C   0  0  0  0  0  0  0  0  0  0  0  0
   -4.3899    0.9156   -1.9987 C   0  0  0  0  0  0  0  0  0  0  0  0
   -4.1504    2.5695   -1.4149 S   0  0  0  0  0  0  0  0  0  0  0  0
   -4.1064    2.2298    0.3308 C   0  0  0  0  0  0  0  0  0  0  0  0
   -4.4901    3.2720    1.1906 C   0  0  0  0  0  0  0  0  0  0  0  0
   -4.4171    3.1146    2.5706 C   0  0  0  0  0  0  0  0  0  0  0  0
   -3.9552    1.9168    3.0962 C   0  0  0  0  0  0  0  0  0  0  0  0
   -3.5651    0.8778    2.2432 C   0  0  0  0  0  0  0  0  0  0  0  0
   -3.6334    1.0048    0.8440 C   0  0  0  0  0  0  0  0  0  0  0  0
    0.7214   -2.2960    0.3792 C   0  0  0  0  0  0  0  0  0  0  0  0
    1.9744   -1.8858    0.5583 N   0  0  0  0  0  0  0  0  0  0  0  0
    2.7055   -2.7579    1.4668 C   0  0  0  0  0  0  0  0  0  0  0  0
    1.5967   -3.6541    2.0834 C   0  0  0  0  0  0  0  0  0  0  0  0
    0.4086   -3.5477    1.1076 C   0  0  0  0  0  0  0  0  0  0  0  0
    4.7373   -0.3233    0.3344 C   0  0  0  0  0  0  0  0  0  0  0  0
    5.9053    0.4376    0.2209 C   0  0  0  0  0  0  0  0  0  0  0  0
    6.9464    3.4156   -2.2477 H   0  0  0  0  0  0  0  0  0  0  0  0
    6.5162    4.2672   -0.7136 H   0  0  0  0  0  0  0  0  0  0  0  0
    8.2028    3.9070   -1.1043 H   0  0  0  0  0  0  0  0  0  0  0  0
    4.6885    3.0249   -1.6212 H   0  0  0  0  0  0  0  0  0  0  0  0
    2.6606    1.7227   -1.4339 H   0  0  0  0  0  0  0  0  0  0  0  0
    0.6840    0.3646   -1.3878 H   0  0  0  0  0  0  0  0  0  0  0  0
   -1.5749   -2.5359   -1.0215 H   0  0  0  0  0  0  0  0  0  0  0  0
   -1.4283   -0.8974   -1.7238 H   0  0  0  0  0  0  0  0  0  0  0  0
   -3.9434   -2.3765   -1.2352 H   0  0  0  0  0  0  0  0  0  0  0  0
   -5.0593   -2.6461   -3.3933 H   0  0  0  0  0  0  0  0  0  0  0  0
   -5.7901   -0.6609   -4.6829 H   0  0  0  0  0  0  0  0  0  0  0  0
   -5.4006    1.6014   -3.7901 H   0  0  0  0  0  0  0  0  0  0  0  0
   -4.8446    4.2193    0.7884 H   0  0  0  0  0  0  0  0  0  0  0  0
   -4.7211    3.9233    3.2308 H   0  0  0  0  0  0  0  0  0  0  0  0
   -3.9045    1.7807    4.1746 H   0  0  0  0  0  0  0  0  0  0  0  0
   -3.2531   -0.0456    2.7221 H   0  0  0  0  0  0  0  0  0  0  0  0
    3.2173   -2.1800    2.2396 H   0  0  0  0  0  0  0  0  0  0  0  0
    3.4167   -3.3532    0.8869 H   0  0  0  0  0  0  0  0  0  0  0  0
    1.9247   -4.6840    2.2466 H   0  0  0  0  0  0  0  0  0  0  0  0
    1.3017   -3.2362    3.0533 H   0  0  0  0  0  0  0  0  0  0  0  0
    0.4079   -4.3463    0.3623 H   0  0  0  0  0  0  0  0  0  0  0  0
   -0.5550   -3.4595    1.6073 H   0  0  0  0  0  0  0  0  0  0  0  0
    4.7996   -1.2588    0.8743 H   0  0  0  0  0  0  0  0  0  0  0  0
    6.8278    0.0841    0.6784 H   0  0  0  0  0  0  0  0  0  0  0  0
  1  2  1  0
  2  3  1  0
  3  4  2  0
  4  5  1  0
  5  6  2  0
  6  7  1  0
  7  8  2  0
  8  9  1  0
  9 10  1  0
 10 11  1  0
 11 12  2  0
 11 13  1  0
 13 14  1  0
 14 15  2  0
 15 16  1  0
 16 17  2  0
 17 18  1  0
 18 19  2  0
 19 20  1  0
 20 21  1  0
 21 22  2  0
 22 23  1  0
 23 24  2  0
 24 25  1  0
 25 26  2  0
  9 27  2  0
 27 28  1  0
 28 29  1  0
 29 30  1  0
 30 31  1  0
  6 32  1  0
 32 33  2  0
 33  3  1  0
 28  7  1  0
 26 13  1  0
 31 27  1  0
 19 14  1  0
 26 21  1  0
  1 34  1  0
  1 35  1  0
  1 36  1  0
  4 37  1  0
  5 38  1  0
  8 39  1  0
 10 40  1  0
 10 41  1  0
 15 42  1  0
 16 43  1  0
 17 44  1  0
 18 45  1  0
 22 46  1  0
 23 47  1  0
 24 48  1  0
 25 49  1  0
 29 50  1  0
 29 51  1  0
 30 52  1  0
 30 53  1  0
 31 54  1  0
 31 55  1  0
 32 56  1  0
 33 57  1  0
M  CHG  1   9   1
M  END
$$$$
