
     RDKit          3D

 34 35  0  0  0  0  0  0  0  0999 V2000
    2.4640    0.4557   -1.7532 C   0  0  0  0  0  0  0  0  0  0  0  0
    2.2624    0.6562   -0.2612 C   0  0  0  0  0  0  0  0  0  0  0  0
    1.0971    0.7369    0.3213 N   0  0  0  0  0  0  0  0  0  0  0  0
   -0.0435    0.4910   -0.4007 N   0  0  0  0  0  0  0  0  0  0  0  0
   -0.2960   -0.7896   -0.8958 C   0  0  0  0  0  0  0  0  0  0  0  0
    0.5373   -1.6875   -0.9994 O   0  0  0  0  0  0  0  0  0  0  0  0
   -1.7210   -0.9823   -1.3599 C   0  0  0  0  0  0  0  0  0  0  0  0
   -2.7303   -0.8672   -0.2220 C   0  0  0  0  0  0  0  0  0  0  0  0
   -2.4566   -1.8372    0.9247 C   0  0  0  0  0  0  0  0  0  0  0  0
   -4.0418   -1.1645   -0.7426 O   0  0  0  0  0  0  0  0  0  0  0  0
   -4.7421    0.0792   -0.7369 C   0  0  0  0  0  0  0  0  0  0  0  0
   -4.1034    0.8378    0.3927 C   0  0  0  0  0  0  0  0  0  0  0  0
   -2.7230    0.4871    0.2764 O   0  0  0  0  0  0  0  0  0  0  0  0
    3.4732    0.7879    0.5516 C   0  0  0  0  0  0  0  0  0  0  0  0
    4.7909    0.5576    0.1912 C   0  0  0  0  0  0  0  0  0  0  0  0
    5.7075    0.7953    1.2575 C   0  0  0  0  0  0  0  0  0  0  0  0
    5.0660    1.1987    2.4048 C   0  0  0  0  0  0  0  0  0  0  0  0
    3.3738    1.2865    2.1945 S   0  0  0  0  0  0  0  0  0  0  0  0
    1.5589    0.6695   -2.3255 H   0  0  0  0  0  0  0  0  0  0  0  0
    2.7801   -0.5737   -1.9446 H   0  0  0  0  0  0  0  0  0  0  0  0
    3.2399    1.1353   -2.1198 H   0  0  0  0  0  0  0  0  0  0  0  0
   -0.8669    0.9381    0.0134 H   0  0  0  0  0  0  0  0  0  0  0  0
   -1.9272   -0.2341   -2.1358 H   0  0  0  0  0  0  0  0  0  0  0  0
   -1.8040   -1.9617   -1.8467 H   0  0  0  0  0  0  0  0  0  0  0  0
   -2.4301   -2.8724    0.5688 H   0  0  0  0  0  0  0  0  0  0  0  0
   -1.5179   -1.6070    1.4384 H   0  0  0  0  0  0  0  0  0  0  0  0
   -3.2524   -1.7776    1.6762 H   0  0  0  0  0  0  0  0  0  0  0  0
   -4.5664    0.5699   -1.7003 H   0  0  0  0  0  0  0  0  0  0  0  0
   -5.8146   -0.0804   -0.6024 H   0  0  0  0  0  0  0  0  0  0  0  0
   -4.4642    0.4946    1.3682 H   0  0  0  0  0  0  0  0  0  0  0  0
   -4.2344    1.9199    0.3180 H   0  0  0  0  0  0  0  0  0  0  0  0
    5.0961    0.2229   -0.7928 H   0  0  0  0  0  0  0  0  0  0  0  0
    6.7812    0.6717    1.1861 H   0  0  0  0  0  0  0  0  0  0  0  0
    5.5075    1.4434    3.3611 H   0  0  0  0  0  0  0  0  0  0  0  0
  1  2  1  0
  2  3  2  3
  3  4  1  0
  4  5  1  0
  5  6  2  0
  5  7  1  0
  7  8  1  0
  8  9  1  0
  8 10  1  0
 10 11  1  0
 11 12  1  0
 12 13  1  0
  2 14  1  0
 14 15  2  0
 15 16  1  0
 16 17  2  0
 17 18  1  0
 13  8  1  0
 18 14  1  0
  1 19  1  0
  1 20  1  0
  1 21  1  0
  4 22  1  0
  7 23  1  0
  7 24  1  0
  9 25  1  0
  9 26  1  0
  9 27  1  0
 11 28  1  0
 11 29  1  0
 12 30  1  0
 12 31  1  0
 15 32  1  0
 16 33  1  0
 17 34  1  0
M  END
$$$$
