
     RDKit          3D

 52 54  0  0  0  0  0  0  0  0999 V2000
   -5.2996   -0.9473    1.2333 C   0  0  0  0  0  0  0  0  0  0  0  0
   -4.1619   -1.0741    0.3317 N   0  0  0  0  0  0  0  0  0  0  0  0
   -4.3695   -1.8811   -0.8723 C   0  0  0  0  0  0  0  0  0  0  0  0
   -5.3549   -1.2743   -1.8457 C   0  0  0  0  0  0  0  0  0  0  0  0
   -6.3821   -2.0644   -2.3849 C   0  0  0  0  0  0  0  0  0  0  0  0
   -7.2865   -1.5260   -3.3023 C   0  0  0  0  0  0  0  0  0  0  0  0
   -7.1720   -0.1951   -3.6973 C   0  0  0  0  0  0  0  0  0  0  0  0
   -6.1512    0.5976   -3.1789 C   0  0  0  0  0  0  0  0  0  0  0  0
   -5.2448    0.0612   -2.2624 C   0  0  0  0  0  0  0  0  0  0  0  0
   -3.0177   -0.3299    0.6006 C   0  0  0  0  0  0  0  0  0  0  0  0
   -2.9508    0.4485    1.5561 O   0  0  0  0  0  0  0  0  0  0  0  0
   -1.8176   -0.4953   -0.3444 C   0  0  0  0  0  0  0  0  0  0  0  0
   -0.6807    0.2508    0.1005 O   0  0  0  0  0  0  0  0  0  0  0  0
   -0.0201   -0.3193    1.1484 C   0  0  0  0  0  0  0  0  0  0  0  0
   -0.2460   -1.4383    1.5973 O   0  0  0  0  0  0  0  0  0  0  0  0
    1.0211    0.6382    1.6948 C   0  0  0  0  0  0  0  0  0  0  0  0
    1.9246   -0.0780    2.6054 N   0  0  0  0  0  0  0  0  0  0  0  0
    3.2139    0.7455    3.2654 S   0  0  0  0  0  6  0  0  0  0  0  0
    2.8365    2.1345    3.3984 O   0  0  0  0  0  0  0  0  0  0  0  0
    3.6745   -0.0346    4.3911 O   0  0  0  0  0  0  0  0  0  0  0  0
    4.4305    0.6027    1.9835 C   0  0  0  0  0  0  0  0  0  0  0  0
    5.0450   -0.6305    1.7634 C   0  0  0  0  0  0  0  0  0  0  0  0
    6.0082   -0.7471    0.7607 C   0  0  0  0  0  0  0  0  0  0  0  0
    6.3680    0.3633   -0.0215 C   0  0  0  0  0  0  0  0  0  0  0  0
    7.3372    0.2602   -1.0317 C   0  0  0  0  0  0  0  0  0  0  0  0
    7.6912    1.3718   -1.7972 C   0  0  0  0  0  0  0  0  0  0  0  0
    7.0810    2.6007   -1.5636 C   0  0  0  0  0  0  0  0  0  0  0  0
    6.1146    2.7218   -0.5642 C   0  0  0  0  0  0  0  0  0  0  0  0
    5.7467    1.6137    0.2150 C   0  0  0  0  0  0  0  0  0  0  0  0
    4.7785    1.7233    1.2243 C   0  0  0  0  0  0  0  0  0  0  0  0
   -5.7151   -1.9401    1.4279 H   0  0  0  0  0  0  0  0  0  0  0  0
   -5.0144   -0.4995    2.1887 H   0  0  0  0  0  0  0  0  0  0  0  0
   -6.0602   -0.3158    0.7656 H   0  0  0  0  0  0  0  0  0  0  0  0
   -4.7191   -2.8647   -0.5353 H   0  0  0  0  0  0  0  0  0  0  0  0
   -3.4332   -2.0538   -1.4081 H   0  0  0  0  0  0  0  0  0  0  0  0
   -6.4902   -3.1062   -2.0917 H   0  0  0  0  0  0  0  0  0  0  0  0
   -8.0824   -2.1451   -3.7086 H   0  0  0  0  0  0  0  0  0  0  0  0
   -7.8780    0.2247   -4.4091 H   0  0  0  0  0  0  0  0  0  0  0  0
   -6.0619    1.6364   -3.4856 H   0  0  0  0  0  0  0  0  0  0  0  0
   -4.4608    0.7029   -1.8673 H   0  0  0  0  0  0  0  0  0  0  0  0
   -2.0925   -0.0963   -1.3253 H   0  0  0  0  0  0  0  0  0  0  0  0
   -1.5540   -1.5519   -0.4592 H   0  0  0  0  0  0  0  0  0  0  0  0
    0.4905    1.4266    2.2375 H   0  0  0  0  0  0  0  0  0  0  0  0
    1.5916    1.0558    0.8596 H   0  0  0  0  0  0  0  0  0  0  0  0
    1.5111   -0.7913    3.2103 H   0  0  0  0  0  0  0  0  0  0  0  0
    4.7830   -1.4968    2.3674 H   0  0  0  0  0  0  0  0  0  0  0  0
    6.4823   -1.7124    0.5963 H   0  0  0  0  0  0  0  0  0  0  0  0
    7.8281   -0.6904   -1.2286 H   0  0  0  0  0  0  0  0  0  0  0  0
    8.4454    1.2781   -2.5742 H   0  0  0  0  0  0  0  0  0  0  0  0
    7.3594    3.4673   -2.1571 H   0  0  0  0  0  0  0  0  0  0  0  0
    5.6530    3.6924   -0.3952 H   0  0  0  0  0  0  0  0  0  0  0  0
    4.3015    2.6815    1.4197 H   0  0  0  0  0  0  0  0  0  0  0  0
  1  2  1  0
  2  3  1  0
  3  4  1  0
  4  5  2  0
  5  6  1  0
  6  7  2  0
  7  8  1  0
  8  9  2  0
  2 10  1  0
 10 11  2  0
 10 12  1  0
 12 13  1  0
 13 14  1  0
 14 15  2  0
 14 16  1  0
 16 17  1  0
 17 18  1  0
 18 19  2  0
 18 20  2  0
 18 21  1  0
 21 22  2  0
 22 23  1  0
 23 24  2  0
 24 25  1  0
 25 26  2  0
 26 27  1  0
 27 28  2  0
 28 29  1  0
 29 30  2  0
  9  4  1  0
 30 21  1  0
 29 24  1  0
  1 31  1  0
  1 32  1  0
  1 33  1  0
  3 34  1  0
  3 35  1  0
  5 36  1  0
  6 37  1  0
  7 38  1  0
  8 39  1  0
  9 40  1  0
 12 41  1  0
 12 42  1  0
 16 43  1  0
 16 44  1  0
 17 45  1  0
 22 46  1  0
 23 47  1  0
 25 48  1  0
 26 49  1  0
 27 50  1  0
 28 51  1  0
 30 52  1  0
M  END
$$$$
