
     RDKit          3D

 41 44  0  0  0  0  0  0  0  0999 V2000
   -0.1000    3.2141   -1.4663 O   0  0  0  0  0  0  0  0  0  0  0  0
   -0.9270    2.2494   -2.1582 S   0  0  0  0  0  6  0  0  0  0  0  0
   -1.7127    2.6299   -3.3141 O   0  0  0  0  0  0  0  0  0  0  0  0
    0.0271    0.9493   -2.6574 N   0  0  0  0  0  0  0  0  0  0  0  0
    0.7224    0.1721   -1.6790 C   0  0  0  0  0  0  0  0  0  0  0  0
    1.8115    0.7644   -1.0317 C   0  0  0  0  0  0  0  0  0  0  0  0
    2.5065    0.0834   -0.0313 C   0  0  0  0  0  0  0  0  0  0  0  0
    3.9397    0.8904    0.6702 S   0  0  0  0  0  0  0  0  0  0  0  0
    3.4507    1.1516    2.3186 C   0  0  0  0  0  0  0  0  0  0  0  0
    2.9884    0.1358    3.1174 N   0  0  0  0  0  0  0  0  0  0  0  0
    2.7728    0.7415    4.2627 C   0  0  0  0  0  0  0  0  0  0  0  0
    3.1078    2.0546    4.1531 N   0  0  0  0  0  0  0  0  0  0  0  0
    3.5550    2.3379    2.9208 N   0  0  0  0  0  0  0  0  0  0  0  0
    2.0885   -1.2112    0.3116 C   0  0  0  0  0  0  0  0  0  0  0  0
    2.7321   -1.9184    1.3022 O   0  0  0  0  0  0  0  0  0  0  0  0
    0.9998   -1.8396   -0.3369 C   0  0  0  0  0  0  0  0  0  0  0  0
    0.5860   -3.1455    0.0046 C   0  0  0  0  0  0  0  0  0  0  0  0
   -0.4966   -3.7589   -0.6235 C   0  0  0  0  0  0  0  0  0  0  0  0
   -1.1926   -3.0779   -1.6098 C   0  0  0  0  0  0  0  0  0  0  0  0
   -0.8017   -1.7868   -1.9683 C   0  0  0  0  0  0  0  0  0  0  0  0
    0.2962   -1.1397   -1.3481 C   0  0  0  0  0  0  0  0  0  0  0  0
   -2.0346    1.5245   -0.9710 C   0  0  0  0  0  0  0  0  0  0  0  0
   -1.6861    1.5131    0.3836 C   0  0  0  0  0  0  0  0  0  0  0  0
   -2.5576    0.9433    1.3108 C   0  0  0  0  0  0  0  0  0  0  0  0
   -3.7753    0.4076    0.8876 C   0  0  0  0  0  0  0  0  0  0  0  0
   -4.1306    0.4452   -0.4620 C   0  0  0  0  0  0  0  0  0  0  0  0
   -3.2630    1.0095   -1.3970 C   0  0  0  0  0  0  0  0  0  0  0  0
   -0.3458    0.4770   -3.4776 H   0  0  0  0  0  0  0  0  0  0  0  0
    2.1242    1.7662   -1.3232 H   0  0  0  0  0  0  0  0  0  0  0  0
    2.3944    0.2981    5.1730 H   0  0  0  0  0  0  0  0  0  0  0  0
    3.0661    2.7905    4.8500 H   0  0  0  0  0  0  0  0  0  0  0  0
    3.0663   -1.2698    1.9573 H   0  0  0  0  0  0  0  0  0  0  0  0
    1.1188   -3.6978    0.7777 H   0  0  0  0  0  0  0  0  0  0  0  0
   -0.7910   -4.7651   -0.3376 H   0  0  0  0  0  0  0  0  0  0  0  0
   -2.0404   -3.5477   -2.1016 H   0  0  0  0  0  0  0  0  0  0  0  0
   -1.3794   -1.2894   -2.7421 H   0  0  0  0  0  0  0  0  0  0  0  0
   -0.7412    1.9347    0.7194 H   0  0  0  0  0  0  0  0  0  0  0  0
   -2.2891    0.9166    2.3638 H   0  0  0  0  0  0  0  0  0  0  0  0
   -4.4532   -0.0349    1.6139 H   0  0  0  0  0  0  0  0  0  0  0  0
   -5.0862    0.0373   -0.7825 H   0  0  0  0  0  0  0  0  0  0  0  0
   -3.5504    1.0446   -2.4452 H   0  0  0  0  0  0  0  0  0  0  0  0
  1  2  2  0
  2  3  2  0
  2  4  1  0
  4  5  1  0
  5  6  2  0
  6  7  1  0
  7  8  1  0
  8  9  1  0
  9 10  1  0
 10 11  2  0
 11 12  1  0
 12 13  1  0
  7 14  2  0
 14 15  1  0
 14 16  1  0
 16 17  2  0
 17 18  1  0
 18 19  2  0
 19 20  1  0
 20 21  2  0
  2 22  1  0
 22 23  2  0
 23 24  1  0
 24 25  2  0
 25 26  1  0
 26 27  2  0
 21  5  1  0
 27 22  1  0
 13  9  2  0
 21 16  1  0
  4 28  1  0
  6 29  1  0
 11 30  1  0
 12 31  1  0
 15 32  1  0
 17 33  1  0
 18 34  1  0
 19 35  1  0
 20 36  1  0
 23 37  1  0
 24 38  1  0
 25 39  1  0
 26 40  1  0
 27 41  1  0
M  END
$$$$
