
     RDKit          3D

 50 54  0  0  0  0  0  0  0  0999 V2000
   -4.4639   -0.2925   -2.0846 C   0  0  0  0  0  0  0  0  0  0  0  0
   -4.2371   -1.0070   -0.7891 C   0  0  0  0  0  0  0  0  0  0  0  0
   -5.1658   -1.7688   -0.1903 C   0  0  0  0  0  0  0  0  0  0  0  0
   -4.8949   -2.4235    1.0600 C   0  0  0  0  0  0  0  0  0  0  0  0
   -3.7022   -2.2738    1.6452 C   0  0  0  0  0  0  0  0  0  0  0  0
   -2.7000   -1.4971    1.0766 N   0  0  0  0  0  0  0  0  0  0  0  0
   -1.4791   -1.3930    1.7198 C   0  0  0  0  0  0  0  0  0  0  0  0
   -1.1955   -1.9708    2.7718 O   0  0  0  0  0  0  0  0  0  0  0  0
   -0.4622   -0.5243    1.0642 C   0  0  0  0  0  0  0  0  0  0  0  0
    0.8389   -0.3426    1.6889 C   0  0  0  0  0  0  0  0  0  0  0  0
    1.7845    0.4476    1.1544 C   0  0  0  0  0  0  0  0  0  0  0  0
    3.3365    0.5369    1.8980 S   0  0  0  0  0  6  0  0  0  0  0  0
    4.0768    1.6768    1.3837 O   0  0  0  0  0  0  0  0  0  0  0  0
    3.2221    0.3385    3.3321 O   0  0  0  0  0  0  0  0  0  0  0  0
    4.1404   -0.9167    1.2368 C   0  0  0  0  0  0  0  0  0  0  0  0
    4.2422   -2.0726    2.0206 C   0  0  0  0  0  0  0  0  0  0  0  0
    4.8784   -3.1988    1.4973 C   0  0  0  0  0  0  0  0  0  0  0  0
    5.4099   -3.1550    0.2113 C   0  0  0  0  0  0  0  0  0  0  0  0
    6.0187   -4.2389   -0.2862 F   0  0  0  0  0  0  0  0  0  0  0  0
    5.3230   -2.0027   -0.5648 C   0  0  0  0  0  0  0  0  0  0  0  0
    4.6890   -0.8708   -0.0515 C   0  0  0  0  0  0  0  0  0  0  0  0
    1.4465    1.1527   -0.1224 C   0  0  0  0  0  0  0  0  0  0  0  0
    2.2685    1.9955   -0.6777 N   0  0  0  0  0  0  0  0  0  0  0  0
    0.2083    0.8911   -0.7274 N   0  0  0  0  0  0  0  0  0  0  0  0
   -0.1555    1.6330   -1.9538 C   0  0  0  0  0  0  0  0  0  0  0  0
   -0.8457    2.9390   -1.7211 C   0  0  0  0  0  0  0  0  0  0  0  0
   -0.4358    4.1387   -1.1750 C   0  0  0  0  0  0  0  0  0  0  0  0
   -1.5517    5.0067   -1.2301 C   0  0  0  0  0  0  0  0  0  0  0  0
   -2.5694    4.2857   -1.8085 C   0  0  0  0  0  0  0  0  0  0  0  0
   -2.1510    3.0310   -2.1145 O   0  0  0  0  0  0  0  0  0  0  0  0
   -0.7652    0.0657   -0.1133 C   0  0  0  0  0  0  0  0  0  0  0  0
   -1.9885   -0.1227   -0.7071 N   0  0  0  0  0  0  0  0  0  0  0  0
   -2.8938   -0.8462   -0.1303 C   0  0  0  0  0  0  0  0  0  0  0  0
   -3.7474   -0.6285   -2.8416 H   0  0  0  0  0  0  0  0  0  0  0  0
   -5.4693   -0.4753   -2.4783 H   0  0  0  0  0  0  0  0  0  0  0  0
   -4.3530    0.7887   -1.9523 H   0  0  0  0  0  0  0  0  0  0  0  0
   -6.1491   -1.9093   -0.6296 H   0  0  0  0  0  0  0  0  0  0  0  0
   -5.6717   -3.0315    1.5124 H   0  0  0  0  0  0  0  0  0  0  0  0
   -3.4771   -2.7596    2.5915 H   0  0  0  0  0  0  0  0  0  0  0  0
    1.0206   -0.8917    2.6116 H   0  0  0  0  0  0  0  0  0  0  0  0
    3.8382   -2.1063    3.0305 H   0  0  0  0  0  0  0  0  0  0  0  0
    4.9690   -4.1084    2.0838 H   0  0  0  0  0  0  0  0  0  0  0  0
    5.7549   -1.9935   -1.5613 H   0  0  0  0  0  0  0  0  0  0  0  0
    4.6328    0.0322   -0.6565 H   0  0  0  0  0  0  0  0  0  0  0  0
    3.1250    2.1542   -0.1197 H   0  0  0  0  0  0  0  0  0  0  0  0
   -0.7830    1.0018   -2.5975 H   0  0  0  0  0  0  0  0  0  0  0  0
    0.7357    1.8163   -2.5682 H   0  0  0  0  0  0  0  0  0  0  0  0
    0.5522    4.3494   -0.7868 H   0  0  0  0  0  0  0  0  0  0  0  0
   -1.6074    6.0313   -0.8911 H   0  0  0  0  0  0  0  0  0  0  0  0
   -3.5966    4.5092   -2.0601 H   0  0  0  0  0  0  0  0  0  0  0  0
  1  2  1  0
  2  3  2  0
  3  4  1  0
  4  5  2  0
  5  6  1  0
  6  7  1  0
  7  8  2  0
  7  9  1  0
  9 10  1  0
 10 11  2  0
 11 12  1  0
 12 13  2  0
 12 14  2  0
 12 15  1  0
 15 16  2  0
 16 17  1  0
 17 18  2  0
 18 19  1  0
 18 20  1  0
 20 21  2  0
 11 22  1  0
 22 23  2  3
 22 24  1  0
 24 25  1  0
 25 26  1  0
 26 27  2  0
 27 28  1  0
 28 29  2  0
 29 30  1  0
 24 31  1  0
 31 32  1  0
 32 33  2  0
 33  2  1  0
 33  6  1  0
 31  9  2  0
 21 15  1  0
 30 26  1  0
  1 34  1  0
  1 35  1  0
  1 36  1  0
  3 37  1  0
  4 38  1  0
  5 39  1  0
 10 40  1  0
 16 41  1  0
 17 42  1  0
 20 43  1  0
 21 44  1  0
 23 45  1  0
 25 46  1  0
 25 47  1  0
 27 48  1  0
 28 49  1  0
 29 50  1  0
M  END
$$$$
