
     RDKit          3D

 34 35  0  0  0  0  0  0  0  0999 V2000
    2.6427   -0.5733   -0.5473 C   0  0  0  0  0  0  0  0  0  0  0  0
    2.4882    0.8537   -0.0506 C   0  0  0  0  0  0  0  0  0  0  0  0
    1.4978    1.6432   -0.3672 N   0  0  0  0  0  0  0  0  0  0  0  0
    0.4280    1.1524   -1.0717 N   0  0  0  0  0  0  0  0  0  0  0  0
   -0.4079    0.1771   -0.5060 C   0  0  0  0  0  0  0  0  0  0  0  0
   -0.1230   -0.4893    0.4821 O   0  0  0  0  0  0  0  0  0  0  0  0
   -1.6853    0.0284   -1.3065 C   0  0  0  0  0  0  0  0  0  0  0  0
   -2.6853   -0.9984   -0.7777 C   0  0  0  0  0  0  0  0  0  0  0  0
   -2.1360   -2.4203   -0.6854 C   0  0  0  0  0  0  0  0  0  0  0  0
   -3.7792   -1.0233   -1.7316 O   0  0  0  0  0  0  0  0  0  0  0  0
   -4.9618   -0.9729   -0.9336 C   0  0  0  0  0  0  0  0  0  0  0  0
   -4.5372   -0.1555    0.2526 C   0  0  0  0  0  0  0  0  0  0  0  0
   -3.2048   -0.5978    0.4997 O   0  0  0  0  0  0  0  0  0  0  0  0
    3.5515    1.3626    0.8181 C   0  0  0  0  0  0  0  0  0  0  0  0
    4.5815    0.6665    1.4293 C   0  0  0  0  0  0  0  0  0  0  0  0
    5.4342    1.5056    2.2055 C   0  0  0  0  0  0  0  0  0  0  0  0
    5.0321    2.8200    2.1685 C   0  0  0  0  0  0  0  0  0  0  0  0
    3.6373    3.0355    1.2073 S   0  0  0  0  0  0  0  0  0  0  0  0
    2.4064   -1.2707    0.2614 H   0  0  0  0  0  0  0  0  0  0  0  0
    2.0033   -0.7838   -1.4070 H   0  0  0  0  0  0  0  0  0  0  0  0
    3.6747   -0.7463   -0.8689 H   0  0  0  0  0  0  0  0  0  0  0  0
   -0.0606    1.8878   -1.5765 H   0  0  0  0  0  0  0  0  0  0  0  0
   -2.1701    1.0135   -1.3359 H   0  0  0  0  0  0  0  0  0  0  0  0
   -1.4126   -0.2215   -2.3400 H   0  0  0  0  0  0  0  0  0  0  0  0
   -2.9424   -3.1271   -0.4566 H   0  0  0  0  0  0  0  0  0  0  0  0
   -1.6973   -2.7367   -1.6376 H   0  0  0  0  0  0  0  0  0  0  0  0
   -1.3947   -2.5334    0.1094 H   0  0  0  0  0  0  0  0  0  0  0  0
   -5.2272   -1.9962   -0.6474 H   0  0  0  0  0  0  0  0  0  0  0  0
   -5.7878   -0.5285   -1.4941 H   0  0  0  0  0  0  0  0  0  0  0  0
   -5.1661   -0.3077    1.1330 H   0  0  0  0  0  0  0  0  0  0  0  0
   -4.5017    0.9128    0.0135 H   0  0  0  0  0  0  0  0  0  0  0  0
    4.7219   -0.4038    1.3380 H   0  0  0  0  0  0  0  0  0  0  0  0
    6.2947    1.1603    2.7655 H   0  0  0  0  0  0  0  0  0  0  0  0
    5.4867    3.6673    2.6632 H   0  0  0  0  0  0  0  0  0  0  0  0
  1  2  1  0
  2  3  2  3
  3  4  1  0
  4  5  1  0
  5  6  2  0
  5  7  1  0
  7  8  1  0
  8  9  1  0
  8 10  1  0
 10 11  1  0
 11 12  1  0
 12 13  1  0
  2 14  1  0
 14 15  2  0
 15 16  1  0
 16 17  2  0
 17 18  1  0
 13  8  1  0
 18 14  1  0
  1 19  1  0
  1 20  1  0
  1 21  1  0
  4 22  1  0
  7 23  1  0
  7 24  1  0
  9 25  1  0
  9 26  1  0
  9 27  1  0
 11 28  1  0
 11 29  1  0
 12 30  1  0
 12 31  1  0
 15 32  1  0
 16 33  1  0
 17 34  1  0
M  END
$$$$
