
     RDKit          3D

 39 39  0  0  0  0  0  0  0  0999 V2000
   -2.8178    4.5790    0.6035 C   0  0  0  0  0  0  0  0  0  0  0  0
   -1.7284    3.6938    0.0813 C   0  0  0  0  0  0  0  0  0  0  0  0
   -0.8622    4.0505   -0.7038 O   0  0  0  0  0  0  0  0  0  0  0  0
   -1.8508    2.4434    0.6068 O   0  0  0  0  0  0  0  0  0  0  0  0
   -0.8384    1.5247    0.1695 C   0  0  0  0  0  0  0  0  0  0  0  0
   -1.1618    0.1520    0.7531 C   0  0  0  0  0  0  0  0  0  0  0  0
   -0.1778   -0.9314    0.2770 C   0  0  0  0  0  0  0  0  0  0  0  0
    1.1298   -0.7042    0.9241 N   0  0  0  0  0  0  0  0  0  0  0  0
    2.4707   -0.6329   -0.0749 S   0  0  0  0  0  6  0  0  0  0  0  0
    3.6180   -0.4737    0.7865 O   0  0  0  0  0  0  0  0  0  0  0  0
    2.3876   -1.7164   -1.0253 O   0  0  0  0  0  0  0  0  0  0  0  0
    2.2523    0.7521   -0.8817 O   0  0  0  0  0  0  0  0  0  0  0  0
    3.2799    1.1467   -1.7884 C   0  0  0  0  0  0  0  0  0  0  0  0
    2.9417    2.4757   -2.4776 C   0  0  0  0  0  0  0  0  0  0  0  0
    1.4076    2.3326   -3.3896 Cl  0  0  0  0  0  0  0  0  0  0  0  0
    2.8032    3.7902   -1.2742 Cl  0  0  0  0  0  0  0  0  0  0  0  0
    4.2504    2.8939   -3.6306 Cl  0  0  0  0  0  0  0  0  0  0  0  0
   -0.6726   -2.3377    0.5816 C   0  0  0  0  0  0  0  0  0  0  0  0
   -1.2209   -2.6826    1.8282 C   0  0  0  0  0  0  0  0  0  0  0  0
   -1.6398   -3.9898    2.0863 C   0  0  0  0  0  0  0  0  0  0  0  0
   -1.5058   -4.9726    1.1090 C   0  0  0  0  0  0  0  0  0  0  0  0
   -0.9477   -4.6516   -0.1255 C   0  0  0  0  0  0  0  0  0  0  0  0
   -0.5298   -3.3452   -0.3861 C   0  0  0  0  0  0  0  0  0  0  0  0
   -2.7049    5.5809    0.1795 H   0  0  0  0  0  0  0  0  0  0  0  0
   -2.7467    4.6517    1.6916 H   0  0  0  0  0  0  0  0  0  0  0  0
   -3.7919    4.1825    0.3064 H   0  0  0  0  0  0  0  0  0  0  0  0
    0.1358    1.8756    0.5269 H   0  0  0  0  0  0  0  0  0  0  0  0
   -0.8363    1.4761   -0.9256 H   0  0  0  0  0  0  0  0  0  0  0  0
   -2.1869   -0.1144    0.4618 H   0  0  0  0  0  0  0  0  0  0  0  0
   -1.1748    0.2313    1.8480 H   0  0  0  0  0  0  0  0  0  0  0  0
   -0.0948   -0.8231   -0.8123 H   0  0  0  0  0  0  0  0  0  0  0  0
    1.3159   -1.3332    1.7060 H   0  0  0  0  0  0  0  0  0  0  0  0
    3.4070    0.3552   -2.5379 H   0  0  0  0  0  0  0  0  0  0  0  0
    4.2239    1.2377   -1.2364 H   0  0  0  0  0  0  0  0  0  0  0  0
   -1.3266   -1.9409    2.6165 H   0  0  0  0  0  0  0  0  0  0  0  0
   -2.0676   -4.2425    3.0534 H   0  0  0  0  0  0  0  0  0  0  0  0
   -1.8293   -5.9903    1.3115 H   0  0  0  0  0  0  0  0  0  0  0  0
   -0.8305   -5.4199   -0.8857 H   0  0  0  0  0  0  0  0  0  0  0  0
   -0.0798   -3.1232   -1.3528 H   0  0  0  0  0  0  0  0  0  0  0  0
  1  2  1  0
  2  3  2  0
  2  4  1  0
  4  5  1  0
  5  6  1  0
  6  7  1  0
  7  8  1  0
  8  9  1  0
  9 10  2  0
  9 11  2  0
  9 12  1  0
 12 13  1  0
 13 14  1  0
 14 15  1  0
 14 16  1  0
 14 17  1  0
  7 18  1  0
 18 19  2  0
 19 20  1  0
 20 21  2  0
 21 22  1  0
 22 23  2  0
 23 18  1  0
  1 24  1  0
  1 25  1  0
  1 26  1  0
  5 27  1  0
  5 28  1  0
  6 29  1  0
  6 30  1  0
  7 31  1  0
  8 32  1  0
 13 33  1  0
 13 34  1  0
 19 35  1  0
 20 36  1  0
 21 37  1  0
 22 38  1  0
 23 39  1  0
M  END
$$$$
