
     RDKit          3D

 44 46  0  0  0  0  0  0  0  0999 V2000
   -6.8751    0.2773    0.7226 C   0  0  0  0  0  0  0  0  0  0  0  0
   -5.4223    0.3570    0.3549 C   0  0  0  0  0  0  0  0  0  0  0  0
   -4.6228   -0.7924    0.4201 C   0  0  0  0  0  0  0  0  0  0  0  0
   -3.2648   -0.7466    0.0761 C   0  0  0  0  0  0  0  0  0  0  0  0
   -2.4469   -2.0051    0.1260 C   0  0  0  0  0  0  0  0  0  0  0  0
   -2.7194    0.4729   -0.3596 C   0  0  0  0  0  0  0  0  0  0  0  0
   -1.3938    0.5123   -0.7135 O   0  0  0  0  0  0  0  0  0  0  0  0
   -1.2551    0.3719   -2.1328 C   0  0  0  0  0  0  0  0  0  0  0  0
    0.2189    0.2278   -2.5193 C   0  0  0  0  0  0  0  0  0  0  0  0
    0.5523    0.2556   -3.7005 O   0  0  0  0  0  0  0  0  0  0  0  0
    1.0358    0.0507   -1.4241 N   0  0  0  0  0  0  0  0  0  0  0  0
    2.3913   -0.1303   -1.4060 C   0  0  0  0  0  0  0  0  0  0  0  0
    3.0352   -0.2889   -0.2738 N   0  0  0  0  0  0  0  0  0  0  0  0
    4.3964   -0.4484   -0.5256 C   0  0  0  0  0  0  0  0  0  0  0  0
    5.3693   -0.6390    0.5498 C   0  0  0  0  0  0  0  0  0  0  0  0
    4.9540   -0.6910    1.8776 C   0  0  0  0  0  0  0  0  0  0  0  0
    5.9096   -0.8703    2.8750 C   0  0  0  0  0  0  0  0  0  0  0  0
    7.2471   -0.9929    2.5216 C   0  0  0  0  0  0  0  0  0  0  0  0
    7.5761   -0.9314    1.1790 C   0  0  0  0  0  0  0  0  0  0  0  0
    6.6732   -0.7584    0.1884 N   0  0  0  0  0  0  0  0  0  0  0  0
    4.7414   -0.4082   -1.8648 C   0  0  0  0  0  0  0  0  0  0  0  0
    3.3417   -0.1698   -2.8199 S   0  0  0  0  0  0  0  0  0  0  0  0
   -3.4836    1.6507   -0.3684 C   0  0  0  0  0  0  0  0  0  0  0  0
   -2.9041    2.9809   -0.7566 C   0  0  0  0  0  0  0  0  0  0  0  0
   -4.8442    1.5709   -0.0365 C   0  0  0  0  0  0  0  0  0  0  0  0
   -6.9815    0.0178    1.7814 H   0  0  0  0  0  0  0  0  0  0  0  0
   -7.3785   -0.4805    0.1127 H   0  0  0  0  0  0  0  0  0  0  0  0
   -7.3855    1.2318    0.5548 H   0  0  0  0  0  0  0  0  0  0  0  0
   -5.0676   -1.7344    0.7419 H   0  0  0  0  0  0  0  0  0  0  0  0
   -2.3845   -2.4508   -0.8720 H   0  0  0  0  0  0  0  0  0  0  0  0
   -2.8925   -2.7383    0.8072 H   0  0  0  0  0  0  0  0  0  0  0  0
   -1.4367   -1.8008    0.4930 H   0  0  0  0  0  0  0  0  0  0  0  0
   -1.7749   -0.5242   -2.4913 H   0  0  0  0  0  0  0  0  0  0  0  0
   -1.6403    1.2641   -2.6412 H   0  0  0  0  0  0  0  0  0  0  0  0
    0.6018    0.0706   -0.5067 H   0  0  0  0  0  0  0  0  0  0  0  0
    3.9048   -0.5925    2.1352 H   0  0  0  0  0  0  0  0  0  0  0  0
    5.6101   -0.9129    3.9180 H   0  0  0  0  0  0  0  0  0  0  0  0
    8.0152   -1.1324    3.2735 H   0  0  0  0  0  0  0  0  0  0  0  0
    8.6079   -1.0213    0.8531 H   0  0  0  0  0  0  0  0  0  0  0  0
    5.7213   -0.5042   -2.3110 H   0  0  0  0  0  0  0  0  0  0  0  0
   -3.0405    3.1537   -1.8286 H   0  0  0  0  0  0  0  0  0  0  0  0
   -3.3936    3.7926   -0.2031 H   0  0  0  0  0  0  0  0  0  0  0  0
   -1.8368    3.0358   -0.5171 H   0  0  0  0  0  0  0  0  0  0  0  0
   -5.4584    2.4705   -0.0779 H   0  0  0  0  0  0  0  0  0  0  0  0
  1  2  1  0
  2  3  2  0
  3  4  1  0
  4  5  1  0
  4  6  2  0
  6  7  1  0
  7  8  1  0
  8  9  1  0
  9 10  2  0
  9 11  1  0
 11 12  1  0
 12 13  2  0
 13 14  1  0
 14 15  1  0
 15 16  2  0
 16 17  1  0
 17 18  2  0
 18 19  1  0
 19 20  2  0
 14 21  2  0
 21 22  1  0
  6 23  1  0
 23 24  1  0
 23 25  2  0
 25  2  1  0
 22 12  1  0
 20 15  1  0
  1 26  1  0
  1 27  1  0
  1 28  1  0
  3 29  1  0
  5 30  1  0
  5 31  1  0
  5 32  1  0
  8 33  1  0
  8 34  1  0
 11 35  1  0
 16 36  1  0
 17 37  1  0
 18 38  1  0
 19 39  1  0
 21 40  1  0
 24 41  1  0
 24 42  1  0
 24 43  1  0
 25 44  1  0
M  END
$$$$
