
     RDKit          3D

 43 46  0  0  0  0  0  0  0  0999 V2000
    6.5602    1.1127    1.3959 C   0  0  0  0  0  0  0  0  0  0  0  0
    5.1178    1.0020    0.9948 C   0  0  0  0  0  0  0  0  0  0  0  0
    4.7133    0.0452    0.0591 C   0  0  0  0  0  0  0  0  0  0  0  0
    3.3659   -0.0814   -0.2945 C   0  0  0  0  0  0  0  0  0  0  0  0
    2.4058    0.7436    0.2918 C   0  0  0  0  0  0  0  0  0  0  0  0
    0.8892    0.6116   -0.0952 C   0  0  0  0  0  0  0  0  0  0  0  0
   -0.1702    1.3132    0.4690 C   0  0  0  0  0  0  0  0  0  0  0  0
   -1.3637    0.8861   -0.1164 N   0  0  0  0  0  4  0  0  0  0  0  0
   -2.7073    1.3711    0.1859 C   0  0  0  0  0  0  0  0  0  0  0  0
   -3.5421    0.2296    0.7100 C   0  0  0  0  0  0  0  0  0  0  0  0
   -3.1816   -0.4452    1.8858 C   0  0  0  0  0  0  0  0  0  0  0  0
   -3.9557   -1.5079    2.3616 C   0  0  0  0  0  0  0  0  0  0  0  0
   -5.1021   -1.9119    1.6724 C   0  0  0  0  0  0  0  0  0  0  0  0
   -5.9994   -3.2402    2.3101 Cl  0  0  0  0  0  0  0  0  0  0  0  0
   -5.4770   -1.2425    0.5047 C   0  0  0  0  0  0  0  0  0  0  0  0
   -6.8713   -1.6831   -0.4127 Cl  0  0  0  0  0  0  0  0  0  0  0  0
   -4.7026   -0.1749    0.0304 C   0  0  0  0  0  0  0  0  0  0  0  0
   -1.0485   -0.0286   -1.0283 C   0  0  0  0  0  0  0  0  0  0  0  0
    0.2712   -0.1901   -1.0378 N   0  0  0  0  0  0  0  0  0  0  0  0
    0.6923   -1.1631   -2.0365 C   0  0  0  0  0  0  0  0  0  0  0  0
   -0.5822   -1.3698   -2.9006 C   0  0  0  0  0  0  0  0  0  0  0  0
   -1.7477   -0.8804   -2.0185 C   0  0  0  0  0  0  0  0  0  0  0  0
    2.8027    1.6893    1.2443 C   0  0  0  0  0  0  0  0  0  0  0  0
    4.1506    1.8133    1.5945 C   0  0  0  0  0  0  0  0  0  0  0  0
    6.8065    2.1391    1.6876 H   0  0  0  0  0  0  0  0  0  0  0  0
    6.7662    0.4457    2.2385 H   0  0  0  0  0  0  0  0  0  0  0  0
    7.2186    0.8453    0.5627 H   0  0  0  0  0  0  0  0  0  0  0  0
    5.4507   -0.6118   -0.4000 H   0  0  0  0  0  0  0  0  0  0  0  0
    3.1081   -0.8450   -1.0164 H   0  0  0  0  0  0  0  0  0  0  0  0
   -0.2285    2.0647    1.2382 H   0  0  0  0  0  0  0  0  0  0  0  0
   -2.6590    2.1720    0.9316 H   0  0  0  0  0  0  0  0  0  0  0  0
   -3.1270    1.7919   -0.7346 H   0  0  0  0  0  0  0  0  0  0  0  0
   -2.2955   -0.1520    2.4468 H   0  0  0  0  0  0  0  0  0  0  0  0
   -3.6611   -2.0198    3.2765 H   0  0  0  0  0  0  0  0  0  0  0  0
   -5.0175    0.3395   -0.8769 H   0  0  0  0  0  0  0  0  0  0  0  0
    0.9794   -2.0881   -1.5282 H   0  0  0  0  0  0  0  0  0  0  0  0
    1.5159   -0.7754   -2.6401 H   0  0  0  0  0  0  0  0  0  0  0  0
   -0.5150   -0.7330   -3.7908 H   0  0  0  0  0  0  0  0  0  0  0  0
   -0.7049   -2.4033   -3.2353 H   0  0  0  0  0  0  0  0  0  0  0  0
   -2.4779   -0.2762   -2.5577 H   0  0  0  0  0  0  0  0  0  0  0  0
   -2.2157   -1.6934   -1.4596 H   0  0  0  0  0  0  0  0  0  0  0  0
    2.0943    2.3505    1.7339 H   0  0  0  0  0  0  0  0  0  0  0  0
    4.4449    2.5508    2.3400 H   0  0  0  0  0  0  0  0  0  0  0  0
  1  2  1  0
  2  3  2  0
  3  4  1  0
  4  5  2  0
  5  6  1  0
  6  7  2  0
  7  8  1  0
  8  9  1  0
  9 10  1  0
 10 11  2  0
 11 12  1  0
 12 13  2  0
 13 14  1  0
 13 15  1  0
 15 16  1  0
 15 17  2  0
  8 18  2  0
 18 19  1  0
 19 20  1  0
 20 21  1  0
 21 22  1  0
  5 23  1  0
 23 24  2  0
 24  2  1  0
 19  6  1  0
 17 10  1  0
 22 18  1  0
  1 25  1  0
  1 26  1  0
  1 27  1  0
  3 28  1  0
  4 29  1  0
  7 30  1  0
  9 31  1  0
  9 32  1  0
 11 33  1  0
 12 34  1  0
 17 35  1  0
 20 36  1  0
 20 37  1  0
 21 38  1  0
 21 39  1  0
 22 40  1  0
 22 41  1  0
 23 42  1  0
 24 43  1  0
M  CHG  1   8   1
M  END
$$$$
