
     RDKit          3D

 57 59  0  0  0  0  0  0  0  0999 V2000
    9.5047    3.8493   -2.6300 C   0  0  0  0  0  0  0  0  0  0  0  0
    9.0810    2.6167   -3.1989 O   0  0  0  0  0  0  0  0  0  0  0  0
    8.2615    1.8348   -2.4263 C   0  0  0  0  0  0  0  0  0  0  0  0
    7.9374    2.0579   -1.0872 C   0  0  0  0  0  0  0  0  0  0  0  0
    7.0762    1.1791   -0.4186 C   0  0  0  0  0  0  0  0  0  0  0  0
    6.5179    0.0842   -1.0847 C   0  0  0  0  0  0  0  0  0  0  0  0
    5.6738   -0.6924   -0.3324 O   0  0  0  0  0  0  0  0  0  0  0  0
    4.6977   -1.4437   -1.0660 C   0  0  0  0  0  0  0  0  0  0  0  0
    3.6285   -1.9159   -0.0826 C   0  0  0  0  0  0  0  0  0  0  0  0
    2.2759   -2.7208   -0.9803 S   0  0  0  0  0  0  0  0  0  0  0  0
    1.1067   -2.8435    0.2822 C   0  0  0  0  0  0  0  0  0  0  0  0
    1.3588   -3.1267    1.5401 N   0  0  0  0  0  0  0  0  0  0  0  0
    0.1740   -3.0530    2.2290 N   0  0  0  0  0  0  0  0  0  0  0  0
   -0.7781   -2.7288    1.3734 C   0  0  0  0  0  0  0  0  0  0  0  0
   -2.1964   -2.4411    1.7186 C   0  0  0  0  0  0  0  0  0  0  0  0
   -2.3409   -0.9813    2.1552 C   0  0  0  0  0  0  0  0  0  0  0  0
   -3.7212   -0.5339    2.1865 N   0  0  0  0  0  0  0  0  0  0  0  0
   -4.3887   -0.2302    1.0159 C   0  0  0  0  0  0  0  0  0  0  0  0
   -3.8808   -0.4116   -0.0886 O   0  0  0  0  0  0  0  0  0  0  0  0
   -5.7793    0.3032    1.1295 C   0  0  0  0  0  0  0  0  0  0  0  0
   -6.2998    0.8290    2.3163 C   0  0  0  0  0  0  0  0  0  0  0  0
   -7.6105    1.3283    2.3546 C   0  0  0  0  0  0  0  0  0  0  0  0
   -8.4076    1.3180    1.2101 C   0  0  0  0  0  0  0  0  0  0  0  0
   -9.6911    1.7798    1.1164 O   0  0  0  0  0  0  0  0  0  0  0  0
  -10.2385    2.4036    2.2740 C   0  0  0  0  0  0  0  0  0  0  0  0
   -7.8874    0.7974    0.0246 C   0  0  0  0  0  0  0  0  0  0  0  0
   -6.5832    0.2971   -0.0199 C   0  0  0  0  0  0  0  0  0  0  0  0
   -0.2320   -2.6203    0.1141 N   0  0  0  0  0  0  0  0  0  0  0  0
   -0.9240   -2.2290   -1.0894 C   0  0  0  0  0  0  0  0  0  0  0  0
    6.8600   -0.1553   -2.4151 C   0  0  0  0  0  0  0  0  0  0  0  0
    7.7297    0.7181   -3.0800 C   0  0  0  0  0  0  0  0  0  0  0  0
   10.1798    3.6797   -1.7856 H   0  0  0  0  0  0  0  0  0  0  0  0
    8.6496    4.4683   -2.3380 H   0  0  0  0  0  0  0  0  0  0  0  0
   10.0628    4.3939   -3.3973 H   0  0  0  0  0  0  0  0  0  0  0  0
    8.3471    2.8997   -0.5314 H   0  0  0  0  0  0  0  0  0  0  0  0
    6.8361    1.3580    0.6272 H   0  0  0  0  0  0  0  0  0  0  0  0
    5.1833   -2.3085   -1.5381 H   0  0  0  0  0  0  0  0  0  0  0  0
    4.2301   -0.8064   -1.8336 H   0  0  0  0  0  0  0  0  0  0  0  0
    3.2400   -1.0563    0.4735 H   0  0  0  0  0  0  0  0  0  0  0  0
    4.0576   -2.5997    0.6481 H   0  0  0  0  0  0  0  0  0  0  0  0
   -2.8566   -2.6799    0.8767 H   0  0  0  0  0  0  0  0  0  0  0  0
   -2.5168   -3.0978    2.5358 H   0  0  0  0  0  0  0  0  0  0  0  0
   -1.7915   -0.3087    1.4838 H   0  0  0  0  0  0  0  0  0  0  0  0
   -1.9271   -0.8429    3.1619 H   0  0  0  0  0  0  0  0  0  0  0  0
   -4.1964   -0.5244    3.0783 H   0  0  0  0  0  0  0  0  0  0  0  0
   -5.7037    0.8933    3.2189 H   0  0  0  0  0  0  0  0  0  0  0  0
   -7.9723    1.7213    3.2952 H   0  0  0  0  0  0  0  0  0  0  0  0
  -10.3667    1.6820    3.0883 H   0  0  0  0  0  0  0  0  0  0  0  0
   -9.6269    3.2511    2.6003 H   0  0  0  0  0  0  0  0  0  0  0  0
  -11.2246    2.7926    2.0112 H   0  0  0  0  0  0  0  0  0  0  0  0
   -8.4951    0.7914   -0.8754 H   0  0  0  0  0  0  0  0  0  0  0  0
   -6.1968   -0.0897   -0.9632 H   0  0  0  0  0  0  0  0  0  0  0  0
   -1.9151   -2.6949   -1.1095 H   0  0  0  0  0  0  0  0  0  0  0  0
   -1.0095   -1.1363   -1.0979 H   0  0  0  0  0  0  0  0  0  0  0  0
   -0.3753   -2.5674   -1.9735 H   0  0  0  0  0  0  0  0  0  0  0  0
    6.4752   -1.0166   -2.9568 H   0  0  0  0  0  0  0  0  0  0  0  0
    7.9888    0.5294   -4.1191 H   0  0  0  0  0  0  0  0  0  0  0  0
  1  2  1  0
  2  3  1  0
  3  4  2  0
  4  5  1  0
  5  6  2  0
  6  7  1  0
  7  8  1  0
  8  9  1  0
  9 10  1  0
 10 11  1  0
 11 12  2  0
 12 13  1  0
 13 14  2  0
 14 15  1  0
 15 16  1  0
 16 17  1  0
 17 18  1  0
 18 19  2  0
 18 20  1  0
 20 21  2  0
 21 22  1  0
 22 23  2  0
 23 24  1  0
 24 25  1  0
 23 26  1  0
 26 27  2  0
 14 28  1  0
 28 29  1  0
  6 30  1  0
 30 31  2  0
 31  3  1  0
 28 11  1  0
 27 20  1  0
  1 32  1  0
  1 33  1  0
  1 34  1  0
  4 35  1  0
  5 36  1  0
  8 37  1  0
  8 38  1  0
  9 39  1  0
  9 40  1  0
 15 41  1  0
 15 42  1  0
 16 43  1  0
 16 44  1  0
 17 45  1  0
 21 46  1  0
 22 47  1  0
 25 48  1  0
 25 49  1  0
 25 50  1  0
 26 51  1  0
 27 52  1  0
 29 53  1  0
 29 54  1  0
 29 55  1  0
 30 56  1  0
 31 57  1  0
M  END
$$$$
