
     RDKit          3D

 32 33  0  0  0  0  0  0  0  0999 V2000
   -5.8570   -0.5938   -0.0686 C   0  0  0  0  0  0  0  0  0  0  0  0
   -4.3653   -0.5212   -0.2155 C   0  0  0  0  0  0  0  0  0  0  0  0
   -3.7756   -0.5504   -1.4855 C   0  0  0  0  0  0  0  0  0  0  0  0
   -2.3843   -0.5173   -1.6232 C   0  0  0  0  0  0  0  0  0  0  0  0
   -1.7227   -0.5903   -3.2178 Cl  0  0  0  0  0  0  0  0  0  0  0  0
   -1.5637   -0.4431   -0.4911 C   0  0  0  0  0  0  0  0  0  0  0  0
   -0.1969   -0.4411   -0.6220 O   0  0  0  0  0  0  0  0  0  0  0  0
    0.2996    0.8972   -0.7528 C   0  0  0  0  0  0  0  0  0  0  0  0
    1.8209    0.8432   -0.8396 C   0  0  0  0  0  0  0  0  0  0  0  0
    2.4373    0.2161    0.4093 C   0  0  0  0  0  0  0  0  0  0  0  0
    3.8860    0.2369    0.3647 N   0  0  0  0  0  0  0  0  0  0  0  0
    4.6918   -0.7136   -0.1950 C   0  0  0  0  0  0  0  0  0  0  0  0
    5.9724   -0.2579    0.0153 C   0  0  0  0  0  0  0  0  0  0  0  0
    5.9599    0.9366    0.6893 N   0  0  0  0  0  0  0  0  0  0  0  0
    4.6897    1.2067    0.8909 C   0  0  0  0  0  0  0  0  0  0  0  0
   -2.1491   -0.4628    0.7802 C   0  0  0  0  0  0  0  0  0  0  0  0
   -1.0988   -0.4665    2.3625 Br  0  0  0  0  0  0  0  0  0  0  0  0
   -3.5410   -0.4960    0.9167 C   0  0  0  0  0  0  0  0  0  0  0  0
   -6.1856   -0.0724    0.8365 H   0  0  0  0  0  0  0  0  0  0  0  0
   -6.1768   -1.6388   -0.0115 H   0  0  0  0  0  0  0  0  0  0  0  0
   -6.3565   -0.1159   -0.9179 H   0  0  0  0  0  0  0  0  0  0  0  0
   -4.4029   -0.6082   -2.3731 H   0  0  0  0  0  0  0  0  0  0  0  0
   -0.0005    1.5091    0.1069 H   0  0  0  0  0  0  0  0  0  0  0  0
   -0.0922    1.3634   -1.6643 H   0  0  0  0  0  0  0  0  0  0  0  0
    2.1140    0.2535   -1.7174 H   0  0  0  0  0  0  0  0  0  0  0  0
    2.2110    1.8574   -0.9869 H   0  0  0  0  0  0  0  0  0  0  0  0
    2.1289    0.7565    1.3117 H   0  0  0  0  0  0  0  0  0  0  0  0
    2.1318   -0.8299    0.5262 H   0  0  0  0  0  0  0  0  0  0  0  0
    4.3064   -1.5996   -0.6797 H   0  0  0  0  0  0  0  0  0  0  0  0
    6.9019   -0.7260   -0.2815 H   0  0  0  0  0  0  0  0  0  0  0  0
    4.3061    2.0794    1.4029 H   0  0  0  0  0  0  0  0  0  0  0  0
   -3.9890   -0.5111    1.9088 H   0  0  0  0  0  0  0  0  0  0  0  0
  1  2  1  0
  2  3  2  0
  3  4  1  0
  4  5  1  0
  4  6  2  0
  6  7  1  0
  7  8  1  0
  8  9  1  0
  9 10  1  0
 10 11  1  0
 11 12  1  0
 12 13  2  0
 13 14  1  0
 14 15  2  0
  6 16  1  0
 16 17  1  0
 16 18  2  0
 18  2  1  0
 15 11  1  0
  1 19  1  0
  1 20  1  0
  1 21  1  0
  3 22  1  0
  8 23  1  0
  8 24  1  0
  9 25  1  0
  9 26  1  0
 10 27  1  0
 10 28  1  0
 12 29  1  0
 13 30  1  0
 15 31  1  0
 18 32  1  0
M  END
$$$$
