
     RDKit          3D

 85 89  0  0  0  0  0  0  0  0999 V2000
    5.7381   -0.1060   -0.8640 C   0  0  0  0  0  0  0  0  0  0  0  0
    6.0397   -0.0629    0.6296 C   0  0  0  0  0  0  0  0  0  0  0  0
    4.9074    0.6052    1.4217 C   0  0  0  0  0  0  0  0  0  0  0  0
    3.7494   -0.2332    1.3325 O   0  0  0  0  0  0  0  0  0  0  0  0
    2.5685    0.3501    1.8944 C   0  0  0  0  0  0  0  0  0  0  0  0
    2.7991    0.6543    3.3870 C   0  0  0  0  0  0  0  0  0  0  0  0
    4.0631    1.4853    3.6058 C   0  0  0  0  0  0  0  0  0  0  0  0
    5.2755    0.8653    2.8967 C   0  0  0  0  0  0  0  0  0  0  0  0
    5.7439   -0.3953    3.6350 C   0  0  0  0  0  0  0  0  0  0  0  0
    1.4267   -0.6825    1.7350 C   0  0  0  0  0  0  0  0  0  0  0  0
    0.1052    0.0398    1.5253 C   0  0  0  0  0  0  0  0  0  0  0  0
    0.1500    0.9319    0.2908 C   0  0  0  0  0  0  0  0  0  0  0  0
    1.5643    1.4299    0.0069 C   0  0  0  0  0  0  0  0  0  0  0  0
    1.5318    2.7724   -0.7400 C   0  0  0  0  0  0  0  0  0  0  0  0
    0.9687    2.6458   -2.1317 C   0  0  0  0  0  0  0  0  0  0  0  0
   -0.1957    3.1128   -2.6296 C   0  0  0  0  0  0  0  0  0  0  0  0
   -0.4805    2.9312   -4.1034 C   0  0  0  0  0  0  0  0  0  0  0  0
   -1.2403    3.9065   -1.8550 C   0  0  0  0  0  0  0  0  0  0  0  0
   -2.6959    3.3660   -1.9349 C   0  0  0  0  0  0  0  0  0  0  0  0
   -3.6792    4.5424   -2.0437 C   0  0  0  0  0  0  0  0  0  0  0  0
   -3.0889    2.5369   -0.7262 C   0  0  0  0  0  0  0  0  0  0  0  0
   -3.2235    1.2031   -0.6280 C   0  0  0  0  0  0  0  0  0  0  0  0
   -2.8944    0.2411   -1.6513 C   0  0  0  0  0  0  0  0  0  0  0  0
   -3.0081   -1.0960   -1.5595 C   0  0  0  0  0  0  0  0  0  0  0  0
   -2.5421   -1.9927   -2.6776 C   0  0  0  0  0  0  0  0  0  0  0  0
   -2.9143   -3.3298   -2.3114 O   0  0  0  0  0  0  0  0  0  0  0  0
   -3.9793   -3.1783   -1.3642 C   0  0  0  0  0  0  0  0  0  0  0  0
   -4.2631   -4.4763   -0.6024 C   0  0  0  0  0  0  0  0  0  0  0  0
   -5.5509   -4.3880    0.0149 O   0  0  0  0  0  0  0  0  0  0  0  0
   -3.2882   -4.7672    0.5020 C   0  0  0  0  0  0  0  0  0  0  0  0
   -3.1939   -6.1998    0.9425 C   0  0  0  0  0  0  0  0  0  0  0  0
   -2.5536   -3.7985    1.0731 C   0  0  0  0  0  0  0  0  0  0  0  0
   -2.6578   -2.3334    0.7147 C   0  0  0  0  0  0  0  0  0  0  0  0
   -1.2458   -1.7622    0.5856 C   0  0  0  0  0  0  0  0  0  0  0  0
   -0.4023   -2.1171   -0.2240 O   0  0  0  0  0  0  0  0  0  0  0  0
   -1.0680   -0.7968    1.5339 O   0  0  0  0  0  0  0  0  0  0  0  0
   -3.5935   -1.9808   -0.4793 C   0  0  0  0  0  0  0  0  0  0  0  0
   -4.8023   -1.3967    0.0364 O   0  0  0  0  0  0  0  0  0  0  0  0
    2.2485    1.5984    1.2511 O   0  0  0  0  0  0  0  0  0  0  0  0
    6.5666   -0.5788   -1.4015 H   0  0  0  0  0  0  0  0  0  0  0  0
    4.8299   -0.6803   -1.0719 H   0  0  0  0  0  0  0  0  0  0  0  0
    5.6066    0.9039   -1.2655 H   0  0  0  0  0  0  0  0  0  0  0  0
    6.1849   -1.0953    0.9683 H   0  0  0  0  0  0  0  0  0  0  0  0
    6.9784    0.4806    0.7863 H   0  0  0  0  0  0  0  0  0  0  0  0
    4.6887    1.5672    0.9392 H   0  0  0  0  0  0  0  0  0  0  0  0
    1.9435    1.1987    3.8038 H   0  0  0  0  0  0  0  0  0  0  0  0
    2.8994   -0.2812    3.9510 H   0  0  0  0  0  0  0  0  0  0  0  0
    3.8992    2.4969    3.2132 H   0  0  0  0  0  0  0  0  0  0  0  0
    4.2547    1.5974    4.6793 H   0  0  0  0  0  0  0  0  0  0  0  0
    6.0988    1.5906    2.9325 H   0  0  0  0  0  0  0  0  0  0  0  0
    5.8880   -0.1885    4.7009 H   0  0  0  0  0  0  0  0  0  0  0  0
    5.0286   -1.2185    3.5418 H   0  0  0  0  0  0  0  0  0  0  0  0
    6.7057   -0.7420    3.2437 H   0  0  0  0  0  0  0  0  0  0  0  0
    1.3715   -1.3662    2.5903 H   0  0  0  0  0  0  0  0  0  0  0  0
    1.6410   -1.3354    0.8801 H   0  0  0  0  0  0  0  0  0  0  0  0
   -0.0403    0.6957    2.3938 H   0  0  0  0  0  0  0  0  0  0  0  0
   -0.2430    0.4353   -0.6008 H   0  0  0  0  0  0  0  0  0  0  0  0
   -0.5207    1.7772    0.4848 H   0  0  0  0  0  0  0  0  0  0  0  0
    2.1142    0.6987   -0.6006 H   0  0  0  0  0  0  0  0  0  0  0  0
    1.0041    3.5223   -0.1414 H   0  0  0  0  0  0  0  0  0  0  0  0
    2.5573    3.1569   -0.8201 H   0  0  0  0  0  0  0  0  0  0  0  0
    1.6356    2.1099   -2.8095 H   0  0  0  0  0  0  0  0  0  0  0  0
   -1.2577    2.1782   -4.2620 H   0  0  0  0  0  0  0  0  0  0  0  0
    0.4065    2.6081   -4.6594 H   0  0  0  0  0  0  0  0  0  0  0  0
   -0.8105    3.8764   -4.5462 H   0  0  0  0  0  0  0  0  0  0  0  0
   -1.2094    4.9237   -2.2697 H   0  0  0  0  0  0  0  0  0  0  0  0
   -0.9557    4.0177   -0.8035 H   0  0  0  0  0  0  0  0  0  0  0  0
   -2.8412    2.7792   -2.8466 H   0  0  0  0  0  0  0  0  0  0  0  0
   -4.7164    4.1888   -2.0796 H   0  0  0  0  0  0  0  0  0  0  0  0
   -3.4942    5.1139   -2.9601 H   0  0  0  0  0  0  0  0  0  0  0  0
   -3.5836    5.2275   -1.1934 H   0  0  0  0  0  0  0  0  0  0  0  0
   -3.3256    3.1126    0.1699 H   0  0  0  0  0  0  0  0  0  0  0  0
   -3.5650    0.8028    0.3259 H   0  0  0  0  0  0  0  0  0  0  0  0
   -2.4473    0.6425   -2.5586 H   0  0  0  0  0  0  0  0  0  0  0  0
   -3.0367   -1.7453   -3.6228 H   0  0  0  0  0  0  0  0  0  0  0  0
   -1.4572   -1.9611   -2.8088 H   0  0  0  0  0  0  0  0  0  0  0  0
   -4.8899   -2.9344   -1.9348 H   0  0  0  0  0  0  0  0  0  0  0  0
   -4.2672   -5.3152   -1.3098 H   0  0  0  0  0  0  0  0  0  0  0  0
   -6.2022   -4.6285   -0.6678 H   0  0  0  0  0  0  0  0  0  0  0  0
   -2.4760   -6.3340    1.7584 H   0  0  0  0  0  0  0  0  0  0  0  0
   -2.8717   -6.8327    0.1091 H   0  0  0  0  0  0  0  0  0  0  0  0
   -4.1680   -6.5551    1.2936 H   0  0  0  0  0  0  0  0  0  0  0  0
   -1.8629   -4.0516    1.8770 H   0  0  0  0  0  0  0  0  0  0  0  0
   -3.0930   -1.8671    1.6128 H   0  0  0  0  0  0  0  0  0  0  0  0
   -5.2860   -2.1163    0.4898 H   0  0  0  0  0  0  0  0  0  0  0  0
  1  2  1  0
  2  3  1  0
  3  4  1  0
  4  5  1  0
  5  6  1  0
  6  7  1  0
  7  8  1  0
  8  9  1  0
  5 10  1  0
 10 11  1  0
 11 12  1  0
 12 13  1  0
 13 14  1  0
 14 15  1  0
 15 16  2  3
 16 17  1  0
 16 18  1  0
 18 19  1  0
 19 20  1  0
 19 21  1  0
 21 22  2  3
 22 23  1  0
 23 24  2  3
 24 25  1  0
 25 26  1  0
 26 27  1  0
 27 28  1  0
 28 29  1  0
 28 30  1  0
 30 31  1  0
 30 32  2  0
 32 33  1  0
 33 34  1  0
 34 35  2  0
 34 36  1  0
 33 37  1  0
 37 38  1  0
 13 39  1  0
  8  3  1  0
 36 11  1  0
 39  5  1  0
 37 24  1  0
 37 27  1  0
  1 40  1  0
  1 41  1  0
  1 42  1  0
  2 43  1  0
  2 44  1  0
  3 45  1  0
  6 46  1  0
  6 47  1  0
  7 48  1  0
  7 49  1  0
  8 50  1  0
  9 51  1  0
  9 52  1  0
  9 53  1  0
 10 54  1  0
 10 55  1  0
 11 56  1  0
 12 57  1  0
 12 58  1  0
 13 59  1  0
 14 60  1  0
 14 61  1  0
 15 62  1  0
 17 63  1  0
 17 64  1  0
 17 65  1  0
 18 66  1  0
 18 67  1  0
 19 68  1  0
 20 69  1  0
 20 70  1  0
 20 71  1  0
 21 72  1  0
 22 73  1  0
 23 74  1  0
 25 75  1  0
 25 76  1  0
 27 77  1  0
 28 78  1  0
 29 79  1  0
 31 80  1  0
 31 81  1  0
 31 82  1  0
 32 83  1  0
 33 84  1  0
 38 85  1  0
M  END
$$$$
