
     RDKit          3D

 35 37  0  0  0  0  0  0  0  0999 V2000
   -3.1645    1.6251   -0.0429 C   0  0  0  0  0  0  0  0  0  0  0  0
   -3.9788    0.3598   -0.0757 C   0  0  0  0  0  0  0  0  0  0  0  0
   -5.3452    0.4189   -0.3873 C   0  0  0  0  0  0  0  0  0  0  0  0
   -6.1145   -0.7456   -0.4134 C   0  0  0  0  0  0  0  0  0  0  0  0
   -5.5309   -1.9750   -0.1122 C   0  0  0  0  0  0  0  0  0  0  0  0
   -4.1738   -2.0457    0.2044 C   0  0  0  0  0  0  0  0  0  0  0  0
   -3.3931   -0.8865    0.2077 C   0  0  0  0  0  0  0  0  0  0  0  0
   -2.0606   -0.8774    0.5259 O   0  0  0  0  0  0  0  0  0  0  0  0
   -1.3251   -2.0106    0.0614 C   0  0  0  0  0  0  0  0  0  0  0  0
    0.1738   -1.6974    0.0133 C   0  0  0  0  0  0  0  0  0  0  0  0
    0.9668   -2.5236   -0.4267 O   0  0  0  0  0  0  0  0  0  0  0  0
    0.4698   -0.4502    0.5168 N   0  0  0  0  0  0  0  0  0  0  0  0
    1.6950    0.1559    0.5896 C   0  0  0  0  0  0  0  0  0  0  0  0
    1.8525    1.3466    1.1250 N   0  0  0  0  0  0  0  0  0  0  0  0
    3.1677    1.7678    1.0765 N   0  0  0  0  0  0  0  0  0  0  0  0
    3.9482    0.8734    0.5003 C   0  0  0  0  0  0  0  0  0  0  0  0
    5.3573    1.0701    0.3184 C   0  0  0  0  0  0  0  0  0  0  0  0
    6.1168    2.1813    0.6588 C   0  0  0  0  0  0  0  0  0  0  0  0
    7.4550    1.9117    0.2862 C   0  0  0  0  0  0  0  0  0  0  0  0
    7.4466    0.6522   -0.2619 C   0  0  0  0  0  0  0  0  0  0  0  0
    6.1928    0.1358   -0.2480 O   0  0  0  0  0  0  0  0  0  0  0  0
    3.1263   -0.5412   -0.0143 S   0  0  0  0  0  0  0  0  0  0  0  0
   -2.8173    1.8206    0.9767 H   0  0  0  0  0  0  0  0  0  0  0  0
   -3.7484    2.4912   -0.3720 H   0  0  0  0  0  0  0  0  0  0  0  0
   -2.3014    1.5393   -0.7119 H   0  0  0  0  0  0  0  0  0  0  0  0
   -5.8196    1.3724   -0.6120 H   0  0  0  0  0  0  0  0  0  0  0  0
   -7.1729   -0.6899   -0.6556 H   0  0  0  0  0  0  0  0  0  0  0  0
   -6.1370   -2.8790   -0.1100 H   0  0  0  0  0  0  0  0  0  0  0  0
   -3.7543   -3.0140    0.4672 H   0  0  0  0  0  0  0  0  0  0  0  0
   -1.6291   -2.2864   -0.9554 H   0  0  0  0  0  0  0  0  0  0  0  0
   -1.4621   -2.8484    0.7549 H   0  0  0  0  0  0  0  0  0  0  0  0
   -0.2995    0.0962    0.8908 H   0  0  0  0  0  0  0  0  0  0  0  0
    5.7345    3.0827    1.1219 H   0  0  0  0  0  0  0  0  0  0  0  0
    8.3155    2.5562    0.4014 H   0  0  0  0  0  0  0  0  0  0  0  0
    8.2093    0.0135   -0.6863 H   0  0  0  0  0  0  0  0  0  0  0  0
  1  2  1  0
  2  3  2  0
  3  4  1  0
  4  5  2  0
  5  6  1  0
  6  7  2  0
  7  8  1  0
  8  9  1  0
  9 10  1  0
 10 11  2  0
 10 12  1  0
 12 13  1  0
 13 14  2  0
 14 15  1  0
 15 16  2  0
 16 17  1  0
 17 18  2  0
 18 19  1  0
 19 20  2  0
 20 21  1  0
 16 22  1  0
  7  2  1  0
 22 13  1  0
 21 17  1  0
  1 23  1  0
  1 24  1  0
  1 25  1  0
  3 26  1  0
  4 27  1  0
  5 28  1  0
  6 29  1  0
  9 30  1  0
  9 31  1  0
 12 32  1  0
 18 33  1  0
 19 34  1  0
 20 35  1  0
M  END
$$$$
