
     RDKit          3D

 42 43  0  0  0  0  0  0  0  0999 V2000
   -5.6190    2.2103    0.3922 C   0  0  0  0  0  0  0  0  0  0  0  0
   -4.5327    1.2296    0.7001 C   0  0  0  0  0  0  0  0  0  0  0  0
   -4.0695    0.2313   -0.0807 C   0  0  0  0  0  0  0  0  0  0  0  0
   -4.6265   -0.1233   -1.4347 C   0  0  0  0  0  0  0  0  0  0  0  0
   -2.9336   -0.6586    0.3955 C   0  0  0  0  0  0  0  0  0  0  0  0
   -1.7919   -0.6767   -0.5273 N   0  0  0  0  0  0  0  0  0  0  0  0
   -1.0385    0.5971   -0.5325 C   0  0  0  0  0  0  0  0  0  0  0  0
    0.2244    0.6390    0.3607 C   0  0  0  0  0  0  0  0  0  0  0  0
    1.1529   -0.4549    0.0287 N   0  0  0  0  0  0  0  0  0  0  0  0
    2.5186   -0.3222    0.2160 C   0  0  0  0  0  0  0  0  0  0  0  0
    3.4483   -1.0945   -0.4973 C   0  0  0  0  0  0  0  0  0  0  0  0
    4.8312   -0.9643   -0.3049 C   0  0  0  0  0  0  0  0  0  0  0  0
    5.3349   -0.0582    0.6274 C   0  0  0  0  0  0  0  0  0  0  0  0
    6.8123    0.1087    0.8133 C   0  0  0  0  0  0  0  0  0  0  0  0
    4.4326    0.7289    1.3416 C   0  0  0  0  0  0  0  0  0  0  0  0
    3.0522    0.5910    1.1393 C   0  0  0  0  0  0  0  0  0  0  0  0
    0.5687   -1.6215   -0.6507 C   0  0  0  0  0  0  0  0  0  0  0  0
   -0.9009   -1.8166   -0.2125 C   0  0  0  0  0  0  0  0  0  0  0  0
   -5.9571    2.1789   -0.6453 H   0  0  0  0  0  0  0  0  0  0  0  0
   -5.2566    3.2257    0.5836 H   0  0  0  0  0  0  0  0  0  0  0  0
   -6.4792    2.0287    1.0435 H   0  0  0  0  0  0  0  0  0  0  0  0
   -4.0710    1.3805    1.6755 H   0  0  0  0  0  0  0  0  0  0  0  0
   -4.7919   -1.2041   -1.5041 H   0  0  0  0  0  0  0  0  0  0  0  0
   -3.9288    0.1710   -2.2252 H   0  0  0  0  0  0  0  0  0  0  0  0
   -5.5888    0.3503   -1.6416 H   0  0  0  0  0  0  0  0  0  0  0  0
   -3.3490   -1.6724    0.4816 H   0  0  0  0  0  0  0  0  0  0  0  0
   -2.6043   -0.3779    1.4049 H   0  0  0  0  0  0  0  0  0  0  0  0
   -0.7184    0.7647   -1.5699 H   0  0  0  0  0  0  0  0  0  0  0  0
   -1.6778    1.4533   -0.2893 H   0  0  0  0  0  0  0  0  0  0  0  0
    0.6992    1.6152    0.2038 H   0  0  0  0  0  0  0  0  0  0  0  0
   -0.0629    0.5647    1.4164 H   0  0  0  0  0  0  0  0  0  0  0  0
    3.1151   -1.8059   -1.2473 H   0  0  0  0  0  0  0  0  0  0  0  0
    5.5064   -1.5784   -0.8960 H   0  0  0  0  0  0  0  0  0  0  0  0
    7.1934    0.8672    0.1227 H   0  0  0  0  0  0  0  0  0  0  0  0
    7.0452    0.4147    1.8386 H   0  0  0  0  0  0  0  0  0  0  0  0
    7.3382   -0.8341    0.6289 H   0  0  0  0  0  0  0  0  0  0  0  0
    4.7900    1.4544    2.0683 H   0  0  0  0  0  0  0  0  0  0  0  0
    2.3945    1.2081    1.7449 H   0  0  0  0  0  0  0  0  0  0  0  0
    0.6272   -1.4903   -1.7380 H   0  0  0  0  0  0  0  0  0  0  0  0
    1.1114   -2.5371   -0.3862 H   0  0  0  0  0  0  0  0  0  0  0  0
   -0.8961   -2.0074    0.8701 H   0  0  0  0  0  0  0  0  0  0  0  0
   -1.3022   -2.7149   -0.6958 H   0  0  0  0  0  0  0  0  0  0  0  0
  1  2  1  0
  2  3  2  3
  3  4  1  0
  3  5  1  0
  5  6  1  0
  6  7  1  0
  7  8  1  0
  8  9  1  0
  9 10  1  0
 10 11  2  0
 11 12  1  0
 12 13  2  0
 13 14  1  0
 13 15  1  0
 15 16  2  0
  9 17  1  0
 17 18  1  0
 18  6  1  0
 16 10  1  0
  1 19  1  0
  1 20  1  0
  1 21  1  0
  2 22  1  0
  4 23  1  0
  4 24  1  0
  4 25  1  0
  5 26  1  0
  5 27  1  0
  7 28  1  0
  7 29  1  0
  8 30  1  0
  8 31  1  0
 11 32  1  0
 12 33  1  0
 14 34  1  0
 14 35  1  0
 14 36  1  0
 15 37  1  0
 16 38  1  0
 17 39  1  0
 17 40  1  0
 18 41  1  0
 18 42  1  0
M  END
$$$$
