
     RDKit          3D

 37 39  0  0  0  0  0  0  0  0999 V2000
   -7.5996    0.4118    1.0074 C   0  0  0  0  0  0  0  0  0  0  0  0
   -6.9847    0.1923   -0.3658 C   0  0  0  0  0  0  0  0  0  0  0  0
   -5.5084   -0.0068   -0.2792 C   0  0  0  0  0  0  0  0  0  0  0  0
   -4.9192   -1.1624   -0.0515 N   0  0  0  0  0  0  0  0  0  0  0  0
   -3.5440   -1.0422   -0.0240 N   0  0  0  0  0  0  0  0  0  0  0  0
   -3.1483    0.1942   -0.2322 C   0  0  0  0  0  0  0  0  0  0  0  0
   -1.8248    0.5443   -0.2478 N   0  0  0  0  0  0  0  0  0  0  0  0
   -1.2876    1.7933   -0.4528 C   0  0  0  0  0  0  0  0  0  0  0  0
   -1.9001    2.8365   -0.6620 O   0  0  0  0  0  0  0  0  0  0  0  0
    0.2435    1.7963   -0.3985 C   0  0  0  0  0  0  0  0  0  0  0  0
    0.7522    0.4889   -0.1449 O   0  0  0  0  0  0  0  0  0  0  0  0
    2.1118    0.3561   -0.0723 C   0  0  0  0  0  0  0  0  0  0  0  0
    3.0441    1.3801   -0.2233 C   0  0  0  0  0  0  0  0  0  0  0  0
    4.4122    1.1033   -0.1244 C   0  0  0  0  0  0  0  0  0  0  0  0
    4.8691   -0.1994    0.1266 C   0  0  0  0  0  0  0  0  0  0  0  0
    6.2392   -0.4907    0.2281 C   0  0  0  0  0  0  0  0  0  0  0  0
    6.6743   -1.7931    0.4783 C   0  0  0  0  0  0  0  0  0  0  0  0
    5.7464   -2.8192    0.6299 C   0  0  0  0  0  0  0  0  0  0  0  0
    4.3813   -2.5453    0.5317 C   0  0  0  0  0  0  0  0  0  0  0  0
    3.9274   -1.2401    0.2803 C   0  0  0  0  0  0  0  0  0  0  0  0
    2.5576   -0.9454    0.1781 C   0  0  0  0  0  0  0  0  0  0  0  0
   -4.4166    1.3038   -0.4776 S   0  0  0  0  0  0  0  0  0  0  0  0
   -7.1934    1.3094    1.4862 H   0  0  0  0  0  0  0  0  0  0  0  0
   -8.6840    0.5341    0.9221 H   0  0  0  0  0  0  0  0  0  0  0  0
   -7.4046   -0.4388    1.6695 H   0  0  0  0  0  0  0  0  0  0  0  0
   -7.4365   -0.6950   -0.8250 H   0  0  0  0  0  0  0  0  0  0  0  0
   -7.2267    1.0399   -1.0174 H   0  0  0  0  0  0  0  0  0  0  0  0
   -1.1818   -0.2234   -0.0866 H   0  0  0  0  0  0  0  0  0  0  0  0
    0.5340    2.4782    0.4091 H   0  0  0  0  0  0  0  0  0  0  0  0
    0.5978    2.1577   -1.3708 H   0  0  0  0  0  0  0  0  0  0  0  0
    2.7499    2.4060   -0.4186 H   0  0  0  0  0  0  0  0  0  0  0  0
    5.1229    1.9183   -0.2457 H   0  0  0  0  0  0  0  0  0  0  0  0
    6.9797    0.2976    0.1127 H   0  0  0  0  0  0  0  0  0  0  0  0
    7.7375   -2.0053    0.5546 H   0  0  0  0  0  0  0  0  0  0  0  0
    6.0837   -3.8339    0.8248 H   0  0  0  0  0  0  0  0  0  0  0  0
    3.6716   -3.3608    0.6531 H   0  0  0  0  0  0  0  0  0  0  0  0
    1.8239   -1.7403    0.2950 H   0  0  0  0  0  0  0  0  0  0  0  0
  1  2  1  0
  2  3  1  0
  3  4  2  0
  4  5  1  0
  5  6  2  0
  6  7  1  0
  7  8  1  0
  8  9  2  0
  8 10  1  0
 10 11  1  0
 11 12  1  0
 12 13  2  0
 13 14  1  0
 14 15  2  0
 15 16  1  0
 16 17  2  0
 17 18  1  0
 18 19  2  0
 19 20  1  0
 20 21  2  0
  6 22  1  0
 22  3  1  0
 21 12  1  0
 20 15  1  0
  1 23  1  0
  1 24  1  0
  1 25  1  0
  2 26  1  0
  2 27  1  0
  7 28  1  0
 10 29  1  0
 10 30  1  0
 13 31  1  0
 14 32  1  0
 16 33  1  0
 17 34  1  0
 18 35  1  0
 19 36  1  0
 21 37  1  0
M  END
$$$$
