
     RDKit          3D

 32 33  0  0  0  0  0  0  0  0999 V2000
   -5.9776   -0.3986   -0.7252 C   0  0  0  0  0  0  0  0  0  0  0  0
   -4.5468   -0.2682   -0.2917 C   0  0  0  0  0  0  0  0  0  0  0  0
   -3.8062   -1.4040    0.0585 C   0  0  0  0  0  0  0  0  0  0  0  0
   -2.4647   -1.2879    0.4366 C   0  0  0  0  0  0  0  0  0  0  0  0
   -1.6250   -2.7239    0.9053 Cl  0  0  0  0  0  0  0  0  0  0  0  0
   -1.8366   -0.0365    0.4393 C   0  0  0  0  0  0  0  0  0  0  0  0
   -0.5293    0.0858    0.8407 O   0  0  0  0  0  0  0  0  0  0  0  0
    0.3630   -0.0796   -0.2689 C   0  0  0  0  0  0  0  0  0  0  0  0
    1.7771    0.1863    0.2331 C   0  0  0  0  0  0  0  0  0  0  0  0
    2.7978    0.0309   -0.8858 C   0  0  0  0  0  0  0  0  0  0  0  0
    4.1513    0.2706   -0.4299 N   0  0  0  0  0  0  0  0  0  0  0  0
    5.0192   -0.6662    0.0549 C   0  0  0  0  0  0  0  0  0  0  0  0
    6.1725    0.0313    0.3296 C   0  0  0  0  0  0  0  0  0  0  0  0
    6.0248    1.3584    0.0179 N   0  0  0  0  0  0  0  0  0  0  0  0
    4.7973    1.4731   -0.4368 C   0  0  0  0  0  0  0  0  0  0  0  0
   -2.5795    1.1023    0.1067 C   0  0  0  0  0  0  0  0  0  0  0  0
   -1.8181    2.8414    0.1590 Br  0  0  0  0  0  0  0  0  0  0  0  0
   -3.9214    0.9849   -0.2714 C   0  0  0  0  0  0  0  0  0  0  0  0
   -6.5394    0.5146   -0.5018 H   0  0  0  0  0  0  0  0  0  0  0  0
   -6.4713   -1.2210   -0.1963 H   0  0  0  0  0  0  0  0  0  0  0  0
   -6.0260   -0.5889   -1.8019 H   0  0  0  0  0  0  0  0  0  0  0  0
   -4.2797   -2.3842    0.0487 H   0  0  0  0  0  0  0  0  0  0  0  0
    0.2960   -1.1004   -0.6629 H   0  0  0  0  0  0  0  0  0  0  0  0
    0.1162    0.6246   -1.0730 H   0  0  0  0  0  0  0  0  0  0  0  0
    1.8290    1.1949    0.6627 H   0  0  0  0  0  0  0  0  0  0  0  0
    2.0063   -0.4963    1.0615 H   0  0  0  0  0  0  0  0  0  0  0  0
    2.5952    0.7340   -1.7020 H   0  0  0  0  0  0  0  0  0  0  0  0
    2.7672   -0.9811   -1.3067 H   0  0  0  0  0  0  0  0  0  0  0  0
    4.7597   -1.7096    0.1650 H   0  0  0  0  0  0  0  0  0  0  0  0
    7.1011   -0.3516    0.7328 H   0  0  0  0  0  0  0  0  0  0  0  0
    4.3361    2.3910   -0.7778 H   0  0  0  0  0  0  0  0  0  0  0  0
   -4.4882    1.8740   -0.5420 H   0  0  0  0  0  0  0  0  0  0  0  0
  1  2  1  0
  2  3  2  0
  3  4  1  0
  4  5  1  0
  4  6  2  0
  6  7  1  0
  7  8  1  0
  8  9  1  0
  9 10  1  0
 10 11  1  0
 11 12  1  0
 12 13  2  0
 13 14  1  0
 14 15  2  0
  6 16  1  0
 16 17  1  0
 16 18  2  0
 18  2  1  0
 15 11  1  0
  1 19  1  0
  1 20  1  0
  1 21  1  0
  3 22  1  0
  8 23  1  0
  8 24  1  0
  9 25  1  0
  9 26  1  0
 10 27  1  0
 10 28  1  0
 12 29  1  0
 13 30  1  0
 15 31  1  0
 18 32  1  0
M  END
$$$$
