
     RDKit          3D

 58 60  0  0  0  0  0  0  0  0999 V2000
   -1.7083    4.1971    1.8574 C   0  0  0  0  0  0  0  0  0  0  0  0
   -2.3695    2.9490    1.3317 C   0  0  0  0  0  0  0  0  0  0  0  0
   -3.7763    2.8984    1.3396 C   0  0  0  0  0  0  0  0  0  0  0  0
   -4.4528    1.7872    0.8444 C   0  0  0  0  0  0  0  0  0  0  0  0
   -3.7191    0.7204    0.3274 C   0  0  0  0  0  0  0  0  0  0  0  0
   -4.5671   -0.7178   -0.2799 S   0  0  0  0  0  6  0  0  0  0  0  0
   -5.9546   -0.6352    0.1271 O   0  0  0  0  0  0  0  0  0  0  0  0
   -3.7667   -1.8821    0.0390 O   0  0  0  0  0  0  0  0  0  0  0  0
   -4.5196   -0.4930   -1.9742 N   0  0  0  0  0  0  0  0  0  0  0  0
   -5.1996    0.7480   -2.4772 C   0  0  0  0  0  0  0  0  0  0  0  0
   -5.5894    0.5882   -3.9492 C   0  0  0  0  0  0  0  0  0  0  0  0
   -6.5689   -0.4426   -4.1330 O   0  0  0  0  0  0  0  0  0  0  0  0
   -6.3614   -1.5787   -3.2756 C   0  0  0  0  0  0  0  0  0  0  0  0
   -4.9280   -1.7118   -2.7518 C   0  0  0  0  0  0  0  0  0  0  0  0
   -2.3197    0.7458    0.3208 C   0  0  0  0  0  0  0  0  0  0  0  0
   -1.6285    1.8560    0.8184 C   0  0  0  0  0  0  0  0  0  0  0  0
   -0.2140    1.9186    0.8596 N   0  0  0  0  0  0  0  0  0  0  0  0
    0.6899    0.9125    0.5439 C   0  0  0  0  0  0  0  0  0  0  0  0
    0.4221   -0.1987    0.0914 O   0  0  0  0  0  0  0  0  0  0  0  0
    2.1449    1.3081    0.8281 C   0  0  0  0  0  0  0  0  0  0  0  0
    2.9407    0.1833    1.1993 O   0  0  0  0  0  0  0  0  0  0  0  0
    2.6713   -0.2903    2.4500 C   0  0  0  0  0  0  0  0  0  0  0  0
    1.8709    0.2292    3.2238 O   0  0  0  0  0  0  0  0  0  0  0  0
    3.4408   -1.5691    2.7686 C   0  0  0  0  0  0  0  0  0  0  0  0
    4.3925   -1.9804    1.7447 N   0  0  0  0  0  0  0  0  0  0  0  0
    5.6456   -1.3982    1.7051 C   0  0  0  0  0  0  0  0  0  0  0  0
    6.0296   -0.5922    2.5478 O   0  0  0  0  0  0  0  0  0  0  0  0
    6.5023   -1.7443    0.5377 C   0  0  0  0  0  0  0  0  0  0  0  0
    7.5110   -0.8461    0.1610 C   0  0  0  0  0  0  0  0  0  0  0  0
    8.3318   -1.1289   -0.9321 C   0  0  0  0  0  0  0  0  0  0  0  0
    8.1549   -2.3116   -1.6502 C   0  0  0  0  0  0  0  0  0  0  0  0
    7.1644   -3.2187   -1.2693 C   0  0  0  0  0  0  0  0  0  0  0  0
    6.3398   -2.9398   -0.1757 C   0  0  0  0  0  0  0  0  0  0  0  0
   -1.0168    3.9493    2.6707 H   0  0  0  0  0  0  0  0  0  0  0  0
   -2.4437    4.8984    2.2665 H   0  0  0  0  0  0  0  0  0  0  0  0
   -1.1773    4.7074    1.0486 H   0  0  0  0  0  0  0  0  0  0  0  0
   -4.3539    3.7328    1.7318 H   0  0  0  0  0  0  0  0  0  0  0  0
   -5.5395    1.7588    0.8725 H   0  0  0  0  0  0  0  0  0  0  0  0
   -6.1068    0.9392   -1.8925 H   0  0  0  0  0  0  0  0  0  0  0  0
   -4.5150    1.5956   -2.3682 H   0  0  0  0  0  0  0  0  0  0  0  0
   -4.7183    0.3413   -4.5657 H   0  0  0  0  0  0  0  0  0  0  0  0
   -6.0131    1.5183   -4.3384 H   0  0  0  0  0  0  0  0  0  0  0  0
   -7.0686   -1.4992   -2.4409 H   0  0  0  0  0  0  0  0  0  0  0  0
   -6.6293   -2.4743   -3.8443 H   0  0  0  0  0  0  0  0  0  0  0  0
   -4.8381   -2.6206   -2.1479 H   0  0  0  0  0  0  0  0  0  0  0  0
   -4.2262   -1.8188   -3.5868 H   0  0  0  0  0  0  0  0  0  0  0  0
   -1.7988   -0.1191   -0.0782 H   0  0  0  0  0  0  0  0  0  0  0  0
    0.1809    2.7475    1.2816 H   0  0  0  0  0  0  0  0  0  0  0  0
    2.5595    1.7202   -0.1003 H   0  0  0  0  0  0  0  0  0  0  0  0
    2.2140    2.0900    1.5965 H   0  0  0  0  0  0  0  0  0  0  0  0
    2.7144   -2.3812    2.8685 H   0  0  0  0  0  0  0  0  0  0  0  0
    3.9697   -1.4235    3.7160 H   0  0  0  0  0  0  0  0  0  0  0  0
    4.0035   -2.3200    0.8742 H   0  0  0  0  0  0  0  0  0  0  0  0
    7.6564    0.0759    0.7208 H   0  0  0  0  0  0  0  0  0  0  0  0
    9.1098   -0.4269   -1.2211 H   0  0  0  0  0  0  0  0  0  0  0  0
    8.7951   -2.5296   -2.5015 H   0  0  0  0  0  0  0  0  0  0  0  0
    7.0374   -4.1476   -1.8221 H   0  0  0  0  0  0  0  0  0  0  0  0
    5.5957   -3.6763    0.1207 H   0  0  0  0  0  0  0  0  0  0  0  0
  1  2  1  0
  2  3  2  0
  3  4  1  0
  4  5  2  0
  5  6  1  0
  6  7  2  0
  6  8  2  0
  6  9  1  0
  9 10  1  0
 10 11  1  0
 11 12  1  0
 12 13  1  0
 13 14  1  0
  5 15  1  0
 15 16  2  0
 16 17  1  0
 17 18  1  0
 18 19  2  0
 18 20  1  0
 20 21  1  0
 21 22  1  0
 22 23  2  0
 22 24  1  0
 24 25  1  0
 25 26  1  0
 26 27  2  0
 26 28  1  0
 28 29  2  0
 29 30  1  0
 30 31  2  0
 31 32  1  0
 32 33  2  0
 16  2  1  0
 33 28  1  0
 14  9  1  0
  1 34  1  0
  1 35  1  0
  1 36  1  0
  3 37  1  0
  4 38  1  0
 10 39  1  0
 10 40  1  0
 11 41  1  0
 11 42  1  0
 13 43  1  0
 13 44  1  0
 14 45  1  0
 14 46  1  0
 15 47  1  0
 17 48  1  0
 20 49  1  0
 20 50  1  0
 24 51  1  0
 24 52  1  0
 25 53  1  0
 29 54  1  0
 30 55  1  0
 31 56  1  0
 32 57  1  0
 33 58  1  0
M  END
$$$$
