
     RDKit          3D

 57 59  0  0  0  0  0  0  0  0999 V2000
   -8.6678   -0.0064   -0.0700 C   0  0  0  0  0  0  0  0  0  0  0  0
   -7.6730    0.0113   -1.0859 O   0  0  0  0  0  0  0  0  0  0  0  0
   -6.3864   -0.2412   -0.6992 C   0  0  0  0  0  0  0  0  0  0  0  0
   -5.9559   -0.4984    0.6029 C   0  0  0  0  0  0  0  0  0  0  0  0
   -4.6022   -0.7425    0.8598 C   0  0  0  0  0  0  0  0  0  0  0  0
   -3.6708   -0.7033   -0.1840 C   0  0  0  0  0  0  0  0  0  0  0  0
   -1.9591   -1.0743    0.1519 S   0  0  0  0  0  6  0  0  0  0  0  0
   -1.3478   -1.4969   -1.0903 O   0  0  0  0  0  0  0  0  0  0  0  0
   -1.9511   -1.9598    1.2995 O   0  0  0  0  0  0  0  0  0  0  0  0
   -1.2650    0.3753    0.6453 N   0  0  0  0  0  0  0  0  0  0  0  0
   -1.7716    0.9875    1.8862 C   0  0  0  0  0  0  0  0  0  0  0  0
   -2.5362    2.2079    1.3940 C   0  0  0  0  0  0  0  0  0  0  0  0
   -2.1726    2.4005    0.0177 O   0  0  0  0  0  0  0  0  0  0  0  0
   -1.0651    1.5342   -0.2424 C   0  0  0  0  0  0  0  0  0  0  0  0
   -0.8586    1.3071   -1.7459 C   0  0  0  0  0  0  0  0  0  0  0  0
    0.2601    0.4457   -2.0697 N   0  0  0  0  0  0  0  0  0  0  0  0
    1.5607    0.8481   -1.8770 C   0  0  0  0  0  0  0  0  0  0  0  0
    1.9121    1.9828   -1.5812 O   0  0  0  0  0  0  0  0  0  0  0  0
    2.6047   -0.2849   -2.0148 C   0  0  0  0  0  0  0  0  0  0  0  0
    2.2523   -1.4197   -2.3010 O   0  0  0  0  0  0  0  0  0  0  0  0
    3.8911    0.1260   -1.7589 N   0  0  0  0  0  0  0  0  0  0  0  0
    4.9705   -0.8105   -1.5730 C   0  0  0  0  0  0  0  0  0  0  0  0
    5.1273   -1.1660   -0.1143 C   0  0  0  0  0  0  0  0  0  0  0  0
    4.3967   -2.2500    0.4039 C   0  0  0  0  0  0  0  0  0  0  0  0
    4.4935   -2.5946    1.7498 C   0  0  0  0  0  0  0  0  0  0  0  0
    5.3164   -1.8567    2.5940 C   0  0  0  0  0  0  0  0  0  0  0  0
    6.0382   -0.7685    2.0966 C   0  0  0  0  0  0  0  0  0  0  0  0
    5.9455   -0.4110    0.7468 C   0  0  0  0  0  0  0  0  0  0  0  0
    6.5996    0.6489    0.1745 O   0  0  0  0  0  0  0  0  0  0  0  0
    7.4274    1.4394    1.0183 C   0  0  0  0  0  0  0  0  0  0  0  0
   -4.1030   -0.4942   -1.4937 C   0  0  0  0  0  0  0  0  0  0  0  0
   -5.4554   -0.2476   -1.7422 C   0  0  0  0  0  0  0  0  0  0  0  0
   -8.7346   -0.9931    0.4002 H   0  0  0  0  0  0  0  0  0  0  0  0
   -9.6320    0.2029   -0.5428 H   0  0  0  0  0  0  0  0  0  0  0  0
   -8.4847    0.7752    0.6746 H   0  0  0  0  0  0  0  0  0  0  0  0
   -6.6486   -0.5306    1.4377 H   0  0  0  0  0  0  0  0  0  0  0  0
   -4.2897   -0.9782    1.8746 H   0  0  0  0  0  0  0  0  0  0  0  0
   -2.3860    0.3345    2.5085 H   0  0  0  0  0  0  0  0  0  0  0  0
   -0.9138    1.2912    2.4976 H   0  0  0  0  0  0  0  0  0  0  0  0
   -3.6189    2.0616    1.4424 H   0  0  0  0  0  0  0  0  0  0  0  0
   -2.2840    3.1047    1.9679 H   0  0  0  0  0  0  0  0  0  0  0  0
   -0.1678    2.0531    0.1247 H   0  0  0  0  0  0  0  0  0  0  0  0
   -1.7501    0.8990   -2.2228 H   0  0  0  0  0  0  0  0  0  0  0  0
   -0.6868    2.2794   -2.2250 H   0  0  0  0  0  0  0  0  0  0  0  0
    0.0966   -0.5656   -2.0796 H   0  0  0  0  0  0  0  0  0  0  0  0
    4.0046    1.0709   -1.4050 H   0  0  0  0  0  0  0  0  0  0  0  0
    5.8829   -0.3546   -1.9717 H   0  0  0  0  0  0  0  0  0  0  0  0
    4.7875   -1.7150   -2.1652 H   0  0  0  0  0  0  0  0  0  0  0  0
    3.7394   -2.8257   -0.2472 H   0  0  0  0  0  0  0  0  0  0  0  0
    3.9232   -3.4355    2.1368 H   0  0  0  0  0  0  0  0  0  0  0  0
    5.3934   -2.1245    3.6445 H   0  0  0  0  0  0  0  0  0  0  0  0
    6.6613   -0.2183    2.7935 H   0  0  0  0  0  0  0  0  0  0  0  0
    7.8702    2.2298    0.4050 H   0  0  0  0  0  0  0  0  0  0  0  0
    8.2469    0.8459    1.4363 H   0  0  0  0  0  0  0  0  0  0  0  0
    6.8412    1.9202    1.8083 H   0  0  0  0  0  0  0  0  0  0  0  0
   -3.4127   -0.5409   -2.3311 H   0  0  0  0  0  0  0  0  0  0  0  0
   -5.7918   -0.0742   -2.7623 H   0  0  0  0  0  0  0  0  0  0  0  0
  1  2  1  0
  2  3  1  0
  3  4  2  0
  4  5  1  0
  5  6  2  0
  6  7  1  0
  7  8  2  0
  7  9  2  0
  7 10  1  0
 10 11  1  0
 11 12  1  0
 12 13  1  0
 13 14  1  0
 14 15  1  0
 15 16  1  0
 16 17  1  0
 17 18  2  0
 17 19  1  0
 19 20  2  0
 19 21  1  0
 21 22  1  0
 22 23  1  0
 23 24  2  0
 24 25  1  0
 25 26  2  0
 26 27  1  0
 27 28  2  0
 28 29  1  0
 29 30  1  0
  6 31  1  0
 31 32  2  0
 32  3  1  0
 14 10  1  0
 28 23  1  0
  1 33  1  0
  1 34  1  0
  1 35  1  0
  4 36  1  0
  5 37  1  0
 11 38  1  0
 11 39  1  0
 12 40  1  0
 12 41  1  0
 14 42  1  0
 15 43  1  0
 15 44  1  0
 16 45  1  0
 21 46  1  0
 22 47  1  0
 22 48  1  0
 24 49  1  0
 25 50  1  0
 26 51  1  0
 27 52  1  0
 30 53  1  0
 30 54  1  0
 30 55  1  0
 31 56  1  0
 32 57  1  0
M  END
$$$$
