
     RDKit          3D

 61 65  0  0  0  0  0  0  0  0999 V2000
   -8.0729   -0.4640    2.6150 C   0  0  0  0  0  0  0  0  0  0  0  0
   -7.5794   -0.5119    1.2847 O   0  0  0  0  0  0  0  0  0  0  0  0
   -6.3239   -0.0066    1.0543 C   0  0  0  0  0  0  0  0  0  0  0  0
   -5.4335    0.3776    2.0599 C   0  0  0  0  0  0  0  0  0  0  0  0
   -4.1711    0.8793    1.7292 C   0  0  0  0  0  0  0  0  0  0  0  0
   -3.7722    1.0010    0.3931 C   0  0  0  0  0  0  0  0  0  0  0  0
   -2.4483    1.5333    0.0826 C   0  0  0  0  0  0  0  0  0  0  0  0
   -1.5719    2.1121    0.8806 N   0  0  0  0  0  0  0  0  0  0  0  0
   -0.4910    2.3961    0.0664 C   0  0  0  0  0  0  0  0  0  0  0  0
    0.7015    3.0739    0.6438 C   0  0  0  0  0  0  0  0  0  0  0  0
    1.9568    2.5990    0.0851 N   0  0  0  0  0  0  0  0  0  0  0  0
    2.6234    1.4370    0.3968 C   0  0  0  0  0  0  0  0  0  0  0  0
    2.0049    0.2575    1.5033 S   0  0  0  0  0  0  0  0  0  0  0  0
    3.5354   -0.4352    2.1843 C   0  0  0  0  0  0  0  0  0  0  0  0
    3.9465   -1.7422    1.5537 C   0  0  0  0  0  0  0  0  0  0  0  0
    4.8568   -1.7647    0.4885 C   0  0  0  0  0  0  0  0  0  0  0  0
    5.2889   -2.9774   -0.0579 C   0  0  0  0  0  0  0  0  0  0  0  0
    4.8195   -4.1929    0.4513 C   0  0  0  0  0  0  0  0  0  0  0  0
    5.2835   -5.4915   -0.1416 C   0  0  0  0  0  0  0  0  0  0  0  0
    3.8787   -4.1748    1.4870 C   0  0  0  0  0  0  0  0  0  0  0  0
    3.4455   -2.9607    2.0338 C   0  0  0  0  0  0  0  0  0  0  0  0
    3.7585    1.3338   -0.2553 N   0  0  0  0  0  0  0  0  0  0  0  0
    3.8424    2.4649   -1.0243 C   0  0  0  0  0  0  0  0  0  0  0  0
    4.8384    2.8510   -1.9203 C   0  0  0  0  0  0  0  0  0  0  0  0
    4.6401    4.0657   -2.5510 C   0  0  0  0  0  0  0  0  0  0  0  0
    3.5724    4.8743   -2.3520 N   0  0  0  0  0  0  0  0  0  0  0  0
    2.6055    4.5013   -1.4802 C   0  0  0  0  0  0  0  0  0  0  0  0
    2.7392    3.2879   -0.8204 C   0  0  0  0  0  0  0  0  0  0  0  0
   -0.7801    1.9856   -1.2226 C   0  0  0  0  0  0  0  0  0  0  0  0
   -0.0753    1.9949   -2.5158 C   0  0  0  0  0  0  0  0  0  0  0  0
   -2.0305    1.4346   -1.2164 O   0  0  0  0  0  0  0  0  0  0  0  0
   -4.6658    0.6053   -0.6137 C   0  0  0  0  0  0  0  0  0  0  0  0
   -5.9341    0.1005   -0.2956 C   0  0  0  0  0  0  0  0  0  0  0  0
   -6.8585   -0.3132   -1.2235 O   0  0  0  0  0  0  0  0  0  0  0  0
   -6.5089   -0.2154   -2.5989 C   0  0  0  0  0  0  0  0  0  0  0  0
   -8.0663    0.5585    3.0093 H   0  0  0  0  0  0  0  0  0  0  0  0
   -7.5083   -1.1400    3.2680 H   0  0  0  0  0  0  0  0  0  0  0  0
   -9.1131   -0.8056    2.5979 H   0  0  0  0  0  0  0  0  0  0  0  0
   -5.6843    0.2888    3.1120 H   0  0  0  0  0  0  0  0  0  0  0  0
   -3.4888    1.1672    2.5271 H   0  0  0  0  0  0  0  0  0  0  0  0
    0.7498    2.9349    1.7297 H   0  0  0  0  0  0  0  0  0  0  0  0
    0.6291    4.1536    0.4711 H   0  0  0  0  0  0  0  0  0  0  0  0
    3.3626   -0.6046    3.2538 H   0  0  0  0  0  0  0  0  0  0  0  0
    4.3578    0.2899    2.1390 H   0  0  0  0  0  0  0  0  0  0  0  0
    5.2419   -0.8323    0.0797 H   0  0  0  0  0  0  0  0  0  0  0  0
    6.0020   -2.9646   -0.8814 H   0  0  0  0  0  0  0  0  0  0  0  0
    5.2140   -6.3023    0.5918 H   0  0  0  0  0  0  0  0  0  0  0  0
    4.6705   -5.7487   -1.0135 H   0  0  0  0  0  0  0  0  0  0  0  0
    6.3345   -5.4241   -0.4503 H   0  0  0  0  0  0  0  0  0  0  0  0
    3.4806   -5.1074    1.8808 H   0  0  0  0  0  0  0  0  0  0  0  0
    2.7222   -2.9730    2.8457 H   0  0  0  0  0  0  0  0  0  0  0  0
    5.7036    2.2348   -2.1112 H   0  0  0  0  0  0  0  0  0  0  0  0
    5.3687    4.4375   -3.2682 H   0  0  0  0  0  0  0  0  0  0  0  0
    1.7654    5.1771   -1.3588 H   0  0  0  0  0  0  0  0  0  0  0  0
   -0.7360    1.6656   -3.3257 H   0  0  0  0  0  0  0  0  0  0  0  0
    0.7873    1.3258   -2.4863 H   0  0  0  0  0  0  0  0  0  0  0  0
    0.2694    3.0048   -2.7596 H   0  0  0  0  0  0  0  0  0  0  0  0
   -4.3529    0.7024   -1.6484 H   0  0  0  0  0  0  0  0  0  0  0  0
   -5.6500   -0.8509   -2.8332 H   0  0  0  0  0  0  0  0  0  0  0  0
   -6.3234    0.8266   -2.8873 H   0  0  0  0  0  0  0  0  0  0  0  0
   -7.3572   -0.5762   -3.1859 H   0  0  0  0  0  0  0  0  0  0  0  0
  1  2  1  0
  2  3  1  0
  3  4  2  0
  4  5  1  0
  5  6  2  0
  6  7  1  0
  7  8  2  0
  8  9  1  0
  9 10  1  0
 10 11  1  0
 11 12  1  0
 12 13  1  0
 13 14  1  0
 14 15  1  0
 15 16  2  0
 16 17  1  0
 17 18  2  0
 18 19  1  0
 18 20  1  0
 20 21  2  0
 12 22  2  0
 22 23  1  0
 23 24  2  0
 24 25  1  0
 25 26  2  0
 26 27  1  0
 27 28  2  0
  9 29  2  0
 29 30  1  0
 29 31  1  0
  6 32  1  0
 32 33  2  0
 33 34  1  0
 34 35  1  0
 33  3  1  0
 31  7  1  0
 28 11  1  0
 21 15  1  0
 28 23  1  0
  1 36  1  0
  1 37  1  0
  1 38  1  0
  4 39  1  0
  5 40  1  0
 10 41  1  0
 10 42  1  0
 14 43  1  0
 14 44  1  0
 16 45  1  0
 17 46  1  0
 19 47  1  0
 19 48  1  0
 19 49  1  0
 20 50  1  0
 21 51  1  0
 24 52  1  0
 25 53  1  0
 27 54  1  0
 30 55  1  0
 30 56  1  0
 30 57  1  0
 32 58  1  0
 35 59  1  0
 35 60  1  0
 35 61  1  0
M  END
$$$$
