
     RDKit          3D

 49 51  0  0  0  0  0  0  0  0999 V2000
    1.3094   -3.4692   -1.6697 O   0  0  0  0  0  0  0  0  0  0  0  0
    1.4116   -2.3574   -2.1700 C   0  0  0  0  0  0  0  0  0  0  0  0
    2.5544   -1.5962   -2.2513 N   0  0  0  0  0  0  0  0  0  0  0  0
    3.7458   -1.9370   -1.5192 C   0  0  0  0  0  0  0  0  0  0  0  0
    3.7742   -1.2424   -0.1824 C   0  0  0  0  0  0  0  0  0  0  0  0
    4.3697    0.0190   -0.0430 C   0  0  0  0  0  0  0  0  0  0  0  0
    4.3619    0.6728    1.1907 C   0  0  0  0  0  0  0  0  0  0  0  0
    3.7525    0.0774    2.2938 C   0  0  0  0  0  0  0  0  0  0  0  0
    3.1469   -1.1706    2.1641 C   0  0  0  0  0  0  0  0  0  0  0  0
    3.1557   -1.8265    0.9325 C   0  0  0  0  0  0  0  0  0  0  0  0
    0.1629   -1.6497   -2.7462 C   0  0  0  0  0  0  0  0  0  0  0  0
    0.2880   -0.7110   -3.5201 O   0  0  0  0  0  0  0  0  0  0  0  0
   -1.0263   -2.1485   -2.2566 N   0  0  0  0  0  0  0  0  0  0  0  0
   -2.2702   -1.4207   -2.4150 C   0  0  0  0  0  0  0  0  0  0  0  0
   -2.5590   -0.3808   -1.3053 C   0  0  0  0  0  0  0  0  0  0  0  0
   -3.7515    0.3463   -1.6597 O   0  0  0  0  0  0  0  0  0  0  0  0
   -3.4871    1.7331   -1.4212 C   0  0  0  0  0  0  0  0  0  0  0  0
   -2.0010    1.8900   -1.6478 C   0  0  0  0  0  0  0  0  0  0  0  0
   -1.4786    0.6058   -1.1932 N   0  0  0  0  0  0  0  0  0  0  0  0
   -0.4269    0.5160    0.1020 S   0  0  0  0  0  6  0  0  0  0  0  0
    0.6300    1.4784   -0.1207 O   0  0  0  0  0  0  0  0  0  0  0  0
   -0.1416   -0.8826    0.3423 O   0  0  0  0  0  0  0  0  0  0  0  0
   -1.3918    1.1007    1.4827 C   0  0  0  0  0  0  0  0  0  0  0  0
   -1.3608    2.4585    1.8206 C   0  0  0  0  0  0  0  0  0  0  0  0
   -2.0953    2.9142    2.9168 C   0  0  0  0  0  0  0  0  0  0  0  0
   -2.8395    2.0103    3.6757 C   0  0  0  0  0  0  0  0  0  0  0  0
   -3.8342    2.6301    5.1587 Br  0  0  0  0  0  0  0  0  0  0  0  0
   -2.8474    0.6516    3.3577 C   0  0  0  0  0  0  0  0  0  0  0  0
   -2.1130    0.1909    2.2630 C   0  0  0  0  0  0  0  0  0  0  0  0
    2.4248   -0.6379   -2.5598 H   0  0  0  0  0  0  0  0  0  0  0  0
    4.6045   -1.6281   -2.1255 H   0  0  0  0  0  0  0  0  0  0  0  0
    3.8144   -3.0229   -1.3867 H   0  0  0  0  0  0  0  0  0  0  0  0
    4.8362    0.5046   -0.8967 H   0  0  0  0  0  0  0  0  0  0  0  0
    4.8223    1.6523    1.2881 H   0  0  0  0  0  0  0  0  0  0  0  0
    3.7406    0.5907    3.2511 H   0  0  0  0  0  0  0  0  0  0  0  0
    2.6576   -1.6311    3.0178 H   0  0  0  0  0  0  0  0  0  0  0  0
    2.6586   -2.7905    0.8385 H   0  0  0  0  0  0  0  0  0  0  0  0
   -0.9251   -2.8283   -1.5064 H   0  0  0  0  0  0  0  0  0  0  0  0
   -2.2694   -0.9252   -3.3939 H   0  0  0  0  0  0  0  0  0  0  0  0
   -3.0799   -2.1585   -2.4389 H   0  0  0  0  0  0  0  0  0  0  0  0
   -2.7538   -0.8914   -0.3580 H   0  0  0  0  0  0  0  0  0  0  0  0
   -3.7665    1.9601   -0.3869 H   0  0  0  0  0  0  0  0  0  0  0  0
   -4.0875    2.3506   -2.0944 H   0  0  0  0  0  0  0  0  0  0  0  0
   -1.5911    2.7616   -1.1346 H   0  0  0  0  0  0  0  0  0  0  0  0
   -1.7774    1.9880   -2.7159 H   0  0  0  0  0  0  0  0  0  0  0  0
   -0.7613    3.1620    1.2462 H   0  0  0  0  0  0  0  0  0  0  0  0
   -2.0730    3.9697    3.1774 H   0  0  0  0  0  0  0  0  0  0  0  0
   -3.4121   -0.0549    3.9615 H   0  0  0  0  0  0  0  0  0  0  0  0
   -2.1009   -0.8731    2.0366 H   0  0  0  0  0  0  0  0  0  0  0  0
  1  2  2  0
  2  3  1  0
  3  4  1  0
  4  5  1  0
  5  6  2  0
  6  7  1  0
  7  8  2  0
  8  9  1  0
  9 10  2  0
  2 11  1  0
 11 12  2  0
 11 13  1  0
 13 14  1  0
 14 15  1  0
 15 16  1  0
 16 17  1  0
 17 18  1  0
 18 19  1  0
 19 20  1  0
 20 21  2  0
 20 22  2  0
 20 23  1  0
 23 24  2  0
 24 25  1  0
 25 26  2  0
 26 27  1  0
 26 28  1  0
 28 29  2  0
 10  5  1  0
 19 15  1  0
 29 23  1  0
  3 30  1  0
  4 31  1  0
  4 32  1  0
  6 33  1  0
  7 34  1  0
  8 35  1  0
  9 36  1  0
 10 37  1  0
 13 38  1  0
 14 39  1  0
 14 40  1  0
 15 41  1  0
 17 42  1  0
 17 43  1  0
 18 44  1  0
 18 45  1  0
 24 46  1  0
 25 47  1  0
 28 48  1  0
 29 49  1  0
M  END
$$$$
