
     RDKit          3D

 45 47  0  0  0  0  0  0  0  0999 V2000
    5.0690   -1.5326    2.6950 C   0  0  0  0  0  0  0  0  0  0  0  0
    4.8440   -0.5503    1.5562 C   0  0  0  0  0  0  0  0  0  0  0  0
    5.5213   -1.0240    0.2673 C   0  0  0  0  0  0  0  0  0  0  0  0
    5.3946   -0.0204   -0.8814 C   0  0  0  0  0  0  0  0  0  0  0  0
    3.9962    0.0953   -1.3942 C   0  0  0  0  0  0  0  0  0  0  0  0
    3.3507   -0.8568   -2.0359 N   0  0  0  0  0  0  0  0  0  0  0  0
    2.0763   -0.4646   -2.3936 N   0  0  0  0  0  0  0  0  0  0  0  0
    1.8093    0.7649   -2.0129 C   0  0  0  0  0  0  0  0  0  0  0  0
    0.6016    1.3607   -2.2650 N   0  0  0  0  0  0  0  0  0  0  0  0
    0.1865    2.6091   -1.8620 C   0  0  0  0  0  0  0  0  0  0  0  0
    0.8302    3.4353   -1.2229 O   0  0  0  0  0  0  0  0  0  0  0  0
   -1.2368    2.9306   -2.3330 C   0  0  0  0  0  0  0  0  0  0  0  0
   -2.0587    1.7911   -2.5543 O   0  0  0  0  0  0  0  0  0  0  0  0
   -2.6299    1.1881   -1.4677 C   0  0  0  0  0  0  0  0  0  0  0  0
   -2.4027    1.5089   -0.1283 C   0  0  0  0  0  0  0  0  0  0  0  0
   -3.0420    0.7886    0.8934 C   0  0  0  0  0  0  0  0  0  0  0  0
   -3.9168   -0.2629    0.5964 C   0  0  0  0  0  0  0  0  0  0  0  0
   -4.6141   -1.0570    1.6166 C   0  0  0  0  0  0  0  0  0  0  0  0
   -4.4098   -0.7627    3.0736 C   0  0  0  0  0  0  0  0  0  0  0  0
   -5.4287   -2.0418    1.2082 C   0  0  0  0  0  0  0  0  0  0  0  0
   -5.6630   -2.3685   -0.2073 C   0  0  0  0  0  0  0  0  0  0  0  0
   -6.4222   -3.2780   -0.5224 O   0  0  0  0  0  0  0  0  0  0  0  0
   -4.9914   -1.6033   -1.1446 O   0  0  0  0  0  0  0  0  0  0  0  0
   -4.1277   -0.5639   -0.7493 C   0  0  0  0  0  0  0  0  0  0  0  0
   -3.4987    0.1422   -1.7757 C   0  0  0  0  0  0  0  0  0  0  0  0
    3.0883    1.5403   -1.1993 S   0  0  0  0  0  0  0  0  0  0  0  0
    4.5905   -1.1675    3.6097 H   0  0  0  0  0  0  0  0  0  0  0  0
    4.6437   -2.5133    2.4571 H   0  0  0  0  0  0  0  0  0  0  0  0
    6.1369   -1.6609    2.8992 H   0  0  0  0  0  0  0  0  0  0  0  0
    5.2385    0.4302    1.8462 H   0  0  0  0  0  0  0  0  0  0  0  0
    3.7658   -0.4352    1.4003 H   0  0  0  0  0  0  0  0  0  0  0  0
    5.1065   -1.9957   -0.0310 H   0  0  0  0  0  0  0  0  0  0  0  0
    6.5890   -1.1830    0.4656 H   0  0  0  0  0  0  0  0  0  0  0  0
    6.0297   -0.3574   -1.7113 H   0  0  0  0  0  0  0  0  0  0  0  0
    5.7876    0.9548   -0.5701 H   0  0  0  0  0  0  0  0  0  0  0  0
   -0.0638    0.7642   -2.7442 H   0  0  0  0  0  0  0  0  0  0  0  0
   -1.1360    3.4436   -3.2965 H   0  0  0  0  0  0  0  0  0  0  0  0
   -1.7136    3.6412   -1.6479 H   0  0  0  0  0  0  0  0  0  0  0  0
   -1.7312    2.3075    0.1719 H   0  0  0  0  0  0  0  0  0  0  0  0
   -2.8332    1.0709    1.9228 H   0  0  0  0  0  0  0  0  0  0  0  0
   -4.7213    0.2598    3.3116 H   0  0  0  0  0  0  0  0  0  0  0  0
   -4.9946   -1.4358    3.7105 H   0  0  0  0  0  0  0  0  0  0  0  0
   -3.3575   -0.8861    3.3518 H   0  0  0  0  0  0  0  0  0  0  0  0
   -5.9726   -2.6655    1.9089 H   0  0  0  0  0  0  0  0  0  0  0  0
   -3.6901   -0.1262   -2.8119 H   0  0  0  0  0  0  0  0  0  0  0  0
  1  2  1  0
  2  3  1  0
  3  4  1  0
  4  5  1  0
  5  6  2  0
  6  7  1  0
  7  8  2  0
  8  9  1  0
  9 10  1  0
 10 11  2  0
 10 12  1  0
 12 13  1  0
 13 14  1  0
 14 15  2  0
 15 16  1  0
 16 17  2  0
 17 18  1  0
 18 19  1  0
 18 20  2  0
 20 21  1  0
 21 22  2  0
 21 23  1  0
 23 24  1  0
 24 25  2  0
  8 26  1  0
 26  5  1  0
 25 14  1  0
 24 17  1  0
  1 27  1  0
  1 28  1  0
  1 29  1  0
  2 30  1  0
  2 31  1  0
  3 32  1  0
  3 33  1  0
  4 34  1  0
  4 35  1  0
  9 36  1  0
 12 37  1  0
 12 38  1  0
 15 39  1  0
 16 40  1  0
 19 41  1  0
 19 42  1  0
 19 43  1  0
 20 44  1  0
 25 45  1  0
M  END
$$$$
