
     RDKit          3D

 64 69  0  0  0  0  0  0  0  0999 V2000
    5.6998    3.9155   -1.7315 F   0  0  0  0  0  0  0  0  0  0  0  0
    5.1434    2.7146   -1.4008 C   0  0  0  0  0  0  0  0  0  0  0  0
    4.4074    2.3407   -2.4841 F   0  0  0  0  0  0  0  0  0  0  0  0
    4.2444    2.9908   -0.4148 F   0  0  0  0  0  0  0  0  0  0  0  0
    6.1594    1.6663   -0.9974 C   0  0  0  0  0  0  0  0  0  0  0  0
    7.5299    1.9481   -1.1616 C   0  0  0  0  0  0  0  0  0  0  0  0
    8.5049    1.0127   -0.8154 C   0  0  0  0  0  0  0  0  0  0  0  0
    8.1283   -0.2218   -0.3006 C   0  0  0  0  0  0  0  0  0  0  0  0
    6.7778   -0.5235   -0.1326 C   0  0  0  0  0  0  0  0  0  0  0  0
    5.7800    0.4055   -0.4798 C   0  0  0  0  0  0  0  0  0  0  0  0
    4.3301    0.0173   -0.2569 C   0  0  0  0  0  0  0  0  0  0  0  0
    3.8851    0.2874    1.1946 C   0  0  0  0  0  0  0  0  0  0  0  0
    2.4873   -0.0134    1.5222 N   0  0  0  0  0  0  0  0  0  0  0  0
    1.5247    0.9050    0.8927 C   0  0  0  0  0  0  0  0  0  0  0  0
    0.0601    0.4425    1.0566 C   0  0  0  0  0  0  0  0  0  0  0  0
   -0.1651   -0.8918    0.4771 N   0  0  0  0  0  0  0  0  0  0  0  0
   -1.3120   -1.1909   -0.2541 C   0  0  0  0  0  0  0  0  0  0  0  0
   -1.1855   -1.9895   -1.2872 N   0  0  0  0  0  0  0  0  0  0  0  0
   -2.2904   -2.3078   -2.0977 C   0  0  0  0  0  0  0  0  0  0  0  0
   -2.0884   -3.1513   -3.1922 C   0  0  0  0  0  0  0  0  0  0  0  0
   -3.1482   -3.4914   -4.0369 C   0  0  0  0  0  0  0  0  0  0  0  0
   -4.4257   -2.9867   -3.7931 C   0  0  0  0  0  0  0  0  0  0  0  0
   -4.6500   -2.1421   -2.7052 C   0  0  0  0  0  0  0  0  0  0  0  0
   -3.5795   -1.8112   -1.8689 C   0  0  0  0  0  0  0  0  0  0  0  0
   -3.7182   -0.9819   -0.7441 N   0  0  0  0  0  0  0  0  0  0  0  0
   -4.8461   -0.3702   -0.2509 C   0  0  0  0  0  0  0  0  0  0  0  0
   -4.5154    0.2841    0.9201 C   0  0  0  0  0  0  0  0  0  0  0  0
   -5.4612    1.0389    1.7293 C   0  0  0  0  0  0  0  0  0  0  0  0
   -6.7927    0.6228    1.8669 C   0  0  0  0  0  0  0  0  0  0  0  0
   -7.6899    1.3578    2.6463 C   0  0  0  0  0  0  0  0  0  0  0  0
   -7.2651    2.5149    3.2963 C   0  0  0  0  0  0  0  0  0  0  0  0
   -5.9431    2.9366    3.1711 C   0  0  0  0  0  0  0  0  0  0  0  0
   -5.0451    2.2011    2.3933 C   0  0  0  0  0  0  0  0  0  0  0  0
   -3.1242    0.0688    1.1201 C   0  0  0  0  0  0  0  0  0  0  0  0
   -2.6411   -0.6826    0.0625 C   0  0  0  0  0  0  0  0  0  0  0  0
    1.0520   -1.6937    0.2611 C   0  0  0  0  0  0  0  0  0  0  0  0
    2.1057   -1.4268    1.3563 C   0  0  0  0  0  0  0  0  0  0  0  0
    7.8477    2.9090   -1.5656 H   0  0  0  0  0  0  0  0  0  0  0  0
    9.5575    1.2488   -0.9506 H   0  0  0  0  0  0  0  0  0  0  0  0
    8.8862   -0.9526   -0.0326 H   0  0  0  0  0  0  0  0  0  0  0  0
    6.5047   -1.4966    0.2728 H   0  0  0  0  0  0  0  0  0  0  0  0
    3.6938    0.5427   -0.9745 H   0  0  0  0  0  0  0  0  0  0  0  0
    4.2148   -1.0464   -0.5005 H   0  0  0  0  0  0  0  0  0  0  0  0
    4.0834    1.3357    1.4523 H   0  0  0  0  0  0  0  0  0  0  0  0
    4.5233   -0.2897    1.8775 H   0  0  0  0  0  0  0  0  0  0  0  0
    1.6320    1.8991    1.3421 H   0  0  0  0  0  0  0  0  0  0  0  0
    1.7239    1.0125   -0.1798 H   0  0  0  0  0  0  0  0  0  0  0  0
   -0.5769    1.1897    0.5692 H   0  0  0  0  0  0  0  0  0  0  0  0
   -0.1985    0.4171    2.1215 H   0  0  0  0  0  0  0  0  0  0  0  0
   -1.0931   -3.5428   -3.3848 H   0  0  0  0  0  0  0  0  0  0  0  0
   -2.9747   -4.1495   -4.8845 H   0  0  0  0  0  0  0  0  0  0  0  0
   -5.2480   -3.2532   -4.4523 H   0  0  0  0  0  0  0  0  0  0  0  0
   -5.6529   -1.7649   -2.5357 H   0  0  0  0  0  0  0  0  0  0  0  0
   -5.7951   -0.4477   -0.7608 H   0  0  0  0  0  0  0  0  0  0  0  0
   -7.1428   -0.2841    1.3802 H   0  0  0  0  0  0  0  0  0  0  0  0
   -8.7195    1.0248    2.7476 H   0  0  0  0  0  0  0  0  0  0  0  0
   -7.9637    3.0873    3.9004 H   0  0  0  0  0  0  0  0  0  0  0  0
   -5.6100    3.8396    3.6762 H   0  0  0  0  0  0  0  0  0  0  0  0
   -4.0211    2.5539    2.3002 H   0  0  0  0  0  0  0  0  0  0  0  0
   -2.5447    0.4219    1.9615 H   0  0  0  0  0  0  0  0  0  0  0  0
    1.4751   -1.4668   -0.7253 H   0  0  0  0  0  0  0  0  0  0  0  0
    0.8009   -2.7611    0.2821 H   0  0  0  0  0  0  0  0  0  0  0  0
    1.6853   -1.7540    2.3157 H   0  0  0  0  0  0  0  0  0  0  0  0
    2.9788   -2.0673    1.1869 H   0  0  0  0  0  0  0  0  0  0  0  0
  1  2  1  0
  2  3  1  0
  2  4  1  0
  2  5  1  0
  5  6  2  0
  6  7  1  0
  7  8  2  0
  8  9  1  0
  9 10  2  0
 10 11  1  0
 11 12  1  0
 12 13  1  0
 13 14  1  0
 14 15  1  0
 15 16  1  0
 16 17  1  0
 17 18  2  0
 18 19  1  0
 19 20  2  0
 20 21  1  0
 21 22  2  0
 22 23  1  0
 23 24  2  0
 24 25  1  0
 25 26  1  0
 26 27  2  0
 27 28  1  0
 28 29  2  0
 29 30  1  0
 30 31  2  0
 31 32  1  0
 32 33  2  0
 27 34  1  0
 34 35  2  0
 16 36  1  0
 36 37  1  0
 10  5  1  0
 37 13  1  0
 35 17  1  0
 24 19  1  0
 35 25  1  0
 33 28  1  0
  6 38  1  0
  7 39  1  0
  8 40  1  0
  9 41  1  0
 11 42  1  0
 11 43  1  0
 12 44  1  0
 12 45  1  0
 14 46  1  0
 14 47  1  0
 15 48  1  0
 15 49  1  0
 20 50  1  0
 21 51  1  0
 22 52  1  0
 23 53  1  0
 26 54  1  0
 29 55  1  0
 30 56  1  0
 31 57  1  0
 32 58  1  0
 33 59  1  0
 34 60  1  0
 36 61  1  0
 36 62  1  0
 37 63  1  0
 37 64  1  0
M  END
$$$$
