
     RDKit          3D

 43 45  0  0  0  0  0  0  0  0999 V2000
    7.4415   -1.0096    2.1360 O   0  0  0  0  0  0  0  0  0  0  0  0
    8.0188   -0.7393    1.0968 C   0  0  0  0  0  0  0  0  0  0  0  0
    9.3553   -0.9182    1.0060 O   0  0  0  0  0  0  0  0  0  0  0  0
    7.4442   -0.1662   -0.1756 C   0  0  0  0  0  0  0  0  0  0  0  0
    5.9352   -0.1653   -0.2238 C   0  0  0  0  0  0  0  0  0  0  0  0
    5.2437   -1.1528   -0.9351 C   0  0  0  0  0  0  0  0  0  0  0  0
    3.8443   -1.1574   -0.9766 C   0  0  0  0  0  0  0  0  0  0  0  0
    3.1118   -0.1789   -0.3054 C   0  0  0  0  0  0  0  0  0  0  0  0
    1.7024   -0.1195   -0.2897 N   0  0  0  0  0  0  0  0  0  0  0  0
    0.8209   -0.9237   -0.9889 C   0  0  0  0  0  0  0  0  0  0  0  0
    1.1037   -1.7858   -1.8122 O   0  0  0  0  0  0  0  0  0  0  0  0
   -0.6214   -0.6545   -0.7229 C   0  0  0  0  0  0  0  0  0  0  0  0
   -1.5366   -0.8226   -1.7661 C   0  0  0  0  0  0  0  0  0  0  0  0
   -2.8977   -0.5798   -1.5546 C   0  0  0  0  0  0  0  0  0  0  0  0
   -3.3663   -0.1725   -0.2983 C   0  0  0  0  0  0  0  0  0  0  0  0
   -4.7540    0.0508   -0.1750 N   0  0  0  0  0  0  0  0  0  0  0  0
   -5.4500    0.5048    0.9393 C   0  0  0  0  0  0  0  0  0  0  0  0
   -4.9178    0.8145    2.0013 O   0  0  0  0  0  0  0  0  0  0  0  0
   -6.8923    0.5987    0.7398 C   0  0  0  0  0  0  0  0  0  0  0  0
   -7.7443    0.2528   -0.2985 C   0  0  0  0  0  0  0  0  0  0  0  0
   -9.0585    0.5934    0.1107 C   0  0  0  0  0  0  0  0  0  0  0  0
   -8.9390    1.1244    1.3706 C   0  0  0  0  0  0  0  0  0  0  0  0
   -7.6411    1.1315    1.7597 O   0  0  0  0  0  0  0  0  0  0  0  0
   -2.4498   -0.0277    0.7459 C   0  0  0  0  0  0  0  0  0  0  0  0
   -1.0852   -0.2716    0.5396 C   0  0  0  0  0  0  0  0  0  0  0  0
    3.8020    0.8028    0.4157 C   0  0  0  0  0  0  0  0  0  0  0  0
    5.1999    0.8116    0.4563 C   0  0  0  0  0  0  0  0  0  0  0  0
    9.5996   -1.2818    1.8835 H   0  0  0  0  0  0  0  0  0  0  0  0
    7.8092    0.8616   -0.2871 H   0  0  0  0  0  0  0  0  0  0  0  0
    7.8334   -0.7464   -1.0210 H   0  0  0  0  0  0  0  0  0  0  0  0
    5.7833   -1.9347   -1.4657 H   0  0  0  0  0  0  0  0  0  0  0  0
    3.3568   -1.9488   -1.5373 H   0  0  0  0  0  0  0  0  0  0  0  0
    1.3064    0.6399    0.2480 H   0  0  0  0  0  0  0  0  0  0  0  0
   -1.1911   -1.1423   -2.7477 H   0  0  0  0  0  0  0  0  0  0  0  0
   -3.5799   -0.7162   -2.3900 H   0  0  0  0  0  0  0  0  0  0  0  0
   -5.2963   -0.1197   -1.0086 H   0  0  0  0  0  0  0  0  0  0  0  0
   -7.4706   -0.1982   -1.2411 H   0  0  0  0  0  0  0  0  0  0  0  0
   -9.9787    0.4648   -0.4420 H   0  0  0  0  0  0  0  0  0  0  0  0
   -9.6433    1.5212    2.0890 H   0  0  0  0  0  0  0  0  0  0  0  0
   -2.7618    0.2594    1.7458 H   0  0  0  0  0  0  0  0  0  0  0  0
   -0.4101   -0.1873    1.3873 H   0  0  0  0  0  0  0  0  0  0  0  0
    3.2649    1.5751    0.9598 H   0  0  0  0  0  0  0  0  0  0  0  0
    5.7083    1.5822    1.0318 H   0  0  0  0  0  0  0  0  0  0  0  0
  1  2  2  0
  2  3  1  0
  2  4  1  0
  4  5  1  0
  5  6  2  0
  6  7  1  0
  7  8  2  0
  8  9  1  0
  9 10  1  0
 10 11  2  0
 10 12  1  0
 12 13  2  0
 13 14  1  0
 14 15  2  0
 15 16  1  0
 16 17  1  0
 17 18  2  0
 17 19  1  0
 19 20  2  0
 20 21  1  0
 21 22  2  0
 22 23  1  0
 15 24  1  0
 24 25  2  0
  8 26  1  0
 26 27  2  0
 27  5  1  0
 25 12  1  0
 23 19  1  0
  3 28  1  0
  4 29  1  0
  4 30  1  0
  6 31  1  0
  7 32  1  0
  9 33  1  0
 13 34  1  0
 14 35  1  0
 16 36  1  0
 20 37  1  0
 21 38  1  0
 22 39  1  0
 24 40  1  0
 25 41  1  0
 26 42  1  0
 27 43  1  0
M  END
$$$$
