
     RDKit          3D

 53 58  0  0  0  0  0  0  0  0999 V2000
   -1.5475   -1.6111   -0.6369 O   0  0  0  0  0  0  0  0  0  0  0  0
   -1.6365   -0.3841   -0.6961 C   0  0  0  0  0  0  0  0  0  0  0  0
   -0.5082    0.4641   -1.3089 C   0  0  0  0  0  0  0  0  0  0  0  0
    0.8200   -0.0400   -0.9254 N   0  0  0  0  0  4  0  0  0  0  0  0
    1.7116    0.5490   -0.0306 C   0  0  0  0  0  0  0  0  0  0  0  0
    2.8387   -0.2562    0.0819 C   0  0  0  0  0  0  0  0  0  0  0  0
    4.1047    0.0324    0.9695 C   0  0  0  0  0  0  0  0  0  0  0  0
    4.1405    1.1733    1.7835 C   0  0  0  0  0  0  0  0  0  0  0  0
    5.2622    1.4386    2.5764 C   0  0  0  0  0  0  0  0  0  0  0  0
    6.3486    0.5686    2.5564 C   0  0  0  0  0  0  0  0  0  0  0  0
    7.7258    0.8950    3.5299 Cl  0  0  0  0  0  0  0  0  0  0  0  0
    6.3222   -0.5642    1.7477 C   0  0  0  0  0  0  0  0  0  0  0  0
    5.2015   -0.8326    0.9532 C   0  0  0  0  0  0  0  0  0  0  0  0
    2.5560   -1.3157   -0.7609 N   0  0  0  0  0  0  0  0  0  0  0  0
    1.3797   -1.1641   -1.3662 C   0  0  0  0  0  0  0  0  0  0  0  0
    1.0824   -2.2449   -2.3363 C   0  0  0  0  0  0  0  0  0  0  0  0
    2.1278   -3.3118   -1.9591 C   0  0  0  0  0  0  0  0  0  0  0  0
    3.2257   -2.5408   -1.1783 C   0  0  0  0  0  0  0  0  0  0  0  0
   -2.7454    0.3713   -0.3048 N   0  0  0  0  0  0  0  0  0  0  0  0
   -2.6221    1.2750    0.8099 C   0  0  0  0  0  0  0  0  0  0  0  0
   -1.5557    1.0989    1.7211 C   0  0  0  0  0  0  0  0  0  0  0  0
   -1.3762    1.9478    2.8164 C   0  0  0  0  0  0  0  0  0  0  0  0
   -2.2638    2.9910    3.0311 C   0  0  0  0  0  0  0  0  0  0  0  0
   -3.3373    3.1677    2.1623 C   0  0  0  0  0  0  0  0  0  0  0  0
   -3.5305    2.3107    1.0652 C   0  0  0  0  0  0  0  0  0  0  0  0
   -4.9259    2.6398    0.0335 S   0  0  0  0  0  0  0  0  0  0  0  0
   -5.0903    1.0781   -0.7902 C   0  0  0  0  0  0  0  0  0  0  0  0
   -6.3286    0.8351   -1.4117 C   0  0  0  0  0  0  0  0  0  0  0  0
   -6.5364   -0.3137   -2.1672 C   0  0  0  0  0  0  0  0  0  0  0  0
   -5.5017   -1.2230   -2.3182 C   0  0  0  0  0  0  0  0  0  0  0  0
   -4.2662   -0.9860   -1.7056 C   0  0  0  0  0  0  0  0  0  0  0  0
   -4.0341    0.1575   -0.9125 C   0  0  0  0  0  0  0  0  0  0  0  0
   -0.5848    1.5180   -1.0265 H   0  0  0  0  0  0  0  0  0  0  0  0
   -0.5938    0.4035   -2.3995 H   0  0  0  0  0  0  0  0  0  0  0  0
    1.4294    1.4874    0.4165 H   0  0  0  0  0  0  0  0  0  0  0  0
    3.3148    1.8774    1.8298 H   0  0  0  0  0  0  0  0  0  0  0  0
    5.2844    2.3247    3.2075 H   0  0  0  0  0  0  0  0  0  0  0  0
    7.1737   -1.2416    1.7305 H   0  0  0  0  0  0  0  0  0  0  0  0
    5.2292   -1.7187    0.3324 H   0  0  0  0  0  0  0  0  0  0  0  0
    1.2578   -1.8235   -3.3287 H   0  0  0  0  0  0  0  0  0  0  0  0
    0.0574   -2.5903   -2.2214 H   0  0  0  0  0  0  0  0  0  0  0  0
    2.5214   -3.8496   -2.8257 H   0  0  0  0  0  0  0  0  0  0  0  0
    1.6648   -4.0454   -1.2884 H   0  0  0  0  0  0  0  0  0  0  0  0
    3.5667   -3.1144   -0.3135 H   0  0  0  0  0  0  0  0  0  0  0  0
    4.0640   -2.2791   -1.8305 H   0  0  0  0  0  0  0  0  0  0  0  0
   -0.8757    0.2540    1.6391 H   0  0  0  0  0  0  0  0  0  0  0  0
   -0.5631    1.7773    3.5187 H   0  0  0  0  0  0  0  0  0  0  0  0
   -2.1414    3.6532    3.8857 H   0  0  0  0  0  0  0  0  0  0  0  0
   -4.0372    3.9804    2.3555 H   0  0  0  0  0  0  0  0  0  0  0  0
   -7.1434    1.5520   -1.3183 H   0  0  0  0  0  0  0  0  0  0  0  0
   -7.4998   -0.4920   -2.6390 H   0  0  0  0  0  0  0  0  0  0  0  0
   -5.6544   -2.1260   -2.9058 H   0  0  0  0  0  0  0  0  0  0  0  0
   -3.5108   -1.7533   -1.8475 H   0  0  0  0  0  0  0  0  0  0  0  0
  1  2  2  0
  2  3  1  0
  3  4  1  0
  4  5  1  0
  5  6  2  0
  6  7  1  0
  7  8  2  0
  8  9  1  0
  9 10  2  0
 10 11  1  0
 10 12  1  0
 12 13  2  0
  6 14  1  0
 14 15  1  0
 15 16  1  0
 16 17  1  0
 17 18  1  0
  2 19  1  0
 19 20  1  0
 20 21  2  0
 21 22  1  0
 22 23  2  0
 23 24  1  0
 24 25  2  0
 25 26  1  0
 26 27  1  0
 27 28  2  0
 28 29  1  0
 29 30  2  0
 30 31  1  0
 31 32  2  0
 15  4  2  0
 32 19  1  0
 13  7  1  0
 18 14  1  0
 25 20  1  0
 32 27  1  0
  3 33  1  0
  3 34  1  0
  5 35  1  0
  8 36  1  0
  9 37  1  0
 12 38  1  0
 13 39  1  0
 16 40  1  0
 16 41  1  0
 17 42  1  0
 17 43  1  0
 18 44  1  0
 18 45  1  0
 21 46  1  0
 22 47  1  0
 23 48  1  0
 24 49  1  0
 28 50  1  0
 29 51  1  0
 30 52  1  0
 31 53  1  0
M  CHG  1   4   1
M  END
$$$$
