
     RDKit          3D

 74 79  0  0  0  0  0  0  0  0999 V2000
    9.8978   -1.6727   -0.2589 C   0  0  0  0  0  0  0  0  0  0  0  0
    8.7059   -2.0071    0.4418 O   0  0  0  0  0  0  0  0  0  0  0  0
    7.5380   -1.4971   -0.0518 C   0  0  0  0  0  0  0  0  0  0  0  0
    7.4007   -0.7061   -1.1875 C   0  0  0  0  0  0  0  0  0  0  0  0
    6.1337   -0.2481   -1.5773 C   0  0  0  0  0  0  0  0  0  0  0  0
    4.9690   -0.5639   -0.8521 C   0  0  0  0  0  0  0  0  0  0  0  0
    3.6466   -0.0552   -1.2854 C   0  0  0  0  0  0  0  0  0  0  0  0
    2.4478   -0.6546   -0.9402 C   0  0  0  0  0  0  0  0  0  0  0  0
    1.2645   -0.0664   -1.3845 C   0  0  0  0  0  0  0  0  0  0  0  0
    0.0016   -0.6842   -0.9435 C   0  0  0  0  0  0  0  0  0  0  0  0
   -0.5012   -1.5566   -1.6356 O   0  0  0  0  0  0  0  0  0  0  0  0
   -0.4651   -0.1546    0.2348 N   0  0  0  0  0  0  0  0  0  0  0  0
   -1.6324   -0.4974    0.9438 C   0  0  0  0  0  0  0  0  0  0  0  0
   -2.4730   -1.5498    0.5876 C   0  0  0  0  0  0  0  0  0  0  0  0
   -3.6391   -1.7731    1.3237 C   0  0  0  0  0  0  0  0  0  0  0  0
   -4.7194   -3.1149    0.8690 S   0  0  0  0  0  6  0  0  0  0  0  0
   -3.9042   -4.1591    0.2876 O   0  0  0  0  0  0  0  0  0  0  0  0
   -5.5731   -3.3809    2.0090 O   0  0  0  0  0  0  0  0  0  0  0  0
   -5.6834   -2.4478   -0.3493 N   0  0  0  0  0  0  0  0  0  0  0  0
   -6.6540   -1.3814    0.0202 C   0  0  0  0  0  0  0  0  0  0  0  0
   -6.3388   -0.0809   -0.7259 C   0  0  0  0  0  0  0  0  0  0  0  0
   -6.3804   -0.2130   -2.1538 O   0  0  0  0  0  0  0  0  0  0  0  0
   -6.0565   -1.5337   -2.6163 C   0  0  0  0  0  0  0  0  0  0  0  0
   -5.0732   -2.2673   -1.6962 C   0  0  0  0  0  0  0  0  0  0  0  0
   -3.9396   -0.9927    2.4446 C   0  0  0  0  0  0  0  0  0  0  0  0
   -3.0845    0.0473    2.8136 C   0  0  0  0  0  0  0  0  0  0  0  0
   -1.9258    0.3124    2.0704 C   0  0  0  0  0  0  0  0  0  0  0  0
   -1.0221    1.3501    2.4062 N   0  0  0  0  0  0  0  0  0  0  0  0
   -0.2034    1.0098    3.5978 C   0  0  0  0  0  0  0  0  0  0  0  0
    0.5252    2.2682    4.0917 C   0  0  0  0  0  0  0  0  0  0  0  0
   -0.3696    3.3025    4.5346 O   0  0  0  0  0  0  0  0  0  0  0  0
   -1.6578    3.2538    3.9035 C   0  0  0  0  0  0  0  0  0  0  0  0
   -1.6235    2.7066    2.4677 C   0  0  0  0  0  0  0  0  0  0  0  0
    1.2638    1.0874   -2.1874 C   0  0  0  0  0  0  0  0  0  0  0  0
    0.0996    1.7221   -2.6878 C   0  0  0  0  0  0  0  0  0  0  0  0
    0.1947    2.8655   -3.4773 C   0  0  0  0  0  0  0  0  0  0  0  0
    1.4467    3.3861   -3.7746 C   0  0  0  0  0  0  0  0  0  0  0  0
    2.5940    2.7587   -3.2811 C   0  0  0  0  0  0  0  0  0  0  0  0
    2.5269    1.6166   -2.4936 C   0  0  0  0  0  0  0  0  0  0  0  0
    3.6723    1.0672   -2.0509 N   0  0  0  0  0  0  0  0  0  0  0  0
    5.1358   -1.3611    0.2937 C   0  0  0  0  0  0  0  0  0  0  0  0
    6.4000   -1.8218    0.6842 C   0  0  0  0  0  0  0  0  0  0  0  0
    9.8781   -2.0625   -1.2819 H   0  0  0  0  0  0  0  0  0  0  0  0
   10.7351   -2.1473    0.2620 H   0  0  0  0  0  0  0  0  0  0  0  0
   10.0703   -0.5913   -0.2500 H   0  0  0  0  0  0  0  0  0  0  0  0
    8.2521   -0.4210   -1.7958 H   0  0  0  0  0  0  0  0  0  0  0  0
    6.0612    0.3707   -2.4711 H   0  0  0  0  0  0  0  0  0  0  0  0
    2.4089   -1.5634   -0.3509 H   0  0  0  0  0  0  0  0  0  0  0  0
    0.0253    0.6334    0.6541 H   0  0  0  0  0  0  0  0  0  0  0  0
   -2.2370   -2.1997   -0.2497 H   0  0  0  0  0  0  0  0  0  0  0  0
   -7.6532   -1.7400   -0.2533 H   0  0  0  0  0  0  0  0  0  0  0  0
   -6.6602   -1.1946    1.0980 H   0  0  0  0  0  0  0  0  0  0  0  0
   -5.3419    0.2867   -0.4559 H   0  0  0  0  0  0  0  0  0  0  0  0
   -7.0571    0.6972   -0.4484 H   0  0  0  0  0  0  0  0  0  0  0  0
   -6.9934   -2.0951   -2.7084 H   0  0  0  0  0  0  0  0  0  0  0  0
   -5.6335   -1.4343   -3.6208 H   0  0  0  0  0  0  0  0  0  0  0  0
   -4.1562   -1.6775   -1.6185 H   0  0  0  0  0  0  0  0  0  0  0  0
   -4.8391   -3.2480   -2.1225 H   0  0  0  0  0  0  0  0  0  0  0  0
   -4.8271   -1.1951    3.0410 H   0  0  0  0  0  0  0  0  0  0  0  0
   -3.3252    0.6359    3.6940 H   0  0  0  0  0  0  0  0  0  0  0  0
   -0.8328    0.6231    4.4086 H   0  0  0  0  0  0  0  0  0  0  0  0
    0.5297    0.2407    3.3291 H   0  0  0  0  0  0  0  0  0  0  0  0
    1.1489    2.6895    3.2939 H   0  0  0  0  0  0  0  0  0  0  0  0
    1.1844    2.0227    4.9305 H   0  0  0  0  0  0  0  0  0  0  0  0
   -2.3139    2.6458    4.5361 H   0  0  0  0  0  0  0  0  0  0  0  0
   -2.0603    4.2717    3.9062 H   0  0  0  0  0  0  0  0  0  0  0  0
   -0.9851    3.3593    1.8601 H   0  0  0  0  0  0  0  0  0  0  0  0
   -2.6244    2.7380    2.0212 H   0  0  0  0  0  0  0  0  0  0  0  0
   -0.8888    1.3179   -2.4751 H   0  0  0  0  0  0  0  0  0  0  0  0
   -0.7038    3.3416   -3.8625 H   0  0  0  0  0  0  0  0  0  0  0  0
    1.5381    4.2755   -4.3937 H   0  0  0  0  0  0  0  0  0  0  0  0
    3.5715    3.1725   -3.5208 H   0  0  0  0  0  0  0  0  0  0  0  0
    4.2890   -1.6297    0.9198 H   0  0  0  0  0  0  0  0  0  0  0  0
    6.4962   -2.4354    1.5773 H   0  0  0  0  0  0  0  0  0  0  0  0
  1  2  1  0
  2  3  1  0
  3  4  2  0
  4  5  1  0
  5  6  2  0
  6  7  1  0
  7  8  2  0
  8  9  1  0
  9 10  1  0
 10 11  2  0
 10 12  1  0
 12 13  1  0
 13 14  2  0
 14 15  1  0
 15 16  1  0
 16 17  2  0
 16 18  2  0
 16 19  1  0
 19 20  1  0
 20 21  1  0
 21 22  1  0
 22 23  1  0
 23 24  1  0
 15 25  2  0
 25 26  1  0
 26 27  2  0
 27 28  1  0
 28 29  1  0
 29 30  1  0
 30 31  1  0
 31 32  1  0
 32 33  1  0
  9 34  2  0
 34 35  1  0
 35 36  2  0
 36 37  1  0
 37 38  2  0
 38 39  1  0
 39 40  2  0
  6 41  1  0
 41 42  2  0
 42  3  1  0
 40  7  1  0
 27 13  1  0
 33 28  1  0
 39 34  1  0
 24 19  1  0
  1 43  1  0
  1 44  1  0
  1 45  1  0
  4 46  1  0
  5 47  1  0
  8 48  1  0
 12 49  1  0
 14 50  1  0
 20 51  1  0
 20 52  1  0
 21 53  1  0
 21 54  1  0
 23 55  1  0
 23 56  1  0
 24 57  1  0
 24 58  1  0
 25 59  1  0
 26 60  1  0
 29 61  1  0
 29 62  1  0
 30 63  1  0
 30 64  1  0
 32 65  1  0
 32 66  1  0
 33 67  1  0
 33 68  1  0
 35 69  1  0
 36 70  1  0
 37 71  1  0
 38 72  1  0
 41 73  1  0
 42 74  1  0
M  END
$$$$
