
     RDKit          3D

 44 47  0  0  0  0  0  0  0  0999 V2000
   -4.0193    1.6644   -2.7571 C   0  0  0  0  0  0  0  0  0  0  0  0
   -4.0990    0.9469   -1.4046 C   0  0  0  0  0  0  0  0  0  0  0  0
   -2.8922    1.2674   -0.5323 C   0  0  0  0  0  0  0  0  0  0  0  0
   -1.6496    0.4849   -0.9057 C   0  0  0  0  0  0  0  0  0  0  0  0
   -0.7885    0.9941   -1.6323 O   0  0  0  0  0  0  0  0  0  0  0  0
   -1.4886   -0.7756   -0.3350 N   0  0  0  0  0  0  0  0  0  0  0  0
   -0.1761   -1.3961   -0.5137 C   0  0  0  0  0  0  0  0  0  0  0  0
    0.8792   -0.7567    0.4044 C   0  0  0  0  0  0  0  0  0  0  0  0
    0.7306   -0.7340    1.6265 O   0  0  0  0  0  0  0  0  0  0  0  0
    1.9689   -0.2507   -0.2955 N   0  0  0  0  0  0  0  0  0  0  0  0
    3.1460    0.3233    0.2329 C   0  0  0  0  0  0  0  0  0  0  0  0
    3.3999    0.4598    1.6134 C   0  0  0  0  0  0  0  0  0  0  0  0
    4.5942    1.0295    2.0765 C   0  0  0  0  0  0  0  0  0  0  0  0
    5.5121    1.4489    1.1381 C   0  0  0  0  0  0  0  0  0  0  0  0
    5.2781    1.3150   -0.2102 C   0  0  0  0  0  0  0  0  0  0  0  0
    4.1080    0.7636   -0.6933 C   0  0  0  0  0  0  0  0  0  0  0  0
    6.3109    1.7796   -0.9677 O   0  0  0  0  0  0  0  0  0  0  0  0
    7.2165    2.2347    0.0608 C   0  0  0  0  0  0  0  0  0  0  0  0
    6.7191    2.0175    1.4005 O   0  0  0  0  0  0  0  0  0  0  0  0
   -2.5273   -1.5123    0.3197 C   0  0  0  0  0  0  0  0  0  0  0  0
   -2.2161   -2.2645    1.4672 C   0  0  0  0  0  0  0  0  0  0  0  0
   -3.1960   -2.9896    2.1487 C   0  0  0  0  0  0  0  0  0  0  0  0
   -4.5040   -3.0013    1.6797 C   0  0  0  0  0  0  0  0  0  0  0  0
   -4.8336   -2.2796    0.5307 C   0  0  0  0  0  0  0  0  0  0  0  0
   -3.8593   -1.5339   -0.1539 C   0  0  0  0  0  0  0  0  0  0  0  0
   -4.3704   -0.8309   -1.7217 S   0  0  0  0  0  0  0  0  0  0  0  0
   -3.1316    1.3584   -3.3226 H   0  0  0  0  0  0  0  0  0  0  0  0
   -4.9074    1.4750   -3.3706 H   0  0  0  0  0  0  0  0  0  0  0  0
   -3.9574    2.7500   -2.6071 H   0  0  0  0  0  0  0  0  0  0  0  0
   -4.9937    1.3161   -0.8862 H   0  0  0  0  0  0  0  0  0  0  0  0
   -3.1165    1.1030    0.5306 H   0  0  0  0  0  0  0  0  0  0  0  0
   -2.6505    2.3384   -0.6115 H   0  0  0  0  0  0  0  0  0  0  0  0
   -0.2080   -2.4759   -0.3142 H   0  0  0  0  0  0  0  0  0  0  0  0
    0.1190   -1.2905   -1.5672 H   0  0  0  0  0  0  0  0  0  0  0  0
    1.8918   -0.2269   -1.3098 H   0  0  0  0  0  0  0  0  0  0  0  0
    2.6734    0.1401    2.3580 H   0  0  0  0  0  0  0  0  0  0  0  0
    4.7852    1.1404    3.1397 H   0  0  0  0  0  0  0  0  0  0  0  0
    3.9581    0.6796   -1.7646 H   0  0  0  0  0  0  0  0  0  0  0  0
    7.3858    3.3087   -0.0793 H   0  0  0  0  0  0  0  0  0  0  0  0
    8.1724    1.7084   -0.0536 H   0  0  0  0  0  0  0  0  0  0  0  0
   -1.2101   -2.2657    1.8813 H   0  0  0  0  0  0  0  0  0  0  0  0
   -2.9307   -3.5481    3.0447 H   0  0  0  0  0  0  0  0  0  0  0  0
   -5.2667   -3.5867    2.1940 H   0  0  0  0  0  0  0  0  0  0  0  0
   -5.8565   -2.3287    0.1575 H   0  0  0  0  0  0  0  0  0  0  0  0
  1  2  1  0
  2  3  1  0
  3  4  1  0
  4  5  2  0
  4  6  1  0
  6  7  1  0
  7  8  1  0
  8  9  2  0
  8 10  1  0
 10 11  1  0
 11 12  2  0
 12 13  1  0
 13 14  2  0
 14 15  1  0
 15 16  2  0
 15 17  1  0
 17 18  1  0
 18 19  1  0
  6 20  1  0
 20 21  2  0
 21 22  1  0
 22 23  2  0
 23 24  1  0
 24 25  2  0
 25 26  1  0
 26  2  1  0
 16 11  1  0
 25 20  1  0
 19 14  1  0
  1 27  1  0
  1 28  1  0
  1 29  1  0
  2 30  1  0
  3 31  1  0
  3 32  1  0
  7 33  1  0
  7 34  1  0
 10 35  1  0
 12 36  1  0
 13 37  1  0
 16 38  1  0
 18 39  1  0
 18 40  1  0
 21 41  1  0
 22 42  1  0
 23 43  1  0
 24 44  1  0
M  END
$$$$
