
     RDKit          3D

 54 58  0  0  0  0  0  0  0  0999 V2000
    2.2793    2.1754    3.3064 O   0  0  0  0  0  0  0  0  0  0  0  0
    2.2905    1.5876    2.2276 C   0  0  0  0  0  0  0  0  0  0  0  0
    1.2850    1.8835    1.1309 C   0  0  0  0  0  0  0  0  0  0  0  0
    0.2407    0.4266    0.8375 S   0  0  0  0  0  0  0  0  0  0  0  0
   -0.9180    1.0854   -0.3129 C   0  0  0  0  0  0  0  0  0  0  0  0
   -0.5632    2.1665   -0.9382 N   0  0  0  0  0  0  0  0  0  0  0  0
   -1.4981    2.6586   -1.8536 C   0  0  0  0  0  0  0  0  0  0  0  0
   -2.6746    2.0222   -2.0994 C   0  0  0  0  0  0  0  0  0  0  0  0
   -3.6121    2.8241   -3.2542 S   0  0  0  0  0  0  0  0  0  0  0  0
   -2.4240    4.0691   -3.4431 C   0  0  0  0  0  0  0  0  0  0  0  0
   -2.4947    5.1860   -4.2981 C   0  0  0  0  0  0  0  0  0  0  0  0
   -1.4284    6.0890   -4.3188 C   0  0  0  0  0  0  0  0  0  0  0  0
   -0.3154    5.8901   -3.5120 C   0  0  0  0  0  0  0  0  0  0  0  0
   -0.2489    4.7816   -2.6630 C   0  0  0  0  0  0  0  0  0  0  0  0
   -1.3141    3.8490   -2.6163 C   0  0  0  0  0  0  0  0  0  0  0  0
   -3.0533    0.8091   -1.4409 C   0  0  0  0  0  0  0  0  0  0  0  0
   -4.0801    0.1812   -1.6913 O   0  0  0  0  0  0  0  0  0  0  0  0
   -2.1185    0.3890   -0.4829 N   0  0  0  0  0  0  0  0  0  0  0  0
   -2.4599   -0.8480    0.2351 C   0  0  0  0  0  0  0  0  0  0  0  0
   -1.9814   -2.0939   -0.5204 C   0  0  0  0  0  0  0  0  0  0  0  0
   -2.2759   -3.3552    0.2504 C   0  0  0  0  0  0  0  0  0  0  0  0
   -3.5095   -4.0035    0.1044 C   0  0  0  0  0  0  0  0  0  0  0  0
   -3.7907   -5.1579    0.8366 C   0  0  0  0  0  0  0  0  0  0  0  0
   -2.8444   -5.6713    1.7222 C   0  0  0  0  0  0  0  0  0  0  0  0
   -1.6169   -5.0301    1.8785 C   0  0  0  0  0  0  0  0  0  0  0  0
   -1.3332   -3.8753    1.1478 C   0  0  0  0  0  0  0  0  0  0  0  0
    3.2274    0.6331    1.9075 N   0  0  0  0  0  0  0  0  0  0  0  0
    4.3110    0.3120    2.8042 C   0  0  0  0  0  0  0  0  0  0  0  0
    4.9102   -0.9750    2.3788 C   0  0  0  0  0  0  0  0  0  0  0  0
    5.0350   -2.2091    2.9842 C   0  0  0  0  0  0  0  0  0  0  0  0
    5.7083   -3.0415    2.0576 C   0  0  0  0  0  0  0  0  0  0  0  0
    5.9446   -2.2678    0.9459 C   0  0  0  0  0  0  0  0  0  0  0  0
    5.4632   -1.0114    1.1289 O   0  0  0  0  0  0  0  0  0  0  0  0
    0.6695    2.7315    1.4476 H   0  0  0  0  0  0  0  0  0  0  0  0
    1.8304    2.1618    0.2231 H   0  0  0  0  0  0  0  0  0  0  0  0
   -3.3631    5.3448   -4.9320 H   0  0  0  0  0  0  0  0  0  0  0  0
   -1.4722    6.9552   -4.9752 H   0  0  0  0  0  0  0  0  0  0  0  0
    0.5091    6.5990   -3.5377 H   0  0  0  0  0  0  0  0  0  0  0  0
    0.6246    4.6318   -2.0328 H   0  0  0  0  0  0  0  0  0  0  0  0
   -3.5489   -0.8952    0.3681 H   0  0  0  0  0  0  0  0  0  0  0  0
   -2.0514   -0.8238    1.2506 H   0  0  0  0  0  0  0  0  0  0  0  0
   -0.9052   -2.0350   -0.7239 H   0  0  0  0  0  0  0  0  0  0  0  0
   -2.4585   -2.1481   -1.5071 H   0  0  0  0  0  0  0  0  0  0  0  0
   -4.2603   -3.6126   -0.5804 H   0  0  0  0  0  0  0  0  0  0  0  0
   -4.7499   -5.6561    0.7174 H   0  0  0  0  0  0  0  0  0  0  0  0
   -3.0651   -6.5701    2.2924 H   0  0  0  0  0  0  0  0  0  0  0  0
   -0.8804   -5.4290    2.5713 H   0  0  0  0  0  0  0  0  0  0  0  0
   -0.3722   -3.3845    1.2852 H   0  0  0  0  0  0  0  0  0  0  0  0
    3.2781    0.2751    0.9611 H   0  0  0  0  0  0  0  0  0  0  0  0
    3.9330    0.2558    3.8312 H   0  0  0  0  0  0  0  0  0  0  0  0
    5.0484    1.1203    2.7520 H   0  0  0  0  0  0  0  0  0  0  0  0
    4.6858   -2.4709    3.9739 H   0  0  0  0  0  0  0  0  0  0  0  0
    5.9869   -4.0779    2.1833 H   0  0  0  0  0  0  0  0  0  0  0  0
    6.4217   -2.4512   -0.0072 H   0  0  0  0  0  0  0  0  0  0  0  0
  1  2  2  0
  2  3  1  0
  3  4  1  0
  4  5  1  0
  5  6  2  0
  6  7  1  0
  7  8  2  0
  8  9  1  0
  9 10  1  0
 10 11  2  0
 11 12  1  0
 12 13  2  0
 13 14  1  0
 14 15  2  0
  8 16  1  0
 16 17  2  0
 16 18  1  0
 18 19  1  0
 19 20  1  0
 20 21  1  0
 21 22  2  0
 22 23  1  0
 23 24  2  0
 24 25  1  0
 25 26  2  0
  2 27  1  0
 27 28  1  0
 28 29  1  0
 29 30  2  0
 30 31  1  0
 31 32  2  0
 32 33  1  0
 18  5  1  0
 26 21  1  0
 33 29  1  0
 15  7  1  0
 15 10  1  0
  3 34  1  0
  3 35  1  0
 11 36  1  0
 12 37  1  0
 13 38  1  0
 14 39  1  0
 19 40  1  0
 19 41  1  0
 20 42  1  0
 20 43  1  0
 22 44  1  0
 23 45  1  0
 24 46  1  0
 25 47  1  0
 26 48  1  0
 27 49  1  0
 28 50  1  0
 28 51  1  0
 30 52  1  0
 31 53  1  0
 32 54  1  0
M  END
$$$$
