
     RDKit          3D

 58 60  0  0  0  0  0  0  0  0999 V2000
   -2.4676   -4.7033   -1.2689 C   0  0  0  0  0  0  0  0  0  0  0  0
   -2.4735   -3.4410   -0.4491 C   0  0  0  0  0  0  0  0  0  0  0  0
   -3.6398   -3.1137    0.2680 C   0  0  0  0  0  0  0  0  0  0  0  0
   -3.7079   -1.9513    1.0357 C   0  0  0  0  0  0  0  0  0  0  0  0
   -2.5978   -1.1133    1.1036 C   0  0  0  0  0  0  0  0  0  0  0  0
   -2.6357    0.3250    2.1441 S   0  0  0  0  0  6  0  0  0  0  0  0
   -3.7334    0.1569    3.0748 O   0  0  0  0  0  0  0  0  0  0  0  0
   -1.2951    0.5796    2.6272 O   0  0  0  0  0  0  0  0  0  0  0  0
   -3.0629    1.5888    1.0713 N   0  0  0  0  0  0  0  0  0  0  0  0
   -3.4383    2.8448    1.8054 C   0  0  0  0  0  0  0  0  0  0  0  0
   -3.9092    3.9105    0.8116 C   0  0  0  0  0  0  0  0  0  0  0  0
   -2.8901    4.2064   -0.1534 O   0  0  0  0  0  0  0  0  0  0  0  0
   -2.5514    3.0246   -0.8930 C   0  0  0  0  0  0  0  0  0  0  0  0
   -2.0302    1.9151    0.0283 C   0  0  0  0  0  0  0  0  0  0  0  0
   -1.4235   -1.4359    0.4196 C   0  0  0  0  0  0  0  0  0  0  0  0
   -1.3628   -2.5732   -0.3937 C   0  0  0  0  0  0  0  0  0  0  0  0
   -0.1974   -2.8801   -1.1341 N   0  0  0  0  0  0  0  0  0  0  0  0
    0.7904   -1.9725   -1.4957 C   0  0  0  0  0  0  0  0  0  0  0  0
    0.7150   -0.7528   -1.3578 O   0  0  0  0  0  0  0  0  0  0  0  0
    2.0068   -2.6431   -2.1323 C   0  0  0  0  0  0  0  0  0  0  0  0
    3.0669   -1.6893   -2.1493 O   0  0  0  0  0  0  0  0  0  0  0  0
    4.3145   -2.1932   -2.3369 C   0  0  0  0  0  0  0  0  0  0  0  0
    4.5477   -3.3432   -2.6871 O   0  0  0  0  0  0  0  0  0  0  0  0
    5.3803   -1.1179   -2.1085 C   0  0  0  0  0  0  0  0  0  0  0  0
    4.8274    0.1114   -1.5474 N   0  0  0  0  0  0  0  0  0  0  0  0
    4.5688    0.1614   -0.1885 C   0  0  0  0  0  0  0  0  0  0  0  0
    4.9818   -0.6772    0.6028 O   0  0  0  0  0  0  0  0  0  0  0  0
    3.6693    1.2560    0.2632 C   0  0  0  0  0  0  0  0  0  0  0  0
    2.8083    1.0098    1.3385 C   0  0  0  0  0  0  0  0  0  0  0  0
    1.9288    2.0025    1.7719 C   0  0  0  0  0  0  0  0  0  0  0  0
    1.9167    3.2465    1.1415 C   0  0  0  0  0  0  0  0  0  0  0  0
    2.7849    3.5020    0.0793 C   0  0  0  0  0  0  0  0  0  0  0  0
    3.6631    2.5093   -0.3619 C   0  0  0  0  0  0  0  0  0  0  0  0
   -1.6966   -5.3887   -0.9027 H   0  0  0  0  0  0  0  0  0  0  0  0
   -3.4274   -5.2278   -1.2115 H   0  0  0  0  0  0  0  0  0  0  0  0
   -2.2839   -4.4717   -2.3229 H   0  0  0  0  0  0  0  0  0  0  0  0
   -4.5102   -3.7671    0.2322 H   0  0  0  0  0  0  0  0  0  0  0  0
   -4.6173   -1.7177    1.5853 H   0  0  0  0  0  0  0  0  0  0  0  0
   -4.2491    2.6402    2.5103 H   0  0  0  0  0  0  0  0  0  0  0  0
   -2.5643    3.2131    2.3553 H   0  0  0  0  0  0  0  0  0  0  0  0
   -4.1385    4.8385    1.3437 H   0  0  0  0  0  0  0  0  0  0  0  0
   -4.8172    3.5905    0.2873 H   0  0  0  0  0  0  0  0  0  0  0  0
   -1.7780    3.2985   -1.6175 H   0  0  0  0  0  0  0  0  0  0  0  0
   -3.4312    2.6900   -1.4541 H   0  0  0  0  0  0  0  0  0  0  0  0
   -1.1112    2.2508    0.5210 H   0  0  0  0  0  0  0  0  0  0  0  0
   -1.8168    1.0398   -0.5876 H   0  0  0  0  0  0  0  0  0  0  0  0
   -0.5567   -0.7915    0.5456 H   0  0  0  0  0  0  0  0  0  0  0  0
   -0.1466   -3.8008   -1.5502 H   0  0  0  0  0  0  0  0  0  0  0  0
    2.2821   -3.5209   -1.5371 H   0  0  0  0  0  0  0  0  0  0  0  0
    1.7533   -2.9291   -3.1576 H   0  0  0  0  0  0  0  0  0  0  0  0
    5.8198   -0.8592   -3.0753 H   0  0  0  0  0  0  0  0  0  0  0  0
    6.1452   -1.5171   -1.4366 H   0  0  0  0  0  0  0  0  0  0  0  0
    4.1720    0.6119   -2.1359 H   0  0  0  0  0  0  0  0  0  0  0  0
    2.8095    0.0402    1.8316 H   0  0  0  0  0  0  0  0  0  0  0  0
    1.2501    1.8010    2.5983 H   0  0  0  0  0  0  0  0  0  0  0  0
    1.2317    4.0184    1.4838 H   0  0  0  0  0  0  0  0  0  0  0  0
    2.7795    4.4775   -0.4008 H   0  0  0  0  0  0  0  0  0  0  0  0
    4.3478    2.7311   -1.1750 H   0  0  0  0  0  0  0  0  0  0  0  0
  1  2  1  0
  2  3  2  0
  3  4  1  0
  4  5  2  0
  5  6  1  0
  6  7  2  0
  6  8  2  0
  6  9  1  0
  9 10  1  0
 10 11  1  0
 11 12  1  0
 12 13  1  0
 13 14  1  0
  5 15  1  0
 15 16  2  0
 16 17  1  0
 17 18  1  0
 18 19  2  0
 18 20  1  0
 20 21  1  0
 21 22  1  0
 22 23  2  0
 22 24  1  0
 24 25  1  0
 25 26  1  0
 26 27  2  0
 26 28  1  0
 28 29  2  0
 29 30  1  0
 30 31  2  0
 31 32  1  0
 32 33  2  0
 16  2  1  0
 33 28  1  0
 14  9  1  0
  1 34  1  0
  1 35  1  0
  1 36  1  0
  3 37  1  0
  4 38  1  0
 10 39  1  0
 10 40  1  0
 11 41  1  0
 11 42  1  0
 13 43  1  0
 13 44  1  0
 14 45  1  0
 14 46  1  0
 15 47  1  0
 17 48  1  0
 20 49  1  0
 20 50  1  0
 24 51  1  0
 24 52  1  0
 25 53  1  0
 29 54  1  0
 30 55  1  0
 31 56  1  0
 32 57  1  0
 33 58  1  0
M  END
$$$$
