
     RDKit          3D

 36 38  0  0  0  0  0  0  0  0999 V2000
   -3.7096    0.5906   -2.6640 C   0  0  0  0  0  0  0  0  0  0  0  0
   -2.7772    0.2954   -1.5312 C   0  0  0  0  0  0  0  0  0  0  0  0
   -1.4566    0.4662   -1.7476 N   0  0  0  0  0  0  0  0  0  0  0  0
   -0.6397    0.2023   -0.6965 C   0  0  0  0  0  0  0  0  0  0  0  0
    1.1087    0.4416   -0.9992 S   0  0  0  0  0  6  0  0  0  0  0  0
    1.5199   -0.5399   -1.9931 O   0  0  0  0  0  0  0  0  0  0  0  0
    1.3267    1.8664   -1.2044 O   0  0  0  0  0  0  0  0  0  0  0  0
    1.8485   -0.0120    0.5639 C   0  0  0  0  0  0  0  0  0  0  0  0
    3.3489    0.1333    0.4769 C   0  0  0  0  0  0  0  0  0  0  0  0
    3.9662    1.3529    0.7941 C   0  0  0  0  0  0  0  0  0  0  0  0
    5.3541    1.4870    0.7124 C   0  0  0  0  0  0  0  0  0  0  0  0
    6.1326    0.4042    0.3108 C   0  0  0  0  0  0  0  0  0  0  0  0
    7.8424    0.5694    0.2129 Cl  0  0  0  0  0  0  0  0  0  0  0  0
    5.5345   -0.8107   -0.0145 C   0  0  0  0  0  0  0  0  0  0  0  0
    4.1465   -0.9459    0.0665 C   0  0  0  0  0  0  0  0  0  0  0  0
   -0.9805   -0.2077    0.5446 N   0  0  0  0  0  0  0  0  0  0  0  0
   -2.2996   -0.3653    0.6863 C   0  0  0  0  0  0  0  0  0  0  0  0
   -3.2359   -0.1353   -0.3087 C   0  0  0  0  0  0  0  0  0  0  0  0
   -4.6226   -0.3659    0.1868 C   0  0  0  0  0  0  0  0  0  0  0  0
   -4.3516   -1.1959    1.4517 C   0  0  0  0  0  0  0  0  0  0  0  0
   -2.9720   -0.7673    1.9692 C   0  0  0  0  0  0  0  0  0  0  0  0
   -4.4242    1.3678   -2.3760 H   0  0  0  0  0  0  0  0  0  0  0  0
   -3.1573    0.9463   -3.5397 H   0  0  0  0  0  0  0  0  0  0  0  0
   -4.2556   -0.3133   -2.9507 H   0  0  0  0  0  0  0  0  0  0  0  0
    1.5782   -1.0481    0.7912 H   0  0  0  0  0  0  0  0  0  0  0  0
    1.4477    0.6418    1.3448 H   0  0  0  0  0  0  0  0  0  0  0  0
    3.3704    2.2134    1.0948 H   0  0  0  0  0  0  0  0  0  0  0  0
    5.8187    2.4386    0.9565 H   0  0  0  0  0  0  0  0  0  0  0  0
    6.1401   -1.6531   -0.3378 H   0  0  0  0  0  0  0  0  0  0  0  0
    3.6932   -1.8975   -0.2062 H   0  0  0  0  0  0  0  0  0  0  0  0
   -5.2405   -0.9207   -0.5245 H   0  0  0  0  0  0  0  0  0  0  0  0
   -5.0998    0.5876    0.4351 H   0  0  0  0  0  0  0  0  0  0  0  0
   -4.3195   -2.2609    1.1825 H   0  0  0  0  0  0  0  0  0  0  0  0
   -5.1365   -1.0782    2.2052 H   0  0  0  0  0  0  0  0  0  0  0  0
   -2.4507   -1.5853    2.4729 H   0  0  0  0  0  0  0  0  0  0  0  0
   -3.0480    0.0982    2.6350 H   0  0  0  0  0  0  0  0  0  0  0  0
  1  2  1  0
  2  3  2  0
  3  4  1  0
  4  5  1  0
  5  6  2  0
  5  7  2  0
  5  8  1  0
  8  9  1  0
  9 10  2  0
 10 11  1  0
 11 12  2  0
 12 13  1  0
 12 14  1  0
 14 15  2  0
  4 16  2  0
 16 17  1  0
 17 18  2  0
 18 19  1  0
 19 20  1  0
 20 21  1  0
 18  2  1  0
 15  9  1  0
 21 17  1  0
  1 22  1  0
  1 23  1  0
  1 24  1  0
  8 25  1  0
  8 26  1  0
 10 27  1  0
 11 28  1  0
 14 29  1  0
 15 30  1  0
 19 31  1  0
 19 32  1  0
 20 33  1  0
 20 34  1  0
 21 35  1  0
 21 36  1  0
M  END
$$$$
