
     RDKit          3D

 33 34  0  0  0  0  0  0  0  0999 V2000
   -6.0824    0.7806   -1.3130 C   0  0  0  0  0  0  0  0  0  0  0  0
   -4.7670    0.7984   -0.5553 C   0  0  0  0  0  0  0  0  0  0  0  0
   -3.9379   -0.2324   -1.0889 O   0  0  0  0  0  0  0  0  0  0  0  0
   -2.6965   -0.3848   -0.5373 C   0  0  0  0  0  0  0  0  0  0  0  0
   -2.1586    0.3784    0.5001 C   0  0  0  0  0  0  0  0  0  0  0  0
   -0.8659    0.1163    0.9730 C   0  0  0  0  0  0  0  0  0  0  0  0
   -0.1004   -0.9092    0.4042 C   0  0  0  0  0  0  0  0  0  0  0  0
    1.2767   -1.2250    0.8762 C   0  0  0  0  0  0  0  0  0  0  0  0
    1.7323   -2.3543    0.7358 O   0  0  0  0  0  0  0  0  0  0  0  0
    1.9859   -0.1809    1.4297 N   0  0  0  0  0  0  0  0  0  0  0  0
    3.3861   -0.3262    1.7609 C   0  0  0  0  0  0  0  0  0  0  0  0
    4.1912    0.1455    0.6083 C   0  0  0  0  0  0  0  0  0  0  0  0
    4.7222   -0.4884   -0.4960 C   0  0  0  0  0  0  0  0  0  0  0  0
    5.3842    0.5099   -1.2493 C   0  0  0  0  0  0  0  0  0  0  0  0
    5.2115    1.6875   -0.5606 C   0  0  0  0  0  0  0  0  0  0  0  0
    4.4844    1.4784    0.5673 O   0  0  0  0  0  0  0  0  0  0  0  0
   -0.6467   -1.6837   -0.6238 C   0  0  0  0  0  0  0  0  0  0  0  0
   -1.9354   -1.4165   -1.0926 C   0  0  0  0  0  0  0  0  0  0  0  0
   -5.9134    0.9427   -2.3827 H   0  0  0  0  0  0  0  0  0  0  0  0
   -6.5725   -0.1935   -1.2118 H   0  0  0  0  0  0  0  0  0  0  0  0
   -6.7575    1.5561   -0.9405 H   0  0  0  0  0  0  0  0  0  0  0  0
   -4.9638    0.6163    0.5075 H   0  0  0  0  0  0  0  0  0  0  0  0
   -4.2908    1.7767   -0.6884 H   0  0  0  0  0  0  0  0  0  0  0  0
   -2.7203    1.1794    0.9696 H   0  0  0  0  0  0  0  0  0  0  0  0
   -0.4851    0.7049    1.8028 H   0  0  0  0  0  0  0  0  0  0  0  0
    1.6685    0.7639    1.2649 H   0  0  0  0  0  0  0  0  0  0  0  0
    3.5799    0.2894    2.6449 H   0  0  0  0  0  0  0  0  0  0  0  0
    3.6209   -1.3669    2.0052 H   0  0  0  0  0  0  0  0  0  0  0  0
    4.6295   -1.5420   -0.7244 H   0  0  0  0  0  0  0  0  0  0  0  0
    5.9177    0.3875   -2.1812 H   0  0  0  0  0  0  0  0  0  0  0  0
    5.5249    2.7078   -0.7322 H   0  0  0  0  0  0  0  0  0  0  0  0
   -0.0712   -2.4949   -1.0650 H   0  0  0  0  0  0  0  0  0  0  0  0
   -2.3506   -2.0210   -1.8958 H   0  0  0  0  0  0  0  0  0  0  0  0
  1  2  1  0
  2  3  1  0
  3  4  1  0
  4  5  2  0
  5  6  1  0
  6  7  2  0
  7  8  1  0
  8  9  2  0
  8 10  1  0
 10 11  1  0
 11 12  1  0
 12 13  2  0
 13 14  1  0
 14 15  2  0
 15 16  1  0
  7 17  1  0
 17 18  2  0
 18  4  1  0
 16 12  1  0
  1 19  1  0
  1 20  1  0
  1 21  1  0
  2 22  1  0
  2 23  1  0
  5 24  1  0
  6 25  1  0
 10 26  1  0
 11 27  1  0
 11 28  1  0
 13 29  1  0
 14 30  1  0
 15 31  1  0
 17 32  1  0
 18 33  1  0
M  END
$$$$
