
     RDKit          3D

 73 75  0  0  0  0  0  0  0  0999 V2000
   -0.2756    0.6981   -5.3451 C   0  0  0  0  0  0  0  0  0  0  0  0
   -1.4039    0.9283   -4.3465 C   0  0  0  0  0  0  0  0  0  0  0  0
   -1.3506    0.1016   -3.0492 C   0  0  0  0  0  0  0  0  0  0  0  0
    0.2780    0.1800   -2.2000 S   0  0  0  0  0  0  0  0  0  0  0  0
   -0.0498    1.4372   -1.0273 C   0  0  0  0  0  0  0  0  0  0  0  0
   -0.5569    2.5409   -1.4650 N   0  0  0  0  0  0  0  0  0  0  0  0
   -0.7984    3.5744   -0.5535 C   0  0  0  0  0  0  0  0  0  0  0  0
   -1.3761    4.7597   -1.0147 C   0  0  0  0  0  0  0  0  0  0  0  0
   -1.6341    5.8192   -0.1375 C   0  0  0  0  0  0  0  0  0  0  0  0
   -2.2108    7.0077   -0.5078 O   0  0  0  0  0  0  0  0  0  0  0  0
   -2.4289    7.2335   -1.8932 C   0  0  0  0  0  0  0  0  0  0  0  0
   -1.3063    5.6914    1.2295 C   0  0  0  0  0  0  0  0  0  0  0  0
   -1.5891    6.7742    2.0232 O   0  0  0  0  0  0  0  0  0  0  0  0
   -1.3829    6.6379    3.4235 C   0  0  0  0  0  0  0  0  0  0  0  0
   -0.7201    4.5104    1.6886 C   0  0  0  0  0  0  0  0  0  0  0  0
   -0.4764    3.4630    0.7925 C   0  0  0  0  0  0  0  0  0  0  0  0
    0.1182    2.1966    1.2512 C   0  0  0  0  0  0  0  0  0  0  0  0
    0.4459    2.0773    2.4295 O   0  0  0  0  0  0  0  0  0  0  0  0
    0.2686    1.1927    0.2990 N   0  0  0  0  0  0  0  0  0  0  0  0
    0.8033   -0.0830    0.7901 C   0  0  0  0  0  0  0  0  0  0  0  0
    2.3357   -0.1283    0.7559 C   0  0  0  0  0  0  0  0  0  0  0  0
    2.8299   -1.5119    1.1018 C   0  0  0  0  0  0  0  0  0  0  0  0
    3.1897   -2.4087    0.0917 C   0  0  0  0  0  0  0  0  0  0  0  0
    3.5820   -3.7110    0.4094 C   0  0  0  0  0  0  0  0  0  0  0  0
    3.6154   -4.1388    1.7397 C   0  0  0  0  0  0  0  0  0  0  0  0
    3.9614   -5.4062    2.1368 O   0  0  0  0  0  0  0  0  0  0  0  0
    4.4701   -6.2897    1.1495 C   0  0  0  0  0  0  0  0  0  0  0  0
    3.2576   -3.2411    2.7653 C   0  0  0  0  0  0  0  0  0  0  0  0
    3.3003   -3.7380    4.0444 O   0  0  0  0  0  0  0  0  0  0  0  0
    2.9952   -2.8483    5.1096 C   0  0  0  0  0  0  0  0  0  0  0  0
    2.8727   -1.9352    2.4380 C   0  0  0  0  0  0  0  0  0  0  0  0
   -1.6960   -1.3807   -3.2738 C   0  0  0  0  0  0  0  0  0  0  0  0
   -1.8223   -1.8943   -4.3821 O   0  0  0  0  0  0  0  0  0  0  0  0
   -1.8782   -2.0972   -2.1045 N   0  0  0  0  0  0  0  0  0  0  0  0
   -2.1169   -3.5303   -2.1285 C   0  0  0  0  0  0  0  0  0  0  0  0
   -2.4070   -4.1014   -0.7401 C   0  0  0  0  0  0  0  0  0  0  0  0
   -3.6305   -3.5513   -0.2432 O   0  0  0  0  0  0  0  0  0  0  0  0
   -4.0009   -4.1284    1.0016 C   0  0  0  0  0  0  0  0  0  0  0  0
   -0.4428    1.3054   -6.2402 H   0  0  0  0  0  0  0  0  0  0  0  0
    0.6959    0.9913   -4.9380 H   0  0  0  0  0  0  0  0  0  0  0  0
   -0.2130   -0.3469   -5.6681 H   0  0  0  0  0  0  0  0  0  0  0  0
   -1.4175    1.9949   -4.0909 H   0  0  0  0  0  0  0  0  0  0  0  0
   -2.3576    0.7289   -4.8548 H   0  0  0  0  0  0  0  0  0  0  0  0
   -2.1287    0.4829   -2.3747 H   0  0  0  0  0  0  0  0  0  0  0  0
   -1.6197    4.8180   -2.0708 H   0  0  0  0  0  0  0  0  0  0  0  0
   -1.4885    7.1906   -2.4506 H   0  0  0  0  0  0  0  0  0  0  0  0
   -2.8392    8.2419   -2.0089 H   0  0  0  0  0  0  0  0  0  0  0  0
   -3.1603    6.5273   -2.2967 H   0  0  0  0  0  0  0  0  0  0  0  0
   -1.7499    7.5475    3.9052 H   0  0  0  0  0  0  0  0  0  0  0  0
   -1.9529    5.7983    3.8296 H   0  0  0  0  0  0  0  0  0  0  0  0
   -0.3174    6.5381    3.6530 H   0  0  0  0  0  0  0  0  0  0  0  0
   -0.4436    4.3769    2.7304 H   0  0  0  0  0  0  0  0  0  0  0  0
    0.3730   -0.9131    0.2182 H   0  0  0  0  0  0  0  0  0  0  0  0
    0.4568   -0.2412    1.8197 H   0  0  0  0  0  0  0  0  0  0  0  0
    2.7143    0.1606   -0.2329 H   0  0  0  0  0  0  0  0  0  0  0  0
    2.7587    0.6019    1.4590 H   0  0  0  0  0  0  0  0  0  0  0  0
    3.1607   -2.1061   -0.9534 H   0  0  0  0  0  0  0  0  0  0  0  0
    3.8435   -4.3730   -0.4086 H   0  0  0  0  0  0  0  0  0  0  0  0
    3.7044   -6.5354    0.4059 H   0  0  0  0  0  0  0  0  0  0  0  0
    5.3660   -5.8789    0.6727 H   0  0  0  0  0  0  0  0  0  0  0  0
    4.7547   -7.2211    1.6497 H   0  0  0  0  0  0  0  0  0  0  0  0
    1.9619   -2.4909    5.0456 H   0  0  0  0  0  0  0  0  0  0  0  0
    3.7012   -2.0124    5.1406 H   0  0  0  0  0  0  0  0  0  0  0  0
    3.0952   -3.4048    6.0458 H   0  0  0  0  0  0  0  0  0  0  0  0
    2.5850   -1.2257    3.2085 H   0  0  0  0  0  0  0  0  0  0  0  0
   -1.6361   -1.6669   -1.2192 H   0  0  0  0  0  0  0  0  0  0  0  0
   -1.2226   -4.0059   -2.5501 H   0  0  0  0  0  0  0  0  0  0  0  0
   -2.9578   -3.7218   -2.8052 H   0  0  0  0  0  0  0  0  0  0  0  0
   -1.5966   -3.8568   -0.0428 H   0  0  0  0  0  0  0  0  0  0  0  0
   -2.4998   -5.1911   -0.8140 H   0  0  0  0  0  0  0  0  0  0  0  0
   -3.2872   -3.8532    1.7849 H   0  0  0  0  0  0  0  0  0  0  0  0
   -4.9860   -3.7428    1.2784 H   0  0  0  0  0  0  0  0  0  0  0  0
   -4.0665   -5.2169    0.9136 H   0  0  0  0  0  0  0  0  0  0  0  0
  1  2  1  0
  2  3  1  0
  3  4  1  0
  4  5  1  0
  5  6  2  0
  6  7  1  0
  7  8  2  0
  8  9  1  0
  9 10  1  0
 10 11  1  0
  9 12  2  0
 12 13  1  0
 13 14  1  0
 12 15  1  0
 15 16  2  0
 16 17  1  0
 17 18  2  0
 17 19  1  0
 19 20  1  0
 20 21  1  0
 21 22  1  0
 22 23  2  0
 23 24  1  0
 24 25  2  0
 25 26  1  0
 26 27  1  0
 25 28  1  0
 28 29  1  0
 29 30  1  0
 28 31  2  0
  3 32  1  0
 32 33  2  0
 32 34  1  0
 34 35  1  0
 35 36  1  0
 36 37  1  0
 37 38  1  0
 19  5  1  0
 31 22  1  0
 16  7  1  0
  1 39  1  0
  1 40  1  0
  1 41  1  0
  2 42  1  0
  2 43  1  0
  3 44  1  0
  8 45  1  0
 11 46  1  0
 11 47  1  0
 11 48  1  0
 14 49  1  0
 14 50  1  0
 14 51  1  0
 15 52  1  0
 20 53  1  0
 20 54  1  0
 21 55  1  0
 21 56  1  0
 23 57  1  0
 24 58  1  0
 27 59  1  0
 27 60  1  0
 27 61  1  0
 30 62  1  0
 30 63  1  0
 30 64  1  0
 31 65  1  0
 34 66  1  0
 35 67  1  0
 35 68  1  0
 36 69  1  0
 36 70  1  0
 38 71  1  0
 38 72  1  0
 38 73  1  0
M  END
$$$$
