
     RDKit          3D

 58 59  0  0  0  0  0  0  0  0999 V2000
    7.8417   -1.0017   -4.1995 C   0  0  0  0  0  0  0  0  0  0  0  0
    6.7761   -1.0259   -3.1151 C   0  0  0  0  0  0  0  0  0  0  0  0
    7.4000   -1.0383   -1.7177 C   0  0  0  0  0  0  0  0  0  0  0  0
    6.3449   -1.1035   -0.6138 C   0  0  0  0  0  0  0  0  0  0  0  0
    5.5440    0.0762   -0.6705 O   0  0  0  0  0  0  0  0  0  0  0  0
    4.5158    0.1800    0.2239 C   0  0  0  0  0  0  0  0  0  0  0  0
    4.2040   -0.7385    1.2275 C   0  0  0  0  0  0  0  0  0  0  0  0
    3.1163   -0.5097    2.0805 C   0  0  0  0  0  0  0  0  0  0  0  0
    2.3301    0.6394    1.9293 C   0  0  0  0  0  0  0  0  0  0  0  0
    1.1657    0.9225    2.8137 C   0  0  0  0  0  0  0  0  0  0  0  0
    0.7929    2.0749    2.9970 O   0  0  0  0  0  0  0  0  0  0  0  0
    0.5335   -0.1748    3.3628 N   0  0  0  0  0  0  0  0  0  0  0  0
   -0.7371   -0.0120    4.0568 C   0  0  0  0  0  0  0  0  0  0  0  0
   -1.9041   -0.2118    3.0983 C   0  0  0  0  0  0  0  0  0  0  0  0
   -1.8131   -0.6541    1.9573 O   0  0  0  0  0  0  0  0  0  0  0  0
   -3.0813    0.0970    3.7147 O   0  0  0  0  0  0  0  0  0  0  0  0
   -4.2295   -0.0523    2.8706 C   0  0  0  0  0  0  0  0  0  0  0  0
   -4.2869    1.0255    1.7845 C   0  0  0  0  0  0  0  0  0  0  0  0
   -3.7356    2.1182    1.9544 O   0  0  0  0  0  0  0  0  0  0  0  0
   -4.9659    0.6997    0.4848 C   0  0  0  0  0  0  0  0  0  0  0  0
   -4.6063    1.3281   -0.6577 C   0  0  0  0  0  0  0  0  0  0  0  0
   -3.6693    2.3549   -0.6856 N   0  0  0  0  0  0  0  0  0  0  0  0
   -5.2050    0.9532   -1.8579 N   0  0  0  0  0  0  0  0  0  0  0  0
   -4.8985    1.7131   -3.0696 C   0  0  0  0  0  0  0  0  0  0  0  0
   -6.1087   -0.0981   -1.9785 C   0  0  0  0  0  0  0  0  0  0  0  0
   -6.6315   -0.4061   -3.0516 O   0  0  0  0  0  0  0  0  0  0  0  0
   -6.4044   -0.7781   -0.8104 N   0  0  0  0  0  0  0  0  0  0  0  0
   -7.3813   -1.8491   -0.8859 C   0  0  0  0  0  0  0  0  0  0  0  0
   -6.0139   -0.3418    0.4331 C   0  0  0  0  0  0  0  0  0  0  0  0
   -6.4984   -0.7734    1.4794 O   0  0  0  0  0  0  0  0  0  0  0  0
    2.6552    1.5683    0.9361 C   0  0  0  0  0  0  0  0  0  0  0  0
    3.7398    1.3341    0.0873 C   0  0  0  0  0  0  0  0  0  0  0  0
    8.4730   -0.1121   -4.1093 H   0  0  0  0  0  0  0  0  0  0  0  0
    8.4832   -1.8864   -4.1394 H   0  0  0  0  0  0  0  0  0  0  0  0
    7.3744   -0.9876   -5.1889 H   0  0  0  0  0  0  0  0  0  0  0  0
    6.1293   -0.1492   -3.2327 H   0  0  0  0  0  0  0  0  0  0  0  0
    6.1470   -1.9132   -3.2492 H   0  0  0  0  0  0  0  0  0  0  0  0
    8.0010   -0.1296   -1.5901 H   0  0  0  0  0  0  0  0  0  0  0  0
    8.0726   -1.8985   -1.6206 H   0  0  0  0  0  0  0  0  0  0  0  0
    6.8556   -1.1584    0.3549 H   0  0  0  0  0  0  0  0  0  0  0  0
    5.7235   -1.9963   -0.7552 H   0  0  0  0  0  0  0  0  0  0  0  0
    4.7928   -1.6372    1.3814 H   0  0  0  0  0  0  0  0  0  0  0  0
    2.9156   -1.2246    2.8735 H   0  0  0  0  0  0  0  0  0  0  0  0
    0.6772   -1.0653    2.9030 H   0  0  0  0  0  0  0  0  0  0  0  0
   -0.7984    0.9821    4.5085 H   0  0  0  0  0  0  0  0  0  0  0  0
   -0.7852   -0.7843    4.8294 H   0  0  0  0  0  0  0  0  0  0  0  0
   -5.1122    0.0598    3.5077 H   0  0  0  0  0  0  0  0  0  0  0  0
   -4.2276   -1.0607    2.4432 H   0  0  0  0  0  0  0  0  0  0  0  0
   -3.2769    2.5631    0.2432 H   0  0  0  0  0  0  0  0  0  0  0  0
   -2.9152    2.1697   -1.3411 H   0  0  0  0  0  0  0  0  0  0  0  0
   -5.0807    2.7780   -2.8917 H   0  0  0  0  0  0  0  0  0  0  0  0
   -3.8497    1.5502   -3.3384 H   0  0  0  0  0  0  0  0  0  0  0  0
   -5.5151    1.4085   -3.9199 H   0  0  0  0  0  0  0  0  0  0  0  0
   -7.2828   -2.5304   -0.0354 H   0  0  0  0  0  0  0  0  0  0  0  0
   -8.3828   -1.4064   -0.8739 H   0  0  0  0  0  0  0  0  0  0  0  0
   -7.2566   -2.4218   -1.8100 H   0  0  0  0  0  0  0  0  0  0  0  0
    2.0650    2.4751    0.8179 H   0  0  0  0  0  0  0  0  0  0  0  0
    3.9837    2.0596   -0.6856 H   0  0  0  0  0  0  0  0  0  0  0  0
  1  2  1  0
  2  3  1  0
  3  4  1  0
  4  5  1  0
  5  6  1  0
  6  7  2  0
  7  8  1  0
  8  9  2  0
  9 10  1  0
 10 11  2  0
 10 12  1  0
 12 13  1  0
 13 14  1  0
 14 15  2  0
 14 16  1  0
 16 17  1  0
 17 18  1  0
 18 19  2  0
 18 20  1  0
 20 21  2  0
 21 22  1  0
 21 23  1  0
 23 24  1  0
 23 25  1  0
 25 26  2  0
 25 27  1  0
 27 28  1  0
 27 29  1  0
 29 30  2  0
  9 31  1  0
 31 32  2  0
 32  6  1  0
 29 20  1  0
  1 33  1  0
  1 34  1  0
  1 35  1  0
  2 36  1  0
  2 37  1  0
  3 38  1  0
  3 39  1  0
  4 40  1  0
  4 41  1  0
  7 42  1  0
  8 43  1  0
 12 44  1  0
 13 45  1  0
 13 46  1  0
 17 47  1  0
 17 48  1  0
 22 49  1  0
 22 50  1  0
 24 51  1  0
 24 52  1  0
 24 53  1  0
 28 54  1  0
 28 55  1  0
 28 56  1  0
 31 57  1  0
 32 58  1  0
M  END
$$$$
