
     RDKit          3D

 43 45  0  0  0  0  0  0  0  0999 V2000
    7.5294    0.0301    1.9896 O   0  0  0  0  0  0  0  0  0  0  0  0
    8.0473   -0.4238    0.9836 C   0  0  0  0  0  0  0  0  0  0  0  0
    9.3935   -0.4229    0.8636 O   0  0  0  0  0  0  0  0  0  0  0  0
    7.3804   -1.0607   -0.2110 C   0  0  0  0  0  0  0  0  0  0  0  0
    5.8829   -0.8731   -0.2525 C   0  0  0  0  0  0  0  0  0  0  0  0
    5.0423   -1.6617    0.5408 C   0  0  0  0  0  0  0  0  0  0  0  0
    3.6564   -1.4780    0.5048 C   0  0  0  0  0  0  0  0  0  0  0  0
    3.0832   -0.5065   -0.3243 C   0  0  0  0  0  0  0  0  0  0  0  0
    1.6782   -0.3819   -0.2963 N   0  0  0  0  0  0  0  0  0  0  0  0
    0.8930    0.4411   -1.0830 C   0  0  0  0  0  0  0  0  0  0  0  0
    1.2675    1.1563   -2.0045 O   0  0  0  0  0  0  0  0  0  0  0  0
   -0.5662    0.3923   -0.7799 C   0  0  0  0  0  0  0  0  0  0  0  0
   -1.4736    0.5417   -1.8329 C   0  0  0  0  0  0  0  0  0  0  0  0
   -2.8495    0.5004   -1.5866 C   0  0  0  0  0  0  0  0  0  0  0  0
   -3.3380    0.3185   -0.2865 C   0  0  0  0  0  0  0  0  0  0  0  0
   -4.7347    0.2864   -0.1268 N   0  0  0  0  0  0  0  0  0  0  0  0
   -5.4655    0.1033    1.0342 C   0  0  0  0  0  0  0  0  0  0  0  0
   -4.9932   -0.0764    2.1518 O   0  0  0  0  0  0  0  0  0  0  0  0
   -6.8989    0.1395    0.8001 C   0  0  0  0  0  0  0  0  0  0  0  0
   -7.9669    0.0053    1.6672 C   0  0  0  0  0  0  0  0  0  0  0  0
   -9.1429    0.1257    0.8892 C   0  0  0  0  0  0  0  0  0  0  0  0
   -8.7265    0.3257   -0.4054 C   0  0  0  0  0  0  0  0  0  0  0  0
   -7.3701    0.3360   -0.4747 O   0  0  0  0  0  0  0  0  0  0  0  0
   -2.4276    0.1904    0.7650 C   0  0  0  0  0  0  0  0  0  0  0  0
   -1.0480    0.2322    0.5236 C   0  0  0  0  0  0  0  0  0  0  0  0
    3.9212    0.2850   -1.1089 C   0  0  0  0  0  0  0  0  0  0  0  0
    5.3092    0.1055   -1.0725 C   0  0  0  0  0  0  0  0  0  0  0  0
    9.6988    0.0042    1.6920 H   0  0  0  0  0  0  0  0  0  0  0  0
    7.6096   -2.1328   -0.2036 H   0  0  0  0  0  0  0  0  0  0  0  0
    7.8239   -0.6365   -1.1199 H   0  0  0  0  0  0  0  0  0  0  0  0
    5.4595   -2.4190    1.2010 H   0  0  0  0  0  0  0  0  0  0  0  0
    3.0358   -2.1064    1.1380 H   0  0  0  0  0  0  0  0  0  0  0  0
    1.1985   -1.0162    0.3284 H   0  0  0  0  0  0  0  0  0  0  0  0
   -1.1112    0.6894   -2.8487 H   0  0  0  0  0  0  0  0  0  0  0  0
   -3.5297    0.6152   -2.4272 H   0  0  0  0  0  0  0  0  0  0  0  0
   -5.2991    0.4091   -0.9614 H   0  0  0  0  0  0  0  0  0  0  0  0
   -7.8904   -0.1593    2.7339 H   0  0  0  0  0  0  0  0  0  0  0  0
  -10.1677    0.0735    1.2299 H   0  0  0  0  0  0  0  0  0  0  0  0
   -9.2449    0.4711   -1.3434 H   0  0  0  0  0  0  0  0  0  0  0  0
   -2.7568    0.0701    1.7928 H   0  0  0  0  0  0  0  0  0  0  0  0
   -0.3708    0.1697    1.3714 H   0  0  0  0  0  0  0  0  0  0  0  0
    3.5277    1.0617   -1.7571 H   0  0  0  0  0  0  0  0  0  0  0  0
    5.9336    0.7444   -1.6937 H   0  0  0  0  0  0  0  0  0  0  0  0
  1  2  2  0
  2  3  1  0
  2  4  1  0
  4  5  1  0
  5  6  2  0
  6  7  1  0
  7  8  2  0
  8  9  1  0
  9 10  1  0
 10 11  2  0
 10 12  1  0
 12 13  2  0
 13 14  1  0
 14 15  2  0
 15 16  1  0
 16 17  1  0
 17 18  2  0
 17 19  1  0
 19 20  2  0
 20 21  1  0
 21 22  2  0
 22 23  1  0
 15 24  1  0
 24 25  2  0
  8 26  1  0
 26 27  2  0
 27  5  1  0
 25 12  1  0
 23 19  1  0
  3 28  1  0
  4 29  1  0
  4 30  1  0
  6 31  1  0
  7 32  1  0
  9 33  1  0
 13 34  1  0
 14 35  1  0
 16 36  1  0
 20 37  1  0
 21 38  1  0
 22 39  1  0
 24 40  1  0
 25 41  1  0
 26 42  1  0
 27 43  1  0
M  END
$$$$
