
     RDKit          3D

 50 53  0  0  0  0  0  0  0  0999 V2000
   -5.3850   -1.0593    5.3021 C   0  0  0  0  0  0  0  0  0  0  0  0
   -4.5637   -0.8815    4.0597 C   0  0  0  0  0  0  0  0  0  0  0  0
   -3.2094   -0.5501    4.1464 C   0  0  0  0  0  0  0  0  0  0  0  0
   -2.4383   -0.4126    2.9883 C   0  0  0  0  0  0  0  0  0  0  0  0
   -3.0013   -0.6303    1.7195 C   0  0  0  0  0  0  0  0  0  0  0  0
   -2.1752   -0.4728    0.5630 N   0  0  0  0  0  0  0  0  0  0  0  0
   -0.9957    0.1967    0.6934 N   0  0  0  0  0  0  0  0  0  0  0  0
   -0.5616    0.3795   -0.5545 C   0  0  0  0  0  0  0  0  0  0  0  0
    0.6336    1.1075   -0.9528 C   0  0  0  0  0  0  0  0  0  0  0  0
    1.4036    1.6555   -0.1632 O   0  0  0  0  0  0  0  0  0  0  0  0
    0.8471    1.0919   -2.3432 N   0  0  0  0  0  0  0  0  0  0  0  0
    1.9938    1.8102   -2.8932 C   0  0  0  0  0  0  0  0  0  0  0  0
    3.2839    0.9962   -2.7885 C   0  0  0  0  0  0  0  0  0  0  0  0
    3.9468    0.6948   -3.7788 O   0  0  0  0  0  0  0  0  0  0  0  0
    3.6744    0.6976   -1.5016 N   0  0  0  0  0  0  0  0  0  0  0  0
    4.9333    0.0614   -1.1967 C   0  0  0  0  0  0  0  0  0  0  0  0
    5.8078    1.0607   -0.5070 C   0  0  0  0  0  0  0  0  0  0  0  0
    5.7447    1.4919    0.8053 C   0  0  0  0  0  0  0  0  0  0  0  0
    6.7459    2.4594    1.1077 C   0  0  0  0  0  0  0  0  0  0  0  0
    7.5413    2.7344    0.0184 C   0  0  0  0  0  0  0  0  0  0  0  0
    7.0808    1.8310   -1.3578 S   0  0  0  0  0  0  0  0  0  0  0  0
    0.0180    0.4549   -3.2743 N   0  0  0  0  0  0  0  0  0  0  0  0
   -1.0473   -0.1958   -2.8971 C   0  0  0  0  0  0  0  0  0  0  0  0
   -1.8919   -0.8545   -3.9501 C   0  0  0  0  0  0  0  0  0  0  0  0
   -1.3759   -0.2606   -1.4936 C   0  0  0  0  0  0  0  0  0  0  0  0
   -2.3630   -0.8972   -0.7593 C   0  0  0  0  0  0  0  0  0  0  0  0
   -3.3877   -1.8811   -1.1949 C   0  0  0  0  0  0  0  0  0  0  0  0
   -4.3601   -0.9513    1.6353 C   0  0  0  0  0  0  0  0  0  0  0  0
   -5.1298   -1.0872    2.7977 C   0  0  0  0  0  0  0  0  0  0  0  0
   -5.3433   -2.1019    5.6319 H   0  0  0  0  0  0  0  0  0  0  0  0
   -6.4299   -0.7860    5.1216 H   0  0  0  0  0  0  0  0  0  0  0  0
   -5.0170   -0.4179    6.1097 H   0  0  0  0  0  0  0  0  0  0  0  0
   -2.7412   -0.3911    5.1155 H   0  0  0  0  0  0  0  0  0  0  0  0
   -1.3875   -0.1463    3.0964 H   0  0  0  0  0  0  0  0  0  0  0  0
    2.1318    2.7547   -2.3551 H   0  0  0  0  0  0  0  0  0  0  0  0
    1.8015    2.0427   -3.9463 H   0  0  0  0  0  0  0  0  0  0  0  0
    3.1503    1.1039   -0.7278 H   0  0  0  0  0  0  0  0  0  0  0  0
    5.3985   -0.3480   -2.0989 H   0  0  0  0  0  0  0  0  0  0  0  0
    4.7174   -0.7730   -0.5205 H   0  0  0  0  0  0  0  0  0  0  0  0
    5.0084    1.1334    1.5154 H   0  0  0  0  0  0  0  0  0  0  0  0
    6.8742    2.9310    2.0742 H   0  0  0  0  0  0  0  0  0  0  0  0
    8.3719    3.4244   -0.0390 H   0  0  0  0  0  0  0  0  0  0  0  0
   -2.9459   -0.6067   -3.8001 H   0  0  0  0  0  0  0  0  0  0  0  0
   -1.5926   -0.5134   -4.9459 H   0  0  0  0  0  0  0  0  0  0  0  0
   -1.7562   -1.9382   -3.9006 H   0  0  0  0  0  0  0  0  0  0  0  0
   -3.0311   -2.4662   -2.0471 H   0  0  0  0  0  0  0  0  0  0  0  0
   -3.6106   -2.6134   -0.4134 H   0  0  0  0  0  0  0  0  0  0  0  0
   -4.3085   -1.3744   -1.4980 H   0  0  0  0  0  0  0  0  0  0  0  0
   -4.8751   -1.0611    0.6890 H   0  0  0  0  0  0  0  0  0  0  0  0
   -6.1843   -1.3415    2.7088 H   0  0  0  0  0  0  0  0  0  0  0  0
  1  2  1  0
  2  3  2  0
  3  4  1  0
  4  5  2  0
  5  6  1  0
  6  7  1  0
  7  8  2  0
  8  9  1  0
  9 10  2  0
  9 11  1  0
 11 12  1  0
 12 13  1  0
 13 14  2  0
 13 15  1  0
 15 16  1  0
 16 17  1  0
 17 18  2  0
 18 19  1  0
 19 20  2  0
 20 21  1  0
 11 22  1  0
 22 23  2  0
 23 24  1  0
 23 25  1  0
 25 26  2  0
 26 27  1  0
  5 28  1  0
 28 29  2  0
 29  2  1  0
 26  6  1  0
 25  8  1  0
 21 17  1  0
  1 30  1  0
  1 31  1  0
  1 32  1  0
  3 33  1  0
  4 34  1  0
 12 35  1  0
 12 36  1  0
 15 37  1  0
 16 38  1  0
 16 39  1  0
 18 40  1  0
 19 41  1  0
 20 42  1  0
 24 43  1  0
 24 44  1  0
 24 45  1  0
 27 46  1  0
 27 47  1  0
 27 48  1  0
 28 49  1  0
 29 50  1  0
M  END
$$$$
