
     RDKit          3D

 59 64  0  0  0  0  0  0  0  0999 V2000
    4.2242   -1.6139   -2.3932 O   0  0  0  0  0  0  0  0  0  0  0  0
    3.6899   -0.8266   -1.6180 C   0  0  0  0  0  0  0  0  0  0  0  0
    4.5285    0.1899   -0.9542 C   0  0  0  0  0  0  0  0  0  0  0  0
    4.9762   -0.0647    0.2812 C   0  0  0  0  0  0  0  0  0  0  0  0
    5.8063    0.8493    0.9839 C   0  0  0  0  0  0  0  0  0  0  0  0
    6.7191    1.7879    0.5186 C   0  0  0  0  0  0  0  0  0  0  0  0
    7.3802    2.4942    1.5688 C   0  0  0  0  0  0  0  0  0  0  0  0
    6.9452    2.0952    2.8074 C   0  0  0  0  0  0  0  0  0  0  0  0
    5.7745    0.8465    2.7113 S   0  0  0  0  0  0  0  0  0  0  0  0
    2.3236   -0.8001   -1.3523 N   0  0  0  0  0  0  0  0  0  0  0  0
    1.7220   -0.0040   -0.2837 C   0  0  0  0  0  0  0  0  0  0  0  0
    0.2583    0.3436   -0.5579 C   0  0  0  0  0  0  0  0  0  0  0  0
   -0.5910   -0.9146   -0.8718 C   0  0  0  0  0  0  0  0  0  0  0  0
    0.0862   -1.5900   -2.0952 C   0  0  0  0  0  0  0  0  0  0  0  0
    1.5461   -1.9382   -1.8324 C   0  0  0  0  0  0  0  0  0  0  0  0
   -0.4979   -1.7629    0.2973 O   0  0  0  0  0  0  0  0  0  0  0  0
   -1.3415   -2.8375    0.3245 C   0  0  0  0  0  0  0  0  0  0  0  0
   -1.0143   -3.8502    1.2247 C   0  0  0  0  0  0  0  0  0  0  0  0
   -1.8034   -4.9986    1.2913 C   0  0  0  0  0  0  0  0  0  0  0  0
   -2.9148   -5.1252    0.4614 C   0  0  0  0  0  0  0  0  0  0  0  0
   -3.6648   -6.2277    0.5304 F   0  0  0  0  0  0  0  0  0  0  0  0
   -3.2664   -4.1155   -0.4250 C   0  0  0  0  0  0  0  0  0  0  0  0
   -2.4790   -2.9628   -0.4763 C   0  0  0  0  0  0  0  0  0  0  0  0
   -2.8490   -1.8480   -1.3643 C   0  0  0  0  0  0  0  0  0  0  0  0
   -3.7810   -1.9867   -2.1525 O   0  0  0  0  0  0  0  0  0  0  0  0
   -2.0737   -0.5491   -1.1521 C   0  0  0  0  0  0  0  0  0  0  0  0
   -2.7879    0.2156   -0.0423 C   0  0  0  0  0  0  0  0  0  0  0  0
   -2.9678    1.5274   -0.7179 C   0  0  0  0  0  0  0  0  0  0  0  0
   -3.5434    2.7005   -0.0148 C   0  0  0  0  0  0  0  0  0  0  0  0
   -3.7782    3.8848   -0.7452 C   0  0  0  0  0  0  0  0  0  0  0  0
   -4.3632    4.9970   -0.1262 C   0  0  0  0  0  0  0  0  0  0  0  0
   -4.7148    4.9305    1.2223 C   0  0  0  0  0  0  0  0  0  0  0  0
   -4.4806    3.7562    1.9555 C   0  0  0  0  0  0  0  0  0  0  0  0
   -3.9043    2.6405    1.3372 C   0  0  0  0  0  0  0  0  0  0  0  0
   -2.6189    1.5555   -1.9635 N   0  0  0  0  0  0  0  0  0  0  0  0
   -2.1721    0.2654   -2.3224 O   0  0  0  0  0  0  0  0  0  0  0  0
    4.7588    1.0769   -1.5329 H   0  0  0  0  0  0  0  0  0  0  0  0
    4.6846   -0.9882    0.7818 H   0  0  0  0  0  0  0  0  0  0  0  0
    6.9269    1.9474   -0.5304 H   0  0  0  0  0  0  0  0  0  0  0  0
    8.1353    3.2633    1.4154 H   0  0  0  0  0  0  0  0  0  0  0  0
    7.2714    2.4581    3.7737 H   0  0  0  0  0  0  0  0  0  0  0  0
    2.2760    0.9299   -0.1460 H   0  0  0  0  0  0  0  0  0  0  0  0
    1.8171   -0.5788    0.6457 H   0  0  0  0  0  0  0  0  0  0  0  0
    0.2153    1.0452   -1.4038 H   0  0  0  0  0  0  0  0  0  0  0  0
   -0.1221    0.8674    0.3266 H   0  0  0  0  0  0  0  0  0  0  0  0
    0.0368   -0.9190   -2.9608 H   0  0  0  0  0  0  0  0  0  0  0  0
   -0.4300   -2.5115   -2.3853 H   0  0  0  0  0  0  0  0  0  0  0  0
    1.6295   -2.7402   -1.0853 H   0  0  0  0  0  0  0  0  0  0  0  0
    1.9828   -2.3273   -2.7624 H   0  0  0  0  0  0  0  0  0  0  0  0
   -0.1336   -3.7553    1.8596 H   0  0  0  0  0  0  0  0  0  0  0  0
   -1.5554   -5.8042    1.9777 H   0  0  0  0  0  0  0  0  0  0  0  0
   -4.1389   -4.2329   -1.0621 H   0  0  0  0  0  0  0  0  0  0  0  0
   -2.2057    0.3013    0.8810 H   0  0  0  0  0  0  0  0  0  0  0  0
   -3.7754   -0.1943    0.1926 H   0  0  0  0  0  0  0  0  0  0  0  0
   -3.4983    3.9525   -1.7942 H   0  0  0  0  0  0  0  0  0  0  0  0
   -4.5456    5.9104   -0.6990 H   0  0  0  0  0  0  0  0  0  0  0  0
   -5.1705    5.7927    1.7061 H   0  0  0  0  0  0  0  0  0  0  0  0
   -4.7639    3.7088    3.0084 H   0  0  0  0  0  0  0  0  0  0  0  0
   -3.7671    1.7337    1.9294 H   0  0  0  0  0  0  0  0  0  0  0  0
  1  2  2  0
  2  3  1  0
  3  4  2  3
  4  5  1  0
  5  6  2  0
  6  7  1  0
  7  8  2  0
  8  9  1  0
  2 10  1  0
 10 11  1  0
 11 12  1  0
 12 13  1  0
 13 14  1  0
 14 15  1  0
 13 16  1  0
 16 17  1  0
 17 18  2  0
 18 19  1  0
 19 20  2  0
 20 21  1  0
 20 22  1  0
 22 23  2  0
 23 24  1  0
 24 25  2  0
 24 26  1  0
 26 27  1  0
 27 28  1  0
 28 29  1  0
 29 30  2  0
 30 31  1  0
 31 32  2  0
 32 33  1  0
 33 34  2  0
 28 35  2  0
 35 36  1  0
  9  5  1  0
 15 10  1  0
 23 17  1  0
 36 26  1  0
 26 13  1  0
 34 29  1  0
  3 37  1  0
  4 38  1  0
  6 39  1  0
  7 40  1  0
  8 41  1  0
 11 42  1  0
 11 43  1  0
 12 44  1  0
 12 45  1  0
 14 46  1  0
 14 47  1  0
 15 48  1  0
 15 49  1  0
 18 50  1  0
 19 51  1  0
 22 52  1  0
 27 53  1  0
 27 54  1  0
 30 55  1  0
 31 56  1  0
 32 57  1  0
 33 58  1  0
 34 59  1  0
M  END
$$$$
