
     RDKit          3D

 60 62  0  0  0  0  0  0  0  0999 V2000
   -8.0473   -0.4677   -3.3456 C   0  0  0  0  0  0  0  0  0  0  0  0
   -7.7184    0.4545   -2.1815 C   0  0  0  0  0  0  0  0  0  0  0  0
   -6.3146    0.2427   -1.6770 C   0  0  0  0  0  0  0  0  0  0  0  0
   -5.2518    0.9912   -2.1916 C   0  0  0  0  0  0  0  0  0  0  0  0
   -3.9492    0.7797   -1.7300 C   0  0  0  0  0  0  0  0  0  0  0  0
   -3.6827   -0.1862   -0.7522 C   0  0  0  0  0  0  0  0  0  0  0  0
   -2.3412   -0.3283   -0.3456 N   0  0  0  0  0  0  0  0  0  0  0  0
   -1.8131   -1.2342    0.5634 C   0  0  0  0  0  0  0  0  0  0  0  0
   -2.4515   -2.0897    1.1675 O   0  0  0  0  0  0  0  0  0  0  0  0
   -0.2857   -1.0594    0.7464 C   0  0  0  0  0  0  0  0  0  0  0  0
    0.3940   -1.3733   -0.5293 N   0  0  0  0  0  0  0  0  0  0  0  0
    0.9043   -0.1525   -1.5399 S   0  0  0  0  0  6  0  0  0  0  0  0
    1.2856   -0.7735   -2.7861 O   0  0  0  0  0  0  0  0  0  0  0  0
   -0.1005    0.8889   -1.4784 O   0  0  0  0  0  0  0  0  0  0  0  0
    2.3788    0.4065   -0.7331 C   0  0  0  0  0  0  0  0  0  0  0  0
    3.5204   -0.4096   -0.7583 C   0  0  0  0  0  0  0  0  0  0  0  0
    4.7019    0.0045   -0.1279 C   0  0  0  0  0  0  0  0  0  0  0  0
    4.7272    1.2324    0.5149 C   0  0  0  0  0  0  0  0  0  0  0  0
    3.5785    2.0362    0.5245 C   0  0  0  0  0  0  0  0  0  0  0  0
    2.3990    1.6479   -0.0979 C   0  0  0  0  0  0  0  0  0  0  0  0
    3.8177    3.3314    1.2338 C   0  0  0  0  0  0  0  0  0  0  0  0
    5.2180    3.1189    1.8058 C   0  0  0  0  0  0  0  0  0  0  0  0
    5.7555    1.8793    1.2253 N   0  0  0  0  0  0  0  0  0  0  0  0
    7.0632    1.5359    1.4926 C   0  0  0  0  0  0  0  0  0  0  0  0
    7.6496    0.2950    0.8831 C   0  0  0  0  0  0  0  0  0  0  0  0
    7.7721    2.2367    2.2230 O   0  0  0  0  0  0  0  0  0  0  0  0
    0.3702   -1.8966    1.8709 C   0  0  0  0  0  0  0  0  0  0  0  0
    0.2602   -3.4148    1.6946 C   0  0  0  0  0  0  0  0  0  0  0  0
   -0.1385   -1.4820    3.2548 C   0  0  0  0  0  0  0  0  0  0  0  0
   -4.7412   -0.9380   -0.2441 C   0  0  0  0  0  0  0  0  0  0  0  0
   -6.0465   -0.7266   -0.7041 C   0  0  0  0  0  0  0  0  0  0  0  0
   -7.9665   -1.5204   -3.0541 H   0  0  0  0  0  0  0  0  0  0  0  0
   -9.0701   -0.2896   -3.6922 H   0  0  0  0  0  0  0  0  0  0  0  0
   -7.3689   -0.2999   -4.1889 H   0  0  0  0  0  0  0  0  0  0  0  0
   -8.4317    0.2908   -1.3647 H   0  0  0  0  0  0  0  0  0  0  0  0
   -7.8465    1.4991   -2.4901 H   0  0  0  0  0  0  0  0  0  0  0  0
   -5.4281    1.7431   -2.9572 H   0  0  0  0  0  0  0  0  0  0  0  0
   -3.1450    1.3790   -2.1513 H   0  0  0  0  0  0  0  0  0  0  0  0
   -1.6777    0.2993   -0.8027 H   0  0  0  0  0  0  0  0  0  0  0  0
   -0.1206   -0.0042    1.0027 H   0  0  0  0  0  0  0  0  0  0  0  0
    0.2045   -2.2688   -0.9808 H   0  0  0  0  0  0  0  0  0  0  0  0
    3.4944   -1.3711   -1.2691 H   0  0  0  0  0  0  0  0  0  0  0  0
    5.5508   -0.6632   -0.1670 H   0  0  0  0  0  0  0  0  0  0  0  0
    1.5284    2.2974   -0.0895 H   0  0  0  0  0  0  0  0  0  0  0  0
    3.8062    4.1633    0.5222 H   0  0  0  0  0  0  0  0  0  0  0  0
    3.0843    3.5116    2.0250 H   0  0  0  0  0  0  0  0  0  0  0  0
    5.8825    3.9604    1.5788 H   0  0  0  0  0  0  0  0  0  0  0  0
    5.1872    2.9990    2.8959 H   0  0  0  0  0  0  0  0  0  0  0  0
    8.7197    0.2545    1.1132 H   0  0  0  0  0  0  0  0  0  0  0  0
    7.1839   -0.5938    1.3149 H   0  0  0  0  0  0  0  0  0  0  0  0
    7.5526    0.3191   -0.2047 H   0  0  0  0  0  0  0  0  0  0  0  0
    1.4448   -1.6635    1.8529 H   0  0  0  0  0  0  0  0  0  0  0  0
    0.8414   -3.9275    2.4697 H   0  0  0  0  0  0  0  0  0  0  0  0
    0.6581   -3.7375    0.7278 H   0  0  0  0  0  0  0  0  0  0  0  0
   -0.7702   -3.7704    1.7760 H   0  0  0  0  0  0  0  0  0  0  0  0
    0.4341   -1.9861    4.0411 H   0  0  0  0  0  0  0  0  0  0  0  0
   -0.0258   -0.4031    3.4046 H   0  0  0  0  0  0  0  0  0  0  0  0
   -1.1925   -1.7372    3.3984 H   0  0  0  0  0  0  0  0  0  0  0  0
   -4.5902   -1.6995    0.5139 H   0  0  0  0  0  0  0  0  0  0  0  0
   -6.8532   -1.3301   -0.2934 H   0  0  0  0  0  0  0  0  0  0  0  0
  1  2  1  0
  2  3  1  0
  3  4  2  0
  4  5  1  0
  5  6  2  0
  6  7  1  0
  7  8  1  0
  8  9  2  0
  8 10  1  0
 10 11  1  0
 11 12  1  0
 12 13  2  0
 12 14  2  0
 12 15  1  0
 15 16  2  0
 16 17  1  0
 17 18  2  0
 18 19  1  0
 19 20  2  0
 19 21  1  0
 21 22  1  0
 22 23  1  0
 23 24  1  0
 24 25  1  0
 24 26  2  0
 10 27  1  0
 27 28  1  0
 27 29  1  0
  6 30  1  0
 30 31  2  0
 31  3  1  0
 20 15  1  0
 23 18  1  0
  1 32  1  0
  1 33  1  0
  1 34  1  0
  2 35  1  0
  2 36  1  0
  4 37  1  0
  5 38  1  0
  7 39  1  0
 10 40  1  0
 11 41  1  0
 16 42  1  0
 17 43  1  0
 20 44  1  0
 21 45  1  0
 21 46  1  0
 22 47  1  0
 22 48  1  0
 25 49  1  0
 25 50  1  0
 25 51  1  0
 27 52  1  0
 28 53  1  0
 28 54  1  0
 28 55  1  0
 29 56  1  0
 29 57  1  0
 29 58  1  0
 30 59  1  0
 31 60  1  0
M  END
$$$$
