
     RDKit          3D

 48 52  0  0  0  0  0  0  0  0999 V2000
   -4.6247   -2.4834    0.2307 C   0  0  0  0  0  0  0  0  0  0  0  0
   -3.4487   -1.6427    0.2345 N   0  0  0  0  0  0  0  0  0  0  0  0
   -2.2683   -1.9579   -0.3724 C   0  0  0  0  0  0  0  0  0  0  0  0
   -1.3679   -0.9174   -0.1865 C   0  0  0  0  0  0  0  0  0  0  0  0
    0.0374   -0.9210   -0.7558 C   0  0  0  0  0  0  0  0  0  0  0  0
    0.0058   -0.0046   -1.9759 C   0  0  0  0  0  0  0  0  0  0  0  0
    0.1521    1.3834   -1.8989 C   0  0  0  0  0  0  0  0  0  0  0  0
    0.1034    2.1482   -3.0629 C   0  0  0  0  0  0  0  0  0  0  0  0
   -0.0911    1.5201   -4.2840 C   0  0  0  0  0  0  0  0  0  0  0  0
   -0.2226    0.1446   -4.2919 C   0  0  0  0  0  0  0  0  0  0  0  0
   -0.1731   -0.6231   -3.1815 N   0  0  0  0  0  0  0  0  0  0  0  0
    1.1835   -0.5562    0.1624 C   0  0  0  0  0  0  0  0  0  0  0  0
    1.1539   -0.4339    1.5434 C   0  0  0  0  0  0  0  0  0  0  0  0
    2.4059   -0.1210    1.9932 N   0  0  0  0  0  0  0  0  0  0  0  0
    2.7471    0.1078    3.3793 C   0  0  0  0  0  0  0  0  0  0  0  0
    3.2962   -0.0919    0.9450 C   0  0  0  0  0  0  0  0  0  0  0  0
    4.6793    0.1522    0.9206 C   0  0  0  0  0  0  0  0  0  0  0  0
    5.3391    0.0856   -0.3089 C   0  0  0  0  0  0  0  0  0  0  0  0
    4.6451   -0.2191   -1.4741 C   0  0  0  0  0  0  0  0  0  0  0  0
    3.2672   -0.4585   -1.4384 C   0  0  0  0  0  0  0  0  0  0  0  0
    2.5679   -0.3852   -0.2122 C   0  0  0  0  0  0  0  0  0  0  0  0
   -2.0660    0.0707    0.6017 C   0  0  0  0  0  0  0  0  0  0  0  0
   -1.7284    1.3327    1.1431 C   0  0  0  0  0  0  0  0  0  0  0  0
   -2.6667    2.0627    1.8816 C   0  0  0  0  0  0  0  0  0  0  0  0
   -3.9422    1.5573    2.0951 C   0  0  0  0  0  0  0  0  0  0  0  0
   -4.3099    0.3124    1.5820 C   0  0  0  0  0  0  0  0  0  0  0  0
   -3.3588   -0.4120    0.8429 C   0  0  0  0  0  0  0  0  0  0  0  0
   -5.4406   -1.9353   -0.2476 H   0  0  0  0  0  0  0  0  0  0  0  0
   -4.8771   -2.7302    1.2651 H   0  0  0  0  0  0  0  0  0  0  0  0
   -4.4193   -3.4004   -0.3277 H   0  0  0  0  0  0  0  0  0  0  0  0
   -2.1479   -2.8881   -0.9137 H   0  0  0  0  0  0  0  0  0  0  0  0
    0.2545   -1.9398   -1.1113 H   0  0  0  0  0  0  0  0  0  0  0  0
    0.3242    1.8752   -0.9492 H   0  0  0  0  0  0  0  0  0  0  0  0
    0.2190    3.2267   -3.0109 H   0  0  0  0  0  0  0  0  0  0  0  0
   -0.1369    2.0875   -5.2059 H   0  0  0  0  0  0  0  0  0  0  0  0
   -0.3758   -0.3972   -5.2204 H   0  0  0  0  0  0  0  0  0  0  0  0
    0.3309   -0.5482    2.2383 H   0  0  0  0  0  0  0  0  0  0  0  0
    1.8476    0.0354    3.9960 H   0  0  0  0  0  0  0  0  0  0  0  0
    3.4695   -0.6522    3.6879 H   0  0  0  0  0  0  0  0  0  0  0  0
    3.1753    1.1094    3.4693 H   0  0  0  0  0  0  0  0  0  0  0  0
    5.2305    0.3791    1.8273 H   0  0  0  0  0  0  0  0  0  0  0  0
    6.4101    0.2679   -0.3529 H   0  0  0  0  0  0  0  0  0  0  0  0
    5.1731   -0.2740   -2.4225 H   0  0  0  0  0  0  0  0  0  0  0  0
    2.7434   -0.6990   -2.3601 H   0  0  0  0  0  0  0  0  0  0  0  0
   -0.7346    1.7449    1.0071 H   0  0  0  0  0  0  0  0  0  0  0  0
   -2.3912    3.0310    2.2910 H   0  0  0  0  0  0  0  0  0  0  0  0
   -4.6625    2.1348    2.6692 H   0  0  0  0  0  0  0  0  0  0  0  0
   -5.3078   -0.0777    1.7541 H   0  0  0  0  0  0  0  0  0  0  0  0
  1  2  1  0
  2  3  1  0
  3  4  2  0
  4  5  1  0
  5  6  1  0
  6  7  2  0
  7  8  1  0
  8  9  2  0
  9 10  1  0
 10 11  2  0
  5 12  1  0
 12 13  2  0
 13 14  1  0
 14 15  1  0
 14 16  1  0
 16 17  2  0
 17 18  1  0
 18 19  2  0
 19 20  1  0
 20 21  2  0
  4 22  1  0
 22 23  2  0
 23 24  1  0
 24 25  2  0
 25 26  1  0
 26 27  2  0
 27  2  1  0
 11  6  1  0
 21 12  1  0
 27 22  1  0
 21 16  1  0
  1 28  1  0
  1 29  1  0
  1 30  1  0
  3 31  1  0
  5 32  1  0
  7 33  1  0
  8 34  1  0
  9 35  1  0
 10 36  1  0
 13 37  1  0
 15 38  1  0
 15 39  1  0
 15 40  1  0
 17 41  1  0
 18 42  1  0
 19 43  1  0
 20 44  1  0
 23 45  1  0
 24 46  1  0
 25 47  1  0
 26 48  1  0
M  END
$$$$
