
     RDKit          3D

 39 41  0  0  0  0  0  0  0  0999 V2000
   -2.5341   -3.1202    2.7416 C   0  0  0  0  0  0  0  0  0  0  0  0
   -2.9318   -1.7655    2.9149 O   0  0  0  0  0  0  0  0  0  0  0  0
   -2.5096   -0.8721    1.9693 C   0  0  0  0  0  0  0  0  0  0  0  0
   -2.9435    0.4424    2.1755 C   0  0  0  0  0  0  0  0  0  0  0  0
   -2.5807    1.4618    1.2928 C   0  0  0  0  0  0  0  0  0  0  0  0
   -1.7680    1.1595    0.1991 C   0  0  0  0  0  0  0  0  0  0  0  0
   -1.2948    2.4488   -0.9325 S   0  0  0  0  0  6  0  0  0  0  0  0
   -2.2642    3.5173   -0.8026 O   0  0  0  0  0  0  0  0  0  0  0  0
   -1.0210    1.8436   -2.2180 O   0  0  0  0  0  0  0  0  0  0  0  0
    0.1402    3.0423   -0.2588 N   0  0  0  0  0  0  0  0  0  0  0  0
    1.1972    2.1338    0.0273 C   0  0  0  0  0  0  0  0  0  0  0  0
    1.5203    1.8691    1.3581 C   0  0  0  0  0  0  0  0  0  0  0  0
    2.5104    0.9337    1.6615 C   0  0  0  0  0  0  0  0  0  0  0  0
    3.1694    0.2621    0.6297 C   0  0  0  0  0  0  0  0  0  0  0  0
    4.1372   -0.6553    0.9389 O   0  0  0  0  0  0  0  0  0  0  0  0
    2.8503    0.5156   -0.7126 C   0  0  0  0  0  0  0  0  0  0  0  0
    3.6973   -0.3249   -2.0448 S   0  0  0  0  0  0  0  0  0  0  0  0
    2.3749   -1.0085   -2.9540 C   0  0  0  0  0  0  0  0  0  0  0  0
    1.2012   -1.4487   -2.3943 N   0  0  0  0  0  0  0  0  0  0  0  0
    0.4973   -1.8206   -3.4372 C   0  0  0  0  0  0  0  0  0  0  0  0
    1.2237   -1.6243   -4.5675 N   0  0  0  0  0  0  0  0  0  0  0  0
    2.4346   -1.1230   -4.2858 N   0  0  0  0  0  0  0  0  0  0  0  0
    1.8659    1.4722   -1.0022 C   0  0  0  0  0  0  0  0  0  0  0  0
   -1.3482   -0.1531   -0.0303 C   0  0  0  0  0  0  0  0  0  0  0  0
   -1.7125   -1.1664    0.8613 C   0  0  0  0  0  0  0  0  0  0  0  0
   -1.4445   -3.2201    2.7857 H   0  0  0  0  0  0  0  0  0  0  0  0
   -2.9551   -3.7002    3.5685 H   0  0  0  0  0  0  0  0  0  0  0  0
   -2.9326   -3.5326    1.8088 H   0  0  0  0  0  0  0  0  0  0  0  0
   -3.5747    0.6703    3.0318 H   0  0  0  0  0  0  0  0  0  0  0  0
   -2.9365    2.4746    1.4652 H   0  0  0  0  0  0  0  0  0  0  0  0
   -0.0407    3.7906    0.4081 H   0  0  0  0  0  0  0  0  0  0  0  0
    0.9990    2.3714    2.1682 H   0  0  0  0  0  0  0  0  0  0  0  0
    2.7491    0.7359    2.7022 H   0  0  0  0  0  0  0  0  0  0  0  0
    4.2274   -0.7215    1.9026 H   0  0  0  0  0  0  0  0  0  0  0  0
   -0.5070   -2.2187   -3.4365 H   0  0  0  0  0  0  0  0  0  0  0  0
    0.9695   -1.8000   -5.5330 H   0  0  0  0  0  0  0  0  0  0  0  0
    1.6134    1.6961   -2.0366 H   0  0  0  0  0  0  0  0  0  0  0  0
   -0.7252   -0.3946   -0.8889 H   0  0  0  0  0  0  0  0  0  0  0  0
   -1.3538   -2.1709    0.6598 H   0  0  0  0  0  0  0  0  0  0  0  0
  1  2  1  0
  2  3  1  0
  3  4  2  0
  4  5  1  0
  5  6  2  0
  6  7  1  0
  7  8  2  0
  7  9  2  0
  7 10  1  0
 10 11  1  0
 11 12  2  0
 12 13  1  0
 13 14  2  0
 14 15  1  0
 14 16  1  0
 16 17  1  0
 17 18  1  0
 18 19  1  0
 19 20  2  0
 20 21  1  0
 21 22  1  0
 16 23  2  0
  6 24  1  0
 24 25  2  0
 25  3  1  0
 23 11  1  0
 22 18  2  0
  1 26  1  0
  1 27  1  0
  1 28  1  0
  4 29  1  0
  5 30  1  0
 10 31  1  0
 12 32  1  0
 13 33  1  0
 15 34  1  0
 20 35  1  0
 21 36  1  0
 23 37  1  0
 24 38  1  0
 25 39  1  0
M  END
$$$$
