
     RDKit          3D

 44 44  0  0  0  0  0  0  0  0999 V2000
   -4.3149   -0.5714   -2.1241 C   0  0  0  0  0  0  0  0  0  0  0  0
   -4.3858   -1.0794   -0.6901 C   0  0  0  0  0  0  0  0  0  0  0  0
   -3.9579   -0.0529    0.2707 N   0  0  0  0  0  0  0  0  0  0  0  0
   -5.0059    0.5244    1.1225 C   0  0  0  0  0  0  0  0  0  0  0  0
   -5.6691    1.7165    0.4497 C   0  0  0  0  0  0  0  0  0  0  0  0
   -2.6200    0.3041    0.4233 C   0  0  0  0  0  0  0  0  0  0  0  0
   -2.2275    1.4484    1.1380 C   0  0  0  0  0  0  0  0  0  0  0  0
   -0.8831    1.8063    1.3019 C   0  0  0  0  0  0  0  0  0  0  0  0
    0.1242    1.0299    0.7403 C   0  0  0  0  0  0  0  0  0  0  0  0
   -0.2181   -0.0976    0.0060 C   0  0  0  0  0  0  0  0  0  0  0  0
    0.6662   -0.9528   -0.5947 O   0  0  0  0  0  0  0  0  0  0  0  0
    1.9329   -0.4225   -0.9586 C   0  0  0  0  0  0  0  0  0  0  0  0
    3.0389   -0.5548    0.1023 C   0  0  0  0  0  0  0  0  0  0  0  0
    2.8241   -1.0499    1.2103 O   0  0  0  0  0  0  0  0  0  0  0  0
    4.3114   -0.0833   -0.2335 N   0  0  0  0  0  0  0  0  0  0  0  0
    4.7189    0.2989   -1.5794 C   0  0  0  0  0  0  0  0  0  0  0  0
    5.3791   -0.2462    0.7607 C   0  0  0  0  0  0  0  0  0  0  0  0
    5.9330   -1.6702    0.8140 C   0  0  0  0  0  0  0  0  0  0  0  0
    7.0623   -1.7426    1.7464 C   0  0  0  0  0  0  0  0  0  0  0  0
    7.9703   -1.7864    2.4675 N   0  0  0  0  0  0  0  0  0  0  0  0
   -1.5701   -0.4525   -0.1297 C   0  0  0  0  0  0  0  0  0  0  0  0
   -4.9292    0.3246   -2.2568 H   0  0  0  0  0  0  0  0  0  0  0  0
   -4.6830   -1.3386   -2.8128 H   0  0  0  0  0  0  0  0  0  0  0  0
   -3.2927   -0.3190   -2.4205 H   0  0  0  0  0  0  0  0  0  0  0  0
   -3.8082   -2.0027   -0.5707 H   0  0  0  0  0  0  0  0  0  0  0  0
   -5.4254   -1.3701   -0.4933 H   0  0  0  0  0  0  0  0  0  0  0  0
   -4.6211    0.8047    2.1098 H   0  0  0  0  0  0  0  0  0  0  0  0
   -5.7728   -0.2318    1.3326 H   0  0  0  0  0  0  0  0  0  0  0  0
   -6.4197    2.1553    1.1145 H   0  0  0  0  0  0  0  0  0  0  0  0
   -6.1745    1.4162   -0.4735 H   0  0  0  0  0  0  0  0  0  0  0  0
   -4.9429    2.4943    0.1948 H   0  0  0  0  0  0  0  0  0  0  0  0
   -2.9650    2.1069    1.5859 H   0  0  0  0  0  0  0  0  0  0  0  0
   -0.6289    2.6918    1.8783 H   0  0  0  0  0  0  0  0  0  0  0  0
    1.1550    1.3150    0.9149 H   0  0  0  0  0  0  0  0  0  0  0  0
    1.8471    0.6209   -1.2858 H   0  0  0  0  0  0  0  0  0  0  0  0
    2.2562   -1.0094   -1.8260 H   0  0  0  0  0  0  0  0  0  0  0  0
    3.8712    0.5614   -2.2127 H   0  0  0  0  0  0  0  0  0  0  0  0
    5.2517   -0.5414   -2.0333 H   0  0  0  0  0  0  0  0  0  0  0  0
    5.3838    1.1655   -1.5193 H   0  0  0  0  0  0  0  0  0  0  0  0
    6.1721    0.4783    0.5370 H   0  0  0  0  0  0  0  0  0  0  0  0
    4.9793    0.0290    1.7455 H   0  0  0  0  0  0  0  0  0  0  0  0
    6.2628   -1.9801   -0.1843 H   0  0  0  0  0  0  0  0  0  0  0  0
    5.1526   -2.3759    1.1188 H   0  0  0  0  0  0  0  0  0  0  0  0
   -1.7773   -1.3608   -0.6864 H   0  0  0  0  0  0  0  0  0  0  0  0
  1  2  1  0
  2  3  1  0
  3  4  1  0
  4  5  1  0
  3  6  1  0
  6  7  2  0
  7  8  1  0
  8  9  2  0
  9 10  1  0
 10 11  1  0
 11 12  1  0
 12 13  1  0
 13 14  2  0
 13 15  1  0
 15 16  1  0
 15 17  1  0
 17 18  1  0
 18 19  1  0
 19 20  3  0
 10 21  2  0
 21  6  1  0
  1 22  1  0
  1 23  1  0
  1 24  1  0
  2 25  1  0
  2 26  1  0
  4 27  1  0
  4 28  1  0
  5 29  1  0
  5 30  1  0
  5 31  1  0
  7 32  1  0
  8 33  1  0
  9 34  1  0
 12 35  1  0
 12 36  1  0
 16 37  1  0
 16 38  1  0
 16 39  1  0
 17 40  1  0
 17 41  1  0
 18 42  1  0
 18 43  1  0
 21 44  1  0
M  END
$$$$
