
     RDKit          3D

 41 43  0  0  0  0  0  0  0  0999 V2000
   -3.4816   -1.5407   -0.2771 C   0  0  0  0  0  0  0  0  0  0  0  0
   -3.1216   -0.1469   -0.2212 N   0  0  0  0  0  0  0  0  0  0  0  0
   -1.8940    0.3996   -0.4742 C   0  0  0  0  0  0  0  0  0  0  0  0
   -0.4606   -0.5213   -0.7546 S   0  0  0  0  0  0  0  0  0  0  0  0
    0.5648    0.7376   -1.5715 C   0  0  0  0  0  0  0  0  0  0  0  0
    1.9512    0.1744   -1.8080 C   0  0  0  0  0  0  0  0  0  0  0  0
    2.2658   -0.3574   -2.8704 O   0  0  0  0  0  0  0  0  0  0  0  0
    2.7909    0.3250   -0.7085 N   0  0  0  0  0  0  0  0  0  0  0  0
    4.0746   -0.1343   -0.7714 N   0  0  0  0  0  0  0  0  0  0  0  0
    4.7801   -0.0063    0.3068 C   0  0  0  0  0  0  0  0  0  0  0  0
    6.1483   -0.4616    0.3366 C   0  0  0  0  0  0  0  0  0  0  0  0
    6.8895   -1.0493   -0.6715 C   0  0  0  0  0  0  0  0  0  0  0  0
    8.2189   -1.3616   -0.2547 C   0  0  0  0  0  0  0  0  0  0  0  0
    8.4304   -0.9991    1.0583 C   0  0  0  0  0  0  0  0  0  0  0  0
    9.6477   -1.1645    1.8095 N   0  0  0  0  0  4  0  0  0  0  0  0
   10.6023   -1.6704    1.2041 O   0  0  0  0  0  0  0  0  0  0  0  0
    9.6613   -0.7989    2.9920 O   0  0  0  0  0  1  0  0  0  0  0  0
    7.0599   -0.2921    1.7745 S   0  0  0  0  0  0  0  0  0  0  0  0
   -1.9723    1.7070   -0.4460 N   0  0  0  0  0  0  0  0  0  0  0  0
   -3.2715    2.0355   -0.1512 N   0  0  0  0  0  0  0  0  0  0  0  0
   -3.9606    0.9209    0.0261 C   0  0  0  0  0  0  0  0  0  0  0  0
   -5.3759    0.8572    0.3838 C   0  0  0  0  0  0  0  0  0  0  0  0
   -5.8376    0.0360    1.4225 C   0  0  0  0  0  0  0  0  0  0  0  0
   -7.1972    0.0017    1.7482 C   0  0  0  0  0  0  0  0  0  0  0  0
   -8.0998    0.7966    1.0444 C   0  0  0  0  0  0  0  0  0  0  0  0
   -9.7715    0.7513    1.4458 Cl  0  0  0  0  0  0  0  0  0  0  0  0
   -7.6543    1.6323    0.0236 C   0  0  0  0  0  0  0  0  0  0  0  0
   -6.2949    1.6661   -0.3004 C   0  0  0  0  0  0  0  0  0  0  0  0
   -4.5430   -1.6425   -0.5139 H   0  0  0  0  0  0  0  0  0  0  0  0
   -2.9134   -2.0386   -1.0663 H   0  0  0  0  0  0  0  0  0  0  0  0
   -3.2627   -1.9917    0.6937 H   0  0  0  0  0  0  0  0  0  0  0  0
    0.1282    1.0172   -2.5358 H   0  0  0  0  0  0  0  0  0  0  0  0
    0.6407    1.6410   -0.9567 H   0  0  0  0  0  0  0  0  0  0  0  0
    2.4320    0.7104    0.1591 H   0  0  0  0  0  0  0  0  0  0  0  0
    4.3597    0.4487    1.2223 H   0  0  0  0  0  0  0  0  0  0  0  0
    6.4916   -1.2447   -1.6625 H   0  0  0  0  0  0  0  0  0  0  0  0
    8.9673   -1.8268   -0.8870 H   0  0  0  0  0  0  0  0  0  0  0  0
   -5.1448   -0.5680    2.0037 H   0  0  0  0  0  0  0  0  0  0  0  0
   -7.5431   -0.6368    2.5569 H   0  0  0  0  0  0  0  0  0  0  0  0
   -8.3532    2.2633   -0.5190 H   0  0  0  0  0  0  0  0  0  0  0  0
   -5.9519    2.3320   -1.0915 H   0  0  0  0  0  0  0  0  0  0  0  0
  1  2  1  0
  2  3  1  0
  3  4  1  0
  4  5  1  0
  5  6  1  0
  6  7  2  0
  6  8  1  0
  8  9  1  0
  9 10  2  3
 10 11  1  0
 11 12  2  0
 12 13  1  0
 13 14  2  0
 14 15  1  0
 15 16  2  0
 15 17  1  0
 14 18  1  0
  3 19  2  0
 19 20  1  0
 20 21  2  0
 21 22  1  0
 22 23  2  0
 23 24  1  0
 24 25  2  0
 25 26  1  0
 25 27  1  0
 27 28  2  0
 21  2  1  0
 28 22  1  0
 18 11  1  0
  1 29  1  0
  1 30  1  0
  1 31  1  0
  5 32  1  0
  5 33  1  0
  8 34  1  0
 10 35  1  0
 12 36  1  0
 13 37  1  0
 23 38  1  0
 24 39  1  0
 27 40  1  0
 28 41  1  0
M  CHG  2  15   1  17  -1
M  END
$$$$
