
     RDKit          3D

 43 46  0  0  0  0  0  0  0  0999 V2000
    6.4017    2.1918    0.5259 C   0  0  0  0  0  0  0  0  0  0  0  0
    5.0334    1.5742    0.5360 C   0  0  0  0  0  0  0  0  0  0  0  0
    4.6071    0.7772   -0.5306 C   0  0  0  0  0  0  0  0  0  0  0  0
    3.3220    0.2249   -0.5391 C   0  0  0  0  0  0  0  0  0  0  0  0
    2.4449    0.4717    0.5173 C   0  0  0  0  0  0  0  0  0  0  0  0
    0.9987   -0.1412    0.5201 C   0  0  0  0  0  0  0  0  0  0  0  0
    0.0067    0.0901    1.4664 C   0  0  0  0  0  0  0  0  0  0  0  0
   -1.1472   -0.6037    1.0966 N   0  0  0  0  0  4  0  0  0  0  0  0
   -2.4164   -0.6348    1.8177 C   0  0  0  0  0  0  0  0  0  0  0  0
   -3.5010   -0.0605    0.9412 C   0  0  0  0  0  0  0  0  0  0  0  0
   -3.4325    1.2647    0.4862 C   0  0  0  0  0  0  0  0  0  0  0  0
   -4.4374    1.7882   -0.3330 C   0  0  0  0  0  0  0  0  0  0  0  0
   -5.5268    0.9979   -0.7088 C   0  0  0  0  0  0  0  0  0  0  0  0
   -6.7204    1.7059   -1.7335 Cl  0  0  0  0  0  0  0  0  0  0  0  0
   -5.6113   -0.3211   -0.2554 C   0  0  0  0  0  0  0  0  0  0  0  0
   -6.9162   -1.3684   -0.6802 Cl  0  0  0  0  0  0  0  0  0  0  0  0
   -4.6054   -0.8439    0.5688 C   0  0  0  0  0  0  0  0  0  0  0  0
   -0.8680   -1.2607   -0.0249 C   0  0  0  0  0  0  0  0  0  0  0  0
    0.3920   -1.0108   -0.3680 N   0  0  0  0  0  0  0  0  0  0  0  0
    0.7768   -1.7225   -1.5792 C   0  0  0  0  0  0  0  0  0  0  0  0
   -0.3787   -2.7410   -1.7831 C   0  0  0  0  0  0  0  0  0  0  0  0
   -1.5557   -2.1811   -0.9603 C   0  0  0  0  0  0  0  0  0  0  0  0
    2.8595    1.2858    1.5777 C   0  0  0  0  0  0  0  0  0  0  0  0
    4.1451    1.8354    1.5829 C   0  0  0  0  0  0  0  0  0  0  0  0
    6.7770    2.3257    1.5459 H   0  0  0  0  0  0  0  0  0  0  0  0
    7.1156    1.5501   -0.0011 H   0  0  0  0  0  0  0  0  0  0  0  0
    6.3681    3.1667    0.0298 H   0  0  0  0  0  0  0  0  0  0  0  0
    5.2781    0.5834   -1.3664 H   0  0  0  0  0  0  0  0  0  0  0  0
    3.0418   -0.3759   -1.3942 H   0  0  0  0  0  0  0  0  0  0  0  0
   -0.0299    0.6840    2.3640 H   0  0  0  0  0  0  0  0  0  0  0  0
   -2.3373   -0.0543    2.7433 H   0  0  0  0  0  0  0  0  0  0  0  0
   -2.6226   -1.6761    2.0892 H   0  0  0  0  0  0  0  0  0  0  0  0
   -2.5978    1.9065    0.7643 H   0  0  0  0  0  0  0  0  0  0  0  0
   -4.3681    2.8194   -0.6761 H   0  0  0  0  0  0  0  0  0  0  0  0
   -4.6952   -1.8717    0.9188 H   0  0  0  0  0  0  0  0  0  0  0  0
    1.7320   -2.2354   -1.4470 H   0  0  0  0  0  0  0  0  0  0  0  0
    0.8254   -1.0090   -2.4068 H   0  0  0  0  0  0  0  0  0  0  0  0
   -0.0773   -3.7086   -1.3646 H   0  0  0  0  0  0  0  0  0  0  0  0
   -0.6286   -2.8937   -2.8364 H   0  0  0  0  0  0  0  0  0  0  0  0
   -2.0871   -2.9418   -0.3874 H   0  0  0  0  0  0  0  0  0  0  0  0
   -2.2311   -1.5707   -1.5632 H   0  0  0  0  0  0  0  0  0  0  0  0
    2.2132    1.5133    2.4200 H   0  0  0  0  0  0  0  0  0  0  0  0
    4.4532    2.4702    2.4126 H   0  0  0  0  0  0  0  0  0  0  0  0
  1  2  1  0
  2  3  2  0
  3  4  1  0
  4  5  2  0
  5  6  1  0
  6  7  2  0
  7  8  1  0
  8  9  1  0
  9 10  1  0
 10 11  2  0
 11 12  1  0
 12 13  2  0
 13 14  1  0
 13 15  1  0
 15 16  1  0
 15 17  2  0
  8 18  2  0
 18 19  1  0
 19 20  1  0
 20 21  1  0
 21 22  1  0
  5 23  1  0
 23 24  2  0
 24  2  1  0
 19  6  1  0
 17 10  1  0
 22 18  1  0
  1 25  1  0
  1 26  1  0
  1 27  1  0
  3 28  1  0
  4 29  1  0
  7 30  1  0
  9 31  1  0
  9 32  1  0
 11 33  1  0
 12 34  1  0
 17 35  1  0
 20 36  1  0
 20 37  1  0
 21 38  1  0
 21 39  1  0
 22 40  1  0
 22 41  1  0
 23 42  1  0
 24 43  1  0
M  CHG  1   8   1
M  END
$$$$
