
     RDKit          3D

 53 52  0  0  0  0  0  0  0  0999 V2000
   -8.3245    2.7667   -0.1592 C   0  0  0  0  0  0  0  0  0  0  0  0
   -7.5545    1.4520   -0.3153 C   0  0  0  0  0  0  0  0  0  0  0  0
   -8.0376    0.7198   -1.5687 C   0  0  0  0  0  0  0  0  0  0  0  0
   -6.0423    1.7344   -0.3507 C   0  0  0  0  0  0  0  0  0  0  0  0
   -5.1890    0.4678   -0.3046 C   0  0  0  0  0  0  0  0  0  0  0  0
   -3.7811    0.7878   -0.1797 N   0  0  0  0  0  0  0  0  0  0  0  0
   -3.0012    1.0870   -1.2741 C   0  0  0  0  0  0  0  0  0  0  0  0
   -3.4281    1.1089   -2.4224 O   0  0  0  0  0  0  0  0  0  0  0  0
   -1.5744    1.4600   -0.9319 C   0  0  0  0  0  0  0  0  0  0  0  0
   -0.5713    0.7678   -1.8455 C   0  0  0  0  0  0  0  0  0  0  0  0
   -0.2811   -0.9766   -1.3720 S   0  0  0  0  0  0  0  0  0  0  0  0
    0.8556   -0.7451    0.0393 C   0  0  0  0  0  0  0  0  0  0  0  0
    2.2935   -0.5649   -0.4327 C   0  0  0  0  0  0  0  0  0  0  0  0
    3.2096   -0.2874    0.7413 C   0  0  0  0  0  0  0  0  0  0  0  0
    2.8022    0.0068    1.8580 O   0  0  0  0  0  0  0  0  0  0  0  0
    4.5462   -0.3714    0.4149 N   0  0  0  0  0  0  0  0  0  0  0  0
    5.5775    0.0069    1.3594 C   0  0  0  0  0  0  0  0  0  0  0  0
    6.9037   -0.7092    1.1031 C   0  0  0  0  0  0  0  0  0  0  0  0
    6.9892   -2.1296    1.6974 C   0  0  0  0  0  0  0  0  0  0  0  0
    5.9885   -3.1028    1.0776 C   0  0  0  0  0  0  0  0  0  0  0  0
    8.4105   -2.6753    1.5218 C   0  0  0  0  0  0  0  0  0  0  0  0
   -9.4007    2.5820   -0.0812 H   0  0  0  0  0  0  0  0  0  0  0  0
   -8.1556    3.4278   -1.0148 H   0  0  0  0  0  0  0  0  0  0  0  0
   -8.0139    3.2987    0.7459 H   0  0  0  0  0  0  0  0  0  0  0  0
   -7.7767    0.8256    0.5583 H   0  0  0  0  0  0  0  0  0  0  0  0
   -9.1232    0.5704   -1.5367 H   0  0  0  0  0  0  0  0  0  0  0  0
   -7.5771   -0.2681   -1.6618 H   0  0  0  0  0  0  0  0  0  0  0  0
   -7.8043    1.2896   -2.4742 H   0  0  0  0  0  0  0  0  0  0  0  0
   -5.7909    2.3179   -1.2468 H   0  0  0  0  0  0  0  0  0  0  0  0
   -5.7758    2.3658    0.5060 H   0  0  0  0  0  0  0  0  0  0  0  0
   -5.4552   -0.1441    0.5648 H   0  0  0  0  0  0  0  0  0  0  0  0
   -5.3313   -0.1360   -1.2073 H   0  0  0  0  0  0  0  0  0  0  0  0
   -3.3778    0.8169    0.7460 H   0  0  0  0  0  0  0  0  0  0  0  0
   -1.5042    2.5451   -1.0823 H   0  0  0  0  0  0  0  0  0  0  0  0
   -1.3591    1.2804    0.1266 H   0  0  0  0  0  0  0  0  0  0  0  0
    0.3838    1.3011   -1.8256 H   0  0  0  0  0  0  0  0  0  0  0  0
   -0.9163    0.7712   -2.8838 H   0  0  0  0  0  0  0  0  0  0  0  0
    0.5189    0.0983    0.6529 H   0  0  0  0  0  0  0  0  0  0  0  0
    0.7865   -1.6416    0.6656 H   0  0  0  0  0  0  0  0  0  0  0  0
    2.6427   -1.4678   -0.9485 H   0  0  0  0  0  0  0  0  0  0  0  0
    2.3819    0.2845   -1.1199 H   0  0  0  0  0  0  0  0  0  0  0  0
    4.7949   -0.4204   -0.5641 H   0  0  0  0  0  0  0  0  0  0  0  0
    5.2327   -0.1577    2.3863 H   0  0  0  0  0  0  0  0  0  0  0  0
    5.7183    1.0866    1.2316 H   0  0  0  0  0  0  0  0  0  0  0  0
    7.6952   -0.1051    1.5647 H   0  0  0  0  0  0  0  0  0  0  0  0
    7.1184   -0.7360    0.0266 H   0  0  0  0  0  0  0  0  0  0  0  0
    6.7858   -2.0701    2.7736 H   0  0  0  0  0  0  0  0  0  0  0  0
    4.9615   -2.8202    1.3180 H   0  0  0  0  0  0  0  0  0  0  0  0
    6.1389   -4.1168    1.4612 H   0  0  0  0  0  0  0  0  0  0  0  0
    6.0872   -3.1347   -0.0112 H   0  0  0  0  0  0  0  0  0  0  0  0
    9.1435   -2.0195    2.0046 H   0  0  0  0  0  0  0  0  0  0  0  0
    8.5044   -3.6684    1.9755 H   0  0  0  0  0  0  0  0  0  0  0  0
    8.6761   -2.7589    0.4618 H   0  0  0  0  0  0  0  0  0  0  0  0
  1  2  1  0
  2  3  1  0
  2  4  1  0
  4  5  1  0
  5  6  1  0
  6  7  1  0
  7  8  2  0
  7  9  1  0
  9 10  1  0
 10 11  1  0
 11 12  1  0
 12 13  1  0
 13 14  1  0
 14 15  2  0
 14 16  1  0
 16 17  1  0
 17 18  1  0
 18 19  1  0
 19 20  1  0
 19 21  1  0
  1 22  1  0
  1 23  1  0
  1 24  1  0
  2 25  1  0
  3 26  1  0
  3 27  1  0
  3 28  1  0
  4 29  1  0
  4 30  1  0
  5 31  1  0
  5 32  1  0
  6 33  1  0
  9 34  1  0
  9 35  1  0
 10 36  1  0
 10 37  1  0
 12 38  1  0
 12 39  1  0
 13 40  1  0
 13 41  1  0
 16 42  1  0
 17 43  1  0
 17 44  1  0
 18 45  1  0
 18 46  1  0
 19 47  1  0
 20 48  1  0
 20 49  1  0
 20 50  1  0
 21 51  1  0
 21 52  1  0
 21 53  1  0
M  END
$$$$
