
     RDKit          3D

 41 43  0  0  0  0  0  0  0  0999 V2000
    7.3268    1.6949    0.3012 C   0  0  0  0  0  0  0  0  0  0  0  0
    6.0989    1.2245    0.5681 C   0  0  0  0  0  0  0  0  0  0  0  0
    4.9698    1.6025   -0.2723 C   0  0  0  0  0  0  0  0  0  0  0  0
    3.7377    1.1333   -0.0061 C   0  0  0  0  0  0  0  0  0  0  0  0
    3.4891    0.2271    1.1372 C   0  0  0  0  0  0  0  0  0  0  0  0
    2.2486   -0.2483    1.4130 C   0  0  0  0  0  0  0  0  0  0  0  0
    1.9451   -1.0910    2.4513 N   0  0  0  0  0  0  0  0  0  0  0  0
    0.6436   -1.4890    2.6033 C   0  0  0  0  0  0  0  0  0  0  0  0
    0.2385   -2.2370    3.4779 O   0  0  0  0  0  0  0  0  0  0  0  0
   -0.1766   -0.8638    1.5371 C   0  0  0  0  0  0  0  0  0  0  0  0
   -1.4932   -1.0978    1.4478 C   0  0  0  0  0  0  0  0  0  0  0  0
   -2.3967   -0.5449    0.4342 C   0  0  0  0  0  0  0  0  0  0  0  0
   -2.7095    0.8158    0.4150 C   0  0  0  0  0  0  0  0  0  0  0  0
   -3.5824    1.3259   -0.5495 C   0  0  0  0  0  0  0  0  0  0  0  0
   -4.1563    0.4788   -1.5030 C   0  0  0  0  0  0  0  0  0  0  0  0
   -5.0227    0.8910   -2.4853 O   0  0  0  0  0  0  0  0  0  0  0  0
   -5.3427    2.2732   -2.5443 C   0  0  0  0  0  0  0  0  0  0  0  0
   -3.8501   -0.8974   -1.4840 C   0  0  0  0  0  0  0  0  0  0  0  0
   -4.4568   -1.6622   -2.4506 O   0  0  0  0  0  0  0  0  0  0  0  0
   -4.1514   -3.0486   -2.4839 C   0  0  0  0  0  0  0  0  0  0  0  0
   -2.9748   -1.3993   -0.5124 C   0  0  0  0  0  0  0  0  0  0  0  0
    0.7986    0.1185    0.5024 S   0  0  0  0  0  0  0  0  0  0  0  0
    4.6548   -0.1418    1.9712 C   0  0  0  0  0  0  0  0  0  0  0  0
    5.8849    0.3310    1.6999 C   0  0  0  0  0  0  0  0  0  0  0  0
    8.1864    1.4303    0.9091 H   0  0  0  0  0  0  0  0  0  0  0  0
    7.5147    2.3611   -0.5352 H   0  0  0  0  0  0  0  0  0  0  0  0
    5.1326    2.2657   -1.1160 H   0  0  0  0  0  0  0  0  0  0  0  0
    2.9194    1.4330   -0.6522 H   0  0  0  0  0  0  0  0  0  0  0  0
    2.6245   -1.4390    3.1084 H   0  0  0  0  0  0  0  0  0  0  0  0
   -1.9692   -1.7666    2.1634 H   0  0  0  0  0  0  0  0  0  0  0  0
   -2.2785    1.4921    1.1500 H   0  0  0  0  0  0  0  0  0  0  0  0
   -3.7940    2.3894   -0.5272 H   0  0  0  0  0  0  0  0  0  0  0  0
   -4.4504    2.8781   -2.7364 H   0  0  0  0  0  0  0  0  0  0  0  0
   -5.8546    2.5994   -1.6330 H   0  0  0  0  0  0  0  0  0  0  0  0
   -6.0307    2.4217   -3.3823 H   0  0  0  0  0  0  0  0  0  0  0  0
   -4.7052   -3.4931   -3.3165 H   0  0  0  0  0  0  0  0  0  0  0  0
   -4.4775   -3.5469   -1.5651 H   0  0  0  0  0  0  0  0  0  0  0  0
   -3.0850   -3.2147   -2.6686 H   0  0  0  0  0  0  0  0  0  0  0  0
   -2.7239   -2.4543   -0.4758 H   0  0  0  0  0  0  0  0  0  0  0  0
    4.5382   -0.8028    2.8205 H   0  0  0  0  0  0  0  0  0  0  0  0
    6.7302    0.0515    2.3209 H   0  0  0  0  0  0  0  0  0  0  0  0
  1  2  2  0
  2  3  1  0
  3  4  2  0
  4  5  1  0
  5  6  2  3
  6  7  1  0
  7  8  1  0
  8  9  2  0
  8 10  1  0
 10 11  2  3
 11 12  1  0
 12 13  2  0
 13 14  1  0
 14 15  2  0
 15 16  1  0
 16 17  1  0
 15 18  1  0
 18 19  1  0
 19 20  1  0
 18 21  2  0
 10 22  1  0
  5 23  1  0
 23 24  2  0
 24  2  1  0
 22  6  1  0
 21 12  1  0
  1 25  1  0
  1 26  1  0
  3 27  1  0
  4 28  1  0
  7 29  1  0
 11 30  1  0
 13 31  1  0
 14 32  1  0
 17 33  1  0
 17 34  1  0
 17 35  1  0
 20 36  1  0
 20 37  1  0
 20 38  1  0
 21 39  1  0
 23 40  1  0
 24 41  1  0
M  END
$$$$
