
     RDKit          3D

 54 56  0  0  0  0  0  0  0  0999 V2000
    8.2236   -2.7999    0.0089 C   0  0  0  0  0  0  0  0  0  0  0  0
    7.7891   -1.8698    0.9929 O   0  0  0  0  0  0  0  0  0  0  0  0
    7.0013   -0.8376    0.5607 C   0  0  0  0  0  0  0  0  0  0  0  0
    6.6905   -0.5420   -0.7657 C   0  0  0  0  0  0  0  0  0  0  0  0
    5.8730    0.5528   -1.0706 C   0  0  0  0  0  0  0  0  0  0  0  0
    5.3509    1.3642   -0.0551 C   0  0  0  0  0  0  0  0  0  0  0  0
    4.4726    2.5455   -0.3872 C   0  0  0  0  0  0  0  0  0  0  0  0
    3.1419    2.1684   -1.0482 C   0  0  0  0  0  0  0  0  0  0  0  0
    2.2187    1.3667   -0.1252 C   0  0  0  0  0  0  0  0  0  0  0  0
    0.9074    1.1318   -0.7729 C   0  0  0  0  0  0  0  0  0  0  0  0
   -0.2316    1.7710   -0.6167 N   0  0  0  0  0  0  0  0  0  0  0  0
   -1.1160    1.1939   -1.5026 N   0  0  0  0  0  0  0  0  0  0  0  0
   -0.4595    0.2398   -2.1329 C   0  0  0  0  0  0  0  0  0  0  0  0
   -1.1203   -0.7652   -3.3793 S   0  0  0  0  0  0  0  0  0  0  0  0
   -2.7919   -0.0819   -3.5264 C   0  0  0  0  0  0  0  0  0  0  0  0
   -3.7081   -0.6597   -2.4584 C   0  0  0  0  0  0  0  0  0  0  0  0
   -4.2225   -1.7643   -2.6174 O   0  0  0  0  0  0  0  0  0  0  0  0
   -3.8908    0.1808   -1.3743 N   0  0  0  0  0  0  0  0  0  0  0  0
   -4.7368   -0.0052   -0.2545 C   0  0  0  0  0  0  0  0  0  0  0  0
   -5.5142   -1.1511   -0.0652 C   0  0  0  0  0  0  0  0  0  0  0  0
   -6.3470   -1.3012    1.0617 C   0  0  0  0  0  0  0  0  0  0  0  0
   -7.1575   -2.5623    1.2027 C   0  0  0  0  0  0  0  0  0  0  0  0
   -6.4276   -0.2655    2.0095 C   0  0  0  0  0  0  0  0  0  0  0  0
   -7.3043   -0.3737    3.2267 C   0  0  0  0  0  0  0  0  0  0  0  0
   -5.6447    0.8822    1.8280 C   0  0  0  0  0  0  0  0  0  0  0  0
   -4.8112    1.0096    0.7121 C   0  0  0  0  0  0  0  0  0  0  0  0
   -3.8170    2.6221    0.5439 Br  0  0  0  0  0  0  0  0  0  0  0  0
    0.8375    0.1374   -1.7099 O   0  0  0  0  0  0  0  0  0  0  0  0
    5.6709    1.0657    1.2740 C   0  0  0  0  0  0  0  0  0  0  0  0
    6.4910   -0.0254    1.5754 C   0  0  0  0  0  0  0  0  0  0  0  0
    7.3718   -3.2713   -0.4920 H   0  0  0  0  0  0  0  0  0  0  0  0
    8.8951   -2.3250   -0.7140 H   0  0  0  0  0  0  0  0  0  0  0  0
    8.7878   -3.5859    0.5199 H   0  0  0  0  0  0  0  0  0  0  0  0
    7.0727   -1.1369   -1.5889 H   0  0  0  0  0  0  0  0  0  0  0  0
    5.6529    0.7696   -2.1143 H   0  0  0  0  0  0  0  0  0  0  0  0
    5.0328    3.2068   -1.0613 H   0  0  0  0  0  0  0  0  0  0  0  0
    4.2757    3.1359    0.5159 H   0  0  0  0  0  0  0  0  0  0  0  0
    3.3212    1.6036   -1.9724 H   0  0  0  0  0  0  0  0  0  0  0  0
    2.6358    3.0961   -1.3513 H   0  0  0  0  0  0  0  0  0  0  0  0
    2.6688    0.4013    0.1316 H   0  0  0  0  0  0  0  0  0  0  0  0
    2.0631    1.9102    0.8138 H   0  0  0  0  0  0  0  0  0  0  0  0
   -3.2000   -0.3700   -4.5001 H   0  0  0  0  0  0  0  0  0  0  0  0
   -2.7896    1.0126   -3.5059 H   0  0  0  0  0  0  0  0  0  0  0  0
   -3.3200    1.0252   -1.3341 H   0  0  0  0  0  0  0  0  0  0  0  0
   -5.4881   -1.9636   -0.7853 H   0  0  0  0  0  0  0  0  0  0  0  0
   -7.0425   -2.9851    2.2062 H   0  0  0  0  0  0  0  0  0  0  0  0
   -6.8329   -3.3299    0.4923 H   0  0  0  0  0  0  0  0  0  0  0  0
   -8.2148   -2.3519    1.0144 H   0  0  0  0  0  0  0  0  0  0  0  0
   -7.4221    0.5963    3.7220 H   0  0  0  0  0  0  0  0  0  0  0  0
   -8.3082   -0.7130    2.9548 H   0  0  0  0  0  0  0  0  0  0  0  0
   -6.8649   -1.0725    3.9439 H   0  0  0  0  0  0  0  0  0  0  0  0
   -5.6889    1.6855    2.5602 H   0  0  0  0  0  0  0  0  0  0  0  0
    5.2918    1.6796    2.0879 H   0  0  0  0  0  0  0  0  0  0  0  0
    6.7352   -0.2445    2.6123 H   0  0  0  0  0  0  0  0  0  0  0  0
  1  2  1  0
  2  3  1  0
  3  4  2  0
  4  5  1  0
  5  6  2  0
  6  7  1  0
  7  8  1  0
  8  9  1  0
  9 10  1  0
 10 11  2  0
 11 12  1  0
 12 13  2  0
 13 14  1  0
 14 15  1  0
 15 16  1  0
 16 17  2  0
 16 18  1  0
 18 19  1  0
 19 20  2  0
 20 21  1  0
 21 22  1  0
 21 23  2  0
 23 24  1  0
 23 25  1  0
 25 26  2  0
 26 27  1  0
 13 28  1  0
  6 29  1  0
 29 30  2  0
 30  3  1  0
 28 10  1  0
 26 19  1  0
  1 31  1  0
  1 32  1  0
  1 33  1  0
  4 34  1  0
  5 35  1  0
  7 36  1  0
  7 37  1  0
  8 38  1  0
  8 39  1  0
  9 40  1  0
  9 41  1  0
 15 42  1  0
 15 43  1  0
 18 44  1  0
 20 45  1  0
 22 46  1  0
 22 47  1  0
 22 48  1  0
 24 49  1  0
 24 50  1  0
 24 51  1  0
 25 52  1  0
 29 53  1  0
 30 54  1  0
M  END
$$$$
