
     RDKit          3D

 50 53  0  0  0  0  0  0  0  0999 V2000
    3.6526   -3.9570    3.8136 C   0  0  0  0  0  0  0  0  0  0  0  0
    3.7726   -3.3165    2.5476 O   0  0  0  0  0  0  0  0  0  0  0  0
    2.8807   -2.3155    2.2745 C   0  0  0  0  0  0  0  0  0  0  0  0
    1.9228   -1.8147    3.1498 C   0  0  0  0  0  0  0  0  0  0  0  0
    1.0601   -0.7979    2.7280 C   0  0  0  0  0  0  0  0  0  0  0  0
    1.1349   -0.2559    1.4303 C   0  0  0  0  0  0  0  0  0  0  0  0
    0.1855    0.7941    1.0346 C   0  0  0  0  0  0  0  0  0  0  0  0
    0.0228    1.8259    1.8989 N   0  0  0  0  0  0  0  0  0  0  0  0
   -0.8864    2.7673    1.5394 C   0  0  0  0  0  0  0  0  0  0  0  0
   -1.0406    3.9375    2.4498 C   0  0  0  0  0  0  0  0  0  0  0  0
   -0.2438    3.9286    3.5644 N   0  0  0  0  0  0  0  0  0  0  0  0
   -1.8224    4.8526    2.2213 O   0  0  0  0  0  0  0  0  0  0  0  0
   -1.6246    2.6616    0.3993 C   0  0  0  0  0  0  0  0  0  0  0  0
   -2.5630    3.4925   -0.1973 N   0  0  0  0  0  0  0  0  0  0  0  0
   -2.9662    2.9085   -1.4079 C   0  0  0  0  0  0  0  0  0  0  0  0
   -3.7661    3.4178   -2.1766 O   0  0  0  0  0  0  0  0  0  0  0  0
   -2.2786    1.6685   -1.5024 N   0  0  0  0  0  0  0  0  0  0  0  0
   -2.3445    0.7499   -2.5778 C   0  0  0  0  0  0  0  0  0  0  0  0
   -2.5596    1.2512   -3.8746 C   0  0  0  0  0  0  0  0  0  0  0  0
   -2.6133    0.4078   -4.9876 C   0  0  0  0  0  0  0  0  0  0  0  0
   -2.4741   -0.9628   -4.8251 C   0  0  0  0  0  0  0  0  0  0  0  0
   -2.2953   -1.4897   -3.5484 C   0  0  0  0  0  0  0  0  0  0  0  0
   -2.2303   -0.6472   -2.4252 C   0  0  0  0  0  0  0  0  0  0  0  0
   -2.2346   -1.1842   -1.1603 O   0  0  0  0  0  0  0  0  0  0  0  0
   -1.3222   -2.2685   -0.9854 C   0  0  0  0  0  0  0  0  0  0  0  0
   -1.4231    1.5487   -0.3825 C   0  0  0  0  0  0  0  0  0  0  0  0
   -0.5048    0.6186   -0.1093 N   0  0  0  0  0  0  0  0  0  0  0  0
    2.1352   -0.7448    0.5637 C   0  0  0  0  0  0  0  0  0  0  0  0
    2.2232   -0.1567   -0.6750 O   0  0  0  0  0  0  0  0  0  0  0  0
    3.4264   -0.3463   -1.4062 C   0  0  0  0  0  0  0  0  0  0  0  0
    2.9830   -1.7782    0.9878 C   0  0  0  0  0  0  0  0  0  0  0  0
    2.6695   -4.4211    3.9292 H   0  0  0  0  0  0  0  0  0  0  0  0
    4.4030   -4.7524    3.8598 H   0  0  0  0  0  0  0  0  0  0  0  0
    3.8597   -3.2568    4.6286 H   0  0  0  0  0  0  0  0  0  0  0  0
    1.8101   -2.1948    4.1616 H   0  0  0  0  0  0  0  0  0  0  0  0
    0.3071   -0.4292    3.4233 H   0  0  0  0  0  0  0  0  0  0  0  0
    0.4351    3.1861    3.6963 H   0  0  0  0  0  0  0  0  0  0  0  0
   -0.2731    4.7126    4.2016 H   0  0  0  0  0  0  0  0  0  0  0  0
   -2.8754    4.3864    0.1572 H   0  0  0  0  0  0  0  0  0  0  0  0
   -2.6635    2.3192   -4.0462 H   0  0  0  0  0  0  0  0  0  0  0  0
   -2.7750    0.8266   -5.9762 H   0  0  0  0  0  0  0  0  0  0  0  0
   -2.5334   -1.6241   -5.6861 H   0  0  0  0  0  0  0  0  0  0  0  0
   -2.2567   -2.5683   -3.4411 H   0  0  0  0  0  0  0  0  0  0  0  0
   -1.7758   -3.2057   -1.3178 H   0  0  0  0  0  0  0  0  0  0  0  0
   -1.1157   -2.3632    0.0839 H   0  0  0  0  0  0  0  0  0  0  0  0
   -0.3701   -2.0931   -1.4999 H   0  0  0  0  0  0  0  0  0  0  0  0
    3.4164    0.3487   -2.2509 H   0  0  0  0  0  0  0  0  0  0  0  0
    4.3090   -0.1141   -0.7995 H   0  0  0  0  0  0  0  0  0  0  0  0
    3.4811   -1.3596   -1.8117 H   0  0  0  0  0  0  0  0  0  0  0  0
    3.7412   -2.1924    0.3266 H   0  0  0  0  0  0  0  0  0  0  0  0
  1  2  1  0
  2  3  1  0
  3  4  2  0
  4  5  1  0
  5  6  2  0
  6  7  1  0
  7  8  2  0
  8  9  1  0
  9 10  1  0
 10 11  1  0
 10 12  2  0
  9 13  2  0
 13 14  1  0
 14 15  1  0
 15 16  2  0
 15 17  1  0
 17 18  1  0
 18 19  2  0
 19 20  1  0
 20 21  2  0
 21 22  1  0
 22 23  2  0
 23 24  1  0
 24 25  1  0
 17 26  1  0
 26 27  2  0
  6 28  1  0
 28 29  1  0
 29 30  1  0
 28 31  2  0
 31  3  1  0
 27  7  1  0
 26 13  1  0
 23 18  1  0
  1 32  1  0
  1 33  1  0
  1 34  1  0
  4 35  1  0
  5 36  1  0
 11 37  1  0
 11 38  1  0
 14 39  1  0
 19 40  1  0
 20 41  1  0
 21 42  1  0
 22 43  1  0
 25 44  1  0
 25 45  1  0
 25 46  1  0
 30 47  1  0
 30 48  1  0
 30 49  1  0
 31 50  1  0
M  END
$$$$
