
     RDKit          3D

 39 41  0  0  0  0  0  0  0  0999 V2000
    2.9336   -1.3970    1.5900 O   0  0  0  0  0  0  0  0  0  0  0  0
    2.9489   -1.0668    0.4150 C   0  0  0  0  0  0  0  0  0  0  0  0
    2.1541   -1.5597   -0.5649 O   0  0  0  0  0  0  0  0  0  0  0  0
    1.1794   -2.5240   -0.1503 C   0  0  0  0  0  0  0  0  0  0  0  0
   -0.1585   -1.8463   -0.0111 C   0  0  0  0  0  0  0  0  0  0  0  0
   -0.5600   -1.3188    1.2212 C   0  0  0  0  0  0  0  0  0  0  0  0
   -1.7923   -0.6701    1.3484 C   0  0  0  0  0  0  0  0  0  0  0  0
   -2.6519   -0.5234    0.2483 C   0  0  0  0  0  0  0  0  0  0  0  0
   -3.9490    0.1598    0.3842 C   0  0  0  0  0  0  0  0  0  0  0  0
   -4.8783   -0.2386    1.3598 C   0  0  0  0  0  0  0  0  0  0  0  0
   -6.1103    0.4085    1.4893 C   0  0  0  0  0  0  0  0  0  0  0  0
   -6.4338    1.4673    0.6449 C   0  0  0  0  0  0  0  0  0  0  0  0
   -5.5271    1.8792   -0.3284 C   0  0  0  0  0  0  0  0  0  0  0  0
   -4.2960    1.2302   -0.4572 C   0  0  0  0  0  0  0  0  0  0  0  0
   -2.2336   -1.0447   -0.9864 C   0  0  0  0  0  0  0  0  0  0  0  0
   -1.0018   -1.6944   -1.1174 C   0  0  0  0  0  0  0  0  0  0  0  0
    3.8805   -0.0474   -0.1392 C   0  0  0  0  0  0  0  0  0  0  0  0
    3.7983    0.4053   -1.4648 C   0  0  0  0  0  0  0  0  0  0  0  0
    4.6961    1.3673   -1.9364 C   0  0  0  0  0  0  0  0  0  0  0  0
    5.6779    1.8830   -1.0902 C   0  0  0  0  0  0  0  0  0  0  0  0
    5.7533    1.4328    0.2244 C   0  0  0  0  0  0  0  0  0  0  0  0
    6.6970    1.9119    1.0840 O   0  0  0  0  0  0  0  0  0  0  0  0
    4.8658    0.4764    0.7064 C   0  0  0  0  0  0  0  0  0  0  0  0
    1.4594   -3.0489    0.7713 H   0  0  0  0  0  0  0  0  0  0  0  0
    1.1273   -3.2933   -0.9296 H   0  0  0  0  0  0  0  0  0  0  0  0
    0.0899   -1.4021    2.0912 H   0  0  0  0  0  0  0  0  0  0  0  0
   -2.0715   -0.2622    2.3180 H   0  0  0  0  0  0  0  0  0  0  0  0
   -4.6496   -1.0705    2.0230 H   0  0  0  0  0  0  0  0  0  0  0  0
   -6.8161    0.0825    2.2488 H   0  0  0  0  0  0  0  0  0  0  0  0
   -7.3913    1.9715    0.7458 H   0  0  0  0  0  0  0  0  0  0  0  0
   -5.7743    2.7078   -0.9867 H   0  0  0  0  0  0  0  0  0  0  0  0
   -3.5969    1.5759   -1.2159 H   0  0  0  0  0  0  0  0  0  0  0  0
   -2.8753   -0.9551   -1.8607 H   0  0  0  0  0  0  0  0  0  0  0  0
   -0.7067   -2.0805   -2.0905 H   0  0  0  0  0  0  0  0  0  0  0  0
    3.0371    0.0217   -2.1398 H   0  0  0  0  0  0  0  0  0  0  0  0
    4.6265    1.7150   -2.9644 H   0  0  0  0  0  0  0  0  0  0  0  0
    6.3683    2.6299   -1.4700 H   0  0  0  0  0  0  0  0  0  0  0  0
    7.2361    2.5750    0.6225 H   0  0  0  0  0  0  0  0  0  0  0  0
    4.9447    0.1428    1.7386 H   0  0  0  0  0  0  0  0  0  0  0  0
  1  2  2  0
  2  3  1  0
  3  4  1  0
  4  5  1  0
  5  6  2  0
  6  7  1  0
  7  8  2  0
  8  9  1  0
  9 10  2  0
 10 11  1  0
 11 12  2  0
 12 13  1  0
 13 14  2  0
  8 15  1  0
 15 16  2  0
  2 17  1  0
 17 18  2  0
 18 19  1  0
 19 20  2  0
 20 21  1  0
 21 22  1  0
 21 23  2  0
 16  5  1  0
 23 17  1  0
 14  9  1  0
  4 24  1  0
  4 25  1  0
  6 26  1  0
  7 27  1  0
 10 28  1  0
 11 29  1  0
 12 30  1  0
 13 31  1  0
 14 32  1  0
 15 33  1  0
 16 34  1  0
 18 35  1  0
 19 36  1  0
 20 37  1  0
 22 38  1  0
 23 39  1  0
M  END
$$$$
