
     RDKit          3D

 32 32  0  0  0  0  0  0  0  0999 V2000
   -0.3540    2.4991   -4.4713 C   0  0  0  0  0  0  0  0  0  0  0  0
   -1.1967    2.3428   -3.6294 C   0  0  0  0  0  0  0  0  0  0  0  0
   -2.2344    2.1566   -2.6002 C   0  0  0  0  0  0  0  0  0  0  0  0
   -2.2979    0.7589   -2.1337 N   0  0  0  0  0  0  0  0  0  0  0  0
   -3.5527    0.5535   -1.4025 C   0  0  0  0  0  0  0  0  0  0  0  0
   -1.1293    0.4347   -1.2883 C   0  0  0  0  0  0  0  0  0  0  0  0
   -1.0027   -1.0707   -1.0109 C   0  0  0  0  0  0  0  0  0  0  0  0
    0.3119   -1.4050   -0.3067 C   0  0  0  0  0  0  0  0  0  0  0  0
    0.3362   -0.7406    0.9555 O   0  0  0  0  0  0  0  0  0  0  0  0
    1.4653   -0.8529    1.7233 C   0  0  0  0  0  0  0  0  0  0  0  0
    2.5556   -1.6730    1.4145 C   0  0  0  0  0  0  0  0  0  0  0  0
    3.6605   -1.7200    2.2690 C   0  0  0  0  0  0  0  0  0  0  0  0
    4.9961   -2.7330    1.8770 Cl  0  0  0  0  0  0  0  0  0  0  0  0
    3.6951   -0.9588    3.4350 C   0  0  0  0  0  0  0  0  0  0  0  0
    2.6125   -0.1405    3.7534 C   0  0  0  0  0  0  0  0  0  0  0  0
    1.5037   -0.0887    2.9031 C   0  0  0  0  0  0  0  0  0  0  0  0
    0.1916    0.9472    3.3475 Cl  0  0  0  0  0  0  0  0  0  0  0  0
    0.3918    2.6310   -5.2204 H   0  0  0  0  0  0  0  0  0  0  0  0
   -2.0723    2.8465   -1.7624 H   0  0  0  0  0  0  0  0  0  0  0  0
   -3.1911    2.4370   -3.0600 H   0  0  0  0  0  0  0  0  0  0  0  0
   -3.6046    1.1610   -0.4918 H   0  0  0  0  0  0  0  0  0  0  0  0
   -3.6885   -0.4973   -1.1294 H   0  0  0  0  0  0  0  0  0  0  0  0
   -4.4126    0.8080   -2.0331 H   0  0  0  0  0  0  0  0  0  0  0  0
   -1.1687    0.9956   -0.3454 H   0  0  0  0  0  0  0  0  0  0  0  0
   -0.2087    0.7433   -1.7985 H   0  0  0  0  0  0  0  0  0  0  0  0
   -1.8304   -1.4026   -0.3742 H   0  0  0  0  0  0  0  0  0  0  0  0
   -1.0548   -1.6311   -1.9519 H   0  0  0  0  0  0  0  0  0  0  0  0
    1.1548   -1.0793   -0.9281 H   0  0  0  0  0  0  0  0  0  0  0  0
    0.3617   -2.4898   -0.1557 H   0  0  0  0  0  0  0  0  0  0  0  0
    2.5699   -2.2874    0.5205 H   0  0  0  0  0  0  0  0  0  0  0  0
    4.5566   -0.9988    4.0966 H   0  0  0  0  0  0  0  0  0  0  0  0
    2.6361    0.4543    4.6631 H   0  0  0  0  0  0  0  0  0  0  0  0
  1  2  3  0
  2  3  1  0
  3  4  1  0
  4  5  1  0
  4  6  1  0
  6  7  1  0
  7  8  1  0
  8  9  1  0
  9 10  1  0
 10 11  2  0
 11 12  1  0
 12 13  1  0
 12 14  2  0
 14 15  1  0
 15 16  2  0
 16 17  1  0
 16 10  1  0
  1 18  1  0
  3 19  1  0
  3 20  1  0
  5 21  1  0
  5 22  1  0
  5 23  1  0
  6 24  1  0
  6 25  1  0
  7 26  1  0
  7 27  1  0
  8 28  1  0
  8 29  1  0
 11 30  1  0
 14 31  1  0
 15 32  1  0
M  END
$$$$
