
     RDKit          3D

 57 59  0  0  0  0  0  0  0  0999 V2000
   -8.9559   -0.6991   -3.0706 C   0  0  0  0  0  0  0  0  0  0  0  0
   -8.6409    0.3118   -2.1211 O   0  0  0  0  0  0  0  0  0  0  0  0
   -7.4935    0.1439   -1.3956 C   0  0  0  0  0  0  0  0  0  0  0  0
   -6.5555   -0.8765   -1.5692 C   0  0  0  0  0  0  0  0  0  0  0  0
   -5.4184   -0.9302   -0.7569 C   0  0  0  0  0  0  0  0  0  0  0  0
   -5.2227    0.0438    0.2265 C   0  0  0  0  0  0  0  0  0  0  0  0
   -3.7750   -0.0438    1.2465 S   0  0  0  0  0  6  0  0  0  0  0  0
   -3.6645   -1.4014    1.7327 O   0  0  0  0  0  0  0  0  0  0  0  0
   -3.7750    1.0828    2.1549 O   0  0  0  0  0  0  0  0  0  0  0  0
   -2.5304    0.2088    0.1358 N   0  0  0  0  0  0  0  0  0  0  0  0
   -2.4428    1.5399   -0.4992 C   0  0  0  0  0  0  0  0  0  0  0  0
   -1.1438    2.1030    0.0285 C   0  0  0  0  0  0  0  0  0  0  0  0
   -0.3164    0.9487    0.1726 O   0  0  0  0  0  0  0  0  0  0  0  0
   -1.1840   -0.0760    0.6880 C   0  0  0  0  0  0  0  0  0  0  0  0
   -0.6965   -1.4697    0.2418 C   0  0  0  0  0  0  0  0  0  0  0  0
    0.5936   -1.8302    0.8027 N   0  0  0  0  0  0  0  0  0  0  0  0
    1.7757   -1.6107    0.1327 C   0  0  0  0  0  0  0  0  0  0  0  0
    1.8983   -1.2547   -1.0303 O   0  0  0  0  0  0  0  0  0  0  0  0
    3.0275   -1.8747    1.0014 C   0  0  0  0  0  0  0  0  0  0  0  0
    2.8988   -2.1504    2.1871 O   0  0  0  0  0  0  0  0  0  0  0  0
    4.2091   -1.7622    0.3117 N   0  0  0  0  0  0  0  0  0  0  0  0
    5.4931   -1.7785    0.9639 C   0  0  0  0  0  0  0  0  0  0  0  0
    5.9786   -0.3765    1.2372 C   0  0  0  0  0  0  0  0  0  0  0  0
    5.6531    0.2309    2.4626 C   0  0  0  0  0  0  0  0  0  0  0  0
    6.0665    1.5307    2.7434 C   0  0  0  0  0  0  0  0  0  0  0  0
    6.8033    2.2398    1.8003 C   0  0  0  0  0  0  0  0  0  0  0  0
    7.1228    1.6542    0.5725 C   0  0  0  0  0  0  0  0  0  0  0  0
    6.7101    0.3502    0.2786 C   0  0  0  0  0  0  0  0  0  0  0  0
    6.9586   -0.2991   -0.9026 O   0  0  0  0  0  0  0  0  0  0  0  0
    7.6931    0.4056   -1.8952 C   0  0  0  0  0  0  0  0  0  0  0  0
   -6.1553    1.0634    0.4139 C   0  0  0  0  0  0  0  0  0  0  0  0
   -7.2858    1.1100   -0.4039 C   0  0  0  0  0  0  0  0  0  0  0  0
   -8.1996   -0.7497   -3.8622 H   0  0  0  0  0  0  0  0  0  0  0  0
   -9.0828   -1.6721   -2.5823 H   0  0  0  0  0  0  0  0  0  0  0  0
   -9.9094   -0.4331   -3.5375 H   0  0  0  0  0  0  0  0  0  0  0  0
   -6.6793   -1.6453   -2.3255 H   0  0  0  0  0  0  0  0  0  0  0  0
   -4.6946   -1.7318   -0.8914 H   0  0  0  0  0  0  0  0  0  0  0  0
   -3.2886    2.2008   -0.2955 H   0  0  0  0  0  0  0  0  0  0  0  0
   -2.3868    1.3834   -1.5824 H   0  0  0  0  0  0  0  0  0  0  0  0
   -0.6811    2.8195   -0.6546 H   0  0  0  0  0  0  0  0  0  0  0  0
   -1.2703    2.5714    1.0109 H   0  0  0  0  0  0  0  0  0  0  0  0
   -1.1620    0.0061    1.7816 H   0  0  0  0  0  0  0  0  0  0  0  0
   -1.4021   -2.2443    0.5573 H   0  0  0  0  0  0  0  0  0  0  0  0
   -0.6235   -1.5036   -0.8517 H   0  0  0  0  0  0  0  0  0  0  0  0
    0.6754   -2.0722    1.7874 H   0  0  0  0  0  0  0  0  0  0  0  0
    4.1488   -1.3961   -0.6344 H   0  0  0  0  0  0  0  0  0  0  0  0
    6.1911   -2.3195    0.3166 H   0  0  0  0  0  0  0  0  0  0  0  0
    5.4308   -2.3464    1.8996 H   0  0  0  0  0  0  0  0  0  0  0  0
    5.0658   -0.3129    3.2012 H   0  0  0  0  0  0  0  0  0  0  0  0
    5.8092    1.9896    3.6944 H   0  0  0  0  0  0  0  0  0  0  0  0
    7.1247    3.2553    2.0166 H   0  0  0  0  0  0  0  0  0  0  0  0
    7.6917    2.2481   -0.1349 H   0  0  0  0  0  0  0  0  0  0  0  0
    7.7909   -0.2508   -2.7658 H   0  0  0  0  0  0  0  0  0  0  0  0
    7.1597    1.3063   -2.2170 H   0  0  0  0  0  0  0  0  0  0  0  0
    8.7025    0.6444   -1.5432 H   0  0  0  0  0  0  0  0  0  0  0  0
   -6.0183    1.8169    1.1857 H   0  0  0  0  0  0  0  0  0  0  0  0
   -8.0184    1.9025   -0.2658 H   0  0  0  0  0  0  0  0  0  0  0  0
  1  2  1  0
  2  3  1  0
  3  4  2  0
  4  5  1  0
  5  6  2  0
  6  7  1  0
  7  8  2  0
  7  9  2  0
  7 10  1  0
 10 11  1  0
 11 12  1  0
 12 13  1  0
 13 14  1  0
 14 15  1  0
 15 16  1  0
 16 17  1  0
 17 18  2  0
 17 19  1  0
 19 20  2  0
 19 21  1  0
 21 22  1  0
 22 23  1  0
 23 24  2  0
 24 25  1  0
 25 26  2  0
 26 27  1  0
 27 28  2  0
 28 29  1  0
 29 30  1  0
  6 31  1  0
 31 32  2  0
 32  3  1  0
 14 10  1  0
 28 23  1  0
  1 33  1  0
  1 34  1  0
  1 35  1  0
  4 36  1  0
  5 37  1  0
 11 38  1  0
 11 39  1  0
 12 40  1  0
 12 41  1  0
 14 42  1  0
 15 43  1  0
 15 44  1  0
 16 45  1  0
 21 46  1  0
 22 47  1  0
 22 48  1  0
 24 49  1  0
 25 50  1  0
 26 51  1  0
 27 52  1  0
 30 53  1  0
 30 54  1  0
 30 55  1  0
 31 56  1  0
 32 57  1  0
M  END
$$$$
