
     RDKit          3D

 67 72  0  0  0  0  0  0  0  0999 V2000
    3.0752    0.7426   -2.6676 O   0  0  0  0  0  0  0  0  0  0  0  0
    2.7299    0.7184   -1.4820 C   0  0  0  0  0  0  0  0  0  0  0  0
    3.7919    0.6457   -0.3804 C   0  0  0  0  0  0  0  0  0  0  0  0
    4.1542   -0.8325   -0.1402 C   0  0  0  0  0  0  0  0  0  0  0  0
    5.3443   -1.0091    0.7749 C   0  0  0  0  0  0  0  0  0  0  0  0
    6.6472   -0.8649    0.2797 C   0  0  0  0  0  0  0  0  0  0  0  0
    7.7449   -1.0057    1.1298 C   0  0  0  0  0  0  0  0  0  0  0  0
    7.5506   -1.2894    2.4803 C   0  0  0  0  0  0  0  0  0  0  0  0
    6.2589   -1.4333    2.9827 C   0  0  0  0  0  0  0  0  0  0  0  0
    5.1595   -1.2936    2.1349 C   0  0  0  0  0  0  0  0  0  0  0  0
    3.3493    1.3200    0.8352 N   0  0  0  0  0  0  0  0  0  0  0  0
    2.0609    1.0014    1.2489 C   0  0  0  0  0  0  0  0  0  0  0  0
    1.8977    1.0242    2.5798 N   0  0  0  0  0  0  0  0  0  0  0  0
    0.6588    0.8217    3.0165 C   0  0  0  0  0  0  0  0  0  0  0  0
   -0.4162    0.6357    2.2489 N   0  0  0  0  0  0  0  0  0  0  0  0
   -0.2395    0.6212    0.9080 C   0  0  0  0  0  0  0  0  0  0  0  0
   -1.4200    0.5911    0.1385 N   0  0  0  0  0  0  0  0  0  0  0  0
   -1.9292    1.9837   -0.0546 C   0  0  0  0  0  0  0  0  0  0  0  0
   -3.2756    2.2558    0.6570 C   0  0  0  0  0  0  0  0  0  0  0  0
   -4.3001    1.2831    0.2355 N   0  0  0  0  0  0  0  0  0  0  0  0
   -5.6556    1.5310    0.3948 C   0  0  0  0  0  0  0  0  0  0  0  0
   -6.1399    2.5890    1.1807 C   0  0  0  0  0  0  0  0  0  0  0  0
   -7.5109    2.8358    1.3298 C   0  0  0  0  0  0  0  0  0  0  0  0
   -8.4399    2.0284    0.6854 C   0  0  0  0  0  0  0  0  0  0  0  0
   -7.9949    0.9794   -0.1087 C   0  0  0  0  0  0  0  0  0  0  0  0
   -6.6225    0.7405   -0.2504 C   0  0  0  0  0  0  0  0  0  0  0  0
   -3.8227   -0.0970    0.0046 C   0  0  0  0  0  0  0  0  0  0  0  0
   -2.4506   -0.3353    0.6754 C   0  0  0  0  0  0  0  0  0  0  0  0
    1.0357    0.7453    0.3249 C   0  0  0  0  0  0  0  0  0  0  0  0
    1.3874    0.6340   -1.0762 N   0  0  0  0  0  0  0  0  0  0  0  0
    0.4436    0.2888   -2.1295 C   0  0  0  0  0  0  0  0  0  0  0  0
    0.5119   -1.1799   -2.5165 C   0  0  0  0  0  0  0  0  0  0  0  0
    0.9065   -1.5478   -3.8133 C   0  0  0  0  0  0  0  0  0  0  0  0
    0.9732   -2.8929   -4.1853 C   0  0  0  0  0  0  0  0  0  0  0  0
    0.6456   -3.8821   -3.2625 C   0  0  0  0  0  0  0  0  0  0  0  0
    0.7269   -5.5391   -3.7176 Cl  0  0  0  0  0  0  0  0  0  0  0  0
    0.2551   -3.5375   -1.9712 C   0  0  0  0  0  0  0  0  0  0  0  0
    0.1889   -2.1919   -1.6009 C   0  0  0  0  0  0  0  0  0  0  0  0
    4.6692    1.1914   -0.7496 H   0  0  0  0  0  0  0  0  0  0  0  0
    3.2979   -1.3882    0.2650 H   0  0  0  0  0  0  0  0  0  0  0  0
    4.3793   -1.3213   -1.0982 H   0  0  0  0  0  0  0  0  0  0  0  0
    6.8169   -0.6438   -0.7721 H   0  0  0  0  0  0  0  0  0  0  0  0
    8.7527   -0.8940    0.7382 H   0  0  0  0  0  0  0  0  0  0  0  0
    8.4064   -1.3985    3.1414 H   0  0  0  0  0  0  0  0  0  0  0  0
    6.1069   -1.6533    4.0363 H   0  0  0  0  0  0  0  0  0  0  0  0
    4.1573   -1.4032    2.5447 H   0  0  0  0  0  0  0  0  0  0  0  0
    3.9856    1.2864    1.6273 H   0  0  0  0  0  0  0  0  0  0  0  0
    0.5050    0.8233    4.0897 H   0  0  0  0  0  0  0  0  0  0  0  0
   -1.1987    2.7427    0.2555 H   0  0  0  0  0  0  0  0  0  0  0  0
   -2.0797    2.1249   -1.1323 H   0  0  0  0  0  0  0  0  0  0  0  0
   -3.1430    2.2072    1.7447 H   0  0  0  0  0  0  0  0  0  0  0  0
   -3.5824    3.2753    0.3942 H   0  0  0  0  0  0  0  0  0  0  0  0
   -5.4564    3.2395    1.7181 H   0  0  0  0  0  0  0  0  0  0  0  0
   -7.8464    3.6604    1.9532 H   0  0  0  0  0  0  0  0  0  0  0  0
   -9.5035    2.2182    0.7977 H   0  0  0  0  0  0  0  0  0  0  0  0
   -8.7100    0.3470   -0.6278 H   0  0  0  0  0  0  0  0  0  0  0  0
   -6.3185   -0.0719   -0.9051 H   0  0  0  0  0  0  0  0  0  0  0  0
   -3.7437   -0.2682   -1.0757 H   0  0  0  0  0  0  0  0  0  0  0  0
   -4.5214   -0.8337    0.4193 H   0  0  0  0  0  0  0  0  0  0  0  0
   -2.5858   -0.2233    1.7591 H   0  0  0  0  0  0  0  0  0  0  0  0
   -2.1380   -1.3685    0.4882 H   0  0  0  0  0  0  0  0  0  0  0  0
   -0.5847    0.5626   -1.9242 H   0  0  0  0  0  0  0  0  0  0  0  0
    0.6959    0.8981   -3.0084 H   0  0  0  0  0  0  0  0  0  0  0  0
    1.1807   -0.7851   -4.5408 H   0  0  0  0  0  0  0  0  0  0  0  0
    1.2853   -3.1580   -5.1918 H   0  0  0  0  0  0  0  0  0  0  0  0
    0.0036   -4.3087   -1.2482 H   0  0  0  0  0  0  0  0  0  0  0  0
   -0.1108   -1.9421   -0.5877 H   0  0  0  0  0  0  0  0  0  0  0  0
  1  2  2  0
  2  3  1  0
  3  4  1  0
  4  5  1  0
  5  6  2  0
  6  7  1  0
  7  8  2  0
  8  9  1  0
  9 10  2  0
  3 11  1  0
 11 12  1  0
 12 13  2  0
 13 14  1  0
 14 15  2  0
 15 16  1  0
 16 17  1  0
 17 18  1  0
 18 19  1  0
 19 20  1  0
 20 21  1  0
 21 22  2  0
 22 23  1  0
 23 24  2  0
 24 25  1  0
 25 26  2  0
 20 27  1  0
 27 28  1  0
 16 29  2  0
 29 30  1  0
 30 31  1  0
 31 32  1  0
 32 33  2  0
 33 34  1  0
 34 35  2  0
 35 36  1  0
 35 37  1  0
 37 38  2  0
 30  2  1  0
 38 32  1  0
 10  5  1  0
 29 12  1  0
 28 17  1  0
 26 21  1  0
  3 39  1  0
  4 40  1  0
  4 41  1  0
  6 42  1  0
  7 43  1  0
  8 44  1  0
  9 45  1  0
 10 46  1  0
 11 47  1  0
 14 48  1  0
 18 49  1  0
 18 50  1  0
 19 51  1  0
 19 52  1  0
 22 53  1  0
 23 54  1  0
 24 55  1  0
 25 56  1  0
 26 57  1  0
 27 58  1  0
 27 59  1  0
 28 60  1  0
 28 61  1  0
 31 62  1  0
 31 63  1  0
 33 64  1  0
 34 65  1  0
 37 66  1  0
 38 67  1  0
M  END
$$$$
