
     RDKit          3D

 33 34  0  0  0  0  0  0  0  0999 V2000
   -5.8337    0.4680   -1.2996 C   0  0  0  0  0  0  0  0  0  0  0  0
   -5.2727    0.2837    0.0997 C   0  0  0  0  0  0  0  0  0  0  0  0
   -4.0706    1.0338    0.2672 O   0  0  0  0  0  0  0  0  0  0  0  0
   -2.8771    0.4497   -0.0488 C   0  0  0  0  0  0  0  0  0  0  0  0
   -2.6964   -0.7977   -0.6446 C   0  0  0  0  0  0  0  0  0  0  0  0
   -1.4055   -1.2675   -0.9159 C   0  0  0  0  0  0  0  0  0  0  0  0
   -0.2834   -0.4971   -0.5886 C   0  0  0  0  0  0  0  0  0  0  0  0
    1.0677   -1.0428   -0.8994 C   0  0  0  0  0  0  0  0  0  0  0  0
    1.2052   -1.9035   -1.7617 O   0  0  0  0  0  0  0  0  0  0  0  0
    2.1133   -0.5547   -0.1495 N   0  0  0  0  0  0  0  0  0  0  0  0
    3.4279   -1.1405   -0.2695 C   0  0  0  0  0  0  0  0  0  0  0  0
    4.3968   -0.2742    0.4431 C   0  0  0  0  0  0  0  0  0  0  0  0
    5.5015    0.4461    0.0382 C   0  0  0  0  0  0  0  0  0  0  0  0
    6.0125    1.0799    1.1963 C   0  0  0  0  0  0  0  0  0  0  0  0
    5.1882    0.7091    2.2323 C   0  0  0  0  0  0  0  0  0  0  0  0
    4.2019   -0.1104    1.7860 O   0  0  0  0  0  0  0  0  0  0  0  0
   -0.4638    0.7627   -0.0094 C   0  0  0  0  0  0  0  0  0  0  0  0
   -1.7555    1.2264    0.2587 C   0  0  0  0  0  0  0  0  0  0  0  0
   -6.7922   -0.0486   -1.4026 H   0  0  0  0  0  0  0  0  0  0  0  0
   -5.9822    1.5313   -1.5155 H   0  0  0  0  0  0  0  0  0  0  0  0
   -5.1478    0.0836   -2.0603 H   0  0  0  0  0  0  0  0  0  0  0  0
   -5.9939    0.6926    0.8167 H   0  0  0  0  0  0  0  0  0  0  0  0
   -5.1513   -0.7717    0.3671 H   0  0  0  0  0  0  0  0  0  0  0  0
   -3.5323   -1.4298   -0.9238 H   0  0  0  0  0  0  0  0  0  0  0  0
   -1.2783   -2.2411   -1.3864 H   0  0  0  0  0  0  0  0  0  0  0  0
    1.9147   -0.0860    0.7245 H   0  0  0  0  0  0  0  0  0  0  0  0
    3.6862   -1.2413   -1.3289 H   0  0  0  0  0  0  0  0  0  0  0  0
    3.4008   -2.1406    0.1756 H   0  0  0  0  0  0  0  0  0  0  0  0
    5.8875    0.5053   -0.9703 H   0  0  0  0  0  0  0  0  0  0  0  0
    6.8751    1.7274    1.2683 H   0  0  0  0  0  0  0  0  0  0  0  0
    5.1689    0.9309    3.2903 H   0  0  0  0  0  0  0  0  0  0  0  0
    0.3799    1.4082    0.2162 H   0  0  0  0  0  0  0  0  0  0  0  0
   -1.8915    2.2087    0.7063 H   0  0  0  0  0  0  0  0  0  0  0  0
  1  2  1  0
  2  3  1  0
  3  4  1  0
  4  5  2  0
  5  6  1  0
  6  7  2  0
  7  8  1  0
  8  9  2  0
  8 10  1  0
 10 11  1  0
 11 12  1  0
 12 13  2  0
 13 14  1  0
 14 15  2  0
 15 16  1  0
  7 17  1  0
 17 18  2  0
 18  4  1  0
 16 12  1  0
  1 19  1  0
  1 20  1  0
  1 21  1  0
  2 22  1  0
  2 23  1  0
  5 24  1  0
  6 25  1  0
 10 26  1  0
 11 27  1  0
 11 28  1  0
 13 29  1  0
 14 30  1  0
 15 31  1  0
 17 32  1  0
 18 33  1  0
M  END
$$$$
