
     RDKit          3D

 37 40  0  0  0  0  0  0  0  0999 V2000
   -4.4107    2.4039    0.9662 C   0  0  0  0  0  0  0  0  0  0  0  0
   -3.4029    1.2854    1.1629 C   0  0  0  0  0  0  0  0  0  0  0  0
   -2.7087    1.0221   -0.0555 O   0  0  0  0  0  0  0  0  0  0  0  0
   -3.1414   -0.0059   -0.8533 C   0  0  0  0  0  0  0  0  0  0  0  0
   -4.4051   -0.5982   -0.7750 C   0  0  0  0  0  0  0  0  0  0  0  0
   -4.7602   -1.6288   -1.6506 C   0  0  0  0  0  0  0  0  0  0  0  0
   -3.8608   -2.0708   -2.6170 C   0  0  0  0  0  0  0  0  0  0  0  0
   -2.6018   -1.4813   -2.7137 C   0  0  0  0  0  0  0  0  0  0  0  0
   -2.2355   -0.4503   -1.8375 C   0  0  0  0  0  0  0  0  0  0  0  0
   -0.8959    0.1372   -1.9773 C   0  0  0  0  0  0  0  0  0  0  0  0
    0.1441   -0.1223   -1.1733 C   0  0  0  0  0  0  0  0  0  0  0  0
    0.1774   -1.2254    0.1918 S   0  0  0  0  0  0  0  0  0  0  0  0
    1.8135   -0.8033    0.4807 C   0  0  0  0  0  0  0  0  0  0  0  0
    2.7214   -1.1469    1.3469 N   0  0  0  0  0  0  0  0  0  0  0  0
    3.8036   -0.3861    0.9299 C   0  0  0  0  0  0  0  0  0  0  0  0
    5.1859   -0.4340    1.6608 C   0  0  0  0  0  0  0  0  0  0  0  0
    6.3110    0.2887    1.3110 C   0  0  0  0  0  0  0  0  0  0  0  0
    7.3248   -0.0608    2.2358 C   0  0  0  0  0  0  0  0  0  0  0  0
    6.7586   -0.9738    3.0930 C   0  0  0  0  0  0  0  0  0  0  0  0
    5.4649   -1.2066    2.7544 O   0  0  0  0  0  0  0  0  0  0  0  0
    3.5782    0.3937   -0.1493 N   0  0  0  0  0  0  0  0  0  0  0  0
    2.2913    0.0960   -0.4013 N   0  0  0  0  0  0  0  0  0  0  0  0
    1.4550    0.5598   -1.3934 C   0  0  0  0  0  0  0  0  0  0  0  0
    1.7864    1.3596   -2.2495 O   0  0  0  0  0  0  0  0  0  0  0  0
   -4.9028    2.6521    1.9109 H   0  0  0  0  0  0  0  0  0  0  0  0
   -5.1762    2.1285    0.2348 H   0  0  0  0  0  0  0  0  0  0  0  0
   -3.9153    3.3018    0.5816 H   0  0  0  0  0  0  0  0  0  0  0  0
   -3.8552    0.3878    1.5994 H   0  0  0  0  0  0  0  0  0  0  0  0
   -2.6482    1.6216    1.8831 H   0  0  0  0  0  0  0  0  0  0  0  0
   -5.1464   -0.2727   -0.0533 H   0  0  0  0  0  0  0  0  0  0  0  0
   -5.7460   -2.0827   -1.5802 H   0  0  0  0  0  0  0  0  0  0  0  0
   -4.1414   -2.8710   -3.2972 H   0  0  0  0  0  0  0  0  0  0  0  0
   -1.9091   -1.8325   -3.4751 H   0  0  0  0  0  0  0  0  0  0  0  0
   -0.7957    0.8446   -2.7987 H   0  0  0  0  0  0  0  0  0  0  0  0
    6.3810    0.9832    0.4846 H   0  0  0  0  0  0  0  0  0  0  0  0
    8.3406    0.3068    2.2729 H   0  0  0  0  0  0  0  0  0  0  0  0
    7.1218   -1.5232    3.9504 H   0  0  0  0  0  0  0  0  0  0  0  0
  1  2  1  0
  2  3  1  0
  3  4  1  0
  4  5  2  0
  5  6  1  0
  6  7  2  0
  7  8  1  0
  8  9  2  0
  9 10  1  0
 10 11  2  3
 11 12  1  0
 12 13  1  0
 13 14  2  0
 14 15  1  0
 15 16  1  0
 16 17  2  0
 17 18  1  0
 18 19  2  0
 19 20  1  0
 15 21  2  0
 21 22  1  0
 22 23  1  0
 23 24  2  0
  9  4  1  0
 23 11  1  0
 22 13  1  0
 20 16  1  0
  1 25  1  0
  1 26  1  0
  1 27  1  0
  2 28  1  0
  2 29  1  0
  5 30  1  0
  6 31  1  0
  7 32  1  0
  8 33  1  0
 10 34  1  0
 17 35  1  0
 18 36  1  0
 19 37  1  0
M  END
$$$$
