
     RDKit          3D

 36 37  0  0  0  0  0  0  0  0999 V2000
   -2.2838   -0.2126    1.5046 O   0  0  0  0  0  0  0  0  0  0  0  0
   -1.3593    0.5039    1.1221 C   0  0  0  0  0  0  0  0  0  0  0  0
   -0.5058    1.3441    2.0748 C   0  0  0  0  0  0  0  0  0  0  0  0
    0.7689    1.7245    1.5488 O   0  0  0  0  0  0  0  0  0  0  0  0
    1.6891    0.7277    1.5444 C   0  0  0  0  0  0  0  0  0  0  0  0
    1.4915   -0.4244    1.8899 O   0  0  0  0  0  0  0  0  0  0  0  0
    2.9950    1.2165    1.0297 C   0  0  0  0  0  0  0  0  0  0  0  0
    3.2202    2.5626    0.7135 C   0  0  0  0  0  0  0  0  0  0  0  0
    4.4682    2.9599    0.2326 C   0  0  0  0  0  0  0  0  0  0  0  0
    4.7391    4.6139   -0.1567 Cl  0  0  0  0  0  0  0  0  0  0  0  0
    5.4956    2.0353    0.0637 C   0  0  0  0  0  0  0  0  0  0  0  0
    5.2683    0.6992    0.3822 C   0  0  0  0  0  0  0  0  0  0  0  0
    6.5311   -0.4508    0.1782 Cl  0  0  0  0  0  0  0  0  0  0  0  0
    4.0277    0.2838    0.8636 C   0  0  0  0  0  0  0  0  0  0  0  0
   -1.0481    0.6426   -0.2152 N   0  0  0  0  0  0  0  0  0  0  0  0
   -1.8521   -0.0059   -1.2330 C   0  0  0  0  0  0  0  0  0  0  0  0
   -1.7520   -1.5389   -1.1906 C   0  0  0  0  0  0  0  0  0  0  0  0
   -3.0216   -2.1672   -1.4900 N   0  0  0  0  0  0  0  0  0  0  0  0
   -3.9587   -2.5465   -0.5579 C   0  0  0  0  0  0  0  0  0  0  0  0
   -3.7782   -2.3496    0.7788 O   0  0  0  0  0  0  0  0  0  0  0  0
   -5.0513   -3.1170   -1.0740 C   0  0  0  0  0  0  0  0  0  0  0  0
   -4.9801   -3.1828   -2.8071 S   0  0  0  0  0  0  0  0  0  0  0  0
   -3.3952   -2.3928   -2.8080 C   0  0  0  0  0  0  0  0  0  0  0  0
   -2.7784   -2.0984   -3.8192 O   0  0  0  0  0  0  0  0  0  0  0  0
   -1.0596    2.2655    2.2830 H   0  0  0  0  0  0  0  0  0  0  0  0
   -0.3837    0.8078    3.0233 H   0  0  0  0  0  0  0  0  0  0  0  0
    2.4381    3.3068    0.8417 H   0  0  0  0  0  0  0  0  0  0  0  0
    6.4651    2.3530   -0.3113 H   0  0  0  0  0  0  0  0  0  0  0  0
    3.8649   -0.7646    1.1098 H   0  0  0  0  0  0  0  0  0  0  0  0
   -0.3821    1.3567   -0.4867 H   0  0  0  0  0  0  0  0  0  0  0  0
   -1.5186    0.3684   -2.2067 H   0  0  0  0  0  0  0  0  0  0  0  0
   -2.8862    0.3283   -1.0863 H   0  0  0  0  0  0  0  0  0  0  0  0
   -1.0169   -1.8595   -1.9399 H   0  0  0  0  0  0  0  0  0  0  0  0
   -1.3811   -1.9201   -0.2330 H   0  0  0  0  0  0  0  0  0  0  0  0
   -3.1792   -1.5876    0.9307 H   0  0  0  0  0  0  0  0  0  0  0  0
   -5.8909   -3.4817   -0.4997 H   0  0  0  0  0  0  0  0  0  0  0  0
  1  2  2  0
  2  3  1  0
  3  4  1  0
  4  5  1  0
  5  6  2  0
  5  7  1  0
  7  8  2  0
  8  9  1  0
  9 10  1  0
  9 11  2  0
 11 12  1  0
 12 13  1  0
 12 14  2  0
  2 15  1  0
 15 16  1  0
 16 17  1  0
 17 18  1  0
 18 19  1  0
 19 20  1  0
 19 21  2  0
 21 22  1  0
 22 23  1  0
 23 24  2  0
 14  7  1  0
 23 18  1  0
  3 25  1  0
  3 26  1  0
  8 27  1  0
 11 28  1  0
 14 29  1  0
 15 30  1  0
 16 31  1  0
 16 32  1  0
 17 33  1  0
 17 34  1  0
 20 35  1  0
 21 36  1  0
M  END
$$$$
