
     RDKit          3D

 24 24  0  0  0  0  0  0  0  0999 V2000
   -2.7698    0.7974   -0.6803 C   0  0  0  0  0  0  0  0  0  0  0  0
   -2.8276   -0.6388   -0.8809 N   0  0  0  0  0  0  0  0  0  0  0  0
   -2.4482   -1.5685    0.0273 C   0  0  0  0  0  0  0  0  0  0  0  0
   -3.3404   -2.9745    0.1547 S   0  0  0  0  0  0  0  0  0  0  0  0
   -1.4125   -1.3607    0.8733 N   0  0  0  0  0  0  0  0  0  0  0  0
   -0.1923   -0.6817    0.6704 C   0  0  0  0  0  0  0  0  0  0  0  0
    0.6362   -0.5034    1.7828 C   0  0  0  0  0  0  0  0  0  0  0  0
    1.8720    0.1381    1.6555 C   0  0  0  0  0  0  0  0  0  0  0  0
    2.3119    0.5856    0.4062 C   0  0  0  0  0  0  0  0  0  0  0  0
    3.6229    1.3013    0.2710 C   0  0  0  0  0  0  0  0  0  0  0  0
    1.4885    0.3954   -0.7082 C   0  0  0  0  0  0  0  0  0  0  0  0
    0.2515   -0.2450   -0.5782 C   0  0  0  0  0  0  0  0  0  0  0  0
   -2.3156    1.0650    0.2755 H   0  0  0  0  0  0  0  0  0  0  0  0
   -2.2216    1.2437   -1.5130 H   0  0  0  0  0  0  0  0  0  0  0  0
   -3.7961    1.1758   -0.6937 H   0  0  0  0  0  0  0  0  0  0  0  0
   -3.6026   -0.9538   -1.4534 H   0  0  0  0  0  0  0  0  0  0  0  0
   -1.4269   -1.9731    1.6817 H   0  0  0  0  0  0  0  0  0  0  0  0
    0.3232   -0.8438    2.7665 H   0  0  0  0  0  0  0  0  0  0  0  0
    2.4893    0.2823    2.5394 H   0  0  0  0  0  0  0  0  0  0  0  0
    4.3423    0.9431    1.0149 H   0  0  0  0  0  0  0  0  0  0  0  0
    3.4776    2.3772    0.4087 H   0  0  0  0  0  0  0  0  0  0  0  0
    4.0634    1.1269   -0.7163 H   0  0  0  0  0  0  0  0  0  0  0  0
    1.8088    0.7319   -1.6918 H   0  0  0  0  0  0  0  0  0  0  0  0
   -0.3341   -0.4205   -1.4752 H   0  0  0  0  0  0  0  0  0  0  0  0
  1  2  1  0
  2  3  1  0
  3  4  2  0
  3  5  1  0
  5  6  1  0
  6  7  2  0
  7  8  1  0
  8  9  2  0
  9 10  1  0
  9 11  1  0
 11 12  2  0
 12  6  1  0
  1 13  1  0
  1 14  1  0
  1 15  1  0
  2 16  1  0
  5 17  1  0
  7 18  1  0
  8 19  1  0
 10 20  1  0
 10 21  1  0
 10 22  1  0
 11 23  1  0
 12 24  1  0
M  END
$$$$
