
     RDKit          3D

 47 49  0  0  0  0  0  0  0  0999 V2000
    7.0894   -1.9911    1.1158 C   0  0  0  0  0  0  0  0  0  0  0  0
    7.3900   -0.6038    0.5695 C   0  0  0  0  0  0  0  0  0  0  0  0
    6.1305    0.1371    0.1995 C   0  0  0  0  0  0  0  0  0  0  0  0
    5.4696    0.9316    1.1448 C   0  0  0  0  0  0  0  0  0  0  0  0
    4.2934    1.6047    0.8043 C   0  0  0  0  0  0  0  0  0  0  0  0
    3.7512    1.4797   -0.4764 C   0  0  0  0  0  0  0  0  0  0  0  0
    2.5817    2.1701   -0.8209 N   0  0  0  0  0  0  0  0  0  0  0  0
    1.4383    1.6022   -0.6522 C   0  0  0  0  0  0  0  0  0  0  0  0
    0.3029    2.2626   -0.9822 N   0  0  0  0  0  0  0  0  0  0  0  0
   -0.8933    1.6304   -0.7987 C   0  0  0  0  0  0  0  0  0  0  0  0
   -1.9706    2.1258   -1.0837 O   0  0  0  0  0  0  0  0  0  0  0  0
   -0.6606    0.2716   -0.2246 C   0  0  0  0  0  0  0  0  0  0  0  0
   -1.5587   -0.6566    0.1365 C   0  0  0  0  0  0  0  0  0  0  0  0
   -3.0224   -0.5674    0.0491 C   0  0  0  0  0  0  0  0  0  0  0  0
   -3.7788   -0.7858    1.2131 C   0  0  0  0  0  0  0  0  0  0  0  0
   -5.1754   -0.7618    1.1730 C   0  0  0  0  0  0  0  0  0  0  0  0
   -5.9993   -0.9649    2.2477 O   0  0  0  0  0  0  0  0  0  0  0  0
   -5.3915   -1.1359    3.5192 C   0  0  0  0  0  0  0  0  0  0  0  0
   -5.8018   -0.5201   -0.0544 C   0  0  0  0  0  0  0  0  0  0  0  0
   -7.1748   -0.4922   -0.1240 O   0  0  0  0  0  0  0  0  0  0  0  0
   -5.0651   -0.2990   -1.2265 C   0  0  0  0  0  0  0  0  0  0  0  0
   -5.8174   -0.0703   -2.3524 O   0  0  0  0  0  0  0  0  0  0  0  0
   -5.1162    0.4291   -3.4865 C   0  0  0  0  0  0  0  0  0  0  0  0
   -3.6728   -0.3432   -1.1721 C   0  0  0  0  0  0  0  0  0  0  0  0
    1.0488    0.0210   -0.0332 S   0  0  0  0  0  0  0  0  0  0  0  0
    4.4162    0.7001   -1.4250 C   0  0  0  0  0  0  0  0  0  0  0  0
    5.5926    0.0252   -1.0889 C   0  0  0  0  0  0  0  0  0  0  0  0
    6.5585   -2.6022    0.3779 H   0  0  0  0  0  0  0  0  0  0  0  0
    6.4684   -1.9375    2.0165 H   0  0  0  0  0  0  0  0  0  0  0  0
    8.0200   -2.5053    1.3755 H   0  0  0  0  0  0  0  0  0  0  0  0
    8.0423   -0.6843   -0.3085 H   0  0  0  0  0  0  0  0  0  0  0  0
    7.9529   -0.0264    1.3131 H   0  0  0  0  0  0  0  0  0  0  0  0
    5.8682    1.0354    2.1514 H   0  0  0  0  0  0  0  0  0  0  0  0
    3.7976    2.2293    1.5418 H   0  0  0  0  0  0  0  0  0  0  0  0
    0.3447    3.1944   -1.3616 H   0  0  0  0  0  0  0  0  0  0  0  0
   -1.2080   -1.5919    0.5718 H   0  0  0  0  0  0  0  0  0  0  0  0
   -3.2540   -0.9748    2.1442 H   0  0  0  0  0  0  0  0  0  0  0  0
   -4.7989   -0.2579    3.7969 H   0  0  0  0  0  0  0  0  0  0  0  0
   -6.1894   -1.2458    4.2599 H   0  0  0  0  0  0  0  0  0  0  0  0
   -4.7853   -2.0473    3.5465 H   0  0  0  0  0  0  0  0  0  0  0  0
   -7.3775   -0.3021   -1.0591 H   0  0  0  0  0  0  0  0  0  0  0  0
   -4.4583   -0.3382   -3.9071 H   0  0  0  0  0  0  0  0  0  0  0  0
   -4.5589    1.3401   -3.2433 H   0  0  0  0  0  0  0  0  0  0  0  0
   -5.8572    0.6858   -4.2497 H   0  0  0  0  0  0  0  0  0  0  0  0
   -3.0757   -0.2025   -2.0667 H   0  0  0  0  0  0  0  0  0  0  0  0
    4.0165    0.6169   -2.4315 H   0  0  0  0  0  0  0  0  0  0  0  0
    6.0882   -0.5847   -1.8407 H   0  0  0  0  0  0  0  0  0  0  0  0
  1  2  1  0
  2  3  1  0
  3  4  2  0
  4  5  1  0
  5  6  2  0
  6  7  1  0
  7  8  2  3
  8  9  1  0
  9 10  1  0
 10 11  2  0
 10 12  1  0
 12 13  2  3
 13 14  1  0
 14 15  2  0
 15 16  1  0
 16 17  1  0
 17 18  1  0
 16 19  2  0
 19 20  1  0
 19 21  1  0
 21 22  1  0
 22 23  1  0
 21 24  2  0
 12 25  1  0
  6 26  1  0
 26 27  2  0
 27  3  1  0
 25  8  1  0
 24 14  1  0
  1 28  1  0
  1 29  1  0
  1 30  1  0
  2 31  1  0
  2 32  1  0
  4 33  1  0
  5 34  1  0
  9 35  1  0
 13 36  1  0
 15 37  1  0
 18 38  1  0
 18 39  1  0
 18 40  1  0
 20 41  1  0
 23 42  1  0
 23 43  1  0
 23 44  1  0
 24 45  1  0
 26 46  1  0
 27 47  1  0
M  END
$$$$
