
     RDKit          3D

 40 42  0  0  0  0  0  0  0  0999 V2000
    4.1909    1.0412   -0.2870 N   0  0  0  0  0  0  0  0  0  0  0  0
    3.9657   -0.1797    0.4747 C   0  0  0  0  0  0  0  0  0  0  0  0
    3.0144   -1.1340   -0.2496 C   0  0  0  0  0  0  0  0  0  0  0  0
    1.6587   -0.5367   -0.6471 C   0  0  0  0  0  0  0  0  0  0  0  0
    0.8803    0.0473    0.5413 C   0  0  0  0  0  0  0  0  0  0  0  0
   -0.4939    0.4449    0.1516 N   0  0  0  0  0  0  0  0  0  0  0  0
   -0.6823    1.7989   -0.2571 C   0  0  0  0  0  0  0  0  0  0  0  0
    0.3985    2.6359   -0.6199 C   0  0  0  0  0  0  0  0  0  0  0  0
    0.2220    3.9618   -1.0349 C   0  0  0  0  0  0  0  0  0  0  0  0
   -1.0504    4.5015   -1.1055 C   0  0  0  0  0  0  0  0  0  0  0  0
   -2.1394    3.7096   -0.7621 C   0  0  0  0  0  0  0  0  0  0  0  0
   -1.9666    2.3737   -0.3461 C   0  0  0  0  0  0  0  0  0  0  0  0
   -3.4603    1.5131    0.0845 S   0  0  0  0  0  0  0  0  0  0  0  0
   -2.8908   -0.1576    0.2820 C   0  0  0  0  0  0  0  0  0  0  0  0
   -3.9036   -1.1240    0.4392 C   0  0  0  0  0  0  0  0  0  0  0  0
   -3.5954   -2.4680    0.6209 C   0  0  0  0  0  0  0  0  0  0  0  0
   -2.2629   -2.8710    0.6404 C   0  0  0  0  0  0  0  0  0  0  0  0
   -1.8935   -4.3186    0.8475 C   0  0  0  0  0  0  0  0  0  0  0  0
   -2.8794   -5.1856    0.4848 F   0  0  0  0  0  0  0  0  0  0  0  0
   -1.6091   -4.5975    2.1494 F   0  0  0  0  0  0  0  0  0  0  0  0
   -0.7916   -4.6918    0.1379 F   0  0  0  0  0  0  0  0  0  0  0  0
   -1.2555   -1.8957    0.4945 C   0  0  0  0  0  0  0  0  0  0  0  0
   -1.5297   -0.5193    0.3156 C   0  0  0  0  0  0  0  0  0  0  0  0
    4.8864    1.6141    0.1917 H   0  0  0  0  0  0  0  0  0  0  0  0
    4.5977    0.8088   -1.1936 H   0  0  0  0  0  0  0  0  0  0  0  0
    3.5686    0.0781    1.4618 H   0  0  0  0  0  0  0  0  0  0  0  0
    4.9241   -0.6849    0.6390 H   0  0  0  0  0  0  0  0  0  0  0  0
    3.5037   -1.5095   -1.1576 H   0  0  0  0  0  0  0  0  0  0  0  0
    2.8441   -2.0078    0.3916 H   0  0  0  0  0  0  0  0  0  0  0  0
    1.0729   -1.3255   -1.1337 H   0  0  0  0  0  0  0  0  0  0  0  0
    1.8060    0.2240   -1.4215 H   0  0  0  0  0  0  0  0  0  0  0  0
    1.4175    0.8932    0.9865 H   0  0  0  0  0  0  0  0  0  0  0  0
    0.8575   -0.6727    1.3696 H   0  0  0  0  0  0  0  0  0  0  0  0
    1.4246    2.2805   -0.6079 H   0  0  0  0  0  0  0  0  0  0  0  0
    1.0870    4.5623   -1.3048 H   0  0  0  0  0  0  0  0  0  0  0  0
   -1.1976    5.5288   -1.4259 H   0  0  0  0  0  0  0  0  0  0  0  0
   -3.1368    4.1413   -0.8184 H   0  0  0  0  0  0  0  0  0  0  0  0
   -4.9509   -0.8259    0.4220 H   0  0  0  0  0  0  0  0  0  0  0  0
   -4.3991   -3.1922    0.7413 H   0  0  0  0  0  0  0  0  0  0  0  0
   -0.2319   -2.2611    0.5051 H   0  0  0  0  0  0  0  0  0  0  0  0
  1  2  1  0
  2  3  1  0
  3  4  1  0
  4  5  1  0
  5  6  1  0
  6  7  1  0
  7  8  2  0
  8  9  1  0
  9 10  2  0
 10 11  1  0
 11 12  2  0
 12 13  1  0
 13 14  1  0
 14 15  2  0
 15 16  1  0
 16 17  2  0
 17 18  1  0
 18 19  1  0
 18 20  1  0
 18 21  1  0
 17 22  1  0
 22 23  2  0
 23  6  1  0
 12  7  1  0
 23 14  1  0
  1 24  1  0
  1 25  1  0
  2 26  1  0
  2 27  1  0
  3 28  1  0
  3 29  1  0
  4 30  1  0
  4 31  1  0
  5 32  1  0
  5 33  1  0
  8 34  1  0
  9 35  1  0
 10 36  1  0
 11 37  1  0
 15 38  1  0
 16 39  1  0
 22 40  1  0
M  END
$$$$
