
     RDKit          3D

 27 27  0  0  0  0  0  0  0  0999 V2000
    3.4117   -1.2887   -0.7126 C   0  0  0  0  0  0  0  0  0  0  0  0
    2.1830   -0.4944   -0.4812 C   0  0  0  0  0  0  0  0  0  0  0  0
    2.0173    0.8949   -0.5481 C   0  0  0  0  0  0  0  0  0  0  0  0
    0.6848    1.1484   -0.2506 C   0  0  0  0  0  0  0  0  0  0  0  0
    0.0467    2.4342   -0.1973 C   0  0  0  0  0  0  0  0  0  0  0  0
   -1.1115    2.7206    0.0562 O   0  0  0  0  0  0  0  0  0  0  0  0
    0.9209    3.4262   -0.4810 O   0  0  0  0  0  0  0  0  0  0  0  0
    0.1288   -0.1015   -0.0229 N   0  0  0  0  0  0  0  0  0  0  0  0
   -1.2557   -0.4881    0.3359 C   0  0  0  0  0  0  0  0  0  0  0  0
   -1.3929   -2.0329    0.4866 C   0  0  0  0  0  0  0  0  0  0  0  0
   -1.6563    0.1027    1.7009 C   0  0  0  0  0  0  0  0  0  0  0  0
   -2.2449   -0.0867   -0.7746 C   0  0  0  0  0  0  0  0  0  0  0  0
    1.0408   -1.0982   -0.1635 N   0  0  0  0  0  0  0  0  0  0  0  0
    4.2586   -0.6421   -0.9634 H   0  0  0  0  0  0  0  0  0  0  0  0
    3.2654   -1.9908   -1.5398 H   0  0  0  0  0  0  0  0  0  0  0  0
    3.6753   -1.8589    0.1840 H   0  0  0  0  0  0  0  0  0  0  0  0
    2.7696    1.6360   -0.7836 H   0  0  0  0  0  0  0  0  0  0  0  0
    0.3712    4.2330   -0.4120 H   0  0  0  0  0  0  0  0  0  0  0  0
   -0.7362   -2.4215    1.2743 H   0  0  0  0  0  0  0  0  0  0  0  0
   -2.4190   -2.3146    0.7522 H   0  0  0  0  0  0  0  0  0  0  0  0
   -1.1453   -2.5531   -0.4465 H   0  0  0  0  0  0  0  0  0  0  0  0
   -1.6943    1.1920    1.7066 H   0  0  0  0  0  0  0  0  0  0  0  0
   -2.6497   -0.2479    2.0048 H   0  0  0  0  0  0  0  0  0  0  0  0
   -0.9452   -0.1972    2.4800 H   0  0  0  0  0  0  0  0  0  0  0  0
   -2.3186    0.9912   -0.9195 H   0  0  0  0  0  0  0  0  0  0  0  0
   -1.9479   -0.5197   -1.7373 H   0  0  0  0  0  0  0  0  0  0  0  0
   -3.2566   -0.4431   -0.5477 H   0  0  0  0  0  0  0  0  0  0  0  0
  1  2  1  0
  2  3  1  0
  3  4  2  0
  4  5  1  0
  5  6  2  0
  5  7  1  0
  4  8  1  0
  8  9  1  0
  9 10  1  0
  9 11  1  0
  9 12  1  0
  8 13  1  0
 13  2  2  0
  1 14  1  0
  1 15  1  0
  1 16  1  0
  3 17  1  0
  7 18  1  0
 10 19  1  0
 10 20  1  0
 10 21  1  0
 11 22  1  0
 11 23  1  0
 11 24  1  0
 12 25  1  0
 12 26  1  0
 12 27  1  0
M  END
$$$$
