
     RDKit          3D

 46 49  0  0  0  0  0  0  0  0999 V2000
    3.1677    2.1143   -1.3094 O   0  0  0  0  0  0  0  0  0  0  0  0
    3.2678    1.0556   -0.6935 C   0  0  0  0  0  0  0  0  0  0  0  0
    2.2195    0.6285    0.3239 C   0  0  0  0  0  0  0  0  0  0  0  0
    0.6525    0.2891   -0.5310 S   0  0  0  0  0  0  0  0  0  0  0  0
   -0.2649   -0.3616    0.7800 C   0  0  0  0  0  0  0  0  0  0  0  0
    0.2393   -0.9690    1.8261 N   0  0  0  0  0  0  0  0  0  0  0  0
   -0.8036   -1.3542    2.6242 N   0  0  0  0  0  0  0  0  0  0  0  0
   -1.9325   -0.9760    2.0506 C   0  0  0  0  0  0  0  0  0  0  0  0
   -3.2947   -1.1808    2.6337 C   0  0  0  0  0  0  0  0  0  0  0  0
   -4.2418   -1.9949    1.7927 C   0  0  0  0  0  0  0  0  0  0  0  0
   -5.5519   -1.6939    1.4703 C   0  0  0  0  0  0  0  0  0  0  0  0
   -6.1570   -2.6933    0.6554 C   0  0  0  0  0  0  0  0  0  0  0  0
   -5.2975   -3.7350    0.3955 C   0  0  0  0  0  0  0  0  0  0  0  0
   -3.7791   -3.5149    1.1458 S   0  0  0  0  0  0  0  0  0  0  0  0
   -1.6332   -0.3318    0.8656 N   0  0  0  0  0  0  0  0  0  0  0  0
   -2.5672    0.2473   -0.0839 C   0  0  0  0  0  0  0  0  0  0  0  0
   -3.2043    1.4781    0.4501 C   0  0  0  0  0  0  0  0  0  0  0  0
   -4.5147    1.9059    0.5339 C   0  0  0  0  0  0  0  0  0  0  0  0
   -4.4808    3.1814    1.1494 C   0  0  0  0  0  0  0  0  0  0  0  0
   -3.1553    3.4552    1.3926 C   0  0  0  0  0  0  0  0  0  0  0  0
   -2.3720    2.4299    0.9664 O   0  0  0  0  0  0  0  0  0  0  0  0
    4.3028    0.1424   -0.8216 N   0  0  0  0  0  0  0  0  0  0  0  0
    5.4272    0.2096   -1.6804 C   0  0  0  0  0  0  0  0  0  0  0  0
    5.6057    1.2145   -2.6345 C   0  0  0  0  0  0  0  0  0  0  0  0
    6.7409    1.2202   -3.4575 C   0  0  0  0  0  0  0  0  0  0  0  0
    7.7044    0.2187   -3.3331 C   0  0  0  0  0  0  0  0  0  0  0  0
    9.0935    0.2250   -4.3553 Cl  0  0  0  0  0  0  0  0  0  0  0  0
    7.5467   -0.7910   -2.3917 C   0  0  0  0  0  0  0  0  0  0  0  0
    6.4122   -0.7951   -1.5747 C   0  0  0  0  0  0  0  0  0  0  0  0
    6.2538   -2.0712   -0.4129 Cl  0  0  0  0  0  0  0  0  0  0  0  0
    2.5547   -0.2607    0.8660 H   0  0  0  0  0  0  0  0  0  0  0  0
    2.0906    1.4397    1.0473 H   0  0  0  0  0  0  0  0  0  0  0  0
   -3.1904   -1.6795    3.6067 H   0  0  0  0  0  0  0  0  0  0  0  0
   -3.7380   -0.2000    2.8478 H   0  0  0  0  0  0  0  0  0  0  0  0
   -6.0554   -0.7938    1.8018 H   0  0  0  0  0  0  0  0  0  0  0  0
   -7.1739   -2.6541    0.2835 H   0  0  0  0  0  0  0  0  0  0  0  0
   -5.4915   -4.6249   -0.1874 H   0  0  0  0  0  0  0  0  0  0  0  0
   -3.3140   -0.5129   -0.3258 H   0  0  0  0  0  0  0  0  0  0  0  0
   -2.0507    0.4782   -1.0191 H   0  0  0  0  0  0  0  0  0  0  0  0
   -5.3876    1.3674    0.1873 H   0  0  0  0  0  0  0  0  0  0  0  0
   -5.3162    3.8277    1.3816 H   0  0  0  0  0  0  0  0  0  0  0  0
   -2.6290    4.2914    1.8328 H   0  0  0  0  0  0  0  0  0  0  0  0
    4.2867   -0.6752   -0.2172 H   0  0  0  0  0  0  0  0  0  0  0  0
    4.8748    2.0096   -2.7750 H   0  0  0  0  0  0  0  0  0  0  0  0
    6.8595    2.0092   -4.1975 H   0  0  0  0  0  0  0  0  0  0  0  0
    8.2966   -1.5755   -2.3000 H   0  0  0  0  0  0  0  0  0  0  0  0
  1  2  2  0
  2  3  1  0
  3  4  1  0
  4  5  1  0
  5  6  2  0
  6  7  1  0
  7  8  2  0
  8  9  1  0
  9 10  1  0
 10 11  2  0
 11 12  1  0
 12 13  2  0
 13 14  1  0
  8 15  1  0
 15 16  1  0
 16 17  1  0
 17 18  2  0
 18 19  1  0
 19 20  2  0
 20 21  1  0
  2 22  1  0
 22 23  1  0
 23 24  2  0
 24 25  1  0
 25 26  2  0
 26 27  1  0
 26 28  1  0
 28 29  2  0
 29 30  1  0
 15  5  1  0
 21 17  1  0
 29 23  1  0
 14 10  1  0
  3 31  1  0
  3 32  1  0
  9 33  1  0
  9 34  1  0
 11 35  1  0
 12 36  1  0
 13 37  1  0
 16 38  1  0
 16 39  1  0
 18 40  1  0
 19 41  1  0
 20 42  1  0
 22 43  1  0
 24 44  1  0
 25 45  1  0
 28 46  1  0
M  END
$$$$
