
     RDKit          3D

 30 31  0  0  0  0  0  0  0  0999 V2000
    4.6326   -2.6170   -2.5631 C   0  0  0  0  0  0  0  0  0  0  0  0
    3.4771   -3.0886   -1.8813 O   0  0  0  0  0  0  0  0  0  0  0  0
    2.6676   -2.1461   -1.3111 C   0  0  0  0  0  0  0  0  0  0  0  0
    2.8656   -0.7665   -1.3399 C   0  0  0  0  0  0  0  0  0  0  0  0
    1.9531    0.0904   -0.7109 C   0  0  0  0  0  0  0  0  0  0  0  0
    0.8281   -0.4194   -0.0467 C   0  0  0  0  0  0  0  0  0  0  0  0
   -0.1254    0.4922    0.6230 C   0  0  0  0  0  0  0  0  0  0  0  0
    0.3767    1.4226    1.5856 C   0  0  0  0  0  0  0  0  0  0  0  0
    0.7810    2.1692    2.3772 N   0  0  0  0  0  0  0  0  0  0  0  0
   -1.4242    0.4469    0.2640 C   0  0  0  0  0  0  0  0  0  0  0  0
   -2.5245    1.2737    0.7705 C   0  0  0  0  0  0  0  0  0  0  0  0
   -2.7682    1.4760    2.1253 C   0  0  0  0  0  0  0  0  0  0  0  0
   -3.8654    2.2483    2.5007 C   0  0  0  0  0  0  0  0  0  0  0  0
   -4.6922    2.7802    1.5197 C   0  0  0  0  0  0  0  0  0  0  0  0
   -4.3900    2.5091    0.1969 C   0  0  0  0  0  0  0  0  0  0  0  0
   -3.3346    1.7618   -0.1960 N   0  0  0  0  0  0  0  0  0  0  0  0
    0.6385   -1.8077   -0.0193 C   0  0  0  0  0  0  0  0  0  0  0  0
    1.5513   -2.6595   -0.6482 C   0  0  0  0  0  0  0  0  0  0  0  0
    5.1680   -3.4872   -2.9549 H   0  0  0  0  0  0  0  0  0  0  0  0
    4.3582   -1.9842   -3.4136 H   0  0  0  0  0  0  0  0  0  0  0  0
    5.3072   -2.0910   -1.8794 H   0  0  0  0  0  0  0  0  0  0  0  0
    3.7182   -0.3211   -1.8422 H   0  0  0  0  0  0  0  0  0  0  0  0
    2.1322    1.1637   -0.7547 H   0  0  0  0  0  0  0  0  0  0  0  0
   -1.7447   -0.2232   -0.5323 H   0  0  0  0  0  0  0  0  0  0  0  0
   -2.1316    1.0440    2.8901 H   0  0  0  0  0  0  0  0  0  0  0  0
   -4.0718    2.4304    3.5518 H   0  0  0  0  0  0  0  0  0  0  0  0
   -5.5524    3.3868    1.7793 H   0  0  0  0  0  0  0  0  0  0  0  0
   -5.0078    2.8960   -0.6086 H   0  0  0  0  0  0  0  0  0  0  0  0
   -0.2146   -2.2443    0.4956 H   0  0  0  0  0  0  0  0  0  0  0  0
    1.3921   -3.7351   -0.6189 H   0  0  0  0  0  0  0  0  0  0  0  0
  1  2  1  0
  2  3  1  0
  3  4  2  0
  4  5  1  0
  5  6  2  0
  6  7  1  0
  7  8  1  0
  8  9  3  0
  7 10  2  3
 10 11  1  0
 11 12  2  0
 12 13  1  0
 13 14  2  0
 14 15  1  0
 15 16  2  0
  6 17  1  0
 17 18  2  0
 18  3  1  0
 16 11  1  0
  1 19  1  0
  1 20  1  0
  1 21  1  0
  4 22  1  0
  5 23  1  0
 10 24  1  0
 12 25  1  0
 13 26  1  0
 14 27  1  0
 15 28  1  0
 17 29  1  0
 18 30  1  0
M  END
$$$$
