
     RDKit          3D

 58 60  0  0  0  0  0  0  0  0999 V2000
   10.4394   -1.6270   -1.9731 C   0  0  0  0  0  0  0  0  0  0  0  0
    9.0429   -1.3525   -1.5007 C   0  0  0  0  0  0  0  0  0  0  0  0
    8.8130   -0.4338   -0.4705 C   0  0  0  0  0  0  0  0  0  0  0  0
    7.5113   -0.1509   -0.0500 C   0  0  0  0  0  0  0  0  0  0  0  0
    6.4165   -0.7732   -0.6625 C   0  0  0  0  0  0  0  0  0  0  0  0
    5.0109   -0.4859   -0.1981 C   0  0  0  0  0  0  0  0  0  0  0  0
    4.5495   -1.4887    0.8616 C   0  0  0  0  0  0  0  0  0  0  0  0
    3.2446   -1.1542    1.4042 N   0  0  0  0  0  0  0  0  0  0  0  0
    2.0805   -1.4260    0.7173 C   0  0  0  0  0  0  0  0  0  0  0  0
    2.0508   -2.0120   -0.3583 O   0  0  0  0  0  0  0  0  0  0  0  0
    0.8440   -0.9492    1.4459 C   0  0  0  0  0  0  0  0  0  0  0  0
   -0.4072   -1.1395    0.5976 C   0  0  0  0  0  0  0  0  0  0  0  0
   -1.6409   -0.7898    1.3544 N   0  0  0  0  0  0  0  0  0  0  0  0
   -1.8388    0.8339    1.7824 S   0  0  0  0  0  6  0  0  0  0  0  0
   -1.0760    1.6711    0.8870 O   0  0  0  0  0  0  0  0  0  0  0  0
   -1.6561    0.8721    3.2168 O   0  0  0  0  0  0  0  0  0  0  0  0
   -3.5545    1.0909    1.4273 C   0  0  0  0  0  0  0  0  0  0  0  0
   -4.4391    1.4321    2.4482 C   0  0  0  0  0  0  0  0  0  0  0  0
   -5.7893    1.6466    2.1494 C   0  0  0  0  0  0  0  0  0  0  0  0
   -6.2693    1.5231    0.8334 C   0  0  0  0  0  0  0  0  0  0  0  0
   -5.3638    1.1798   -0.1712 C   0  0  0  0  0  0  0  0  0  0  0  0
   -4.0064    0.9653    0.1144 C   0  0  0  0  0  0  0  0  0  0  0  0
   -5.8418    1.0406   -1.5551 C   0  0  0  0  0  0  0  0  0  0  0  0
   -5.0380    0.7356   -2.4331 O   0  0  0  0  0  0  0  0  0  0  0  0
   -7.1911    1.2659   -1.7745 N   0  0  0  0  0  0  0  0  0  0  0  0
   -7.6965    1.1450   -3.1297 C   0  0  0  0  0  0  0  0  0  0  0  0
   -8.1129    1.6206   -0.7968 C   0  0  0  0  0  0  0  0  0  0  0  0
   -9.2979    1.8189   -1.0763 O   0  0  0  0  0  0  0  0  0  0  0  0
   -7.6337    1.7389    0.5042 N   0  0  0  0  0  0  0  0  0  0  0  0
   -8.5779    2.1076    1.5524 C   0  0  0  0  0  0  0  0  0  0  0  0
    6.6469   -1.6853   -1.6985 C   0  0  0  0  0  0  0  0  0  0  0  0
    7.9487   -1.9676   -2.1186 C   0  0  0  0  0  0  0  0  0  0  0  0
   10.7444   -0.8682   -2.7017 H   0  0  0  0  0  0  0  0  0  0  0  0
   10.5101   -2.6150   -2.4421 H   0  0  0  0  0  0  0  0  0  0  0  0
   11.1416   -1.6156   -1.1314 H   0  0  0  0  0  0  0  0  0  0  0  0
    9.6485    0.0695    0.0108 H   0  0  0  0  0  0  0  0  0  0  0  0
    7.3594    0.5635    0.7555 H   0  0  0  0  0  0  0  0  0  0  0  0
    4.3318   -0.4983   -1.0594 H   0  0  0  0  0  0  0  0  0  0  0  0
    4.9565    0.5348    0.2011 H   0  0  0  0  0  0  0  0  0  0  0  0
    4.5044   -2.5001    0.4401 H   0  0  0  0  0  0  0  0  0  0  0  0
    5.2462   -1.5105    1.7074 H   0  0  0  0  0  0  0  0  0  0  0  0
    3.2070   -0.5572    2.2210 H   0  0  0  0  0  0  0  0  0  0  0  0
    0.9825    0.1060    1.7045 H   0  0  0  0  0  0  0  0  0  0  0  0
    0.7566   -1.5150    2.3806 H   0  0  0  0  0  0  0  0  0  0  0  0
   -0.5035   -2.1919    0.3042 H   0  0  0  0  0  0  0  0  0  0  0  0
   -0.3618   -0.5615   -0.3321 H   0  0  0  0  0  0  0  0  0  0  0  0
   -1.7526   -1.3704    2.1884 H   0  0  0  0  0  0  0  0  0  0  0  0
   -4.0925    1.5404    3.4746 H   0  0  0  0  0  0  0  0  0  0  0  0
   -6.4450    1.9141    2.9738 H   0  0  0  0  0  0  0  0  0  0  0  0
   -3.3102    0.7042   -0.6818 H   0  0  0  0  0  0  0  0  0  0  0  0
   -6.9276    0.8300   -3.8394 H   0  0  0  0  0  0  0  0  0  0  0  0
   -8.5123    0.4146   -3.1439 H   0  0  0  0  0  0  0  0  0  0  0  0
   -8.0957    2.1143   -3.4454 H   0  0  0  0  0  0  0  0  0  0  0  0
   -9.5940    2.2367    1.1692 H   0  0  0  0  0  0  0  0  0  0  0  0
   -8.2674    3.0574    2.0017 H   0  0  0  0  0  0  0  0  0  0  0  0
   -8.6071    1.3167    2.3101 H   0  0  0  0  0  0  0  0  0  0  0  0
    5.8114   -2.1789   -2.1900 H   0  0  0  0  0  0  0  0  0  0  0  0
    8.1016   -2.6723   -2.9331 H   0  0  0  0  0  0  0  0  0  0  0  0
  1  2  1  0
  2  3  2  0
  3  4  1  0
  4  5  2  0
  5  6  1  0
  6  7  1  0
  7  8  1  0
  8  9  1  0
  9 10  2  0
  9 11  1  0
 11 12  1  0
 12 13  1  0
 13 14  1  0
 14 15  2  0
 14 16  2  0
 14 17  1  0
 17 18  2  0
 18 19  1  0
 19 20  2  0
 20 21  1  0
 21 22  2  0
 21 23  1  0
 23 24  2  0
 23 25  1  0
 25 26  1  0
 25 27  1  0
 27 28  2  0
 27 29  1  0
 29 30  1  0
  5 31  1  0
 31 32  2  0
 32  2  1  0
 22 17  1  0
 29 20  1  0
  1 33  1  0
  1 34  1  0
  1 35  1  0
  3 36  1  0
  4 37  1  0
  6 38  1  0
  6 39  1  0
  7 40  1  0
  7 41  1  0
  8 42  1  0
 11 43  1  0
 11 44  1  0
 12 45  1  0
 12 46  1  0
 13 47  1  0
 18 48  1  0
 19 49  1  0
 22 50  1  0
 26 51  1  0
 26 52  1  0
 26 53  1  0
 30 54  1  0
 30 55  1  0
 30 56  1  0
 31 57  1  0
 32 58  1  0
M  END
$$$$
