
     RDKit          3D

 58 60  0  0  0  0  0  0  0  0999 V2000
    3.3558   -3.7680   -0.9459 C   0  0  0  0  0  0  0  0  0  0  0  0
    3.4294   -2.2758   -1.0500 C   0  0  0  0  0  0  0  0  0  0  0  0
    4.4489   -1.5778   -0.3940 C   0  0  0  0  0  0  0  0  0  0  0  0
    4.5366   -0.1884   -0.4999 C   0  0  0  0  0  0  0  0  0  0  0  0
    3.6035    0.5292   -1.2580 C   0  0  0  0  0  0  0  0  0  0  0  0
    3.7040    2.0290   -1.4044 C   0  0  0  0  0  0  0  0  0  0  0  0
    3.6312    2.8199   -0.0936 C   0  0  0  0  0  0  0  0  0  0  0  0
    2.4246    2.5312    0.6581 N   0  0  0  0  0  0  0  0  0  0  0  0
    2.4615    1.7251    1.7783 C   0  0  0  0  0  0  0  0  0  0  0  0
    3.4945    1.3814    2.3409 O   0  0  0  0  0  0  0  0  0  0  0  0
    1.0935    1.3415    2.2895 C   0  0  0  0  0  0  0  0  0  0  0  0
    1.0731   -0.0919    2.8081 C   0  0  0  0  0  0  0  0  0  0  0  0
    1.0860   -1.0311    1.6814 N   0  0  0  0  0  0  0  0  0  0  0  0
    0.0419   -2.3392    1.6625 S   0  0  0  0  0  6  0  0  0  0  0  0
    0.4285   -3.2091    0.5740 O   0  0  0  0  0  0  0  0  0  0  0  0
   -0.1049   -2.8224    3.0189 O   0  0  0  0  0  0  0  0  0  0  0  0
   -1.4799   -1.5610    1.1790 C   0  0  0  0  0  0  0  0  0  0  0  0
   -2.6263   -1.7232    1.9519 C   0  0  0  0  0  0  0  0  0  0  0  0
   -3.8095   -1.0794    1.5737 C   0  0  0  0  0  0  0  0  0  0  0  0
   -3.8539   -0.2594    0.4314 C   0  0  0  0  0  0  0  0  0  0  0  0
   -2.6889   -0.1063   -0.3230 C   0  0  0  0  0  0  0  0  0  0  0  0
   -1.5005   -0.7564    0.0363 C   0  0  0  0  0  0  0  0  0  0  0  0
   -2.7056    0.7622   -1.5094 C   0  0  0  0  0  0  0  0  0  0  0  0
   -1.6471    0.9945   -2.0941 O   0  0  0  0  0  0  0  0  0  0  0  0
   -3.9334    1.2865   -1.8779 N   0  0  0  0  0  0  0  0  0  0  0  0
   -3.9840    2.1155   -3.0717 C   0  0  0  0  0  0  0  0  0  0  0  0
   -5.0884    1.2168   -1.1045 C   0  0  0  0  0  0  0  0  0  0  0  0
   -6.1052    1.8365   -1.4144 O   0  0  0  0  0  0  0  0  0  0  0  0
   -5.0353    0.4211    0.0366 N   0  0  0  0  0  0  0  0  0  0  0  0
   -6.2444    0.2931    0.8466 C   0  0  0  0  0  0  0  0  0  0  0  0
    2.5806   -0.1727   -1.9088 C   0  0  0  0  0  0  0  0  0  0  0  0
    2.4959   -1.5617   -1.8054 C   0  0  0  0  0  0  0  0  0  0  0  0
    4.2621   -4.2182   -1.3549 H   0  0  0  0  0  0  0  0  0  0  0  0
    2.5072   -4.1696   -1.5068 H   0  0  0  0  0  0  0  0  0  0  0  0
    3.2384   -4.0662    0.0969 H   0  0  0  0  0  0  0  0  0  0  0  0
    5.1920   -2.1134    0.1991 H   0  0  0  0  0  0  0  0  0  0  0  0
    5.3427    0.3276    0.0200 H   0  0  0  0  0  0  0  0  0  0  0  0
    2.9006    2.3827   -2.0620 H   0  0  0  0  0  0  0  0  0  0  0  0
    4.6423    2.2630   -1.9174 H   0  0  0  0  0  0  0  0  0  0  0  0
    3.6085    3.8911   -0.3222 H   0  0  0  0  0  0  0  0  0  0  0  0
    4.5139    2.6304    0.5220 H   0  0  0  0  0  0  0  0  0  0  0  0
    1.5426    2.6392    0.1709 H   0  0  0  0  0  0  0  0  0  0  0  0
    0.3369    1.4782    1.5101 H   0  0  0  0  0  0  0  0  0  0  0  0
    0.8540    2.0322    3.1062 H   0  0  0  0  0  0  0  0  0  0  0  0
    1.9207   -0.3074    3.4707 H   0  0  0  0  0  0  0  0  0  0  0  0
    0.1526   -0.2194    3.3926 H   0  0  0  0  0  0  0  0  0  0  0  0
    1.9462   -1.1490    1.1353 H   0  0  0  0  0  0  0  0  0  0  0  0
   -2.6100   -2.3447    2.8434 H   0  0  0  0  0  0  0  0  0  0  0  0
   -4.6875   -1.2416    2.1981 H   0  0  0  0  0  0  0  0  0  0  0  0
   -0.5975   -0.6328   -0.5638 H   0  0  0  0  0  0  0  0  0  0  0  0
   -4.9459    1.9912   -3.5835 H   0  0  0  0  0  0  0  0  0  0  0  0
   -3.1827    1.8617   -3.7704 H   0  0  0  0  0  0  0  0  0  0  0  0
   -3.8762    3.1643   -2.7692 H   0  0  0  0  0  0  0  0  0  0  0  0
   -6.0497    0.6635    1.8629 H   0  0  0  0  0  0  0  0  0  0  0  0
   -7.0799    0.8625    0.4389 H   0  0  0  0  0  0  0  0  0  0  0  0
   -6.5486   -0.7554    0.8781 H   0  0  0  0  0  0  0  0  0  0  0  0
    1.8400    0.3542   -2.5105 H   0  0  0  0  0  0  0  0  0  0  0  0
    1.6953   -2.0837   -2.3245 H   0  0  0  0  0  0  0  0  0  0  0  0
  1  2  1  0
  2  3  2  0
  3  4  1  0
  4  5  2  0
  5  6  1  0
  6  7  1  0
  7  8  1  0
  8  9  1  0
  9 10  2  0
  9 11  1  0
 11 12  1  0
 12 13  1  0
 13 14  1  0
 14 15  2  0
 14 16  2  0
 14 17  1  0
 17 18  2  0
 18 19  1  0
 19 20  2  0
 20 21  1  0
 21 22  2  0
 21 23  1  0
 23 24  2  0
 23 25  1  0
 25 26  1  0
 25 27  1  0
 27 28  2  0
 27 29  1  0
 29 30  1  0
  5 31  1  0
 31 32  2  0
 32  2  1  0
 22 17  1  0
 29 20  1  0
  1 33  1  0
  1 34  1  0
  1 35  1  0
  3 36  1  0
  4 37  1  0
  6 38  1  0
  6 39  1  0
  7 40  1  0
  7 41  1  0
  8 42  1  0
 11 43  1  0
 11 44  1  0
 12 45  1  0
 12 46  1  0
 13 47  1  0
 18 48  1  0
 19 49  1  0
 22 50  1  0
 26 51  1  0
 26 52  1  0
 26 53  1  0
 30 54  1  0
 30 55  1  0
 30 56  1  0
 31 57  1  0
 32 58  1  0
M  END
$$$$
