
     RDKit          3D

 39 41  0  0  0  0  0  0  0  0999 V2000
    1.7442    0.1804   -3.0504 O   0  0  0  0  0  0  0  0  0  0  0  0
    1.5437    0.1223   -1.8412 C   0  0  0  0  0  0  0  0  0  0  0  0
    2.6632    0.0895   -0.8600 C   0  0  0  0  0  0  0  0  0  0  0  0
    3.9198   -0.0830   -1.2985 C   0  0  0  0  0  0  0  0  0  0  0  0
    5.0989   -0.0988   -0.4235 C   0  0  0  0  0  0  0  0  0  0  0  0
    6.2910    0.4731   -0.8889 C   0  0  0  0  0  0  0  0  0  0  0  0
    7.4447    0.4591   -0.0996 C   0  0  0  0  0  0  0  0  0  0  0  0
    7.4135   -0.1394    1.1572 C   0  0  0  0  0  0  0  0  0  0  0  0
    8.9719   -0.1615    2.2263 Br  0  0  0  0  0  0  0  0  0  0  0  0
    6.2423   -0.7275    1.6288 C   0  0  0  0  0  0  0  0  0  0  0  0
    5.0896   -0.7113    0.8373 C   0  0  0  0  0  0  0  0  0  0  0  0
    0.1507    0.1243   -1.3180 C   0  0  0  0  0  0  0  0  0  0  0  0
   -0.8473    0.7116   -2.1032 C   0  0  0  0  0  0  0  0  0  0  0  0
   -2.1737    0.7348   -1.6601 C   0  0  0  0  0  0  0  0  0  0  0  0
   -2.5262    0.1646   -0.4313 C   0  0  0  0  0  0  0  0  0  0  0  0
   -3.8805    0.2317   -0.0591 N   0  0  0  0  0  0  0  0  0  0  0  0
   -4.4819   -0.2415    1.0942 C   0  0  0  0  0  0  0  0  0  0  0  0
   -3.9062   -0.8135    2.0139 O   0  0  0  0  0  0  0  0  0  0  0  0
   -5.9121    0.0126    1.1196 C   0  0  0  0  0  0  0  0  0  0  0  0
   -6.8740   -0.2893    2.0651 C   0  0  0  0  0  0  0  0  0  0  0  0
   -8.1057    0.1956    1.5645 C   0  0  0  0  0  0  0  0  0  0  0  0
   -7.8258    0.7645    0.3450 C   0  0  0  0  0  0  0  0  0  0  0  0
   -6.5014    0.6614    0.0624 O   0  0  0  0  0  0  0  0  0  0  0  0
   -1.5313   -0.4367    0.3419 C   0  0  0  0  0  0  0  0  0  0  0  0
   -0.2007   -0.4627   -0.0985 C   0  0  0  0  0  0  0  0  0  0  0  0
    2.4396    0.2456    0.1870 H   0  0  0  0  0  0  0  0  0  0  0  0
    4.1173   -0.1956   -2.3640 H   0  0  0  0  0  0  0  0  0  0  0  0
    6.3297    0.9432   -1.8699 H   0  0  0  0  0  0  0  0  0  0  0  0
    8.3567    0.9146   -0.4761 H   0  0  0  0  0  0  0  0  0  0  0  0
    6.2160   -1.2058    2.6043 H   0  0  0  0  0  0  0  0  0  0  0  0
    4.1921   -1.1952    1.2145 H   0  0  0  0  0  0  0  0  0  0  0  0
   -0.5958    1.1558   -3.0650 H   0  0  0  0  0  0  0  0  0  0  0  0
   -2.9232    1.2034   -2.2935 H   0  0  0  0  0  0  0  0  0  0  0  0
   -4.5171    0.6843   -0.7073 H   0  0  0  0  0  0  0  0  0  0  0  0
   -6.6929   -0.8003    3.0015 H   0  0  0  0  0  0  0  0  0  0  0  0
   -9.0778    0.1374    2.0344 H   0  0  0  0  0  0  0  0  0  0  0  0
   -8.4281    1.2588   -0.4052 H   0  0  0  0  0  0  0  0  0  0  0  0
   -1.7564   -0.9074    1.2945 H   0  0  0  0  0  0  0  0  0  0  0  0
    0.5331   -0.9702    0.5212 H   0  0  0  0  0  0  0  0  0  0  0  0
  1  2  2  0
  2  3  1  0
  3  4  2  3
  4  5  1  0
  5  6  2  0
  6  7  1  0
  7  8  2  0
  8  9  1  0
  8 10  1  0
 10 11  2  0
  2 12  1  0
 12 13  2  0
 13 14  1  0
 14 15  2  0
 15 16  1  0
 16 17  1  0
 17 18  2  0
 17 19  1  0
 19 20  2  0
 20 21  1  0
 21 22  2  0
 22 23  1  0
 15 24  1  0
 24 25  2  0
 11  5  1  0
 25 12  1  0
 23 19  1  0
  3 26  1  0
  4 27  1  0
  6 28  1  0
  7 29  1  0
 10 30  1  0
 11 31  1  0
 13 32  1  0
 14 33  1  0
 16 34  1  0
 20 35  1  0
 21 36  1  0
 22 37  1  0
 24 38  1  0
 25 39  1  0
M  END
$$$$
