
     RDKit          3D

 59 62  0  0  0  0  0  0  0  0999 V2000
    8.0791    0.6649    2.9970 C   0  0  0  0  0  0  0  0  0  0  0  0
    7.3820   -0.5693    3.1188 O   0  0  0  0  0  0  0  0  0  0  0  0
    6.1632   -0.6542    2.5021 C   0  0  0  0  0  0  0  0  0  0  0  0
    5.4682   -1.8434    2.7515 C   0  0  0  0  0  0  0  0  0  0  0  0
    4.2082   -2.0682    2.1896 C   0  0  0  0  0  0  0  0  0  0  0  0
    3.6359   -1.1025    1.3612 C   0  0  0  0  0  0  0  0  0  0  0  0
    2.3185   -1.2931    0.7573 C   0  0  0  0  0  0  0  0  0  0  0  0
    1.7802   -0.3595   -0.0489 C   0  0  0  0  0  0  0  0  0  0  0  0
    0.4264   -0.4502   -0.6964 C   0  0  0  0  0  0  0  0  0  0  0  0
   -0.5432   -1.1684    0.1661 N   0  0  0  0  0  0  0  0  0  0  0  0
   -1.2578   -2.2939   -0.4895 C   0  0  0  0  0  0  0  0  0  0  0  0
   -2.4357   -1.8729   -1.3807 C   0  0  0  0  0  0  0  0  0  0  0  0
   -3.0068   -3.0436   -2.1748 C   0  0  0  0  0  0  0  0  0  0  0  0
   -2.2673   -2.9519   -3.4876 C   0  0  0  0  0  0  0  0  0  0  0  0
   -2.1344   -1.4567   -3.6671 C   0  0  0  0  0  0  0  0  0  0  0  0
   -2.0020   -0.8994   -2.3523 O   0  0  0  0  0  0  0  0  0  0  0  0
   -1.2695   -0.3372    1.4462 S   0  0  0  0  0  6  0  0  0  0  0  0
   -0.2429    0.3740    2.1759 O   0  0  0  0  0  0  0  0  0  0  0  0
   -2.1370   -1.2772    2.1290 O   0  0  0  0  0  0  0  0  0  0  0  0
   -2.3186    0.9099    0.7196 C   0  0  0  0  0  0  0  0  0  0  0  0
   -3.7080    0.7468    0.7291 C   0  0  0  0  0  0  0  0  0  0  0  0
   -4.5360    1.7547    0.2224 C   0  0  0  0  0  0  0  0  0  0  0  0
   -3.9793    2.9401   -0.2742 C   0  0  0  0  0  0  0  0  0  0  0  0
   -4.8205    4.0463   -0.8240 C   0  0  0  0  0  0  0  0  0  0  0  0
   -6.3183    3.8819   -0.8514 C   0  0  0  0  0  0  0  0  0  0  0  0
   -4.2879    5.0748   -1.2379 O   0  0  0  0  0  0  0  0  0  0  0  0
   -2.5878    3.1120   -0.2425 C   0  0  0  0  0  0  0  0  0  0  0  0
   -1.7595    2.1094    0.2699 C   0  0  0  0  0  0  0  0  0  0  0  0
    2.5403    0.8956   -0.3325 C   0  0  0  0  0  0  0  0  0  0  0  0
    2.0950    1.7651   -1.0788 O   0  0  0  0  0  0  0  0  0  0  0  0
    3.7644    1.0405    0.2630 N   0  0  0  0  0  0  0  0  0  0  0  0
    4.3365    0.0814    1.1057 C   0  0  0  0  0  0  0  0  0  0  0  0
    5.5936    0.3131    1.6710 C   0  0  0  0  0  0  0  0  0  0  0  0
    9.0082    0.5827    3.5697 H   0  0  0  0  0  0  0  0  0  0  0  0
    7.4969    1.4901    3.4217 H   0  0  0  0  0  0  0  0  0  0  0  0
    8.3496    0.8650    1.9546 H   0  0  0  0  0  0  0  0  0  0  0  0
    5.9120   -2.6002    3.3951 H   0  0  0  0  0  0  0  0  0  0  0  0
    3.6869   -2.9973    2.4082 H   0  0  0  0  0  0  0  0  0  0  0  0
    1.7799   -2.2068    0.9939 H   0  0  0  0  0  0  0  0  0  0  0  0
    0.5574   -0.9759   -1.6514 H   0  0  0  0  0  0  0  0  0  0  0  0
    0.0206    0.5273   -0.9627 H   0  0  0  0  0  0  0  0  0  0  0  0
   -0.5203   -2.8546   -1.0798 H   0  0  0  0  0  0  0  0  0  0  0  0
   -1.6011   -2.9974    0.2785 H   0  0  0  0  0  0  0  0  0  0  0  0
   -3.2242   -1.4288   -0.7712 H   0  0  0  0  0  0  0  0  0  0  0  0
   -2.8998   -4.0132   -1.6790 H   0  0  0  0  0  0  0  0  0  0  0  0
   -4.0765   -2.8755   -2.3516 H   0  0  0  0  0  0  0  0  0  0  0  0
   -1.2767   -3.4099   -3.3899 H   0  0  0  0  0  0  0  0  0  0  0  0
   -2.7865   -3.4388   -4.3177 H   0  0  0  0  0  0  0  0  0  0  0  0
   -3.0315   -1.0264   -4.1234 H   0  0  0  0  0  0  0  0  0  0  0  0
   -1.2668   -1.1812   -4.2728 H   0  0  0  0  0  0  0  0  0  0  0  0
   -4.1575   -0.1565    1.1378 H   0  0  0  0  0  0  0  0  0  0  0  0
   -5.6102    1.5906    0.2352 H   0  0  0  0  0  0  0  0  0  0  0  0
   -6.7067    3.8033    0.1683 H   0  0  0  0  0  0  0  0  0  0  0  0
   -6.5950    3.0064   -1.4466 H   0  0  0  0  0  0  0  0  0  0  0  0
   -6.7685    4.7638   -1.3229 H   0  0  0  0  0  0  0  0  0  0  0  0
   -2.1395    4.0349   -0.6079 H   0  0  0  0  0  0  0  0  0  0  0  0
   -0.6862    2.2811    0.3181 H   0  0  0  0  0  0  0  0  0  0  0  0
    4.2504    1.9059    0.0674 H   0  0  0  0  0  0  0  0  0  0  0  0
    6.1064    1.2423    1.4545 H   0  0  0  0  0  0  0  0  0  0  0  0
  1  2  1  0
  2  3  1  0
  3  4  2  0
  4  5  1  0
  5  6  2  0
  6  7  1  0
  7  8  2  0
  8  9  1  0
  9 10  1  0
 10 11  1  0
 11 12  1  0
 12 13  1  0
 13 14  1  0
 14 15  1  0
 15 16  1  0
 10 17  1  0
 17 18  2  0
 17 19  2  0
 17 20  1  0
 20 21  2  0
 21 22  1  0
 22 23  2  0
 23 24  1  0
 24 25  1  0
 24 26  2  0
 23 27  1  0
 27 28  2  0
  8 29  1  0
 29 30  2  0
 29 31  1  0
 31 32  1  0
 32 33  2  0
 33  3  1  0
 32  6  1  0
 16 12  1  0
 28 20  1  0
  1 34  1  0
  1 35  1  0
  1 36  1  0
  4 37  1  0
  5 38  1  0
  7 39  1  0
  9 40  1  0
  9 41  1  0
 11 42  1  0
 11 43  1  0
 12 44  1  0
 13 45  1  0
 13 46  1  0
 14 47  1  0
 14 48  1  0
 15 49  1  0
 15 50  1  0
 21 51  1  0
 22 52  1  0
 25 53  1  0
 25 54  1  0
 25 55  1  0
 27 56  1  0
 28 57  1  0
 31 58  1  0
 33 59  1  0
M  END
$$$$
