
     RDKit          3D

 63 67  0  0  0  0  0  0  0  0999 V2000
    5.7930    1.9960   -4.5231 C   0  0  0  0  0  0  0  0  0  0  0  0
    6.3398    1.8304   -3.1193 C   0  0  0  0  0  0  0  0  0  0  0  0
    5.3342    1.1959   -2.3218 O   0  0  0  0  0  0  0  0  0  0  0  0
    5.6841    1.0299   -1.0122 C   0  0  0  0  0  0  0  0  0  0  0  0
    6.7470    1.3968   -0.5270 O   0  0  0  0  0  0  0  0  0  0  0  0
    4.6369    0.3712   -0.2425 C   0  0  0  0  0  0  0  0  0  0  0  0
    3.3684   -0.1074   -0.6796 C   0  0  0  0  0  0  0  0  0  0  0  0
    2.7042   -0.6360    0.4128 C   0  0  0  0  0  0  0  0  0  0  0  0
    1.3905   -1.2468    0.5452 C   0  0  0  0  0  0  0  0  0  0  0  0
    0.4823   -1.2988   -0.5131 N   0  0  0  0  0  0  0  0  0  0  0  0
    0.0175   -0.0278   -1.1025 C   0  0  0  0  0  0  0  0  0  0  0  0
   -1.2493    0.4978   -0.3835 C   0  0  0  0  0  0  0  0  0  0  0  0
   -2.3725   -0.4656   -0.2784 N   0  0  0  0  0  0  0  0  0  0  0  0
   -3.0711   -0.6774   -1.5556 C   0  0  0  0  0  0  0  0  0  0  0  0
   -4.0653    0.4530   -1.9046 C   0  0  0  0  0  0  0  0  0  0  0  0
   -5.2587    0.5539   -0.9703 C   0  0  0  0  0  0  0  0  0  0  0  0
   -6.1754   -0.5162   -0.9467 C   0  0  0  0  0  0  0  0  0  0  0  0
   -7.2923   -0.4936   -0.1129 C   0  0  0  0  0  0  0  0  0  0  0  0
   -7.5185    0.5997    0.7120 C   0  0  0  0  0  0  0  0  0  0  0  0
   -6.6312    1.6748    0.6952 C   0  0  0  0  0  0  0  0  0  0  0  0
   -5.4973    1.6762   -0.1432 C   0  0  0  0  0  0  0  0  0  0  0  0
   -4.5963    2.8910   -0.1325 C   0  0  0  0  0  0  0  0  0  0  0  0
   -5.0436    3.8910    0.6834 F   0  0  0  0  0  0  0  0  0  0  0  0
   -4.4753    3.4668   -1.3641 F   0  0  0  0  0  0  0  0  0  0  0  0
   -3.3281    2.6292    0.2846 F   0  0  0  0  0  0  0  0  0  0  0  0
   -1.8459   -1.7355    0.2800 C   0  0  0  0  0  0  0  0  0  0  0  0
   -0.6072   -2.2957   -0.4531 C   0  0  0  0  0  0  0  0  0  0  0  0
    1.0646   -1.7775    1.6962 N   0  0  0  0  0  0  0  0  0  0  0  0
    1.9399   -1.7036    2.7972 C   0  0  0  0  0  0  0  0  0  0  0  0
    1.5288   -2.2584    4.0100 C   0  0  0  0  0  0  0  0  0  0  0  0
    2.3532   -2.2022    5.1369 C   0  0  0  0  0  0  0  0  0  0  0  0
    3.6038   -1.5872    5.0600 C   0  0  0  0  0  0  0  0  0  0  0  0
    4.0351   -1.0248    3.8582 C   0  0  0  0  0  0  0  0  0  0  0  0
    3.1984   -1.0879    2.7401 C   0  0  0  0  0  0  0  0  0  0  0  0
    3.5549   -0.5554    1.4913 N   0  0  0  0  0  0  0  0  0  0  0  0
    4.7102    0.0798    1.1109 C   0  0  0  0  0  0  0  0  0  0  0  0
    6.5335    2.4644   -5.1774 H   0  0  0  0  0  0  0  0  0  0  0  0
    4.8891    2.6141   -4.5131 H   0  0  0  0  0  0  0  0  0  0  0  0
    5.5099    1.0257   -4.9438 H   0  0  0  0  0  0  0  0  0  0  0  0
    7.2384    1.2033   -3.1446 H   0  0  0  0  0  0  0  0  0  0  0  0
    6.5864    2.8135   -2.7020 H   0  0  0  0  0  0  0  0  0  0  0  0
    2.9834   -0.0669   -1.6899 H   0  0  0  0  0  0  0  0  0  0  0  0
   -0.1918   -0.1918   -2.1652 H   0  0  0  0  0  0  0  0  0  0  0  0
    0.7881    0.7475   -1.0589 H   0  0  0  0  0  0  0  0  0  0  0  0
   -0.9721    0.7930    0.6367 H   0  0  0  0  0  0  0  0  0  0  0  0
   -1.5743    1.4193   -0.8767 H   0  0  0  0  0  0  0  0  0  0  0  0
   -2.3615   -0.7912   -2.3837 H   0  0  0  0  0  0  0  0  0  0  0  0
   -3.6330   -1.6194   -1.5157 H   0  0  0  0  0  0  0  0  0  0  0  0
   -4.4574    0.2672   -2.9143 H   0  0  0  0  0  0  0  0  0  0  0  0
   -3.5345    1.4056   -1.9821 H   0  0  0  0  0  0  0  0  0  0  0  0
   -6.0225   -1.3833   -1.5865 H   0  0  0  0  0  0  0  0  0  0  0  0
   -7.9832   -1.3328   -0.1071 H   0  0  0  0  0  0  0  0  0  0  0  0
   -8.3856    0.6208    1.3660 H   0  0  0  0  0  0  0  0  0  0  0  0
   -6.8326    2.5255    1.3465 H   0  0  0  0  0  0  0  0  0  0  0  0
   -2.6368   -2.4958    0.2975 H   0  0  0  0  0  0  0  0  0  0  0  0
   -1.5973   -1.5540    1.3327 H   0  0  0  0  0  0  0  0  0  0  0  0
   -0.8782   -2.5757   -1.4781 H   0  0  0  0  0  0  0  0  0  0  0  0
   -0.2658   -3.2194    0.0296 H   0  0  0  0  0  0  0  0  0  0  0  0
    0.5544   -2.7350    4.0750 H   0  0  0  0  0  0  0  0  0  0  0  0
    2.0154   -2.6396    6.0734 H   0  0  0  0  0  0  0  0  0  0  0  0
    4.2438   -1.5466    5.9380 H   0  0  0  0  0  0  0  0  0  0  0  0
    5.0119   -0.5544    3.8225 H   0  0  0  0  0  0  0  0  0  0  0  0
    5.5135    0.2703    1.8098 H   0  0  0  0  0  0  0  0  0  0  0  0
  1  2  1  0
  2  3  1  0
  3  4  1  0
  4  5  2  0
  4  6  1  0
  6  7  1  0
  7  8  2  0
  8  9  1  0
  9 10  1  0
 10 11  1  0
 11 12  1  0
 12 13  1  0
 13 14  1  0
 14 15  1  0
 15 16  1  0
 16 17  2  0
 17 18  1  0
 18 19  2  0
 19 20  1  0
 20 21  2  0
 21 22  1  0
 22 23  1  0
 22 24  1  0
 22 25  1  0
 13 26  1  0
 26 27  1  0
  9 28  2  0
 28 29  1  0
 29 30  2  0
 30 31  1  0
 31 32  2  0
 32 33  1  0
 33 34  2  0
 34 35  1  0
 35 36  1  0
 36  6  2  0
 35  8  1  0
 27 10  1  0
 34 29  1  0
 21 16  1  0
  1 37  1  0
  1 38  1  0
  1 39  1  0
  2 40  1  0
  2 41  1  0
  7 42  1  0
 11 43  1  0
 11 44  1  0
 12 45  1  0
 12 46  1  0
 14 47  1  0
 14 48  1  0
 15 49  1  0
 15 50  1  0
 17 51  1  0
 18 52  1  0
 19 53  1  0
 20 54  1  0
 26 55  1  0
 26 56  1  0
 27 57  1  0
 27 58  1  0
 30 59  1  0
 31 60  1  0
 32 61  1  0
 33 62  1  0
 36 63  1  0
M  END
$$$$
