
     RDKit          3D

 72 77  0  0  0  0  0  0  0  0999 V2000
   -3.5730   -1.7265    1.8132 O   0  0  0  0  0  0  0  0  0  0  0  0
   -3.4720   -1.1631    0.7182 C   0  0  0  0  0  0  0  0  0  0  0  0
   -4.7160   -0.6434   -0.0458 C   0  0  0  0  0  0  0  0  0  0  0  0
   -5.9683   -1.4857    0.2166 C   0  0  0  0  0  0  0  0  0  0  0  0
   -6.4474   -2.3571   -0.7773 C   0  0  0  0  0  0  0  0  0  0  0  0
   -7.5914   -3.1285   -0.5601 C   0  0  0  0  0  0  0  0  0  0  0  0
   -8.2712   -3.0434    0.6521 C   0  0  0  0  0  0  0  0  0  0  0  0
   -7.8060   -2.1911    1.6505 C   0  0  0  0  0  0  0  0  0  0  0  0
   -6.6615   -1.4200    1.4363 C   0  0  0  0  0  0  0  0  0  0  0  0
   -4.9631    0.8545    0.1518 C   0  0  0  0  0  0  0  0  0  0  0  0
   -5.5799    1.5925   -0.8733 C   0  0  0  0  0  0  0  0  0  0  0  0
   -5.8130    2.9608   -0.7273 C   0  0  0  0  0  0  0  0  0  0  0  0
   -5.4418    3.6097    0.4469 C   0  0  0  0  0  0  0  0  0  0  0  0
   -4.8465    2.8898    1.4800 C   0  0  0  0  0  0  0  0  0  0  0  0
   -4.6134    1.5209    1.3375 C   0  0  0  0  0  0  0  0  0  0  0  0
   -2.2110   -0.9755    0.1301 N   0  0  0  0  0  0  0  0  0  0  0  0
   -1.9315    0.0971   -0.8325 C   0  0  0  0  0  0  0  0  0  0  0  0
   -0.6270   -0.1279   -1.6232 C   0  0  0  0  0  0  0  0  0  0  0  0
    0.5305   -0.3923   -0.7418 N   0  0  0  0  0  0  0  0  0  0  0  0
    1.7589   -0.6425   -1.5246 C   0  0  0  0  0  0  0  0  0  0  0  0
    2.3410    0.5922   -2.2486 C   0  0  0  0  0  0  0  0  0  0  0  0
    3.5673    0.2156   -2.8918 O   0  0  0  0  0  0  0  0  0  0  0  0
    2.5400    1.8267   -1.3429 C   0  0  0  0  0  0  0  0  0  0  0  0
    3.1383    1.5124   -0.0522 N   0  0  0  0  0  0  0  0  0  0  0  0
    4.4401    1.1095    0.1226 C   0  0  0  0  0  0  0  0  0  0  0  0
    5.2695    1.1576   -0.8867 N   0  0  0  0  0  0  0  0  0  0  0  0
    6.6092    0.7444   -0.7222 C   0  0  0  0  0  0  0  0  0  0  0  0
    7.4653    0.8213   -1.8225 C   0  0  0  0  0  0  0  0  0  0  0  0
    8.7999    0.4209   -1.7161 C   0  0  0  0  0  0  0  0  0  0  0  0
    9.2923   -0.0621   -0.5030 C   0  0  0  0  0  0  0  0  0  0  0  0
    8.4545   -0.1492    0.6098 C   0  0  0  0  0  0  0  0  0  0  0  0
    7.1217    0.2539    0.4887 C   0  0  0  0  0  0  0  0  0  0  0  0
    6.2100    0.1965    1.5555 N   0  0  0  0  0  0  0  0  0  0  0  0
    6.3936   -0.2353    2.8475 C   0  0  0  0  0  0  0  0  0  0  0  0
    5.1996   -0.0941    3.5221 C   0  0  0  0  0  0  0  0  0  0  0  0
    4.2600    0.4412    2.6092 C   0  0  0  0  0  0  0  0  0  0  0  0
    4.9059    0.6079    1.3980 C   0  0  0  0  0  0  0  0  0  0  0  0
    0.2212   -1.5747    0.0955 C   0  0  0  0  0  0  0  0  0  0  0  0
   -1.0543   -1.3802    0.9331 C   0  0  0  0  0  0  0  0  0  0  0  0
   -4.4870   -0.7887   -1.1100 H   0  0  0  0  0  0  0  0  0  0  0  0
   -5.9340   -2.4457   -1.7319 H   0  0  0  0  0  0  0  0  0  0  0  0
   -7.9505   -3.7982   -1.3371 H   0  0  0  0  0  0  0  0  0  0  0  0
   -9.1592   -3.6461    0.8220 H   0  0  0  0  0  0  0  0  0  0  0  0
   -8.3289   -2.1292    2.6010 H   0  0  0  0  0  0  0  0  0  0  0  0
   -6.3082   -0.7737    2.2371 H   0  0  0  0  0  0  0  0  0  0  0  0
   -5.8910    1.1011   -1.7927 H   0  0  0  0  0  0  0  0  0  0  0  0
   -6.2912    3.5190   -1.5281 H   0  0  0  0  0  0  0  0  0  0  0  0
   -5.6272    4.6740    0.5622 H   0  0  0  0  0  0  0  0  0  0  0  0
   -4.5686    3.3923    2.4024 H   0  0  0  0  0  0  0  0  0  0  0  0
   -4.1608    0.9820    2.1684 H   0  0  0  0  0  0  0  0  0  0  0  0
   -1.8668    1.0328   -0.2634 H   0  0  0  0  0  0  0  0  0  0  0  0
   -2.7495    0.2042   -1.5467 H   0  0  0  0  0  0  0  0  0  0  0  0
   -0.4482    0.7693   -2.2257 H   0  0  0  0  0  0  0  0  0  0  0  0
   -0.7732   -0.9659   -2.3176 H   0  0  0  0  0  0  0  0  0  0  0  0
    2.5399   -1.0329   -0.8582 H   0  0  0  0  0  0  0  0  0  0  0  0
    1.5975   -1.4428   -2.2605 H   0  0  0  0  0  0  0  0  0  0  0  0
    1.6704    0.8803   -3.0652 H   0  0  0  0  0  0  0  0  0  0  0  0
    4.2963    0.4509   -2.2749 H   0  0  0  0  0  0  0  0  0  0  0  0
    3.1544    2.5755   -1.8569 H   0  0  0  0  0  0  0  0  0  0  0  0
    1.5667    2.2919   -1.1507 H   0  0  0  0  0  0  0  0  0  0  0  0
    2.4711    1.1499    0.6219 H   0  0  0  0  0  0  0  0  0  0  0  0
    7.0877    1.1970   -2.7703 H   0  0  0  0  0  0  0  0  0  0  0  0
    9.4542    0.4875   -2.5820 H   0  0  0  0  0  0  0  0  0  0  0  0
   10.3320   -0.3715   -0.4267 H   0  0  0  0  0  0  0  0  0  0  0  0
    8.8604   -0.5277    1.5420 H   0  0  0  0  0  0  0  0  0  0  0  0
    7.3476   -0.6048    3.1943 H   0  0  0  0  0  0  0  0  0  0  0  0
    5.0269   -0.3457    4.5609 H   0  0  0  0  0  0  0  0  0  0  0  0
    3.2259    0.6804    2.8187 H   0  0  0  0  0  0  0  0  0  0  0  0
    1.0533   -1.7682    0.7833 H   0  0  0  0  0  0  0  0  0  0  0  0
    0.1019   -2.4651   -0.5362 H   0  0  0  0  0  0  0  0  0  0  0  0
   -0.8945   -0.6014    1.6898 H   0  0  0  0  0  0  0  0  0  0  0  0
   -1.2782   -2.3131    1.4632 H   0  0  0  0  0  0  0  0  0  0  0  0
  1  2  2  0
  2  3  1  0
  3  4  1  0
  4  5  2  0
  5  6  1  0
  6  7  2  0
  7  8  1  0
  8  9  2  0
  3 10  1  0
 10 11  2  0
 11 12  1  0
 12 13  2  0
 13 14  1  0
 14 15  2  0
  2 16  1  0
 16 17  1  0
 17 18  1  0
 18 19  1  0
 19 20  1  0
 20 21  1  0
 21 22  1  0
 21 23  1  0
 23 24  1  0
 24 25  1  0
 25 26  2  0
 26 27  1  0
 27 28  2  0
 28 29  1  0
 29 30  2  0
 30 31  1  0
 31 32  2  0
 32 33  1  0
 33 34  1  0
 34 35  2  0
 35 36  1  0
 36 37  2  0
 19 38  1  0
 38 39  1  0
  9  4  1  0
 15 10  1  0
 39 16  1  0
 37 25  1  0
 32 27  1  0
 37 33  1  0
  3 40  1  0
  5 41  1  0
  6 42  1  0
  7 43  1  0
  8 44  1  0
  9 45  1  0
 11 46  1  0
 12 47  1  0
 13 48  1  0
 14 49  1  0
 15 50  1  0
 17 51  1  0
 17 52  1  0
 18 53  1  0
 18 54  1  0
 20 55  1  0
 20 56  1  0
 21 57  1  0
 22 58  1  0
 23 59  1  0
 23 60  1  0
 24 61  1  0
 28 62  1  0
 29 63  1  0
 30 64  1  0
 31 65  1  0
 34 66  1  0
 35 67  1  0
 36 68  1  0
 38 69  1  0
 38 70  1  0
 39 71  1  0
 39 72  1  0
M  END
$$$$
