
     RDKit          3D

 59 62  0  0  0  0  0  0  0  0999 V2000
   -3.5466   -0.5613    0.8860 C   0  0  0  0  0  0  0  0  0  0  0  0
   -2.8265   -0.4339   -0.3463 O   0  0  0  0  0  0  0  0  0  0  0  0
   -3.6493    0.0705   -1.3269 C   0  0  0  0  0  0  0  0  0  0  0  0
   -4.2442   -0.8442   -2.2154 C   0  0  0  0  0  0  0  0  0  0  0  0
   -4.0044   -2.3216   -2.0957 C   0  0  0  0  0  0  0  0  0  0  0  0
   -5.1160   -0.3611   -3.2004 C   0  0  0  0  0  0  0  0  0  0  0  0
   -5.3605    1.0061   -3.3134 C   0  0  0  0  0  0  0  0  0  0  0  0
   -6.5408    1.6342   -4.6485 Br  0  0  0  0  0  0  0  0  0  0  0  0
   -4.7331    1.9127   -2.4636 C   0  0  0  0  0  0  0  0  0  0  0  0
   -3.8525    1.4548   -1.4742 C   0  0  0  0  0  0  0  0  0  0  0  0
   -3.1767    2.4909   -0.6328 C   0  0  0  0  0  0  0  0  0  0  0  0
   -3.7353    3.5702   -0.4772 O   0  0  0  0  0  0  0  0  0  0  0  0
   -1.9516    2.1272   -0.1280 N   0  0  0  0  0  0  0  0  0  0  0  0
   -1.0706    2.8592    0.6923 C   0  0  0  0  0  0  0  0  0  0  0  0
   -1.3398    4.1392    1.1754 C   0  0  0  0  0  0  0  0  0  0  0  0
   -0.4194    4.7769    2.0094 C   0  0  0  0  0  0  0  0  0  0  0  0
    0.7699    4.1402    2.3604 C   0  0  0  0  0  0  0  0  0  0  0  0
    1.0492    2.8610    1.8755 C   0  0  0  0  0  0  0  0  0  0  0  0
    0.1387    2.2018    1.0373 C   0  0  0  0  0  0  0  0  0  0  0  0
    0.3995    0.9245    0.4855 N   0  0  0  0  0  0  0  0  0  0  0  0
    0.8839   -0.1151    1.4202 C   0  0  0  0  0  0  0  0  0  0  0  0
    2.3340   -0.5545    1.1426 C   0  0  0  0  0  0  0  0  0  0  0  0
    2.5550   -0.9443   -0.2588 N   0  0  0  0  0  0  0  0  0  0  0  0
    3.3805   -1.9799   -0.6780 C   0  0  0  0  0  0  0  0  0  0  0  0
    3.3252   -2.4626   -1.8073 O   0  0  0  0  0  0  0  0  0  0  0  0
    4.3769   -2.5366    0.2672 C   0  0  0  0  0  0  0  0  0  0  0  0
    4.4404   -3.9238    0.4421 C   0  0  0  0  0  0  0  0  0  0  0  0
    5.3859   -4.4686    1.3116 C   0  0  0  0  0  0  0  0  0  0  0  0
    6.2726   -3.6325    1.9925 C   0  0  0  0  0  0  0  0  0  0  0  0
    6.2255   -2.2508    1.7995 C   0  0  0  0  0  0  0  0  0  0  0  0
    5.2836   -1.7004    0.9281 C   0  0  0  0  0  0  0  0  0  0  0  0
    1.6539   -0.3429   -1.2466 C   0  0  0  0  0  0  0  0  0  0  0  0
    1.1383    1.0307   -0.7976 C   0  0  0  0  0  0  0  0  0  0  0  0
   -3.8815    0.4132    1.2600 H   0  0  0  0  0  0  0  0  0  0  0  0
   -2.8653   -0.9914    1.6263 H   0  0  0  0  0  0  0  0  0  0  0  0
   -4.4009   -1.2383    0.7785 H   0  0  0  0  0  0  0  0  0  0  0  0
   -2.9511   -2.5293   -1.8838 H   0  0  0  0  0  0  0  0  0  0  0  0
   -4.6245   -2.7374   -1.2956 H   0  0  0  0  0  0  0  0  0  0  0  0
   -4.2513   -2.8404   -3.0287 H   0  0  0  0  0  0  0  0  0  0  0  0
   -5.6042   -1.0558   -3.8807 H   0  0  0  0  0  0  0  0  0  0  0  0
   -4.9192    2.9794   -2.5705 H   0  0  0  0  0  0  0  0  0  0  0  0
   -1.6082    1.1876   -0.3230 H   0  0  0  0  0  0  0  0  0  0  0  0
   -2.2597    4.6584    0.9240 H   0  0  0  0  0  0  0  0  0  0  0  0
   -0.6356    5.7740    2.3842 H   0  0  0  0  0  0  0  0  0  0  0  0
    1.4837    4.6449    3.0067 H   0  0  0  0  0  0  0  0  0  0  0  0
    1.9930    2.3972    2.1438 H   0  0  0  0  0  0  0  0  0  0  0  0
    0.7761    0.1858    2.4694 H   0  0  0  0  0  0  0  0  0  0  0  0
    0.2307   -0.9861    1.2865 H   0  0  0  0  0  0  0  0  0  0  0  0
    3.0173    0.2766    1.3485 H   0  0  0  0  0  0  0  0  0  0  0  0
    2.5903   -1.3815    1.8105 H   0  0  0  0  0  0  0  0  0  0  0  0
    3.7589   -4.5735   -0.1017 H   0  0  0  0  0  0  0  0  0  0  0  0
    5.4376   -5.5465    1.4512 H   0  0  0  0  0  0  0  0  0  0  0  0
    7.0099   -4.0623    2.6645 H   0  0  0  0  0  0  0  0  0  0  0  0
    6.9283   -1.6050    2.3168 H   0  0  0  0  0  0  0  0  0  0  0  0
    5.2699   -0.6272    0.7546 H   0  0  0  0  0  0  0  0  0  0  0  0
    2.1737   -0.2545   -2.2073 H   0  0  0  0  0  0  0  0  0  0  0  0
    0.8154   -1.0356   -1.3846 H   0  0  0  0  0  0  0  0  0  0  0  0
    0.4782    1.4358   -1.5737 H   0  0  0  0  0  0  0  0  0  0  0  0
    1.9934    1.7104   -0.6910 H   0  0  0  0  0  0  0  0  0  0  0  0
  1  2  1  0
  2  3  1  0
  3  4  2  0
  4  5  1  0
  4  6  1  0
  6  7  2  0
  7  8  1  0
  7  9  1  0
  9 10  2  0
 10 11  1  0
 11 12  2  0
 11 13  1  0
 13 14  1  0
 14 15  2  0
 15 16  1  0
 16 17  2  0
 17 18  1  0
 18 19  2  0
 19 20  1  0
 20 21  1  0
 21 22  1  0
 22 23  1  0
 23 24  1  0
 24 25  2  0
 24 26  1  0
 26 27  2  0
 27 28  1  0
 28 29  2  0
 29 30  1  0
 30 31  2  0
 23 32  1  0
 32 33  1  0
 10  3  1  0
 19 14  1  0
 33 20  1  0
 31 26  1  0
  1 34  1  0
  1 35  1  0
  1 36  1  0
  5 37  1  0
  5 38  1  0
  5 39  1  0
  6 40  1  0
  9 41  1  0
 13 42  1  0
 15 43  1  0
 16 44  1  0
 17 45  1  0
 18 46  1  0
 21 47  1  0
 21 48  1  0
 22 49  1  0
 22 50  1  0
 27 51  1  0
 28 52  1  0
 29 53  1  0
 30 54  1  0
 31 55  1  0
 32 56  1  0
 32 57  1  0
 33 58  1  0
 33 59  1  0
M  END
$$$$
