
     RDKit          3D

 54 58  0  0  0  0  0  0  0  0999 V2000
    3.0807   -1.7183   -2.0521 F   0  0  0  0  0  0  0  0  0  0  0  0
    4.0957   -2.2782   -1.3339 C   0  0  0  0  0  0  0  0  0  0  0  0
    4.7103   -3.1447   -2.1884 F   0  0  0  0  0  0  0  0  0  0  0  0
    3.4954   -3.0562   -0.3900 F   0  0  0  0  0  0  0  0  0  0  0  0
    5.0306   -1.2517   -0.7300 C   0  0  0  0  0  0  0  0  0  0  0  0
    6.4182   -1.3966   -0.9227 C   0  0  0  0  0  0  0  0  0  0  0  0
    7.3201   -0.4830   -0.3779 C   0  0  0  0  0  0  0  0  0  0  0  0
    6.8521    0.5901    0.3715 C   0  0  0  0  0  0  0  0  0  0  0  0
    5.4830    0.7502    0.5792 C   0  0  0  0  0  0  0  0  0  0  0  0
    4.5587   -0.1632    0.0409 C   0  0  0  0  0  0  0  0  0  0  0  0
    3.0811    0.0773    0.2899 C   0  0  0  0  0  0  0  0  0  0  0  0
    2.4933    1.0911   -0.7047 C   0  0  0  0  0  0  0  0  0  0  0  0
    1.0466    1.3120   -0.7036 N   0  0  0  0  0  0  0  0  0  0  0  0
    0.2501    0.2935   -1.4088 C   0  0  0  0  0  0  0  0  0  0  0  0
   -0.2611   -0.8905   -0.5581 C   0  0  0  0  0  0  0  0  0  0  0  0
   -0.9415   -0.4142    0.6613 N   0  0  0  0  0  0  0  0  0  0  0  0
   -2.3080   -0.1408    0.5980 C   0  0  0  0  0  0  0  0  0  0  0  0
   -2.7339    1.0653    0.8777 N   0  0  0  0  0  0  0  0  0  0  0  0
   -4.1029    1.3841    0.7871 C   0  0  0  0  0  0  0  0  0  0  0  0
   -4.4990    2.6921    1.0723 C   0  0  0  0  0  0  0  0  0  0  0  0
   -5.8432    3.0652    0.9881 C   0  0  0  0  0  0  0  0  0  0  0  0
   -6.8079    2.1284    0.6154 C   0  0  0  0  0  0  0  0  0  0  0  0
   -6.4351    0.8154    0.3255 C   0  0  0  0  0  0  0  0  0  0  0  0
   -5.0864    0.4576    0.4132 C   0  0  0  0  0  0  0  0  0  0  0  0
   -4.6253   -0.8422    0.1506 N   0  0  0  0  0  0  0  0  0  0  0  0
   -5.3312   -1.9671   -0.2054 C   0  0  0  0  0  0  0  0  0  0  0  0
   -4.4485   -3.0229   -0.2816 C   0  0  0  0  0  0  0  0  0  0  0  0
   -3.1638   -2.5172    0.0240 C   0  0  0  0  0  0  0  0  0  0  0  0
   -3.2888   -1.1577    0.2504 C   0  0  0  0  0  0  0  0  0  0  0  0
   -0.0766    0.4905    1.4432 C   0  0  0  0  0  0  0  0  0  0  0  0
    0.4438    1.6714    0.5914 C   0  0  0  0  0  0  0  0  0  0  0  0
    6.8071   -2.2312   -1.5056 H   0  0  0  0  0  0  0  0  0  0  0  0
    8.3880   -0.6096   -0.5389 H   0  0  0  0  0  0  0  0  0  0  0  0
    7.5533    1.3045    0.7957 H   0  0  0  0  0  0  0  0  0  0  0  0
    5.1378    1.5986    1.1679 H   0  0  0  0  0  0  0  0  0  0  0  0
    2.5465   -0.8732    0.2532 H   0  0  0  0  0  0  0  0  0  0  0  0
    2.9607    0.4442    1.3169 H   0  0  0  0  0  0  0  0  0  0  0  0
    2.8086    0.8347   -1.7249 H   0  0  0  0  0  0  0  0  0  0  0  0
    2.9682    2.0640   -0.5167 H   0  0  0  0  0  0  0  0  0  0  0  0
   -0.6277    0.8092   -1.8210 H   0  0  0  0  0  0  0  0  0  0  0  0
    0.7934   -0.0909   -2.2804 H   0  0  0  0  0  0  0  0  0  0  0  0
    0.5685   -1.5425   -0.2682 H   0  0  0  0  0  0  0  0  0  0  0  0
   -0.9230   -1.5015   -1.1794 H   0  0  0  0  0  0  0  0  0  0  0  0
   -3.7495    3.4246    1.3598 H   0  0  0  0  0  0  0  0  0  0  0  0
   -6.1348    4.0879    1.2129 H   0  0  0  0  0  0  0  0  0  0  0  0
   -7.8526    2.4234    0.5516 H   0  0  0  0  0  0  0  0  0  0  0  0
   -7.2027    0.1042    0.0399 H   0  0  0  0  0  0  0  0  0  0  0  0
   -6.4001   -1.9443   -0.3594 H   0  0  0  0  0  0  0  0  0  0  0  0
   -4.7059   -4.0470   -0.5197 H   0  0  0  0  0  0  0  0  0  0  0  0
   -2.2433   -3.0836    0.0758 H   0  0  0  0  0  0  0  0  0  0  0  0
    0.7641   -0.0940    1.8316 H   0  0  0  0  0  0  0  0  0  0  0  0
   -0.6049    0.8697    2.3265 H   0  0  0  0  0  0  0  0  0  0  0  0
    1.1409    2.2744    1.1861 H   0  0  0  0  0  0  0  0  0  0  0  0
   -0.3996    2.3386    0.3743 H   0  0  0  0  0  0  0  0  0  0  0  0
  1  2  1  0
  2  3  1  0
  2  4  1  0
  2  5  1  0
  5  6  2  0
  6  7  1  0
  7  8  2  0
  8  9  1  0
  9 10  2  0
 10 11  1  0
 11 12  1  0
 12 13  1  0
 13 14  1  0
 14 15  1  0
 15 16  1  0
 16 17  1  0
 17 18  2  0
 18 19  1  0
 19 20  2  0
 20 21  1  0
 21 22  2  0
 22 23  1  0
 23 24  2  0
 24 25  1  0
 25 26  1  0
 26 27  2  0
 27 28  1  0
 28 29  2  0
 16 30  1  0
 30 31  1  0
 10  5  1  0
 31 13  1  0
 29 17  1  0
 24 19  1  0
 29 25  1  0
  6 32  1  0
  7 33  1  0
  8 34  1  0
  9 35  1  0
 11 36  1  0
 11 37  1  0
 12 38  1  0
 12 39  1  0
 14 40  1  0
 14 41  1  0
 15 42  1  0
 15 43  1  0
 20 44  1  0
 21 45  1  0
 22 46  1  0
 23 47  1  0
 26 48  1  0
 27 49  1  0
 28 50  1  0
 30 51  1  0
 30 52  1  0
 31 53  1  0
 31 54  1  0
M  END
$$$$
