
     RDKit          3D

 46 48  0  0  0  0  0  0  0  0999 V2000
    8.3654   -1.9379    1.2668 C   0  0  0  0  0  0  0  0  0  0  0  0
    8.0912   -0.4460    1.2919 C   0  0  0  0  0  0  0  0  0  0  0  0
    7.0669   -0.1152    0.3424 O   0  0  0  0  0  0  0  0  0  0  0  0
    5.7904   -0.2168    0.7940 C   0  0  0  0  0  0  0  0  0  0  0  0
    5.4580   -0.5619    1.9158 O   0  0  0  0  0  0  0  0  0  0  0  0
    4.8276    0.1500   -0.2827 C   0  0  0  0  0  0  0  0  0  0  0  0
    5.2540    0.5948   -1.5412 C   0  0  0  0  0  0  0  0  0  0  0  0
    4.3169    0.9339   -2.5150 C   0  0  0  0  0  0  0  0  0  0  0  0
    2.9534    0.8281   -2.2365 C   0  0  0  0  0  0  0  0  0  0  0  0
    2.5085    0.3799   -0.9855 C   0  0  0  0  0  0  0  0  0  0  0  0
    1.1120    0.3096   -0.7933 N   0  0  0  0  0  0  0  0  0  0  0  0
    0.4399   -0.1831    0.3107 C   0  0  0  0  0  0  0  0  0  0  0  0
    0.9369   -0.7183    1.2934 O   0  0  0  0  0  0  0  0  0  0  0  0
   -1.0460   -0.0783    0.2421 C   0  0  0  0  0  0  0  0  0  0  0  0
   -1.6867    1.0013   -0.3752 C   0  0  0  0  0  0  0  0  0  0  0  0
   -3.0860    1.0593   -0.4187 C   0  0  0  0  0  0  0  0  0  0  0  0
   -3.8584    0.0504    0.1612 C   0  0  0  0  0  0  0  0  0  0  0  0
   -5.2644    0.0362    0.1595 N   0  0  0  0  0  0  0  0  0  0  0  0
   -6.1349    0.9487   -0.4108 C   0  0  0  0  0  0  0  0  0  0  0  0
   -5.8057    1.9488   -1.0401 O   0  0  0  0  0  0  0  0  0  0  0  0
   -7.5280    0.5986   -0.1933 C   0  0  0  0  0  0  0  0  0  0  0  0
   -8.6964    1.2262   -0.5827 C   0  0  0  0  0  0  0  0  0  0  0  0
   -9.7659    0.4392   -0.0933 C   0  0  0  0  0  0  0  0  0  0  0  0
   -9.1907   -0.6213    0.5652 C   0  0  0  0  0  0  0  0  0  0  0  0
   -7.8360   -0.5384    0.5124 O   0  0  0  0  0  0  0  0  0  0  0  0
   -3.2113   -1.0165    0.7972 C   0  0  0  0  0  0  0  0  0  0  0  0
   -1.8150   -1.0799    0.8420 C   0  0  0  0  0  0  0  0  0  0  0  0
    3.4528    0.0464   -0.0110 C   0  0  0  0  0  0  0  0  0  0  0  0
    8.6279   -2.2632    0.2548 H   0  0  0  0  0  0  0  0  0  0  0  0
    7.4780   -2.5058    1.5635 H   0  0  0  0  0  0  0  0  0  0  0  0
    9.1856   -2.1928    1.9437 H   0  0  0  0  0  0  0  0  0  0  0  0
    8.9924    0.0987    0.9920 H   0  0  0  0  0  0  0  0  0  0  0  0
    7.8287   -0.1024    2.2991 H   0  0  0  0  0  0  0  0  0  0  0  0
    6.3119    0.6847   -1.7752 H   0  0  0  0  0  0  0  0  0  0  0  0
    4.6484    1.2807   -3.4908 H   0  0  0  0  0  0  0  0  0  0  0  0
    2.2443    1.0989   -3.0151 H   0  0  0  0  0  0  0  0  0  0  0  0
    0.5470    0.5868   -1.5851 H   0  0  0  0  0  0  0  0  0  0  0  0
   -1.1206    1.8255   -0.8007 H   0  0  0  0  0  0  0  0  0  0  0  0
   -3.5411    1.9183   -0.9028 H   0  0  0  0  0  0  0  0  0  0  0  0
   -5.7202   -0.7383    0.6314 H   0  0  0  0  0  0  0  0  0  0  0  0
   -8.7541    2.1442   -1.1524 H   0  0  0  0  0  0  0  0  0  0  0  0
  -10.8255    0.6224   -0.2060 H   0  0  0  0  0  0  0  0  0  0  0  0
   -9.5877   -1.4755    1.0967 H   0  0  0  0  0  0  0  0  0  0  0  0
   -3.7810   -1.8131    1.2699 H   0  0  0  0  0  0  0  0  0  0  0  0
   -1.3286   -1.9133    1.3460 H   0  0  0  0  0  0  0  0  0  0  0  0
    3.1463   -0.2938    0.9748 H   0  0  0  0  0  0  0  0  0  0  0  0
  1  2  1  0
  2  3  1  0
  3  4  1  0
  4  5  2  0
  4  6  1  0
  6  7  2  0
  7  8  1  0
  8  9  2  0
  9 10  1  0
 10 11  1  0
 11 12  1  0
 12 13  2  0
 12 14  1  0
 14 15  2  0
 15 16  1  0
 16 17  2  0
 17 18  1  0
 18 19  1  0
 19 20  2  0
 19 21  1  0
 21 22  2  0
 22 23  1  0
 23 24  2  0
 24 25  1  0
 17 26  1  0
 26 27  2  0
 10 28  2  0
 28  6  1  0
 27 14  1  0
 25 21  1  0
  1 29  1  0
  1 30  1  0
  1 31  1  0
  2 32  1  0
  2 33  1  0
  7 34  1  0
  8 35  1  0
  9 36  1  0
 11 37  1  0
 15 38  1  0
 16 39  1  0
 18 40  1  0
 22 41  1  0
 23 42  1  0
 24 43  1  0
 26 44  1  0
 27 45  1  0
 28 46  1  0
M  END
$$$$
