
     RDKit          3D

 51 54  0  0  0  0  0  0  0  0999 V2000
   -6.6232   -0.8970   -2.0924 C   0  0  0  0  0  0  0  0  0  0  0  0
   -6.7220   -0.7592   -0.5806 C   0  0  0  0  0  0  0  0  0  0  0  0
   -5.8832    0.3418   -0.0698 N   0  0  0  0  0  0  0  0  0  0  0  0
   -6.5742    1.6053    0.2273 C   0  0  0  0  0  0  0  0  0  0  0  0
   -6.4670    2.5895   -0.9283 C   0  0  0  0  0  0  0  0  0  0  0  0
   -4.5116    0.1942    0.1281 C   0  0  0  0  0  0  0  0  0  0  0  0
   -3.8402   -1.0187   -0.1244 C   0  0  0  0  0  0  0  0  0  0  0  0
   -2.4580   -1.1835    0.0738 C   0  0  0  0  0  0  0  0  0  0  0  0
   -1.6914   -0.1253    0.5391 C   0  0  0  0  0  0  0  0  0  0  0  0
   -0.2638   -0.2347    0.7827 C   0  0  0  0  0  0  0  0  0  0  0  0
    0.4289    0.8098    1.2567 C   0  0  0  0  0  0  0  0  0  0  0  0
    1.8264    0.6474    1.4942 C   0  0  0  0  0  0  0  0  0  0  0  0
    2.7011    0.1381    0.6415 N   0  0  0  0  0  0  0  0  0  0  0  0
    3.9702    0.0847    1.1967 C   0  0  0  0  0  0  0  0  0  0  0  0
    5.1167   -0.3659    0.4209 C   0  0  0  0  0  0  0  0  0  0  0  0
    6.2017   -1.0223    1.0160 C   0  0  0  0  0  0  0  0  0  0  0  0
    7.3166   -1.4001    0.2508 C   0  0  0  0  0  0  0  0  0  0  0  0
    7.3584   -1.1261   -1.1162 C   0  0  0  0  0  0  0  0  0  0  0  0
    8.3926   -1.4114   -1.9657 O   0  0  0  0  0  0  0  0  0  0  0  0
    9.4925   -2.1264   -1.4184 C   0  0  0  0  0  0  0  0  0  0  0  0
    6.2703   -0.4897   -1.7145 C   0  0  0  0  0  0  0  0  0  0  0  0
    5.1536   -0.1194   -0.9548 C   0  0  0  0  0  0  0  0  0  0  0  0
    4.0518    0.5468    2.4914 C   0  0  0  0  0  0  0  0  0  0  0  0
    2.5026    1.0182    3.0472 S   0  0  0  0  0  0  0  0  0  0  0  0
   -0.2249    2.1228    1.4852 C   0  0  0  0  0  0  0  0  0  0  0  0
    0.3897    3.1207    1.8465 O   0  0  0  0  0  0  0  0  0  0  0  0
   -1.5996    2.1840    1.2593 O   0  0  0  0  0  0  0  0  0  0  0  0
   -2.3282    1.0733    0.7958 C   0  0  0  0  0  0  0  0  0  0  0  0
   -3.7030    1.2405    0.5993 C   0  0  0  0  0  0  0  0  0  0  0  0
   -6.9604    0.0111   -2.5999 H   0  0  0  0  0  0  0  0  0  0  0  0
   -5.5979   -1.1017   -2.4212 H   0  0  0  0  0  0  0  0  0  0  0  0
   -7.2585   -1.7235   -2.4303 H   0  0  0  0  0  0  0  0  0  0  0  0
   -6.4768   -1.7078   -0.0869 H   0  0  0  0  0  0  0  0  0  0  0  0
   -7.7748   -0.5827   -0.3231 H   0  0  0  0  0  0  0  0  0  0  0  0
   -7.6384    1.4199    0.4213 H   0  0  0  0  0  0  0  0  0  0  0  0
   -6.2038    2.0528    1.1571 H   0  0  0  0  0  0  0  0  0  0  0  0
   -5.4271    2.7904   -1.2047 H   0  0  0  0  0  0  0  0  0  0  0  0
   -6.9786    2.2065   -1.8143 H   0  0  0  0  0  0  0  0  0  0  0  0
   -6.9387    3.5397   -0.6560 H   0  0  0  0  0  0  0  0  0  0  0  0
   -4.3794   -1.8874   -0.4878 H   0  0  0  0  0  0  0  0  0  0  0  0
   -2.0056   -2.1443   -0.1464 H   0  0  0  0  0  0  0  0  0  0  0  0
    0.2172   -1.1894    0.5871 H   0  0  0  0  0  0  0  0  0  0  0  0
    6.1990   -1.2491    2.0809 H   0  0  0  0  0  0  0  0  0  0  0  0
    8.1369   -1.8956    0.7579 H   0  0  0  0  0  0  0  0  0  0  0  0
   10.2029   -2.3141   -2.2267 H   0  0  0  0  0  0  0  0  0  0  0  0
   10.0057   -1.5363   -0.6513 H   0  0  0  0  0  0  0  0  0  0  0  0
    9.1768   -3.0973   -1.0255 H   0  0  0  0  0  0  0  0  0  0  0  0
    6.2920   -0.2670   -2.7757 H   0  0  0  0  0  0  0  0  0  0  0  0
    4.3222    0.3847   -1.4425 H   0  0  0  0  0  0  0  0  0  0  0  0
    4.9185    0.6396    3.1287 H   0  0  0  0  0  0  0  0  0  0  0  0
   -4.1138    2.2140    0.8270 H   0  0  0  0  0  0  0  0  0  0  0  0
  1  2  1  0
  2  3  1  0
  3  4  1  0
  4  5  1  0
  3  6  1  0
  6  7  2  0
  7  8  1  0
  8  9  2  0
  9 10  1  0
 10 11  2  0
 11 12  1  0
 12 13  2  0
 13 14  1  0
 14 15  1  0
 15 16  2  0
 16 17  1  0
 17 18  2  0
 18 19  1  0
 19 20  1  0
 18 21  1  0
 21 22  2  0
 14 23  2  0
 23 24  1  0
 11 25  1  0
 25 26  2  0
 25 27  1  0
 27 28  1  0
 28 29  2  0
 29  6  1  0
 28  9  1  0
 24 12  1  0
 22 15  1  0
  1 30  1  0
  1 31  1  0
  1 32  1  0
  2 33  1  0
  2 34  1  0
  4 35  1  0
  4 36  1  0
  5 37  1  0
  5 38  1  0
  5 39  1  0
  7 40  1  0
  8 41  1  0
 10 42  1  0
 16 43  1  0
 17 44  1  0
 20 45  1  0
 20 46  1  0
 20 47  1  0
 21 48  1  0
 22 49  1  0
 23 50  1  0
 29 51  1  0
M  END
$$$$
