
     RDKit          3D

 48 51  0  0  0  0  0  0  0  0999 V2000
    0.7880   -2.1367    0.8540 C   0  0  0  0  0  0  0  0  0  0  0  0
    1.4539   -0.8578    0.4568 C   0  0  0  0  0  0  0  0  0  0  0  0
    1.1968   -0.0778   -0.6060 C   0  0  0  0  0  0  0  0  0  0  0  0
    0.2766   -0.0801   -1.6213 N   0  0  0  0  0  0  0  0  0  0  0  0
   -0.9175   -0.7662   -1.7065 C   0  0  0  0  0  0  0  0  0  0  0  0
   -1.3956   -1.4682   -0.8197 O   0  0  0  0  0  0  0  0  0  0  0  0
   -1.6561   -0.5191   -3.0149 C   0  0  0  0  0  0  0  0  0  0  0  0
   -2.9840    0.6942   -2.7371 S   0  0  0  0  0  0  0  0  0  0  0  0
   -4.2107   -0.4134   -2.0421 C   0  0  0  0  0  0  0  0  0  0  0  0
   -4.6340   -1.3630   -2.9020 N   0  0  0  0  0  0  0  0  0  0  0  0
   -5.5827   -2.1783   -2.4395 C   0  0  0  0  0  0  0  0  0  0  0  0
   -6.1427   -2.1312   -1.2246 N   0  0  0  0  0  0  0  0  0  0  0  0
   -5.7059   -1.1818   -0.3898 C   0  0  0  0  0  0  0  0  0  0  0  0
   -6.2698   -1.1076    0.8787 C   0  0  0  0  0  0  0  0  0  0  0  0
   -5.8709   -0.1473    1.8127 C   0  0  0  0  0  0  0  0  0  0  0  0
   -4.8836    0.7673    1.4779 C   0  0  0  0  0  0  0  0  0  0  0  0
   -4.3061    0.7174    0.2098 C   0  0  0  0  0  0  0  0  0  0  0  0
   -4.7130   -0.2577   -0.7396 C   0  0  0  0  0  0  0  0  0  0  0  0
    2.2415    0.9982   -0.5797 C   0  0  0  0  0  0  0  0  0  0  0  0
    2.3163    1.8415   -1.4626 O   0  0  0  0  0  0  0  0  0  0  0  0
    3.0358    0.7626    0.5430 N   0  0  0  0  0  0  0  0  0  0  0  0
    4.3537    1.2389    0.7429 C   0  0  0  0  0  0  0  0  0  0  0  0
    5.2752    0.5260    1.5226 C   0  0  0  0  0  0  0  0  0  0  0  0
    6.5720    1.0069    1.7258 C   0  0  0  0  0  0  0  0  0  0  0  0
    6.9676    2.2109    1.1512 C   0  0  0  0  0  0  0  0  0  0  0  0
    6.0692    2.9274    0.3654 C   0  0  0  0  0  0  0  0  0  0  0  0
    4.7748    2.4428    0.1611 C   0  0  0  0  0  0  0  0  0  0  0  0
    2.5294   -0.3770    1.2370 N   0  0  0  0  0  0  0  0  0  0  0  0
    2.2520   -0.1162    2.6632 C   0  0  0  0  0  0  0  0  0  0  0  0
    1.4720   -2.7634    1.4389 H   0  0  0  0  0  0  0  0  0  0  0  0
    0.5089   -2.7363   -0.0172 H   0  0  0  0  0  0  0  0  0  0  0  0
   -0.0938   -1.9386    1.4680 H   0  0  0  0  0  0  0  0  0  0  0  0
    0.4458    0.6507   -2.3096 H   0  0  0  0  0  0  0  0  0  0  0  0
   -0.9725   -0.1103   -3.7665 H   0  0  0  0  0  0  0  0  0  0  0  0
   -2.0270   -1.4718   -3.4063 H   0  0  0  0  0  0  0  0  0  0  0  0
   -5.9421   -2.9483   -3.1131 H   0  0  0  0  0  0  0  0  0  0  0  0
   -7.0458   -1.8206    1.1520 H   0  0  0  0  0  0  0  0  0  0  0  0
   -6.3355   -0.1223    2.7958 H   0  0  0  0  0  0  0  0  0  0  0  0
   -4.5649    1.5188    2.1980 H   0  0  0  0  0  0  0  0  0  0  0  0
   -3.5327    1.4402   -0.0335 H   0  0  0  0  0  0  0  0  0  0  0  0
    5.0102   -0.4328    1.9588 H   0  0  0  0  0  0  0  0  0  0  0  0
    7.2725    0.4394    2.3320 H   0  0  0  0  0  0  0  0  0  0  0  0
    7.9731    2.5894    1.3114 H   0  0  0  0  0  0  0  0  0  0  0  0
    6.3694    3.8681   -0.0890 H   0  0  0  0  0  0  0  0  0  0  0  0
    4.0999    3.0410   -0.4447 H   0  0  0  0  0  0  0  0  0  0  0  0
    1.9691   -1.0443    3.1720 H   0  0  0  0  0  0  0  0  0  0  0  0
    3.1286    0.2798    3.1845 H   0  0  0  0  0  0  0  0  0  0  0  0
    1.4344    0.6065    2.7760 H   0  0  0  0  0  0  0  0  0  0  0  0
  1  2  1  0
  2  3  2  0
  3  4  1  0
  4  5  1  0
  5  6  2  0
  5  7  1  0
  7  8  1  0
  8  9  1  0
  9 10  2  0
 10 11  1  0
 11 12  2  0
 12 13  1  0
 13 14  2  0
 14 15  1  0
 15 16  2  0
 16 17  1  0
 17 18  2  0
  3 19  1  0
 19 20  2  0
 19 21  1  0
 21 22  1  0
 22 23  2  0
 23 24  1  0
 24 25  2  0
 25 26  1  0
 26 27  2  0
 21 28  1  0
 28 29  1  0
 28  2  1  0
 18  9  1  0
 27 22  1  0
 18 13  1  0
  1 30  1  0
  1 31  1  0
  1 32  1  0
  4 33  1  0
  7 34  1  0
  7 35  1  0
 11 36  1  0
 14 37  1  0
 15 38  1  0
 16 39  1  0
 17 40  1  0
 23 41  1  0
 24 42  1  0
 25 43  1  0
 26 44  1  0
 27 45  1  0
 29 46  1  0
 29 47  1  0
 29 48  1  0
M  END
$$$$
