
     RDKit          3D

 40 42  0  0  0  0  0  0  0  0999 V2000
   -6.4247    1.3404    0.2145 C   0  0  0  0  0  0  0  0  0  0  0  0
   -6.6004   -0.1484   -0.7504 S   0  0  0  0  0  6  0  0  0  0  0  0
   -6.1126    0.1056   -2.0875 O   0  0  0  0  0  0  0  0  0  0  0  0
   -7.9363   -0.6579   -0.5233 O   0  0  0  0  0  0  0  0  0  0  0  0
   -5.5690   -1.2184    0.0422 N   0  0  0  0  0  0  0  0  0  0  0  0
   -4.1811   -0.9255    0.1522 C   0  0  0  0  0  0  0  0  0  0  0  0
   -3.6167   -0.8303    1.4253 C   0  0  0  0  0  0  0  0  0  0  0  0
   -2.2581   -0.5347    1.5674 C   0  0  0  0  0  0  0  0  0  0  0  0
   -1.4534   -0.3502    0.4359 C   0  0  0  0  0  0  0  0  0  0  0  0
   -0.0116   -0.0282    0.6352 C   0  0  0  0  0  0  0  0  0  0  0  0
    0.2959    0.6382    1.6156 O   0  0  0  0  0  0  0  0  0  0  0  0
    0.8426   -0.5629   -0.3115 N   0  0  0  0  0  0  0  0  0  0  0  0
    2.2411   -0.3897   -0.3972 C   0  0  0  0  0  0  0  0  0  0  0  0
    2.9098   -1.1049   -1.4020 C   0  0  0  0  0  0  0  0  0  0  0  0
    4.2924   -0.9835   -1.5673 C   0  0  0  0  0  0  0  0  0  0  0  0
    5.0168   -0.1405   -0.7318 C   0  0  0  0  0  0  0  0  0  0  0  0
    4.3633    0.5582    0.2865 C   0  0  0  0  0  0  0  0  0  0  0  0
    2.9791    0.4467    0.4436 C   0  0  0  0  0  0  0  0  0  0  0  0
    5.0186    1.3838    1.1661 O   0  0  0  0  0  0  0  0  0  0  0  0
    6.4315    1.1547    1.1436 C   0  0  0  0  0  0  0  0  0  0  0  0
    6.9368    1.0742   -0.2871 C   0  0  0  0  0  0  0  0  0  0  0  0
    6.3650   -0.0516   -0.9635 O   0  0  0  0  0  0  0  0  0  0  0  0
   -2.0233   -0.4422   -0.8397 C   0  0  0  0  0  0  0  0  0  0  0  0
   -3.3834   -0.7385   -0.9773 C   0  0  0  0  0  0  0  0  0  0  0  0
   -7.1389    2.0722   -0.1698 H   0  0  0  0  0  0  0  0  0  0  0  0
   -6.6531    1.1158    1.2580 H   0  0  0  0  0  0  0  0  0  0  0  0
   -5.4103    1.7268    0.1049 H   0  0  0  0  0  0  0  0  0  0  0  0
   -6.0211   -1.6680    0.8383 H   0  0  0  0  0  0  0  0  0  0  0  0
   -4.2196   -0.9749    2.3177 H   0  0  0  0  0  0  0  0  0  0  0  0
   -1.8248   -0.4497    2.5629 H   0  0  0  0  0  0  0  0  0  0  0  0
    0.4417   -1.2028   -0.9844 H   0  0  0  0  0  0  0  0  0  0  0  0
    2.3666   -1.7655   -2.0727 H   0  0  0  0  0  0  0  0  0  0  0  0
    4.7999   -1.5367   -2.3525 H   0  0  0  0  0  0  0  0  0  0  0  0
    2.5094    1.0212    1.2350 H   0  0  0  0  0  0  0  0  0  0  0  0
    6.9110    1.9870    1.6682 H   0  0  0  0  0  0  0  0  0  0  0  0
    6.6449    0.2324    1.6981 H   0  0  0  0  0  0  0  0  0  0  0  0
    8.0242    0.9501   -0.2981 H   0  0  0  0  0  0  0  0  0  0  0  0
    6.6904    1.9819   -0.8519 H   0  0  0  0  0  0  0  0  0  0  0  0
   -1.4360   -0.2605   -1.7359 H   0  0  0  0  0  0  0  0  0  0  0  0
   -3.8068   -0.8239   -1.9759 H   0  0  0  0  0  0  0  0  0  0  0  0
  1  2  1  0
  2  3  2  0
  2  4  2  0
  2  5  1  0
  5  6  1  0
  6  7  2  0
  7  8  1  0
  8  9  2  0
  9 10  1  0
 10 11  2  0
 10 12  1  0
 12 13  1  0
 13 14  2  0
 14 15  1  0
 15 16  2  0
 16 17  1  0
 17 18  2  0
 17 19  1  0
 19 20  1  0
 20 21  1  0
 21 22  1  0
  9 23  1  0
 23 24  2  0
 24  6  1  0
 18 13  1  0
 22 16  1  0
  1 25  1  0
  1 26  1  0
  1 27  1  0
  5 28  1  0
  7 29  1  0
  8 30  1  0
 12 31  1  0
 14 32  1  0
 15 33  1  0
 18 34  1  0
 20 35  1  0
 20 36  1  0
 21 37  1  0
 21 38  1  0
 23 39  1  0
 24 40  1  0
M  END
$$$$
