
     RDKit          3D

 55 60  0  0  0  0  0  0  0  0999 V2000
    5.1052   -0.6525    1.4474 O   0  0  0  0  0  0  0  0  0  0  0  0
    4.1963    0.1759    1.4312 C   0  0  0  0  0  0  0  0  0  0  0  0
    4.3925    1.4883    2.0310 C   0  0  0  0  0  0  0  0  0  0  0  0
    3.4956    2.3555    2.7234 C   0  0  0  0  0  0  0  0  0  0  0  0
    4.2267    3.4550    3.1084 C   0  0  0  0  0  0  0  0  0  0  0  0
    5.5194    3.3208    2.7220 O   0  0  0  0  0  0  0  0  0  0  0  0
    5.6186    2.1231    2.0927 C   0  0  0  0  0  0  0  0  0  0  0  0
    2.9538   -0.1193    0.8567 N   0  0  0  0  0  0  0  0  0  0  0  0
    2.0117    0.8876    0.3757 C   0  0  0  0  0  0  0  0  0  0  0  0
    1.3506    0.4808   -0.9393 C   0  0  0  0  0  0  0  0  0  0  0  0
    0.6504   -0.9061   -0.8859 C   0  0  0  0  0  0  0  0  0  0  0  0
    1.2417   -1.7814    0.2508 C   0  0  0  0  0  0  0  0  0  0  0  0
    2.7270   -1.4998    0.4385 C   0  0  0  0  0  0  0  0  0  0  0  0
    1.0468   -1.6301   -2.0878 O   0  0  0  0  0  0  0  0  0  0  0  0
    0.3574   -1.3921   -3.2381 C   0  0  0  0  0  0  0  0  0  0  0  0
    0.9264   -1.8949   -4.4084 C   0  0  0  0  0  0  0  0  0  0  0  0
    0.3026   -1.6816   -5.6402 C   0  0  0  0  0  0  0  0  0  0  0  0
   -0.8933   -0.9664   -5.6977 C   0  0  0  0  0  0  0  0  0  0  0  0
   -1.6549   -0.6989   -7.2161 Cl  0  0  0  0  0  0  0  0  0  0  0  0
   -1.4748   -0.4706   -4.5342 C   0  0  0  0  0  0  0  0  0  0  0  0
   -0.8456   -0.6997   -3.3061 C   0  0  0  0  0  0  0  0  0  0  0  0
   -1.4433   -0.2076   -2.0595 C   0  0  0  0  0  0  0  0  0  0  0  0
   -2.3150    0.6569   -2.1015 O   0  0  0  0  0  0  0  0  0  0  0  0
   -0.8974   -0.8124   -0.7694 C   0  0  0  0  0  0  0  0  0  0  0  0
   -1.4211   -0.0565    0.4444 C   0  0  0  0  0  0  0  0  0  0  0  0
   -2.6080   -0.9093    0.7456 C   0  0  0  0  0  0  0  0  0  0  0  0
   -3.6807   -0.4746    1.6715 C   0  0  0  0  0  0  0  0  0  0  0  0
   -4.7941   -1.3065    1.8549 C   0  0  0  0  0  0  0  0  0  0  0  0
   -5.8225   -0.9299    2.7232 C   0  0  0  0  0  0  0  0  0  0  0  0
   -5.7386    0.2785    3.4101 C   0  0  0  0  0  0  0  0  0  0  0  0
   -7.0013    0.7451    4.4803 Cl  0  0  0  0  0  0  0  0  0  0  0  0
   -4.6351    1.1127    3.2362 C   0  0  0  0  0  0  0  0  0  0  0  0
   -3.6042    0.7376    2.3676 C   0  0  0  0  0  0  0  0  0  0  0  0
   -2.6034   -2.0665    0.1641 N   0  0  0  0  0  0  0  0  0  0  0  0
   -1.4499   -2.1332   -0.6465 O   0  0  0  0  0  0  0  0  0  0  0  0
    2.4497    2.1927    2.9375 H   0  0  0  0  0  0  0  0  0  0  0  0
    3.9928    4.3619    3.6490 H   0  0  0  0  0  0  0  0  0  0  0  0
    6.6077    1.8571    1.7437 H   0  0  0  0  0  0  0  0  0  0  0  0
    2.5229    1.8431    0.2245 H   0  0  0  0  0  0  0  0  0  0  0  0
    1.2568    1.0274    1.1555 H   0  0  0  0  0  0  0  0  0  0  0  0
    2.1271    0.4700   -1.7170 H   0  0  0  0  0  0  0  0  0  0  0  0
    0.6478    1.2670   -1.2380 H   0  0  0  0  0  0  0  0  0  0  0  0
    0.7371   -1.6009    1.2054 H   0  0  0  0  0  0  0  0  0  0  0  0
    1.1135   -2.8459    0.0174 H   0  0  0  0  0  0  0  0  0  0  0  0
    3.2854   -1.6686   -0.4902 H   0  0  0  0  0  0  0  0  0  0  0  0
    3.1403   -2.1756    1.1963 H   0  0  0  0  0  0  0  0  0  0  0  0
    1.8611   -2.4497   -4.3646 H   0  0  0  0  0  0  0  0  0  0  0  0
    0.7545   -2.0739   -6.5482 H   0  0  0  0  0  0  0  0  0  0  0  0
   -2.4125    0.0785   -4.5777 H   0  0  0  0  0  0  0  0  0  0  0  0
   -0.7590   -0.0979    1.3118 H   0  0  0  0  0  0  0  0  0  0  0  0
   -1.6824    0.9849    0.2444 H   0  0  0  0  0  0  0  0  0  0  0  0
   -4.8708   -2.2527    1.3215 H   0  0  0  0  0  0  0  0  0  0  0  0
   -6.6815   -1.5828    2.8555 H   0  0  0  0  0  0  0  0  0  0  0  0
   -4.5725    2.0561    3.7732 H   0  0  0  0  0  0  0  0  0  0  0  0
   -2.7579    1.4080    2.2549 H   0  0  0  0  0  0  0  0  0  0  0  0
  1  2  2  0
  2  3  1  0
  3  4  1  0
  4  5  2  0
  5  6  1  0
  6  7  1  0
  2  8  1  0
  8  9  1  0
  9 10  1  0
 10 11  1  0
 11 12  1  0
 12 13  1  0
 11 14  1  0
 14 15  1  0
 15 16  2  0
 16 17  1  0
 17 18  2  0
 18 19  1  0
 18 20  1  0
 20 21  2  0
 21 22  1  0
 22 23  2  0
 22 24  1  0
 24 25  1  0
 25 26  1  0
 26 27  1  0
 27 28  2  0
 28 29  1  0
 29 30  2  0
 30 31  1  0
 30 32  1  0
 32 33  2  0
 26 34  2  0
 34 35  1  0
  7  3  2  0
 13  8  1  0
 21 15  1  0
 35 24  1  0
 24 11  1  0
 33 27  1  0
  4 36  1  0
  5 37  1  0
  7 38  1  0
  9 39  1  0
  9 40  1  0
 10 41  1  0
 10 42  1  0
 12 43  1  0
 12 44  1  0
 13 45  1  0
 13 46  1  0
 16 47  1  0
 17 48  1  0
 20 49  1  0
 25 50  1  0
 25 51  1  0
 28 52  1  0
 29 53  1  0
 32 54  1  0
 33 55  1  0
M  END
$$$$
