
     RDKit          3D

 25 26  0  0  0  0  0  0  0  0999 V2000
   -4.6931   -0.6664    0.0428 O   0  0  0  0  0  0  0  0  0  0  0  0
   -3.4866   -0.5995   -0.1150 C   0  0  0  0  0  0  0  0  0  0  0  0
   -2.7724   -0.1090   -1.3342 C   0  0  0  0  0  0  0  0  0  0  0  0
   -1.3736   -0.6770   -1.1248 C   0  0  0  0  0  0  0  0  0  0  0  0
   -1.2085   -0.8343    0.3336 N   0  0  0  0  0  0  0  0  0  0  0  0
   -0.5111    0.3181    0.9424 C   0  0  0  0  0  0  0  0  0  0  0  0
    0.9668    0.3622    0.6084 C   0  0  0  0  0  0  0  0  0  0  0  0
    1.7935   -0.7405    0.8780 C   0  0  0  0  0  0  0  0  0  0  0  0
    3.1578   -0.6953    0.5828 C   0  0  0  0  0  0  0  0  0  0  0  0
    3.7056    0.4555    0.0218 C   0  0  0  0  0  0  0  0  0  0  0  0
    5.3861    0.5131   -0.3428 Cl  0  0  0  0  0  0  0  0  0  0  0  0
    2.9016    1.5617   -0.2448 C   0  0  0  0  0  0  0  0  0  0  0  0
    1.5365    1.5167    0.0500 C   0  0  0  0  0  0  0  0  0  0  0  0
   -2.5235   -0.9198    0.8192 N   0  0  0  0  0  0  0  0  0  0  0  0
   -2.7754    0.9851   -1.3332 H   0  0  0  0  0  0  0  0  0  0  0  0
   -3.2369   -0.4992   -2.2427 H   0  0  0  0  0  0  0  0  0  0  0  0
   -1.3183   -1.6749   -1.5787 H   0  0  0  0  0  0  0  0  0  0  0  0
   -0.6063   -0.0670   -1.6123 H   0  0  0  0  0  0  0  0  0  0  0  0
   -0.5841    0.2498    2.0365 H   0  0  0  0  0  0  0  0  0  0  0  0
   -0.9976    1.2614    0.6597 H   0  0  0  0  0  0  0  0  0  0  0  0
    1.3721   -1.6439    1.3157 H   0  0  0  0  0  0  0  0  0  0  0  0
    3.7835   -1.5585    0.7928 H   0  0  0  0  0  0  0  0  0  0  0  0
    3.3305    2.4607   -0.6794 H   0  0  0  0  0  0  0  0  0  0  0  0
    0.9223    2.3896   -0.1608 H   0  0  0  0  0  0  0  0  0  0  0  0
   -2.7687   -1.3887    1.6851 H   0  0  0  0  0  0  0  0  0  0  0  0
  1  2  2  0
  2  3  1  0
  3  4  1  0
  4  5  1  0
  5  6  1  0
  6  7  1  0
  7  8  2  0
  8  9  1  0
  9 10  2  0
 10 11  1  0
 10 12  1  0
 12 13  2  0
  5 14  1  0
 14  2  1  0
 13  7  1  0
  3 15  1  0
  3 16  1  0
  4 17  1  0
  4 18  1  0
  6 19  1  0
  6 20  1  0
  8 21  1  0
  9 22  1  0
 12 23  1  0
 13 24  1  0
 14 25  1  0
M  END
$$$$
