
     RDKit          3D

 31 31  0  0  0  0  0  0  0  0999 V2000
    2.5528   -0.9725    3.0149 C   0  0  0  0  0  0  0  0  0  0  0  0
    3.5799   -0.6484    2.0860 O   0  0  0  0  0  0  0  0  0  0  0  0
    3.0787    0.1339    1.0029 C   0  0  0  0  0  0  0  0  0  0  0  0
    2.1197   -0.5901    0.2334 O   0  0  0  0  0  0  0  0  0  0  0  0
    1.5562    0.1928   -0.7422 C   0  0  0  0  0  0  0  0  0  0  0  0
    0.2306    0.3321   -0.9237 C   0  0  0  0  0  0  0  0  0  0  0  0
   -0.2337    1.1184   -1.9599 N   0  0  0  0  0  0  0  0  0  0  0  0
   -1.5494    1.3603   -2.3218 C   0  0  0  0  0  0  0  0  0  0  0  0
   -1.6497    2.2557   -3.5318 C   0  0  0  0  0  0  0  0  0  0  0  0
   -2.5575    0.9167   -1.7863 O   0  0  0  0  0  0  0  0  0  0  0  0
   -0.6899   -0.3373    0.0135 C   0  0  0  0  0  0  0  0  0  0  0  0
   -0.9705   -1.7040   -0.1187 C   0  0  0  0  0  0  0  0  0  0  0  0
   -1.8057   -2.3453    0.7986 C   0  0  0  0  0  0  0  0  0  0  0  0
   -2.3634   -1.6271    1.8556 C   0  0  0  0  0  0  0  0  0  0  0  0
   -2.0878   -0.2678    1.9978 C   0  0  0  0  0  0  0  0  0  0  0  0
   -1.2516    0.3750    1.0825 C   0  0  0  0  0  0  0  0  0  0  0  0
    2.0836   -0.0643    3.4056 H   0  0  0  0  0  0  0  0  0  0  0  0
    1.7998   -1.6186    2.5536 H   0  0  0  0  0  0  0  0  0  0  0  0
    3.0059   -1.5152    3.8490 H   0  0  0  0  0  0  0  0  0  0  0  0
    3.9362    0.3882    0.3696 H   0  0  0  0  0  0  0  0  0  0  0  0
    2.6463    1.0629    1.3975 H   0  0  0  0  0  0  0  0  0  0  0  0
    2.3016    0.6575   -1.3753 H   0  0  0  0  0  0  0  0  0  0  0  0
    0.4734    1.5353   -2.5520 H   0  0  0  0  0  0  0  0  0  0  0  0
   -0.8996    3.0507   -3.4915 H   0  0  0  0  0  0  0  0  0  0  0  0
   -1.5074    1.6595   -4.4369 H   0  0  0  0  0  0  0  0  0  0  0  0
   -2.6382    2.7234   -3.5571 H   0  0  0  0  0  0  0  0  0  0  0  0
   -0.5372   -2.2733   -0.9368 H   0  0  0  0  0  0  0  0  0  0  0  0
   -2.0228   -3.4037    0.6848 H   0  0  0  0  0  0  0  0  0  0  0  0
   -3.0194   -2.1256    2.5640 H   0  0  0  0  0  0  0  0  0  0  0  0
   -2.5306    0.2943    2.8152 H   0  0  0  0  0  0  0  0  0  0  0  0
   -1.0501    1.4364    1.1970 H   0  0  0  0  0  0  0  0  0  0  0  0
  1  2  1  0
  2  3  1  0
  3  4  1  0
  4  5  1  0
  5  6  2  3
  6  7  1  0
  7  8  1  0
  8  9  1  0
  8 10  2  0
  6 11  1  0
 11 12  2  0
 12 13  1  0
 13 14  2  0
 14 15  1  0
 15 16  2  0
 16 11  1  0
  1 17  1  0
  1 18  1  0
  1 19  1  0
  3 20  1  0
  3 21  1  0
  5 22  1  0
  7 23  1  0
  9 24  1  0
  9 25  1  0
  9 26  1  0
 12 27  1  0
 13 28  1  0
 14 29  1  0
 15 30  1  0
 16 31  1  0
M  END
$$$$
