
     RDKit          3D

 36 37  0  0  0  0  0  0  0  0999 V2000
    1.2572    2.0633    0.9898 O   0  0  0  0  0  0  0  0  0  0  0  0
    0.6362    1.2492    1.6729 C   0  0  0  0  0  0  0  0  0  0  0  0
   -0.7343    1.5458    2.2842 C   0  0  0  0  0  0  0  0  0  0  0  0
   -1.8103    1.1397    1.4358 O   0  0  0  0  0  0  0  0  0  0  0  0
   -2.0322   -0.1958    1.4023 C   0  0  0  0  0  0  0  0  0  0  0  0
   -1.4342   -1.0462    2.0384 O   0  0  0  0  0  0  0  0  0  0  0  0
   -3.0999   -0.4695    0.4276 C   0  0  0  0  0  0  0  0  0  0  0  0
   -4.3454    0.1509    0.6024 C   0  0  0  0  0  0  0  0  0  0  0  0
   -5.3756   -0.1152   -0.2962 C   0  0  0  0  0  0  0  0  0  0  0  0
   -6.9061    0.6393   -0.0860 Cl  0  0  0  0  0  0  0  0  0  0  0  0
   -5.1761   -0.9905   -1.3631 C   0  0  0  0  0  0  0  0  0  0  0  0
   -3.9325   -1.6046   -1.5372 C   0  0  0  0  0  0  0  0  0  0  0  0
   -2.8894   -1.3465   -0.6423 C   0  0  0  0  0  0  0  0  0  0  0  0
   -1.3649   -2.0985   -0.9435 Cl  0  0  0  0  0  0  0  0  0  0  0  0
    1.1143   -0.0216    1.9110 N   0  0  0  0  0  0  0  0  0  0  0  0
    2.3607   -0.4648    1.3170 C   0  0  0  0  0  0  0  0  0  0  0  0
    2.2732   -0.6131   -0.2094 C   0  0  0  0  0  0  0  0  0  0  0  0
    3.4955   -0.1926   -0.8626 N   0  0  0  0  0  0  0  0  0  0  0  0
    3.7461    1.0761   -1.3297 C   0  0  0  0  0  0  0  0  0  0  0  0
    2.8416    2.0877   -1.2014 O   0  0  0  0  0  0  0  0  0  0  0  0
    4.9383    1.2249   -1.9143 C   0  0  0  0  0  0  0  0  0  0  0  0
    5.8537   -0.2494   -1.8810 S   0  0  0  0  0  0  0  0  0  0  0  0
    4.5436   -1.0870   -1.0318 C   0  0  0  0  0  0  0  0  0  0  0  0
    4.6014   -2.2499   -0.6664 O   0  0  0  0  0  0  0  0  0  0  0  0
   -0.8121    2.6286    2.4291 H   0  0  0  0  0  0  0  0  0  0  0  0
   -0.8205    1.0879    3.2771 H   0  0  0  0  0  0  0  0  0  0  0  0
   -4.5097    0.8307    1.4351 H   0  0  0  0  0  0  0  0  0  0  0  0
   -5.9816   -1.1968   -2.0645 H   0  0  0  0  0  0  0  0  0  0  0  0
   -3.7833   -2.2798   -2.3775 H   0  0  0  0  0  0  0  0  0  0  0  0
    0.4396   -0.7284    2.2132 H   0  0  0  0  0  0  0  0  0  0  0  0
    3.1282    0.2671    1.5962 H   0  0  0  0  0  0  0  0  0  0  0  0
    2.6290   -1.4196    1.7810 H   0  0  0  0  0  0  0  0  0  0  0  0
    2.0908   -1.6684   -0.4480 H   0  0  0  0  0  0  0  0  0  0  0  0
    1.4326   -0.0595   -0.6425 H   0  0  0  0  0  0  0  0  0  0  0  0
    2.3174    1.9618   -0.3812 H   0  0  0  0  0  0  0  0  0  0  0  0
    5.3088    2.1445   -2.3440 H   0  0  0  0  0  0  0  0  0  0  0  0
  1  2  2  0
  2  3  1  0
  3  4  1  0
  4  5  1  0
  5  6  2  0
  5  7  1  0
  7  8  2  0
  8  9  1  0
  9 10  1  0
  9 11  2  0
 11 12  1  0
 12 13  2  0
 13 14  1  0
  2 15  1  0
 15 16  1  0
 16 17  1  0
 17 18  1  0
 18 19  1  0
 19 20  1  0
 19 21  2  0
 21 22  1  0
 22 23  1  0
 23 24  2  0
 13  7  1  0
 23 18  1  0
  3 25  1  0
  3 26  1  0
  8 27  1  0
 11 28  1  0
 12 29  1  0
 15 30  1  0
 16 31  1  0
 16 32  1  0
 17 33  1  0
 17 34  1  0
 20 35  1  0
 21 36  1  0
M  END
$$$$
