
     RDKit          3D

 44 46  0  0  0  0  0  0  0  0999 V2000
   -7.0563   -0.7192    0.2224 C   0  0  0  0  0  0  0  0  0  0  0  0
   -5.7262   -0.2155   -0.2561 C   0  0  0  0  0  0  0  0  0  0  0  0
   -5.2132   -0.6336   -1.4907 C   0  0  0  0  0  0  0  0  0  0  0  0
   -3.9892   -0.1433   -1.9675 C   0  0  0  0  0  0  0  0  0  0  0  0
   -3.4664   -0.6130   -3.2938 C   0  0  0  0  0  0  0  0  0  0  0  0
   -3.2691    0.7572   -1.1686 C   0  0  0  0  0  0  0  0  0  0  0  0
   -2.0551    1.2301   -1.5982 O   0  0  0  0  0  0  0  0  0  0  0  0
   -1.0023    0.3598   -1.1909 C   0  0  0  0  0  0  0  0  0  0  0  0
    0.2241    1.1331   -0.6871 C   0  0  0  0  0  0  0  0  0  0  0  0
    0.2133    2.3487   -0.5288 O   0  0  0  0  0  0  0  0  0  0  0  0
    1.2835    0.2798   -0.4393 N   0  0  0  0  0  0  0  0  0  0  0  0
    2.5285    0.6133    0.0272 C   0  0  0  0  0  0  0  0  0  0  0  0
    3.4363   -0.3155    0.2182 N   0  0  0  0  0  0  0  0  0  0  0  0
    4.6099    0.2662    0.6941 C   0  0  0  0  0  0  0  0  0  0  0  0
    5.8033   -0.5204    1.0018 C   0  0  0  0  0  0  0  0  0  0  0  0
    5.8057   -1.9007    0.8197 C   0  0  0  0  0  0  0  0  0  0  0  0
    6.9610   -2.6173    1.1232 C   0  0  0  0  0  0  0  0  0  0  0  0
    8.0766   -1.9391    1.5983 C   0  0  0  0  0  0  0  0  0  0  0  0
    7.9912   -0.5656    1.7510 C   0  0  0  0  0  0  0  0  0  0  0  0
    6.8857    0.1568    1.4653 N   0  0  0  0  0  0  0  0  0  0  0  0
    4.5472    1.6386    0.8484 C   0  0  0  0  0  0  0  0  0  0  0  0
    2.9984    2.2064    0.3916 S   0  0  0  0  0  0  0  0  0  0  0  0
   -3.7902    1.2351    0.0437 C   0  0  0  0  0  0  0  0  0  0  0  0
   -3.0442    2.2450    0.8688 C   0  0  0  0  0  0  0  0  0  0  0  0
   -5.0173    0.7306    0.4948 C   0  0  0  0  0  0  0  0  0  0  0  0
   -7.2410   -1.7371   -0.1369 H   0  0  0  0  0  0  0  0  0  0  0  0
   -7.0911   -0.7505    1.3165 H   0  0  0  0  0  0  0  0  0  0  0  0
   -7.8560   -0.0654   -0.1391 H   0  0  0  0  0  0  0  0  0  0  0  0
   -5.7791   -1.3434   -2.0915 H   0  0  0  0  0  0  0  0  0  0  0  0
   -2.9965    0.2093   -3.8433 H   0  0  0  0  0  0  0  0  0  0  0  0
   -4.2758   -0.9960   -3.9245 H   0  0  0  0  0  0  0  0  0  0  0  0
   -2.7351   -1.4136   -3.1471 H   0  0  0  0  0  0  0  0  0  0  0  0
   -1.3052   -0.3293   -0.3898 H   0  0  0  0  0  0  0  0  0  0  0  0
   -0.6968   -0.2287   -2.0639 H   0  0  0  0  0  0  0  0  0  0  0  0
    1.1809   -0.7120   -0.5998 H   0  0  0  0  0  0  0  0  0  0  0  0
    4.9249   -2.4143    0.4476 H   0  0  0  0  0  0  0  0  0  0  0  0
    6.9875   -3.6950    0.9894 H   0  0  0  0  0  0  0  0  0  0  0  0
    8.9911   -2.4675    1.8438 H   0  0  0  0  0  0  0  0  0  0  0  0
    8.8367    0.0091    2.1188 H   0  0  0  0  0  0  0  0  0  0  0  0
    5.3169    2.3128    1.1978 H   0  0  0  0  0  0  0  0  0  0  0  0
   -2.1991    1.7677    1.3742 H   0  0  0  0  0  0  0  0  0  0  0  0
   -3.6912    2.6907    1.6319 H   0  0  0  0  0  0  0  0  0  0  0  0
   -2.6777    3.0636    0.2408 H   0  0  0  0  0  0  0  0  0  0  0  0
   -5.4289    1.0826    1.4391 H   0  0  0  0  0  0  0  0  0  0  0  0
  1  2  1  0
  2  3  2  0
  3  4  1  0
  4  5  1  0
  4  6  2  0
  6  7  1  0
  7  8  1  0
  8  9  1  0
  9 10  2  0
  9 11  1  0
 11 12  1  0
 12 13  2  0
 13 14  1  0
 14 15  1  0
 15 16  2  0
 16 17  1  0
 17 18  2  0
 18 19  1  0
 19 20  2  0
 14 21  2  0
 21 22  1  0
  6 23  1  0
 23 24  1  0
 23 25  2  0
 25  2  1  0
 22 12  1  0
 20 15  1  0
  1 26  1  0
  1 27  1  0
  1 28  1  0
  3 29  1  0
  5 30  1  0
  5 31  1  0
  5 32  1  0
  8 33  1  0
  8 34  1  0
 11 35  1  0
 16 36  1  0
 17 37  1  0
 18 38  1  0
 19 39  1  0
 21 40  1  0
 24 41  1  0
 24 42  1  0
 24 43  1  0
 25 44  1  0
M  END
$$$$
