
     RDKit          3D

 37 39  0  0  0  0  0  0  0  0999 V2000
   -6.4620    1.9760    1.7453 C   0  0  0  0  0  0  0  0  0  0  0  0
   -6.3233    1.9611    0.2312 C   0  0  0  0  0  0  0  0  0  0  0  0
   -5.3703    0.9057   -0.2210 C   0  0  0  0  0  0  0  0  0  0  0  0
   -5.6916   -0.3531   -0.4388 N   0  0  0  0  0  0  0  0  0  0  0  0
   -4.6046   -1.0982   -0.8494 N   0  0  0  0  0  0  0  0  0  0  0  0
   -3.5084   -0.3767   -0.9270 C   0  0  0  0  0  0  0  0  0  0  0  0
   -2.3108   -0.9238   -1.3142 N   0  0  0  0  0  0  0  0  0  0  0  0
   -1.1005   -0.2691   -1.4386 C   0  0  0  0  0  0  0  0  0  0  0  0
   -0.8926    0.9197   -1.2258 O   0  0  0  0  0  0  0  0  0  0  0  0
    0.0134   -1.2319   -1.8846 C   0  0  0  0  0  0  0  0  0  0  0  0
    1.3076   -0.6734   -2.0268 O   0  0  0  0  0  0  0  0  0  0  0  0
    2.1068   -0.6302   -0.9182 C   0  0  0  0  0  0  0  0  0  0  0  0
    1.6789   -0.7284    0.4035 C   0  0  0  0  0  0  0  0  0  0  0  0
    2.6076   -0.6652    1.4484 C   0  0  0  0  0  0  0  0  0  0  0  0
    3.9761   -0.4962    1.1888 C   0  0  0  0  0  0  0  0  0  0  0  0
    4.9191   -0.4323    2.2277 C   0  0  0  0  0  0  0  0  0  0  0  0
    6.2757   -0.2581    1.9494 C   0  0  0  0  0  0  0  0  0  0  0  0
    6.7061   -0.1440    0.6308 C   0  0  0  0  0  0  0  0  0  0  0  0
    5.7807   -0.2045   -0.4124 C   0  0  0  0  0  0  0  0  0  0  0  0
    4.4124   -0.3810   -0.1490 C   0  0  0  0  0  0  0  0  0  0  0  0
    3.4665   -0.4445   -1.1856 C   0  0  0  0  0  0  0  0  0  0  0  0
   -3.7139    1.2591   -0.5048 S   0  0  0  0  0  0  0  0  0  0  0  0
   -6.8149    1.0092    2.1204 H   0  0  0  0  0  0  0  0  0  0  0  0
   -7.1808    2.7423    2.0526 H   0  0  0  0  0  0  0  0  0  0  0  0
   -5.5046    2.1947    2.2303 H   0  0  0  0  0  0  0  0  0  0  0  0
   -7.3049    1.7698   -0.2185 H   0  0  0  0  0  0  0  0  0  0  0  0
   -6.0055    2.9500   -0.1193 H   0  0  0  0  0  0  0  0  0  0  0  0
   -2.3797   -1.9092   -1.5303 H   0  0  0  0  0  0  0  0  0  0  0  0
   -0.2725   -1.5897   -2.8817 H   0  0  0  0  0  0  0  0  0  0  0  0
    0.0278   -2.1165   -1.2347 H   0  0  0  0  0  0  0  0  0  0  0  0
    0.6316   -0.8292    0.6641 H   0  0  0  0  0  0  0  0  0  0  0  0
    2.2499   -0.7388    2.4732 H   0  0  0  0  0  0  0  0  0  0  0  0
    4.6016   -0.5162    3.2646 H   0  0  0  0  0  0  0  0  0  0  0  0
    6.9950   -0.2092    2.7628 H   0  0  0  0  0  0  0  0  0  0  0  0
    7.7617   -0.0060    0.4123 H   0  0  0  0  0  0  0  0  0  0  0  0
    6.1350   -0.1111   -1.4366 H   0  0  0  0  0  0  0  0  0  0  0  0
    3.7875   -0.3513   -2.2210 H   0  0  0  0  0  0  0  0  0  0  0  0
  1  2  1  0
  2  3  1  0
  3  4  2  0
  4  5  1  0
  5  6  2  0
  6  7  1  0
  7  8  1  0
  8  9  2  0
  8 10  1  0
 10 11  1  0
 11 12  1  0
 12 13  2  0
 13 14  1  0
 14 15  2  0
 15 16  1  0
 16 17  2  0
 17 18  1  0
 18 19  2  0
 19 20  1  0
 20 21  2  0
  6 22  1  0
 22  3  1  0
 21 12  1  0
 20 15  1  0
  1 23  1  0
  1 24  1  0
  1 25  1  0
  2 26  1  0
  2 27  1  0
  7 28  1  0
 10 29  1  0
 10 30  1  0
 13 31  1  0
 14 32  1  0
 16 33  1  0
 17 34  1  0
 18 35  1  0
 19 36  1  0
 21 37  1  0
M  END
$$$$
