
     RDKit          3D

 41 43  0  0  0  0  0  0  0  0999 V2000
    7.9447    0.0989    2.1787 C   0  0  0  0  0  0  0  0  0  0  0  0
    6.6485    0.1440    1.8350 C   0  0  0  0  0  0  0  0  0  0  0  0
    5.7475   -0.9333    2.2255 C   0  0  0  0  0  0  0  0  0  0  0  0
    4.4471   -0.8914    1.8827 C   0  0  0  0  0  0  0  0  0  0  0  0
    3.8938    0.2398    1.1050 C   0  0  0  0  0  0  0  0  0  0  0  0
    2.5821    0.2809    0.7604 C   0  0  0  0  0  0  0  0  0  0  0  0
    1.6589   -0.6785    1.0791 N   0  0  0  0  0  0  0  0  0  0  0  0
    0.3642   -0.5078    0.6632 C   0  0  0  0  0  0  0  0  0  0  0  0
   -0.5295   -1.3038    0.8948 O   0  0  0  0  0  0  0  0  0  0  0  0
    0.2634    0.7734   -0.0867 C   0  0  0  0  0  0  0  0  0  0  0  0
   -0.8207    1.3048   -0.6713 C   0  0  0  0  0  0  0  0  0  0  0  0
   -2.1755    0.7444   -0.6906 C   0  0  0  0  0  0  0  0  0  0  0  0
   -2.9154    0.5929    0.4833 C   0  0  0  0  0  0  0  0  0  0  0  0
   -4.2206    0.0951    0.4380 C   0  0  0  0  0  0  0  0  0  0  0  0
   -4.8050   -0.2492   -0.7847 C   0  0  0  0  0  0  0  0  0  0  0  0
   -6.0803   -0.7392   -0.9242 O   0  0  0  0  0  0  0  0  0  0  0  0
   -6.8067   -1.0236    0.2624 C   0  0  0  0  0  0  0  0  0  0  0  0
   -4.0683   -0.0884   -1.9754 C   0  0  0  0  0  0  0  0  0  0  0  0
   -4.7151   -0.4373   -3.1363 O   0  0  0  0  0  0  0  0  0  0  0  0
   -3.9622   -0.4208   -4.3400 C   0  0  0  0  0  0  0  0  0  0  0  0
   -2.7610    0.4124   -1.9192 C   0  0  0  0  0  0  0  0  0  0  0  0
    1.8154    1.5588   -0.1536 S   0  0  0  0  0  0  0  0  0  0  0  0
    4.8325    1.3181    0.7227 C   0  0  0  0  0  0  0  0  0  0  0  0
    6.1315    1.2705    1.0684 C   0  0  0  0  0  0  0  0  0  0  0  0
    8.6378    0.8871    1.9013 H   0  0  0  0  0  0  0  0  0  0  0  0
    8.3577   -0.7272    2.7491 H   0  0  0  0  0  0  0  0  0  0  0  0
    6.1385   -1.7700    2.7960 H   0  0  0  0  0  0  0  0  0  0  0  0
    3.8114   -1.7114    2.1919 H   0  0  0  0  0  0  0  0  0  0  0  0
    1.8733   -1.5128    1.6011 H   0  0  0  0  0  0  0  0  0  0  0  0
   -0.7307    2.2444   -1.2136 H   0  0  0  0  0  0  0  0  0  0  0  0
   -2.4827    0.8514    1.4471 H   0  0  0  0  0  0  0  0  0  0  0  0
   -4.7523   -0.0110    1.3772 H   0  0  0  0  0  0  0  0  0  0  0  0
   -6.2857   -1.7625    0.8802 H   0  0  0  0  0  0  0  0  0  0  0  0
   -7.0120   -0.1082    0.8270 H   0  0  0  0  0  0  0  0  0  0  0  0
   -7.7689   -1.4551   -0.0300 H   0  0  0  0  0  0  0  0  0  0  0  0
   -3.6591    0.5986   -4.5999 H   0  0  0  0  0  0  0  0  0  0  0  0
   -4.6076   -0.7894   -5.1432 H   0  0  0  0  0  0  0  0  0  0  0  0
   -3.0965   -1.0885   -4.2771 H   0  0  0  0  0  0  0  0  0  0  0  0
   -2.1777    0.5520   -2.8232 H   0  0  0  0  0  0  0  0  0  0  0  0
    4.4803    2.1707    0.1520 H   0  0  0  0  0  0  0  0  0  0  0  0
    6.8050    2.0710    0.7789 H   0  0  0  0  0  0  0  0  0  0  0  0
  1  2  2  0
  2  3  1  0
  3  4  2  0
  4  5  1  0
  5  6  2  3
  6  7  1  0
  7  8  1  0
  8  9  2  0
  8 10  1  0
 10 11  2  3
 11 12  1  0
 12 13  2  0
 13 14  1  0
 14 15  2  0
 15 16  1  0
 16 17  1  0
 15 18  1  0
 18 19  1  0
 19 20  1  0
 18 21  2  0
 10 22  1  0
  5 23  1  0
 23 24  2  0
 24  2  1  0
 22  6  1  0
 21 12  1  0
  1 25  1  0
  1 26  1  0
  3 27  1  0
  4 28  1  0
  7 29  1  0
 11 30  1  0
 13 31  1  0
 14 32  1  0
 17 33  1  0
 17 34  1  0
 17 35  1  0
 20 36  1  0
 20 37  1  0
 20 38  1  0
 21 39  1  0
 23 40  1  0
 24 41  1  0
M  END
$$$$
