
     RDKit          3D

 38 39  0  0  0  0  0  0  0  0999 V2000
   -3.1633    2.7004    1.6127 C   0  0  0  0  0  0  0  0  0  0  0  0
   -2.4336    1.6134    1.0549 O   0  0  0  0  0  0  0  0  0  0  0  0
   -3.1220    0.4722    0.7430 C   0  0  0  0  0  0  0  0  0  0  0  0
   -4.5052    0.3229    0.9142 C   0  0  0  0  0  0  0  0  0  0  0  0
   -5.1380   -0.8872    0.6115 C   0  0  0  0  0  0  0  0  0  0  0  0
   -4.3984   -1.9657    0.1387 C   0  0  0  0  0  0  0  0  0  0  0  0
   -3.0238   -1.8318   -0.0407 C   0  0  0  0  0  0  0  0  0  0  0  0
   -2.3817   -0.6154    0.2468 C   0  0  0  0  0  0  0  0  0  0  0  0
   -0.9116   -0.5680    0.0074 C   0  0  0  0  0  0  0  0  0  0  0  0
   -0.2504   -1.5944    0.1779 O   0  0  0  0  0  0  0  0  0  0  0  0
   -0.2894    0.7365   -0.4881 C   0  0  0  0  0  0  0  0  0  0  0  0
    0.9270    0.5254   -1.2083 O   0  0  0  0  0  0  0  0  0  0  0  0
    0.7682   -0.0649   -2.4117 C   0  0  0  0  0  0  0  0  0  0  0  0
   -0.3024   -0.3061   -2.9537 O   0  0  0  0  0  0  0  0  0  0  0  0
    2.0548   -0.3420   -3.0844 C   0  0  0  0  0  0  0  0  0  0  0  0
    3.2933   -0.4456   -2.5754 C   0  0  0  0  0  0  0  0  0  0  0  0
    3.7101   -0.3519   -1.1731 C   0  0  0  0  0  0  0  0  0  0  0  0
    3.1955   -1.2139   -0.1979 C   0  0  0  0  0  0  0  0  0  0  0  0
    3.6306   -1.1236    1.1260 C   0  0  0  0  0  0  0  0  0  0  0  0
    4.5953   -0.1829    1.4817 C   0  0  0  0  0  0  0  0  0  0  0  0
    5.1260    0.6682    0.5138 C   0  0  0  0  0  0  0  0  0  0  0  0
    4.6881    0.5815   -0.8100 C   0  0  0  0  0  0  0  0  0  0  0  0
   -3.9075    3.0793    0.9047 H   0  0  0  0  0  0  0  0  0  0  0  0
   -2.4541    3.5091    1.8135 H   0  0  0  0  0  0  0  0  0  0  0  0
   -3.6254    2.4192    2.5646 H   0  0  0  0  0  0  0  0  0  0  0  0
   -5.1272    1.1297    1.2889 H   0  0  0  0  0  0  0  0  0  0  0  0
   -6.2119   -0.9876    0.7516 H   0  0  0  0  0  0  0  0  0  0  0  0
   -4.8879   -2.9085   -0.0922 H   0  0  0  0  0  0  0  0  0  0  0  0
   -2.4487   -2.6773   -0.4156 H   0  0  0  0  0  0  0  0  0  0  0  0
   -0.9896    1.3022   -1.1125 H   0  0  0  0  0  0  0  0  0  0  0  0
   -0.0281    1.3408    0.3858 H   0  0  0  0  0  0  0  0  0  0  0  0
    1.9263   -0.4935   -4.1529 H   0  0  0  0  0  0  0  0  0  0  0  0
    4.1141   -0.6391   -3.2641 H   0  0  0  0  0  0  0  0  0  0  0  0
    2.4395   -1.9539   -0.4538 H   0  0  0  0  0  0  0  0  0  0  0  0
    3.2092   -1.7877    1.8763 H   0  0  0  0  0  0  0  0  0  0  0  0
    4.9319   -0.1139    2.5125 H   0  0  0  0  0  0  0  0  0  0  0  0
    5.8798    1.4007    0.7892 H   0  0  0  0  0  0  0  0  0  0  0  0
    5.1106    1.2536   -1.5528 H   0  0  0  0  0  0  0  0  0  0  0  0
  1  2  1  0
  2  3  1  0
  3  4  2  0
  4  5  1  0
  5  6  2  0
  6  7  1  0
  7  8  2  0
  8  9  1  0
  9 10  2  0
  9 11  1  0
 11 12  1  0
 12 13  1  0
 13 14  2  0
 13 15  1  0
 15 16  2  3
 16 17  1  0
 17 18  2  0
 18 19  1  0
 19 20  2  0
 20 21  1  0
 21 22  2  0
  8  3  1  0
 22 17  1  0
  1 23  1  0
  1 24  1  0
  1 25  1  0
  4 26  1  0
  5 27  1  0
  6 28  1  0
  7 29  1  0
 11 30  1  0
 11 31  1  0
 15 32  1  0
 16 33  1  0
 18 34  1  0
 19 35  1  0
 20 36  1  0
 21 37  1  0
 22 38  1  0
M  END
$$$$
