
     RDKit          3D

 36 37  0  0  0  0  0  0  0  0999 V2000
   -1.4662   -1.8031   -2.4330 O   0  0  0  0  0  0  0  0  0  0  0  0
   -0.4612   -1.5521   -1.7742 C   0  0  0  0  0  0  0  0  0  0  0  0
    0.6738   -0.6925   -2.3353 C   0  0  0  0  0  0  0  0  0  0  0  0
    1.5497   -0.1394   -1.3480 O   0  0  0  0  0  0  0  0  0  0  0  0
    1.1822    1.0644   -0.8489 C   0  0  0  0  0  0  0  0  0  0  0  0
    0.1559    1.6740   -1.1104 O   0  0  0  0  0  0  0  0  0  0  0  0
    2.1979    1.5580    0.1195 C   0  0  0  0  0  0  0  0  0  0  0  0
    3.4000    0.8785    0.3569 C   0  0  0  0  0  0  0  0  0  0  0  0
    4.3128    1.3891    1.2804 C   0  0  0  0  0  0  0  0  0  0  0  0
    5.7862    0.5489    1.5697 Cl  0  0  0  0  0  0  0  0  0  0  0  0
    4.0460    2.5687    1.9703 C   0  0  0  0  0  0  0  0  0  0  0  0
    2.8520    3.2424    1.7294 C   0  0  0  0  0  0  0  0  0  0  0  0
    2.5122    4.7016    2.5745 Cl  0  0  0  0  0  0  0  0  0  0  0  0
    1.9278    2.7470    0.8104 C   0  0  0  0  0  0  0  0  0  0  0  0
   -0.2278   -2.0625   -0.5146 N   0  0  0  0  0  0  0  0  0  0  0  0
   -1.2164   -2.8613    0.1957 C   0  0  0  0  0  0  0  0  0  0  0  0
   -2.1392   -2.0383    1.1113 C   0  0  0  0  0  0  0  0  0  0  0  0
   -3.0426   -1.1678    0.3848 N   0  0  0  0  0  0  0  0  0  0  0  0
   -2.7557    0.1348    0.0652 C   0  0  0  0  0  0  0  0  0  0  0  0
   -1.6102    0.6942    0.5444 O   0  0  0  0  0  0  0  0  0  0  0  0
   -3.6512    0.7243   -0.7344 C   0  0  0  0  0  0  0  0  0  0  0  0
   -4.9519   -0.3593   -1.1287 S   0  0  0  0  0  0  0  0  0  0  0  0
   -4.1968   -1.6679   -0.1980 C   0  0  0  0  0  0  0  0  0  0  0  0
   -4.6567   -2.7950   -0.1068 O   0  0  0  0  0  0  0  0  0  0  0  0
    1.2816   -1.3381   -2.9782 H   0  0  0  0  0  0  0  0  0  0  0  0
    0.2477    0.0943   -2.9689 H   0  0  0  0  0  0  0  0  0  0  0  0
    3.6378   -0.0418   -0.1713 H   0  0  0  0  0  0  0  0  0  0  0  0
    4.7624    2.9600    2.6882 H   0  0  0  0  0  0  0  0  0  0  0  0
    0.9997    3.2878    0.6342 H   0  0  0  0  0  0  0  0  0  0  0  0
    0.5674   -1.7056   -0.0003 H   0  0  0  0  0  0  0  0  0  0  0  0
   -1.8051   -3.4323   -0.5306 H   0  0  0  0  0  0  0  0  0  0  0  0
   -0.6515   -3.5743    0.8056 H   0  0  0  0  0  0  0  0  0  0  0  0
   -2.7494   -2.7364    1.6973 H   0  0  0  0  0  0  0  0  0  0  0  0
   -1.5517   -1.4497    1.8253 H   0  0  0  0  0  0  0  0  0  0  0  0
   -1.3569    1.4131   -0.0733 H   0  0  0  0  0  0  0  0  0  0  0  0
   -3.6026    1.7361   -1.1082 H   0  0  0  0  0  0  0  0  0  0  0  0
  1  2  2  0
  2  3  1  0
  3  4  1  0
  4  5  1  0
  5  6  2  0
  5  7  1  0
  7  8  2  0
  8  9  1  0
  9 10  1  0
  9 11  2  0
 11 12  1  0
 12 13  1  0
 12 14  2  0
  2 15  1  0
 15 16  1  0
 16 17  1  0
 17 18  1  0
 18 19  1  0
 19 20  1  0
 19 21  2  0
 21 22  1  0
 22 23  1  0
 23 24  2  0
 14  7  1  0
 23 18  1  0
  3 25  1  0
  3 26  1  0
  8 27  1  0
 11 28  1  0
 14 29  1  0
 15 30  1  0
 16 31  1  0
 16 32  1  0
 17 33  1  0
 17 34  1  0
 20 35  1  0
 21 36  1  0
M  END
$$$$
