
     RDKit          3D

 57 60  0  0  0  0  0  0  0  0999 V2000
   -4.2274   -3.3822    2.1758 C   0  0  0  0  0  0  0  0  0  0  0  0
   -3.3666   -2.2597    2.3866 O   0  0  0  0  0  0  0  0  0  0  0  0
   -2.5335   -2.0717    1.3181 C   0  0  0  0  0  0  0  0  0  0  0  0
   -1.4569   -2.9509    1.1549 C   0  0  0  0  0  0  0  0  0  0  0  0
   -0.5728   -2.7930    0.0855 C   0  0  0  0  0  0  0  0  0  0  0  0
   -0.7564   -1.7456   -0.8235 C   0  0  0  0  0  0  0  0  0  0  0  0
    0.1506   -1.5587   -1.9895 C   0  0  0  0  0  0  0  0  0  0  0  0
   -0.2739   -1.0640   -3.0247 O   0  0  0  0  0  0  0  0  0  0  0  0
    1.4568   -1.9569   -1.8074 N   0  0  0  0  0  0  0  0  0  0  0  0
    2.4646   -1.7311   -2.8192 C   0  0  0  0  0  0  0  0  0  0  0  0
    3.3543   -0.5794   -2.4253 C   0  0  0  0  0  0  0  0  0  0  0  0
    4.5163   -0.8029   -1.6529 C   0  0  0  0  0  0  0  0  0  0  0  0
    5.3242    0.2632   -1.2450 C   0  0  0  0  0  0  0  0  0  0  0  0
    4.9437    1.5343   -1.6130 C   0  0  0  0  0  0  0  0  0  0  0  0
    3.8137    1.7625   -2.3587 C   0  0  0  0  0  0  0  0  0  0  0  0
    3.0003    0.7316   -2.7799 C   0  0  0  0  0  0  0  0  0  0  0  0
    3.6097    3.0853   -2.5965 O   0  0  0  0  0  0  0  0  0  0  0  0
    4.7431    3.6635   -1.9179 C   0  0  0  0  0  0  0  0  0  0  0  0
    5.5982    2.6833   -1.2959 O   0  0  0  0  0  0  0  0  0  0  0  0
   -1.8317   -0.8648   -0.6593 C   0  0  0  0  0  0  0  0  0  0  0  0
   -2.6972   -0.9996    0.4370 C   0  0  0  0  0  0  0  0  0  0  0  0
   -4.0462    0.1474    0.6021 S   0  0  0  0  0  6  0  0  0  0  0  0
   -4.0129    1.0251   -0.5518 O   0  0  0  0  0  0  0  0  0  0  0  0
   -5.2410   -0.6242    0.8782 O   0  0  0  0  0  0  0  0  0  0  0  0
   -3.6893    1.0965    1.9490 N   0  0  0  0  0  0  0  0  0  0  0  0
   -3.8712    0.5468    3.2918 C   0  0  0  0  0  0  0  0  0  0  0  0
   -2.7410    2.2139    1.8252 C   0  0  0  0  0  0  0  0  0  0  0  0
   -1.3099    1.8585    1.5066 C   0  0  0  0  0  0  0  0  0  0  0  0
   -0.7616    2.2095    0.2635 C   0  0  0  0  0  0  0  0  0  0  0  0
    0.5667    1.9055   -0.0401 C   0  0  0  0  0  0  0  0  0  0  0  0
    1.3641    1.2469    0.8929 C   0  0  0  0  0  0  0  0  0  0  0  0
    0.8351    0.8942    2.1328 C   0  0  0  0  0  0  0  0  0  0  0  0
   -0.4931    1.2039    2.4402 C   0  0  0  0  0  0  0  0  0  0  0  0
   -5.0403   -3.3216    2.9055 H   0  0  0  0  0  0  0  0  0  0  0  0
   -3.6842   -4.3186    2.3480 H   0  0  0  0  0  0  0  0  0  0  0  0
   -4.6687   -3.3782    1.1735 H   0  0  0  0  0  0  0  0  0  0  0  0
   -1.3072   -3.7675    1.8581 H   0  0  0  0  0  0  0  0  0  0  0  0
    0.2319   -3.5120   -0.0415 H   0  0  0  0  0  0  0  0  0  0  0  0
    1.7832   -2.1181   -0.8670 H   0  0  0  0  0  0  0  0  0  0  0  0
    2.0081   -1.5476   -3.7999 H   0  0  0  0  0  0  0  0  0  0  0  0
    3.0554   -2.6517   -2.9031 H   0  0  0  0  0  0  0  0  0  0  0  0
    4.7942   -1.8147   -1.3657 H   0  0  0  0  0  0  0  0  0  0  0  0
    6.2188    0.0998   -0.6563 H   0  0  0  0  0  0  0  0  0  0  0  0
    2.1025    0.9340   -3.3573 H   0  0  0  0  0  0  0  0  0  0  0  0
    4.3779    4.3470   -1.1448 H   0  0  0  0  0  0  0  0  0  0  0  0
    5.3341    4.2369   -2.6414 H   0  0  0  0  0  0  0  0  0  0  0  0
   -1.9771   -0.0649   -1.3838 H   0  0  0  0  0  0  0  0  0  0  0  0
   -4.7418   -0.1116    3.3391 H   0  0  0  0  0  0  0  0  0  0  0  0
   -4.0640    1.3565    4.0031 H   0  0  0  0  0  0  0  0  0  0  0  0
   -2.9875    0.0008    3.6251 H   0  0  0  0  0  0  0  0  0  0  0  0
   -2.7421    2.8009    2.7534 H   0  0  0  0  0  0  0  0  0  0  0  0
   -3.1317    2.9108    1.0721 H   0  0  0  0  0  0  0  0  0  0  0  0
   -1.3709    2.7142   -0.4870 H   0  0  0  0  0  0  0  0  0  0  0  0
    0.9739    2.1818   -1.0101 H   0  0  0  0  0  0  0  0  0  0  0  0
    2.3977    1.0119    0.6520 H   0  0  0  0  0  0  0  0  0  0  0  0
    1.4583    0.3878    2.8641 H   0  0  0  0  0  0  0  0  0  0  0  0
   -0.8796    0.9367    3.4201 H   0  0  0  0  0  0  0  0  0  0  0  0
  1  2  1  0
  2  3  1  0
  3  4  2  0
  4  5  1  0
  5  6  2  0
  6  7  1  0
  7  8  2  0
  7  9  1  0
  9 10  1  0
 10 11  1  0
 11 12  2  0
 12 13  1  0
 13 14  2  0
 14 15  1  0
 15 16  2  0
 15 17  1  0
 17 18  1  0
 18 19  1  0
  6 20  1  0
 20 21  2  0
 21 22  1  0
 22 23  2  0
 22 24  2  0
 22 25  1  0
 25 26  1  0
 25 27  1  0
 27 28  1  0
 28 29  2  0
 29 30  1  0
 30 31  2  0
 31 32  1  0
 32 33  2  0
 21  3  1  0
 33 28  1  0
 16 11  1  0
 19 14  1  0
  1 34  1  0
  1 35  1  0
  1 36  1  0
  4 37  1  0
  5 38  1  0
  9 39  1  0
 10 40  1  0
 10 41  1  0
 12 42  1  0
 13 43  1  0
 16 44  1  0
 18 45  1  0
 18 46  1  0
 20 47  1  0
 26 48  1  0
 26 49  1  0
 26 50  1  0
 27 51  1  0
 27 52  1  0
 29 53  1  0
 30 54  1  0
 31 55  1  0
 32 56  1  0
 33 57  1  0
M  END
$$$$
