
     RDKit          3D

 39 40  0  0  0  0  0  0  0  0999 V2000
   -1.2277   -2.3999    2.6208 C   0  0  0  0  0  0  0  0  0  0  0  0
   -1.5311   -1.8130    1.2451 C   0  0  0  0  0  0  0  0  0  0  0  0
   -2.2199   -0.5731    1.4586 O   0  0  0  0  0  0  0  0  0  0  0  0
   -2.9131   -0.1014    0.3730 C   0  0  0  0  0  0  0  0  0  0  0  0
   -3.8840   -0.8807   -0.2665 C   0  0  0  0  0  0  0  0  0  0  0  0
   -4.5998   -0.3616   -1.3497 C   0  0  0  0  0  0  0  0  0  0  0  0
   -4.3521    0.9491   -1.7813 C   0  0  0  0  0  0  0  0  0  0  0  0
   -5.0974    1.4829   -2.9287 N   0  0  0  0  0  4  0  0  0  0  0  0
   -5.8541    0.7044   -3.5358 O   0  0  0  0  0  0  0  0  0  0  0  0
   -4.9257    2.6761   -3.2230 O   0  0  0  0  0  1  0  0  0  0  0  0
   -3.4106    1.7526   -1.1248 C   0  0  0  0  0  0  0  0  0  0  0  0
   -2.7034    1.2252   -0.0402 C   0  0  0  0  0  0  0  0  0  0  0  0
   -1.5657    2.2424    0.7708 Cl  0  0  0  0  0  0  0  0  0  0  0  0
   -0.2077   -1.6314    0.4746 C   0  0  0  0  0  0  0  0  0  0  0  0
    0.1498   -2.4653   -0.3529 O   0  0  0  0  0  0  0  0  0  0  0  0
    0.4964   -0.5076    0.8739 N   0  0  0  0  0  0  0  0  0  0  0  0
    1.7609   -0.0729    0.4332 C   0  0  0  0  0  0  0  0  0  0  0  0
    2.5405   -0.7581   -0.5017 C   0  0  0  0  0  0  0  0  0  0  0  0
    3.7966   -0.2641   -0.8835 C   0  0  0  0  0  0  0  0  0  0  0  0
    4.2923    0.9201   -0.3236 C   0  0  0  0  0  0  0  0  0  0  0  0
    5.6203    1.4898   -0.6834 C   0  0  0  0  0  0  0  0  0  0  0  0
    6.5224    0.6768   -1.3122 N   0  0  0  0  0  0  0  0  0  0  0  0
    5.9189    2.6449   -0.3993 O   0  0  0  0  0  0  0  0  0  0  0  0
    3.5031    1.6169    0.5984 C   0  0  0  0  0  0  0  0  0  0  0  0
    2.2518    1.1206    0.9785 C   0  0  0  0  0  0  0  0  0  0  0  0
   -0.7088   -3.3597    2.5297 H   0  0  0  0  0  0  0  0  0  0  0  0
   -2.1559   -2.5531    3.1854 H   0  0  0  0  0  0  0  0  0  0  0  0
   -0.6002   -1.7193    3.2129 H   0  0  0  0  0  0  0  0  0  0  0  0
   -2.1483   -2.5316    0.6948 H   0  0  0  0  0  0  0  0  0  0  0  0
   -4.1154   -1.8893    0.0698 H   0  0  0  0  0  0  0  0  0  0  0  0
   -5.3467   -0.9878   -1.8390 H   0  0  0  0  0  0  0  0  0  0  0  0
   -3.2249    2.7760   -1.4459 H   0  0  0  0  0  0  0  0  0  0  0  0
    0.0112    0.1033    1.5278 H   0  0  0  0  0  0  0  0  0  0  0  0
    2.1957   -1.6794   -0.9671 H   0  0  0  0  0  0  0  0  0  0  0  0
    4.3539   -0.8131   -1.6374 H   0  0  0  0  0  0  0  0  0  0  0  0
    7.4457    1.0637   -1.4673 H   0  0  0  0  0  0  0  0  0  0  0  0
    6.4062   -0.3238   -1.4197 H   0  0  0  0  0  0  0  0  0  0  0  0
    3.8579    2.5539    1.0253 H   0  0  0  0  0  0  0  0  0  0  0  0
    1.6688    1.6877    1.7023 H   0  0  0  0  0  0  0  0  0  0  0  0
  1  2  1  0
  2  3  1  0
  3  4  1  0
  4  5  2  0
  5  6  1  0
  6  7  2  0
  7  8  1  0
  8  9  2  0
  8 10  1  0
  7 11  1  0
 11 12  2  0
 12 13  1  0
  2 14  1  0
 14 15  2  0
 14 16  1  0
 16 17  1  0
 17 18  2  0
 18 19  1  0
 19 20  2  0
 20 21  1  0
 21 22  1  0
 21 23  2  0
 20 24  1  0
 24 25  2  0
 12  4  1  0
 25 17  1  0
  1 26  1  0
  1 27  1  0
  1 28  1  0
  2 29  1  0
  5 30  1  0
  6 31  1  0
 11 32  1  0
 16 33  1  0
 18 34  1  0
 19 35  1  0
 22 36  1  0
 22 37  1  0
 24 38  1  0
 25 39  1  0
M  CHG  2   8   1  10  -1
M  END
$$$$
