
     RDKit          3D

 69 71  0  0  0  0  0  0  0  0999 V2000
   -4.4812    3.9368   -0.8971 C   0  0  0  0  0  0  0  0  0  0  0  0
   -4.0441    2.6164   -0.6007 O   0  0  0  0  0  0  0  0  0  0  0  0
   -3.0661    2.0728   -1.3946 C   0  0  0  0  0  0  0  0  0  0  0  0
   -2.6720    2.6386   -2.6120 C   0  0  0  0  0  0  0  0  0  0  0  0
   -1.6446    2.0681   -3.3587 C   0  0  0  0  0  0  0  0  0  0  0  0
   -0.9963    0.9296   -2.8911 C   0  0  0  0  0  0  0  0  0  0  0  0
   -1.3693    0.3247   -1.6734 C   0  0  0  0  0  0  0  0  0  0  0  0
   -0.6016   -0.9355   -1.2240 C   0  0  0  0  0  0  0  0  0  0  0  0
   -1.4400   -2.2632   -1.2462 C   0  0  0  0  0  0  0  0  0  0  0  0
   -1.0009   -3.3168   -0.7787 O   0  0  0  0  0  0  0  0  0  0  0  0
   -2.6422   -2.2326   -1.9366 N   0  0  0  0  0  0  0  0  0  0  0  0
   -3.5705   -3.3641   -2.0776 C   0  0  0  0  0  0  0  0  0  0  0  0
   -2.9179   -4.5221   -2.8472 C   0  0  0  0  0  0  0  0  0  0  0  0
   -4.0627   -3.8492   -0.7053 C   0  0  0  0  0  0  0  0  0  0  0  0
   -4.7883   -2.8765   -2.8844 C   0  0  0  0  0  0  0  0  0  0  0  0
    0.2858   -0.6744   -0.0560 N   0  0  0  0  0  0  0  0  0  0  0  0
    1.4238    0.1126   -0.2997 C   0  0  0  0  0  0  0  0  0  0  0  0
    1.6432    0.6656   -1.3785 O   0  0  0  0  0  0  0  0  0  0  0  0
    2.4147    0.2508    0.8448 C   0  0  0  0  0  0  0  0  0  0  0  0
    3.5727    1.1732    0.4725 C   0  0  0  0  0  0  0  0  0  0  0  0
    4.5683    1.3103    1.6052 C   0  0  0  0  0  0  0  0  0  0  0  0
    4.4975    0.6378    2.6291 O   0  0  0  0  0  0  0  0  0  0  0  0
    5.5334    2.2510    1.3267 N   0  0  0  0  0  0  0  0  0  0  0  0
    6.5924    2.5706    2.1489 C   0  0  0  0  0  0  0  0  0  0  0  0
    6.9604    2.0214    3.3978 C   0  0  0  0  0  0  0  0  0  0  0  0
    8.0950    2.7061    3.7560 C   0  0  0  0  0  0  0  0  0  0  0  0
    8.9976    2.6557    4.9194 C   0  0  0  0  0  0  0  0  0  0  0  0
    8.3899    3.6136    2.7883 O   0  0  0  0  0  0  0  0  0  0  0  0
    7.4499    3.5273    1.7765 N   0  0  0  0  0  0  0  0  0  0  0  0
    0.2416   -1.5686    1.0870 C   0  0  0  0  0  0  0  0  0  0  0  0
   -0.9950   -1.9271    1.8694 C   0  0  0  0  0  0  0  0  0  0  0  0
    0.0261   -1.0330    2.4848 C   0  0  0  0  0  0  0  0  0  0  0  0
   -2.4358    0.8896   -0.9426 C   0  0  0  0  0  0  0  0  0  0  0  0
   -2.7681    0.2325    0.2132 O   0  0  0  0  0  0  0  0  0  0  0  0
   -4.1567    0.1497    0.5208 C   0  0  0  0  0  0  0  0  0  0  0  0
   -5.1540    4.2549   -0.0938 H   0  0  0  0  0  0  0  0  0  0  0  0
   -3.6422    4.6407   -0.9253 H   0  0  0  0  0  0  0  0  0  0  0  0
   -5.0498    3.9586   -1.8320 H   0  0  0  0  0  0  0  0  0  0  0  0
   -3.1425    3.5325   -3.0088 H   0  0  0  0  0  0  0  0  0  0  0  0
   -1.3311    2.5254   -4.2939 H   0  0  0  0  0  0  0  0  0  0  0  0
   -0.1693    0.5252   -3.4751 H   0  0  0  0  0  0  0  0  0  0  0  0
    0.1080   -1.1535   -2.0391 H   0  0  0  0  0  0  0  0  0  0  0  0
   -2.9843   -1.3282   -2.2336 H   0  0  0  0  0  0  0  0  0  0  0  0
   -2.0841   -4.9672   -2.2960 H   0  0  0  0  0  0  0  0  0  0  0  0
   -2.5252   -4.1808   -3.8123 H   0  0  0  0  0  0  0  0  0  0  0  0
   -3.6401   -5.3235   -3.0419 H   0  0  0  0  0  0  0  0  0  0  0  0
   -3.2494   -4.2638   -0.1020 H   0  0  0  0  0  0  0  0  0  0  0  0
   -4.5043   -3.0281   -0.1323 H   0  0  0  0  0  0  0  0  0  0  0  0
   -4.8209   -4.6314   -0.8136 H   0  0  0  0  0  0  0  0  0  0  0  0
   -4.4856   -2.5100   -3.8724 H   0  0  0  0  0  0  0  0  0  0  0  0
   -5.2939   -2.0494   -2.3711 H   0  0  0  0  0  0  0  0  0  0  0  0
   -5.5219   -3.6770   -3.0334 H   0  0  0  0  0  0  0  0  0  0  0  0
    2.8018   -0.7411    1.1034 H   0  0  0  0  0  0  0  0  0  0  0  0
    1.8994    0.6713    1.7135 H   0  0  0  0  0  0  0  0  0  0  0  0
    4.1051    0.7840   -0.4038 H   0  0  0  0  0  0  0  0  0  0  0  0
    3.1876    2.1691    0.2212 H   0  0  0  0  0  0  0  0  0  0  0  0
    5.4970    2.7924    0.4729 H   0  0  0  0  0  0  0  0  0  0  0  0
    6.4749    1.2382    3.9610 H   0  0  0  0  0  0  0  0  0  0  0  0
    9.2113    1.6175    5.1963 H   0  0  0  0  0  0  0  0  0  0  0  0
    9.9503    3.1502    4.7052 H   0  0  0  0  0  0  0  0  0  0  0  0
    8.5385    3.1526    5.7808 H   0  0  0  0  0  0  0  0  0  0  0  0
    0.9557   -2.3853    0.9780 H   0  0  0  0  0  0  0  0  0  0  0  0
   -1.0722   -2.9463    2.2330 H   0  0  0  0  0  0  0  0  0  0  0  0
   -1.9470   -1.4962    1.6089 H   0  0  0  0  0  0  0  0  0  0  0  0
    0.6462   -1.4332    3.2785 H   0  0  0  0  0  0  0  0  0  0  0  0
   -0.2445    0.0079    2.6123 H   0  0  0  0  0  0  0  0  0  0  0  0
   -4.4471    0.9716    1.1809 H   0  0  0  0  0  0  0  0  0  0  0  0
   -4.3185   -0.7811    1.0721 H   0  0  0  0  0  0  0  0  0  0  0  0
   -4.7870    0.1121   -0.3736 H   0  0  0  0  0  0  0  0  0  0  0  0
  1  2  1  0
  2  3  1  0
  3  4  2  0
  4  5  1  0
  5  6  2  0
  6  7  1  0
  7  8  1  0
  8  9  1  0
  9 10  2  0
  9 11  1  0
 11 12  1  0
 12 13  1  0
 12 14  1  0
 12 15  1  0
  8 16  1  0
 16 17  1  0
 17 18  2  0
 17 19  1  0
 19 20  1  0
 20 21  1  0
 21 22  2  0
 21 23  1  0
 23 24  1  0
 24 25  1  0
 25 26  2  0
 26 27  1  0
 26 28  1  0
 28 29  1  0
 16 30  1  0
 30 31  1  0
 31 32  1  0
  7 33  2  0
 33 34  1  0
 34 35  1  0
 33  3  1  0
 29 24  2  0
 32 30  1  0
  1 36  1  0
  1 37  1  0
  1 38  1  0
  4 39  1  0
  5 40  1  0
  6 41  1  0
  8 42  1  0
 11 43  1  0
 13 44  1  0
 13 45  1  0
 13 46  1  0
 14 47  1  0
 14 48  1  0
 14 49  1  0
 15 50  1  0
 15 51  1  0
 15 52  1  0
 19 53  1  0
 19 54  1  0
 20 55  1  0
 20 56  1  0
 23 57  1  0
 25 58  1  0
 27 59  1  0
 27 60  1  0
 27 61  1  0
 30 62  1  0
 31 63  1  0
 31 64  1  0
 32 65  1  0
 32 66  1  0
 35 67  1  0
 35 68  1  0
 35 69  1  0
M  END
$$$$
