
     RDKit          3D

 37 38  0  0  0  0  0  0  0  0999 V2000
   -5.8810   -1.3022   -0.9067 C   0  0  0  0  0  0  0  0  0  0  0  0
   -5.0697   -0.1086   -1.1431 N   0  0  0  0  0  0  0  0  0  0  0  0
   -5.5067    0.7412   -2.2502 C   0  0  0  0  0  0  0  0  0  0  0  0
   -3.7212   -0.1123   -0.7747 C   0  0  0  0  0  0  0  0  0  0  0  0
   -3.1795   -1.0912    0.0754 C   0  0  0  0  0  0  0  0  0  0  0  0
   -1.8303   -1.0874    0.4649 C   0  0  0  0  0  0  0  0  0  0  0  0
   -0.9608   -0.0961    0.0132 C   0  0  0  0  0  0  0  0  0  0  0  0
    0.4365   -0.1050    0.4685 C   0  0  0  0  0  0  0  0  0  0  0  0
    1.4739    0.2290   -0.3165 C   0  0  0  0  0  0  0  0  0  0  0  0
    2.8715    0.2232    0.1304 C   0  0  0  0  0  0  0  0  0  0  0  0
    3.3847   -0.7698    0.9637 C   0  0  0  0  0  0  0  0  0  0  0  0
    4.7250   -0.7375    1.3324 C   0  0  0  0  0  0  0  0  0  0  0  0
    5.5380    0.2463    0.8878 N   0  0  0  0  0  4  0  0  0  0  0  0
    6.9559    0.2550    1.2856 C   0  0  0  0  0  0  0  0  0  0  0  0
    5.0695    1.2065    0.0602 C   0  0  0  0  0  0  0  0  0  0  0  0
    3.7366    1.2117   -0.3356 C   0  0  0  0  0  0  0  0  0  0  0  0
   -1.4782    0.9052   -0.8072 C   0  0  0  0  0  0  0  0  0  0  0  0
   -2.8296    0.8917   -1.1895 C   0  0  0  0  0  0  0  0  0  0  0  0
   -5.9413   -1.5349    0.1619 H   0  0  0  0  0  0  0  0  0  0  0  0
   -5.4789   -2.1645   -1.4499 H   0  0  0  0  0  0  0  0  0  0  0  0
   -6.9145   -1.1543   -1.2397 H   0  0  0  0  0  0  0  0  0  0  0  0
   -6.5813    0.6342   -2.4359 H   0  0  0  0  0  0  0  0  0  0  0  0
   -4.9841    0.4792   -3.1768 H   0  0  0  0  0  0  0  0  0  0  0  0
   -5.3459    1.8006   -2.0234 H   0  0  0  0  0  0  0  0  0  0  0  0
   -3.7989   -1.8916    0.4691 H   0  0  0  0  0  0  0  0  0  0  0  0
   -1.4797   -1.8774    1.1246 H   0  0  0  0  0  0  0  0  0  0  0  0
    0.5780   -0.4115    1.5019 H   0  0  0  0  0  0  0  0  0  0  0  0
    1.3039    0.5332   -1.3482 H   0  0  0  0  0  0  0  0  0  0  0  0
    2.7533   -1.5806    1.3219 H   0  0  0  0  0  0  0  0  0  0  0  0
    5.1567   -1.4976    1.9775 H   0  0  0  0  0  0  0  0  0  0  0  0
    7.0515   -0.1870    2.2807 H   0  0  0  0  0  0  0  0  0  0  0  0
    7.5071   -0.3294    0.5447 H   0  0  0  0  0  0  0  0  0  0  0  0
    7.3141    1.2873    1.3130 H   0  0  0  0  0  0  0  0  0  0  0  0
    5.7686    1.9645   -0.2821 H   0  0  0  0  0  0  0  0  0  0  0  0
    3.3783    1.9957   -1.0007 H   0  0  0  0  0  0  0  0  0  0  0  0
   -0.8542    1.7251   -1.1518 H   0  0  0  0  0  0  0  0  0  0  0  0
   -3.1671    1.7091   -1.8198 H   0  0  0  0  0  0  0  0  0  0  0  0
  1  2  1  0
  2  3  1  0
  2  4  1  0
  4  5  2  0
  5  6  1  0
  6  7  2  0
  7  8  1  0
  8  9  2  3
  9 10  1  0
 10 11  2  0
 11 12  1  0
 12 13  2  0
 13 14  1  0
 13 15  1  0
 15 16  2  0
  7 17  1  0
 17 18  2  0
 18  4  1  0
 16 10  1  0
  1 19  1  0
  1 20  1  0
  1 21  1  0
  3 22  1  0
  3 23  1  0
  3 24  1  0
  5 25  1  0
  6 26  1  0
  8 27  1  0
  9 28  1  0
 11 29  1  0
 12 30  1  0
 14 31  1  0
 14 32  1  0
 14 33  1  0
 15 34  1  0
 16 35  1  0
 17 36  1  0
 18 37  1  0
M  CHG  1  13   1
M  END
$$$$
