
     RDKit          3D

 84 86  0  0  0  0  0  0  0  0999 V2000
    1.6813    3.5537    3.9770 C   0  0  0  0  0  0  0  0  0  0  0  0
    1.1158    2.1899    3.7269 C   0  0  0  0  0  0  0  0  0  0  0  0
    1.7853    1.2024    3.4592 O   0  0  0  0  0  0  0  0  0  0  0  0
   -0.2411    2.2252    3.8364 O   0  0  0  0  0  0  0  0  0  0  0  0
   -0.9166    0.9837    3.5891 C   0  0  1  0  0  0  0  0  0  0  0  0
   -2.4061    1.0357    3.9941 C   0  0  1  0  0  0  0  0  0  0  0  0
   -2.9764    2.4239    4.2617 C   0  0  0  0  0  0  0  0  0  0  0  0
   -3.1701    0.2996    2.8747 C   0  0  0  0  0  0  0  0  0  0  0  0
   -2.1160   -0.4543    2.0243 C   0  0  2  0  0  0  0  0  0  0  0  0
   -2.5576   -0.5722    0.6631 O   0  0  0  0  0  0  0  0  0  0  0  0
   -3.6722   -1.3035    0.4060 C   0  0  0  0  0  0  0  0  0  0  0  0
   -3.9446   -1.3220   -1.0672 C   0  0  0  0  0  0  0  0  0  0  0  0
   -4.3404   -1.8927    1.2428 O   0  0  0  0  0  0  0  0  0  0  0  0
   -1.7229   -1.8137    2.7172 C   0  0  0  0  0  0  0  0  0  0  0  0
   -1.6522   -1.8854    3.9514 O   0  0  0  0  0  0  0  0  0  0  0  0
   -1.4471   -3.0950    1.9546 C   0  0  0  0  0  0  0  0  0  0  0  0
   -2.0603   -4.2928    2.6420 C   0  0  0  0  0  0  0  0  0  0  0  0
   -0.7129   -3.2736    0.8371 C   0  0  0  0  0  0  0  0  0  0  0  0
   -0.0110   -2.2480    0.0037 C   0  0  0  0  0  0  0  0  0  0  0  0
    1.5346   -2.2615   -0.1014 C   0  0  0  0  0  0  0  0  0  0  0  0
    2.1757   -2.2786    1.3037 C   0  0  0  0  0  0  0  0  0  0  0  0
    1.9874   -3.5453   -0.8357 C   0  0  0  0  0  0  0  0  0  0  0  0
    2.0184   -1.0094   -0.9437 C   0  0  2  0  0  0  0  0  0  0  0  0
    3.4701   -1.0433   -0.9821 O   0  0  0  0  0  0  0  0  0  0  0  0
    4.0596   -0.5338   -2.0984 C   0  0  0  0  0  0  0  0  0  0  0  0
    5.5486   -0.6435   -1.9823 C   0  0  0  0  0  0  0  0  0  0  0  0
    3.4744   -0.0491   -3.0579 O   0  0  0  0  0  0  0  0  0  0  0  0
    1.6012    0.3902   -0.4095 C   0  0  0  0  0  0  0  0  0  0  0  0
    0.2265    0.8647   -0.9209 C   0  0  2  0  0  0  0  0  0  0  0  0
    0.4278    1.3624   -2.2658 O   0  0  0  0  0  0  0  0  0  0  0  0
   -0.0336    0.6002   -3.2874 C   0  0  0  0  0  0  0  0  0  0  0  0
   -0.6703   -0.4374   -3.1802 O   0  0  0  0  0  0  0  0  0  0  0  0
    0.3308    1.2065   -4.5954 C   0  0  0  0  0  0  0  0  0  0  0  0
    1.2315    2.2748   -4.7023 C   0  0  0  0  0  0  0  0  0  0  0  0
    1.5500    2.8010   -5.9566 C   0  0  0  0  0  0  0  0  0  0  0  0
    0.9738    2.2637   -7.1075 C   0  0  0  0  0  0  0  0  0  0  0  0
    0.0808    1.1976   -7.0090 C   0  0  0  0  0  0  0  0  0  0  0  0
   -0.2398    0.6687   -5.7571 C   0  0  0  0  0  0  0  0  0  0  0  0
   -0.4249    1.9507   -0.0652 C   0  0  0  0  0  0  0  0  0  0  0  0
   -0.5314    3.3188   -0.7007 C   0  0  0  0  0  0  0  0  0  0  0  0
   -0.9706    1.7606    1.1605 C   0  0  0  0  0  0  0  0  0  0  0  0
   -0.9119    0.5425    2.0939 C   0  0  1  0  0  0  0  0  0  0  0  0
    2.7640    3.5300    3.8269 H   0  0  0  0  0  0  0  0  0  0  0  0
    1.4755    3.8569    5.0060 H   0  0  0  0  0  0  0  0  0  0  0  0
    1.2522    4.2687    3.2702 H   0  0  0  0  0  0  0  0  0  0  0  0
   -0.4287    0.2158    4.2034 H   0  0  0  0  0  0  0  0  0  0  0  0
   -2.5203    0.4629    4.9234 H   0  0  0  0  0  0  0  0  0  0  0  0
   -2.8974    3.0741    3.3858 H   0  0  0  0  0  0  0  0  0  0  0  0
   -4.0357    2.3560    4.5319 H   0  0  0  0  0  0  0  0  0  0  0  0
   -2.4541    2.9080    5.0935 H   0  0  0  0  0  0  0  0  0  0  0  0
   -3.9110   -0.3814    3.3118 H   0  0  0  0  0  0  0  0  0  0  0  0
   -3.7265    1.0082    2.2471 H   0  0  0  0  0  0  0  0  0  0  0  0
   -3.8259   -0.3183   -1.4830 H   0  0  0  0  0  0  0  0  0  0  0  0
   -3.2625   -2.0199   -1.5595 H   0  0  0  0  0  0  0  0  0  0  0  0
   -4.9784   -1.6382   -1.2378 H   0  0  0  0  0  0  0  0  0  0  0  0
   -1.9629   -5.2073    2.0474 H   0  0  0  0  0  0  0  0  0  0  0  0
   -1.5777   -4.4761    3.6071 H   0  0  0  0  0  0  0  0  0  0  0  0
   -3.1293   -4.1293    2.8113 H   0  0  0  0  0  0  0  0  0  0  0  0
   -0.6172   -4.2897    0.4528 H   0  0  0  0  0  0  0  0  0  0  0  0
   -0.4425   -2.2936   -1.0040 H   0  0  0  0  0  0  0  0  0  0  0  0
   -0.2810   -1.2939    0.4163 H   0  0  0  0  0  0  0  0  0  0  0  0
    1.9485   -3.2106    1.8325 H   0  0  0  0  0  0  0  0  0  0  0  0
    3.2675   -2.2013    1.2524 H   0  0  0  0  0  0  0  0  0  0  0  0
    1.8138   -1.4569    1.9276 H   0  0  0  0  0  0  0  0  0  0  0  0
    1.6819   -4.4485   -0.2962 H   0  0  0  0  0  0  0  0  0  0  0  0
    1.5536   -3.5959   -1.8409 H   0  0  0  0  0  0  0  0  0  0  0  0
    3.0773   -3.5875   -0.9416 H   0  0  0  0  0  0  0  0  0  0  0  0
    1.6420   -1.1431   -1.9645 H   0  0  0  0  0  0  0  0  0  0  0  0
    6.0116   -0.2696   -2.8999 H   0  0  0  0  0  0  0  0  0  0  0  0
    5.8341   -1.6898   -1.8495 H   0  0  0  0  0  0  0  0  0  0  0  0
    5.8983   -0.0392   -1.1415 H   0  0  0  0  0  0  0  0  0  0  0  0
    1.6645    0.3968    0.6802 H   0  0  0  0  0  0  0  0  0  0  0  0
    2.3511    1.1265   -0.7296 H   0  0  0  0  0  0  0  0  0  0  0  0
   -0.5009    0.0580   -0.9648 H   0  0  0  0  0  0  0  0  0  0  0  0
    1.7060    2.6949   -3.8191 H   0  0  0  0  0  0  0  0  0  0  0  0
    2.2547    3.6248   -6.0344 H   0  0  0  0  0  0  0  0  0  0  0  0
    1.2250    2.6735   -8.0825 H   0  0  0  0  0  0  0  0  0  0  0  0
   -0.3607    0.7734   -7.9074 H   0  0  0  0  0  0  0  0  0  0  0  0
   -0.9319   -0.1684   -5.6920 H   0  0  0  0  0  0  0  0  0  0  0  0
   -1.1734    3.2839   -1.5859 H   0  0  0  0  0  0  0  0  0  0  0  0
   -0.9532    4.0646   -0.0195 H   0  0  0  0  0  0  0  0  0  0  0  0
    0.4613    3.6792   -0.9916 H   0  0  0  0  0  0  0  0  0  0  0  0
   -1.4843    2.6180    1.5987 H   0  0  0  0  0  0  0  0  0  0  0  0
    0.0293    0.0232    1.9253 H   0  0  0  0  0  0  0  0  0  0  0  0
  1  2  1  0
  2  3  2  0
  2  4  1  0
  4  5  1  0
  5  6  1  0
  6  7  1  0
  6  8  1  0
  8  9  1  0
  9 10  1  6
 10 11  1  0
 11 12  1  0
 11 13  2  0
  9 14  1  0
 14 15  2  0
 14 16  1  0
 16 17  1  0
 16 18  2  3
 18 19  1  0
 19 20  1  0
 20 21  1  0
 20 22  1  0
 20 23  1  0
 23 24  1  0
 24 25  1  0
 25 26  1  0
 25 27  2  0
 23 28  1  0
 28 29  1  0
 29 30  1  0
 30 31  1  0
 31 32  2  0
 31 33  1  0
 33 34  2  0
 34 35  1  0
 35 36  2  0
 36 37  1  0
 37 38  2  0
 29 39  1  0
 39 40  1  0
 39 41  2  0
 41 42  1  0
 42  5  1  0
 42  9  1  0
 38 33  1  0
  1 43  1  0
  1 44  1  0
  1 45  1  0
  5 46  1  1
  6 47  1  1
  7 48  1  0
  7 49  1  0
  7 50  1  0
  8 51  1  0
  8 52  1  0
 12 53  1  0
 12 54  1  0
 12 55  1  0
 17 56  1  0
 17 57  1  0
 17 58  1  0
 18 59  1  0
 19 60  1  0
 19 61  1  0
 21 62  1  0
 21 63  1  0
 21 64  1  0
 22 65  1  0
 22 66  1  0
 22 67  1  0
 23 68  1  6
 26 69  1  0
 26 70  1  0
 26 71  1  0
 28 72  1  0
 28 73  1  0
 29 74  1  6
 34 75  1  0
 35 76  1  0
 36 77  1  0
 37 78  1  0
 38 79  1  0
 40 80  1  0
 40 81  1  0
 40 82  1  0
 41 83  1  0
 42 84  1  6
M  END
$$$$
