
     RDKit          3D

 20 21  0  0  0  0  0  0  0  0999 V2000
    4.5374    0.0822    0.6775 O   0  0  0  0  0  0  0  0  0  0  0  0
    3.8090    0.0580   -0.3066 C   0  0  0  0  0  0  0  0  0  0  0  0
    2.3373    0.0356   -0.1899 C   0  0  0  0  0  0  0  0  0  0  0  0
    1.7322    0.0417    1.0702 C   0  0  0  0  0  0  0  0  0  0  0  0
    0.3378    0.0204    1.1798 C   0  0  0  0  0  0  0  0  0  0  0  0
   -0.4538   -0.0071    0.0226 C   0  0  0  0  0  0  0  0  0  0  0  0
   -1.8710   -0.0291    0.1031 N   0  0  0  0  0  0  0  0  0  0  0  0
   -2.6768   -0.0281    1.2165 C   0  0  0  0  0  0  0  0  0  0  0  0
   -3.9439   -0.0530    0.8701 N   0  0  0  0  0  0  0  0  0  0  0  0
   -3.8799   -0.0692   -0.4889 C   0  0  0  0  0  0  0  0  0  0  0  0
   -2.6516   -0.0558   -1.0070 N   0  0  0  0  0  0  0  0  0  0  0  0
    0.1635   -0.0130   -1.2402 C   0  0  0  0  0  0  0  0  0  0  0  0
    1.5572    0.0082   -1.3469 C   0  0  0  0  0  0  0  0  0  0  0  0
    4.2239    0.0518   -1.3286 H   0  0  0  0  0  0  0  0  0  0  0  0
    2.3458    0.0630    1.9697 H   0  0  0  0  0  0  0  0  0  0  0  0
   -0.0885    0.0261    2.1789 H   0  0  0  0  0  0  0  0  0  0  0  0
   -2.3047   -0.0092    2.2295 H   0  0  0  0  0  0  0  0  0  0  0  0
   -4.7572   -0.0915   -1.1235 H   0  0  0  0  0  0  0  0  0  0  0  0
   -0.4312   -0.0343   -2.1532 H   0  0  0  0  0  0  0  0  0  0  0  0
    2.0146    0.0032   -2.3332 H   0  0  0  0  0  0  0  0  0  0  0  0
  1  2  2  0
  2  3  1  0
  3  4  2  0
  4  5  1  0
  5  6  2  0
  6  7  1  0
  7  8  1  0
  8  9  2  0
  9 10  1  0
 10 11  2  0
  6 12  1  0
 12 13  2  0
 13  3  1  0
 11  7  1  0
  2 14  1  0
  4 15  1  0
  5 16  1  0
  8 17  1  0
 10 18  1  0
 12 19  1  0
 13 20  1  0
M  END
$$$$
