
     RDKit          3D

 43 45  0  0  0  0  0  0  0  0999 V2000
   -6.2413   -1.6275    0.9784 C   0  0  0  0  0  0  0  0  0  0  0  0
   -5.0612   -0.8659    1.3925 N   0  0  0  0  0  0  0  0  0  0  0  0
   -5.2336   -0.0709    2.6069 C   0  0  0  0  0  0  0  0  0  0  0  0
   -4.2453   -0.3704    0.3646 C   0  0  0  0  0  0  0  0  0  0  0  0
   -3.9798   -1.1388   -0.7832 C   0  0  0  0  0  0  0  0  0  0  0  0
   -3.1549   -0.6768   -1.8185 C   0  0  0  0  0  0  0  0  0  0  0  0
   -2.5576    0.5771   -1.7331 C   0  0  0  0  0  0  0  0  0  0  0  0
   -1.6979    1.0560   -2.8169 C   0  0  0  0  0  0  0  0  0  0  0  0
   -0.3555    1.1052   -2.8009 C   0  0  0  0  0  0  0  0  0  0  0  0
    0.5045    0.6820   -1.7098 C   0  0  0  0  0  0  0  0  0  0  0  0
    1.8439    0.7500   -1.6764 C   0  0  0  0  0  0  0  0  0  0  0  0
    2.8937    1.3416   -2.8904 S   0  0  0  0  0  0  0  0  0  0  0  0
    4.3347    1.1057   -1.8995 C   0  0  0  0  0  0  0  0  0  0  0  0
    5.8037    1.7069   -2.4364 S   0  0  0  0  0  0  0  0  0  0  0  0
    3.9920    0.4823   -0.7035 N   0  0  0  0  0  0  0  0  0  0  0  0
    4.9319    0.0656    0.2986 C   0  0  0  0  0  0  0  0  0  0  0  0
    4.6411    0.2229    1.6633 C   0  0  0  0  0  0  0  0  0  0  0  0
    5.5463   -0.1834    2.6495 C   0  0  0  0  0  0  0  0  0  0  0  0
    6.7560   -0.7668    2.2886 C   0  0  0  0  0  0  0  0  0  0  0  0
    7.0552   -0.9520    0.9434 C   0  0  0  0  0  0  0  0  0  0  0  0
    6.1492   -0.5439   -0.0421 C   0  0  0  0  0  0  0  0  0  0  0  0
    2.6254    0.2808   -0.4974 C   0  0  0  0  0  0  0  0  0  0  0  0
    2.0785   -0.2323    0.4717 O   0  0  0  0  0  0  0  0  0  0  0  0
   -2.7890    1.3568   -0.6018 C   0  0  0  0  0  0  0  0  0  0  0  0
   -3.6117    0.8827    0.4308 C   0  0  0  0  0  0  0  0  0  0  0  0
   -5.9666   -2.5785    0.5122 H   0  0  0  0  0  0  0  0  0  0  0  0
   -6.8612   -1.0461    0.2865 H   0  0  0  0  0  0  0  0  0  0  0  0
   -6.8651   -1.8852    1.8421 H   0  0  0  0  0  0  0  0  0  0  0  0
   -4.2688    0.1934    3.0529 H   0  0  0  0  0  0  0  0  0  0  0  0
   -5.7732   -0.6445    3.3690 H   0  0  0  0  0  0  0  0  0  0  0  0
   -5.8069    0.8405    2.4054 H   0  0  0  0  0  0  0  0  0  0  0  0
   -4.3916   -2.1390   -0.8854 H   0  0  0  0  0  0  0  0  0  0  0  0
   -2.9765   -1.3167   -2.6789 H   0  0  0  0  0  0  0  0  0  0  0  0
   -2.2328    1.3865   -3.7060 H   0  0  0  0  0  0  0  0  0  0  0  0
    0.1299    1.4909   -3.6960 H   0  0  0  0  0  0  0  0  0  0  0  0
   -0.0027    0.2661   -0.8371 H   0  0  0  0  0  0  0  0  0  0  0  0
    3.7136    0.6875    1.9913 H   0  0  0  0  0  0  0  0  0  0  0  0
    5.3017   -0.0416    3.6998 H   0  0  0  0  0  0  0  0  0  0  0  0
    7.4578   -1.0868    3.0537 H   0  0  0  0  0  0  0  0  0  0  0  0
    7.9905   -1.4262    0.6560 H   0  0  0  0  0  0  0  0  0  0  0  0
    6.4054   -0.7616   -1.0759 H   0  0  0  0  0  0  0  0  0  0  0  0
   -2.3310    2.3380   -0.5058 H   0  0  0  0  0  0  0  0  0  0  0  0
   -3.7505    1.5364    1.2866 H   0  0  0  0  0  0  0  0  0  0  0  0
  1  2  1  0
  2  3  1  0
  2  4  1  0
  4  5  2  0
  5  6  1  0
  6  7  2  0
  7  8  1  0
  8  9  2  3
  9 10  1  0
 10 11  2  3
 11 12  1  0
 12 13  1  0
 13 14  2  0
 13 15  1  0
 15 16  1  0
 16 17  2  0
 17 18  1  0
 18 19  2  0
 19 20  1  0
 20 21  2  0
 15 22  1  0
 22 23  2  0
  7 24  1  0
 24 25  2  0
 25  4  1  0
 22 11  1  0
 21 16  1  0
  1 26  1  0
  1 27  1  0
  1 28  1  0
  3 29  1  0
  3 30  1  0
  3 31  1  0
  5 32  1  0
  6 33  1  0
  8 34  1  0
  9 35  1  0
 10 36  1  0
 17 37  1  0
 18 38  1  0
 19 39  1  0
 20 40  1  0
 21 41  1  0
 24 42  1  0
 25 43  1  0
M  END
$$$$
