
     RDKit          3D

 59 62  0  0  0  0  0  0  0  0999 V2000
   -4.2274   -2.9324   -3.8857 C   0  0  0  0  0  0  0  0  0  0  0  0
   -4.8145   -1.5730   -3.5484 C   0  0  0  0  0  0  0  0  0  0  0  0
   -4.7403   -1.2802   -2.1251 N   0  0  0  0  0  0  0  0  0  0  0  0
   -5.7236   -1.5986   -1.2077 C   0  0  0  0  0  0  0  0  0  0  0  0
   -6.9575   -2.2547   -1.3594 C   0  0  0  0  0  0  0  0  0  0  0  0
   -7.7561   -2.4326   -0.2253 C   0  0  0  0  0  0  0  0  0  0  0  0
   -7.3409   -1.9747    1.0203 C   0  0  0  0  0  0  0  0  0  0  0  0
   -6.1102   -1.3264    1.1628 C   0  0  0  0  0  0  0  0  0  0  0  0
   -5.2852   -1.1346    0.0337 C   0  0  0  0  0  0  0  0  0  0  0  0
   -4.0021   -0.5327   -0.1561 C   0  0  0  0  0  0  0  0  0  0  0  0
   -3.0844    0.0936    0.7203 C   0  0  0  0  0  0  0  0  0  0  0  0
   -1.8751    0.5949    0.2306 C   0  0  0  0  0  0  0  0  0  0  0  0
   -0.9107    1.2339    1.0340 N   0  0  0  0  0  0  0  0  0  0  0  0
   -0.9447    1.4551    2.4029 C   0  0  0  0  0  0  0  0  0  0  0  0
   -1.8410    1.1272    3.1747 O   0  0  0  0  0  0  0  0  0  0  0  0
    0.2775    2.2413    2.9022 C   0  0  0  0  0  0  0  0  0  0  0  0
    0.0650    3.7266    2.6390 C   0  0  0  0  0  0  0  0  0  0  0  0
    1.4331    1.7726    2.1780 O   0  0  0  0  0  0  0  0  0  0  0  0
    2.6255    1.9756    2.7886 C   0  0  0  0  0  0  0  0  0  0  0  0
    2.7991    2.5615    3.8436 O   0  0  0  0  0  0  0  0  0  0  0  0
    3.7266    1.3971    1.9741 C   0  0  0  0  0  0  0  0  0  0  0  0
    5.0419    1.7630    2.2780 C   0  0  0  0  0  0  0  0  0  0  0  0
    6.1142    1.2412    1.5427 C   0  0  0  0  0  0  0  0  0  0  0  0
    5.8877    0.3425    0.4988 C   0  0  0  0  0  0  0  0  0  0  0  0
    6.9084   -0.2331   -0.2882 N   0  0  0  0  0  0  0  0  0  0  0  0
    8.2680    0.0424   -0.2349 C   0  0  0  0  0  0  0  0  0  0  0  0
    8.8145    0.8505    0.5108 O   0  0  0  0  0  0  0  0  0  0  0  0
    9.0925   -0.7899   -1.1919 C   0  0  0  0  0  0  0  0  0  0  0  0
    8.8439   -0.3813   -2.5714 C   0  0  0  0  0  0  0  0  0  0  0  0
    8.6126   -0.0910   -3.6709 N   0  0  0  0  0  0  0  0  0  0  0  0
    4.5691   -0.0316    0.2047 C   0  0  0  0  0  0  0  0  0  0  0  0
    3.4946    0.4895    0.9352 C   0  0  0  0  0  0  0  0  0  0  0  0
   -1.5838    0.4707   -1.1308 C   0  0  0  0  0  0  0  0  0  0  0  0
   -2.4728   -0.1448   -2.0207 C   0  0  0  0  0  0  0  0  0  0  0  0
   -3.6817   -0.6391   -1.5092 C   0  0  0  0  0  0  0  0  0  0  0  0
   -4.7595   -3.7347   -3.3641 H   0  0  0  0  0  0  0  0  0  0  0  0
   -3.1723   -2.9908   -3.5982 H   0  0  0  0  0  0  0  0  0  0  0  0
   -4.2981   -3.1197   -4.9613 H   0  0  0  0  0  0  0  0  0  0  0  0
   -4.2877   -0.7797   -4.0888 H   0  0  0  0  0  0  0  0  0  0  0  0
   -5.8641   -1.5173   -3.8556 H   0  0  0  0  0  0  0  0  0  0  0  0
   -7.2942   -2.6201   -2.3241 H   0  0  0  0  0  0  0  0  0  0  0  0
   -8.7155   -2.9361   -0.3202 H   0  0  0  0  0  0  0  0  0  0  0  0
   -7.9738   -2.1214    1.8917 H   0  0  0  0  0  0  0  0  0  0  0  0
   -5.7905   -0.9732    2.1394 H   0  0  0  0  0  0  0  0  0  0  0  0
   -3.3523    0.1680    1.7680 H   0  0  0  0  0  0  0  0  0  0  0  0
   -0.0657    1.5452    0.5699 H   0  0  0  0  0  0  0  0  0  0  0  0
    0.3876    2.0310    3.9728 H   0  0  0  0  0  0  0  0  0  0  0  0
    0.8992    4.3183    3.0285 H   0  0  0  0  0  0  0  0  0  0  0  0
    0.0065    3.9341    1.5644 H   0  0  0  0  0  0  0  0  0  0  0  0
   -0.8588    4.0817    3.1059 H   0  0  0  0  0  0  0  0  0  0  0  0
    5.2456    2.4583    3.0917 H   0  0  0  0  0  0  0  0  0  0  0  0
    7.1146    1.5583    1.8220 H   0  0  0  0  0  0  0  0  0  0  0  0
    6.5912   -0.8756   -1.0057 H   0  0  0  0  0  0  0  0  0  0  0  0
    8.8452   -1.8466   -1.0441 H   0  0  0  0  0  0  0  0  0  0  0  0
   10.1515   -0.6689   -0.9395 H   0  0  0  0  0  0  0  0  0  0  0  0
    4.3543   -0.7345   -0.5970 H   0  0  0  0  0  0  0  0  0  0  0  0
    2.4860    0.1691    0.6859 H   0  0  0  0  0  0  0  0  0  0  0  0
   -0.6494    0.8562   -1.5317 H   0  0  0  0  0  0  0  0  0  0  0  0
   -2.2218   -0.2301   -3.0726 H   0  0  0  0  0  0  0  0  0  0  0  0
  1  2  1  0
  2  3  1  0
  3  4  1  0
  4  5  2  0
  5  6  1  0
  6  7  2  0
  7  8  1  0
  8  9  2  0
  9 10  1  0
 10 11  2  0
 11 12  1  0
 12 13  1  0
 13 14  1  0
 14 15  2  0
 14 16  1  0
 16 17  1  0
 16 18  1  0
 18 19  1  0
 19 20  2  0
 19 21  1  0
 21 22  2  0
 22 23  1  0
 23 24  2  0
 24 25  1  0
 25 26  1  0
 26 27  2  0
 26 28  1  0
 28 29  1  0
 29 30  3  0
 24 31  1  0
 31 32  2  0
 12 33  2  0
 33 34  1  0
 34 35  2  0
 35  3  1  0
  9  4  1  0
 35 10  1  0
 32 21  1  0
  1 36  1  0
  1 37  1  0
  1 38  1  0
  2 39  1  0
  2 40  1  0
  5 41  1  0
  6 42  1  0
  7 43  1  0
  8 44  1  0
 11 45  1  0
 13 46  1  0
 16 47  1  0
 17 48  1  0
 17 49  1  0
 17 50  1  0
 22 51  1  0
 23 52  1  0
 25 53  1  0
 28 54  1  0
 28 55  1  0
 31 56  1  0
 32 57  1  0
 33 58  1  0
 34 59  1  0
M  END
$$$$
