
     RDKit          3D

 40 42  0  0  0  0  0  0  0  0999 V2000
   -2.4904    1.1456   -1.0952 C   0  0  0  0  0  0  0  0  0  0  0  0
   -2.9310    0.4646    0.1252 N   0  0  0  0  0  0  0  0  0  0  0  0
   -2.0526    0.3471    1.2198 C   0  0  0  0  0  0  0  0  0  0  0  0
   -2.3715    0.2925    2.4061 O   0  0  0  0  0  0  0  0  0  0  0  0
   -0.5954    0.2770    0.9432 C   0  0  0  0  0  0  0  0  0  0  0  0
    0.2767    1.0884    1.6714 C   0  0  0  0  0  0  0  0  0  0  0  0
    1.6532    1.0109    1.4404 C   0  0  0  0  0  0  0  0  0  0  0  0
    2.1736    0.1133    0.4953 C   0  0  0  0  0  0  0  0  0  0  0  0
    3.5753    0.1007    0.3324 N   0  0  0  0  0  0  0  0  0  0  0  0
    4.3287   -0.7067   -0.5104 C   0  0  0  0  0  0  0  0  0  0  0  0
    3.8508   -1.5494   -1.2632 O   0  0  0  0  0  0  0  0  0  0  0  0
    5.7652   -0.4731   -0.4239 C   0  0  0  0  0  0  0  0  0  0  0  0
    6.5461    0.4995    0.1806 C   0  0  0  0  0  0  0  0  0  0  0  0
    7.8985    0.1761   -0.0927 C   0  0  0  0  0  0  0  0  0  0  0  0
    7.8701   -0.9698   -0.8451 C   0  0  0  0  0  0  0  0  0  0  0  0
    6.5921   -1.3653   -1.0578 O   0  0  0  0  0  0  0  0  0  0  0  0
    1.2914   -0.7101   -0.2120 C   0  0  0  0  0  0  0  0  0  0  0  0
   -0.0877   -0.6367    0.0146 C   0  0  0  0  0  0  0  0  0  0  0  0
   -4.3158    0.0557    0.2090 C   0  0  0  0  0  0  0  0  0  0  0  0
   -5.2356    0.3721   -0.8084 C   0  0  0  0  0  0  0  0  0  0  0  0
   -6.5715   -0.0436   -0.7453 C   0  0  0  0  0  0  0  0  0  0  0  0
   -7.0195   -0.7982    0.3333 C   0  0  0  0  0  0  0  0  0  0  0  0
   -6.1300   -1.1384    1.3436 C   0  0  0  0  0  0  0  0  0  0  0  0
   -4.7948   -0.7209    1.2772 C   0  0  0  0  0  0  0  0  0  0  0  0
   -1.4676    1.5208   -1.0223 H   0  0  0  0  0  0  0  0  0  0  0  0
   -3.1147    2.0245   -1.2714 H   0  0  0  0  0  0  0  0  0  0  0  0
   -2.5506    0.4530   -1.9378 H   0  0  0  0  0  0  0  0  0  0  0  0
   -0.1145    1.7752    2.4192 H   0  0  0  0  0  0  0  0  0  0  0  0
    2.3089    1.6570    2.0194 H   0  0  0  0  0  0  0  0  0  0  0  0
    4.0882    0.7304    0.9327 H   0  0  0  0  0  0  0  0  0  0  0  0
    6.1984    1.3514    0.7442 H   0  0  0  0  0  0  0  0  0  0  0  0
    8.7840    0.7117    0.2185 H   0  0  0  0  0  0  0  0  0  0  0  0
    8.6306   -1.5975   -1.2883 H   0  0  0  0  0  0  0  0  0  0  0  0
    1.6397   -1.4340   -0.9434 H   0  0  0  0  0  0  0  0  0  0  0  0
   -0.7544   -1.3052   -0.5266 H   0  0  0  0  0  0  0  0  0  0  0  0
   -4.9513    0.9574   -1.6787 H   0  0  0  0  0  0  0  0  0  0  0  0
   -7.2591    0.2255   -1.5429 H   0  0  0  0  0  0  0  0  0  0  0  0
   -8.0547   -1.1217    0.3856 H   0  0  0  0  0  0  0  0  0  0  0  0
   -6.4643   -1.7359    2.1897 H   0  0  0  0  0  0  0  0  0  0  0  0
   -4.1447   -1.0439    2.0853 H   0  0  0  0  0  0  0  0  0  0  0  0
  1  2  1  0
  2  3  1  0
  3  4  2  0
  3  5  1  0
  5  6  2  0
  6  7  1  0
  7  8  2  0
  8  9  1  0
  9 10  1  0
 10 11  2  0
 10 12  1  0
 12 13  2  0
 13 14  1  0
 14 15  2  0
 15 16  1  0
  8 17  1  0
 17 18  2  0
  2 19  1  0
 19 20  2  0
 20 21  1  0
 21 22  2  0
 22 23  1  0
 23 24  2  0
 18  5  1  0
 24 19  1  0
 16 12  1  0
  1 25  1  0
  1 26  1  0
  1 27  1  0
  6 28  1  0
  7 29  1  0
  9 30  1  0
 13 31  1  0
 14 32  1  0
 15 33  1  0
 17 34  1  0
 18 35  1  0
 20 36  1  0
 21 37  1  0
 22 38  1  0
 23 39  1  0
 24 40  1  0
M  END
$$$$
