
     RDKit          3D

 38 40  0  0  0  0  0  0  0  0999 V2000
    2.2138    2.5017    0.6083 C   0  0  0  0  0  0  0  0  0  0  0  0
    1.1922    1.6016    1.2454 C   0  0  0  0  0  0  0  0  0  0  0  0
   -0.0233    2.1518    1.6834 C   0  0  0  0  0  0  0  0  0  0  0  0
   -0.9930    1.3432    2.2797 C   0  0  0  0  0  0  0  0  0  0  0  0
   -2.1709    1.9011    2.6978 O   0  0  0  0  0  0  0  0  0  0  0  0
   -0.7696   -0.0261    2.4593 C   0  0  0  0  0  0  0  0  0  0  0  0
   -1.9755   -1.0929    3.2268 S   0  0  0  0  0  0  0  0  0  0  0  0
   -2.9820   -1.5379    1.8716 C   0  0  0  0  0  0  0  0  0  0  0  0
   -2.6880   -1.2683    0.5561 N   0  0  0  0  0  0  0  0  0  0  0  0
   -3.6956   -1.8050   -0.0900 C   0  0  0  0  0  0  0  0  0  0  0  0
   -4.5496   -2.3768    0.7971 N   0  0  0  0  0  0  0  0  0  0  0  0
   -4.1155   -2.2266    2.0553 N   0  0  0  0  0  0  0  0  0  0  0  0
    0.4475   -0.5737    2.0375 C   0  0  0  0  0  0  0  0  0  0  0  0
    1.4155    0.2248    1.4203 C   0  0  0  0  0  0  0  0  0  0  0  0
    2.6209   -0.3700    0.9448 N   0  0  0  0  0  0  0  0  0  0  0  0
    2.5682   -1.5468   -0.2646 S   0  0  0  0  0  6  0  0  0  0  0  0
    1.8345   -2.7018    0.2031 O   0  0  0  0  0  0  0  0  0  0  0  0
    3.9276   -1.6722   -0.7494 O   0  0  0  0  0  0  0  0  0  0  0  0
    1.6141   -0.7727   -1.5541 C   0  0  0  0  0  0  0  0  0  0  0  0
    0.2233   -0.9221   -1.5702 C   0  0  0  0  0  0  0  0  0  0  0  0
   -0.5239   -0.3106   -2.5781 C   0  0  0  0  0  0  0  0  0  0  0  0
    0.1224    0.4227   -3.5731 C   0  0  0  0  0  0  0  0  0  0  0  0
   -0.8019    1.1762   -4.8130 Cl  0  0  0  0  0  0  0  0  0  0  0  0
    1.5128    0.5478   -3.5733 C   0  0  0  0  0  0  0  0  0  0  0  0
    2.2657   -0.0552   -2.5631 C   0  0  0  0  0  0  0  0  0  0  0  0
    3.1251    2.5272    1.2143 H   0  0  0  0  0  0  0  0  0  0  0  0
    1.8469    3.5299    0.5203 H   0  0  0  0  0  0  0  0  0  0  0  0
    2.4563    2.1552   -0.4003 H   0  0  0  0  0  0  0  0  0  0  0  0
   -0.2077    3.2152    1.5547 H   0  0  0  0  0  0  0  0  0  0  0  0
   -2.1875    2.8418    2.4616 H   0  0  0  0  0  0  0  0  0  0  0  0
   -3.8541   -1.8134   -1.1585 H   0  0  0  0  0  0  0  0  0  0  0  0
   -5.4166   -2.8737    0.6265 H   0  0  0  0  0  0  0  0  0  0  0  0
    0.6364   -1.6346    2.1890 H   0  0  0  0  0  0  0  0  0  0  0  0
    3.4610    0.2013    0.8902 H   0  0  0  0  0  0  0  0  0  0  0  0
   -0.2863   -1.4981   -0.7994 H   0  0  0  0  0  0  0  0  0  0  0  0
   -1.6061   -0.4101   -2.5770 H   0  0  0  0  0  0  0  0  0  0  0  0
    2.0137    1.1097   -4.3578 H   0  0  0  0  0  0  0  0  0  0  0  0
    3.3495    0.0380   -2.5712 H   0  0  0  0  0  0  0  0  0  0  0  0
  1  2  1  0
  2  3  2  0
  3  4  1  0
  4  5  1  0
  4  6  2  0
  6  7  1  0
  7  8  1  0
  8  9  1  0
  9 10  2  0
 10 11  1  0
 11 12  1  0
  6 13  1  0
 13 14  2  0
 14 15  1  0
 15 16  1  0
 16 17  2  0
 16 18  2  0
 16 19  1  0
 19 20  2  0
 20 21  1  0
 21 22  2  0
 22 23  1  0
 22 24  1  0
 24 25  2  0
 14  2  1  0
 25 19  1  0
 12  8  2  0
  1 26  1  0
  1 27  1  0
  1 28  1  0
  3 29  1  0
  5 30  1  0
 10 31  1  0
 11 32  1  0
 13 33  1  0
 15 34  1  0
 20 35  1  0
 21 36  1  0
 24 37  1  0
 25 38  1  0
M  END
$$$$
