
     RDKit          3D

 51 55  0  0  0  0  0  0  0  0999 V2000
   -6.7157   -3.0204    1.3403 F   0  0  0  0  0  0  0  0  0  0  0  0
   -6.1068   -1.8430    1.5341 C   0  0  0  0  0  0  0  0  0  0  0  0
   -6.6915   -0.9004    2.3708 C   0  0  0  0  0  0  0  0  0  0  0  0
   -6.0596    0.3256    2.5693 C   0  0  0  0  0  0  0  0  0  0  0  0
   -4.8469    0.5975    1.9298 C   0  0  0  0  0  0  0  0  0  0  0  0
   -4.2532   -0.3564    1.0888 C   0  0  0  0  0  0  0  0  0  0  0  0
   -2.9506   -0.0543    0.3832 C   0  0  0  0  0  0  0  0  0  0  0  0
   -3.1887    0.6266   -0.9722 C   0  0  0  0  0  0  0  0  0  0  0  0
   -2.0268    0.9815   -1.7896 N   0  0  0  0  0  0  0  0  0  0  0  0
   -1.1431    2.0167   -1.2350 C   0  0  0  0  0  0  0  0  0  0  0  0
    0.0595    1.5245   -0.4021 C   0  0  0  0  0  0  0  0  0  0  0  0
    0.8105    0.4770   -1.1181 N   0  0  0  0  0  0  0  0  0  0  0  0
    2.0798    0.1621   -0.6358 C   0  0  0  0  0  0  0  0  0  0  0  0
    2.2947   -1.0250   -0.1268 N   0  0  0  0  0  0  0  0  0  0  0  0
    3.5598   -1.3604    0.3962 C   0  0  0  0  0  0  0  0  0  0  0  0
    3.7354   -2.6340    0.9406 C   0  0  0  0  0  0  0  0  0  0  0  0
    4.9664   -3.0156    1.4812 C   0  0  0  0  0  0  0  0  0  0  0  0
    6.0382   -2.1219    1.4827 C   0  0  0  0  0  0  0  0  0  0  0  0
    5.8862   -0.8438    0.9438 C   0  0  0  0  0  0  0  0  0  0  0  0
    4.6487   -0.4763    0.4071 C   0  0  0  0  0  0  0  0  0  0  0  0
    4.4122    0.7843   -0.1645 N   0  0  0  0  0  0  0  0  0  0  0  0
    5.2665    1.8495   -0.3257 C   0  0  0  0  0  0  0  0  0  0  0  0
    4.5907    2.8452   -0.9984 C   0  0  0  0  0  0  0  0  0  0  0  0
    3.2802    2.3723   -1.2410 C   0  0  0  0  0  0  0  0  0  0  0  0
    3.1812    1.1085   -0.6873 C   0  0  0  0  0  0  0  0  0  0  0  0
   -0.0635   -0.6454   -1.5101 C   0  0  0  0  0  0  0  0  0  0  0  0
   -1.2649   -0.1492   -2.3420 C   0  0  0  0  0  0  0  0  0  0  0  0
   -4.8999   -1.5837    0.8920 C   0  0  0  0  0  0  0  0  0  0  0  0
   -7.6334   -1.1263    2.8599 H   0  0  0  0  0  0  0  0  0  0  0  0
   -6.5103    1.0703    3.2205 H   0  0  0  0  0  0  0  0  0  0  0  0
   -4.3674    1.5609    2.0927 H   0  0  0  0  0  0  0  0  0  0  0  0
   -2.3442    0.5814    1.0364 H   0  0  0  0  0  0  0  0  0  0  0  0
   -2.4000   -0.9917    0.2565 H   0  0  0  0  0  0  0  0  0  0  0  0
   -3.8470   -0.0100   -1.5793 H   0  0  0  0  0  0  0  0  0  0  0  0
   -3.7757    1.5412   -0.8102 H   0  0  0  0  0  0  0  0  0  0  0  0
   -1.7180    2.7478   -0.6536 H   0  0  0  0  0  0  0  0  0  0  0  0
   -0.7413    2.5772   -2.0899 H   0  0  0  0  0  0  0  0  0  0  0  0
    0.6969    2.3876   -0.1847 H   0  0  0  0  0  0  0  0  0  0  0  0
   -0.2728    1.1314    0.5645 H   0  0  0  0  0  0  0  0  0  0  0  0
    2.9026   -3.3321    0.9423 H   0  0  0  0  0  0  0  0  0  0  0  0
    5.0865   -4.0111    1.9009 H   0  0  0  0  0  0  0  0  0  0  0  0
    6.9942   -2.4240    1.9037 H   0  0  0  0  0  0  0  0  0  0  0  0
    6.7342   -0.1674    0.9535 H   0  0  0  0  0  0  0  0  0  0  0  0
    6.2866    1.8206    0.0283 H   0  0  0  0  0  0  0  0  0  0  0  0
    5.0026    3.8024   -1.2915 H   0  0  0  0  0  0  0  0  0  0  0  0
    2.4912    2.8940   -1.7665 H   0  0  0  0  0  0  0  0  0  0  0  0
    0.5020   -1.3567   -2.1249 H   0  0  0  0  0  0  0  0  0  0  0  0
   -0.4051   -1.1812   -0.6185 H   0  0  0  0  0  0  0  0  0  0  0  0
   -0.8755    0.1821   -3.3142 H   0  0  0  0  0  0  0  0  0  0  0  0
   -1.9284   -0.9927   -2.5687 H   0  0  0  0  0  0  0  0  0  0  0  0
   -4.4766   -2.3450    0.2434 H   0  0  0  0  0  0  0  0  0  0  0  0
  1  2  1  0
  2  3  2  0
  3  4  1  0
  4  5  2  0
  5  6  1  0
  6  7  1  0
  7  8  1  0
  8  9  1  0
  9 10  1  0
 10 11  1  0
 11 12  1  0
 12 13  1  0
 13 14  2  0
 14 15  1  0
 15 16  2  0
 16 17  1  0
 17 18  2  0
 18 19  1  0
 19 20  2  0
 20 21  1  0
 21 22  1  0
 22 23  2  0
 23 24  1  0
 24 25  2  0
 12 26  1  0
 26 27  1  0
  6 28  2  0
 28  2  1  0
 27  9  1  0
 25 13  1  0
 20 15  1  0
 25 21  1  0
  3 29  1  0
  4 30  1  0
  5 31  1  0
  7 32  1  0
  7 33  1  0
  8 34  1  0
  8 35  1  0
 10 36  1  0
 10 37  1  0
 11 38  1  0
 11 39  1  0
 16 40  1  0
 17 41  1  0
 18 42  1  0
 19 43  1  0
 22 44  1  0
 23 45  1  0
 24 46  1  0
 26 47  1  0
 26 48  1  0
 27 49  1  0
 27 50  1  0
 28 51  1  0
M  END
$$$$
