
     RDKit          3D

 50 53  0  0  0  0  0  0  0  0999 V2000
    8.2814    0.8172    2.3932 C   0  0  0  0  0  0  0  0  0  0  0  0
    7.4601    0.8122    1.1171 C   0  0  0  0  0  0  0  0  0  0  0  0
    6.5879   -0.3245    1.1632 O   0  0  0  0  0  0  0  0  0  0  0  0
    5.4629   -0.1329    0.4121 C   0  0  0  0  0  0  0  0  0  0  0  0
    4.4129    0.6156    0.9516 C   0  0  0  0  0  0  0  0  0  0  0  0
    3.2163    0.7623    0.2406 C   0  0  0  0  0  0  0  0  0  0  0  0
    3.0561    0.1359   -1.0061 C   0  0  0  0  0  0  0  0  0  0  0  0
    1.8039    0.2884   -1.7939 C   0  0  0  0  0  0  0  0  0  0  0  0
    1.9063    0.4055   -3.0079 O   0  0  0  0  0  0  0  0  0  0  0  0
    0.6424    0.2439   -1.0487 N   0  0  0  0  0  0  0  0  0  0  0  0
   -0.6759    0.4400   -1.5122 C   0  0  0  0  0  0  0  0  0  0  0  0
   -0.9928    0.8357   -2.8111 C   0  0  0  0  0  0  0  0  0  0  0  0
   -2.3234    1.0412   -3.1819 C   0  0  0  0  0  0  0  0  0  0  0  0
   -3.3492    0.8497   -2.2565 C   0  0  0  0  0  0  0  0  0  0  0  0
   -3.0579    0.4419   -0.9472 C   0  0  0  0  0  0  0  0  0  0  0  0
   -4.1395    0.2309    0.0427 C   0  0  0  0  0  0  0  0  0  0  0  0
   -5.1697   -0.5689   -0.2832 C   0  0  0  0  0  0  0  0  0  0  0  0
   -6.2537   -0.8119    0.6544 C   0  0  0  0  0  0  0  0  0  0  0  0
   -7.3374   -1.6352    0.3409 C   0  0  0  0  0  0  0  0  0  0  0  0
   -8.3576   -1.8351    1.2763 C   0  0  0  0  0  0  0  0  0  0  0  0
   -8.2997   -1.2133    2.5254 C   0  0  0  0  0  0  0  0  0  0  0  0
   -7.2215   -0.3906    2.8441 C   0  0  0  0  0  0  0  0  0  0  0  0
   -6.2123   -0.2023    1.9026 C   0  0  0  0  0  0  0  0  0  0  0  0
   -5.1377    0.6284    2.2607 O   0  0  0  0  0  0  0  0  0  0  0  0
   -4.0746    0.8663    1.3953 C   0  0  0  0  0  0  0  0  0  0  0  0
   -3.1285    1.5649    1.7455 O   0  0  0  0  0  0  0  0  0  0  0  0
   -1.7140    0.2443   -0.5892 C   0  0  0  0  0  0  0  0  0  0  0  0
    4.0975   -0.6242   -1.5502 C   0  0  0  0  0  0  0  0  0  0  0  0
    5.2862   -0.7571   -0.8249 C   0  0  0  0  0  0  0  0  0  0  0  0
    6.3386   -1.5795   -1.3841 N   0  0  0  0  0  4  0  0  0  0  0  0
    7.3984   -1.0172   -1.6899 O   0  0  0  0  0  0  0  0  0  0  0  0
    6.0797   -2.7798   -1.5554 O   0  0  0  0  0  1  0  0  0  0  0  0
    8.9743    1.6629    2.4106 H   0  0  0  0  0  0  0  0  0  0  0  0
    8.8535   -0.1128    2.4898 H   0  0  0  0  0  0  0  0  0  0  0  0
    7.6285    0.8776    3.2682 H   0  0  0  0  0  0  0  0  0  0  0  0
    8.1241    0.7176    0.2501 H   0  0  0  0  0  0  0  0  0  0  0  0
    6.9112    1.7591    1.0361 H   0  0  0  0  0  0  0  0  0  0  0  0
    4.5180    1.0764    1.9308 H   0  0  0  0  0  0  0  0  0  0  0  0
    2.4258    1.3800    0.6617 H   0  0  0  0  0  0  0  0  0  0  0  0
    0.7267   -0.0046   -0.0712 H   0  0  0  0  0  0  0  0  0  0  0  0
   -0.2248    1.0088   -3.5591 H   0  0  0  0  0  0  0  0  0  0  0  0
   -2.5560    1.3597   -4.1954 H   0  0  0  0  0  0  0  0  0  0  0  0
   -4.3752    1.0334   -2.5679 H   0  0  0  0  0  0  0  0  0  0  0  0
   -5.2256   -1.0629   -1.2493 H   0  0  0  0  0  0  0  0  0  0  0  0
   -7.4013   -2.1271   -0.6270 H   0  0  0  0  0  0  0  0  0  0  0  0
   -9.1998   -2.4776    1.0292 H   0  0  0  0  0  0  0  0  0  0  0  0
   -9.0950   -1.3707    3.2494 H   0  0  0  0  0  0  0  0  0  0  0  0
   -7.1681    0.0985    3.8117 H   0  0  0  0  0  0  0  0  0  0  0  0
   -1.4779   -0.0622    0.4278 H   0  0  0  0  0  0  0  0  0  0  0  0
    3.9766   -1.1080   -2.5185 H   0  0  0  0  0  0  0  0  0  0  0  0
  1  2  1  0
  2  3  1  0
  3  4  1  0
  4  5  2  0
  5  6  1  0
  6  7  2  0
  7  8  1  0
  8  9  2  0
  8 10  1  0
 10 11  1  0
 11 12  2  0
 12 13  1  0
 13 14  2  0
 14 15  1  0
 15 16  1  0
 16 17  2  0
 17 18  1  0
 18 19  2  0
 19 20  1  0
 20 21  2  0
 21 22  1  0
 22 23  2  0
 23 24  1  0
 24 25  1  0
 25 26  2  0
 15 27  2  0
  7 28  1  0
 28 29  2  0
 29 30  1  0
 30 31  2  0
 30 32  1  0
 29  4  1  0
 27 11  1  0
 25 16  1  0
 23 18  1  0
  1 33  1  0
  1 34  1  0
  1 35  1  0
  2 36  1  0
  2 37  1  0
  5 38  1  0
  6 39  1  0
 10 40  1  0
 12 41  1  0
 13 42  1  0
 14 43  1  0
 17 44  1  0
 19 45  1  0
 20 46  1  0
 21 47  1  0
 22 48  1  0
 27 49  1  0
 28 50  1  0
M  CHG  2  30   1  32  -1
M  END
$$$$
