
     RDKit          3D

 51 55  0  0  0  0  0  0  0  0999 V2000
    8.3345   -1.6138    2.2697 Cl  0  0  0  0  0  0  0  0  0  0  0  0
    7.1162   -0.8851    1.2848 C   0  0  0  0  0  0  0  0  0  0  0  0
    6.0685   -1.6949    0.8397 C   0  0  0  0  0  0  0  0  0  0  0  0
    5.0557   -1.1596    0.0402 C   0  0  0  0  0  0  0  0  0  0  0  0
    5.0787    0.1910   -0.3272 C   0  0  0  0  0  0  0  0  0  0  0  0
    3.9763    0.7788   -1.1788 C   0  0  0  0  0  0  0  0  0  0  0  0
    2.8368    1.4137   -0.3572 C   0  0  0  0  0  0  0  0  0  0  0  0
    1.9953    0.4501    0.3773 N   0  0  0  0  0  0  0  0  0  0  0  0
    1.2236   -0.4197   -0.5406 C   0  0  0  0  0  0  0  0  0  0  0  0
   -0.0455   -1.0359    0.0910 C   0  0  0  0  0  0  0  0  0  0  0  0
   -0.9788    0.0034    0.5481 N   0  0  0  0  0  0  0  0  0  0  0  0
   -2.3392   -0.0567    0.2639 C   0  0  0  0  0  0  0  0  0  0  0  0
   -2.9503    1.0597   -0.0522 N   0  0  0  0  0  0  0  0  0  0  0  0
   -4.3164    1.0653   -0.3912 C   0  0  0  0  0  0  0  0  0  0  0  0
   -4.9090    2.2819   -0.7352 C   0  0  0  0  0  0  0  0  0  0  0  0
   -6.2587    2.3429   -1.0925 C   0  0  0  0  0  0  0  0  0  0  0  0
   -7.0312    1.1813   -1.1092 C   0  0  0  0  0  0  0  0  0  0  0  0
   -6.4598   -0.0452   -0.7685 C   0  0  0  0  0  0  0  0  0  0  0  0
   -5.1080   -0.0902   -0.4140 C   0  0  0  0  0  0  0  0  0  0  0  0
   -4.4570   -1.2776   -0.0431 N   0  0  0  0  0  0  0  0  0  0  0  0
   -4.9615   -2.5524    0.0593 C   0  0  0  0  0  0  0  0  0  0  0  0
   -3.9641   -3.3730    0.5375 C   0  0  0  0  0  0  0  0  0  0  0  0
   -2.8128   -2.5711    0.7144 C   0  0  0  0  0  0  0  0  0  0  0  0
   -3.1236   -1.2841    0.3088 C   0  0  0  0  0  0  0  0  0  0  0  0
   -0.3620    1.3087    0.8405 C   0  0  0  0  0  0  0  0  0  0  0  0
    1.0905    1.1379    1.3297 C   0  0  0  0  0  0  0  0  0  0  0  0
    6.1317    1.0000    0.1267 C   0  0  0  0  0  0  0  0  0  0  0  0
    7.1477    0.4665    0.9280 C   0  0  0  0  0  0  0  0  0  0  0  0
    8.4085    1.5324    1.4410 Cl  0  0  0  0  0  0  0  0  0  0  0  0
    6.0309   -2.7458    1.1157 H   0  0  0  0  0  0  0  0  0  0  0  0
    4.2420   -1.8034   -0.2863 H   0  0  0  0  0  0  0  0  0  0  0  0
    4.4147    1.5546   -1.8209 H   0  0  0  0  0  0  0  0  0  0  0  0
    3.5944    0.0207   -1.8727 H   0  0  0  0  0  0  0  0  0  0  0  0
    2.2118    2.0202   -1.0259 H   0  0  0  0  0  0  0  0  0  0  0  0
    3.2944    2.1109    0.3574 H   0  0  0  0  0  0  0  0  0  0  0  0
    1.8677   -1.2364   -0.8840 H   0  0  0  0  0  0  0  0  0  0  0  0
    0.9118    0.1444   -1.4304 H   0  0  0  0  0  0  0  0  0  0  0  0
   -0.5122   -1.6756   -0.6668 H   0  0  0  0  0  0  0  0  0  0  0  0
    0.2330   -1.6690    0.9415 H   0  0  0  0  0  0  0  0  0  0  0  0
   -4.3092    3.1880   -0.7246 H   0  0  0  0  0  0  0  0  0  0  0  0
   -6.7048    3.2981   -1.3572 H   0  0  0  0  0  0  0  0  0  0  0  0
   -8.0813    1.2333   -1.3867 H   0  0  0  0  0  0  0  0  0  0  0  0
   -7.0816   -0.9339   -0.7852 H   0  0  0  0  0  0  0  0  0  0  0  0
   -5.9869   -2.7817   -0.1912 H   0  0  0  0  0  0  0  0  0  0  0  0
   -4.0609   -4.4303    0.7480 H   0  0  0  0  0  0  0  0  0  0  0  0
   -1.8602   -2.9044    1.1017 H   0  0  0  0  0  0  0  0  0  0  0  0
   -0.9355    1.8164    1.6253 H   0  0  0  0  0  0  0  0  0  0  0  0
   -0.3791    1.9429   -0.0547 H   0  0  0  0  0  0  0  0  0  0  0  0
    1.4913    2.1125    1.6340 H   0  0  0  0  0  0  0  0  0  0  0  0
    1.0736    0.5305    2.2444 H   0  0  0  0  0  0  0  0  0  0  0  0
    6.1602    2.0537   -0.1443 H   0  0  0  0  0  0  0  0  0  0  0  0
  1  2  1  0
  2  3  2  0
  3  4  1  0
  4  5  2  0
  5  6  1  0
  6  7  1  0
  7  8  1  0
  8  9  1  0
  9 10  1  0
 10 11  1  0
 11 12  1  0
 12 13  2  0
 13 14  1  0
 14 15  2  0
 15 16  1  0
 16 17  2  0
 17 18  1  0
 18 19  2  0
 19 20  1  0
 20 21  1  0
 21 22  2  0
 22 23  1  0
 23 24  2  0
 11 25  1  0
 25 26  1  0
  5 27  1  0
 27 28  2  0
 28 29  1  0
 28  2  1  0
 26  8  1  0
 24 12  1  0
 19 14  1  0
 24 20  1  0
  3 30  1  0
  4 31  1  0
  6 32  1  0
  6 33  1  0
  7 34  1  0
  7 35  1  0
  9 36  1  0
  9 37  1  0
 10 38  1  0
 10 39  1  0
 15 40  1  0
 16 41  1  0
 17 42  1  0
 18 43  1  0
 21 44  1  0
 22 45  1  0
 23 46  1  0
 25 47  1  0
 25 48  1  0
 26 49  1  0
 26 50  1  0
 27 51  1  0
M  END
$$$$
