
     RDKit          3D

 53 55  0  0  0  0  0  0  0  0999 V2000
   -6.6621    0.9633    2.9056 C   0  0  0  0  0  0  0  0  0  0  0  0
   -6.0631    0.5981    1.6688 O   0  0  0  0  0  0  0  0  0  0  0  0
   -6.1555   -0.7141    1.2847 C   0  0  0  0  0  0  0  0  0  0  0  0
   -6.8113   -1.7121    2.0140 C   0  0  0  0  0  0  0  0  0  0  0  0
   -6.8375   -3.0301    1.5492 C   0  0  0  0  0  0  0  0  0  0  0  0
   -6.2062   -3.3637    0.3554 C   0  0  0  0  0  0  0  0  0  0  0  0
   -5.5524   -2.3774   -0.3800 C   0  0  0  0  0  0  0  0  0  0  0  0
   -5.5297   -1.0444    0.0677 C   0  0  0  0  0  0  0  0  0  0  0  0
   -4.7916   -0.0143   -0.7480 C   0  0  0  0  0  0  0  0  0  0  0  0
   -3.4010    0.0386   -0.3777 N   0  0  0  0  0  0  0  0  0  0  0  0
   -2.4751    0.6857   -1.1579 C   0  0  0  0  0  0  0  0  0  0  0  0
   -2.6569    1.1207   -2.2867 O   0  0  0  0  0  0  0  0  0  0  0  0
   -1.0957    0.8472   -0.4780 C   0  0  0  0  0  0  0  0  0  0  0  0
   -0.9007    0.4054    0.6449 O   0  0  0  0  0  0  0  0  0  0  0  0
   -0.1655    1.4920   -1.2589 N   0  0  0  0  0  0  0  0  0  0  0  0
    1.2326    1.5715   -0.8724 C   0  0  0  0  0  0  0  0  0  0  0  0
    1.9731    0.2226   -0.9595 C   0  0  0  0  0  0  0  0  0  0  0  0
    1.8606   -0.2882   -2.3058 O   0  0  0  0  0  0  0  0  0  0  0  0
    3.0052   -1.1257   -2.4726 C   0  0  0  0  0  0  0  0  0  0  0  0
    4.1131   -0.3371   -1.8124 C   0  0  0  0  0  0  0  0  0  0  0  0
    3.4284    0.3964   -0.7254 N   0  0  0  0  0  0  0  0  0  0  0  0
    3.8972    0.0461    0.8588 S   0  0  0  0  0  6  0  0  0  0  0  0
    3.1379    0.8908    1.7524 O   0  0  0  0  0  0  0  0  0  0  0  0
    3.9062   -1.3951    0.9953 O   0  0  0  0  0  0  0  0  0  0  0  0
    5.5768    0.6254    0.8908 C   0  0  0  0  0  0  0  0  0  0  0  0
    6.6303   -0.2783    1.0601 C   0  0  0  0  0  0  0  0  0  0  0  0
    7.9432    0.1967    1.0853 C   0  0  0  0  0  0  0  0  0  0  0  0
    8.1894    1.5649    0.9498 C   0  0  0  0  0  0  0  0  0  0  0  0
    9.9687    2.2031    0.9869 Br  0  0  0  0  0  0  0  0  0  0  0  0
    7.1357    2.4667    0.7896 C   0  0  0  0  0  0  0  0  0  0  0  0
    5.8214    1.9968    0.7609 C   0  0  0  0  0  0  0  0  0  0  0  0
   -6.4862    2.0325    3.0594 H   0  0  0  0  0  0  0  0  0  0  0  0
   -7.7452    0.8053    2.8806 H   0  0  0  0  0  0  0  0  0  0  0  0
   -6.2009    0.4272    3.7419 H   0  0  0  0  0  0  0  0  0  0  0  0
   -7.3113   -1.4994    2.9533 H   0  0  0  0  0  0  0  0  0  0  0  0
   -7.3478   -3.7977    2.1256 H   0  0  0  0  0  0  0  0  0  0  0  0
   -6.2190   -4.3905   -0.0012 H   0  0  0  0  0  0  0  0  0  0  0  0
   -5.0527   -2.6496   -1.3080 H   0  0  0  0  0  0  0  0  0  0  0  0
   -4.8708   -0.2443   -1.8177 H   0  0  0  0  0  0  0  0  0  0  0  0
   -5.2195    0.9868   -0.6226 H   0  0  0  0  0  0  0  0  0  0  0  0
   -3.1424   -0.1238    0.5918 H   0  0  0  0  0  0  0  0  0  0  0  0
   -0.4250    1.6372   -2.2317 H   0  0  0  0  0  0  0  0  0  0  0  0
    1.6931    2.3004   -1.5491 H   0  0  0  0  0  0  0  0  0  0  0  0
    1.2848    1.9725    0.1452 H   0  0  0  0  0  0  0  0  0  0  0  0
    1.5303   -0.5247   -0.2904 H   0  0  0  0  0  0  0  0  0  0  0  0
    3.1893   -1.3111   -3.5339 H   0  0  0  0  0  0  0  0  0  0  0  0
    2.8236   -2.0805   -1.9660 H   0  0  0  0  0  0  0  0  0  0  0  0
    4.5237    0.4083   -2.5031 H   0  0  0  0  0  0  0  0  0  0  0  0
    4.9311   -0.9832   -1.4855 H   0  0  0  0  0  0  0  0  0  0  0  0
    6.4403   -1.3427    1.1800 H   0  0  0  0  0  0  0  0  0  0  0  0
    8.7650   -0.5032    1.2186 H   0  0  0  0  0  0  0  0  0  0  0  0
    7.3274    3.5322    0.6912 H   0  0  0  0  0  0  0  0  0  0  0  0
    4.9967    2.6967    0.6436 H   0  0  0  0  0  0  0  0  0  0  0  0
  1  2  1  0
  2  3  1  0
  3  4  2  0
  4  5  1  0
  5  6  2  0
  6  7  1  0
  7  8  2  0
  8  9  1  0
  9 10  1  0
 10 11  1  0
 11 12  2  0
 11 13  1  0
 13 14  2  0
 13 15  1  0
 15 16  1  0
 16 17  1  0
 17 18  1  0
 18 19  1  0
 19 20  1  0
 20 21  1  0
 21 22  1  0
 22 23  2  0
 22 24  2  0
 22 25  1  0
 25 26  2  0
 26 27  1  0
 27 28  2  0
 28 29  1  0
 28 30  1  0
 30 31  2  0
  8  3  1  0
 21 17  1  0
 31 25  1  0
  1 32  1  0
  1 33  1  0
  1 34  1  0
  4 35  1  0
  5 36  1  0
  6 37  1  0
  7 38  1  0
  9 39  1  0
  9 40  1  0
 10 41  1  0
 15 42  1  0
 16 43  1  0
 16 44  1  0
 17 45  1  0
 19 46  1  0
 19 47  1  0
 20 48  1  0
 20 49  1  0
 26 50  1  0
 27 51  1  0
 30 52  1  0
 31 53  1  0
M  END
$$$$
