
     RDKit          3D

 39 39  0  0  0  0  0  0  0  0999 V2000
   -1.5160    3.7331    0.7789 C   0  0  0  0  0  0  0  0  0  0  0  0
   -1.9900    2.6959   -0.1919 C   0  0  0  0  0  0  0  0  0  0  0  0
   -3.1641    2.4827   -0.4571 O   0  0  0  0  0  0  0  0  0  0  0  0
   -0.9270    2.0230   -0.7132 O   0  0  0  0  0  0  0  0  0  0  0  0
   -1.2420    1.0196   -1.6916 C   0  0  0  0  0  0  0  0  0  0  0  0
   -1.5480   -0.3232   -1.0289 C   0  0  0  0  0  0  0  0  0  0  0  0
   -0.3613   -0.8759   -0.2127 C   0  0  0  0  0  0  0  0  0  0  0  0
    0.6931   -1.3161   -1.1525 N   0  0  0  0  0  0  0  0  0  0  0  0
    2.2421   -0.7500   -0.8652 S   0  0  0  0  0  6  0  0  0  0  0  0
    2.5345   -0.9119    0.5390 O   0  0  0  0  0  0  0  0  0  0  0  0
    3.0894   -1.3308   -1.8798 O   0  0  0  0  0  0  0  0  0  0  0  0
    2.1239    0.8344   -1.1662 O   0  0  0  0  0  0  0  0  0  0  0  0
    3.3204    1.6061   -1.0992 C   0  0  0  0  0  0  0  0  0  0  0  0
    3.0290    3.0507   -0.6734 C   0  0  0  0  0  0  0  0  0  0  0  0
    1.9360    3.8531   -1.8439 Cl  0  0  0  0  0  0  0  0  0  0  0  0
    2.2698    3.0893    0.9491 Cl  0  0  0  0  0  0  0  0  0  0  0  0
    4.5628    3.9756   -0.6058 Cl  0  0  0  0  0  0  0  0  0  0  0  0
   -0.7693   -2.0328    0.6894 C   0  0  0  0  0  0  0  0  0  0  0  0
   -1.5875   -3.0812    0.2365 C   0  0  0  0  0  0  0  0  0  0  0  0
   -1.9206   -4.1423    1.0814 C   0  0  0  0  0  0  0  0  0  0  0  0
   -1.4323   -4.1778    2.3850 C   0  0  0  0  0  0  0  0  0  0  0  0
   -0.6061   -3.1556    2.8442 C   0  0  0  0  0  0  0  0  0  0  0  0
   -0.2734   -2.0932    2.0019 C   0  0  0  0  0  0  0  0  0  0  0  0
   -0.8326    4.4247    0.2799 H   0  0  0  0  0  0  0  0  0  0  0  0
   -1.0260    3.2490    1.6270 H   0  0  0  0  0  0  0  0  0  0  0  0
   -2.3739    4.3025    1.1478 H   0  0  0  0  0  0  0  0  0  0  0  0
   -0.3787    0.9347   -2.3593 H   0  0  0  0  0  0  0  0  0  0  0  0
   -2.0828    1.3406   -2.3185 H   0  0  0  0  0  0  0  0  0  0  0  0
   -2.4096   -0.1961   -0.3613 H   0  0  0  0  0  0  0  0  0  0  0  0
   -1.8447   -1.0313   -1.8124 H   0  0  0  0  0  0  0  0  0  0  0  0
    0.0041   -0.0597    0.4228 H   0  0  0  0  0  0  0  0  0  0  0  0
    0.7189   -2.3275   -1.2861 H   0  0  0  0  0  0  0  0  0  0  0  0
    4.0256    1.1489   -0.3927 H   0  0  0  0  0  0  0  0  0  0  0  0
    3.7887    1.5801   -2.0906 H   0  0  0  0  0  0  0  0  0  0  0  0
   -1.9755   -3.0884   -0.7793 H   0  0  0  0  0  0  0  0  0  0  0  0
   -2.5603   -4.9441    0.7207 H   0  0  0  0  0  0  0  0  0  0  0  0
   -1.6904   -5.0049    3.0413 H   0  0  0  0  0  0  0  0  0  0  0  0
   -0.2143   -3.1867    3.8578 H   0  0  0  0  0  0  0  0  0  0  0  0
    0.3881   -1.3143    2.3787 H   0  0  0  0  0  0  0  0  0  0  0  0
  1  2  1  0
  2  3  2  0
  2  4  1  0
  4  5  1  0
  5  6  1  0
  6  7  1  0
  7  8  1  0
  8  9  1  0
  9 10  2  0
  9 11  2  0
  9 12  1  0
 12 13  1  0
 13 14  1  0
 14 15  1  0
 14 16  1  0
 14 17  1  0
  7 18  1  0
 18 19  2  0
 19 20  1  0
 20 21  2  0
 21 22  1  0
 22 23  2  0
 23 18  1  0
  1 24  1  0
  1 25  1  0
  1 26  1  0
  5 27  1  0
  5 28  1  0
  6 29  1  0
  6 30  1  0
  7 31  1  0
  8 32  1  0
 13 33  1  0
 13 34  1  0
 19 35  1  0
 20 36  1  0
 21 37  1  0
 22 38  1  0
 23 39  1  0
M  END
$$$$
