
     RDKit          3D

 54 57  0  0  0  0  0  0  0  0999 V2000
   -5.7189   -0.2075   -2.5409 C   0  0  0  0  0  0  0  0  0  0  0  0
   -5.6181    0.9588   -1.7339 O   0  0  0  0  0  0  0  0  0  0  0  0
   -4.4146    1.1950   -1.1196 C   0  0  0  0  0  0  0  0  0  0  0  0
   -3.3623    0.2733   -1.0382 C   0  0  0  0  0  0  0  0  0  0  0  0
   -2.1420    0.5808   -0.3920 C   0  0  0  0  0  0  0  0  0  0  0  0
   -1.0505   -0.4156   -0.3488 C   0  0  0  0  0  0  0  0  0  0  0  0
    0.2896   -0.0728   -0.3370 C   0  0  0  0  0  0  0  0  0  0  0  0
    1.2380   -1.0966   -0.3189 C   0  0  0  0  0  0  0  0  0  0  0  0
    2.6563   -0.6744   -0.2688 C   0  0  0  0  0  0  0  0  0  0  0  0
    3.0742    0.0390   -1.1707 O   0  0  0  0  0  0  0  0  0  0  0  0
    3.3318   -1.1107    0.8549 N   0  0  0  0  0  0  0  0  0  0  0  0
    4.6877   -0.8939    1.1741 C   0  0  0  0  0  0  0  0  0  0  0  0
    5.1439   -1.3926    2.4015 C   0  0  0  0  0  0  0  0  0  0  0  0
    6.4770   -1.2251    2.7859 C   0  0  0  0  0  0  0  0  0  0  0  0
    7.3576   -0.5632    1.9421 C   0  0  0  0  0  0  0  0  0  0  0  0
    8.6505   -0.4253    2.3499 O   0  0  0  0  0  0  0  0  0  0  0  0
    6.9240   -0.0612    0.7217 C   0  0  0  0  0  0  0  0  0  0  0  0
    5.5873   -0.2268    0.3398 C   0  0  0  0  0  0  0  0  0  0  0  0
    0.8564   -2.4541   -0.3568 C   0  0  0  0  0  0  0  0  0  0  0  0
    1.7509   -3.5546   -0.4179 C   0  0  0  0  0  0  0  0  0  0  0  0
    1.2770   -4.8652   -0.4453 C   0  0  0  0  0  0  0  0  0  0  0  0
   -0.0904   -5.0957   -0.4202 C   0  0  0  0  0  0  0  0  0  0  0  0
   -0.9733   -4.0138   -0.3809 C   0  0  0  0  0  0  0  0  0  0  0  0
   -0.5273   -2.6987   -0.3576 C   0  0  0  0  0  0  0  0  0  0  0  0
   -1.4430   -1.7146   -0.3457 N   0  0  0  0  0  0  0  0  0  0  0  0
   -2.0151    1.8534    0.1893 C   0  0  0  0  0  0  0  0  0  0  0  0
   -3.0513    2.7844    0.1006 C   0  0  0  0  0  0  0  0  0  0  0  0
   -2.8984    4.0125    0.6932 O   0  0  0  0  0  0  0  0  0  0  0  0
   -2.2041    4.8957   -0.1915 C   0  0  0  0  0  0  0  0  0  0  0  0
   -4.2556    2.4521   -0.5235 C   0  0  0  0  0  0  0  0  0  0  0  0
   -5.2442    3.4013   -0.6230 O   0  0  0  0  0  0  0  0  0  0  0  0
   -6.1480    3.2723    0.4743 C   0  0  0  0  0  0  0  0  0  0  0  0
   -5.6742   -1.1156   -1.9279 H   0  0  0  0  0  0  0  0  0  0  0  0
   -4.9531   -0.2167   -3.3227 H   0  0  0  0  0  0  0  0  0  0  0  0
   -6.6969   -0.1897   -3.0330 H   0  0  0  0  0  0  0  0  0  0  0  0
   -3.4649   -0.7153   -1.4804 H   0  0  0  0  0  0  0  0  0  0  0  0
    0.6135    0.9630   -0.3600 H   0  0  0  0  0  0  0  0  0  0  0  0
    2.7932   -1.6263    1.5407 H   0  0  0  0  0  0  0  0  0  0  0  0
    4.4728   -1.9150    3.0782 H   0  0  0  0  0  0  0  0  0  0  0  0
    6.8255   -1.6112    3.7397 H   0  0  0  0  0  0  0  0  0  0  0  0
    9.1585   -0.0039    1.6371 H   0  0  0  0  0  0  0  0  0  0  0  0
    7.6009    0.4622    0.0545 H   0  0  0  0  0  0  0  0  0  0  0  0
    5.2812    0.1752   -0.6204 H   0  0  0  0  0  0  0  0  0  0  0  0
    2.8275   -3.3993   -0.4666 H   0  0  0  0  0  0  0  0  0  0  0  0
    1.9725   -5.7000   -0.4959 H   0  0  0  0  0  0  0  0  0  0  0  0
   -0.4767   -6.1122   -0.4435 H   0  0  0  0  0  0  0  0  0  0  0  0
   -2.0447   -4.2029   -0.3764 H   0  0  0  0  0  0  0  0  0  0  0  0
   -1.1177    2.1342    0.7342 H   0  0  0  0  0  0  0  0  0  0  0  0
   -1.1242    4.6956   -0.1465 H   0  0  0  0  0  0  0  0  0  0  0  0
   -2.3767    5.9206    0.1530 H   0  0  0  0  0  0  0  0  0  0  0  0
   -2.5602    4.8212   -1.2282 H   0  0  0  0  0  0  0  0  0  0  0  0
   -5.6325    3.4010    1.4300 H   0  0  0  0  0  0  0  0  0  0  0  0
   -6.6732    2.3102    0.4502 H   0  0  0  0  0  0  0  0  0  0  0  0
   -6.8957    4.0684    0.3877 H   0  0  0  0  0  0  0  0  0  0  0  0
  1  2  1  0
  2  3  1  0
  3  4  2  0
  4  5  1  0
  5  6  1  0
  6  7  2  0
  7  8  1  0
  8  9  1  0
  9 10  2  0
  9 11  1  0
 11 12  1  0
 12 13  2  0
 13 14  1  0
 14 15  2  0
 15 16  1  0
 15 17  1  0
 17 18  2  0
  8 19  2  0
 19 20  1  0
 20 21  2  0
 21 22  1  0
 22 23  2  0
 23 24  1  0
 24 25  2  0
  5 26  2  0
 26 27  1  0
 27 28  1  0
 28 29  1  0
 27 30  2  0
 30 31  1  0
 31 32  1  0
 30  3  1  0
 25  6  1  0
 18 12  1  0
 24 19  1  0
  1 33  1  0
  1 34  1  0
  1 35  1  0
  4 36  1  0
  7 37  1  0
 11 38  1  0
 13 39  1  0
 14 40  1  0
 16 41  1  0
 17 42  1  0
 18 43  1  0
 20 44  1  0
 21 45  1  0
 22 46  1  0
 23 47  1  0
 26 48  1  0
 29 49  1  0
 29 50  1  0
 29 51  1  0
 32 52  1  0
 32 53  1  0
 32 54  1  0
M  END
$$$$
