
     RDKit          3D

 54 56  0  0  0  0  0  0  0  0999 V2000
    8.3587   -2.7215   -0.0346 C   0  0  0  0  0  0  0  0  0  0  0  0
    7.4358   -2.2476   -1.0059 O   0  0  0  0  0  0  0  0  0  0  0  0
    6.3133   -1.6213   -0.5375 C   0  0  0  0  0  0  0  0  0  0  0  0
    6.0117   -1.3662    0.8002 C   0  0  0  0  0  0  0  0  0  0  0  0
    4.8256   -0.7061    1.1418 C   0  0  0  0  0  0  0  0  0  0  0  0
    3.9245   -0.2989    0.1509 C   0  0  0  0  0  0  0  0  0  0  0  0
    2.6558    0.4329    0.5129 C   0  0  0  0  0  0  0  0  0  0  0  0
    2.8359    1.9513    0.3935 C   0  0  0  0  0  0  0  0  0  0  0  0
    1.5777    2.7362    0.7677 C   0  0  0  0  0  0  0  0  0  0  0  0
    0.5307    2.7056   -0.2822 C   0  0  0  0  0  0  0  0  0  0  0  0
    0.2477    1.7832   -1.1766 N   0  0  0  0  0  0  0  0  0  0  0  0
   -0.8310    2.2529   -1.8890 N   0  0  0  0  0  0  0  0  0  0  0  0
   -1.1405    3.4281   -1.3794 C   0  0  0  0  0  0  0  0  0  0  0  0
   -2.4523    4.4165   -1.9306 S   0  0  0  0  0  0  0  0  0  0  0  0
   -3.4513    3.1731   -2.7977 C   0  0  0  0  0  0  0  0  0  0  0  0
   -4.1675    2.2780   -1.7963 C   0  0  0  0  0  0  0  0  0  0  0  0
   -5.2071    2.6556   -1.2622 O   0  0  0  0  0  0  0  0  0  0  0  0
   -3.5327    1.0659   -1.5815 N   0  0  0  0  0  0  0  0  0  0  0  0
   -3.9371    0.0058   -0.7320 C   0  0  0  0  0  0  0  0  0  0  0  0
   -5.1081    0.0422    0.0318 C   0  0  0  0  0  0  0  0  0  0  0  0
   -5.4771   -1.0272    0.8739 C   0  0  0  0  0  0  0  0  0  0  0  0
   -6.7362   -0.8988    1.6904 C   0  0  0  0  0  0  0  0  0  0  0  0
   -4.6388   -2.1515    0.9758 C   0  0  0  0  0  0  0  0  0  0  0  0
   -4.9738   -3.3108    1.8732 C   0  0  0  0  0  0  0  0  0  0  0  0
   -3.4753   -2.2032    0.1959 C   0  0  0  0  0  0  0  0  0  0  0  0
   -3.1307   -1.1408   -0.6463 C   0  0  0  0  0  0  0  0  0  0  0  0
   -1.5405   -1.3256   -1.6762 Br  0  0  0  0  0  0  0  0  0  0  0  0
   -0.3077    3.7855   -0.3535 O   0  0  0  0  0  0  0  0  0  0  0  0
    4.2315   -0.5571   -1.1902 C   0  0  0  0  0  0  0  0  0  0  0  0
    5.4174   -1.2125   -1.5273 C   0  0  0  0  0  0  0  0  0  0  0  0
    7.9010   -3.4863    0.6015 H   0  0  0  0  0  0  0  0  0  0  0  0
    8.7634   -1.8979    0.5636 H   0  0  0  0  0  0  0  0  0  0  0  0
    9.1947   -3.1867   -0.5664 H   0  0  0  0  0  0  0  0  0  0  0  0
    6.6767   -1.6650    1.6022 H   0  0  0  0  0  0  0  0  0  0  0  0
    4.6118   -0.5125    2.1908 H   0  0  0  0  0  0  0  0  0  0  0  0
    1.8477    0.0727   -0.1333 H   0  0  0  0  0  0  0  0  0  0  0  0
    2.3598    0.1713    1.5367 H   0  0  0  0  0  0  0  0  0  0  0  0
    3.6455    2.2608    1.0690 H   0  0  0  0  0  0  0  0  0  0  0  0
    3.1601    2.2204   -0.6201 H   0  0  0  0  0  0  0  0  0  0  0  0
    1.8645    3.7807    0.9396 H   0  0  0  0  0  0  0  0  0  0  0  0
    1.1607    2.3631    1.7102 H   0  0  0  0  0  0  0  0  0  0  0  0
   -2.8487    2.5887   -3.5004 H   0  0  0  0  0  0  0  0  0  0  0  0
   -4.2143    3.6874   -3.3920 H   0  0  0  0  0  0  0  0  0  0  0  0
   -2.6207    0.9302   -2.0187 H   0  0  0  0  0  0  0  0  0  0  0  0
   -5.7669    0.9044   -0.0024 H   0  0  0  0  0  0  0  0  0  0  0  0
   -7.4353   -0.1906    1.2321 H   0  0  0  0  0  0  0  0  0  0  0  0
   -6.4916   -0.5448    2.6962 H   0  0  0  0  0  0  0  0  0  0  0  0
   -7.2626   -1.8550    1.7628 H   0  0  0  0  0  0  0  0  0  0  0  0
   -5.2052   -2.9604    2.8846 H   0  0  0  0  0  0  0  0  0  0  0  0
   -4.1327   -4.0076    1.9591 H   0  0  0  0  0  0  0  0  0  0  0  0
   -5.8303   -3.8626    1.4728 H   0  0  0  0  0  0  0  0  0  0  0  0
   -2.8311   -3.0791    0.2458 H   0  0  0  0  0  0  0  0  0  0  0  0
    3.5504   -0.2479   -1.9803 H   0  0  0  0  0  0  0  0  0  0  0  0
    5.6445   -1.4067   -2.5725 H   0  0  0  0  0  0  0  0  0  0  0  0
  1  2  1  0
  2  3  1  0
  3  4  2  0
  4  5  1  0
  5  6  2  0
  6  7  1  0
  7  8  1  0
  8  9  1  0
  9 10  1  0
 10 11  2  0
 11 12  1  0
 12 13  2  0
 13 14  1  0
 14 15  1  0
 15 16  1  0
 16 17  2  0
 16 18  1  0
 18 19  1  0
 19 20  2  0
 20 21  1  0
 21 22  1  0
 21 23  2  0
 23 24  1  0
 23 25  1  0
 25 26  2  0
 26 27  1  0
 13 28  1  0
  6 29  1  0
 29 30  2  0
 30  3  1  0
 28 10  1  0
 26 19  1  0
  1 31  1  0
  1 32  1  0
  1 33  1  0
  4 34  1  0
  5 35  1  0
  7 36  1  0
  7 37  1  0
  8 38  1  0
  8 39  1  0
  9 40  1  0
  9 41  1  0
 15 42  1  0
 15 43  1  0
 18 44  1  0
 20 45  1  0
 22 46  1  0
 22 47  1  0
 22 48  1  0
 24 49  1  0
 24 50  1  0
 24 51  1  0
 25 52  1  0
 29 53  1  0
 30 54  1  0
M  END
$$$$
