
     RDKit          3D

 57 60  0  0  0  0  0  0  0  0999 V2000
   -0.1206   -0.8951    1.8661 C   0  0  0  0  0  0  0  0  0  0  0  0
   -1.3896   -0.0500    1.8608 C   0  0  0  0  0  0  0  0  0  0  0  0
   -1.3702    1.1782    0.9343 C   0  0  0  0  0  0  0  0  0  0  0  0
   -1.1126    0.7606   -0.8425 S   0  0  0  0  0  0  0  0  0  0  0  0
   -2.6073   -0.1029   -1.2039 C   0  0  0  0  0  0  0  0  0  0  0  0
   -3.6616    0.2865   -0.5534 N   0  0  0  0  0  0  0  0  0  0  0  0
   -4.8294   -0.4091   -0.8510 C   0  0  0  0  0  0  0  0  0  0  0  0
   -6.0774   -0.1520   -0.2431 C   0  0  0  0  0  0  0  0  0  0  0  0
   -7.0478   -1.0031   -0.7355 C   0  0  0  0  0  0  0  0  0  0  0  0
   -6.4183   -2.0855   -1.9176 S   0  0  0  0  0  0  0  0  0  0  0  0
   -4.8679   -1.4165   -1.7655 C   0  0  0  0  0  0  0  0  0  0  0  0
   -3.7131   -1.8395   -2.4985 C   0  0  0  0  0  0  0  0  0  0  0  0
   -3.7237   -2.7453   -3.3296 O   0  0  0  0  0  0  0  0  0  0  0  0
   -2.5559   -1.1178   -2.1662 N   0  0  0  0  0  0  0  0  0  0  0  0
   -1.3422   -1.4847   -2.9039 C   0  0  0  0  0  0  0  0  0  0  0  0
   -0.3960   -2.3722   -2.1174 C   0  0  0  0  0  0  0  0  0  0  0  0
   -0.8416   -3.5552   -1.5088 C   0  0  0  0  0  0  0  0  0  0  0  0
    0.0460   -4.3694   -0.7990 C   0  0  0  0  0  0  0  0  0  0  0  0
    1.3970   -4.0223   -0.7000 C   0  0  0  0  0  0  0  0  0  0  0  0
    2.2996   -4.9149    0.0664 C   0  0  0  0  0  0  0  0  0  0  0  0
    1.9692   -5.9256    0.6580 O   0  0  0  0  0  0  0  0  0  0  0  0
    3.5775   -4.4975    0.0570 O   0  0  0  0  0  0  0  0  0  0  0  0
    1.8557   -2.8583   -1.3242 C   0  0  0  0  0  0  0  0  0  0  0  0
    0.9661   -2.0442   -2.0325 C   0  0  0  0  0  0  0  0  0  0  0  0
   -0.3344    2.1970    1.4460 C   0  0  0  0  0  0  0  0  0  0  0  0
   -0.5803    2.8579    2.4548 O   0  0  0  0  0  0  0  0  0  0  0  0
    0.8513    2.2374    0.7350 N   0  0  0  0  0  0  0  0  0  0  0  0
    1.9968    3.0145    0.9945 C   0  0  0  0  0  0  0  0  0  0  0  0
    3.0257    2.9672    0.0466 C   0  0  0  0  0  0  0  0  0  0  0  0
    4.1964    3.7113    0.2224 C   0  0  0  0  0  0  0  0  0  0  0  0
    4.3662    4.5165    1.3561 C   0  0  0  0  0  0  0  0  0  0  0  0
    5.6337    5.3060    1.5224 C   0  0  0  0  0  0  0  0  0  0  0  0
    3.3367    4.5515    2.3091 C   0  0  0  0  0  0  0  0  0  0  0  0
    3.4761    5.5075    3.7443 Cl  0  0  0  0  0  0  0  0  0  0  0  0
    2.1626    3.8089    2.1290 C   0  0  0  0  0  0  0  0  0  0  0  0
    0.0784   -1.3318    0.8871 H   0  0  0  0  0  0  0  0  0  0  0  0
    0.7519   -0.3099    2.1687 H   0  0  0  0  0  0  0  0  0  0  0  0
   -0.2273   -1.7199    2.5778 H   0  0  0  0  0  0  0  0  0  0  0  0
   -1.5686    0.2897    2.8896 H   0  0  0  0  0  0  0  0  0  0  0  0
   -2.2389   -0.6967    1.6095 H   0  0  0  0  0  0  0  0  0  0  0  0
   -2.3304    1.7013    1.0075 H   0  0  0  0  0  0  0  0  0  0  0  0
   -6.2622    0.6055    0.5079 H   0  0  0  0  0  0  0  0  0  0  0  0
   -8.0939   -1.0474   -0.4631 H   0  0  0  0  0  0  0  0  0  0  0  0
   -1.5913   -2.0071   -3.8355 H   0  0  0  0  0  0  0  0  0  0  0  0
   -0.8342   -0.5658   -3.2181 H   0  0  0  0  0  0  0  0  0  0  0  0
   -1.8810   -3.8690   -1.5900 H   0  0  0  0  0  0  0  0  0  0  0  0
   -0.3205   -5.2825   -0.3323 H   0  0  0  0  0  0  0  0  0  0  0  0
    4.0471   -5.1714    0.5923 H   0  0  0  0  0  0  0  0  0  0  0  0
    2.9050   -2.5777   -1.2681 H   0  0  0  0  0  0  0  0  0  0  0  0
    1.3504   -1.1495   -2.5181 H   0  0  0  0  0  0  0  0  0  0  0  0
    0.8585    1.6874   -0.1178 H   0  0  0  0  0  0  0  0  0  0  0  0
    2.9310    2.3566   -0.8484 H   0  0  0  0  0  0  0  0  0  0  0  0
    4.9751    3.6580   -0.5368 H   0  0  0  0  0  0  0  0  0  0  0  0
    6.1754    4.9745    2.4136 H   0  0  0  0  0  0  0  0  0  0  0  0
    5.4115    6.3749    1.6036 H   0  0  0  0  0  0  0  0  0  0  0  0
    6.3011    5.1763    0.6638 H   0  0  0  0  0  0  0  0  0  0  0  0
    1.3965    3.8643    2.8964 H   0  0  0  0  0  0  0  0  0  0  0  0
  1  2  1  0
  2  3  1  0
  3  4  1  0
  4  5  1  0
  5  6  2  0
  6  7  1  0
  7  8  1  0
  8  9  2  0
  9 10  1  0
 10 11  1  0
 11 12  1  0
 12 13  2  0
 12 14  1  0
 14 15  1  0
 15 16  1  0
 16 17  2  0
 17 18  1  0
 18 19  2  0
 19 20  1  0
 20 21  2  0
 20 22  1  0
 19 23  1  0
 23 24  2  0
  3 25  1  0
 25 26  2  0
 25 27  1  0
 27 28  1  0
 28 29  2  0
 29 30  1  0
 30 31  2  0
 31 32  1  0
 31 33  1  0
 33 34  1  0
 33 35  2  0
 14  5  1  0
 24 16  1  0
 35 28  1  0
 11  7  2  0
  1 36  1  0
  1 37  1  0
  1 38  1  0
  2 39  1  0
  2 40  1  0
  3 41  1  0
  8 42  1  0
  9 43  1  0
 15 44  1  0
 15 45  1  0
 17 46  1  0
 18 47  1  0
 22 48  1  0
 23 49  1  0
 24 50  1  0
 27 51  1  0
 29 52  1  0
 30 53  1  0
 32 54  1  0
 32 55  1  0
 32 56  1  0
 35 57  1  0
M  END
$$$$
