
     RDKit          3D

 47 50  0  0  0  0  0  0  0  0999 V2000
   -2.2967   -3.2148    1.4895 C   0  0  0  0  0  0  0  0  0  0  0  0
   -1.3164   -2.1072    1.2278 C   0  0  0  0  0  0  0  0  0  0  0  0
   -0.0479   -2.3445    1.4167 N   0  0  0  0  0  0  0  0  0  0  0  0
    0.9163   -1.3540    1.1928 N   0  0  0  0  0  0  0  0  0  0  0  0
    2.2994   -1.7331    1.4687 C   0  0  0  0  0  0  0  0  0  0  0  0
    3.0617   -2.1246    0.2022 C   0  0  0  0  0  0  0  0  0  0  0  0
    3.6779   -3.1860    0.1169 O   0  0  0  0  0  0  0  0  0  0  0  0
    3.0942   -1.1612   -0.7837 N   0  0  0  0  0  0  0  0  0  0  0  0
    3.9100   -1.3027   -1.9662 C   0  0  0  0  0  0  0  0  0  0  0  0
    5.2361   -0.6592   -1.7114 C   0  0  0  0  0  0  0  0  0  0  0  0
    6.3448   -1.2071   -1.0944 C   0  0  0  0  0  0  0  0  0  0  0  0
    7.4352   -0.2936   -1.0252 C   0  0  0  0  0  0  0  0  0  0  0  0
    7.1242    0.9220   -1.5914 C   0  0  0  0  0  0  0  0  0  0  0  0
    5.5268    0.9575   -2.2006 S   0  0  0  0  0  0  0  0  0  0  0  0
    0.6406   -0.0447    0.7589 C   0  0  0  0  0  0  0  0  0  0  0  0
    1.5223    0.7867    0.5427 O   0  0  0  0  0  0  0  0  0  0  0  0
   -0.7798    0.1992    0.5589 C   0  0  0  0  0  0  0  0  0  0  0  0
   -1.3335    1.3316    0.1230 N   0  0  0  0  0  0  0  0  0  0  0  0
   -2.6764    1.1091    0.1678 N   0  0  0  0  0  0  0  0  0  0  0  0
   -3.5585    2.2159   -0.0358 C   0  0  0  0  0  0  0  0  0  0  0  0
   -4.9010    2.1894    0.3602 C   0  0  0  0  0  0  0  0  0  0  0  0
   -5.7230    3.3018    0.1464 C   0  0  0  0  0  0  0  0  0  0  0  0
   -5.2114    4.4516   -0.4505 C   0  0  0  0  0  0  0  0  0  0  0  0
   -3.8719    4.4994   -0.8247 C   0  0  0  0  0  0  0  0  0  0  0  0
   -3.0471    3.3922   -0.6123 C   0  0  0  0  0  0  0  0  0  0  0  0
   -2.9490   -0.2409    0.4258 C   0  0  0  0  0  0  0  0  0  0  0  0
   -4.2805   -0.8808    0.2658 C   0  0  0  0  0  0  0  0  0  0  0  0
   -1.7320   -0.8009    0.7778 C   0  0  0  0  0  0  0  0  0  0  0  0
   -2.6755   -3.5982    0.5385 H   0  0  0  0  0  0  0  0  0  0  0  0
   -3.1279   -2.8497    2.0982 H   0  0  0  0  0  0  0  0  0  0  0  0
   -1.8088   -4.0354    2.0241 H   0  0  0  0  0  0  0  0  0  0  0  0
    2.3038   -2.5804    2.1632 H   0  0  0  0  0  0  0  0  0  0  0  0
    2.8247   -0.8976    1.9445 H   0  0  0  0  0  0  0  0  0  0  0  0
    2.7944   -0.2177   -0.5412 H   0  0  0  0  0  0  0  0  0  0  0  0
    3.3769   -0.8220   -2.7930 H   0  0  0  0  0  0  0  0  0  0  0  0
    4.0373   -2.3616   -2.2159 H   0  0  0  0  0  0  0  0  0  0  0  0
    6.3636   -2.2194   -0.7051 H   0  0  0  0  0  0  0  0  0  0  0  0
    8.3971   -0.5169   -0.5805 H   0  0  0  0  0  0  0  0  0  0  0  0
    7.7569    1.7946   -1.6763 H   0  0  0  0  0  0  0  0  0  0  0  0
   -5.3376    1.3460    0.8808 H   0  0  0  0  0  0  0  0  0  0  0  0
   -6.7638    3.2754    0.4608 H   0  0  0  0  0  0  0  0  0  0  0  0
   -5.8522    5.3146   -0.6117 H   0  0  0  0  0  0  0  0  0  0  0  0
   -3.4635    5.3984   -1.2795 H   0  0  0  0  0  0  0  0  0  0  0  0
   -2.0026    3.4595   -0.9146 H   0  0  0  0  0  0  0  0  0  0  0  0
   -4.8713   -0.4061   -0.5231 H   0  0  0  0  0  0  0  0  0  0  0  0
   -4.1778   -1.9264   -0.0375 H   0  0  0  0  0  0  0  0  0  0  0  0
   -4.8379   -0.8583    1.2068 H   0  0  0  0  0  0  0  0  0  0  0  0
  1  2  1  0
  2  3  2  0
  3  4  1  0
  4  5  1  0
  5  6  1  0
  6  7  2  0
  6  8  1  0
  8  9  1  0
  9 10  1  0
 10 11  2  0
 11 12  1  0
 12 13  2  0
 13 14  1  0
  4 15  1  0
 15 16  2  0
 15 17  1  0
 17 18  2  0
 18 19  1  0
 19 20  1  0
 20 21  2  0
 21 22  1  0
 22 23  2  0
 23 24  1  0
 24 25  2  0
 19 26  1  0
 26 27  1  0
 26 28  2  0
 28  2  1  0
 14 10  1  0
 28 17  1  0
 25 20  1  0
  1 29  1  0
  1 30  1  0
  1 31  1  0
  5 32  1  0
  5 33  1  0
  8 34  1  0
  9 35  1  0
  9 36  1  0
 11 37  1  0
 12 38  1  0
 13 39  1  0
 21 40  1  0
 22 41  1  0
 23 42  1  0
 24 43  1  0
 25 44  1  0
 27 45  1  0
 27 46  1  0
 27 47  1  0
M  END
$$$$
