
     RDKit          3D

 58 63  0  0  0  0  0  0  0  0999 V2000
    7.7700   -2.1144    1.3552 C   0  0  0  0  0  0  0  0  0  0  0  0
    6.4390   -1.4691    1.5347 C   0  0  0  0  0  0  0  0  0  0  0  0
    5.3434   -1.9367    2.2284 C   0  0  0  0  0  0  0  0  0  0  0  0
    4.2491   -1.0216    2.1922 C   0  0  0  0  0  0  0  0  0  0  0  0
    4.5414    0.1149    1.4567 C   0  0  0  0  0  0  0  0  0  0  0  0
    3.7266    1.2945    1.2082 C   0  0  0  0  0  0  0  0  0  0  0  0
    4.1576    2.4342    1.3946 O   0  0  0  0  0  0  0  0  0  0  0  0
    2.4021    1.1048    0.7772 N   0  0  0  0  0  0  0  0  0  0  0  0
    1.5614    2.2899    0.6761 C   0  0  0  0  0  0  0  0  0  0  0  0
    0.0874    1.9258    0.5561 C   0  0  0  0  0  0  0  0  0  0  0  0
   -0.1781    1.1169   -0.7383 C   0  0  0  0  0  0  0  0  0  0  0  0
    0.9799    0.1032   -0.9945 C   0  0  0  0  0  0  0  0  0  0  0  0
    1.8832   -0.1392    0.2145 C   0  0  0  0  0  0  0  0  0  0  0  0
   -0.0705    2.0350   -1.8668 O   0  0  0  0  0  0  0  0  0  0  0  0
   -1.1556    2.7990   -2.1819 C   0  0  0  0  0  0  0  0  0  0  0  0
   -0.9384    3.8242   -3.1028 C   0  0  0  0  0  0  0  0  0  0  0  0
   -1.9862    4.6761   -3.4634 C   0  0  0  0  0  0  0  0  0  0  0  0
   -3.2514    4.4987   -2.9016 C   0  0  0  0  0  0  0  0  0  0  0  0
   -4.5356    5.5551   -3.3423 Cl  0  0  0  0  0  0  0  0  0  0  0  0
   -3.4814    3.4722   -1.9892 C   0  0  0  0  0  0  0  0  0  0  0  0
   -2.4275    2.6196   -1.6457 C   0  0  0  0  0  0  0  0  0  0  0  0
   -2.6364    1.5135   -0.7024 C   0  0  0  0  0  0  0  0  0  0  0  0
   -3.6104    1.5198    0.0482 O   0  0  0  0  0  0  0  0  0  0  0  0
   -1.5705    0.4239   -0.7221 C   0  0  0  0  0  0  0  0  0  0  0  0
   -1.7866   -0.5849    0.3948 C   0  0  0  0  0  0  0  0  0  0  0  0
   -2.6287   -1.5648   -0.3523 C   0  0  0  0  0  0  0  0  0  0  0  0
   -3.4200   -2.6117    0.3350 C   0  0  0  0  0  0  0  0  0  0  0  0
   -4.2732   -3.4217   -0.4239 C   0  0  0  0  0  0  0  0  0  0  0  0
   -5.0384   -4.4127    0.1934 C   0  0  0  0  0  0  0  0  0  0  0  0
   -4.9512   -4.6023    1.5711 C   0  0  0  0  0  0  0  0  0  0  0  0
   -4.1002   -3.8023    2.3320 C   0  0  0  0  0  0  0  0  0  0  0  0
   -3.3349   -2.8072    1.7173 C   0  0  0  0  0  0  0  0  0  0  0  0
   -2.5809   -1.4417   -1.6416 N   0  0  0  0  0  0  0  0  0  0  0  0
   -1.7561   -0.3322   -1.9315 O   0  0  0  0  0  0  0  0  0  0  0  0
    6.1365    0.0642    0.8356 S   0  0  0  0  0  0  0  0  0  0  0  0
    7.9410   -2.3576    0.3008 H   0  0  0  0  0  0  0  0  0  0  0  0
    7.8343   -3.0449    1.9337 H   0  0  0  0  0  0  0  0  0  0  0  0
    8.5766   -1.4538    1.6963 H   0  0  0  0  0  0  0  0  0  0  0  0
    5.3305   -2.8849    2.7553 H   0  0  0  0  0  0  0  0  0  0  0  0
    3.3043   -1.1809    2.6966 H   0  0  0  0  0  0  0  0  0  0  0  0
    1.7169    2.9110    1.5655 H   0  0  0  0  0  0  0  0  0  0  0  0
    1.8981    2.8705   -0.1906 H   0  0  0  0  0  0  0  0  0  0  0  0
   -0.4942    2.8543    0.5688 H   0  0  0  0  0  0  0  0  0  0  0  0
   -0.2069    1.3485    1.4411 H   0  0  0  0  0  0  0  0  0  0  0  0
    1.6146    0.4690   -1.8137 H   0  0  0  0  0  0  0  0  0  0  0  0
    0.5965   -0.8635   -1.3386 H   0  0  0  0  0  0  0  0  0  0  0  0
    1.3322   -0.6465    1.0133 H   0  0  0  0  0  0  0  0  0  0  0  0
    2.7030   -0.7955   -0.0917 H   0  0  0  0  0  0  0  0  0  0  0  0
    0.0489    3.9667   -3.5365 H   0  0  0  0  0  0  0  0  0  0  0  0
   -1.8084    5.4753   -4.1792 H   0  0  0  0  0  0  0  0  0  0  0  0
   -4.4690    3.3274   -1.5568 H   0  0  0  0  0  0  0  0  0  0  0  0
   -2.2825   -0.1768    1.2783 H   0  0  0  0  0  0  0  0  0  0  0  0
   -0.8707   -1.1007    0.6935 H   0  0  0  0  0  0  0  0  0  0  0  0
   -4.3539   -3.2820   -1.4997 H   0  0  0  0  0  0  0  0  0  0  0  0
   -5.7056   -5.0325   -0.4013 H   0  0  0  0  0  0  0  0  0  0  0  0
   -5.5495   -5.3725    2.0517 H   0  0  0  0  0  0  0  0  0  0  0  0
   -4.0365   -3.9522    3.4071 H   0  0  0  0  0  0  0  0  0  0  0  0
   -2.6853   -2.2015    2.3384 H   0  0  0  0  0  0  0  0  0  0  0  0
  1  2  1  0
  2  3  2  0
  3  4  1  0
  4  5  2  0
  5  6  1  0
  6  7  2  0
  6  8  1  0
  8  9  1  0
  9 10  1  0
 10 11  1  0
 11 12  1  0
 12 13  1  0
 11 14  1  0
 14 15  1  0
 15 16  2  0
 16 17  1  0
 17 18  2  0
 18 19  1  0
 18 20  1  0
 20 21  2  0
 21 22  1  0
 22 23  2  0
 22 24  1  0
 24 25  1  0
 25 26  1  0
 26 27  1  0
 27 28  2  0
 28 29  1  0
 29 30  2  0
 30 31  1  0
 31 32  2  0
 26 33  2  0
 33 34  1  0
  5 35  1  0
 35  2  1  0
 13  8  1  0
 21 15  1  0
 34 24  1  0
 24 11  1  0
 32 27  1  0
  1 36  1  0
  1 37  1  0
  1 38  1  0
  3 39  1  0
  4 40  1  0
  9 41  1  0
  9 42  1  0
 10 43  1  0
 10 44  1  0
 12 45  1  0
 12 46  1  0
 13 47  1  0
 13 48  1  0
 16 49  1  0
 17 50  1  0
 20 51  1  0
 25 52  1  0
 25 53  1  0
 28 54  1  0
 29 55  1  0
 30 56  1  0
 31 57  1  0
 32 58  1  0
M  END
$$$$
