
     RDKit          3D

 39 41  0  0  0  0  0  0  0  0999 V2000
   -4.0967   -1.0333   -1.3650 C   0  0  0  0  0  0  0  0  0  0  0  0
   -3.8747   -1.2707    0.1226 C   0  0  0  0  0  0  0  0  0  0  0  0
   -2.6553   -0.6228    0.5989 N   0  0  0  0  0  0  0  0  0  0  0  0
   -2.7593    0.6946    1.0191 C   0  0  0  0  0  0  0  0  0  0  0  0
   -3.8072    1.3372    1.0084 O   0  0  0  0  0  0  0  0  0  0  0  0
   -1.5264    1.3377    1.4944 C   0  0  0  0  0  0  0  0  0  0  0  0
   -1.5857    2.6531    1.9836 C   0  0  0  0  0  0  0  0  0  0  0  0
   -0.4322    3.2807    2.4415 C   0  0  0  0  0  0  0  0  0  0  0  0
    0.7754    2.5941    2.4105 C   0  0  0  0  0  0  0  0  0  0  0  0
    0.8291    1.2833    1.9209 C   0  0  0  0  0  0  0  0  0  0  0  0
   -0.3239    0.6334    1.4516 C   0  0  0  0  0  0  0  0  0  0  0  0
   -0.3073   -0.6945    0.9370 N   0  0  0  0  0  0  0  0  0  0  0  0
    0.9491   -1.4450    0.8332 C   0  0  0  0  0  0  0  0  0  0  0  0
    1.8182   -1.0303   -0.3410 C   0  0  0  0  0  0  0  0  0  0  0  0
    1.2923   -0.9614   -1.6420 C   0  0  0  0  0  0  0  0  0  0  0  0
    2.0999   -0.5973   -2.7229 C   0  0  0  0  0  0  0  0  0  0  0  0
    3.4521   -0.3108   -2.5068 C   0  0  0  0  0  0  0  0  0  0  0  0
    4.3058    0.0735   -3.6375 N   0  0  0  0  0  4  0  0  0  0  0  0
    5.4966    0.3241   -3.4009 O   0  0  0  0  0  0  0  0  0  0  0  0
    3.7869    0.1268   -4.7616 O   0  0  0  0  0  1  0  0  0  0  0  0
    3.9993   -0.3946   -1.2209 C   0  0  0  0  0  0  0  0  0  0  0  0
    3.1831   -0.7600   -0.1467 C   0  0  0  0  0  0  0  0  0  0  0  0
   -1.4642   -1.3279    0.4893 C   0  0  0  0  0  0  0  0  0  0  0  0
   -1.4321   -2.4616    0.0031 O   0  0  0  0  0  0  0  0  0  0  0  0
   -3.2641   -1.4271   -1.9570 H   0  0  0  0  0  0  0  0  0  0  0  0
   -5.0152   -1.5281   -1.6954 H   0  0  0  0  0  0  0  0  0  0  0  0
   -4.1857    0.0355   -1.5852 H   0  0  0  0  0  0  0  0  0  0  0  0
   -3.8197   -2.3480    0.3165 H   0  0  0  0  0  0  0  0  0  0  0  0
   -4.7359   -0.8905    0.6839 H   0  0  0  0  0  0  0  0  0  0  0  0
   -2.5331    3.1888    2.0073 H   0  0  0  0  0  0  0  0  0  0  0  0
   -0.4768    4.2991    2.8196 H   0  0  0  0  0  0  0  0  0  0  0  0
    1.6827    3.0778    2.7662 H   0  0  0  0  0  0  0  0  0  0  0  0
    1.8012    0.8031    1.9226 H   0  0  0  0  0  0  0  0  0  0  0  0
    0.7512   -2.5189    0.7287 H   0  0  0  0  0  0  0  0  0  0  0  0
    1.4891   -1.3546    1.7835 H   0  0  0  0  0  0  0  0  0  0  0  0
    0.2457   -1.1995   -1.8269 H   0  0  0  0  0  0  0  0  0  0  0  0
    1.6615   -0.5484   -3.7177 H   0  0  0  0  0  0  0  0  0  0  0  0
    5.0518   -0.1848   -1.0403 H   0  0  0  0  0  0  0  0  0  0  0  0
    3.6243   -0.8327    0.8460 H   0  0  0  0  0  0  0  0  0  0  0  0
  1  2  1  0
  2  3  1  0
  3  4  1  0
  4  5  2  0
  4  6  1  0
  6  7  2  0
  7  8  1  0
  8  9  2  0
  9 10  1  0
 10 11  2  0
 11 12  1  0
 12 13  1  0
 13 14  1  0
 14 15  2  0
 15 16  1  0
 16 17  2  0
 17 18  1  0
 18 19  2  0
 18 20  1  0
 17 21  1  0
 21 22  2  0
 12 23  1  0
 23 24  2  0
 23  3  1  0
 11  6  1  0
 22 14  1  0
  1 25  1  0
  1 26  1  0
  1 27  1  0
  2 28  1  0
  2 29  1  0
  7 30  1  0
  8 31  1  0
  9 32  1  0
 10 33  1  0
 13 34  1  0
 13 35  1  0
 15 36  1  0
 16 37  1  0
 21 38  1  0
 22 39  1  0
M  CHG  2  18   1  20  -1
M  END
$$$$
