
     RDKit          3D

 33 33  0  0  0  0  0  0  0  0999 V2000
   -3.8104   -0.3377    1.8866 C   0  0  0  0  0  0  0  0  0  0  0  0
   -3.7997   -0.1082    0.3743 C   0  0  0  0  0  0  0  0  0  0  0  0
   -3.6475    1.3771    0.0430 C   0  0  0  0  0  0  0  0  0  0  0  0
   -2.8243   -0.9570   -0.3242 N   0  0  0  0  0  0  0  0  0  0  0  0
   -1.4194   -0.6809   -0.0172 C   0  0  0  0  0  0  0  0  0  0  0  0
   -0.5272   -1.6132   -0.8440 C   0  0  0  0  0  0  0  0  0  0  0  0
    0.9529   -1.4342   -0.5073 C   0  0  0  0  0  0  0  0  0  0  0  0
    1.3366   -0.0912   -0.7928 O   0  0  0  0  0  0  0  0  0  0  0  0
    2.6040    0.3020   -0.4581 C   0  0  0  0  0  0  0  0  0  0  0  0
    3.6151   -0.5669   -0.0341 C   0  0  0  0  0  0  0  0  0  0  0  0
    4.8864   -0.0739    0.2795 C   0  0  0  0  0  0  0  0  0  0  0  0
    5.1534    1.2884    0.1679 C   0  0  0  0  0  0  0  0  0  0  0  0
    6.7192    1.8854    0.5561 Cl  0  0  0  0  0  0  0  0  0  0  0  0
    4.1628    2.1676   -0.2562 C   0  0  0  0  0  0  0  0  0  0  0  0
    2.8936    1.6729   -0.5690 C   0  0  0  0  0  0  0  0  0  0  0  0
    1.5754    2.9205   -1.1374 Br  0  0  0  0  0  0  0  0  0  0  0  0
   -3.9229   -1.4016    2.1222 H   0  0  0  0  0  0  0  0  0  0  0  0
   -4.6523    0.1919    2.3462 H   0  0  0  0  0  0  0  0  0  0  0  0
   -2.8939    0.0242    2.3638 H   0  0  0  0  0  0  0  0  0  0  0  0
   -4.7838   -0.4145   -0.0028 H   0  0  0  0  0  0  0  0  0  0  0  0
   -4.5007    1.9427    0.4339 H   0  0  0  0  0  0  0  0  0  0  0  0
   -3.6158    1.5367   -1.0403 H   0  0  0  0  0  0  0  0  0  0  0  0
   -2.7414    1.8076    0.4816 H   0  0  0  0  0  0  0  0  0  0  0  0
   -3.0299   -1.9350   -0.1215 H   0  0  0  0  0  0  0  0  0  0  0  0
   -1.2173   -0.8433    1.0469 H   0  0  0  0  0  0  0  0  0  0  0  0
   -1.1695    0.3565   -0.2602 H   0  0  0  0  0  0  0  0  0  0  0  0
   -0.6824   -1.4023   -1.9097 H   0  0  0  0  0  0  0  0  0  0  0  0
   -0.8047   -2.6596   -0.6682 H   0  0  0  0  0  0  0  0  0  0  0  0
    1.1142   -1.6610    0.5537 H   0  0  0  0  0  0  0  0  0  0  0  0
    1.5371   -2.1261   -1.1253 H   0  0  0  0  0  0  0  0  0  0  0  0
    3.4511   -1.6359    0.0563 H   0  0  0  0  0  0  0  0  0  0  0  0
    5.6636   -0.7604    0.6071 H   0  0  0  0  0  0  0  0  0  0  0  0
    4.3777    3.2292   -0.3424 H   0  0  0  0  0  0  0  0  0  0  0  0
  1  2  1  0
  2  3  1  0
  2  4  1  0
  4  5  1  0
  5  6  1  0
  6  7  1  0
  7  8  1  0
  8  9  1  0
  9 10  2  0
 10 11  1  0
 11 12  2  0
 12 13  1  0
 12 14  1  0
 14 15  2  0
 15 16  1  0
 15  9  1  0
  1 17  1  0
  1 18  1  0
  1 19  1  0
  2 20  1  0
  3 21  1  0
  3 22  1  0
  3 23  1  0
  4 24  1  0
  5 25  1  0
  5 26  1  0
  6 27  1  0
  6 28  1  0
  7 29  1  0
  7 30  1  0
 10 31  1  0
 11 32  1  0
 14 33  1  0
M  END
$$$$
