
     RDKit          3D

 47 49  0  0  0  0  0  0  0  0999 V2000
   -2.5635    1.6867    1.6394 O   0  0  0  0  0  0  0  0  0  0  0  0
   -3.0020    0.8346    0.8713 C   0  0  0  0  0  0  0  0  0  0  0  0
   -4.4984    0.5037    0.8482 C   0  0  0  0  0  0  0  0  0  0  0  0
   -4.7653   -0.6223    0.0139 O   0  0  0  0  0  0  0  0  0  0  0  0
   -6.0710   -1.0101   -0.1035 C   0  0  0  0  0  0  0  0  0  0  0  0
   -7.1706   -0.3868    0.4900 C   0  0  0  0  0  0  0  0  0  0  0  0
   -8.4599   -0.8891    0.2810 C   0  0  0  0  0  0  0  0  0  0  0  0
   -8.6474   -2.0159   -0.5170 C   0  0  0  0  0  0  0  0  0  0  0  0
  -10.3899   -2.6950   -0.7906 Br  0  0  0  0  0  0  0  0  0  0  0  0
   -7.5578   -2.6441   -1.1128 C   0  0  0  0  0  0  0  0  0  0  0  0
   -6.2727   -2.1380   -0.9055 C   0  0  0  0  0  0  0  0  0  0  0  0
   -2.2737    0.1002   -0.0469 N   0  0  0  0  0  0  0  0  0  0  0  0
   -0.8974    0.1709   -0.3249 C   0  0  0  0  0  0  0  0  0  0  0  0
   -0.0226    1.0658    0.2944 C   0  0  0  0  0  0  0  0  0  0  0  0
    1.3377    1.0808   -0.0408 C   0  0  0  0  0  0  0  0  0  0  0  0
    1.8381    0.1897   -0.9964 C   0  0  0  0  0  0  0  0  0  0  0  0
    3.2772    0.1728   -1.3903 C   0  0  0  0  0  0  0  0  0  0  0  0
    3.5580   -0.1446   -2.5400 O   0  0  0  0  0  0  0  0  0  0  0  0
    4.1629    0.4854   -0.3785 N   0  0  0  0  0  0  0  0  0  0  0  0
    5.5740    0.5946   -0.4402 C   0  0  0  0  0  0  0  0  0  0  0  0
    6.2691    0.4910   -1.6541 C   0  0  0  0  0  0  0  0  0  0  0  0
    7.6626    0.6016   -1.7034 C   0  0  0  0  0  0  0  0  0  0  0  0
    8.3886    0.8229   -0.5402 C   0  0  0  0  0  0  0  0  0  0  0  0
    7.7193    0.9361    0.6763 C   0  0  0  0  0  0  0  0  0  0  0  0
    6.3166    0.8290    0.7410 C   0  0  0  0  0  0  0  0  0  0  0  0
    5.7296    0.9861    2.1027 C   0  0  0  0  0  0  0  0  0  0  0  0
    6.3569    1.1959    3.1257 O   0  0  0  0  0  0  0  0  0  0  0  0
    4.3848    0.8910    2.1514 O   0  0  0  0  0  0  0  0  0  0  0  0
    0.9614   -0.6957   -1.6315 C   0  0  0  0  0  0  0  0  0  0  0  0
   -0.3955   -0.7071   -1.2936 C   0  0  0  0  0  0  0  0  0  0  0  0
   -4.7975    0.2842    1.8794 H   0  0  0  0  0  0  0  0  0  0  0  0
   -5.0133    1.3925    0.4664 H   0  0  0  0  0  0  0  0  0  0  0  0
   -7.0666    0.4923    1.1179 H   0  0  0  0  0  0  0  0  0  0  0  0
   -9.3097   -0.3934    0.7444 H   0  0  0  0  0  0  0  0  0  0  0  0
   -7.6946   -3.5242   -1.7357 H   0  0  0  0  0  0  0  0  0  0  0  0
   -5.4233   -2.6322   -1.3714 H   0  0  0  0  0  0  0  0  0  0  0  0
   -2.8180   -0.5815   -0.5691 H   0  0  0  0  0  0  0  0  0  0  0  0
   -0.3695    1.7788    1.0364 H   0  0  0  0  0  0  0  0  0  0  0  0
    1.9801    1.8164    0.4366 H   0  0  0  0  0  0  0  0  0  0  0  0
    3.7825    0.5836    0.5619 H   0  0  0  0  0  0  0  0  0  0  0  0
    5.7514    0.3250   -2.5943 H   0  0  0  0  0  0  0  0  0  0  0  0
    8.1749    0.5153   -2.6590 H   0  0  0  0  0  0  0  0  0  0  0  0
    9.4722    0.9073   -0.5787 H   0  0  0  0  0  0  0  0  0  0  0  0
    8.3009    1.1076    1.5818 H   0  0  0  0  0  0  0  0  0  0  0  0
    4.1981    1.0298    3.1075 H   0  0  0  0  0  0  0  0  0  0  0  0
    1.3336   -1.3808   -2.3917 H   0  0  0  0  0  0  0  0  0  0  0  0
   -1.0502   -1.4103   -1.8040 H   0  0  0  0  0  0  0  0  0  0  0  0
  1  2  2  0
  2  3  1  0
  3  4  1  0
  4  5  1  0
  5  6  2  0
  6  7  1  0
  7  8  2  0
  8  9  1  0
  8 10  1  0
 10 11  2  0
  2 12  1  0
 12 13  1  0
 13 14  2  0
 14 15  1  0
 15 16  2  0
 16 17  1  0
 17 18  2  0
 17 19  1  0
 19 20  1  0
 20 21  2  0
 21 22  1  0
 22 23  2  0
 23 24  1  0
 24 25  2  0
 25 26  1  0
 26 27  2  0
 26 28  1  0
 16 29  1  0
 29 30  2  0
 11  5  1  0
 30 13  1  0
 25 20  1  0
  3 31  1  0
  3 32  1  0
  6 33  1  0
  7 34  1  0
 10 35  1  0
 11 36  1  0
 12 37  1  0
 14 38  1  0
 15 39  1  0
 19 40  1  0
 21 41  1  0
 22 42  1  0
 23 43  1  0
 24 44  1  0
 28 45  1  0
 29 46  1  0
 30 47  1  0
M  END
$$$$
