
     RDKit          3D

 69 71  0  0  0  0  0  0  0  0999 V2000
   -5.3718   -1.4899   -4.1079 C   0  0  0  0  0  0  0  0  0  0  0  0
   -4.7374   -1.4049   -2.8371 O   0  0  0  0  0  0  0  0  0  0  0  0
   -3.7175   -0.5005   -2.6789 C   0  0  0  0  0  0  0  0  0  0  0  0
   -3.3497    0.4099   -3.6784 C   0  0  0  0  0  0  0  0  0  0  0  0
   -2.3479    1.3486   -3.4515 C   0  0  0  0  0  0  0  0  0  0  0  0
   -1.7159    1.3967   -2.2159 C   0  0  0  0  0  0  0  0  0  0  0  0
   -2.0620    0.5039   -1.1777 C   0  0  0  0  0  0  0  0  0  0  0  0
   -1.2711    0.6494    0.1300 C   0  0  0  0  0  0  0  0  0  0  0  0
   -1.9373    0.3412    1.4997 C   0  0  0  0  0  0  0  0  0  0  0  0
   -1.2895   -0.0776    2.4610 O   0  0  0  0  0  0  0  0  0  0  0  0
   -3.2707    0.7067    1.6205 N   0  0  0  0  0  0  0  0  0  0  0  0
   -4.0858    0.4832    2.8255 C   0  0  0  0  0  0  0  0  0  0  0  0
   -3.5303    1.2675    4.0261 C   0  0  0  0  0  0  0  0  0  0  0  0
   -4.1794   -1.0127    3.1632 C   0  0  0  0  0  0  0  0  0  0  0  0
   -5.5063    1.0064    2.5380 C   0  0  0  0  0  0  0  0  0  0  0  0
    0.0944    0.0762    0.0137 N   0  0  0  0  0  0  0  0  0  0  0  0
    1.1739    0.9627    0.0264 C   0  0  0  0  0  0  0  0  0  0  0  0
    1.0327    2.1834    0.1291 O   0  0  0  0  0  0  0  0  0  0  0  0
    2.5623    0.3600   -0.1139 C   0  0  0  0  0  0  0  0  0  0  0  0
    3.6280    1.4478   -0.2224 C   0  0  0  0  0  0  0  0  0  0  0  0
    5.0323    0.8774   -0.2057 C   0  0  0  0  0  0  0  0  0  0  0  0
    5.2573   -0.3286   -0.2053 O   0  0  0  0  0  0  0  0  0  0  0  0
    5.9821    1.8737   -0.2001 N   0  0  0  0  0  0  0  0  0  0  0  0
    7.3447    1.6792   -0.1618 C   0  0  0  0  0  0  0  0  0  0  0  0
    8.0837    0.4761   -0.1240 C   0  0  0  0  0  0  0  0  0  0  0  0
    9.3958    0.8767   -0.0728 C   0  0  0  0  0  0  0  0  0  0  0  0
   10.6890    0.1721    0.0043 C   0  0  0  0  0  0  0  0  0  0  0  0
    9.4459    2.2348   -0.0910 O   0  0  0  0  0  0  0  0  0  0  0  0
    8.1602    2.7404   -0.1442 N   0  0  0  0  0  0  0  0  0  0  0  0
    0.2369   -1.3257   -0.3224 C   0  0  0  0  0  0  0  0  0  0  0  0
    0.9808   -2.2728    0.5881 C   0  0  0  0  0  0  0  0  0  0  0  0
   -0.4849   -2.4522    0.3762 C   0  0  0  0  0  0  0  0  0  0  0  0
   -3.0505   -0.4720   -1.4306 C   0  0  0  0  0  0  0  0  0  0  0  0
   -3.3393   -1.2941   -0.3719 O   0  0  0  0  0  0  0  0  0  0  0  0
   -3.7501   -2.6260   -0.6617 C   0  0  0  0  0  0  0  0  0  0  0  0
   -6.0910   -2.3125   -4.0631 H   0  0  0  0  0  0  0  0  0  0  0  0
   -5.9243   -0.5707   -4.3320 H   0  0  0  0  0  0  0  0  0  0  0  0
   -4.6499   -1.7246   -4.8974 H   0  0  0  0  0  0  0  0  0  0  0  0
   -3.8344    0.4237   -4.6487 H   0  0  0  0  0  0  0  0  0  0  0  0
   -2.0680    2.0512   -4.2339 H   0  0  0  0  0  0  0  0  0  0  0  0
   -0.9385    2.1457   -2.0558 H   0  0  0  0  0  0  0  0  0  0  0  0
   -1.1610    1.7394    0.2349 H   0  0  0  0  0  0  0  0  0  0  0  0
   -3.7796    0.7455    0.7436 H   0  0  0  0  0  0  0  0  0  0  0  0
   -3.4424    2.3339    3.7893 H   0  0  0  0  0  0  0  0  0  0  0  0
   -2.5393    0.9184    4.3277 H   0  0  0  0  0  0  0  0  0  0  0  0
   -4.1864    1.1714    4.8991 H   0  0  0  0  0  0  0  0  0  0  0  0
   -4.8282   -1.1781    4.0308 H   0  0  0  0  0  0  0  0  0  0  0  0
   -3.2021   -1.4448    3.3998 H   0  0  0  0  0  0  0  0  0  0  0  0
   -4.5919   -1.5818    2.3227 H   0  0  0  0  0  0  0  0  0  0  0  0
   -6.1623    0.8849    3.4079 H   0  0  0  0  0  0  0  0  0  0  0  0
   -5.9642    0.4725    1.6964 H   0  0  0  0  0  0  0  0  0  0  0  0
   -5.4891    2.0693    2.2738 H   0  0  0  0  0  0  0  0  0  0  0  0
    2.7629   -0.2462    0.7752 H   0  0  0  0  0  0  0  0  0  0  0  0
    2.6015   -0.2808   -1.0005 H   0  0  0  0  0  0  0  0  0  0  0  0
    3.4924    2.0090   -1.1556 H   0  0  0  0  0  0  0  0  0  0  0  0
    3.5372    2.1548    0.6131 H   0  0  0  0  0  0  0  0  0  0  0  0
    5.7082    2.8474   -0.2042 H   0  0  0  0  0  0  0  0  0  0  0  0
    7.7180   -0.5402   -0.1193 H   0  0  0  0  0  0  0  0  0  0  0  0
   11.3534    0.4970   -0.8025 H   0  0  0  0  0  0  0  0  0  0  0  0
   11.1806    0.3816    0.9608 H   0  0  0  0  0  0  0  0  0  0  0  0
   10.5565   -0.9098   -0.0806 H   0  0  0  0  0  0  0  0  0  0  0  0
    0.3687   -1.4653   -1.3963 H   0  0  0  0  0  0  0  0  0  0  0  0
    1.2986   -1.9201    1.5655 H   0  0  0  0  0  0  0  0  0  0  0  0
    1.6647   -2.9790    0.1362 H   0  0  0  0  0  0  0  0  0  0  0  0
   -1.1270   -2.2535    1.2245 H   0  0  0  0  0  0  0  0  0  0  0  0
   -0.8050   -3.2897   -0.2326 H   0  0  0  0  0  0  0  0  0  0  0  0
   -3.5174   -3.2399    0.2140 H   0  0  0  0  0  0  0  0  0  0  0  0
   -4.8345   -2.6733   -0.8062 H   0  0  0  0  0  0  0  0  0  0  0  0
   -3.2088   -3.0529   -1.5134 H   0  0  0  0  0  0  0  0  0  0  0  0
  1  2  1  0
  2  3  1  0
  3  4  2  0
  4  5  1  0
  5  6  2  0
  6  7  1  0
  7  8  1  0
  8  9  1  0
  9 10  2  0
  9 11  1  0
 11 12  1  0
 12 13  1  0
 12 14  1  0
 12 15  1  0
  8 16  1  0
 16 17  1  0
 17 18  2  0
 17 19  1  0
 19 20  1  0
 20 21  1  0
 21 22  2  0
 21 23  1  0
 23 24  1  0
 24 25  1  0
 25 26  2  0
 26 27  1  0
 26 28  1  0
 28 29  1  0
 16 30  1  0
 30 31  1  0
 31 32  1  0
  7 33  2  0
 33 34  1  0
 34 35  1  0
 33  3  1  0
 29 24  2  0
 32 30  1  0
  1 36  1  0
  1 37  1  0
  1 38  1  0
  4 39  1  0
  5 40  1  0
  6 41  1  0
  8 42  1  0
 11 43  1  0
 13 44  1  0
 13 45  1  0
 13 46  1  0
 14 47  1  0
 14 48  1  0
 14 49  1  0
 15 50  1  0
 15 51  1  0
 15 52  1  0
 19 53  1  0
 19 54  1  0
 20 55  1  0
 20 56  1  0
 23 57  1  0
 25 58  1  0
 27 59  1  0
 27 60  1  0
 27 61  1  0
 30 62  1  0
 31 63  1  0
 31 64  1  0
 32 65  1  0
 32 66  1  0
 35 67  1  0
 35 68  1  0
 35 69  1  0
M  END
$$$$
