
     RDKit          3D

 46 49  0  0  0  0  0  0  0  0999 V2000
    1.6774   -0.4252   -1.4412 O   0  0  0  0  0  0  0  0  0  0  0  0
    1.4434   -0.4809   -0.2381 C   0  0  0  0  0  0  0  0  0  0  0  0
    0.9404   -1.7496    0.4265 C   0  0  0  0  0  0  0  0  0  0  0  0
   -0.0200   -2.4958   -0.3753 N   0  0  0  0  0  0  0  0  0  0  0  0
   -1.2113   -2.0234   -0.8993 C   0  0  0  0  0  0  0  0  0  0  0  0
   -1.6531   -0.5922   -0.8754 C   0  0  0  0  0  0  0  0  0  0  0  0
   -1.6042   -0.1480    0.4813 O   0  0  0  0  0  0  0  0  0  0  0  0
   -1.7797    1.1907    0.7026 C   0  0  0  0  0  0  0  0  0  0  0  0
   -1.9480    2.1736   -0.2740 C   0  0  0  0  0  0  0  0  0  0  0  0
   -2.0670    3.5174    0.0958 C   0  0  0  0  0  0  0  0  0  0  0  0
   -2.0280    3.8832    1.4398 C   0  0  0  0  0  0  0  0  0  0  0  0
   -1.8763    2.9050    2.4189 C   0  0  0  0  0  0  0  0  0  0  0  0
   -1.7527    1.5646    2.0494 C   0  0  0  0  0  0  0  0  0  0  0  0
   -1.8854   -3.0025   -1.4740 N   0  0  0  0  0  0  0  0  0  0  0  0
   -1.1230   -4.1293   -1.3234 C   0  0  0  0  0  0  0  0  0  0  0  0
   -1.3833   -5.4396   -1.7514 C   0  0  0  0  0  0  0  0  0  0  0  0
   -0.4459   -6.4402   -1.4738 C   0  0  0  0  0  0  0  0  0  0  0  0
    0.7281   -6.1410   -0.7827 C   0  0  0  0  0  0  0  0  0  0  0  0
    1.0043   -4.8387   -0.3480 C   0  0  0  0  0  0  0  0  0  0  0  0
    0.0543   -3.8490   -0.6372 C   0  0  0  0  0  0  0  0  0  0  0  0
    1.6029    0.5648    0.6571 N   0  0  0  0  0  0  0  0  0  0  0  0
    1.8439    1.9307    0.3675 C   0  0  0  0  0  0  0  0  0  0  0  0
    1.9245    2.4387   -0.9323 C   0  0  0  0  0  0  0  0  0  0  0  0
    2.0962    3.8126   -1.1505 C   0  0  0  0  0  0  0  0  0  0  0  0
    2.1580    4.3639   -2.7877 Cl  0  0  0  0  0  0  0  0  0  0  0  0
    2.1996    4.6903   -0.0660 C   0  0  0  0  0  0  0  0  0  0  0  0
    2.4033    6.3940   -0.2665 Cl  0  0  0  0  0  0  0  0  0  0  0  0
    2.1357    4.1953    1.2358 C   0  0  0  0  0  0  0  0  0  0  0  0
    1.9573    2.8275    1.4477 C   0  0  0  0  0  0  0  0  0  0  0  0
    1.8778    2.2627    3.0839 Cl  0  0  0  0  0  0  0  0  0  0  0  0
    0.4494   -1.5403    1.3826 H   0  0  0  0  0  0  0  0  0  0  0  0
    1.8113   -2.3804    0.6248 H   0  0  0  0  0  0  0  0  0  0  0  0
   -2.6813   -0.5168   -1.2478 H   0  0  0  0  0  0  0  0  0  0  0  0
   -0.9863   -0.0121   -1.5222 H   0  0  0  0  0  0  0  0  0  0  0  0
   -1.9898    1.9377   -1.3326 H   0  0  0  0  0  0  0  0  0  0  0  0
   -2.1958    4.2795   -0.6696 H   0  0  0  0  0  0  0  0  0  0  0  0
   -2.1274    4.9282    1.7230 H   0  0  0  0  0  0  0  0  0  0  0  0
   -1.8564    3.1831    3.4695 H   0  0  0  0  0  0  0  0  0  0  0  0
   -1.6373    0.8060    2.8196 H   0  0  0  0  0  0  0  0  0  0  0  0
   -2.2993   -5.6617   -2.2872 H   0  0  0  0  0  0  0  0  0  0  0  0
   -0.6373   -7.4589   -1.8021 H   0  0  0  0  0  0  0  0  0  0  0  0
    1.4444   -6.9344   -0.5791 H   0  0  0  0  0  0  0  0  0  0  0  0
    1.9238   -4.6226    0.1837 H   0  0  0  0  0  0  0  0  0  0  0  0
    1.4583    0.3702    1.6448 H   0  0  0  0  0  0  0  0  0  0  0  0
    1.8377    1.7905   -1.7992 H   0  0  0  0  0  0  0  0  0  0  0  0
    2.2166    4.8727    2.0822 H   0  0  0  0  0  0  0  0  0  0  0  0
  1  2  2  0
  2  3  1  0
  3  4  1  0
  4  5  1  0
  5  6  1  0
  6  7  1  0
  7  8  1  0
  8  9  2  0
  9 10  1  0
 10 11  2  0
 11 12  1  0
 12 13  2  0
  5 14  2  0
 14 15  1  0
 15 16  2  0
 16 17  1  0
 17 18  2  0
 18 19  1  0
 19 20  2  0
  2 21  1  0
 21 22  1  0
 22 23  2  0
 23 24  1  0
 24 25  1  0
 24 26  2  0
 26 27  1  0
 26 28  1  0
 28 29  2  0
 29 30  1  0
 20  4  1  0
 29 22  1  0
 13  8  1  0
 20 15  1  0
  3 31  1  0
  3 32  1  0
  6 33  1  0
  6 34  1  0
  9 35  1  0
 10 36  1  0
 11 37  1  0
 12 38  1  0
 13 39  1  0
 16 40  1  0
 17 41  1  0
 18 42  1  0
 19 43  1  0
 21 44  1  0
 23 45  1  0
 28 46  1  0
M  END
$$$$
