
     RDKit          3D

 43 45  0  0  0  0  0  0  0  0999 V2000
    7.9391   -1.5683    0.2656 C   0  0  0  0  0  0  0  0  0  0  0  0
    6.5736   -1.2673   -0.0257 O   0  0  0  0  0  0  0  0  0  0  0  0
    6.0513   -0.2801    0.7438 C   0  0  0  0  0  0  0  0  0  0  0  0
    6.6410    0.3292    1.6224 O   0  0  0  0  0  0  0  0  0  0  0  0
    4.6317   -0.0224    0.3784 C   0  0  0  0  0  0  0  0  0  0  0  0
    3.9434    0.9874    1.0640 C   0  0  0  0  0  0  0  0  0  0  0  0
    2.6059    1.2719    0.7617 C   0  0  0  0  0  0  0  0  0  0  0  0
    1.9437    0.5463   -0.2283 C   0  0  0  0  0  0  0  0  0  0  0  0
    0.6454    0.7157   -0.6194 O   0  0  0  0  0  0  0  0  0  0  0  0
   -0.1225    1.6875    0.0786 C   0  0  0  0  0  0  0  0  0  0  0  0
   -1.5542    1.7334   -0.4744 C   0  0  0  0  0  0  0  0  0  0  0  0
   -1.9129    2.7741   -1.0335 O   0  0  0  0  0  0  0  0  0  0  0  0
   -2.3713    0.5996   -0.2588 N   0  0  0  0  0  0  0  0  0  0  0  0
   -1.9593   -0.4163    0.7210 C   0  0  0  0  0  0  0  0  0  0  0  0
   -2.7374   -1.7173    0.6634 C   0  0  0  0  0  0  0  0  0  0  0  0
   -4.2123   -1.4168    0.8033 C   0  0  0  0  0  0  0  0  0  0  0  0
   -4.6224   -0.4494   -0.2710 C   0  0  0  0  0  0  0  0  0  0  0  0
   -5.9483   -0.5097   -0.7408 C   0  0  0  0  0  0  0  0  0  0  0  0
   -6.3852    0.3471   -1.7437 C   0  0  0  0  0  0  0  0  0  0  0  0
   -5.4994    1.2665   -2.2858 C   0  0  0  0  0  0  0  0  0  0  0  0
   -4.1847    1.3437   -1.8106 C   0  0  0  0  0  0  0  0  0  0  0  0
   -3.7213    0.5141   -0.7773 C   0  0  0  0  0  0  0  0  0  0  0  0
    2.6303   -0.4590   -0.9146 C   0  0  0  0  0  0  0  0  0  0  0  0
    3.9660   -0.7462   -0.6168 C   0  0  0  0  0  0  0  0  0  0  0  0
    8.5712   -0.6925    0.0880 H   0  0  0  0  0  0  0  0  0  0  0  0
    8.0427   -1.9196    1.2970 H   0  0  0  0  0  0  0  0  0  0  0  0
    8.2602   -2.3688   -0.4066 H   0  0  0  0  0  0  0  0  0  0  0  0
    4.4485    1.5632    1.8383 H   0  0  0  0  0  0  0  0  0  0  0  0
    2.1205    2.0689    1.3156 H   0  0  0  0  0  0  0  0  0  0  0  0
   -0.1617    1.4845    1.1550 H   0  0  0  0  0  0  0  0  0  0  0  0
    0.3157    2.6821   -0.0747 H   0  0  0  0  0  0  0  0  0  0  0  0
   -2.0513    0.0403    1.7149 H   0  0  0  0  0  0  0  0  0  0  0  0
   -0.9053   -0.6647    0.5800 H   0  0  0  0  0  0  0  0  0  0  0  0
   -2.5406   -2.2267   -0.2889 H   0  0  0  0  0  0  0  0  0  0  0  0
   -2.4099   -2.3881    1.4654 H   0  0  0  0  0  0  0  0  0  0  0  0
   -4.4334   -0.9808    1.7847 H   0  0  0  0  0  0  0  0  0  0  0  0
   -4.7754   -2.3535    0.7167 H   0  0  0  0  0  0  0  0  0  0  0  0
   -6.6443   -1.2368   -0.3278 H   0  0  0  0  0  0  0  0  0  0  0  0
   -7.4072    0.2910   -2.1076 H   0  0  0  0  0  0  0  0  0  0  0  0
   -5.8217    1.9313   -3.0833 H   0  0  0  0  0  0  0  0  0  0  0  0
   -3.5385    2.0649   -2.3003 H   0  0  0  0  0  0  0  0  0  0  0  0
    2.1207   -1.0243   -1.6924 H   0  0  0  0  0  0  0  0  0  0  0  0
    4.4697   -1.5342   -1.1709 H   0  0  0  0  0  0  0  0  0  0  0  0
  1  2  1  0
  2  3  1  0
  3  4  2  0
  3  5  1  0
  5  6  2  0
  6  7  1  0
  7  8  2  0
  8  9  1  0
  9 10  1  0
 10 11  1  0
 11 12  2  0
 11 13  1  0
 13 14  1  0
 14 15  1  0
 15 16  1  0
 16 17  1  0
 17 18  2  0
 18 19  1  0
 19 20  2  0
 20 21  1  0
 21 22  2  0
  8 23  1  0
 23 24  2  0
 24  5  1  0
 22 13  1  0
 22 17  1  0
  1 25  1  0
  1 26  1  0
  1 27  1  0
  6 28  1  0
  7 29  1  0
 10 30  1  0
 10 31  1  0
 14 32  1  0
 14 33  1  0
 15 34  1  0
 15 35  1  0
 16 36  1  0
 16 37  1  0
 18 38  1  0
 19 39  1  0
 20 40  1  0
 21 41  1  0
 23 42  1  0
 24 43  1  0
M  END
$$$$
