
     RDKit          3D

 57 60  0  0  0  0  0  0  0  0999 V2000
   -1.6738    3.3001   -2.4174 C   0  0  0  0  0  0  0  0  0  0  0  0
   -0.3548    3.4433   -1.6688 C   0  0  0  0  0  0  0  0  0  0  0  0
   -0.1951    2.4600   -0.4992 C   0  0  0  0  0  0  0  0  0  0  0  0
   -0.0204    0.7294   -1.1065 S   0  0  0  0  0  0  0  0  0  0  0  0
   -1.6274    0.1153   -0.7518 C   0  0  0  0  0  0  0  0  0  0  0  0
   -2.0740    0.3933    0.4389 N   0  0  0  0  0  0  0  0  0  0  0  0
   -3.3687   -0.0545    0.6923 C   0  0  0  0  0  0  0  0  0  0  0  0
   -4.0513    0.1512    1.9104 C   0  0  0  0  0  0  0  0  0  0  0  0
   -5.3271   -0.3788    1.8523 C   0  0  0  0  0  0  0  0  0  0  0  0
   -5.6541   -1.1174    0.3323 S   0  0  0  0  0  0  0  0  0  0  0  0
   -4.1077   -0.7197   -0.2391 C   0  0  0  0  0  0  0  0  0  0  0  0
   -3.6116   -1.0336   -1.5464 C   0  0  0  0  0  0  0  0  0  0  0  0
   -4.2718   -1.6128   -2.4064 O   0  0  0  0  0  0  0  0  0  0  0  0
   -2.2915   -0.6036   -1.7497 N   0  0  0  0  0  0  0  0  0  0  0  0
   -1.6894   -0.9715   -3.0406 C   0  0  0  0  0  0  0  0  0  0  0  0
   -0.8959   -2.2673   -2.9645 C   0  0  0  0  0  0  0  0  0  0  0  0
   -1.5552   -3.4981   -2.8045 C   0  0  0  0  0  0  0  0  0  0  0  0
   -0.8296   -4.6916   -2.7142 C   0  0  0  0  0  0  0  0  0  0  0  0
    0.5676   -4.6732   -2.7900 C   0  0  0  0  0  0  0  0  0  0  0  0
    1.3785   -5.9108   -2.6855 C   0  0  0  0  0  0  0  0  0  0  0  0
    2.5982   -5.9710   -2.6470 O   0  0  0  0  0  0  0  0  0  0  0  0
    0.6205   -7.0239   -2.6296 O   0  0  0  0  0  0  0  0  0  0  0  0
    1.2315   -3.4549   -2.9667 C   0  0  0  0  0  0  0  0  0  0  0  0
    0.5059   -2.2622   -3.0591 C   0  0  0  0  0  0  0  0  0  0  0  0
    1.0521    2.7806    0.3422 C   0  0  0  0  0  0  0  0  0  0  0  0
    1.8832    3.6079   -0.0215 O   0  0  0  0  0  0  0  0  0  0  0  0
    1.0933    2.0483    1.5245 N   0  0  0  0  0  0  0  0  0  0  0  0
    2.0913    2.0756    2.5214 C   0  0  0  0  0  0  0  0  0  0  0  0
    1.9277    1.2080    3.6094 C   0  0  0  0  0  0  0  0  0  0  0  0
    2.8768    1.1612    4.6370 C   0  0  0  0  0  0  0  0  0  0  0  0
    4.0127    1.9819    4.5983 C   0  0  0  0  0  0  0  0  0  0  0  0
    5.0262    1.9056    5.7075 C   0  0  0  0  0  0  0  0  0  0  0  0
    4.1645    2.8590    3.5119 C   0  0  0  0  0  0  0  0  0  0  0  0
    5.5358    3.9097    3.3927 Cl  0  0  0  0  0  0  0  0  0  0  0  0
    3.2136    2.9049    2.4836 C   0  0  0  0  0  0  0  0  0  0  0  0
   -2.5242    3.3317   -1.7298 H   0  0  0  0  0  0  0  0  0  0  0  0
   -1.7192    2.3661   -2.9828 H   0  0  0  0  0  0  0  0  0  0  0  0
   -1.7881    4.1217   -3.1327 H   0  0  0  0  0  0  0  0  0  0  0  0
    0.4814    3.3576   -2.3737 H   0  0  0  0  0  0  0  0  0  0  0  0
   -0.3078    4.4666   -1.2738 H   0  0  0  0  0  0  0  0  0  0  0  0
   -1.0572    2.5757    0.1665 H   0  0  0  0  0  0  0  0  0  0  0  0
   -3.6510    0.6624    2.7771 H   0  0  0  0  0  0  0  0  0  0  0  0
   -6.0852   -0.3705    2.6220 H   0  0  0  0  0  0  0  0  0  0  0  0
   -1.0581   -0.1561   -3.4160 H   0  0  0  0  0  0  0  0  0  0  0  0
   -2.4695   -1.0901   -3.8063 H   0  0  0  0  0  0  0  0  0  0  0  0
   -2.6446   -3.5443   -2.7564 H   0  0  0  0  0  0  0  0  0  0  0  0
   -1.3668   -5.6280   -2.5810 H   0  0  0  0  0  0  0  0  0  0  0  0
    1.2810   -7.7493   -2.5722 H   0  0  0  0  0  0  0  0  0  0  0  0
    2.3132   -3.4270   -3.0294 H   0  0  0  0  0  0  0  0  0  0  0  0
    1.0497   -1.3322   -3.2046 H   0  0  0  0  0  0  0  0  0  0  0  0
    0.3424    1.3747    1.6598 H   0  0  0  0  0  0  0  0  0  0  0  0
    1.0656    0.5482    3.6716 H   0  0  0  0  0  0  0  0  0  0  0  0
    2.7243    0.4702    5.4656 H   0  0  0  0  0  0  0  0  0  0  0  0
    4.7378    1.1623    6.4655 H   0  0  0  0  0  0  0  0  0  0  0  0
    5.1153    2.8739    6.2064 H   0  0  0  0  0  0  0  0  0  0  0  0
    6.0035    1.5968    5.3136 H   0  0  0  0  0  0  0  0  0  0  0  0
    3.3777    3.5993    1.6646 H   0  0  0  0  0  0  0  0  0  0  0  0
  1  2  1  0
  2  3  1  0
  3  4  1  0
  4  5  1  0
  5  6  2  0
  6  7  1  0
  7  8  1  0
  8  9  2  0
  9 10  1  0
 10 11  1  0
 11 12  1  0
 12 13  2  0
 12 14  1  0
 14 15  1  0
 15 16  1  0
 16 17  2  0
 17 18  1  0
 18 19  2  0
 19 20  1  0
 20 21  2  0
 20 22  1  0
 19 23  1  0
 23 24  2  0
  3 25  1  0
 25 26  2  0
 25 27  1  0
 27 28  1  0
 28 29  2  0
 29 30  1  0
 30 31  2  0
 31 32  1  0
 31 33  1  0
 33 34  1  0
 33 35  2  0
 14  5  1  0
 24 16  1  0
 35 28  1  0
 11  7  2  0
  1 36  1  0
  1 37  1  0
  1 38  1  0
  2 39  1  0
  2 40  1  0
  3 41  1  0
  8 42  1  0
  9 43  1  0
 15 44  1  0
 15 45  1  0
 17 46  1  0
 18 47  1  0
 22 48  1  0
 23 49  1  0
 24 50  1  0
 27 51  1  0
 29 52  1  0
 30 53  1  0
 32 54  1  0
 32 55  1  0
 32 56  1  0
 35 57  1  0
M  END
$$$$
