
     RDKit          3D

 46 48  0  0  0  0  0  0  0  0999 V2000
    2.3905    2.1621   -0.3993 C   0  0  0  0  0  0  0  0  0  0  0  0
    2.5682    1.3181    0.8434 C   0  0  0  0  0  0  0  0  0  0  0  0
    3.9366    1.1723    1.4111 C   0  0  0  0  0  0  0  0  0  0  0  0
    5.0222    0.7723    0.7322 C   0  0  0  0  0  0  0  0  0  0  0  0
    5.0674    0.3518   -0.6710 C   0  0  0  0  0  0  0  0  0  0  0  0
    5.9365    0.9972   -1.5572 C   0  0  0  0  0  0  0  0  0  0  0  0
    6.0020    0.5996   -2.8944 C   0  0  0  0  0  0  0  0  0  0  0  0
    5.2076   -0.4515   -3.3503 C   0  0  0  0  0  0  0  0  0  0  0  0
    4.3506   -1.1097   -2.4698 C   0  0  0  0  0  0  0  0  0  0  0  0
    4.2835   -0.7130   -1.1329 C   0  0  0  0  0  0  0  0  0  0  0  0
    1.5965    0.7339    1.4849 N   0  0  0  0  0  0  0  0  0  0  0  0
    0.3305    0.8329    0.9947 N   0  0  0  0  0  0  0  0  0  0  0  0
   -0.7218    0.2371    1.6633 C   0  0  0  0  0  0  0  0  0  0  0  0
   -0.6716   -0.3630    2.7283 O   0  0  0  0  0  0  0  0  0  0  0  0
   -2.0318    0.4194    0.9831 C   0  0  0  0  0  0  0  0  0  0  0  0
   -2.2239    0.1534   -0.4875 C   0  0  0  0  0  0  0  0  0  0  0  0
   -2.8451   -0.7942    0.5211 C   0  0  0  0  0  0  0  0  0  0  0  0
   -2.2446   -2.1783    0.6298 C   0  0  0  0  0  0  0  0  0  0  0  0
   -4.3510   -0.7482    0.7463 C   0  0  0  0  0  0  0  0  0  0  0  0
   -5.2600   -0.8617   -0.3194 C   0  0  0  0  0  0  0  0  0  0  0  0
   -6.6407   -0.8267   -0.1062 C   0  0  0  0  0  0  0  0  0  0  0  0
   -7.1424   -0.6832    1.1842 C   0  0  0  0  0  0  0  0  0  0  0  0
   -6.2646   -0.5792    2.2591 C   0  0  0  0  0  0  0  0  0  0  0  0
   -4.8853   -0.6146    2.0398 C   0  0  0  0  0  0  0  0  0  0  0  0
    1.6407    2.9367   -0.2116 H   0  0  0  0  0  0  0  0  0  0  0  0
    3.3183    2.6670   -0.6797 H   0  0  0  0  0  0  0  0  0  0  0  0
    2.0599    1.5320   -1.2295 H   0  0  0  0  0  0  0  0  0  0  0  0
    4.0026    1.3710    2.4769 H   0  0  0  0  0  0  0  0  0  0  0  0
    5.9728    0.7061    1.2577 H   0  0  0  0  0  0  0  0  0  0  0  0
    6.5642    1.8169   -1.2158 H   0  0  0  0  0  0  0  0  0  0  0  0
    6.6761    1.1076   -3.5793 H   0  0  0  0  0  0  0  0  0  0  0  0
    5.2624   -0.7632   -4.3903 H   0  0  0  0  0  0  0  0  0  0  0  0
    3.7393   -1.9371   -2.8208 H   0  0  0  0  0  0  0  0  0  0  0  0
    3.6197   -1.2452   -0.4537 H   0  0  0  0  0  0  0  0  0  0  0  0
    0.1568    1.3179    0.1248 H   0  0  0  0  0  0  0  0  0  0  0  0
   -2.5966    1.2465    1.4049 H   0  0  0  0  0  0  0  0  0  0  0  0
   -1.3902   -0.2142   -1.0757 H   0  0  0  0  0  0  0  0  0  0  0  0
   -2.8711    0.8299   -1.0358 H   0  0  0  0  0  0  0  0  0  0  0  0
   -1.1773   -2.1882    0.3838 H   0  0  0  0  0  0  0  0  0  0  0  0
   -2.3601   -2.5683    1.6467 H   0  0  0  0  0  0  0  0  0  0  0  0
   -2.7442   -2.8666   -0.0606 H   0  0  0  0  0  0  0  0  0  0  0  0
   -4.8855   -0.9840   -1.3332 H   0  0  0  0  0  0  0  0  0  0  0  0
   -7.3220   -0.9160   -0.9480 H   0  0  0  0  0  0  0  0  0  0  0  0
   -8.2155   -0.6583    1.3530 H   0  0  0  0  0  0  0  0  0  0  0  0
   -6.6491   -0.4748    3.2702 H   0  0  0  0  0  0  0  0  0  0  0  0
   -4.2108   -0.5425    2.8920 H   0  0  0  0  0  0  0  0  0  0  0  0
  1  2  1  0
  2  3  1  0
  3  4  2  3
  4  5  1  0
  5  6  2  0
  6  7  1  0
  7  8  2  0
  8  9  1  0
  9 10  2  0
  2 11  2  3
 11 12  1  0
 12 13  1  0
 13 14  2  0
 13 15  1  0
 15 16  1  0
 16 17  1  0
 17 18  1  0
 17 19  1  0
 19 20  2  0
 20 21  1  0
 21 22  2  0
 22 23  1  0
 23 24  2  0
 10  5  1  0
 17 15  1  0
 24 19  1  0
  1 25  1  0
  1 26  1  0
  1 27  1  0
  3 28  1  0
  4 29  1  0
  6 30  1  0
  7 31  1  0
  8 32  1  0
  9 33  1  0
 10 34  1  0
 12 35  1  0
 15 36  1  0
 16 37  1  0
 16 38  1  0
 18 39  1  0
 18 40  1  0
 18 41  1  0
 20 42  1  0
 21 43  1  0
 22 44  1  0
 23 45  1  0
 24 46  1  0
M  END
$$$$
