
     RDKit          3D

 49 53  0  0  0  0  0  0  0  0999 V2000
   -4.1645    1.1607   -2.3429 C   0  0  0  0  0  0  0  0  0  0  0  0
   -3.8879    0.3529   -1.1094 C   0  0  0  0  0  0  0  0  0  0  0  0
   -4.8463    0.2577   -0.0898 C   0  0  0  0  0  0  0  0  0  0  0  0
   -4.6056   -0.5202    1.0464 C   0  0  0  0  0  0  0  0  0  0  0  0
   -3.4031   -1.2129    1.1768 C   0  0  0  0  0  0  0  0  0  0  0  0
   -2.4440   -1.1174    0.1645 C   0  0  0  0  0  0  0  0  0  0  0  0
   -0.8997   -1.9930    0.3349 S   0  0  0  0  0  6  0  0  0  0  0  0
   -0.3184   -2.1097   -0.9847 O   0  0  0  0  0  0  0  0  0  0  0  0
   -1.1695   -3.1706    1.1353 O   0  0  0  0  0  0  0  0  0  0  0  0
    0.0305   -0.9698    1.3064 N   0  0  0  0  0  0  0  0  0  0  0  0
    0.1848    0.3520    0.8194 C   0  0  0  0  0  0  0  0  0  0  0  0
   -0.6792    1.1879    1.4359 N   0  0  0  0  0  0  0  0  0  0  0  0
   -0.7604    2.4312    0.9294 C   0  0  0  0  0  0  0  0  0  0  0  0
   -1.6471    3.3408    1.4917 C   0  0  0  0  0  0  0  0  0  0  0  0
   -1.7759    4.6364    0.9870 C   0  0  0  0  0  0  0  0  0  0  0  0
   -1.0020    5.0284   -0.0983 C   0  0  0  0  0  0  0  0  0  0  0  0
   -0.1068    4.1229   -0.6699 C   0  0  0  0  0  0  0  0  0  0  0  0
    0.0286    2.8300   -0.1779 C   0  0  0  0  0  0  0  0  0  0  0  0
    0.9042    1.9862   -0.7613 N   0  0  0  0  0  0  0  0  0  0  0  0
    1.0085    0.7341   -0.2532 C   0  0  0  0  0  0  0  0  0  0  0  0
    1.9492   -0.0833   -0.8839 N   0  0  0  0  0  0  0  0  0  0  0  0
    2.8918   -0.9892   -0.3583 C   0  0  0  0  0  0  0  0  0  0  0  0
    3.2165   -1.0653    1.0133 C   0  0  0  0  0  0  0  0  0  0  0  0
    4.1524   -1.9925    1.4910 C   0  0  0  0  0  0  0  0  0  0  0  0
    4.7467   -2.8339    0.5781 C   0  0  0  0  0  0  0  0  0  0  0  0
    4.4417   -2.7728   -0.7591 C   0  0  0  0  0  0  0  0  0  0  0  0
    3.5240   -1.8686   -1.2538 C   0  0  0  0  0  0  0  0  0  0  0  0
    5.1379   -3.6834   -1.4931 O   0  0  0  0  0  0  0  0  0  0  0  0
    5.8850   -4.3515   -0.4555 C   0  0  0  0  0  0  0  0  0  0  0  0
    5.6724   -3.7909    0.8576 O   0  0  0  0  0  0  0  0  0  0  0  0
   -2.6896   -0.3607   -0.9883 C   0  0  0  0  0  0  0  0  0  0  0  0
   -3.2399    1.5947   -2.7372 H   0  0  0  0  0  0  0  0  0  0  0  0
   -4.8440    1.9908   -2.1238 H   0  0  0  0  0  0  0  0  0  0  0  0
   -4.6170    0.5275   -3.1108 H   0  0  0  0  0  0  0  0  0  0  0  0
   -5.7929    0.7867   -0.1790 H   0  0  0  0  0  0  0  0  0  0  0  0
   -5.3591   -0.5880    1.8271 H   0  0  0  0  0  0  0  0  0  0  0  0
   -3.2242   -1.8204    2.0610 H   0  0  0  0  0  0  0  0  0  0  0  0
   -0.3386   -0.9669    2.2541 H   0  0  0  0  0  0  0  0  0  0  0  0
   -2.2577    3.0317    2.3374 H   0  0  0  0  0  0  0  0  0  0  0  0
   -2.4785    5.3304    1.4413 H   0  0  0  0  0  0  0  0  0  0  0  0
   -1.0930    6.0337   -0.5037 H   0  0  0  0  0  0  0  0  0  0  0  0
    0.4992    4.4305   -1.5196 H   0  0  0  0  0  0  0  0  0  0  0  0
    2.3240    0.4196   -1.6838 H   0  0  0  0  0  0  0  0  0  0  0  0
    2.7603   -0.3907    1.7303 H   0  0  0  0  0  0  0  0  0  0  0  0
    4.4003   -2.0470    2.5454 H   0  0  0  0  0  0  0  0  0  0  0  0
    3.2875   -1.8588   -2.3125 H   0  0  0  0  0  0  0  0  0  0  0  0
    6.9536   -4.2872   -0.6941 H   0  0  0  0  0  0  0  0  0  0  0  0
    5.5923   -5.4083   -0.4371 H   0  0  0  0  0  0  0  0  0  0  0  0
   -1.9465   -0.3135   -1.7839 H   0  0  0  0  0  0  0  0  0  0  0  0
  1  2  1  0
  2  3  2  0
  3  4  1  0
  4  5  2  0
  5  6  1  0
  6  7  1  0
  7  8  2  0
  7  9  2  0
  7 10  1  0
 10 11  1  0
 11 12  2  0
 12 13  1  0
 13 14  2  0
 14 15  1  0
 15 16  2  0
 16 17  1  0
 17 18  2  0
 18 19  1  0
 19 20  2  0
 20 21  1  0
 21 22  1  0
 22 23  2  0
 23 24  1  0
 24 25  2  0
 25 26  1  0
 26 27  2  0
 26 28  1  0
 28 29  1  0
 29 30  1  0
  6 31  2  0
 31  2  1  0
 20 11  1  0
 27 22  1  0
 18 13  1  0
 30 25  1  0
  1 32  1  0
  1 33  1  0
  1 34  1  0
  3 35  1  0
  4 36  1  0
  5 37  1  0
 10 38  1  0
 14 39  1  0
 15 40  1  0
 16 41  1  0
 17 42  1  0
 21 43  1  0
 23 44  1  0
 24 45  1  0
 27 46  1  0
 29 47  1  0
 29 48  1  0
 31 49  1  0
M  END
$$$$
