
     RDKit          3D

 37 37  0  0  0  0  0  0  0  0999 V2000
   -1.6667   -2.6435   -2.5457 C   0  0  0  0  0  0  0  0  0  0  0  0
   -1.3501   -1.7923   -1.4433 O   0  0  0  0  0  0  0  0  0  0  0  0
   -2.1548   -1.9740   -0.3542 C   0  0  0  0  0  0  0  0  0  0  0  0
   -3.1138   -2.7354   -0.3192 O   0  0  0  0  0  0  0  0  0  0  0  0
   -1.7665   -1.0281    0.7960 C   0  0  0  0  0  0  0  0  0  0  0  0
   -2.8991   -0.0269    1.0722 C   0  0  0  0  0  0  0  0  0  0  0  0
   -3.1829    0.9127   -0.1006 C   0  0  0  0  0  0  0  0  0  0  0  0
   -4.5938    2.0222    0.2252 S   0  0  0  0  0  0  0  0  0  0  0  0
   -3.8514    3.1129    1.4648 C   0  0  0  0  0  0  0  0  0  0  0  0
   -0.4951   -0.3303    0.5648 N   0  0  0  0  0  0  0  0  0  0  0  0
    0.6778   -0.9422    0.9326 C   0  0  0  0  0  0  0  0  0  0  0  0
    0.7476   -1.9968    1.5450 O   0  0  0  0  0  0  0  0  0  0  0  0
    1.7588   -0.2154    0.5129 N   0  0  0  0  0  0  0  0  0  0  0  0
    3.0828   -0.6414    0.9046 C   0  0  0  0  0  0  0  0  0  0  0  0
    4.0780    0.2101    0.1866 C   0  0  0  0  0  0  0  0  0  0  0  0
    4.6434    0.0006   -1.0566 C   0  0  0  0  0  0  0  0  0  0  0  0
    5.5564    1.0326   -1.4186 C   0  0  0  0  0  0  0  0  0  0  0  0
    5.6572    1.9970   -0.4414 C   0  0  0  0  0  0  0  0  0  0  0  0
    4.6545    1.6581    0.9012 S   0  0  0  0  0  0  0  0  0  0  0  0
   -0.9438   -2.4478   -3.3425 H   0  0  0  0  0  0  0  0  0  0  0  0
   -1.5856   -3.6958   -2.2558 H   0  0  0  0  0  0  0  0  0  0  0  0
   -2.6689   -2.4199   -2.9244 H   0  0  0  0  0  0  0  0  0  0  0  0
   -1.6444   -1.6639    1.6817 H   0  0  0  0  0  0  0  0  0  0  0  0
   -3.8114   -0.5851    1.3200 H   0  0  0  0  0  0  0  0  0  0  0  0
   -2.6286    0.5564    1.9605 H   0  0  0  0  0  0  0  0  0  0  0  0
   -2.3092    1.5237   -0.3478 H   0  0  0  0  0  0  0  0  0  0  0  0
   -3.4393    0.3364   -0.9950 H   0  0  0  0  0  0  0  0  0  0  0  0
   -3.6760    2.5754    2.3995 H   0  0  0  0  0  0  0  0  0  0  0  0
   -4.5398    3.9372    1.6702 H   0  0  0  0  0  0  0  0  0  0  0  0
   -2.9122    3.5319    1.0948 H   0  0  0  0  0  0  0  0  0  0  0  0
   -0.4081    0.1054   -0.3444 H   0  0  0  0  0  0  0  0  0  0  0  0
    1.6079    0.7826    0.4965 H   0  0  0  0  0  0  0  0  0  0  0  0
    3.2113   -1.6981    0.6432 H   0  0  0  0  0  0  0  0  0  0  0  0
    3.1710   -0.5535    1.9935 H   0  0  0  0  0  0  0  0  0  0  0  0
    4.4106   -0.8562   -1.6783 H   0  0  0  0  0  0  0  0  0  0  0  0
    6.1117    1.0652   -2.3481 H   0  0  0  0  0  0  0  0  0  0  0  0
    6.2725    2.8863   -0.4496 H   0  0  0  0  0  0  0  0  0  0  0  0
  1  2  1  0
  2  3  1  0
  3  4  2  0
  3  5  1  0
  5  6  1  0
  6  7  1  0
  7  8  1  0
  8  9  1  0
  5 10  1  0
 10 11  1  0
 11 12  2  0
 11 13  1  0
 13 14  1  0
 14 15  1  0
 15 16  2  0
 16 17  1  0
 17 18  2  0
 18 19  1  0
 19 15  1  0
  1 20  1  0
  1 21  1  0
  1 22  1  0
  5 23  1  0
  6 24  1  0
  6 25  1  0
  7 26  1  0
  7 27  1  0
  9 28  1  0
  9 29  1  0
  9 30  1  0
 10 31  1  0
 13 32  1  0
 14 33  1  0
 14 34  1  0
 16 35  1  0
 17 36  1  0
 18 37  1  0
M  END
$$$$
