
     RDKit          3D

 33 34  0  0  0  0  0  0  0  0999 V2000
   -4.6336    1.6743   -0.3589 C   0  0  0  0  0  0  0  0  0  0  0  0
   -3.7643    0.5023   -0.7126 C   0  0  0  0  0  0  0  0  0  0  0  0
   -4.2771   -0.5489   -1.4805 C   0  0  0  0  0  0  0  0  0  0  0  0
   -3.4796   -1.6497   -1.7899 C   0  0  0  0  0  0  0  0  0  0  0  0
   -2.1695   -1.7141   -1.3223 C   0  0  0  0  0  0  0  0  0  0  0  0
   -1.4595   -2.8280   -1.6856 O   0  0  0  0  0  0  0  0  0  0  0  0
   -1.6397   -0.6861   -0.5271 C   0  0  0  0  0  0  0  0  0  0  0  0
   -0.2357   -0.7858   -0.0263 C   0  0  0  0  0  0  0  0  0  0  0  0
    0.4924   -1.6636   -0.4944 O   0  0  0  0  0  0  0  0  0  0  0  0
    0.2624    0.2087    0.9932 C   0  0  0  0  0  0  0  0  0  0  0  0
    1.4713   -0.2871    1.7471 C   0  0  0  0  0  0  0  0  0  0  0  0
    1.3880   -1.0380    2.7153 O   0  0  0  0  0  0  0  0  0  0  0  0
    2.8056    0.0960    1.2493 C   0  0  0  0  0  0  0  0  0  0  0  0
    3.6042   -0.9176    0.7060 C   0  0  0  0  0  0  0  0  0  0  0  0
    4.8745   -0.6138    0.2167 C   0  0  0  0  0  0  0  0  0  0  0  0
    5.3500    0.6959    0.2793 C   0  0  0  0  0  0  0  0  0  0  0  0
    4.5590    1.7036    0.8373 C   0  0  0  0  0  0  0  0  0  0  0  0
    3.2847    1.4063    1.3288 C   0  0  0  0  0  0  0  0  0  0  0  0
    2.3738    2.6855    2.0461 Cl  0  0  0  0  0  0  0  0  0  0  0  0
   -2.4475    0.4229   -0.2300 C   0  0  0  0  0  0  0  0  0  0  0  0
   -5.1451    1.4870    0.5902 H   0  0  0  0  0  0  0  0  0  0  0  0
   -4.0371    2.5880   -0.2668 H   0  0  0  0  0  0  0  0  0  0  0  0
   -5.3839    1.8539   -1.1360 H   0  0  0  0  0  0  0  0  0  0  0  0
   -5.3010   -0.5169   -1.8477 H   0  0  0  0  0  0  0  0  0  0  0  0
   -3.8779   -2.4598   -2.3955 H   0  0  0  0  0  0  0  0  0  0  0  0
   -0.5407   -2.7244   -1.3503 H   0  0  0  0  0  0  0  0  0  0  0  0
   -0.5066    0.4113    1.7461 H   0  0  0  0  0  0  0  0  0  0  0  0
    0.4873    1.1429    0.4706 H   0  0  0  0  0  0  0  0  0  0  0  0
    3.2339   -1.9406    0.6594 H   0  0  0  0  0  0  0  0  0  0  0  0
    5.4936   -1.3999   -0.2101 H   0  0  0  0  0  0  0  0  0  0  0  0
    6.3426    0.9310   -0.0990 H   0  0  0  0  0  0  0  0  0  0  0  0
    4.9489    2.7174    0.8936 H   0  0  0  0  0  0  0  0  0  0  0  0
   -2.0735    1.2473    0.3709 H   0  0  0  0  0  0  0  0  0  0  0  0
  1  2  1  0
  2  3  2  0
  3  4  1  0
  4  5  2  0
  5  6  1  0
  5  7  1  0
  7  8  1  0
  8  9  2  0
  8 10  1  0
 10 11  1  0
 11 12  2  0
 11 13  1  0
 13 14  2  0
 14 15  1  0
 15 16  2  0
 16 17  1  0
 17 18  2  0
 18 19  1  0
  7 20  2  0
 20  2  1  0
 18 13  1  0
  1 21  1  0
  1 22  1  0
  1 23  1  0
  3 24  1  0
  4 25  1  0
  6 26  1  0
 10 27  1  0
 10 28  1  0
 14 29  1  0
 15 30  1  0
 16 31  1  0
 17 32  1  0
 20 33  1  0
M  END
$$$$
