
     RDKit          3D

 53 56  0  0  0  0  0  0  0  0999 V2000
    7.0510   -3.3734   -2.4848 C   0  0  0  0  0  0  0  0  0  0  0  0
    6.8236   -3.4130   -0.9837 C   0  0  0  0  0  0  0  0  0  0  0  0
    6.6141   -2.0995   -0.4685 O   0  0  0  0  0  0  0  0  0  0  0  0
    5.3431   -1.6022   -0.4146 C   0  0  0  0  0  0  0  0  0  0  0  0
    5.2337   -0.3674    0.2335 C   0  0  0  0  0  0  0  0  0  0  0  0
    3.9958    0.2664    0.3627 C   0  0  0  0  0  0  0  0  0  0  0  0
    2.8550   -0.3377   -0.1655 C   0  0  0  0  0  0  0  0  0  0  0  0
    1.5315    0.3032   -0.0458 C   0  0  0  0  0  0  0  0  0  0  0  0
    1.3678    1.4248    0.5803 N   0  0  0  0  0  0  0  0  0  0  0  0
    0.0859    1.8905    0.6155 N   0  0  0  0  0  0  0  0  0  0  0  0
   -0.2177    3.0874    1.2563 C   0  0  0  0  0  0  0  0  0  0  0  0
    0.6112    3.8416    1.7563 O   0  0  0  0  0  0  0  0  0  0  0  0
   -1.6490    3.3948    1.2778 C   0  0  0  0  0  0  0  0  0  0  0  0
   -2.1151    4.6791    1.2407 N   0  0  0  0  0  0  0  0  0  0  0  0
   -3.4361    4.6444    1.2424 N   0  0  0  0  0  0  0  0  0  0  0  0
   -3.8514    3.3474    1.2701 N   0  0  0  0  0  0  0  0  0  0  0  0
   -5.2260    3.0151    1.1724 C   0  0  0  0  0  0  0  0  0  0  0  0
   -5.6264    1.7458    1.0901 N   0  0  0  0  0  0  0  0  0  0  0  0
   -7.0134    1.8346    0.9754 O   0  0  0  0  0  0  0  0  0  0  0  0
   -7.4370    3.1586    0.9863 N   0  0  0  0  0  0  0  0  0  0  0  0
   -6.3292    3.8879    1.1119 C   0  0  0  0  0  0  0  0  0  0  0  0
   -6.3062    5.2324    1.1730 N   0  0  0  0  0  0  0  0  0  0  0  0
   -2.7313    2.5273    1.3760 C   0  0  0  0  0  0  0  0  0  0  0  0
   -2.7520    1.0578    1.5715 C   0  0  0  0  0  0  0  0  0  0  0  0
   -2.5014    0.5113    0.2785 O   0  0  0  0  0  0  0  0  0  0  0  0
   -2.4079   -0.8491    0.1782 C   0  0  0  0  0  0  0  0  0  0  0  0
   -2.4091   -1.7541    1.2422 C   0  0  0  0  0  0  0  0  0  0  0  0
   -2.2755   -3.1236    0.9927 C   0  0  0  0  0  0  0  0  0  0  0  0
   -2.1433   -3.5791   -0.3136 C   0  0  0  0  0  0  0  0  0  0  0  0
   -2.0115   -4.8910   -0.5459 F   0  0  0  0  0  0  0  0  0  0  0  0
   -2.1433   -2.6910   -1.3804 C   0  0  0  0  0  0  0  0  0  0  0  0
   -2.2754   -1.3244   -1.1321 C   0  0  0  0  0  0  0  0  0  0  0  0
    2.9525   -1.5681   -0.8200 C   0  0  0  0  0  0  0  0  0  0  0  0
    4.1972   -2.1976   -0.9445 C   0  0  0  0  0  0  0  0  0  0  0  0
    6.1720   -2.9930   -3.0135 H   0  0  0  0  0  0  0  0  0  0  0  0
    7.2820   -4.3718   -2.8670 H   0  0  0  0  0  0  0  0  0  0  0  0
    7.8817   -2.7027   -2.7285 H   0  0  0  0  0  0  0  0  0  0  0  0
    6.0270   -4.1090   -0.6990 H   0  0  0  0  0  0  0  0  0  0  0  0
    7.7353   -3.7903   -0.5066 H   0  0  0  0  0  0  0  0  0  0  0  0
    6.1227    0.1062    0.6443 H   0  0  0  0  0  0  0  0  0  0  0  0
    3.9325    1.2257    0.8721 H   0  0  0  0  0  0  0  0  0  0  0  0
    0.6843   -0.2282   -0.5150 H   0  0  0  0  0  0  0  0  0  0  0  0
   -0.6406    1.3732    0.1288 H   0  0  0  0  0  0  0  0  0  0  0  0
   -5.4342    5.7515    1.0725 H   0  0  0  0  0  0  0  0  0  0  0  0
   -7.1369    5.7548    0.9146 H   0  0  0  0  0  0  0  0  0  0  0  0
   -3.6852    0.6813    1.9952 H   0  0  0  0  0  0  0  0  0  0  0  0
   -1.9414    0.7859    2.2599 H   0  0  0  0  0  0  0  0  0  0  0  0
   -2.5079   -1.4360    2.2750 H   0  0  0  0  0  0  0  0  0  0  0  0
   -2.2744   -3.8381    1.8106 H   0  0  0  0  0  0  0  0  0  0  0  0
   -2.0463   -3.0659   -2.3944 H   0  0  0  0  0  0  0  0  0  0  0  0
   -2.2826   -0.6270   -1.9670 H   0  0  0  0  0  0  0  0  0  0  0  0
    2.0721   -2.0492   -1.2382 H   0  0  0  0  0  0  0  0  0  0  0  0
    4.2355   -3.1467   -1.4681 H   0  0  0  0  0  0  0  0  0  0  0  0
  1  2  1  0
  2  3  1  0
  3  4  1  0
  4  5  2  0
  5  6  1  0
  6  7  2  0
  7  8  1  0
  8  9  2  3
  9 10  1  0
 10 11  1  0
 11 12  2  0
 11 13  1  0
 13 14  1  0
 14 15  2  0
 15 16  1  0
 16 17  1  0
 17 18  2  0
 18 19  1  0
 19 20  1  0
 20 21  2  0
 21 22  1  0
 16 23  1  0
 23 24  1  0
 24 25  1  0
 25 26  1  0
 26 27  2  0
 27 28  1  0
 28 29  2  0
 29 30  1  0
 29 31  1  0
 31 32  2  0
  7 33  1  0
 33 34  2  0
 34  4  1  0
 23 13  2  0
 32 26  1  0
 21 17  1  0
  1 35  1  0
  1 36  1  0
  1 37  1  0
  2 38  1  0
  2 39  1  0
  5 40  1  0
  6 41  1  0
  8 42  1  0
 10 43  1  0
 22 44  1  0
 22 45  1  0
 24 46  1  0
 24 47  1  0
 27 48  1  0
 28 49  1  0
 31 50  1  0
 32 51  1  0
 33 52  1  0
 34 53  1  0
M  END
$$$$
