
     RDKit          3D

 48 49  0  0  0  0  0  0  0  0999 V2000
   -6.8924    0.6245   -2.0712 C   0  0  0  0  0  0  0  0  0  0  0  0
   -6.6163    0.3116   -0.6077 C   0  0  0  0  0  0  0  0  0  0  0  0
   -5.2119   -0.0182   -0.3629 N   0  0  0  0  0  0  0  0  0  0  0  0
   -4.7965   -1.4079   -0.5881 C   0  0  0  0  0  0  0  0  0  0  0  0
   -5.1840   -2.3248    0.5620 C   0  0  0  0  0  0  0  0  0  0  0  0
   -4.3296    1.0491   -0.1713 C   0  0  0  0  0  0  0  0  0  0  0  0
   -4.6648    2.2302   -0.2293 O   0  0  0  0  0  0  0  0  0  0  0  0
   -2.9071    0.7677    0.1077 C   0  0  0  0  0  0  0  0  0  0  0  0
   -1.9400    1.2199   -0.7907 C   0  0  0  0  0  0  0  0  0  0  0  0
   -0.5887    0.9777   -0.5301 C   0  0  0  0  0  0  0  0  0  0  0  0
   -0.1952    0.2969    0.6312 C   0  0  0  0  0  0  0  0  0  0  0  0
    1.1839    0.0946    0.8157 N   0  0  0  0  0  0  0  0  0  0  0  0
    1.8241   -0.5579    1.8536 C   0  0  0  0  0  0  0  0  0  0  0  0
    1.2924   -1.1032    2.8168 O   0  0  0  0  0  0  0  0  0  0  0  0
    3.3503   -0.5528    1.7121 C   0  0  0  0  0  0  0  0  0  0  0  0
    3.7456    0.0788    0.4975 O   0  0  0  0  0  0  0  0  0  0  0  0
    5.0827    0.1710    0.2199 C   0  0  0  0  0  0  0  0  0  0  0  0
    6.1018   -0.3151    1.0456 C   0  0  0  0  0  0  0  0  0  0  0  0
    7.4435   -0.1718    0.6719 C   0  0  0  0  0  0  0  0  0  0  0  0
    7.7680    0.4614   -0.5349 C   0  0  0  0  0  0  0  0  0  0  0  0
    9.1759    0.6094   -0.9242 N   0  0  0  0  0  4  0  0  0  0  0  0
   10.0351    0.1610   -0.1528 O   0  0  0  0  0  0  0  0  0  0  0  0
    9.4187    1.1727   -2.0000 O   0  0  0  0  0  1  0  0  0  0  0  0
    6.7624    0.9531   -1.3720 C   0  0  0  0  0  0  0  0  0  0  0  0
    5.4275    0.8046   -0.9891 C   0  0  0  0  0  0  0  0  0  0  0  0
    4.2055    1.4236   -2.0474 Cl  0  0  0  0  0  0  0  0  0  0  0  0
   -1.1725   -0.1278    1.5355 C   0  0  0  0  0  0  0  0  0  0  0  0
   -2.5270    0.1141    1.2809 C   0  0  0  0  0  0  0  0  0  0  0  0
   -6.6646   -0.2341   -2.7105 H   0  0  0  0  0  0  0  0  0  0  0  0
   -7.9470    0.8815   -2.2107 H   0  0  0  0  0  0  0  0  0  0  0  0
   -6.2869    1.4678   -2.4184 H   0  0  0  0  0  0  0  0  0  0  0  0
   -6.8886    1.1819    0.0008 H   0  0  0  0  0  0  0  0  0  0  0  0
   -7.2439   -0.5204   -0.2733 H   0  0  0  0  0  0  0  0  0  0  0  0
   -3.7172   -1.4671   -0.7509 H   0  0  0  0  0  0  0  0  0  0  0  0
   -5.2642   -1.7577   -1.5151 H   0  0  0  0  0  0  0  0  0  0  0  0
   -4.7573   -1.9820    1.5087 H   0  0  0  0  0  0  0  0  0  0  0  0
   -4.8236   -3.3407    0.3724 H   0  0  0  0  0  0  0  0  0  0  0  0
   -6.2700   -2.3726    0.6872 H   0  0  0  0  0  0  0  0  0  0  0  0
   -2.2371    1.7618   -1.6854 H   0  0  0  0  0  0  0  0  0  0  0  0
    0.1500    1.3346   -1.2442 H   0  0  0  0  0  0  0  0  0  0  0  0
    1.8033    0.4650    0.0986 H   0  0  0  0  0  0  0  0  0  0  0  0
    3.6787   -1.5983    1.7172 H   0  0  0  0  0  0  0  0  0  0  0  0
    3.7518   -0.0050    2.5722 H   0  0  0  0  0  0  0  0  0  0  0  0
    5.8914   -0.8119    1.9887 H   0  0  0  0  0  0  0  0  0  0  0  0
    8.2193   -0.5586    1.3317 H   0  0  0  0  0  0  0  0  0  0  0  0
    7.0026    1.4467   -2.3113 H   0  0  0  0  0  0  0  0  0  0  0  0
   -0.9134   -0.6393    2.4573 H   0  0  0  0  0  0  0  0  0  0  0  0
   -3.2745   -0.1939    2.0064 H   0  0  0  0  0  0  0  0  0  0  0  0
  1  2  1  0
  2  3  1  0
  3  4  1  0
  4  5  1  0
  3  6  1  0
  6  7  2  0
  6  8  1  0
  8  9  2  0
  9 10  1  0
 10 11  2  0
 11 12  1  0
 12 13  1  0
 13 14  2  0
 13 15  1  0
 15 16  1  0
 16 17  1  0
 17 18  2  0
 18 19  1  0
 19 20  2  0
 20 21  1  0
 21 22  2  0
 21 23  1  0
 20 24  1  0
 24 25  2  0
 25 26  1  0
 11 27  1  0
 27 28  2  0
 28  8  1  0
 25 17  1  0
  1 29  1  0
  1 30  1  0
  1 31  1  0
  2 32  1  0
  2 33  1  0
  4 34  1  0
  4 35  1  0
  5 36  1  0
  5 37  1  0
  5 38  1  0
  9 39  1  0
 10 40  1  0
 12 41  1  0
 15 42  1  0
 15 43  1  0
 18 44  1  0
 19 45  1  0
 24 46  1  0
 27 47  1  0
 28 48  1  0
M  CHG  2  21   1  23  -1
M  END
$$$$
