
     RDKit          3D

 42 44  0  0  0  0  0  0  0  0999 V2000
   -0.1005   -2.2643    1.0994 C   0  0  0  0  0  0  0  0  0  0  0  0
   -0.7808   -1.0711    0.5069 C   0  0  0  0  0  0  0  0  0  0  0  0
   -0.2561    0.1199    0.1723 C   0  0  0  0  0  0  0  0  0  0  0  0
    1.0007    0.6669    0.1596 N   0  0  0  0  0  0  0  0  0  0  0  0
    2.2245    0.0254    0.2123 C   0  0  0  0  0  0  0  0  0  0  0  0
    2.3787   -1.1912    0.2137 O   0  0  0  0  0  0  0  0  0  0  0  0
    3.3858    0.9942    0.3127 C   0  0  0  0  0  0  0  0  0  0  0  0
    4.6218    0.4300   -0.2026 N   0  0  0  0  0  0  0  0  0  0  0  0
    5.4808   -0.4080    0.4562 C   0  0  0  0  0  0  0  0  0  0  0  0
    6.5304   -0.6403   -0.4029 C   0  0  0  0  0  0  0  0  0  0  0  0
    6.2247    0.1225   -1.5529 C   0  0  0  0  0  0  0  0  0  0  0  0
    6.9940    0.2533   -2.7780 N   0  0  0  0  0  4  0  0  0  0  0  0
    6.5803    1.0206   -3.6608 O   0  0  0  0  0  0  0  0  0  0  0  0
    8.0366   -0.4188   -2.8429 O   0  0  0  0  0  1  0  0  0  0  0  0
    5.0682    0.7995   -1.4225 N   0  0  0  0  0  0  0  0  0  0  0  0
   -1.4213    0.9805   -0.2184 C   0  0  0  0  0  0  0  0  0  0  0  0
   -1.2748    2.1595   -0.5132 O   0  0  0  0  0  0  0  0  0  0  0  0
   -2.5656    0.1919   -0.0896 N   0  0  0  0  0  0  0  0  0  0  0  0
   -3.8759    0.6824    0.1598 C   0  0  0  0  0  0  0  0  0  0  0  0
   -4.8126   -0.0774    0.8793 C   0  0  0  0  0  0  0  0  0  0  0  0
   -6.0987    0.4095    1.1346 C   0  0  0  0  0  0  0  0  0  0  0  0
   -6.4708    1.6691    0.6746 C   0  0  0  0  0  0  0  0  0  0  0  0
   -5.5562    2.4388   -0.0389 C   0  0  0  0  0  0  0  0  0  0  0  0
   -4.2691    1.9490   -0.2933 C   0  0  0  0  0  0  0  0  0  0  0  0
   -2.1763   -1.1202    0.3134 N   0  0  0  0  0  0  0  0  0  0  0  0
   -2.6954   -2.1762   -0.5778 C   0  0  0  0  0  0  0  0  0  0  0  0
   -0.7892   -2.8114    1.7553 H   0  0  0  0  0  0  0  0  0  0  0  0
    0.2384   -2.9494    0.3161 H   0  0  0  0  0  0  0  0  0  0  0  0
    0.7396   -1.9806    1.7362 H   0  0  0  0  0  0  0  0  0  0  0  0
    0.9916    1.6594   -0.0738 H   0  0  0  0  0  0  0  0  0  0  0  0
    3.1812    1.9133   -0.2474 H   0  0  0  0  0  0  0  0  0  0  0  0
    3.5478    1.2481    1.3667 H   0  0  0  0  0  0  0  0  0  0  0  0
    5.2631   -0.7812    1.4482 H   0  0  0  0  0  0  0  0  0  0  0  0
    7.3912   -1.2721   -0.2357 H   0  0  0  0  0  0  0  0  0  0  0  0
   -4.5440   -1.0490    1.2863 H   0  0  0  0  0  0  0  0  0  0  0  0
   -6.8025   -0.1935    1.7024 H   0  0  0  0  0  0  0  0  0  0  0  0
   -7.4679    2.0521    0.8750 H   0  0  0  0  0  0  0  0  0  0  0  0
   -5.8392    3.4246   -0.4005 H   0  0  0  0  0  0  0  0  0  0  0  0
   -3.5880    2.5764   -0.8644 H   0  0  0  0  0  0  0  0  0  0  0  0
   -2.4731   -3.1648   -0.1652 H   0  0  0  0  0  0  0  0  0  0  0  0
   -2.2407   -2.1036   -1.5724 H   0  0  0  0  0  0  0  0  0  0  0  0
   -3.7806   -2.1139   -0.6950 H   0  0  0  0  0  0  0  0  0  0  0  0
  1  2  1  0
  2  3  2  0
  3  4  1  0
  4  5  1  0
  5  6  2  0
  5  7  1  0
  7  8  1  0
  8  9  1  0
  9 10  2  0
 10 11  1  0
 11 12  1  0
 12 13  2  0
 12 14  1  0
 11 15  2  0
  3 16  1  0
 16 17  2  0
 16 18  1  0
 18 19  1  0
 19 20  2  0
 20 21  1  0
 21 22  2  0
 22 23  1  0
 23 24  2  0
 18 25  1  0
 25 26  1  0
 25  2  1  0
 15  8  1  0
 24 19  1  0
  1 27  1  0
  1 28  1  0
  1 29  1  0
  4 30  1  0
  7 31  1  0
  7 32  1  0
  9 33  1  0
 10 34  1  0
 20 35  1  0
 21 36  1  0
 22 37  1  0
 23 38  1  0
 24 39  1  0
 26 40  1  0
 26 41  1  0
 26 42  1  0
M  CHG  2  12   1  14  -1
M  END
$$$$
