
     RDKit          3D

 35 36  0  0  0  0  0  0  0  0999 V2000
   -4.2237    1.2465   -2.5600 C   0  0  0  0  0  0  0  0  0  0  0  0
   -4.0883    0.1805   -1.5046 C   0  0  0  0  0  0  0  0  0  0  0  0
   -4.9067   -0.7316   -1.4110 O   0  0  0  0  0  0  0  0  0  0  0  0
   -2.9281    0.2337   -0.5667 C   0  0  0  0  0  0  0  0  0  0  0  0
   -1.8755    1.1385   -0.7294 C   0  0  0  0  0  0  0  0  0  0  0  0
   -0.8086    1.1422    0.1775 C   0  0  0  0  0  0  0  0  0  0  0  0
   -0.7649    0.2312    1.2387 C   0  0  0  0  0  0  0  0  0  0  0  0
    0.3350    0.3261    2.1404 N   0  0  0  0  0  0  0  0  0  0  0  0
    1.0521   -1.0182    2.8474 S   0  0  0  0  0  6  0  0  0  0  0  0
    0.0485   -1.7833    3.5568 O   0  0  0  0  0  0  0  0  0  0  0  0
    2.2049   -0.5057    3.5624 O   0  0  0  0  0  0  0  0  0  0  0  0
    1.6397   -2.0110    1.4600 C   0  0  0  0  0  0  0  0  0  0  0  0
    2.3787   -1.1763    0.4418 C   0  0  0  0  0  0  0  0  0  0  0  0
    1.8417   -1.0003   -0.8439 C   0  0  0  0  0  0  0  0  0  0  0  0
    2.5151   -0.2342   -1.7982 C   0  0  0  0  0  0  0  0  0  0  0  0
    3.7365    0.3525   -1.4787 C   0  0  0  0  0  0  0  0  0  0  0  0
    4.5610    1.3022   -2.6515 Cl  0  0  0  0  0  0  0  0  0  0  0  0
    4.2935    0.1723   -0.2156 C   0  0  0  0  0  0  0  0  0  0  0  0
    3.6210   -0.5953    0.7387 C   0  0  0  0  0  0  0  0  0  0  0  0
   -1.8342   -0.6426    1.4225 C   0  0  0  0  0  0  0  0  0  0  0  0
   -2.9016   -0.6531    0.5166 C   0  0  0  0  0  0  0  0  0  0  0  0
   -3.4349    1.1368   -3.3084 H   0  0  0  0  0  0  0  0  0  0  0  0
   -5.1917    1.1365   -3.0589 H   0  0  0  0  0  0  0  0  0  0  0  0
   -4.1950    2.2403   -2.1056 H   0  0  0  0  0  0  0  0  0  0  0  0
   -1.8574    1.8512   -1.5489 H   0  0  0  0  0  0  0  0  0  0  0  0
   -0.0049    1.8613    0.0344 H   0  0  0  0  0  0  0  0  0  0  0  0
    1.0232    1.0577    1.9595 H   0  0  0  0  0  0  0  0  0  0  0  0
    0.7657   -2.5034    1.0214 H   0  0  0  0  0  0  0  0  0  0  0  0
    2.2958   -2.7872    1.8673 H   0  0  0  0  0  0  0  0  0  0  0  0
    0.8915   -1.4581   -1.1156 H   0  0  0  0  0  0  0  0  0  0  0  0
    2.0851   -0.1048   -2.7881 H   0  0  0  0  0  0  0  0  0  0  0  0
    5.2523    0.6208    0.0331 H   0  0  0  0  0  0  0  0  0  0  0  0
    4.0809   -0.7327    1.7175 H   0  0  0  0  0  0  0  0  0  0  0  0
   -1.8831   -1.3156    2.2737 H   0  0  0  0  0  0  0  0  0  0  0  0
   -3.7236   -1.3505    0.6752 H   0  0  0  0  0  0  0  0  0  0  0  0
  1  2  1  0
  2  3  2  0
  2  4  1  0
  4  5  2  0
  5  6  1  0
  6  7  2  0
  7  8  1  0
  8  9  1  0
  9 10  2  0
  9 11  2  0
  9 12  1  0
 12 13  1  0
 13 14  2  0
 14 15  1  0
 15 16  2  0
 16 17  1  0
 16 18  1  0
 18 19  2  0
  7 20  1  0
 20 21  2  0
 21  4  1  0
 19 13  1  0
  1 22  1  0
  1 23  1  0
  1 24  1  0
  5 25  1  0
  6 26  1  0
  8 27  1  0
 12 28  1  0
 12 29  1  0
 14 30  1  0
 15 31  1  0
 18 32  1  0
 19 33  1  0
 20 34  1  0
 21 35  1  0
M  END
$$$$
