
     RDKit          3D

 62 66  0  0  0  0  0  0  0  0999 V2000
   -3.9773    5.3228   -4.2058 C   0  0  0  0  0  0  0  0  0  0  0  0
   -3.1921    4.4936   -3.3588 O   0  0  0  0  0  0  0  0  0  0  0  0
   -3.8371    3.4671   -2.7244 C   0  0  0  0  0  0  0  0  0  0  0  0
   -5.1812    3.1447   -2.8520 C   0  0  0  0  0  0  0  0  0  0  0  0
   -5.7262    2.0654   -2.1468 C   0  0  0  0  0  0  0  0  0  0  0  0
   -4.8961    1.3057   -1.3003 C   0  0  0  0  0  0  0  0  0  0  0  0
   -5.3574   -0.0481   -0.3483 S   0  0  0  0  0  0  0  0  0  0  0  0
   -3.7785   -0.2587    0.2715 C   0  0  0  0  0  0  0  0  0  0  0  0
   -3.5472   -1.3400    1.2387 C   0  0  0  0  0  0  0  0  0  0  0  0
   -3.5741   -1.0321    2.6089 C   0  0  0  0  0  0  0  0  0  0  0  0
   -3.3488   -2.0227    3.5627 C   0  0  0  0  0  0  0  0  0  0  0  0
   -3.0923   -3.3282    3.1552 C   0  0  0  0  0  0  0  0  0  0  0  0
   -3.0579   -3.6481    1.7945 C   0  0  0  0  0  0  0  0  0  0  0  0
   -3.2832   -2.6624    0.8258 C   0  0  0  0  0  0  0  0  0  0  0  0
   -3.2498   -2.8851   -0.5283 O   0  0  0  0  0  0  0  0  0  0  0  0
   -3.0711   -4.2229   -0.9700 C   0  0  0  0  0  0  0  0  0  0  0  0
   -2.9001    0.6873   -0.2303 C   0  0  0  0  0  0  0  0  0  0  0  0
   -1.4981    0.7164    0.1692 C   0  0  0  0  0  0  0  0  0  0  0  0
   -0.6122   -0.2682   -0.2809 C   0  0  0  0  0  0  0  0  0  0  0  0
    0.7340   -0.2371    0.0998 C   0  0  0  0  0  0  0  0  0  0  0  0
    1.2043    0.7822    0.9286 C   0  0  0  0  0  0  0  0  0  0  0  0
    2.4893    0.9287    1.3733 O   0  0  0  0  0  0  0  0  0  0  0  0
    3.4614    0.0116    0.8614 C   0  0  0  0  0  0  0  0  0  0  0  0
    4.8290    0.3923    1.4495 C   0  0  0  0  0  0  0  0  0  0  0  0
    5.9190   -0.4922    1.0192 N   0  0  0  0  0  0  0  0  0  0  0  0
    6.2498   -0.3564   -0.4017 C   0  0  0  0  0  0  0  0  0  0  0  0
    7.6353   -0.9798   -0.5094 C   0  0  0  0  0  0  0  0  0  0  0  0
    8.2064   -0.9386    0.9031 C   0  0  0  0  0  0  0  0  0  0  0  0
    7.1683   -0.1912    1.7232 C   0  0  0  0  0  0  0  0  0  0  0  0
    0.3171    1.7654    1.3759 C   0  0  0  0  0  0  0  0  0  0  0  0
   -1.0274    1.7382    0.9977 C   0  0  0  0  0  0  0  0  0  0  0  0
   -3.5413    1.6028   -1.1476 C   0  0  0  0  0  0  0  0  0  0  0  0
   -3.0220    2.7013   -1.8822 C   0  0  0  0  0  0  0  0  0  0  0  0
   -3.3216    6.0960   -4.6173 H   0  0  0  0  0  0  0  0  0  0  0  0
   -4.3882    4.7525   -5.0455 H   0  0  0  0  0  0  0  0  0  0  0  0
   -4.7707    5.8251   -3.6427 H   0  0  0  0  0  0  0  0  0  0  0  0
   -5.8459    3.7102   -3.4968 H   0  0  0  0  0  0  0  0  0  0  0  0
   -6.7787    1.8174   -2.2526 H   0  0  0  0  0  0  0  0  0  0  0  0
   -3.7694   -0.0127    2.9344 H   0  0  0  0  0  0  0  0  0  0  0  0
   -3.3703   -1.7741    4.6205 H   0  0  0  0  0  0  0  0  0  0  0  0
   -2.9132   -4.1018    3.8979 H   0  0  0  0  0  0  0  0  0  0  0  0
   -2.8459   -4.6771    1.5249 H   0  0  0  0  0  0  0  0  0  0  0  0
   -2.0863   -4.6040   -0.6811 H   0  0  0  0  0  0  0  0  0  0  0  0
   -3.1191   -4.2234   -2.0638 H   0  0  0  0  0  0  0  0  0  0  0  0
   -3.8720   -4.8727   -0.6027 H   0  0  0  0  0  0  0  0  0  0  0  0
   -0.9667   -1.0679   -0.9281 H   0  0  0  0  0  0  0  0  0  0  0  0
    1.3831   -1.0257   -0.2659 H   0  0  0  0  0  0  0  0  0  0  0  0
    3.2086   -1.0111    1.1663 H   0  0  0  0  0  0  0  0  0  0  0  0
    3.4912    0.0831   -0.2319 H   0  0  0  0  0  0  0  0  0  0  0  0
    4.7395    0.3486    2.5433 H   0  0  0  0  0  0  0  0  0  0  0  0
    5.0488    1.4425    1.2138 H   0  0  0  0  0  0  0  0  0  0  0  0
    6.2961    0.6965   -0.7082 H   0  0  0  0  0  0  0  0  0  0  0  0
    5.5335   -0.8752   -1.0461 H   0  0  0  0  0  0  0  0  0  0  0  0
    7.5751   -2.0169   -0.8583 H   0  0  0  0  0  0  0  0  0  0  0  0
    8.2645   -0.4245   -1.2126 H   0  0  0  0  0  0  0  0  0  0  0  0
    9.1830   -0.4454    0.9354 H   0  0  0  0  0  0  0  0  0  0  0  0
    8.3335   -1.9605    1.2803 H   0  0  0  0  0  0  0  0  0  0  0  0
    7.3894    0.8842    1.7165 H   0  0  0  0  0  0  0  0  0  0  0  0
    7.1505   -0.5380    2.7616 H   0  0  0  0  0  0  0  0  0  0  0  0
    0.6769    2.5610    2.0235 H   0  0  0  0  0  0  0  0  0  0  0  0
   -1.7000    2.5135    1.3560 H   0  0  0  0  0  0  0  0  0  0  0  0
   -1.9680    2.9550   -1.7922 H   0  0  0  0  0  0  0  0  0  0  0  0
  1  2  1  0
  2  3  1  0
  3  4  2  0
  4  5  1  0
  5  6  2  0
  6  7  1  0
  7  8  1  0
  8  9  1  0
  9 10  2  0
 10 11  1  0
 11 12  2  0
 12 13  1  0
 13 14  2  0
 14 15  1  0
 15 16  1  0
  8 17  2  0
 17 18  1  0
 18 19  2  0
 19 20  1  0
 20 21  2  0
 21 22  1  0
 22 23  1  0
 23 24  1  0
 24 25  1  0
 25 26  1  0
 26 27  1  0
 27 28  1  0
 28 29  1  0
 21 30  1  0
 30 31  2  0
 17 32  1  0
 32 33  2  0
 33  3  1  0
 32  6  1  0
 14  9  1  0
 31 18  1  0
 29 25  1  0
  1 34  1  0
  1 35  1  0
  1 36  1  0
  4 37  1  0
  5 38  1  0
 10 39  1  0
 11 40  1  0
 12 41  1  0
 13 42  1  0
 16 43  1  0
 16 44  1  0
 16 45  1  0
 19 46  1  0
 20 47  1  0
 23 48  1  0
 23 49  1  0
 24 50  1  0
 24 51  1  0
 26 52  1  0
 26 53  1  0
 27 54  1  0
 27 55  1  0
 28 56  1  0
 28 57  1  0
 29 58  1  0
 29 59  1  0
 30 60  1  0
 31 61  1  0
 33 62  1  0
M  END
$$$$
