
     RDKit          3D

 46 48  0  0  0  0  0  0  0  0999 V2000
    1.9913    2.3386    2.9130 O   0  0  0  0  0  0  0  0  0  0  0  0
    1.3625    2.0468    1.8948 C   0  0  0  0  0  0  0  0  0  0  0  0
   -0.1218    1.6976    1.9080 C   0  0  0  0  0  0  0  0  0  0  0  0
   -0.4851    1.0208    0.7091 O   0  0  0  0  0  0  0  0  0  0  0  0
   -1.7886    0.6289    0.5880 C   0  0  0  0  0  0  0  0  0  0  0  0
   -2.8071    0.8650    1.5089 C   0  0  0  0  0  0  0  0  0  0  0  0
   -4.1063    0.4057    1.2534 C   0  0  0  0  0  0  0  0  0  0  0  0
   -4.4154   -0.2953    0.0768 C   0  0  0  0  0  0  0  0  0  0  0  0
   -5.7824   -0.7738   -0.1863 C   0  0  0  0  0  0  0  0  0  0  0  0
   -6.4460   -0.4483   -1.3812 C   0  0  0  0  0  0  0  0  0  0  0  0
   -7.7445   -0.9008   -1.6314 C   0  0  0  0  0  0  0  0  0  0  0  0
   -8.4017   -1.6887   -0.6900 C   0  0  0  0  0  0  0  0  0  0  0  0
   -7.7620   -2.0242    0.5005 C   0  0  0  0  0  0  0  0  0  0  0  0
   -6.4640   -1.5699    0.7496 C   0  0  0  0  0  0  0  0  0  0  0  0
   -3.3785   -0.5238   -0.8392 C   0  0  0  0  0  0  0  0  0  0  0  0
   -2.0813   -0.0670   -0.5853 C   0  0  0  0  0  0  0  0  0  0  0  0
    1.9396    2.0573    0.6378 N   0  0  0  0  0  0  0  0  0  0  0  0
    3.3569    2.0904    0.5935 N   0  0  0  0  0  0  0  0  0  0  0  0
    3.9570    1.0782   -0.1477 C   0  0  0  0  0  0  0  0  0  0  0  0
    3.3066    0.3280   -0.8662 O   0  0  0  0  0  0  0  0  0  0  0  0
    5.3282    1.1081    0.0008 N   0  0  0  0  0  0  0  0  0  0  0  0
    6.2283    0.1379   -0.4884 C   0  0  0  0  0  0  0  0  0  0  0  0
    7.5398    0.5570   -0.7543 C   0  0  0  0  0  0  0  0  0  0  0  0
    8.4846   -0.3493   -1.2434 C   0  0  0  0  0  0  0  0  0  0  0  0
    8.1243   -1.6764   -1.4488 C   0  0  0  0  0  0  0  0  0  0  0  0
    9.0352   -2.5410   -1.9130 F   0  0  0  0  0  0  0  0  0  0  0  0
    6.8426   -2.1200   -1.1621 C   0  0  0  0  0  0  0  0  0  0  0  0
    5.9034   -1.2147   -0.6754 C   0  0  0  0  0  0  0  0  0  0  0  0
    4.7089   -1.7020   -0.3132 F   0  0  0  0  0  0  0  0  0  0  0  0
   -0.6746    2.6391    2.0030 H   0  0  0  0  0  0  0  0  0  0  0  0
   -0.2941    1.0475    2.7735 H   0  0  0  0  0  0  0  0  0  0  0  0
   -2.6349    1.4036    2.4346 H   0  0  0  0  0  0  0  0  0  0  0  0
   -4.8876    0.6125    1.9828 H   0  0  0  0  0  0  0  0  0  0  0  0
   -5.9550    0.1749   -2.1260 H   0  0  0  0  0  0  0  0  0  0  0  0
   -8.2412   -0.6351   -2.5609 H   0  0  0  0  0  0  0  0  0  0  0  0
   -9.4109   -2.0418   -0.8845 H   0  0  0  0  0  0  0  0  0  0  0  0
   -8.2702   -2.6425    1.2357 H   0  0  0  0  0  0  0  0  0  0  0  0
   -5.9785   -1.8543    1.6809 H   0  0  0  0  0  0  0  0  0  0  0  0
   -3.5702   -1.0745   -1.7581 H   0  0  0  0  0  0  0  0  0  0  0  0
   -1.2941   -0.2632   -1.3099 H   0  0  0  0  0  0  0  0  0  0  0  0
    1.5019    1.4672   -0.0773 H   0  0  0  0  0  0  0  0  0  0  0  0
    3.7732    2.2726    1.5067 H   0  0  0  0  0  0  0  0  0  0  0  0
    5.6990    2.0285    0.1916 H   0  0  0  0  0  0  0  0  0  0  0  0
    7.8378    1.5916   -0.6044 H   0  0  0  0  0  0  0  0  0  0  0  0
    9.4982   -0.0291   -1.4656 H   0  0  0  0  0  0  0  0  0  0  0  0
    6.5766   -3.1619   -1.2970 H   0  0  0  0  0  0  0  0  0  0  0  0
  1  2  2  0
  2  3  1  0
  3  4  1  0
  4  5  1  0
  5  6  2  0
  6  7  1  0
  7  8  2  0
  8  9  1  0
  9 10  2  0
 10 11  1  0
 11 12  2  0
 12 13  1  0
 13 14  2  0
  8 15  1  0
 15 16  2  0
  2 17  1  0
 17 18  1  0
 18 19  1  0
 19 20  2  0
 19 21  1  0
 21 22  1  0
 22 23  2  0
 23 24  1  0
 24 25  2  0
 25 26  1  0
 25 27  1  0
 27 28  2  0
 28 29  1  0
 16  5  1  0
 28 22  1  0
 14  9  1  0
  3 30  1  0
  3 31  1  0
  6 32  1  0
  7 33  1  0
 10 34  1  0
 11 35  1  0
 12 36  1  0
 13 37  1  0
 14 38  1  0
 15 39  1  0
 16 40  1  0
 17 41  1  0
 18 42  1  0
 21 43  1  0
 23 44  1  0
 24 45  1  0
 27 46  1  0
M  END
$$$$
