
     RDKit          3D

 57 59  0  0  0  0  0  0  0  0999 V2000
   11.4305    0.6246   -0.3209 C   0  0  0  0  0  0  0  0  0  0  0  0
   10.6289   -0.4557   -0.7828 O   0  0  0  0  0  0  0  0  0  0  0  0
    9.2795   -0.2432   -0.8418 C   0  0  0  0  0  0  0  0  0  0  0  0
    8.5351   -1.3293   -1.2999 C   0  0  0  0  0  0  0  0  0  0  0  0
    7.1448   -1.2422   -1.4052 C   0  0  0  0  0  0  0  0  0  0  0  0
    6.4769   -0.0682   -1.0573 C   0  0  0  0  0  0  0  0  0  0  0  0
    5.1202   -0.1245   -1.2028 O   0  0  0  0  0  0  0  0  0  0  0  0
    4.3488    1.0648   -1.0015 C   0  0  0  0  0  0  0  0  0  0  0  0
    3.9580    1.2500    0.4668 C   0  0  0  0  0  0  0  0  0  0  0  0
    2.7641   -0.0032    1.0530 S   0  0  0  0  0  0  0  0  0  0  0  0
    1.2985    0.5787    0.3451 C   0  0  0  0  0  0  0  0  0  0  0  0
    1.1678    1.6587   -0.3911 N   0  0  0  0  0  0  0  0  0  0  0  0
   -0.1440    1.7429   -0.7852 N   0  0  0  0  0  0  0  0  0  0  0  0
   -0.7893    0.7110   -0.2785 C   0  0  0  0  0  0  0  0  0  0  0  0
   -2.2346    0.4128   -0.4633 C   0  0  0  0  0  0  0  0  0  0  0  0
   -3.0769    1.1454    0.5802 C   0  0  0  0  0  0  0  0  0  0  0  0
   -4.4817    0.7857    0.5180 N   0  0  0  0  0  0  0  0  0  0  0  0
   -4.9254   -0.4286    0.9998 C   0  0  0  0  0  0  0  0  0  0  0  0
   -4.1728   -1.2687    1.4826 O   0  0  0  0  0  0  0  0  0  0  0  0
   -6.3840   -0.6997    0.8777 C   0  0  0  0  0  0  0  0  0  0  0  0
   -6.8128   -2.0287    0.7947 C   0  0  0  0  0  0  0  0  0  0  0  0
   -8.1765   -2.3189    0.6991 C   0  0  0  0  0  0  0  0  0  0  0  0
   -9.1253   -1.2930    0.6934 C   0  0  0  0  0  0  0  0  0  0  0  0
  -10.4230   -1.7172    0.6070 O   0  0  0  0  0  0  0  0  0  0  0  0
  -11.4296   -0.7123    0.5845 C   0  0  0  0  0  0  0  0  0  0  0  0
   -8.6983    0.0331    0.7846 C   0  0  0  0  0  0  0  0  0  0  0  0
   -7.3324    0.3309    0.8815 C   0  0  0  0  0  0  0  0  0  0  0  0
    0.0888   -0.0469    0.4651 N   0  0  0  0  0  0  0  0  0  0  0  0
   -0.2246   -1.2513    1.1908 C   0  0  0  0  0  0  0  0  0  0  0  0
    7.2197    1.0181   -0.5979 C   0  0  0  0  0  0  0  0  0  0  0  0
    8.6158    0.9314   -0.4908 C   0  0  0  0  0  0  0  0  0  0  0  0
   12.4746    0.2967   -0.3378 H   0  0  0  0  0  0  0  0  0  0  0  0
   11.3432    1.4932   -0.9818 H   0  0  0  0  0  0  0  0  0  0  0  0
   11.1802    0.8860    0.7127 H   0  0  0  0  0  0  0  0  0  0  0  0
    9.0388   -2.2527   -1.5783 H   0  0  0  0  0  0  0  0  0  0  0  0
    6.5789   -2.0988   -1.7650 H   0  0  0  0  0  0  0  0  0  0  0  0
    3.4576    0.9704   -1.6312 H   0  0  0  0  0  0  0  0  0  0  0  0
    4.8742    1.9473   -1.3853 H   0  0  0  0  0  0  0  0  0  0  0  0
    4.8384    1.1564    1.1092 H   0  0  0  0  0  0  0  0  0  0  0  0
    3.5413    2.2500    0.6290 H   0  0  0  0  0  0  0  0  0  0  0  0
   -2.5441    0.7319   -1.4660 H   0  0  0  0  0  0  0  0  0  0  0  0
   -2.4105   -0.6673   -0.4289 H   0  0  0  0  0  0  0  0  0  0  0  0
   -3.0131    2.2304    0.4378 H   0  0  0  0  0  0  0  0  0  0  0  0
   -2.7170    0.9250    1.5919 H   0  0  0  0  0  0  0  0  0  0  0  0
   -5.0939    1.3550   -0.0507 H   0  0  0  0  0  0  0  0  0  0  0  0
   -6.0900   -2.8425    0.8069 H   0  0  0  0  0  0  0  0  0  0  0  0
   -8.5033   -3.3550    0.6386 H   0  0  0  0  0  0  0  0  0  0  0  0
  -11.4217   -0.1209    1.5068 H   0  0  0  0  0  0  0  0  0  0  0  0
  -11.3251   -0.0715   -0.2985 H   0  0  0  0  0  0  0  0  0  0  0  0
  -12.4007   -1.2143    0.5207 H   0  0  0  0  0  0  0  0  0  0  0  0
   -9.4020    0.8588    0.8016 H   0  0  0  0  0  0  0  0  0  0  0  0
   -7.0329    1.3697    0.9935 H   0  0  0  0  0  0  0  0  0  0  0  0
   -1.2328   -1.1756    1.6037 H   0  0  0  0  0  0  0  0  0  0  0  0
   -0.1616   -2.0925    0.4965 H   0  0  0  0  0  0  0  0  0  0  0  0
    0.4722   -1.3895    2.0196 H   0  0  0  0  0  0  0  0  0  0  0  0
    6.7513    1.9514   -0.3038 H   0  0  0  0  0  0  0  0  0  0  0  0
    9.1517    1.8020   -0.1253 H   0  0  0  0  0  0  0  0  0  0  0  0
  1  2  1  0
  2  3  1  0
  3  4  2  0
  4  5  1  0
  5  6  2  0
  6  7  1  0
  7  8  1  0
  8  9  1  0
  9 10  1  0
 10 11  1  0
 11 12  2  0
 12 13  1  0
 13 14  2  0
 14 15  1  0
 15 16  1  0
 16 17  1  0
 17 18  1  0
 18 19  2  0
 18 20  1  0
 20 21  2  0
 21 22  1  0
 22 23  2  0
 23 24  1  0
 24 25  1  0
 23 26  1  0
 26 27  2  0
 14 28  1  0
 28 29  1  0
  6 30  1  0
 30 31  2  0
 31  3  1  0
 28 11  1  0
 27 20  1  0
  1 32  1  0
  1 33  1  0
  1 34  1  0
  4 35  1  0
  5 36  1  0
  8 37  1  0
  8 38  1  0
  9 39  1  0
  9 40  1  0
 15 41  1  0
 15 42  1  0
 16 43  1  0
 16 44  1  0
 17 45  1  0
 21 46  1  0
 22 47  1  0
 25 48  1  0
 25 49  1  0
 25 50  1  0
 26 51  1  0
 27 52  1  0
 29 53  1  0
 29 54  1  0
 29 55  1  0
 30 56  1  0
 31 57  1  0
M  END
$$$$
