
     RDKit          3D

 61 66  0  0  0  0  0  0  0  0999 V2000
   -2.7266   -2.3861   -2.1453 C   0  0  0  0  0  0  0  0  0  0  0  0
   -3.4473   -1.2542   -1.3998 C   0  0  0  0  0  0  0  0  0  0  0  0
   -4.9517   -1.5375   -1.3192 C   0  0  0  0  0  0  0  0  0  0  0  0
   -3.1323    0.0946   -2.0412 C   0  0  0  0  0  0  0  0  0  0  0  0
   -3.6562    0.3813   -3.3182 C   0  0  0  0  0  0  0  0  0  0  0  0
   -3.3103    1.5464   -4.0093 C   0  0  0  0  0  0  0  0  0  0  0  0
   -2.4185    2.4531   -3.4479 C   0  0  0  0  0  0  0  0  0  0  0  0
   -1.8826    2.2048   -2.1868 C   0  0  0  0  0  0  0  0  0  0  0  0
   -2.2459    1.0422   -1.4810 C   0  0  0  0  0  0  0  0  0  0  0  0
   -1.7093    0.8906   -0.1789 N   0  0  0  0  0  0  0  0  0  0  0  0
   -0.3783    0.7865    0.1761 C   0  0  0  0  0  0  0  0  0  0  0  0
    0.9387    0.7218   -0.9518 S   0  0  0  0  0  0  0  0  0  0  0  0
    2.3545    0.6329    0.1978 C   0  0  0  0  0  0  0  0  0  0  0  0
    3.7137    0.6364   -0.4747 C   0  0  0  0  0  0  0  0  0  0  0  0
    3.9239    1.2769   -1.6397 C   0  0  0  0  0  0  0  0  0  0  0  0
    5.1395    1.1448   -2.4463 C   0  0  0  0  0  0  0  0  0  0  0  0
    5.3139    1.8322   -3.4453 O   0  0  0  0  0  0  0  0  0  0  0  0
    6.0124    0.1528   -2.0582 O   0  0  0  0  0  0  0  0  0  0  0  0
    5.8977   -0.4472   -0.7892 C   0  0  0  0  0  0  0  0  0  0  0  0
    6.9395   -1.3143   -0.4762 C   0  0  0  0  0  0  0  0  0  0  0  0
    6.9810   -1.8934    0.7795 C   0  0  0  0  0  0  0  0  0  0  0  0
    6.0291   -1.5582    1.7474 C   0  0  0  0  0  0  0  0  0  0  0  0
    6.1622   -2.1210    3.0278 C   0  0  0  0  0  0  0  0  0  0  0  0
    5.2919   -1.7833    4.0581 C   0  0  0  0  0  0  0  0  0  0  0  0
    4.2904   -0.8593    3.8222 C   0  0  0  0  0  0  0  0  0  0  0  0
    4.1420   -0.2996    2.5483 C   0  0  0  0  0  0  0  0  0  0  0  0
    4.9679   -0.6519    1.4458 C   0  0  0  0  0  0  0  0  0  0  0  0
    4.8505   -0.1492    0.1012 C   0  0  0  0  0  0  0  0  0  0  0  0
   -0.2635    0.6464    1.4756 N   0  0  0  0  0  0  0  0  0  0  0  0
   -1.5233    0.6762    2.0087 N   0  0  0  0  0  0  0  0  0  0  0  0
   -2.3989    0.8669    1.0330 C   0  0  0  0  0  0  0  0  0  0  0  0
   -3.8365    1.0398    1.2508 C   0  0  0  0  0  0  0  0  0  0  0  0
   -4.4795    0.3039    2.2535 C   0  0  0  0  0  0  0  0  0  0  0  0
   -5.8446    0.4696    2.4807 C   0  0  0  0  0  0  0  0  0  0  0  0
   -6.5324    1.3823    1.7000 C   0  0  0  0  0  0  0  0  0  0  0  0
   -5.9517    2.1256    0.7357 N   0  0  0  0  0  0  0  0  0  0  0  0
   -4.6208    1.9439    0.5407 C   0  0  0  0  0  0  0  0  0  0  0  0
   -2.8842   -3.3447   -1.6380 H   0  0  0  0  0  0  0  0  0  0  0  0
   -3.0858   -2.4916   -3.1763 H   0  0  0  0  0  0  0  0  0  0  0  0
   -1.6470   -2.2029   -2.1838 H   0  0  0  0  0  0  0  0  0  0  0  0
   -3.0727   -1.2805   -0.3725 H   0  0  0  0  0  0  0  0  0  0  0  0
   -5.3999   -1.6860   -2.3084 H   0  0  0  0  0  0  0  0  0  0  0  0
   -5.4853   -0.7150   -0.8316 H   0  0  0  0  0  0  0  0  0  0  0  0
   -5.1363   -2.4483   -0.7381 H   0  0  0  0  0  0  0  0  0  0  0  0
   -4.3311   -0.3183   -3.8087 H   0  0  0  0  0  0  0  0  0  0  0  0
   -3.7300    1.7342   -4.9954 H   0  0  0  0  0  0  0  0  0  0  0  0
   -2.1448    3.3548   -3.9914 H   0  0  0  0  0  0  0  0  0  0  0  0
   -1.2050    2.9413   -1.7563 H   0  0  0  0  0  0  0  0  0  0  0  0
    2.2067   -0.3067    0.7388 H   0  0  0  0  0  0  0  0  0  0  0  0
    2.2940    1.4788    0.8908 H   0  0  0  0  0  0  0  0  0  0  0  0
    3.1719    1.9020   -2.1118 H   0  0  0  0  0  0  0  0  0  0  0  0
    7.7154   -1.5308   -1.2058 H   0  0  0  0  0  0  0  0  0  0  0  0
    7.7943   -2.5792    1.0108 H   0  0  0  0  0  0  0  0  0  0  0  0
    6.9645   -2.8263    3.2413 H   0  0  0  0  0  0  0  0  0  0  0  0
    5.4131   -2.2235    5.0441 H   0  0  0  0  0  0  0  0  0  0  0  0
    3.6232   -0.5591    4.6273 H   0  0  0  0  0  0  0  0  0  0  0  0
    3.3741    0.4581    2.4616 H   0  0  0  0  0  0  0  0  0  0  0  0
   -3.9160   -0.3979    2.8661 H   0  0  0  0  0  0  0  0  0  0  0  0
   -6.3553   -0.0944    3.2532 H   0  0  0  0  0  0  0  0  0  0  0  0
   -7.5972    1.5503    1.8370 H   0  0  0  0  0  0  0  0  0  0  0  0
   -4.2051    2.5891   -0.2266 H   0  0  0  0  0  0  0  0  0  0  0  0
  1  2  1  0
  2  3  1  0
  2  4  1  0
  4  5  2  0
  5  6  1  0
  6  7  2  0
  7  8  1  0
  8  9  2  0
  9 10  1  0
 10 11  1  0
 11 12  1  0
 12 13  1  0
 13 14  1  0
 14 15  2  0
 15 16  1  0
 16 17  2  0
 16 18  1  0
 18 19  1  0
 19 20  2  0
 20 21  1  0
 21 22  2  0
 22 23  1  0
 23 24  2  0
 24 25  1  0
 25 26  2  0
 26 27  1  0
 27 28  2  0
 11 29  2  0
 29 30  1  0
 30 31  2  0
 31 32  1  0
 32 33  2  0
 33 34  1  0
 34 35  2  0
 35 36  1  0
 36 37  2  0
  9  4  1  0
 31 10  1  0
 37 32  1  0
 28 14  1  0
 28 19  1  0
 27 22  1  0
  1 38  1  0
  1 39  1  0
  1 40  1  0
  2 41  1  0
  3 42  1  0
  3 43  1  0
  3 44  1  0
  5 45  1  0
  6 46  1  0
  7 47  1  0
  8 48  1  0
 13 49  1  0
 13 50  1  0
 15 51  1  0
 20 52  1  0
 21 53  1  0
 23 54  1  0
 24 55  1  0
 25 56  1  0
 26 57  1  0
 33 58  1  0
 34 59  1  0
 35 60  1  0
 37 61  1  0
M  END
$$$$
