
     RDKit          3D

 51 55  0  0  0  0  0  0  0  0999 V2000
   -6.0377   -2.9584    2.8688 F   0  0  0  0  0  0  0  0  0  0  0  0
   -6.0114   -1.8483    2.1152 C   0  0  0  0  0  0  0  0  0  0  0  0
   -7.0561   -0.9349    2.2041 C   0  0  0  0  0  0  0  0  0  0  0  0
   -7.0292    0.2191    1.4190 C   0  0  0  0  0  0  0  0  0  0  0  0
   -5.9587    0.4442    0.5499 C   0  0  0  0  0  0  0  0  0  0  0  0
   -4.9072   -0.4822    0.4526 C   0  0  0  0  0  0  0  0  0  0  0  0
   -3.7468   -0.2231   -0.4788 C   0  0  0  0  0  0  0  0  0  0  0  0
   -2.5774    0.4685    0.2413 C   0  0  0  0  0  0  0  0  0  0  0  0
   -1.5448    0.9589   -0.6871 N   0  0  0  0  0  0  0  0  0  0  0  0
   -0.7786   -0.1433   -1.3119 C   0  0  0  0  0  0  0  0  0  0  0  0
    0.3435    0.3710   -2.2431 C   0  0  0  0  0  0  0  0  0  0  0  0
    1.2624    1.2661   -1.5185 N   0  0  0  0  0  0  0  0  0  0  0  0
    2.3516    0.7123   -0.8589 C   0  0  0  0  0  0  0  0  0  0  0  0
    2.4289    0.8149    0.4428 N   0  0  0  0  0  0  0  0  0  0  0  0
    3.5059    0.2391    1.1437 C   0  0  0  0  0  0  0  0  0  0  0  0
    3.5274    0.3562    2.5336 C   0  0  0  0  0  0  0  0  0  0  0  0
    4.5696   -0.2027    3.2798 C   0  0  0  0  0  0  0  0  0  0  0  0
    5.6044   -0.8853    2.6383 C   0  0  0  0  0  0  0  0  0  0  0  0
    5.6023   -1.0136    1.2484 C   0  0  0  0  0  0  0  0  0  0  0  0
    4.5518   -0.4529    0.5164 C   0  0  0  0  0  0  0  0  0  0  0  0
    4.4709   -0.5322   -0.8844 N   0  0  0  0  0  0  0  0  0  0  0  0
    5.3330   -1.1169   -1.7812 C   0  0  0  0  0  0  0  0  0  0  0  0
    4.8475   -0.8960   -3.0521 C   0  0  0  0  0  0  0  0  0  0  0  0
    3.6489   -0.1615   -2.9190 C   0  0  0  0  0  0  0  0  0  0  0  0
    3.4191    0.0290   -1.5685 C   0  0  0  0  0  0  0  0  0  0  0  0
    0.5275    2.3731   -0.8765 C   0  0  0  0  0  0  0  0  0  0  0  0
   -0.6023    1.8511    0.0343 C   0  0  0  0  0  0  0  0  0  0  0  0
   -4.9389   -1.6318    1.2532 C   0  0  0  0  0  0  0  0  0  0  0  0
   -7.8799   -1.1254    2.8851 H   0  0  0  0  0  0  0  0  0  0  0  0
   -7.8370    0.9433    1.4863 H   0  0  0  0  0  0  0  0  0  0  0  0
   -5.9449    1.3529   -0.0493 H   0  0  0  0  0  0  0  0  0  0  0  0
   -4.0902    0.3997   -1.3156 H   0  0  0  0  0  0  0  0  0  0  0  0
   -3.4282   -1.1763   -0.9187 H   0  0  0  0  0  0  0  0  0  0  0  0
   -2.9827    1.3272    0.7934 H   0  0  0  0  0  0  0  0  0  0  0  0
   -2.1450   -0.2054    0.9924 H   0  0  0  0  0  0  0  0  0  0  0  0
   -0.3403   -0.7886   -0.5409 H   0  0  0  0  0  0  0  0  0  0  0  0
   -1.4463   -0.7627   -1.9201 H   0  0  0  0  0  0  0  0  0  0  0  0
   -0.0980    0.9224   -3.0805 H   0  0  0  0  0  0  0  0  0  0  0  0
    0.8684   -0.4858   -2.6770 H   0  0  0  0  0  0  0  0  0  0  0  0
    2.7223    0.8892    3.0347 H   0  0  0  0  0  0  0  0  0  0  0  0
    4.5722   -0.1009    4.3595 H   0  0  0  0  0  0  0  0  0  0  0  0
    6.4138   -1.3147    3.2220 H   0  0  0  0  0  0  0  0  0  0  0  0
    6.4180   -1.5458    0.7707 H   0  0  0  0  0  0  0  0  0  0  0  0
    6.2257   -1.6344   -1.4583 H   0  0  0  0  0  0  0  0  0  0  0  0
    5.3148   -1.2213   -3.9725 H   0  0  0  0  0  0  0  0  0  0  0  0
    3.0177    0.1956   -3.7208 H   0  0  0  0  0  0  0  0  0  0  0  0
    0.0953    3.0045   -1.6628 H   0  0  0  0  0  0  0  0  0  0  0  0
    1.2079    3.0184   -0.3077 H   0  0  0  0  0  0  0  0  0  0  0  0
   -0.1752    1.3318    0.9027 H   0  0  0  0  0  0  0  0  0  0  0  0
   -1.1528    2.7220    0.4148 H   0  0  0  0  0  0  0  0  0  0  0  0
   -4.1412   -2.3664    1.2131 H   0  0  0  0  0  0  0  0  0  0  0  0
  1  2  1  0
  2  3  2  0
  3  4  1  0
  4  5  2  0
  5  6  1  0
  6  7  1  0
  7  8  1  0
  8  9  1  0
  9 10  1  0
 10 11  1  0
 11 12  1  0
 12 13  1  0
 13 14  2  0
 14 15  1  0
 15 16  2  0
 16 17  1  0
 17 18  2  0
 18 19  1  0
 19 20  2  0
 20 21  1  0
 21 22  1  0
 22 23  2  0
 23 24  1  0
 24 25  2  0
 12 26  1  0
 26 27  1  0
  6 28  2  0
 28  2  1  0
 27  9  1  0
 25 13  1  0
 20 15  1  0
 25 21  1  0
  3 29  1  0
  4 30  1  0
  5 31  1  0
  7 32  1  0
  7 33  1  0
  8 34  1  0
  8 35  1  0
 10 36  1  0
 10 37  1  0
 11 38  1  0
 11 39  1  0
 16 40  1  0
 17 41  1  0
 18 42  1  0
 19 43  1  0
 22 44  1  0
 23 45  1  0
 24 46  1  0
 26 47  1  0
 26 48  1  0
 27 49  1  0
 27 50  1  0
 28 51  1  0
M  END
$$$$
