
     RDKit          3D

 36 37  0  0  0  0  0  0  0  0999 V2000
   -2.7491   -0.4802    0.9596 O   0  0  0  0  0  0  0  0  0  0  0  0
   -1.5469   -0.3058    0.7844 C   0  0  0  0  0  0  0  0  0  0  0  0
   -0.6128    0.1177    1.9190 C   0  0  0  0  0  0  0  0  0  0  0  0
    0.7728   -0.0712    1.6156 O   0  0  0  0  0  0  0  0  0  0  0  0
    1.2530   -1.2987    1.9255 C   0  0  0  0  0  0  0  0  0  0  0  0
    0.6281   -2.2433    2.3727 O   0  0  0  0  0  0  0  0  0  0  0  0
    2.6640   -1.3868    1.5127 C   0  0  0  0  0  0  0  0  0  0  0  0
    2.9905   -2.4325    0.6342 C   0  0  0  0  0  0  0  0  0  0  0  0
    4.2994   -2.5846    0.1847 C   0  0  0  0  0  0  0  0  0  0  0  0
    5.2843   -1.6988    0.6178 C   0  0  0  0  0  0  0  0  0  0  0  0
    4.9666   -0.6669    1.5105 C   0  0  0  0  0  0  0  0  0  0  0  0
    6.2606    0.3715    2.0032 Cl  0  0  0  0  0  0  0  0  0  0  0  0
    3.6516   -0.5045    1.9740 C   0  0  0  0  0  0  0  0  0  0  0  0
    3.2746    0.7310    3.1326 Cl  0  0  0  0  0  0  0  0  0  0  0  0
   -0.9293   -0.4059   -0.4460 N   0  0  0  0  0  0  0  0  0  0  0  0
   -1.6764   -0.6310   -1.6712 C   0  0  0  0  0  0  0  0  0  0  0  0
   -2.0438    0.6711   -2.3991 C   0  0  0  0  0  0  0  0  0  0  0  0
   -3.0293    1.4681   -1.6956 N   0  0  0  0  0  0  0  0  0  0  0  0
   -2.7281    2.5121   -0.8569 C   0  0  0  0  0  0  0  0  0  0  0  0
   -1.4248    2.8797   -0.6901 O   0  0  0  0  0  0  0  0  0  0  0  0
   -3.7901    3.0744   -0.2679 C   0  0  0  0  0  0  0  0  0  0  0  0
   -5.2663    2.2911   -0.7450 S   0  0  0  0  0  0  0  0  0  0  0  0
   -4.3770    1.1483   -1.7690 C   0  0  0  0  0  0  0  0  0  0  0  0
   -4.9060    0.2677   -2.4281 O   0  0  0  0  0  0  0  0  0  0  0  0
   -0.8969   -0.4042    2.8400 H   0  0  0  0  0  0  0  0  0  0  0  0
   -0.7640    1.1897    2.0840 H   0  0  0  0  0  0  0  0  0  0  0  0
    2.2216   -3.1298    0.3025 H   0  0  0  0  0  0  0  0  0  0  0  0
    4.5533   -3.3936   -0.4974 H   0  0  0  0  0  0  0  0  0  0  0  0
    6.3063   -1.8231    0.2643 H   0  0  0  0  0  0  0  0  0  0  0  0
    0.0154   -0.0472   -0.5142 H   0  0  0  0  0  0  0  0  0  0  0  0
   -2.5733   -1.2187   -1.4478 H   0  0  0  0  0  0  0  0  0  0  0  0
   -1.0294   -1.2329   -2.3179 H   0  0  0  0  0  0  0  0  0  0  0  0
   -2.4660    0.4080   -3.3768 H   0  0  0  0  0  0  0  0  0  0  0  0
   -1.1483    1.2736   -2.5905 H   0  0  0  0  0  0  0  0  0  0  0  0
   -1.4081    3.6558   -0.1039 H   0  0  0  0  0  0  0  0  0  0  0  0
   -3.7760    3.9001    0.4273 H   0  0  0  0  0  0  0  0  0  0  0  0
  1  2  2  0
  2  3  1  0
  3  4  1  0
  4  5  1  0
  5  6  2  0
  5  7  1  0
  7  8  2  0
  8  9  1  0
  9 10  2  0
 10 11  1  0
 11 12  1  0
 11 13  2  0
 13 14  1  0
  2 15  1  0
 15 16  1  0
 16 17  1  0
 17 18  1  0
 18 19  1  0
 19 20  1  0
 19 21  2  0
 21 22  1  0
 22 23  1  0
 23 24  2  0
 13  7  1  0
 23 18  1  0
  3 25  1  0
  3 26  1  0
  8 27  1  0
  9 28  1  0
 10 29  1  0
 15 30  1  0
 16 31  1  0
 16 32  1  0
 17 33  1  0
 17 34  1  0
 20 35  1  0
 21 36  1  0
M  END
$$$$
