
     RDKit          3D

 39 40  0  0  0  0  0  0  0  0999 V2000
   -1.7864   -1.9791   -0.8522 C   0  0  0  0  0  0  0  0  0  0  0  0
   -2.4969   -0.6755   -0.5499 C   0  0  0  0  0  0  0  0  0  0  0  0
   -1.8477    0.4187   -0.1077 C   0  0  0  0  0  0  0  0  0  0  0  0
   -0.3917    0.4292    0.1978 C   0  0  0  0  0  0  0  0  0  0  0  0
    0.2088   -0.5103    0.8620 N   0  0  0  0  0  0  0  0  0  0  0  0
    1.5645   -0.3780    1.0346 N   0  0  0  0  0  0  0  0  0  0  0  0
    2.4304   -0.0152    0.0070 C   0  0  0  0  0  0  0  0  0  0  0  0
    2.0886    0.3045   -1.1311 O   0  0  0  0  0  0  0  0  0  0  0  0
    3.8864   -0.0863    0.3152 C   0  0  0  0  0  0  0  0  0  0  0  0
    4.3601    0.0110    1.6319 C   0  0  0  0  0  0  0  0  0  0  0  0
    5.7315   -0.0739    1.8827 C   0  0  0  0  0  0  0  0  0  0  0  0
    6.3641    0.0517    3.6605 Br  0  0  0  0  0  0  0  0  0  0  0  0
    6.6398   -0.2465    0.8397 C   0  0  0  0  0  0  0  0  0  0  0  0
    6.1759   -0.3213   -0.4729 C   0  0  0  0  0  0  0  0  0  0  0  0
    4.8096   -0.2311   -0.7333 C   0  0  0  0  0  0  0  0  0  0  0  0
    4.4438   -0.2935   -2.0516 O   0  0  0  0  0  0  0  0  0  0  0  0
   -2.5878    1.6905    0.0561 C   0  0  0  0  0  0  0  0  0  0  0  0
   -1.9985    2.6834    0.4832 O   0  0  0  0  0  0  0  0  0  0  0  0
   -3.9237    1.6823   -0.2820 N   0  0  0  0  0  0  0  0  0  0  0  0
   -4.6772    2.9140   -0.1381 C   0  0  0  0  0  0  0  0  0  0  0  0
   -4.6309    0.5418   -0.6309 C   0  0  0  0  0  0  0  0  0  0  0  0
   -5.8498    0.5694   -0.8129 O   0  0  0  0  0  0  0  0  0  0  0  0
   -3.8798   -0.6290   -0.7631 N   0  0  0  0  0  0  0  0  0  0  0  0
   -4.6085   -1.8356   -1.1548 C   0  0  0  0  0  0  0  0  0  0  0  0
   -2.1439   -2.4172   -1.7900 H   0  0  0  0  0  0  0  0  0  0  0  0
   -1.9481   -2.6987   -0.0434 H   0  0  0  0  0  0  0  0  0  0  0  0
   -0.7098   -1.8619   -0.9996 H   0  0  0  0  0  0  0  0  0  0  0  0
    0.1333    1.3455   -0.1292 H   0  0  0  0  0  0  0  0  0  0  0  0
    1.9288   -0.9848    1.7638 H   0  0  0  0  0  0  0  0  0  0  0  0
    3.6805    0.1780    2.4628 H   0  0  0  0  0  0  0  0  0  0  0  0
    7.7074   -0.3127    1.0344 H   0  0  0  0  0  0  0  0  0  0  0  0
    6.8770   -0.4421   -1.2952 H   0  0  0  0  0  0  0  0  0  0  0  0
    3.4901   -0.0598   -2.1158 H   0  0  0  0  0  0  0  0  0  0  0  0
   -4.0264    3.7927   -0.1530 H   0  0  0  0  0  0  0  0  0  0  0  0
   -5.2114    2.8816    0.8169 H   0  0  0  0  0  0  0  0  0  0  0  0
   -5.4095    3.0072   -0.9464 H   0  0  0  0  0  0  0  0  0  0  0  0
   -4.3314   -2.6685   -0.5014 H   0  0  0  0  0  0  0  0  0  0  0  0
   -5.6920   -1.7087   -1.0779 H   0  0  0  0  0  0  0  0  0  0  0  0
   -4.3694   -2.0719   -2.1962 H   0  0  0  0  0  0  0  0  0  0  0  0
  1  2  1  0
  2  3  2  0
  3  4  1  0
  4  5  2  3
  5  6  1  0
  6  7  1  0
  7  8  2  0
  7  9  1  0
  9 10  2  0
 10 11  1  0
 11 12  1  0
 11 13  2  0
 13 14  1  0
 14 15  2  0
 15 16  1  0
  3 17  1  0
 17 18  2  0
 17 19  1  0
 19 20  1  0
 19 21  1  0
 21 22  2  0
 21 23  1  0
 23 24  1  0
 23  2  1  0
 15  9  1  0
  1 25  1  0
  1 26  1  0
  1 27  1  0
  4 28  1  0
  6 29  1  0
 10 30  1  0
 13 31  1  0
 14 32  1  0
 16 33  1  0
 20 34  1  0
 20 35  1  0
 20 36  1  0
 24 37  1  0
 24 38  1  0
 24 39  1  0
M  END
$$$$
