
     RDKit          3D

 31 32  0  0  0  0  0  0  0  0999 V2000
    2.4560   -2.3415    0.7496 C   0  0  0  0  0  0  0  0  0  0  0  0
    2.7136   -1.7779   -0.6402 C   0  0  0  0  0  0  0  0  0  0  0  0
    2.8551   -0.3239   -0.6163 N   0  0  0  0  0  0  0  0  0  0  0  0
    1.8780    0.6231   -0.5163 C   0  0  0  0  0  0  0  0  0  0  0  0
    0.4592    0.3579   -0.6145 C   0  0  0  0  0  0  0  0  0  0  0  0
   -0.1397   -0.4079   -1.5950 C   0  0  0  0  0  0  0  0  0  0  0  0
   -1.8352   -0.5146   -1.4167 S   0  0  0  0  0  0  0  0  0  0  0  0
   -1.8256    0.5197   -0.0514 C   0  0  0  0  0  0  0  0  0  0  0  0
   -3.0978    0.9091    0.6689 C   0  0  0  0  0  0  0  0  0  0  0  0
   -4.0480    1.7017   -0.2298 C   0  0  0  0  0  0  0  0  0  0  0  0
   -3.8011   -0.3001    1.2870 C   0  0  0  0  0  0  0  0  0  0  0  0
   -0.5382    0.9197    0.2532 C   0  0  0  0  0  0  0  0  0  0  0  0
    2.3069    1.8331   -0.2903 N   0  0  0  0  0  0  0  0  0  0  0  0
    3.6632    1.7014   -0.2504 N   0  0  0  0  0  0  0  0  0  0  0  0
    4.0244    0.3737   -0.4174 C   0  0  0  0  0  0  0  0  0  0  0  0
    5.5921   -0.1596   -0.3515 S   0  0  0  0  0  0  0  0  0  0  0  0
    3.2726   -2.0931    1.4350 H   0  0  0  0  0  0  0  0  0  0  0  0
    1.5309   -1.9397    1.1751 H   0  0  0  0  0  0  0  0  0  0  0  0
    2.3656   -3.4312    0.7062 H   0  0  0  0  0  0  0  0  0  0  0  0
    1.8938   -2.0586   -1.3029 H   0  0  0  0  0  0  0  0  0  0  0  0
    3.6244   -2.2247   -1.0508 H   0  0  0  0  0  0  0  0  0  0  0  0
    0.3291   -0.9090   -2.4302 H   0  0  0  0  0  0  0  0  0  0  0  0
   -2.8151    1.5724    1.4984 H   0  0  0  0  0  0  0  0  0  0  0  0
   -4.4359    1.0928   -1.0537 H   0  0  0  0  0  0  0  0  0  0  0  0
   -3.5431    2.5712   -0.6654 H   0  0  0  0  0  0  0  0  0  0  0  0
   -4.9064    2.0660    0.3450 H   0  0  0  0  0  0  0  0  0  0  0  0
   -4.1790   -0.9886    0.5234 H   0  0  0  0  0  0  0  0  0  0  0  0
   -4.6541    0.0207    1.8948 H   0  0  0  0  0  0  0  0  0  0  0  0
   -3.1197   -0.8616    1.9359 H   0  0  0  0  0  0  0  0  0  0  0  0
   -0.3054    1.5876    1.0758 H   0  0  0  0  0  0  0  0  0  0  0  0
    4.2789    2.4819   -0.0555 H   0  0  0  0  0  0  0  0  0  0  0  0
  1  2  1  0
  2  3  1  0
  3  4  1  0
  4  5  1  0
  5  6  2  0
  6  7  1  0
  7  8  1  0
  8  9  1  0
  9 10  1  0
  9 11  1  0
  8 12  2  0
  4 13  2  0
 13 14  1  0
 14 15  1  0
 15 16  2  0
 15  3  1  0
 12  5  1  0
  1 17  1  0
  1 18  1  0
  1 19  1  0
  2 20  1  0
  2 21  1  0
  6 22  1  0
  9 23  1  0
 10 24  1  0
 10 25  1  0
 10 26  1  0
 11 27  1  0
 11 28  1  0
 11 29  1  0
 12 30  1  0
 14 31  1  0
M  END
$$$$
