
     RDKit          3D

 38 39  0  0  0  0  0  0  0  0999 V2000
    1.3592    1.1963    2.6018 O   0  0  0  0  0  0  0  0  0  0  0  0
    1.2596    0.9982    1.3892 C   0  0  0  0  0  0  0  0  0  0  0  0
    0.6661    2.0407    0.4399 C   0  0  0  0  0  0  0  0  0  0  0  0
   -0.7646    2.0234    0.4742 O   0  0  0  0  0  0  0  0  0  0  0  0
   -1.3413    0.9765   -0.1798 C   0  0  0  0  0  0  0  0  0  0  0  0
   -0.7364    0.1188   -0.8056 O   0  0  0  0  0  0  0  0  0  0  0  0
   -2.8234    1.0047   -0.0208 C   0  0  0  0  0  0  0  0  0  0  0  0
   -3.5344   -0.1223   -0.4787 C   0  0  0  0  0  0  0  0  0  0  0  0
   -4.9316   -0.1732   -0.3863 C   0  0  0  0  0  0  0  0  0  0  0  0
   -5.6220    0.9091    0.1589 C   0  0  0  0  0  0  0  0  0  0  0  0
   -6.9848    0.9033    0.2610 O   0  0  0  0  0  0  0  0  0  0  0  0
   -4.9387    2.0340    0.6155 C   0  0  0  0  0  0  0  0  0  0  0  0
   -3.5433    2.0798    0.5355 C   0  0  0  0  0  0  0  0  0  0  0  0
   -2.9735    3.2204    1.0335 O   0  0  0  0  0  0  0  0  0  0  0  0
    1.6265   -0.1756    0.7711 N   0  0  0  0  0  0  0  0  0  0  0  0
    2.1456   -1.2997    1.5337 C   0  0  0  0  0  0  0  0  0  0  0  0
    2.7156   -2.4126    0.6365 C   0  0  0  0  0  0  0  0  0  0  0  0
    3.8367   -1.9701   -0.1807 N   0  0  0  0  0  0  0  0  0  0  0  0
    3.7110   -1.4524   -1.4470 C   0  0  0  0  0  0  0  0  0  0  0  0
    2.4682   -1.3652   -1.9980 O   0  0  0  0  0  0  0  0  0  0  0  0
    4.8630   -1.0880   -2.0228 C   0  0  0  0  0  0  0  0  0  0  0  0
    6.2054   -1.3409   -0.9478 S   0  0  0  0  0  0  0  0  0  0  0  0
    5.1253   -1.9753    0.3171 C   0  0  0  0  0  0  0  0  0  0  0  0
    5.5008   -2.3390    1.4153 O   0  0  0  0  0  0  0  0  0  0  0  0
    1.0008    3.0351    0.7724 H   0  0  0  0  0  0  0  0  0  0  0  0
    1.0423    1.9087   -0.5886 H   0  0  0  0  0  0  0  0  0  0  0  0
   -3.0038   -0.9778   -0.9050 H   0  0  0  0  0  0  0  0  0  0  0  0
   -5.4556   -1.0581   -0.7405 H   0  0  0  0  0  0  0  0  0  0  0  0
   -7.3220    0.0827   -0.1372 H   0  0  0  0  0  0  0  0  0  0  0  0
   -5.4889    2.8734    1.0420 H   0  0  0  0  0  0  0  0  0  0  0  0
   -2.0041    3.0830    1.0869 H   0  0  0  0  0  0  0  0  0  0  0  0
    1.1789   -0.3828   -0.1307 H   0  0  0  0  0  0  0  0  0  0  0  0
    1.3180   -1.6992    2.1329 H   0  0  0  0  0  0  0  0  0  0  0  0
    2.9089   -0.9225    2.2284 H   0  0  0  0  0  0  0  0  0  0  0  0
    1.9316   -2.8280   -0.0184 H   0  0  0  0  0  0  0  0  0  0  0  0
    3.0657   -3.2329    1.2790 H   0  0  0  0  0  0  0  0  0  0  0  0
    2.5538   -1.0074   -2.8946 H   0  0  0  0  0  0  0  0  0  0  0  0
    4.9854   -0.6654   -3.0101 H   0  0  0  0  0  0  0  0  0  0  0  0
  1  2  2  0
  2  3  1  0
  3  4  1  0
  4  5  1  0
  5  6  2  0
  5  7  1  0
  7  8  2  0
  8  9  1  0
  9 10  2  0
 10 11  1  0
 10 12  1  0
 12 13  2  0
 13 14  1  0
  2 15  1  0
 15 16  1  0
 16 17  1  0
 17 18  1  0
 18 19  1  0
 19 20  1  0
 19 21  2  0
 21 22  1  0
 22 23  1  0
 23 24  2  0
 13  7  1  0
 23 18  1  0
  3 25  1  0
  3 26  1  0
  8 27  1  0
  9 28  1  0
 11 29  1  0
 12 30  1  0
 14 31  1  0
 15 32  1  0
 16 33  1  0
 16 34  1  0
 17 35  1  0
 17 36  1  0
 20 37  1  0
 21 38  1  0
M  END
$$$$
