
     RDKit          3D

 24 24  0  0  0  0  0  0  0  0999 V2000
   -3.8974   -0.6683   -1.1794 C   0  0  0  0  0  0  0  0  0  0  0  0
   -3.6529   -0.5705    0.2427 N   0  0  0  0  0  0  0  0  0  0  0  0
   -2.4563   -0.3588    0.8803 C   0  0  0  0  0  0  0  0  0  0  0  0
   -2.4618   -0.5740    2.5355 S   0  0  0  0  0  0  0  0  0  0  0  0
   -1.4310    0.0341    0.0563 N   0  0  0  0  0  0  0  0  0  0  0  0
   -0.0369    0.1283    0.2657 C   0  0  0  0  0  0  0  0  0  0  0  0
    0.6631   -0.5407    1.2682 C   0  0  0  0  0  0  0  0  0  0  0  0
    2.0527   -0.4050    1.3823 C   0  0  0  0  0  0  0  0  0  0  0  0
    2.7680    0.4005    0.4920 C   0  0  0  0  0  0  0  0  0  0  0  0
    4.2588    0.5176    0.5995 C   0  0  0  0  0  0  0  0  0  0  0  0
    2.0757    1.0415   -0.5376 C   0  0  0  0  0  0  0  0  0  0  0  0
    0.6882    0.9036   -0.6494 C   0  0  0  0  0  0  0  0  0  0  0  0
   -4.9135   -1.0388   -1.3333 H   0  0  0  0  0  0  0  0  0  0  0  0
   -3.7956    0.3227   -1.6289 H   0  0  0  0  0  0  0  0  0  0  0  0
   -3.1761   -1.3554   -1.6293 H   0  0  0  0  0  0  0  0  0  0  0  0
   -4.3921   -0.8818    0.8646 H   0  0  0  0  0  0  0  0  0  0  0  0
   -1.7495    0.4683   -0.7974 H   0  0  0  0  0  0  0  0  0  0  0  0
    0.1692   -1.2096    1.9630 H   0  0  0  0  0  0  0  0  0  0  0  0
    2.5703   -0.9436    2.1734 H   0  0  0  0  0  0  0  0  0  0  0  0
    4.6020    1.4895    0.2296 H   0  0  0  0  0  0  0  0  0  0  0  0
    4.5828    0.4347    1.6423 H   0  0  0  0  0  0  0  0  0  0  0  0
    4.7396   -0.2732    0.0155 H   0  0  0  0  0  0  0  0  0  0  0  0
    2.6096    1.6547   -1.2599 H   0  0  0  0  0  0  0  0  0  0  0  0
    0.1832    1.4243   -1.4588 H   0  0  0  0  0  0  0  0  0  0  0  0
  1  2  1  0
  2  3  1  0
  3  4  2  0
  3  5  1  0
  5  6  1  0
  6  7  2  0
  7  8  1  0
  8  9  2  0
  9 10  1  0
  9 11  1  0
 11 12  2  0
 12  6  1  0
  1 13  1  0
  1 14  1  0
  1 15  1  0
  2 16  1  0
  5 17  1  0
  7 18  1  0
  8 19  1  0
 10 20  1  0
 10 21  1  0
 10 22  1  0
 11 23  1  0
 12 24  1  0
M  END
$$$$
