
     RDKit          3D

 45 44  0  0  0  0  0  0  0  0999 V2000
    5.8374   -2.1333    0.0205 C   0  0  0  0  0  0  0  0  0  0  0  0
    4.7897   -2.9560    0.7545 C   0  0  0  0  0  0  0  0  0  0  0  0
    4.3640   -2.3451    2.0925 C   0  0  0  0  0  0  0  0  0  0  0  0
    3.6145   -1.0168    1.9872 C   0  0  0  0  0  0  0  0  0  0  0  0
    2.3196   -1.1680    1.3643 N   0  0  0  0  0  0  0  0  0  0  0  0
    2.0453   -0.7744    0.0918 C   0  0  0  0  0  0  0  0  0  0  0  0
    2.8268   -0.2270   -0.6686 O   0  0  0  0  0  0  0  0  0  0  0  0
    0.7581   -1.0845   -0.1919 O   0  0  0  0  0  0  0  0  0  0  0  0
    0.3014   -0.7662   -1.5217 C   0  0  0  0  0  0  0  0  0  0  0  0
   -0.5776    0.4985   -1.5203 C   0  0  0  0  0  0  0  0  0  0  0  0
    0.2038    1.7479   -1.0796 C   0  0  0  0  0  0  0  0  0  0  0  0
   -0.5708    3.0431   -1.2898 C   0  0  0  0  0  0  0  0  0  0  0  0
   -1.7369    0.2874   -0.6610 N   0  0  0  0  0  0  0  0  0  0  0  0
   -3.0078    0.6236   -1.0051 C   0  0  0  0  0  0  0  0  0  0  0  0
   -3.3545    1.0722   -2.0861 O   0  0  0  0  0  0  0  0  0  0  0  0
   -3.8234    0.3849    0.0498 O   0  0  0  0  0  0  0  0  0  0  0  0
   -5.2135    0.7054   -0.1426 C   0  0  0  0  0  0  0  0  0  0  0  0
   -5.4383    2.1884    0.1310 C   0  0  0  0  0  0  0  0  0  0  0  0
   -6.0107   -0.1495    0.8352 C   0  0  0  0  0  0  0  0  0  0  0  0
    6.1620   -2.6595   -0.8830 H   0  0  0  0  0  0  0  0  0  0  0  0
    5.4457   -1.1598   -0.2863 H   0  0  0  0  0  0  0  0  0  0  0  0
    6.7178   -1.9681    0.6496 H   0  0  0  0  0  0  0  0  0  0  0  0
    3.9194   -3.1068    0.1066 H   0  0  0  0  0  0  0  0  0  0  0  0
    5.2087   -3.9508    0.9491 H   0  0  0  0  0  0  0  0  0  0  0  0
    3.7293   -3.0716    2.6157 H   0  0  0  0  0  0  0  0  0  0  0  0
    5.2537   -2.1989    2.7171 H   0  0  0  0  0  0  0  0  0  0  0  0
    4.2061   -0.2657    1.4551 H   0  0  0  0  0  0  0  0  0  0  0  0
    3.4263   -0.6322    2.9955 H   0  0  0  0  0  0  0  0  0  0  0  0
    1.5715   -1.6352    1.8563 H   0  0  0  0  0  0  0  0  0  0  0  0
    1.1314   -0.6651   -2.2306 H   0  0  0  0  0  0  0  0  0  0  0  0
   -0.2931   -1.6248   -1.8552 H   0  0  0  0  0  0  0  0  0  0  0  0
   -0.9318    0.6532   -2.5471 H   0  0  0  0  0  0  0  0  0  0  0  0
    0.4790    1.6758   -0.0207 H   0  0  0  0  0  0  0  0  0  0  0  0
    1.1350    1.8130   -1.6550 H   0  0  0  0  0  0  0  0  0  0  0  0
   -1.4604    3.0859   -0.6544 H   0  0  0  0  0  0  0  0  0  0  0  0
   -0.8836    3.1493   -2.3333 H   0  0  0  0  0  0  0  0  0  0  0  0
    0.0592    3.9018   -1.0364 H   0  0  0  0  0  0  0  0  0  0  0  0
   -1.5986   -0.0207    0.2917 H   0  0  0  0  0  0  0  0  0  0  0  0
   -5.5297    0.4516   -1.1618 H   0  0  0  0  0  0  0  0  0  0  0  0
   -6.4966    2.4518    0.0405 H   0  0  0  0  0  0  0  0  0  0  0  0
   -5.0933    2.4578    1.1354 H   0  0  0  0  0  0  0  0  0  0  0  0
   -4.8691    2.8061   -0.5713 H   0  0  0  0  0  0  0  0  0  0  0  0
   -7.0847    0.0409    0.7467 H   0  0  0  0  0  0  0  0  0  0  0  0
   -5.7030    0.0435    1.8689 H   0  0  0  0  0  0  0  0  0  0  0  0
   -5.8283   -1.2130    0.6466 H   0  0  0  0  0  0  0  0  0  0  0  0
  1  2  1  0
  2  3  1  0
  3  4  1  0
  4  5  1  0
  5  6  1  0
  6  7  2  0
  6  8  1  0
  8  9  1  0
  9 10  1  0
 10 11  1  0
 11 12  1  0
 10 13  1  0
 13 14  1  0
 14 15  2  0
 14 16  1  0
 16 17  1  0
 17 18  1  0
 17 19  1  0
  1 20  1  0
  1 21  1  0
  1 22  1  0
  2 23  1  0
  2 24  1  0
  3 25  1  0
  3 26  1  0
  4 27  1  0
  4 28  1  0
  5 29  1  0
  9 30  1  0
  9 31  1  0
 10 32  1  0
 11 33  1  0
 11 34  1  0
 12 35  1  0
 12 36  1  0
 12 37  1  0
 13 38  1  0
 17 39  1  0
 18 40  1  0
 18 41  1  0
 18 42  1  0
 19 43  1  0
 19 44  1  0
 19 45  1  0
M  END
$$$$
