
     RDKit          3D

 71 75  0  0  0  0  0  0  0  0999 V2000
   -1.5552    3.9558   -0.1719 C   0  0  0  0  0  0  0  0  0  0  0  0
   -1.3837    2.4833    0.1512 C   0  0  0  0  0  0  0  0  0  0  0  0
   -1.8669    1.5756   -0.7271 C   0  0  0  0  0  0  0  0  0  0  0  0
   -1.9246    0.1009   -0.7794 C   0  0  0  0  0  0  0  0  0  0  0  0
   -3.1339   -0.6941   -0.2977 C   0  0  2  0  0  0  0  0  0  0  0  0
   -3.0129   -2.0542    0.3646 C   0  0  0  0  0  0  0  0  0  0  0  0
   -3.3292   -2.0830    1.8748 C   0  0  0  0  0  0  0  0  0  0  0  0
   -2.4418   -1.2307    2.7635 C   0  0  2  0  0  0  0  0  0  0  0  0
   -2.6528   -1.3480    4.2373 C   0  0  0  0  0  0  0  0  0  0  0  0
   -2.4117    0.1005    2.2812 O   0  0  0  0  0  0  0  0  0  0  0  0
   -1.1576   -0.6149    2.2182 C   0  0  1  0  0  0  0  0  0  0  0  0
   -0.1178    0.2622    2.8101 C   0  0  1  0  0  0  0  0  0  0  0  0
    1.1288   -0.4533    3.3256 C   0  0  1  0  0  0  0  0  0  0  0  0
    1.5196   -1.5184    2.4646 O   0  0  0  0  0  0  0  0  0  0  0  0
    2.1885    0.6701    3.3861 C   0  0  1  0  0  0  0  0  0  0  0  0
    3.5824    0.2644    2.9185 C   0  0  0  0  0  0  0  0  0  0  0  0
    4.0089   -0.8890    3.6388 O   0  0  0  0  0  0  0  0  0  0  0  0
    1.6162    1.8482    2.5637 C   0  0  0  0  0  0  0  0  0  0  0  0
    0.4273    1.2708    1.7471 C   0  0  1  0  0  0  0  0  0  0  0  0
    0.9486    0.5681    0.6099 O   0  0  0  0  0  0  0  0  0  0  0  0
    1.5427    1.2838   -0.3729 C   0  0  0  0  0  0  0  0  0  0  0  0
    1.6857    2.4933   -0.4113 O   0  0  0  0  0  0  0  0  0  0  0  0
    2.0040    0.3327   -1.4032 C   0  0  0  0  0  0  0  0  0  0  0  0
    2.6098    0.7882   -2.5094 C   0  0  0  0  0  0  0  0  0  0  0  0
    3.0930   -0.0687   -3.6015 C   0  0  0  0  0  0  0  0  0  0  0  0
    3.5881   -1.3620   -3.3858 C   0  0  0  0  0  0  0  0  0  0  0  0
    4.0625   -2.1298   -4.4535 C   0  0  0  0  0  0  0  0  0  0  0  0
    4.0569   -1.6097   -5.7460 C   0  0  0  0  0  0  0  0  0  0  0  0
    3.5830   -0.3195   -5.9716 C   0  0  0  0  0  0  0  0  0  0  0  0
    3.1089    0.4482   -4.9047 C   0  0  0  0  0  0  0  0  0  0  0  0
   -0.6776    2.3330    1.4859 C   0  0  0  0  0  0  0  0  0  0  0  0
   -0.9723    3.1400    2.3796 O   0  0  0  0  0  0  0  0  0  0  0  0
   -2.8750   -0.5604   -1.7885 C   0  0  0  0  0  0  0  0  0  0  0  0
   -2.3100   -1.7174   -2.5816 C   0  0  0  0  0  0  0  0  0  0  0  0
   -3.9108    0.2226   -2.5649 C   0  0  0  0  0  0  0  0  0  0  0  0
   -1.9157    4.1256   -1.1921 H   0  0  0  0  0  0  0  0  0  0  0  0
   -0.5977    4.4810   -0.0819 H   0  0  0  0  0  0  0  0  0  0  0  0
   -2.2754    4.4184    0.5116 H   0  0  0  0  0  0  0  0  0  0  0  0
   -2.2998    2.0276   -1.6201 H   0  0  0  0  0  0  0  0  0  0  0  0
   -0.9484   -0.3655   -0.7167 H   0  0  0  0  0  0  0  0  0  0  0  0
   -3.9744   -0.1382    0.1097 H   0  0  0  0  0  0  0  0  0  0  0  0
   -3.7272   -2.7255   -0.1288 H   0  0  0  0  0  0  0  0  0  0  0  0
   -2.0205   -2.4857    0.1932 H   0  0  0  0  0  0  0  0  0  0  0  0
   -3.2598   -3.1232    2.2157 H   0  0  0  0  0  0  0  0  0  0  0  0
   -4.3703   -1.7695    2.0242 H   0  0  0  0  0  0  0  0  0  0  0  0
   -3.7040   -1.1747    4.4900 H   0  0  0  0  0  0  0  0  0  0  0  0
   -2.3804   -2.3522    4.5774 H   0  0  0  0  0  0  0  0  0  0  0  0
   -2.0517   -0.6291    4.8025 H   0  0  0  0  0  0  0  0  0  0  0  0
   -0.7890   -1.0809    1.3162 H   0  0  0  0  0  0  0  0  0  0  0  0
   -0.5459    0.8288    3.6511 H   0  0  0  0  0  0  0  0  0  0  0  0
    0.9482   -0.8874    4.3153 H   0  0  0  0  0  0  0  0  0  0  0  0
    2.3765   -1.8483    2.8084 H   0  0  0  0  0  0  0  0  0  0  0  0
    2.2633    0.9972    4.4322 H   0  0  0  0  0  0  0  0  0  0  0  0
    4.3075    1.0700    3.0778 H   0  0  0  0  0  0  0  0  0  0  0  0
    3.5912    0.0168    1.8519 H   0  0  0  0  0  0  0  0  0  0  0  0
    4.3452   -0.5803    4.4995 H   0  0  0  0  0  0  0  0  0  0  0  0
    1.2747    2.6226    3.2620 H   0  0  0  0  0  0  0  0  0  0  0  0
    2.3895    2.3115    1.9445 H   0  0  0  0  0  0  0  0  0  0  0  0
    1.8146   -0.7180   -1.2209 H   0  0  0  0  0  0  0  0  0  0  0  0
    2.7501    1.8592   -2.6501 H   0  0  0  0  0  0  0  0  0  0  0  0
    3.6242   -1.7874   -2.3857 H   0  0  0  0  0  0  0  0  0  0  0  0
    4.4420   -3.1325   -4.2732 H   0  0  0  0  0  0  0  0  0  0  0  0
    4.4267   -2.2070   -6.5752 H   0  0  0  0  0  0  0  0  0  0  0  0
    3.5828    0.0925   -6.9776 H   0  0  0  0  0  0  0  0  0  0  0  0
    2.7446    1.4539   -5.1048 H   0  0  0  0  0  0  0  0  0  0  0  0
   -3.0957   -2.4466   -2.8039 H   0  0  0  0  0  0  0  0  0  0  0  0
   -1.8973   -1.3569   -3.5296 H   0  0  0  0  0  0  0  0  0  0  0  0
   -1.5045   -2.2373   -2.0539 H   0  0  0  0  0  0  0  0  0  0  0  0
   -3.4500    0.7075   -3.4317 H   0  0  0  0  0  0  0  0  0  0  0  0
   -4.3982    0.9935   -1.9585 H   0  0  0  0  0  0  0  0  0  0  0  0
   -4.6965   -0.4488   -2.9279 H   0  0  0  0  0  0  0  0  0  0  0  0
  1  2  1  0
  2  3  2  3
  3  4  1  0
  4  5  1  0
  5  6  1  0
  6  7  1  0
  7  8  1  0
  8  9  1  1
  8 10  1  0
 10 11  1  0
 11 12  1  0
 12 13  1  0
 13 14  1  0
 13 15  1  0
 15 16  1  0
 16 17  1  0
 15 18  1  0
 18 19  1  0
 19 20  1  6
 20 21  1  0
 21 22  2  0
 21 23  1  0
 23 24  2  0
 24 25  1  0
 25 26  2  0
 26 27  1  0
 27 28  2  0
 28 29  1  0
 29 30  2  0
 19 31  1  0
 31 32  2  0
  5 33  1  0
 33 34  1  0
 33 35  1  0
 31  2  1  0
 33  4  1  0
 11  8  1  0
 19 12  1  0
 30 25  1  0
  1 36  1  0
  1 37  1  0
  1 38  1  0
  3 39  1  0
  4 40  1  0
  5 41  1  6
  6 42  1  0
  6 43  1  0
  7 44  1  0
  7 45  1  0
  9 46  1  0
  9 47  1  0
  9 48  1  0
 11 49  1  6
 12 50  1  1
 13 51  1  1
 14 52  1  0
 15 53  1  1
 16 54  1  0
 16 55  1  0
 17 56  1  0
 18 57  1  0
 18 58  1  0
 23 59  1  0
 24 60  1  0
 26 61  1  0
 27 62  1  0
 28 63  1  0
 29 64  1  0
 30 65  1  0
 34 66  1  0
 34 67  1  0
 34 68  1  0
 35 69  1  0
 35 70  1  0
 35 71  1  0
M  END
$$$$
