
     RDKit          3D

 65 68  0  0  0  0  0  0  0  0999 V2000
    7.7366    2.3213    1.4590 C   0  0  0  0  0  0  0  0  0  0  0  0
    6.7451    1.3736    1.9937 C   0  0  0  0  0  0  0  0  0  0  0  0
    5.3864    1.4161    2.1917 C   0  0  0  0  0  0  0  0  0  0  0  0
    5.0666    0.1529    2.7331 C   0  0  0  0  0  0  0  0  0  0  0  0
    3.8433   -0.3504    3.1158 N   0  0  0  0  0  0  0  0  0  0  0  0
    2.6463    0.3199    3.0240 C   0  0  0  0  0  0  0  0  0  0  0  0
    2.4911    1.4706    2.6215 O   0  0  0  0  0  0  0  0  0  0  0  0
    1.4647   -0.4857    3.5338 C   0  0  0  0  0  0  0  0  0  0  0  0
    0.3545   -0.5172    2.4864 C   0  0  0  0  0  0  0  0  0  0  0  0
    0.6617   -1.5093    1.3748 C   0  0  0  0  0  0  0  0  0  0  0  0
    1.6647   -2.2234    1.4542 O   0  0  0  0  0  0  0  0  0  0  0  0
   -0.2411   -1.5929    0.3144 N   0  0  0  0  0  0  0  0  0  0  0  0
    0.1203   -2.4856   -0.7930 C   0  0  0  0  0  0  0  0  0  0  0  0
   -0.6316   -3.7890   -0.7211 C   0  0  0  0  0  0  0  0  0  0  0  0
   -1.4809   -4.3301   -1.6699 C   0  0  0  0  0  0  0  0  0  0  0  0
   -2.0011   -5.5982   -1.2822 C   0  0  0  0  0  0  0  0  0  0  0  0
   -1.5235   -5.9969   -0.0552 C   0  0  0  0  0  0  0  0  0  0  0  0
   -0.4570   -4.8466    0.6204 S   0  0  0  0  0  0  0  0  0  0  0  0
   -1.3025   -0.5852    0.0893 C   0  0  0  0  0  0  0  0  0  0  0  0
   -0.7293    0.6435   -0.6763 C   0  0  0  0  0  0  0  0  0  0  0  0
    0.2807    0.5955   -1.3748 O   0  0  0  0  0  0  0  0  0  0  0  0
   -1.4625    1.8092   -0.5026 N   0  0  0  0  0  0  0  0  0  0  0  0
   -1.0792    3.0375   -1.1714 C   0  0  0  0  0  0  0  0  0  0  0  0
   -1.4994    3.0507   -2.6435 C   0  0  0  0  0  0  0  0  0  0  0  0
   -1.7687    4.5181   -2.9340 C   0  0  0  0  0  0  0  0  0  0  0  0
   -2.4784    4.9821   -1.6731 C   0  0  0  0  0  0  0  0  0  0  0  0
   -1.7361    4.2751   -0.5413 C   0  0  0  0  0  0  0  0  0  0  0  0
   -2.5848   -1.1456   -0.5184 C   0  0  0  0  0  0  0  0  0  0  0  0
   -2.9496   -0.9376   -1.8593 C   0  0  0  0  0  0  0  0  0  0  0  0
   -4.1418   -1.4655   -2.3641 C   0  0  0  0  0  0  0  0  0  0  0  0
   -4.9788   -2.2176   -1.5411 C   0  0  0  0  0  0  0  0  0  0  0  0
   -4.6251   -2.4448   -0.2133 C   0  0  0  0  0  0  0  0  0  0  0  0
   -3.4382   -1.9134    0.2948 C   0  0  0  0  0  0  0  0  0  0  0  0
    6.1647   -0.6017    2.8643 N   0  0  0  0  0  0  0  0  0  0  0  0
    7.2163    0.1667    2.4005 O   0  0  0  0  0  0  0  0  0  0  0  0
    8.5897    2.4093    2.1386 H   0  0  0  0  0  0  0  0  0  0  0  0
    7.3005    3.3194    1.3364 H   0  0  0  0  0  0  0  0  0  0  0  0
    8.1012    1.9837    0.4834 H   0  0  0  0  0  0  0  0  0  0  0  0
    4.7255    2.2426    1.9705 H   0  0  0  0  0  0  0  0  0  0  0  0
    3.8728   -1.3192    3.4034 H   0  0  0  0  0  0  0  0  0  0  0  0
    1.1053    0.0234    4.4362 H   0  0  0  0  0  0  0  0  0  0  0  0
    1.7637   -1.4954    3.8374 H   0  0  0  0  0  0  0  0  0  0  0  0
    0.2121    0.4821    2.0633 H   0  0  0  0  0  0  0  0  0  0  0  0
   -0.5743   -0.8383    2.9707 H   0  0  0  0  0  0  0  0  0  0  0  0
   -0.0837   -1.9823   -1.7442 H   0  0  0  0  0  0  0  0  0  0  0  0
    1.1961   -2.6979   -0.7883 H   0  0  0  0  0  0  0  0  0  0  0  0
   -1.7276   -3.8319   -2.6005 H   0  0  0  0  0  0  0  0  0  0  0  0
   -2.6892   -6.1877   -1.8757 H   0  0  0  0  0  0  0  0  0  0  0  0
   -1.7429   -6.9115    0.4784 H   0  0  0  0  0  0  0  0  0  0  0  0
   -1.6062   -0.1875    1.0653 H   0  0  0  0  0  0  0  0  0  0  0  0
   -2.4230    1.7183   -0.1951 H   0  0  0  0  0  0  0  0  0  0  0  0
    0.0117    3.1364   -1.0992 H   0  0  0  0  0  0  0  0  0  0  0  0
   -2.4180    2.4664   -2.7931 H   0  0  0  0  0  0  0  0  0  0  0  0
   -0.7285    2.6298   -3.3002 H   0  0  0  0  0  0  0  0  0  0  0  0
   -0.8257    5.0616   -3.0644 H   0  0  0  0  0  0  0  0  0  0  0  0
   -2.3761    4.6605   -3.8320 H   0  0  0  0  0  0  0  0  0  0  0  0
   -2.4656    6.0710   -1.5624 H   0  0  0  0  0  0  0  0  0  0  0  0
   -3.5252    4.6559   -1.6889 H   0  0  0  0  0  0  0  0  0  0  0  0
   -0.9561    4.9363   -0.1437 H   0  0  0  0  0  0  0  0  0  0  0  0
   -2.4137    4.0370    0.2870 H   0  0  0  0  0  0  0  0  0  0  0  0
   -2.3073   -0.3755   -2.5361 H   0  0  0  0  0  0  0  0  0  0  0  0
   -4.4127   -1.2967   -3.4051 H   0  0  0  0  0  0  0  0  0  0  0  0
   -5.9011   -2.6363   -1.9375 H   0  0  0  0  0  0  0  0  0  0  0  0
   -5.2657   -3.0470    0.4273 H   0  0  0  0  0  0  0  0  0  0  0  0
   -3.1694   -2.1226    1.3291 H   0  0  0  0  0  0  0  0  0  0  0  0
  1  2  1  0
  2  3  2  0
  3  4  1  0
  4  5  1  0
  5  6  1  0
  6  7  2  0
  6  8  1  0
  8  9  1  0
  9 10  1  0
 10 11  2  0
 10 12  1  0
 12 13  1  0
 13 14  1  0
 14 15  2  0
 15 16  1  0
 16 17  2  0
 17 18  1  0
 12 19  1  0
 19 20  1  0
 20 21  2  0
 20 22  1  0
 22 23  1  0
 23 24  1  0
 24 25  1  0
 25 26  1  0
 26 27  1  0
 19 28  1  0
 28 29  2  0
 29 30  1  0
 30 31  2  0
 31 32  1  0
 32 33  2  0
  4 34  2  0
 34 35  1  0
 35  2  1  0
 18 14  1  0
 27 23  1  0
 33 28  1  0
  1 36  1  0
  1 37  1  0
  1 38  1  0
  3 39  1  0
  5 40  1  0
  8 41  1  0
  8 42  1  0
  9 43  1  0
  9 44  1  0
 13 45  1  0
 13 46  1  0
 15 47  1  0
 16 48  1  0
 17 49  1  0
 19 50  1  0
 22 51  1  0
 23 52  1  0
 24 53  1  0
 24 54  1  0
 25 55  1  0
 25 56  1  0
 26 57  1  0
 26 58  1  0
 27 59  1  0
 27 60  1  0
 29 61  1  0
 30 62  1  0
 31 63  1  0
 32 64  1  0
 33 65  1  0
M  END
$$$$
