
     RDKit          3D

 51 55  0  0  0  0  0  0  0  0999 V2000
    1.9726    3.4617   -1.2549 O   0  0  0  0  0  0  0  0  0  0  0  0
    1.1923    2.6414   -0.7747 C   0  0  0  0  0  0  0  0  0  0  0  0
   -0.3204    2.9169   -0.8101 C   0  0  0  0  0  0  0  0  0  0  0  0
   -1.2024    1.7861   -0.4706 N   0  0  0  0  0  0  0  0  0  0  0  0
   -1.5651    1.6171    0.8638 C   0  0  0  0  0  0  0  0  0  0  0  0
   -1.1905    2.3819    1.7537 O   0  0  0  0  0  0  0  0  0  0  0  0
   -2.3541    0.3811    1.2189 C   0  0  0  0  0  0  0  0  0  0  0  0
   -3.8464    0.6260    1.0854 C   0  0  0  0  0  0  0  0  0  0  0  0
   -4.6333   -0.6183    1.3522 C   0  0  0  0  0  0  0  0  0  0  0  0
   -5.7211   -0.8898    2.1583 C   0  0  0  0  0  0  0  0  0  0  0  0
   -6.0195   -2.2623    1.9814 C   0  0  0  0  0  0  0  0  0  0  0  0
   -5.0980   -2.7422    1.0819 C   0  0  0  0  0  0  0  0  0  0  0  0
   -4.2508   -1.7546    0.6962 O   0  0  0  0  0  0  0  0  0  0  0  0
   -4.3694    1.3542   -0.5135 S   0  0  0  0  0  0  0  0  0  0  0  0
   -3.1278    0.6865   -1.6186 C   0  0  0  0  0  0  0  0  0  0  0  0
   -3.6048   -0.0791   -2.6939 C   0  0  0  0  0  0  0  0  0  0  0  0
   -2.7432   -0.5082   -3.7014 C   0  0  0  0  0  0  0  0  0  0  0  0
   -1.4007   -0.1526   -3.6584 C   0  0  0  0  0  0  0  0  0  0  0  0
   -0.9136    0.6173   -2.5992 C   0  0  0  0  0  0  0  0  0  0  0  0
   -1.7577    1.0268   -1.5523 C   0  0  0  0  0  0  0  0  0  0  0  0
    1.5448    1.4597   -0.1499 N   0  0  0  0  0  0  0  0  0  0  0  0
    2.8335    0.9198    0.0291 C   0  0  0  0  0  0  0  0  0  0  0  0
    4.0046    1.5153   -0.4475 C   0  0  0  0  0  0  0  0  0  0  0  0
    5.2492    0.9140   -0.2259 C   0  0  0  0  0  0  0  0  0  0  0  0
    5.3294   -0.2854    0.4740 C   0  0  0  0  0  0  0  0  0  0  0  0
    4.1618   -0.9032    0.9274 C   0  0  0  0  0  0  0  0  0  0  0  0
    2.9223   -0.2966    0.7200 C   0  0  0  0  0  0  0  0  0  0  0  0
    4.1552   -2.1044    1.5919 O   0  0  0  0  0  0  0  0  0  0  0  0
    5.4083   -2.7842    1.4494 C   0  0  0  0  0  0  0  0  0  0  0  0
    6.5683   -1.8273    1.6761 C   0  0  0  0  0  0  0  0  0  0  0  0
    6.5823   -0.8046    0.6727 O   0  0  0  0  0  0  0  0  0  0  0  0
   -0.5088    3.7413   -0.1120 H   0  0  0  0  0  0  0  0  0  0  0  0
   -0.5768    3.2812   -1.8126 H   0  0  0  0  0  0  0  0  0  0  0  0
   -2.1125    0.1204    2.2588 H   0  0  0  0  0  0  0  0  0  0  0  0
   -1.9974   -0.4751    0.6333 H   0  0  0  0  0  0  0  0  0  0  0  0
   -4.1364    1.3708    1.8381 H   0  0  0  0  0  0  0  0  0  0  0  0
   -6.2388   -0.1804    2.7900 H   0  0  0  0  0  0  0  0  0  0  0  0
   -6.8111   -2.8318    2.4480 H   0  0  0  0  0  0  0  0  0  0  0  0
   -4.9208   -3.7102    0.6352 H   0  0  0  0  0  0  0  0  0  0  0  0
   -4.6613   -0.3325   -2.7623 H   0  0  0  0  0  0  0  0  0  0  0  0
   -3.1265   -1.1026   -4.5272 H   0  0  0  0  0  0  0  0  0  0  0  0
   -0.7275   -0.4738   -4.4504 H   0  0  0  0  0  0  0  0  0  0  0  0
    0.1466    0.8567   -2.6010 H   0  0  0  0  0  0  0  0  0  0  0  0
    0.7806    0.9286    0.2482 H   0  0  0  0  0  0  0  0  0  0  0  0
    3.9891    2.4542   -0.9926 H   0  0  0  0  0  0  0  0  0  0  0  0
    6.1538    1.3935   -0.5919 H   0  0  0  0  0  0  0  0  0  0  0  0
    2.0324   -0.7923    1.0982 H   0  0  0  0  0  0  0  0  0  0  0  0
    5.4483   -3.2340    0.4489 H   0  0  0  0  0  0  0  0  0  0  0  0
    5.4330   -3.5927    2.1877 H   0  0  0  0  0  0  0  0  0  0  0  0
    6.5081   -1.3496    2.6625 H   0  0  0  0  0  0  0  0  0  0  0  0
    7.5199   -2.3645    1.6151 H   0  0  0  0  0  0  0  0  0  0  0  0
  1  2  2  0
  2  3  1  0
  3  4  1  0
  4  5  1  0
  5  6  2  0
  5  7  1  0
  7  8  1  0
  8  9  1  0
  9 10  2  0
 10 11  1  0
 11 12  2  0
 12 13  1  0
  8 14  1  0
 14 15  1  0
 15 16  2  0
 16 17  1  0
 17 18  2  0
 18 19  1  0
 19 20  2  0
  2 21  1  0
 21 22  1  0
 22 23  2  0
 23 24  1  0
 24 25  2  0
 25 26  1  0
 26 27  2  0
 26 28  1  0
 28 29  1  0
 29 30  1  0
 30 31  1  0
 20  4  1  0
 27 22  1  0
 13  9  1  0
 20 15  1  0
 31 25  1  0
  3 32  1  0
  3 33  1  0
  7 34  1  0
  7 35  1  0
  8 36  1  0
 10 37  1  0
 11 38  1  0
 12 39  1  0
 16 40  1  0
 17 41  1  0
 18 42  1  0
 19 43  1  0
 21 44  1  0
 23 45  1  0
 24 46  1  0
 27 47  1  0
 29 48  1  0
 29 49  1  0
 30 50  1  0
 30 51  1  0
M  END
$$$$
