
     RDKit          3D

 41 44  0  0  0  0  0  0  0  0999 V2000
   -2.4028   -1.2842   -3.2186 O   0  0  0  0  0  0  0  0  0  0  0  0
   -1.7297   -1.0145   -1.9639 S   0  0  0  0  0  6  0  0  0  0  0  0
   -1.3558   -2.0957   -1.0790 O   0  0  0  0  0  0  0  0  0  0  0  0
   -0.3649   -0.1010   -2.3706 N   0  0  0  0  0  0  0  0  0  0  0  0
    0.6840    0.0058   -1.4040 C   0  0  0  0  0  0  0  0  0  0  0  0
    0.5817    1.0361   -0.4682 C   0  0  0  0  0  0  0  0  0  0  0  0
    1.5344    1.1729    0.5385 C   0  0  0  0  0  0  0  0  0  0  0  0
    1.3360    2.4991    1.7207 S   0  0  0  0  0  0  0  0  0  0  0  0
    0.7181    1.6406    3.1115 C   0  0  0  0  0  0  0  0  0  0  0  0
    0.9514    2.0652    4.3950 N   0  0  0  0  0  0  0  0  0  0  0  0
    0.3308    1.1690    5.1239 C   0  0  0  0  0  0  0  0  0  0  0  0
   -0.2670    0.2610    4.3112 N   0  0  0  0  0  0  0  0  0  0  0  0
   -0.0683    0.5592    3.0192 N   0  0  0  0  0  0  0  0  0  0  0  0
    2.6190    0.2840    0.5725 C   0  0  0  0  0  0  0  0  0  0  0  0
    3.5790    0.4857    1.5375 O   0  0  0  0  0  0  0  0  0  0  0  0
    2.7404   -0.7843   -0.3524 C   0  0  0  0  0  0  0  0  0  0  0  0
    3.7899   -1.7332   -0.2976 C   0  0  0  0  0  0  0  0  0  0  0  0
    3.8864   -2.7765   -1.2187 C   0  0  0  0  0  0  0  0  0  0  0  0
    2.9296   -2.9068   -2.2122 C   0  0  0  0  0  0  0  0  0  0  0  0
    1.8748   -1.9970   -2.2796 C   0  0  0  0  0  0  0  0  0  0  0  0
    1.7530   -0.9256   -1.3620 C   0  0  0  0  0  0  0  0  0  0  0  0
   -2.7242    0.1470   -1.0637 C   0  0  0  0  0  0  0  0  0  0  0  0
   -2.6665    0.1709    0.3331 C   0  0  0  0  0  0  0  0  0  0  0  0
   -3.4464    1.0882    1.0364 C   0  0  0  0  0  0  0  0  0  0  0  0
   -4.2932    1.9584    0.3479 C   0  0  0  0  0  0  0  0  0  0  0  0
   -4.3647    1.9151   -1.0458 C   0  0  0  0  0  0  0  0  0  0  0  0
   -3.5815    1.0063   -1.7575 C   0  0  0  0  0  0  0  0  0  0  0  0
   -0.1009   -0.2420   -3.3441 H   0  0  0  0  0  0  0  0  0  0  0  0
   -0.2478    1.7367   -0.5224 H   0  0  0  0  0  0  0  0  0  0  0  0
    0.2837    1.1288    6.2025 H   0  0  0  0  0  0  0  0  0  0  0  0
   -0.8143   -0.5566    4.5554 H   0  0  0  0  0  0  0  0  0  0  0  0
    4.4446    0.2846    1.1481 H   0  0  0  0  0  0  0  0  0  0  0  0
    4.5392   -1.6921    0.4892 H   0  0  0  0  0  0  0  0  0  0  0  0
    4.6995   -3.4943   -1.1469 H   0  0  0  0  0  0  0  0  0  0  0  0
    2.9883   -3.7255   -2.9249 H   0  0  0  0  0  0  0  0  0  0  0  0
    1.1282   -2.1524   -3.0549 H   0  0  0  0  0  0  0  0  0  0  0  0
   -2.0035   -0.5003    0.8761 H   0  0  0  0  0  0  0  0  0  0  0  0
   -3.3878    1.1283    2.1212 H   0  0  0  0  0  0  0  0  0  0  0  0
   -4.9000    2.6724    0.8998 H   0  0  0  0  0  0  0  0  0  0  0  0
   -5.0310    2.5912   -1.5762 H   0  0  0  0  0  0  0  0  0  0  0  0
   -3.6418    0.9755   -2.8429 H   0  0  0  0  0  0  0  0  0  0  0  0
  1  2  2  0
  2  3  2  0
  2  4  1  0
  4  5  1  0
  5  6  2  0
  6  7  1  0
  7  8  1  0
  8  9  1  0
  9 10  1  0
 10 11  2  0
 11 12  1  0
 12 13  1  0
  7 14  2  0
 14 15  1  0
 14 16  1  0
 16 17  2  0
 17 18  1  0
 18 19  2  0
 19 20  1  0
 20 21  2  0
  2 22  1  0
 22 23  2  0
 23 24  1  0
 24 25  2  0
 25 26  1  0
 26 27  2  0
 21  5  1  0
 27 22  1  0
 13  9  2  0
 21 16  1  0
  4 28  1  0
  6 29  1  0
 11 30  1  0
 12 31  1  0
 15 32  1  0
 17 33  1  0
 18 34  1  0
 19 35  1  0
 20 36  1  0
 23 37  1  0
 24 38  1  0
 25 39  1  0
 26 40  1  0
 27 41  1  0
M  END
$$$$
