
     RDKit          3D

 32 32  0  0  0  0  0  0  0  0999 V2000
   -2.7160   -0.3603   -4.8781 C   0  0  0  0  0  0  0  0  0  0  0  0
   -2.9620    0.3507   -3.9414 C   0  0  0  0  0  0  0  0  0  0  0  0
   -3.2715    1.2227   -2.7949 C   0  0  0  0  0  0  0  0  0  0  0  0
   -2.0959    1.6639   -2.0246 N   0  0  0  0  0  0  0  0  0  0  0  0
   -1.2166    2.5145   -2.8268 C   0  0  0  0  0  0  0  0  0  0  0  0
   -1.3897    0.5348   -1.4016 C   0  0  0  0  0  0  0  0  0  0  0  0
   -0.4014    0.9764   -0.3180 C   0  0  0  0  0  0  0  0  0  0  0  0
    0.2035   -0.2301    0.3973 C   0  0  0  0  0  0  0  0  0  0  0  0
    1.1287    0.2547    1.3700 O   0  0  0  0  0  0  0  0  0  0  0  0
    1.8005   -0.6621    2.1358 C   0  0  0  0  0  0  0  0  0  0  0  0
    1.6351   -2.0482    2.0407 C   0  0  0  0  0  0  0  0  0  0  0  0
    2.3696   -2.9004    2.8700 C   0  0  0  0  0  0  0  0  0  0  0  0
    2.1558   -4.6039    2.7416 Cl  0  0  0  0  0  0  0  0  0  0  0  0
    3.2725   -2.3899    3.7993 C   0  0  0  0  0  0  0  0  0  0  0  0
    3.4450   -1.0106    3.9025 C   0  0  0  0  0  0  0  0  0  0  0  0
    2.7135   -0.1519    3.0758 C   0  0  0  0  0  0  0  0  0  0  0  0
    2.9722    1.5494    3.2501 Cl  0  0  0  0  0  0  0  0  0  0  0  0
   -2.4974   -0.9891   -5.7101 H   0  0  0  0  0  0  0  0  0  0  0  0
   -3.8218    2.1045   -3.1466 H   0  0  0  0  0  0  0  0  0  0  0  0
   -3.9654    0.7038   -2.1216 H   0  0  0  0  0  0  0  0  0  0  0  0
   -0.4724    3.0131   -2.1979 H   0  0  0  0  0  0  0  0  0  0  0  0
   -0.6866    1.9562   -3.6063 H   0  0  0  0  0  0  0  0  0  0  0  0
   -1.7865    3.3184   -3.3070 H   0  0  0  0  0  0  0  0  0  0  0  0
   -0.8635   -0.0667   -2.1539 H   0  0  0  0  0  0  0  0  0  0  0  0
   -2.1264   -0.1247   -0.9243 H   0  0  0  0  0  0  0  0  0  0  0  0
    0.4128    1.5744   -0.7436 H   0  0  0  0  0  0  0  0  0  0  0  0
   -0.9004    1.6198    0.4179 H   0  0  0  0  0  0  0  0  0  0  0  0
   -0.5934   -0.8002    0.8897 H   0  0  0  0  0  0  0  0  0  0  0  0
    0.7240   -0.8631   -0.3314 H   0  0  0  0  0  0  0  0  0  0  0  0
    0.9431   -2.4914    1.3328 H   0  0  0  0  0  0  0  0  0  0  0  0
    3.8416   -3.0562    4.4424 H   0  0  0  0  0  0  0  0  0  0  0  0
    4.1490   -0.6084    4.6269 H   0  0  0  0  0  0  0  0  0  0  0  0
  1  2  3  0
  2  3  1  0
  3  4  1  0
  4  5  1  0
  4  6  1  0
  6  7  1  0
  7  8  1  0
  8  9  1  0
  9 10  1  0
 10 11  2  0
 11 12  1  0
 12 13  1  0
 12 14  2  0
 14 15  1  0
 15 16  2  0
 16 17  1  0
 16 10  1  0
  1 18  1  0
  3 19  1  0
  3 20  1  0
  5 21  1  0
  5 22  1  0
  5 23  1  0
  6 24  1  0
  6 25  1  0
  7 26  1  0
  7 27  1  0
  8 28  1  0
  8 29  1  0
 11 30  1  0
 14 31  1  0
 15 32  1  0
M  END
$$$$
