
     RDKit          3D

 55 58  0  0  0  0  0  0  0  0999 V2000
    7.8433    2.9437   -0.6732 C   0  0  0  0  0  0  0  0  0  0  0  0
    7.5458    1.5929   -0.3490 O   0  0  0  0  0  0  0  0  0  0  0  0
    6.2274    1.2107   -0.3549 C   0  0  0  0  0  0  0  0  0  0  0  0
    5.1591    2.0643   -0.6462 C   0  0  0  0  0  0  0  0  0  0  0  0
    3.8477    1.5845   -0.6221 C   0  0  0  0  0  0  0  0  0  0  0  0
    3.5908    0.2500   -0.2954 C   0  0  0  0  0  0  0  0  0  0  0  0
    2.1747   -0.2145   -0.2765 C   0  0  0  0  0  0  0  0  0  0  0  0
    1.8051   -1.2118    0.7789 C   0  0  0  0  0  0  0  0  0  0  0  0
    0.5242   -1.6302    0.7858 C   0  0  0  0  0  0  0  0  0  0  0  0
   -0.0206   -2.6022    1.7602 C   0  0  0  0  0  0  0  0  0  0  0  0
   -1.0277   -2.0895    2.5105 F   0  0  0  0  0  0  0  0  0  0  0  0
   -0.4767   -3.7366    1.1742 F   0  0  0  0  0  0  0  0  0  0  0  0
    0.9357   -3.0022    2.6466 F   0  0  0  0  0  0  0  0  0  0  0  0
   -0.3684   -1.1281   -0.1537 N   0  0  0  0  0  0  0  0  0  0  0  0
   -1.6805   -1.4249   -0.3090 N   0  0  0  0  0  0  0  0  0  0  0  0
   -2.1090   -0.6655   -1.3327 C   0  0  0  0  0  0  0  0  0  0  0  0
   -3.4815   -0.7100   -1.8797 C   0  0  0  0  0  0  0  0  0  0  0  0
   -3.6651   -0.4317   -3.0668 O   0  0  0  0  0  0  0  0  0  0  0  0
   -4.5487   -1.0861   -1.0522 N   0  0  0  0  0  0  0  0  0  0  0  0
   -5.8349   -1.3015   -1.6945 C   0  0  0  0  0  0  0  0  0  0  0  0
   -4.5685   -0.8934    0.4006 C   0  0  0  0  0  0  0  0  0  0  0  0
   -5.3624    0.3277    0.8164 C   0  0  0  0  0  0  0  0  0  0  0  0
   -6.5892    0.1883    1.4815 C   0  0  0  0  0  0  0  0  0  0  0  0
   -7.3214    1.3150    1.8600 C   0  0  0  0  0  0  0  0  0  0  0  0
   -6.8362    2.5905    1.5781 C   0  0  0  0  0  0  0  0  0  0  0  0
   -5.6183    2.7418    0.9182 C   0  0  0  0  0  0  0  0  0  0  0  0
   -4.8839    1.6171    0.5393 C   0  0  0  0  0  0  0  0  0  0  0  0
   -1.0456    0.1038   -1.8631 C   0  0  0  0  0  0  0  0  0  0  0  0
    0.0526   -0.1851   -1.0925 C   0  0  0  0  0  0  0  0  0  0  0  0
    1.3354    0.2763   -1.1438 N   0  0  0  0  0  0  0  0  0  0  0  0
    4.6563   -0.6175   -0.0232 C   0  0  0  0  0  0  0  0  0  0  0  0
    5.9740   -0.1432   -0.0486 C   0  0  0  0  0  0  0  0  0  0  0  0
    7.0795   -0.9153    0.2129 O   0  0  0  0  0  0  0  0  0  0  0  0
    6.8889   -2.3083    0.4125 C   0  0  0  0  0  0  0  0  0  0  0  0
    7.3975    3.6317    0.0526 H   0  0  0  0  0  0  0  0  0  0  0  0
    7.5276    3.1837   -1.6937 H   0  0  0  0  0  0  0  0  0  0  0  0
    8.9294    3.0679   -0.6240 H   0  0  0  0  0  0  0  0  0  0  0  0
    5.3113    3.1084   -0.8987 H   0  0  0  0  0  0  0  0  0  0  0  0
    3.0278    2.2611   -0.8565 H   0  0  0  0  0  0  0  0  0  0  0  0
    2.5347   -1.5428    1.5071 H   0  0  0  0  0  0  0  0  0  0  0  0
   -6.3627   -0.3471   -1.7805 H   0  0  0  0  0  0  0  0  0  0  0  0
   -6.4267   -2.0064   -1.1035 H   0  0  0  0  0  0  0  0  0  0  0  0
   -5.7016   -1.7184   -2.6974 H   0  0  0  0  0  0  0  0  0  0  0  0
   -4.9976   -1.8011    0.8418 H   0  0  0  0  0  0  0  0  0  0  0  0
   -3.5759   -0.7814    0.8338 H   0  0  0  0  0  0  0  0  0  0  0  0
   -6.9841   -0.7995    1.7081 H   0  0  0  0  0  0  0  0  0  0  0  0
   -8.2717    1.1975    2.3743 H   0  0  0  0  0  0  0  0  0  0  0  0
   -7.4077    3.4670    1.8717 H   0  0  0  0  0  0  0  0  0  0  0  0
   -5.2403    3.7365    0.6963 H   0  0  0  0  0  0  0  0  0  0  0  0
   -3.9361    1.7526    0.0238 H   0  0  0  0  0  0  0  0  0  0  0  0
   -1.0822    0.7812   -2.7046 H   0  0  0  0  0  0  0  0  0  0  0  0
    4.4526   -1.6610    0.1834 H   0  0  0  0  0  0  0  0  0  0  0  0
    6.3002   -2.4990    1.3157 H   0  0  0  0  0  0  0  0  0  0  0  0
    6.4302   -2.7754   -0.4651 H   0  0  0  0  0  0  0  0  0  0  0  0
    7.8733   -2.7640    0.5553 H   0  0  0  0  0  0  0  0  0  0  0  0
  1  2  1  0
  2  3  1  0
  3  4  2  0
  4  5  1  0
  5  6  2  0
  6  7  1  0
  7  8  1  0
  8  9  2  0
  9 10  1  0
 10 11  1  0
 10 12  1  0
 10 13  1  0
  9 14  1  0
 14 15  1  0
 15 16  2  0
 16 17  1  0
 17 18  2  0
 17 19  1  0
 19 20  1  0
 19 21  1  0
 21 22  1  0
 22 23  2  0
 23 24  1  0
 24 25  2  0
 25 26  1  0
 26 27  2  0
 16 28  1  0
 28 29  2  0
 29 30  1  0
  6 31  1  0
 31 32  2  0
 32 33  1  0
 33 34  1  0
 32  3  1  0
 30  7  2  0
 29 14  1  0
 27 22  1  0
  1 35  1  0
  1 36  1  0
  1 37  1  0
  4 38  1  0
  5 39  1  0
  8 40  1  0
 20 41  1  0
 20 42  1  0
 20 43  1  0
 21 44  1  0
 21 45  1  0
 23 46  1  0
 24 47  1  0
 25 48  1  0
 26 49  1  0
 27 50  1  0
 28 51  1  0
 31 52  1  0
 34 53  1  0
 34 54  1  0
 34 55  1  0
M  END
$$$$
