
     RDKit          3D

 37 39  0  0  0  0  0  0  0  0999 V2000
    4.5152    1.3225   -2.0410 C   0  0  0  0  0  0  0  0  0  0  0  0
    5.6034    0.8120   -1.1063 C   0  0  0  0  0  0  0  0  0  0  0  0
    5.2382   -0.5050   -0.4184 C   0  0  0  0  0  0  0  0  0  0  0  0
    4.1384   -0.3460    0.5806 C   0  0  0  0  0  0  0  0  0  0  0  0
    4.2327    0.3437    1.6991 N   0  0  0  0  0  0  0  0  0  0  0  0
    3.0589    0.3122    2.4245 N   0  0  0  0  0  0  0  0  0  0  0  0
    2.1287   -0.4039    1.8330 C   0  0  0  0  0  0  0  0  0  0  0  0
    0.8818   -0.5629    2.3841 N   0  0  0  0  0  0  0  0  0  0  0  0
   -0.1669   -1.2969    1.8650 C   0  0  0  0  0  0  0  0  0  0  0  0
   -0.1552   -1.9482    0.8268 O   0  0  0  0  0  0  0  0  0  0  0  0
   -1.4111   -1.2151    2.7672 C   0  0  0  0  0  0  0  0  0  0  0  0
   -2.6011   -1.7826    2.2489 O   0  0  0  0  0  0  0  0  0  0  0  0
   -3.3246   -1.0531    1.3450 C   0  0  0  0  0  0  0  0  0  0  0  0
   -4.5415   -1.6550    0.9624 C   0  0  0  0  0  0  0  0  0  0  0  0
   -5.4007   -1.0382    0.0476 C   0  0  0  0  0  0  0  0  0  0  0  0
   -5.0122    0.1769   -0.4671 C   0  0  0  0  0  0  0  0  0  0  0  0
   -3.8255    0.7668   -0.1016 C   0  0  0  0  0  0  0  0  0  0  0  0
   -2.9583    0.1799    0.7993 C   0  0  0  0  0  0  0  0  0  0  0  0
   -3.6283    1.9614   -0.7237 O   0  0  0  0  0  0  0  0  0  0  0  0
   -4.8197    2.0450   -1.5339 C   0  0  0  0  0  0  0  0  0  0  0  0
   -5.7100    0.9231   -1.3634 O   0  0  0  0  0  0  0  0  0  0  0  0
    2.6076   -1.0902    0.3514 S   0  0  0  0  0  0  0  0  0  0  0  0
    3.6055    1.5841   -1.4922 H   0  0  0  0  0  0  0  0  0  0  0  0
    4.2607    0.5710   -2.7951 H   0  0  0  0  0  0  0  0  0  0  0  0
    4.8594    2.2215   -2.5622 H   0  0  0  0  0  0  0  0  0  0  0  0
    5.8318    1.5838   -0.3614 H   0  0  0  0  0  0  0  0  0  0  0  0
    6.5169    0.6562   -1.6928 H   0  0  0  0  0  0  0  0  0  0  0  0
    6.1226   -0.8795    0.1120 H   0  0  0  0  0  0  0  0  0  0  0  0
    4.9871   -1.2610   -1.1722 H   0  0  0  0  0  0  0  0  0  0  0  0
    0.7776   -0.0801    3.2662 H   0  0  0  0  0  0  0  0  0  0  0  0
   -1.5785   -0.1833    3.1009 H   0  0  0  0  0  0  0  0  0  0  0  0
   -1.1674   -1.7901    3.6692 H   0  0  0  0  0  0  0  0  0  0  0  0
   -4.8151   -2.6197    1.3850 H   0  0  0  0  0  0  0  0  0  0  0  0
   -6.3350   -1.5011   -0.2476 H   0  0  0  0  0  0  0  0  0  0  0  0
   -2.0336    0.6876    1.0351 H   0  0  0  0  0  0  0  0  0  0  0  0
   -4.5237    2.1016   -2.5879 H   0  0  0  0  0  0  0  0  0  0  0  0
   -5.3581    2.9626   -1.2703 H   0  0  0  0  0  0  0  0  0  0  0  0
  1  2  1  0
  2  3  1  0
  3  4  1  0
  4  5  2  0
  5  6  1  0
  6  7  2  0
  7  8  1  0
  8  9  1  0
  9 10  2  0
  9 11  1  0
 11 12  1  0
 12 13  1  0
 13 14  2  0
 14 15  1  0
 15 16  2  0
 16 17  1  0
 17 18  2  0
 17 19  1  0
 19 20  1  0
 20 21  1  0
  7 22  1  0
 22  4  1  0
 18 13  1  0
 21 16  1  0
  1 23  1  0
  1 24  1  0
  1 25  1  0
  2 26  1  0
  2 27  1  0
  3 28  1  0
  3 29  1  0
  8 30  1  0
 11 31  1  0
 11 32  1  0
 14 33  1  0
 15 34  1  0
 18 35  1  0
 20 36  1  0
 20 37  1  0
M  END
$$$$
