
     RDKit          3D

 53 58  0  0  0  0  0  0  0  0999 V2000
   -0.4481    1.9533   -0.3973 O   0  0  0  0  0  0  0  0  0  0  0  0
   -1.0256    1.0008   -0.9322 C   0  0  0  0  0  0  0  0  0  0  0  0
   -0.1521   -0.1488   -1.4841 C   0  0  0  0  0  0  0  0  0  0  0  0
    0.9884   -0.3855   -0.5752 N   0  0  0  0  0  4  0  0  0  0  0  0
    2.3402   -0.1700   -0.8392 C   0  0  0  0  0  0  0  0  0  0  0  0
    3.0668   -0.3932    0.3276 C   0  0  0  0  0  0  0  0  0  0  0  0
    4.6196   -0.2160    0.5117 C   0  0  0  0  0  0  0  0  0  0  0  0
    5.2137   -0.3926    1.7625 C   0  0  0  0  0  0  0  0  0  0  0  0
    6.5941   -0.2151    1.9172 C   0  0  0  0  0  0  0  0  0  0  0  0
    7.3922    0.1394    0.8257 C   0  0  0  0  0  0  0  0  0  0  0  0
    9.0843    0.3469    1.0933 Cl  0  0  0  0  0  0  0  0  0  0  0  0
    6.8015    0.3155   -0.4280 C   0  0  0  0  0  0  0  0  0  0  0  0
    7.7140    0.7511   -1.8285 Cl  0  0  0  0  0  0  0  0  0  0  0  0
    5.4183    0.1391   -0.5836 C   0  0  0  0  0  0  0  0  0  0  0  0
    2.0980   -0.7751    1.2396 N   0  0  0  0  0  0  0  0  0  0  0  0
    0.8806   -0.7172    0.7073 C   0  0  0  0  0  0  0  0  0  0  0  0
   -0.1994   -1.0449    1.6684 C   0  0  0  0  0  0  0  0  0  0  0  0
    0.5938   -1.6696    2.8325 C   0  0  0  0  0  0  0  0  0  0  0  0
    2.0491   -1.1553    2.6456 C   0  0  0  0  0  0  0  0  0  0  0  0
   -2.4119    0.7704   -0.9107 N   0  0  0  0  0  0  0  0  0  0  0  0
   -3.2524    1.3813    0.0917 C   0  0  0  0  0  0  0  0  0  0  0  0
   -2.9843    2.6756    0.5731 C   0  0  0  0  0  0  0  0  0  0  0  0
   -3.7836    3.2704    1.5566 C   0  0  0  0  0  0  0  0  0  0  0  0
   -4.8635    2.5791    2.0871 C   0  0  0  0  0  0  0  0  0  0  0  0
   -5.1516    1.2969    1.6284 C   0  0  0  0  0  0  0  0  0  0  0  0
   -4.3612    0.7004    0.6345 C   0  0  0  0  0  0  0  0  0  0  0  0
   -4.7577   -0.9700    0.1643 S   0  0  0  0  0  0  0  0  0  0  0  0
   -4.1383   -0.9246   -1.4962 C   0  0  0  0  0  0  0  0  0  0  0  0
   -4.7262   -1.7707   -2.4464 C   0  0  0  0  0  0  0  0  0  0  0  0
   -4.2822   -1.7689   -3.7671 C   0  0  0  0  0  0  0  0  0  0  0  0
   -3.2534   -0.9154   -4.1480 C   0  0  0  0  0  0  0  0  0  0  0  0
   -2.6517   -0.0826   -3.2016 C   0  0  0  0  0  0  0  0  0  0  0  0
   -3.0646   -0.0941   -1.8552 C   0  0  0  0  0  0  0  0  0  0  0  0
   -0.6910   -1.0984   -1.5394 H   0  0  0  0  0  0  0  0  0  0  0  0
    0.2271    0.1279   -2.4716 H   0  0  0  0  0  0  0  0  0  0  0  0
    2.6157    0.1483   -1.8311 H   0  0  0  0  0  0  0  0  0  0  0  0
    4.6392   -0.6511    2.6438 H   0  0  0  0  0  0  0  0  0  0  0  0
    7.0439   -0.3510    2.8990 H   0  0  0  0  0  0  0  0  0  0  0  0
    4.9935    0.2852   -1.5724 H   0  0  0  0  0  0  0  0  0  0  0  0
   -0.9014   -1.7344    1.1968 H   0  0  0  0  0  0  0  0  0  0  0  0
   -0.6710   -0.0998    1.9450 H   0  0  0  0  0  0  0  0  0  0  0  0
    0.1776   -1.4263    3.8149 H   0  0  0  0  0  0  0  0  0  0  0  0
    0.5883   -2.7613    2.7234 H   0  0  0  0  0  0  0  0  0  0  0  0
    2.2351   -0.2676    3.2583 H   0  0  0  0  0  0  0  0  0  0  0  0
    2.7750   -1.9436    2.8638 H   0  0  0  0  0  0  0  0  0  0  0  0
   -2.1798    3.2805    0.1645 H   0  0  0  0  0  0  0  0  0  0  0  0
   -3.5637    4.2806    1.8973 H   0  0  0  0  0  0  0  0  0  0  0  0
   -5.4883    3.0421    2.8475 H   0  0  0  0  0  0  0  0  0  0  0  0
   -6.0025    0.7665    2.0536 H   0  0  0  0  0  0  0  0  0  0  0  0
   -5.5472   -2.4298   -2.1672 H   0  0  0  0  0  0  0  0  0  0  0  0
   -4.7584   -2.4161   -4.5015 H   0  0  0  0  0  0  0  0  0  0  0  0
   -2.9391   -0.8810   -5.1889 H   0  0  0  0  0  0  0  0  0  0  0  0
   -1.8999    0.6186   -3.5562 H   0  0  0  0  0  0  0  0  0  0  0  0
  1  2  2  0
  2  3  1  0
  3  4  1  0
  4  5  1  0
  5  6  2  0
  6  7  1  0
  7  8  2  0
  8  9  1  0
  9 10  2  0
 10 11  1  0
 10 12  1  0
 12 13  1  0
 12 14  2  0
  6 15  1  0
 15 16  1  0
 16 17  1  0
 17 18  1  0
 18 19  1  0
  2 20  1  0
 20 21  1  0
 21 22  2  0
 22 23  1  0
 23 24  2  0
 24 25  1  0
 25 26  2  0
 26 27  1  0
 27 28  1  0
 28 29  2  0
 29 30  1  0
 30 31  2  0
 31 32  1  0
 32 33  2  0
 16  4  2  0
 33 20  1  0
 14  7  1  0
 19 15  1  0
 26 21  1  0
 33 28  1  0
  3 34  1  0
  3 35  1  0
  5 36  1  0
  8 37  1  0
  9 38  1  0
 14 39  1  0
 17 40  1  0
 17 41  1  0
 18 42  1  0
 18 43  1  0
 19 44  1  0
 19 45  1  0
 22 46  1  0
 23 47  1  0
 24 48  1  0
 25 49  1  0
 29 50  1  0
 30 51  1  0
 31 52  1  0
 32 53  1  0
M  CHG  1   4   1
M  END
$$$$
