
     RDKit          3D

 85 87  0  0  0  0  0  0  0  0999 V2000
   -3.4679    3.6561    3.1974 C   0  0  0  0  0  0  0  0  0  0  0  0
   -3.2302    3.1016    1.8263 C   0  0  0  0  0  0  0  0  0  0  0  0
   -3.8076    3.4826    0.8193 O   0  0  0  0  0  0  0  0  0  0  0  0
   -2.2984    2.1132    1.8849 O   0  0  0  0  0  0  0  0  0  0  0  0
   -1.9072    1.5120    0.6138 C   0  0  1  0  0  0  0  0  0  0  0  0
   -0.3433    1.3522    0.6964 C   0  0  2  0  0  0  0  0  0  0  0  0
    0.2389    1.5418   -0.6028 O   0  0  0  0  0  0  0  0  0  0  0  0
    0.4887    2.8259   -0.9731 C   0  0  0  0  0  0  0  0  0  0  0  0
    1.0943    2.8745   -2.3432 C   0  0  0  0  0  0  0  0  0  0  0  0
    0.2123    3.8180   -0.3132 O   0  0  0  0  0  0  0  0  0  0  0  0
    0.1829    0.0673    1.3615 C   0  0  0  0  0  0  0  0  0  0  0  0
   -0.1030    0.0215    2.8522 C   0  0  0  0  0  0  0  0  0  0  0  0
    0.8811   -0.9642    0.8280 C   0  0  0  0  0  0  0  0  0  0  0  0
    1.3949   -1.2036   -0.5897 C   0  0  1  0  0  0  0  0  0  0  0  0
    2.9192   -1.4726   -0.6414 C   0  0  1  0  0  0  0  0  0  0  0  0
    3.6577   -0.7322    0.3409 O   0  0  0  0  0  0  0  0  0  0  0  0
    3.7964    0.5937    0.1022 C   0  0  0  0  0  0  0  0  0  0  0  0
    3.4566    1.1841   -0.9101 O   0  0  0  0  0  0  0  0  0  0  0  0
    4.4478    1.2535    1.2626 C   0  0  0  0  0  0  0  0  0  0  0  0
    4.9962    2.5300    1.0802 C   0  0  0  0  0  0  0  0  0  0  0  0
    5.6092    3.1883    2.1484 C   0  0  0  0  0  0  0  0  0  0  0  0
    5.6701    2.5792    3.4026 C   0  0  0  0  0  0  0  0  0  0  0  0
    5.1146    1.3132    3.5943 C   0  0  0  0  0  0  0  0  0  0  0  0
    4.5046    0.6494    2.5275 C   0  0  0  0  0  0  0  0  0  0  0  0
    3.0361   -2.9678   -0.3410 C   0  0  2  0  0  0  0  0  0  0  0  0
    4.3572   -3.5609   -0.8133 C   0  0  0  0  0  0  0  0  0  0  0  0
    1.8168   -3.6066   -1.0159 C   0  0  0  0  0  0  0  0  0  0  0  0
    0.7972   -2.4696   -1.2854 C   0  0  1  0  0  0  0  0  0  0  0  0
   -0.4491   -2.8667   -0.7218 O   0  0  0  0  0  0  0  0  0  0  0  0
    0.7040   -2.1921   -2.8163 C   0  0  0  0  0  0  0  0  0  0  0  0
    1.7222   -2.1840   -3.5175 O   0  0  0  0  0  0  0  0  0  0  0  0
   -0.6272   -2.0102   -3.5076 C   0  0  0  0  0  0  0  0  0  0  0  0
   -0.7252   -2.8036   -4.7843 C   0  0  0  0  0  0  0  0  0  0  0  0
   -1.6262   -1.1820   -3.1378 C   0  0  0  0  0  0  0  0  0  0  0  0
   -1.6946   -0.2706   -1.9448 C   0  0  0  0  0  0  0  0  0  0  0  0
   -3.0190   -0.2123   -1.1397 C   0  0  0  0  0  0  0  0  0  0  0  0
   -3.7218   -1.5959   -1.1125 C   0  0  0  0  0  0  0  0  0  0  0  0
   -3.9828    0.7741   -1.8376 C   0  0  0  0  0  0  0  0  0  0  0  0
   -2.7522    0.2138    0.3633 C   0  0  2  0  0  0  0  0  0  0  0  0
   -4.0727    0.3927    0.9635 O   0  0  0  0  0  0  0  0  0  0  0  0
   -4.3391   -0.2454    2.1326 C   0  0  0  0  0  0  0  0  0  0  0  0
   -5.7416    0.0573    2.5617 C   0  0  0  0  0  0  0  0  0  0  0  0
   -3.5675   -0.9544    2.7599 O   0  0  0  0  0  0  0  0  0  0  0  0
   -2.5433    4.0909    3.5867 H   0  0  0  0  0  0  0  0  0  0  0  0
   -3.8291    2.8646    3.8589 H   0  0  0  0  0  0  0  0  0  0  0  0
   -4.2299    4.4390    3.1445 H   0  0  0  0  0  0  0  0  0  0  0  0
   -2.1229    2.2240   -0.1899 H   0  0  0  0  0  0  0  0  0  0  0  0
    0.0412    2.1569    1.3404 H   0  0  0  0  0  0  0  0  0  0  0  0
    1.9639    3.5364   -2.3290 H   0  0  0  0  0  0  0  0  0  0  0  0
    1.4278    1.8826   -2.6604 H   0  0  0  0  0  0  0  0  0  0  0  0
    0.3489    3.2405   -3.0520 H   0  0  0  0  0  0  0  0  0  0  0  0
    0.3364   -0.8567    3.3375 H   0  0  0  0  0  0  0  0  0  0  0  0
    0.3146    0.9070    3.3444 H   0  0  0  0  0  0  0  0  0  0  0  0
   -1.1774   -0.0064    3.0450 H   0  0  0  0  0  0  0  0  0  0  0  0
    1.1371   -1.7828    1.5037 H   0  0  0  0  0  0  0  0  0  0  0  0
    1.2245   -0.3258   -1.2096 H   0  0  0  0  0  0  0  0  0  0  0  0
    3.3228   -1.2591   -1.6400 H   0  0  0  0  0  0  0  0  0  0  0  0
    4.9487    3.0146    0.1071 H   0  0  0  0  0  0  0  0  0  0  0  0
    6.0390    4.1766    2.0016 H   0  0  0  0  0  0  0  0  0  0  0  0
    6.1459    3.0943    4.2337 H   0  0  0  0  0  0  0  0  0  0  0  0
    5.1560    0.8447    4.5763 H   0  0  0  0  0  0  0  0  0  0  0  0
    4.0662   -0.3322    2.6961 H   0  0  0  0  0  0  0  0  0  0  0  0
    2.9764   -3.1316    0.7434 H   0  0  0  0  0  0  0  0  0  0  0  0
    5.2025   -3.0707   -0.3185 H   0  0  0  0  0  0  0  0  0  0  0  0
    4.4855   -3.4426   -1.8952 H   0  0  0  0  0  0  0  0  0  0  0  0
    4.4027   -4.6305   -0.5838 H   0  0  0  0  0  0  0  0  0  0  0  0
    2.0994   -4.1232   -1.9410 H   0  0  0  0  0  0  0  0  0  0  0  0
    1.4010   -4.3759   -0.3525 H   0  0  0  0  0  0  0  0  0  0  0  0
   -0.7045   -3.7174   -1.1211 H   0  0  0  0  0  0  0  0  0  0  0  0
   -1.7086   -2.7058   -5.2557 H   0  0  0  0  0  0  0  0  0  0  0  0
    0.0234   -2.4699   -5.5104 H   0  0  0  0  0  0  0  0  0  0  0  0
   -0.5650   -3.8682   -4.5814 H   0  0  0  0  0  0  0  0  0  0  0  0
   -2.4914   -1.1140   -3.7973 H   0  0  0  0  0  0  0  0  0  0  0  0
   -1.4487    0.7367   -2.3007 H   0  0  0  0  0  0  0  0  0  0  0  0
   -0.9218   -0.5547   -1.2518 H   0  0  0  0  0  0  0  0  0  0  0  0
   -3.0780   -2.3591   -0.6636 H   0  0  0  0  0  0  0  0  0  0  0  0
   -4.6477   -1.5676   -0.5293 H   0  0  0  0  0  0  0  0  0  0  0  0
   -4.0017   -1.9339   -2.1157 H   0  0  0  0  0  0  0  0  0  0  0  0
   -4.9569    0.8159   -1.3380 H   0  0  0  0  0  0  0  0  0  0  0  0
   -3.5747    1.7898   -1.8582 H   0  0  0  0  0  0  0  0  0  0  0  0
   -4.1698    0.4761   -2.8758 H   0  0  0  0  0  0  0  0  0  0  0  0
   -2.2591   -0.6299    0.8554 H   0  0  0  0  0  0  0  0  0  0  0  0
   -5.9818   -0.5334    3.4510 H   0  0  0  0  0  0  0  0  0  0  0  0
   -6.4411   -0.2182    1.7678 H   0  0  0  0  0  0  0  0  0  0  0  0
   -5.8333    1.1180    2.8074 H   0  0  0  0  0  0  0  0  0  0  0  0
  1  2  1  0
  2  3  2  0
  2  4  1  0
  4  5  1  0
  5  6  1  0
  6  7  1  0
  7  8  1  0
  8  9  1  0
  8 10  2  0
  6 11  1  0
 11 12  1  0
 11 13  2  0
 13 14  1  0
 14 15  1  0
 15 16  1  0
 16 17  1  0
 17 18  2  0
 17 19  1  0
 19 20  2  0
 20 21  1  0
 21 22  2  0
 22 23  1  0
 23 24  2  0
 15 25  1  0
 25 26  1  0
 25 27  1  0
 27 28  1  0
 28 29  1  1
 28 30  1  0
 30 31  2  0
 30 32  1  0
 32 33  1  0
 32 34  2  3
 34 35  1  0
 35 36  1  0
 36 37  1  0
 36 38  1  0
 36 39  1  0
 39 40  1  0
 40 41  1  0
 41 42  1  0
 41 43  2  0
 39  5  1  0
 28 14  1  0
 24 19  1  0
  1 44  1  0
  1 45  1  0
  1 46  1  0
  5 47  1  6
  6 48  1  1
  9 49  1  0
  9 50  1  0
  9 51  1  0
 12 52  1  0
 12 53  1  0
 12 54  1  0
 13 55  1  0
 14 56  1  6
 15 57  1  6
 20 58  1  0
 21 59  1  0
 22 60  1  0
 23 61  1  0
 24 62  1  0
 25 63  1  1
 26 64  1  0
 26 65  1  0
 26 66  1  0
 27 67  1  0
 27 68  1  0
 29 69  1  0
 33 70  1  0
 33 71  1  0
 33 72  1  0
 34 73  1  0
 35 74  1  0
 35 75  1  0
 37 76  1  0
 37 77  1  0
 37 78  1  0
 38 79  1  0
 38 80  1  0
 38 81  1  0
 39 82  1  1
 42 83  1  0
 42 84  1  0
 42 85  1  0
M  END
$$$$
