
     RDKit          3D

 54 57  0  0  0  0  0  0  0  0999 V2000
   -1.7483    4.5121   -1.8300 C   0  0  0  0  0  0  0  0  0  0  0  0
   -2.6582    3.5547   -2.3711 O   0  0  0  0  0  0  0  0  0  0  0  0
   -2.9235    2.5545   -1.4703 C   0  0  0  0  0  0  0  0  0  0  0  0
   -1.9212    1.6620   -1.0834 C   0  0  0  0  0  0  0  0  0  0  0  0
   -2.1952    0.6171   -0.1835 C   0  0  0  0  0  0  0  0  0  0  0  0
   -1.1478   -0.3271    0.2542 C   0  0  0  0  0  0  0  0  0  0  0  0
    0.1669    0.0497    0.4615 C   0  0  0  0  0  0  0  0  0  0  0  0
    1.0786   -0.9216    0.8755 C   0  0  0  0  0  0  0  0  0  0  0  0
    2.4796   -0.4732    1.0403 C   0  0  0  0  0  0  0  0  0  0  0  0
    2.6991    0.4401    1.8234 O   0  0  0  0  0  0  0  0  0  0  0  0
    3.3779   -1.1253    0.2180 N   0  0  0  0  0  0  0  0  0  0  0  0
    4.7743   -0.9380    0.1618 C   0  0  0  0  0  0  0  0  0  0  0  0
    5.4784   -0.0739    1.0029 C   0  0  0  0  0  0  0  0  0  0  0  0
    6.8673    0.0461    0.8913 C   0  0  0  0  0  0  0  0  0  0  0  0
    7.5520   -0.6957   -0.0615 C   0  0  0  0  0  0  0  0  0  0  0  0
    8.9044   -0.5455   -0.1340 O   0  0  0  0  0  0  0  0  0  0  0  0
    6.8710   -1.5607   -0.9078 C   0  0  0  0  0  0  0  0  0  0  0  0
    5.4826   -1.6819   -0.7923 C   0  0  0  0  0  0  0  0  0  0  0  0
    0.6745   -2.2504    1.1228 C   0  0  0  0  0  0  0  0  0  0  0  0
    1.5160   -3.2834    1.6115 C   0  0  0  0  0  0  0  0  0  0  0  0
    1.0266   -4.5717    1.8163 C   0  0  0  0  0  0  0  0  0  0  0  0
   -0.3059   -4.8457    1.5459 C   0  0  0  0  0  0  0  0  0  0  0  0
   -1.1420   -3.8262    1.0850 C   0  0  0  0  0  0  0  0  0  0  0  0
   -0.6807   -2.5332    0.8769 C   0  0  0  0  0  0  0  0  0  0  0  0
   -1.5556   -1.6052    0.4525 N   0  0  0  0  0  0  0  0  0  0  0  0
   -3.5181    0.4869    0.2937 C   0  0  0  0  0  0  0  0  0  0  0  0
   -4.5356    1.3664   -0.0967 C   0  0  0  0  0  0  0  0  0  0  0  0
   -5.8359    1.3029    0.3334 O   0  0  0  0  0  0  0  0  0  0  0  0
   -6.1388    0.3689    1.3602 C   0  0  0  0  0  0  0  0  0  0  0  0
   -4.2303    2.3904   -1.0026 C   0  0  0  0  0  0  0  0  0  0  0  0
   -5.1960    3.2964   -1.3740 O   0  0  0  0  0  0  0  0  0  0  0  0
   -5.8798    2.8220   -2.5323 C   0  0  0  0  0  0  0  0  0  0  0  0
   -1.9914    4.7696   -0.7915 H   0  0  0  0  0  0  0  0  0  0  0  0
   -1.8250    5.4236   -2.4305 H   0  0  0  0  0  0  0  0  0  0  0  0
   -0.7188    4.1454   -1.9034 H   0  0  0  0  0  0  0  0  0  0  0  0
   -0.9293    1.7727   -1.5120 H   0  0  0  0  0  0  0  0  0  0  0  0
    0.4919    1.0763    0.3231 H   0  0  0  0  0  0  0  0  0  0  0  0
    2.9944   -1.7999   -0.4335 H   0  0  0  0  0  0  0  0  0  0  0  0
    4.9786    0.5216    1.7615 H   0  0  0  0  0  0  0  0  0  0  0  0
    7.4082    0.7211    1.5492 H   0  0  0  0  0  0  0  0  0  0  0  0
    9.2457   -1.1193   -0.8384 H   0  0  0  0  0  0  0  0  0  0  0  0
    7.3964   -2.1470   -1.6552 H   0  0  0  0  0  0  0  0  0  0  0  0
    4.9644   -2.3658   -1.4601 H   0  0  0  0  0  0  0  0  0  0  0  0
    2.5581   -3.0872    1.8580 H   0  0  0  0  0  0  0  0  0  0  0  0
    1.6815   -5.3532    2.1941 H   0  0  0  0  0  0  0  0  0  0  0  0
   -0.7043   -5.8449    1.7035 H   0  0  0  0  0  0  0  0  0  0  0  0
   -2.1894   -4.0468    0.8886 H   0  0  0  0  0  0  0  0  0  0  0  0
   -3.7269   -0.3272    0.9826 H   0  0  0  0  0  0  0  0  0  0  0  0
   -6.0209   -0.6595    1.0031 H   0  0  0  0  0  0  0  0  0  0  0  0
   -7.1889    0.5055    1.6372 H   0  0  0  0  0  0  0  0  0  0  0  0
   -5.5341    0.5503    2.2549 H   0  0  0  0  0  0  0  0  0  0  0  0
   -6.6450    3.5594   -2.7943 H   0  0  0  0  0  0  0  0  0  0  0  0
   -5.1986    2.7252   -3.3847 H   0  0  0  0  0  0  0  0  0  0  0  0
   -6.3827    1.8676   -2.3397 H   0  0  0  0  0  0  0  0  0  0  0  0
  1  2  1  0
  2  3  1  0
  3  4  2  0
  4  5  1  0
  5  6  1  0
  6  7  2  0
  7  8  1  0
  8  9  1  0
  9 10  2  0
  9 11  1  0
 11 12  1  0
 12 13  2  0
 13 14  1  0
 14 15  2  0
 15 16  1  0
 15 17  1  0
 17 18  2  0
  8 19  2  0
 19 20  1  0
 20 21  2  0
 21 22  1  0
 22 23  2  0
 23 24  1  0
 24 25  2  0
  5 26  2  0
 26 27  1  0
 27 28  1  0
 28 29  1  0
 27 30  2  0
 30 31  1  0
 31 32  1  0
 30  3  1  0
 25  6  1  0
 18 12  1  0
 24 19  1  0
  1 33  1  0
  1 34  1  0
  1 35  1  0
  4 36  1  0
  7 37  1  0
 11 38  1  0
 13 39  1  0
 14 40  1  0
 16 41  1  0
 17 42  1  0
 18 43  1  0
 20 44  1  0
 21 45  1  0
 22 46  1  0
 23 47  1  0
 26 48  1  0
 29 49  1  0
 29 50  1  0
 29 51  1  0
 32 52  1  0
 32 53  1  0
 32 54  1  0
M  END
$$$$
