
     RDKit          3D

 53 55  0  0  0  0  0  0  0  0999 V2000
    8.5062   -1.7414    2.3601 C   0  0  0  0  0  0  0  0  0  0  0  0
    8.3803   -0.6523    1.4548 O   0  0  0  0  0  0  0  0  0  0  0  0
    7.1444   -0.0765    1.3474 C   0  0  0  0  0  0  0  0  0  0  0  0
    7.1030    1.0618    0.5341 C   0  0  0  0  0  0  0  0  0  0  0  0
    5.9083    1.7578    0.3389 C   0  0  0  0  0  0  0  0  0  0  0  0
    4.7466    1.3007    0.9606 C   0  0  0  0  0  0  0  0  0  0  0  0
    3.2169    2.1709    0.7442 S   0  0  0  0  0  6  0  0  0  0  0  0
    3.4479    3.3045   -0.1248 O   0  0  0  0  0  0  0  0  0  0  0  0
    2.6228    2.3394    2.0523 O   0  0  0  0  0  0  0  0  0  0  0  0
    2.2796    1.0559   -0.1029 N   0  0  0  0  0  0  0  0  0  0  0  0
    2.7181    0.6647   -1.4505 C   0  0  0  0  0  0  0  0  0  0  0  0
    1.4338    0.1451   -2.0541 C   0  0  0  0  0  0  0  0  0  0  0  0
    0.4363    1.0376   -1.5563 O   0  0  0  0  0  0  0  0  0  0  0  0
    0.8586    1.4503   -0.2385 C   0  0  0  0  0  0  0  0  0  0  0  0
    0.0058    0.7508    0.8464 C   0  0  0  0  0  0  0  0  0  0  0  0
   -1.4098    1.0548    0.7448 N   0  0  0  0  0  0  0  0  0  0  0  0
   -2.2800    0.2633    0.0321 C   0  0  0  0  0  0  0  0  0  0  0  0
   -2.0373   -0.8314   -0.4557 O   0  0  0  0  0  0  0  0  0  0  0  0
   -3.6887    0.8818   -0.1147 C   0  0  0  0  0  0  0  0  0  0  0  0
   -3.8863    2.0394    0.2307 O   0  0  0  0  0  0  0  0  0  0  0  0
   -4.6141    0.0197   -0.6499 N   0  0  0  0  0  0  0  0  0  0  0  0
   -5.9490    0.4431   -0.9810 C   0  0  0  0  0  0  0  0  0  0  0  0
   -6.9186   -0.7071   -0.8862 C   0  0  0  0  0  0  0  0  0  0  0  0
   -7.1897   -1.4747   -2.0369 C   0  0  0  0  0  0  0  0  0  0  0  0
   -8.0680   -2.5602   -1.9843 C   0  0  0  0  0  0  0  0  0  0  0  0
   -8.6884   -2.8986   -0.7820 C   0  0  0  0  0  0  0  0  0  0  0  0
   -8.4216   -2.1578    0.3700 C   0  0  0  0  0  0  0  0  0  0  0  0
   -7.5376   -1.0729    0.3224 C   0  0  0  0  0  0  0  0  0  0  0  0
   -7.2377   -0.2251    1.7977 Cl  0  0  0  0  0  0  0  0  0  0  0  0
    4.7723    0.1645    1.7744 C   0  0  0  0  0  0  0  0  0  0  0  0
    5.9741   -0.5254    1.9641 C   0  0  0  0  0  0  0  0  0  0  0  0
    7.9202   -2.6012    2.0216 H   0  0  0  0  0  0  0  0  0  0  0  0
    9.5569   -2.0422    2.3781 H   0  0  0  0  0  0  0  0  0  0  0  0
    8.2259   -1.4526    3.3768 H   0  0  0  0  0  0  0  0  0  0  0  0
    8.0156    1.4139    0.0574 H   0  0  0  0  0  0  0  0  0  0  0  0
    5.8999    2.6482   -0.2844 H   0  0  0  0  0  0  0  0  0  0  0  0
    3.0700    1.5348   -2.0146 H   0  0  0  0  0  0  0  0  0  0  0  0
    3.4944   -0.1032   -1.4275 H   0  0  0  0  0  0  0  0  0  0  0  0
    1.1996   -0.8675   -1.7067 H   0  0  0  0  0  0  0  0  0  0  0  0
    1.4394    0.1558   -3.1475 H   0  0  0  0  0  0  0  0  0  0  0  0
    0.7195    2.5365   -0.1947 H   0  0  0  0  0  0  0  0  0  0  0  0
    0.1319   -0.3369    0.7723 H   0  0  0  0  0  0  0  0  0  0  0  0
    0.3235    1.0563    1.8488 H   0  0  0  0  0  0  0  0  0  0  0  0
   -1.7600    1.9691    1.0239 H   0  0  0  0  0  0  0  0  0  0  0  0
   -4.2604   -0.8721   -0.9848 H   0  0  0  0  0  0  0  0  0  0  0  0
   -5.9183    0.8302   -2.0094 H   0  0  0  0  0  0  0  0  0  0  0  0
   -6.2573    1.2886   -0.3540 H   0  0  0  0  0  0  0  0  0  0  0  0
   -6.7125   -1.2319   -2.9883 H   0  0  0  0  0  0  0  0  0  0  0  0
   -8.2674   -3.1437   -2.8818 H   0  0  0  0  0  0  0  0  0  0  0  0
   -9.3738   -3.7427   -0.7402 H   0  0  0  0  0  0  0  0  0  0  0  0
   -8.9044   -2.4322    1.3073 H   0  0  0  0  0  0  0  0  0  0  0  0
    3.8655   -0.1843    2.2642 H   0  0  0  0  0  0  0  0  0  0  0  0
    5.9635   -1.4056    2.5985 H   0  0  0  0  0  0  0  0  0  0  0  0
  1  2  1  0
  2  3  1  0
  3  4  2  0
  4  5  1  0
  5  6  2  0
  6  7  1  0
  7  8  2  0
  7  9  2  0
  7 10  1  0
 10 11  1  0
 11 12  1  0
 12 13  1  0
 13 14  1  0
 14 15  1  0
 15 16  1  0
 16 17  1  0
 17 18  2  0
 17 19  1  0
 19 20  2  0
 19 21  1  0
 21 22  1  0
 22 23  1  0
 23 24  2  0
 24 25  1  0
 25 26  2  0
 26 27  1  0
 27 28  2  0
 28 29  1  0
  6 30  1  0
 30 31  2  0
 31  3  1  0
 14 10  1  0
 28 23  1  0
  1 32  1  0
  1 33  1  0
  1 34  1  0
  4 35  1  0
  5 36  1  0
 11 37  1  0
 11 38  1  0
 12 39  1  0
 12 40  1  0
 14 41  1  0
 15 42  1  0
 15 43  1  0
 16 44  1  0
 21 45  1  0
 22 46  1  0
 22 47  1  0
 24 48  1  0
 25 49  1  0
 26 50  1  0
 27 51  1  0
 30 52  1  0
 31 53  1  0
M  END
$$$$
