
     RDKit          3D

 25 26  0  0  0  0  0  0  0  0999 V2000
   -0.9156   -1.1721   -1.8661 O   0  0  0  0  0  0  0  0  0  0  0  0
   -1.2624   -0.9091   -0.7202 C   0  0  0  0  0  0  0  0  0  0  0  0
   -0.5225   -1.1541    0.3960 O   0  0  0  0  0  0  0  0  0  0  0  0
    0.7723   -1.7168    0.1690 C   0  0  0  0  0  0  0  0  0  0  0  0
    1.7967   -0.6165    0.0724 C   0  0  0  0  0  0  0  0  0  0  0  0
    2.3250   -0.2411   -1.1701 C   0  0  0  0  0  0  0  0  0  0  0  0
    3.2622    0.7895   -1.2577 C   0  0  0  0  0  0  0  0  0  0  0  0
    3.6746    1.4582   -0.1064 C   0  0  0  0  0  0  0  0  0  0  0  0
    3.1468    1.1010    1.1330 C   0  0  0  0  0  0  0  0  0  0  0  0
    2.2094    0.0709    1.2226 C   0  0  0  0  0  0  0  0  0  0  0  0
   -2.5225   -0.3003   -0.3610 C   0  0  0  0  0  0  0  0  0  0  0  0
   -3.5704    0.1320   -1.1549 C   0  0  0  0  0  0  0  0  0  0  0  0
   -4.5594    0.6501   -0.2836 C   0  0  0  0  0  0  0  0  0  0  0  0
   -4.0610    0.5040    0.9899 C   0  0  0  0  0  0  0  0  0  0  0  0
   -4.9541    1.0260    2.5860 Br  0  0  0  0  0  0  0  0  0  0  0  0
   -2.8305   -0.0710    0.9551 O   0  0  0  0  0  0  0  0  0  0  0  0
    1.0082   -2.3569    1.0274 H   0  0  0  0  0  0  0  0  0  0  0  0
    0.7930   -2.3750   -0.7085 H   0  0  0  0  0  0  0  0  0  0  0  0
    2.0024   -0.7451   -2.0795 H   0  0  0  0  0  0  0  0  0  0  0  0
    3.6666    1.0737   -2.2257 H   0  0  0  0  0  0  0  0  0  0  0  0
    4.4026    2.2620   -0.1761 H   0  0  0  0  0  0  0  0  0  0  0  0
    3.4616    1.6280    2.0299 H   0  0  0  0  0  0  0  0  0  0  0  0
    1.7959   -0.1906    2.1944 H   0  0  0  0  0  0  0  0  0  0  0  0
   -3.6036    0.0760   -2.2351 H   0  0  0  0  0  0  0  0  0  0  0  0
   -5.5154    1.0769   -0.5527 H   0  0  0  0  0  0  0  0  0  0  0  0
  1  2  2  0
  2  3  1  0
  3  4  1  0
  4  5  1  0
  5  6  2  0
  6  7  1  0
  7  8  2  0
  8  9  1  0
  9 10  2  0
  2 11  1  0
 11 12  2  0
 12 13  1  0
 13 14  2  0
 14 15  1  0
 14 16  1  0
 10  5  1  0
 16 11  1  0
  4 17  1  0
  4 18  1  0
  6 19  1  0
  7 20  1  0
  8 21  1  0
  9 22  1  0
 10 23  1  0
 12 24  1  0
 13 25  1  0
M  END
$$$$
