
     RDKit          3D

 28 29  0  0  0  0  0  0  0  0999 V2000
    4.6470   -1.5820    1.2566 C   0  0  0  0  0  0  0  0  0  0  0  0
    4.1186   -0.1818    1.5057 C   0  0  0  0  0  0  0  0  0  0  0  0
    2.8159   -0.0333    0.9227 O   0  0  0  0  0  0  0  0  0  0  0  0
    2.7968    0.3406   -0.3891 C   0  0  0  0  0  0  0  0  0  0  0  0
    3.7859    0.5458   -1.0784 O   0  0  0  0  0  0  0  0  0  0  0  0
    1.4286    0.4515   -0.8337 C   0  0  0  0  0  0  0  0  0  0  0  0
    0.9514    0.8027   -2.0853 C   0  0  0  0  0  0  0  0  0  0  0  0
   -0.4648    0.7731   -2.0410 C   0  0  0  0  0  0  0  0  0  0  0  0
   -0.8326    0.4043   -0.7635 C   0  0  0  0  0  0  0  0  0  0  0  0
   -2.1219    0.2214   -0.1769 C   0  0  0  0  0  0  0  0  0  0  0  0
   -3.3715    0.3670   -0.7404 C   0  0  0  0  0  0  0  0  0  0  0  0
   -4.2821    0.0608    0.2944 C   0  0  0  0  0  0  0  0  0  0  0  0
   -5.7607    0.0556    0.2498 C   0  0  0  0  0  0  0  0  0  0  0  0
   -3.6410   -0.2536    1.4242 N   0  0  0  0  0  0  0  0  0  0  0  0
   -2.2950   -0.1532    1.1293 O   0  0  0  0  0  0  0  0  0  0  0  0
    0.3227    0.2137   -0.0466 N   0  0  0  0  0  0  0  0  0  0  0  0
    4.7684   -1.7718    0.1855 H   0  0  0  0  0  0  0  0  0  0  0  0
    3.9436   -2.3311    1.6350 H   0  0  0  0  0  0  0  0  0  0  0  0
    5.6133   -1.7250    1.7483 H   0  0  0  0  0  0  0  0  0  0  0  0
    4.0068   -0.0176    2.5825 H   0  0  0  0  0  0  0  0  0  0  0  0
    4.8122    0.5817    1.1352 H   0  0  0  0  0  0  0  0  0  0  0  0
    1.5696    1.0535   -2.9395 H   0  0  0  0  0  0  0  0  0  0  0  0
   -1.1356    0.9986   -2.8600 H   0  0  0  0  0  0  0  0  0  0  0  0
   -3.5943    0.6541   -1.7567 H   0  0  0  0  0  0  0  0  0  0  0  0
   -6.1496   -0.9401    0.4858 H   0  0  0  0  0  0  0  0  0  0  0  0
   -6.1703    0.7682    0.9730 H   0  0  0  0  0  0  0  0  0  0  0  0
   -6.1266    0.3345   -0.7435 H   0  0  0  0  0  0  0  0  0  0  0  0
    0.3651   -0.0636    0.9265 H   0  0  0  0  0  0  0  0  0  0  0  0
  1  2  1  0
  2  3  1  0
  3  4  1  0
  4  5  2  0
  4  6  1  0
  6  7  2  0
  7  8  1  0
  8  9  2  0
  9 10  1  0
 10 11  2  0
 11 12  1  0
 12 13  1  0
 12 14  2  0
 14 15  1  0
  9 16  1  0
 16  6  1  0
 15 10  1  0
  1 17  1  0
  1 18  1  0
  1 19  1  0
  2 20  1  0
  2 21  1  0
  7 22  1  0
  8 23  1  0
 11 24  1  0
 13 25  1  0
 13 26  1  0
 13 27  1  0
 16 28  1  0
M  END
$$$$
