
     RDKit          3D

 44 47  0  0  0  0  0  0  0  0999 V2000
   -5.0105    2.3127   -0.5830 C   0  0  0  0  0  0  0  0  0  0  0  0
   -4.6148    0.9882    0.0718 C   0  0  0  0  0  0  0  0  0  0  0  0
   -3.2563    1.0843    0.7507 C   0  0  0  0  0  0  0  0  0  0  0  0
   -2.0978    1.0362   -0.2210 C   0  0  0  0  0  0  0  0  0  0  0  0
   -1.5782    2.0821   -0.6190 O   0  0  0  0  0  0  0  0  0  0  0  0
   -1.6186   -0.2191   -0.5842 N   0  0  0  0  0  0  0  0  0  0  0  0
   -0.3414   -0.2446   -1.2934 C   0  0  0  0  0  0  0  0  0  0  0  0
    0.8611   -0.0493   -0.3531 C   0  0  0  0  0  0  0  0  0  0  0  0
    0.8121   -0.3473    0.8373 O   0  0  0  0  0  0  0  0  0  0  0  0
    1.9819    0.4165   -1.0298 N   0  0  0  0  0  0  0  0  0  0  0  0
    3.2697    0.6513   -0.5011 C   0  0  0  0  0  0  0  0  0  0  0  0
    4.2446    1.1449   -1.3994 C   0  0  0  0  0  0  0  0  0  0  0  0
    5.5549    1.4022   -0.9807 C   0  0  0  0  0  0  0  0  0  0  0  0
    5.8613    1.1593    0.3380 C   0  0  0  0  0  0  0  0  0  0  0  0
    4.9203    0.6840    1.2190 C   0  0  0  0  0  0  0  0  0  0  0  0
    3.6204    0.4194    0.8327 C   0  0  0  0  0  0  0  0  0  0  0  0
    5.4252    0.5147    2.4716 O   0  0  0  0  0  0  0  0  0  0  0  0
    6.7881    0.9432    2.2768 C   0  0  0  0  0  0  0  0  0  0  0  0
    7.0745    1.3467    0.9211 O   0  0  0  0  0  0  0  0  0  0  0  0
   -2.2988   -1.4502   -0.3233 C   0  0  0  0  0  0  0  0  0  0  0  0
   -1.5565   -2.5748    0.0771 C   0  0  0  0  0  0  0  0  0  0  0  0
   -2.1799   -3.7963    0.3444 C   0  0  0  0  0  0  0  0  0  0  0  0
   -3.5557   -3.9222    0.1980 C   0  0  0  0  0  0  0  0  0  0  0  0
   -4.3085   -2.8274   -0.2229 C   0  0  0  0  0  0  0  0  0  0  0  0
   -3.6964   -1.5899   -0.4808 C   0  0  0  0  0  0  0  0  0  0  0  0
   -4.7453   -0.3254   -1.1945 S   0  0  0  0  0  0  0  0  0  0  0  0
   -4.3245    2.5933   -1.3901 H   0  0  0  0  0  0  0  0  0  0  0  0
   -5.0010    3.1229    0.1549 H   0  0  0  0  0  0  0  0  0  0  0  0
   -6.0249    2.2677   -0.9957 H   0  0  0  0  0  0  0  0  0  0  0  0
   -5.3626    0.7634    0.8418 H   0  0  0  0  0  0  0  0  0  0  0  0
   -3.1776    2.0180    1.3226 H   0  0  0  0  0  0  0  0  0  0  0  0
   -3.1359    0.2945    1.5025 H   0  0  0  0  0  0  0  0  0  0  0  0
   -0.2160   -1.1899   -1.8343 H   0  0  0  0  0  0  0  0  0  0  0  0
   -0.3442    0.5560   -2.0433 H   0  0  0  0  0  0  0  0  0  0  0  0
    1.8573    0.6594   -2.0051 H   0  0  0  0  0  0  0  0  0  0  0  0
    3.9927    1.3318   -2.4408 H   0  0  0  0  0  0  0  0  0  0  0  0
    6.3043    1.7771   -1.6689 H   0  0  0  0  0  0  0  0  0  0  0  0
    2.9232    0.0448    1.5713 H   0  0  0  0  0  0  0  0  0  0  0  0
    6.9886    1.7892    2.9440 H   0  0  0  0  0  0  0  0  0  0  0  0
    7.4567    0.1171    2.5459 H   0  0  0  0  0  0  0  0  0  0  0  0
   -0.4829   -2.5113    0.2357 H   0  0  0  0  0  0  0  0  0  0  0  0
   -1.5863   -4.6465    0.6721 H   0  0  0  0  0  0  0  0  0  0  0  0
   -4.0422   -4.8739    0.3970 H   0  0  0  0  0  0  0  0  0  0  0  0
   -5.3799   -2.9527   -0.3670 H   0  0  0  0  0  0  0  0  0  0  0  0
  1  2  1  0
  2  3  1  0
  3  4  1  0
  4  5  2  0
  4  6  1  0
  6  7  1  0
  7  8  1  0
  8  9  2  0
  8 10  1  0
 10 11  1  0
 11 12  2  0
 12 13  1  0
 13 14  2  0
 14 15  1  0
 15 16  2  0
 15 17  1  0
 17 18  1  0
 18 19  1  0
  6 20  1  0
 20 21  2  0
 21 22  1  0
 22 23  2  0
 23 24  1  0
 24 25  2  0
 25 26  1  0
 26  2  1  0
 16 11  1  0
 25 20  1  0
 19 14  1  0
  1 27  1  0
  1 28  1  0
  1 29  1  0
  2 30  1  0
  3 31  1  0
  3 32  1  0
  7 33  1  0
  7 34  1  0
 10 35  1  0
 12 36  1  0
 13 37  1  0
 16 38  1  0
 18 39  1  0
 18 40  1  0
 21 41  1  0
 22 42  1  0
 23 43  1  0
 24 44  1  0
M  END
$$$$
