
     RDKit          3D

 37 38  0  0  0  0  0  0  0  0999 V2000
    0.7891   -1.2382   -0.6693 O   0  0  0  0  0  0  0  0  0  0  0  0
    0.8705   -0.0576   -0.3543 C   0  0  0  0  0  0  0  0  0  0  0  0
   -0.3120    0.7183    0.2077 C   0  0  0  0  0  0  0  0  0  0  0  0
   -1.5723   -0.1370    0.3242 C   0  0  0  0  0  0  0  0  0  0  0  0
   -2.7382    0.6740    0.8914 C   0  0  0  0  0  0  0  0  0  0  0  0
   -3.9915   -0.1549    1.0135 C   0  0  0  0  0  0  0  0  0  0  0  0
   -4.2543   -0.8777    2.1848 C   0  0  0  0  0  0  0  0  0  0  0  0
   -5.4074   -1.6570    2.2912 C   0  0  0  0  0  0  0  0  0  0  0  0
   -6.3050   -1.7249    1.2275 C   0  0  0  0  0  0  0  0  0  0  0  0
   -6.0493   -1.0159    0.0554 C   0  0  0  0  0  0  0  0  0  0  0  0
   -4.8968   -0.2360   -0.0530 C   0  0  0  0  0  0  0  0  0  0  0  0
    1.9994    0.7433   -0.4489 N   0  0  0  0  0  0  0  0  0  0  0  0
    3.2770    0.3753   -0.9211 C   0  0  0  0  0  0  0  0  0  0  0  0
    3.6022   -0.9041   -1.3813 C   0  0  0  0  0  0  0  0  0  0  0  0
    4.8934   -1.1979   -1.8361 C   0  0  0  0  0  0  0  0  0  0  0  0
    5.8793   -0.2142   -1.8370 C   0  0  0  0  0  0  0  0  0  0  0  0
    5.5599    1.0673   -1.3779 C   0  0  0  0  0  0  0  0  0  0  0  0
    6.5881    2.1145   -1.3728 N   0  0  0  0  0  4  0  0  0  0  0  0
    7.7188    1.8172   -1.7826 O   0  0  0  0  0  0  0  0  0  0  0  0
    6.2633    3.2367   -0.9577 O   0  0  0  0  0  1  0  0  0  0  0  0
    4.2665    1.3659   -0.9211 C   0  0  0  0  0  0  0  0  0  0  0  0
   -0.0313    1.1010    1.1962 H   0  0  0  0  0  0  0  0  0  0  0  0
   -0.5042    1.5735   -0.4511 H   0  0  0  0  0  0  0  0  0  0  0  0
   -1.3715   -1.0048    0.9658 H   0  0  0  0  0  0  0  0  0  0  0  0
   -1.8389   -0.5379   -0.6623 H   0  0  0  0  0  0  0  0  0  0  0  0
   -2.4733    1.0788    1.8765 H   0  0  0  0  0  0  0  0  0  0  0  0
   -2.9392    1.5441    0.2535 H   0  0  0  0  0  0  0  0  0  0  0  0
   -3.5603   -0.8404    3.0212 H   0  0  0  0  0  0  0  0  0  0  0  0
   -5.6034   -2.2142    3.2035 H   0  0  0  0  0  0  0  0  0  0  0  0
   -7.2014   -2.3336    1.3102 H   0  0  0  0  0  0  0  0  0  0  0  0
   -6.7461   -1.0728   -0.7767 H   0  0  0  0  0  0  0  0  0  0  0  0
   -4.7080    0.3060   -0.9767 H   0  0  0  0  0  0  0  0  0  0  0  0
    1.8950    1.7036   -0.1436 H   0  0  0  0  0  0  0  0  0  0  0  0
    2.8695   -1.7063   -1.4010 H   0  0  0  0  0  0  0  0  0  0  0  0
    5.1226   -2.2013   -2.1895 H   0  0  0  0  0  0  0  0  0  0  0  0
    6.8771   -0.4603   -2.1939 H   0  0  0  0  0  0  0  0  0  0  0  0
    4.0329    2.3675   -0.5670 H   0  0  0  0  0  0  0  0  0  0  0  0
  1  2  2  0
  2  3  1  0
  3  4  1  0
  4  5  1  0
  5  6  1  0
  6  7  2  0
  7  8  1  0
  8  9  2  0
  9 10  1  0
 10 11  2  0
  2 12  1  0
 12 13  1  0
 13 14  2  0
 14 15  1  0
 15 16  2  0
 16 17  1  0
 17 18  1  0
 18 19  2  0
 18 20  1  0
 17 21  2  0
 11  6  1  0
 21 13  1  0
  3 22  1  0
  3 23  1  0
  4 24  1  0
  4 25  1  0
  5 26  1  0
  5 27  1  0
  7 28  1  0
  8 29  1  0
  9 30  1  0
 10 31  1  0
 11 32  1  0
 12 33  1  0
 14 34  1  0
 15 35  1  0
 16 36  1  0
 21 37  1  0
M  CHG  2  18   1  20  -1
M  END
$$$$
