
     RDKit          3D

 53 55  0  0  0  0  0  0  0  0999 V2000
    9.2524    0.2448    1.7882 C   0  0  0  0  0  0  0  0  0  0  0  0
    8.5955    0.6802    0.6050 O   0  0  0  0  0  0  0  0  0  0  0  0
    7.3049    0.2636    0.4257 C   0  0  0  0  0  0  0  0  0  0  0  0
    6.5892   -0.5830    1.2722 C   0  0  0  0  0  0  0  0  0  0  0  0
    5.2672   -0.9301    0.9685 C   0  0  0  0  0  0  0  0  0  0  0  0
    4.6466   -0.4410   -0.1894 C   0  0  0  0  0  0  0  0  0  0  0  0
    3.2164   -0.7884   -0.4988 C   0  0  0  0  0  0  0  0  0  0  0  0
    2.3170    0.1453    0.1236 N   0  0  0  0  0  0  0  0  0  0  0  0
    0.9827    0.1811   -0.1990 C   0  0  0  0  0  0  0  0  0  0  0  0
    0.4384   -0.4569   -1.0881 O   0  0  0  0  0  0  0  0  0  0  0  0
    0.1586    1.1231    0.7034 C   0  0  0  0  0  0  0  0  0  0  0  0
    0.5783    1.4120    1.8155 O   0  0  0  0  0  0  0  0  0  0  0  0
   -1.0114    1.5600    0.1310 N   0  0  0  0  0  0  0  0  0  0  0  0
   -2.0467    2.2445    0.8918 C   0  0  0  0  0  0  0  0  0  0  0  0
   -3.1532    1.3003    1.4292 C   0  0  0  0  0  0  0  0  0  0  0  0
   -2.5682    0.4058    2.3998 O   0  0  0  0  0  0  0  0  0  0  0  0
   -2.9260   -0.9312    2.0385 C   0  0  0  0  0  0  0  0  0  0  0  0
   -3.2265   -0.8845    0.5574 C   0  0  0  0  0  0  0  0  0  0  0  0
   -3.8304    0.4417    0.4308 N   0  0  0  0  0  0  0  0  0  0  0  0
   -4.1312    1.0719   -1.0884 S   0  0  0  0  0  6  0  0  0  0  0  0
   -2.9062    0.9773   -1.8554 O   0  0  0  0  0  0  0  0  0  0  0  0
   -4.8017    2.3419   -0.9111 O   0  0  0  0  0  0  0  0  0  0  0  0
   -5.3060   -0.0741   -1.7594 C   0  0  0  0  0  0  0  0  0  0  0  0
   -4.9119   -0.9846   -2.7438 C   0  0  0  0  0  0  0  0  0  0  0  0
   -5.8504   -1.8726   -3.2691 C   0  0  0  0  0  0  0  0  0  0  0  0
   -7.1716   -1.8418   -2.8177 C   0  0  0  0  0  0  0  0  0  0  0  0
   -7.5620   -0.9215   -1.8426 C   0  0  0  0  0  0  0  0  0  0  0  0
   -6.6299   -0.0312   -1.3111 C   0  0  0  0  0  0  0  0  0  0  0  0
    5.3671    0.4156   -1.0298 C   0  0  0  0  0  0  0  0  0  0  0  0
    6.6866    0.7583   -0.7246 C   0  0  0  0  0  0  0  0  0  0  0  0
   10.2584    0.6751    1.7900 H   0  0  0  0  0  0  0  0  0  0  0  0
    8.7343    0.6052    2.6829 H   0  0  0  0  0  0  0  0  0  0  0  0
    9.3567   -0.8451    1.8032 H   0  0  0  0  0  0  0  0  0  0  0  0
    7.0272   -0.9890    2.1778 H   0  0  0  0  0  0  0  0  0  0  0  0
    4.7234   -1.5856    1.6462 H   0  0  0  0  0  0  0  0  0  0  0  0
    3.0404   -0.7980   -1.5815 H   0  0  0  0  0  0  0  0  0  0  0  0
    2.9749   -1.7937   -0.1316 H   0  0  0  0  0  0  0  0  0  0  0  0
    2.5900    0.6182    0.9813 H   0  0  0  0  0  0  0  0  0  0  0  0
   -1.2544    1.1841   -0.7890 H   0  0  0  0  0  0  0  0  0  0  0  0
   -2.4678    3.0118    0.2363 H   0  0  0  0  0  0  0  0  0  0  0  0
   -1.5711    2.7518    1.7387 H   0  0  0  0  0  0  0  0  0  0  0  0
   -3.9105    1.8925    1.9542 H   0  0  0  0  0  0  0  0  0  0  0  0
   -2.1130   -1.6190    2.2862 H   0  0  0  0  0  0  0  0  0  0  0  0
   -3.8142   -1.2097    2.6172 H   0  0  0  0  0  0  0  0  0  0  0  0
   -2.3029   -0.9535   -0.0252 H   0  0  0  0  0  0  0  0  0  0  0  0
   -3.9051   -1.6893    0.2660 H   0  0  0  0  0  0  0  0  0  0  0  0
   -3.8870   -1.0072   -3.1075 H   0  0  0  0  0  0  0  0  0  0  0  0
   -5.5555   -2.5846   -4.0363 H   0  0  0  0  0  0  0  0  0  0  0  0
   -7.9019   -2.5321   -3.2339 H   0  0  0  0  0  0  0  0  0  0  0  0
   -8.5947   -0.8959   -1.5025 H   0  0  0  0  0  0  0  0  0  0  0  0
   -6.9369    0.6908   -0.5574 H   0  0  0  0  0  0  0  0  0  0  0  0
    4.9057    0.8248   -1.9262 H   0  0  0  0  0  0  0  0  0  0  0  0
    7.2366    1.4222   -1.3872 H   0  0  0  0  0  0  0  0  0  0  0  0
  1  2  1  0
  2  3  1  0
  3  4  2  0
  4  5  1  0
  5  6  2  0
  6  7  1  0
  7  8  1  0
  8  9  1  0
  9 10  2  0
  9 11  1  0
 11 12  2  0
 11 13  1  0
 13 14  1  0
 14 15  1  0
 15 16  1  0
 16 17  1  0
 17 18  1  0
 18 19  1  0
 19 20  1  0
 20 21  2  0
 20 22  2  0
 20 23  1  0
 23 24  2  0
 24 25  1  0
 25 26  2  0
 26 27  1  0
 27 28  2  0
  6 29  1  0
 29 30  2  0
 30  3  1  0
 19 15  1  0
 28 23  1  0
  1 31  1  0
  1 32  1  0
  1 33  1  0
  4 34  1  0
  5 35  1  0
  7 36  1  0
  7 37  1  0
  8 38  1  0
 13 39  1  0
 14 40  1  0
 14 41  1  0
 15 42  1  0
 17 43  1  0
 17 44  1  0
 18 45  1  0
 18 46  1  0
 24 47  1  0
 25 48  1  0
 26 49  1  0
 27 50  1  0
 28 51  1  0
 29 52  1  0
 30 53  1  0
M  END
$$$$
