
     RDKit          3D

 36 37  0  0  0  0  0  0  0  0999 V2000
   -0.5265   -2.3008    0.9557 O   0  0  0  0  0  0  0  0  0  0  0  0
   -0.3563   -1.1374    1.3084 C   0  0  0  0  0  0  0  0  0  0  0  0
    0.6310   -0.7530    2.4125 C   0  0  0  0  0  0  0  0  0  0  0  0
    1.9074   -0.3512    1.9114 O   0  0  0  0  0  0  0  0  0  0  0  0
    1.9626    0.9041    1.4095 C   0  0  0  0  0  0  0  0  0  0  0  0
    1.0263    1.6861    1.3467 O   0  0  0  0  0  0  0  0  0  0  0  0
    3.3320    1.2218    0.9264 C   0  0  0  0  0  0  0  0  0  0  0  0
    3.5697    2.5059    0.4180 C   0  0  0  0  0  0  0  0  0  0  0  0
    4.8395    2.8443   -0.0476 C   0  0  0  0  0  0  0  0  0  0  0  0
    5.1252    4.4220   -0.6706 Cl  0  0  0  0  0  0  0  0  0  0  0  0
    5.8787    1.9185   -0.0141 C   0  0  0  0  0  0  0  0  0  0  0  0
    5.6387    0.6429    0.4906 C   0  0  0  0  0  0  0  0  0  0  0  0
    6.9175   -0.5078    0.5345 Cl  0  0  0  0  0  0  0  0  0  0  0  0
    4.3746    0.2864    0.9607 C   0  0  0  0  0  0  0  0  0  0  0  0
   -1.0317   -0.0710    0.7552 N   0  0  0  0  0  0  0  0  0  0  0  0
   -1.9176   -0.2324   -0.3833 C   0  0  0  0  0  0  0  0  0  0  0  0
   -3.2436   -0.9153   -0.0289 C   0  0  0  0  0  0  0  0  0  0  0  0
   -4.1839   -0.8863   -1.1365 N   0  0  0  0  0  0  0  0  0  0  0  0
   -4.2344   -1.8461   -2.1163 C   0  0  0  0  0  0  0  0  0  0  0  0
   -3.3896   -2.9101   -2.0398 O   0  0  0  0  0  0  0  0  0  0  0  0
   -5.1366   -1.6141   -3.0765 C   0  0  0  0  0  0  0  0  0  0  0  0
   -5.9839   -0.1227   -2.7962 S   0  0  0  0  0  0  0  0  0  0  0  0
   -5.0426    0.1843   -1.3229 C   0  0  0  0  0  0  0  0  0  0  0  0
   -5.1601    1.1884   -0.6408 O   0  0  0  0  0  0  0  0  0  0  0  0
    0.7866   -1.6337    3.0452 H   0  0  0  0  0  0  0  0  0  0  0  0
    0.1991    0.0210    3.0589 H   0  0  0  0  0  0  0  0  0  0  0  0
    2.7670    3.2407    0.3853 H   0  0  0  0  0  0  0  0  0  0  0  0
    6.8665    2.1882   -0.3787 H   0  0  0  0  0  0  0  0  0  0  0  0
    4.2129   -0.7174    1.3469 H   0  0  0  0  0  0  0  0  0  0  0  0
   -0.6486    0.8593    0.9312 H   0  0  0  0  0  0  0  0  0  0  0  0
   -2.1028    0.7715   -0.7815 H   0  0  0  0  0  0  0  0  0  0  0  0
   -1.3888   -0.8016   -1.1565 H   0  0  0  0  0  0  0  0  0  0  0  0
   -3.0892   -1.9505    0.2951 H   0  0  0  0  0  0  0  0  0  0  0  0
   -3.6995   -0.3900    0.8201 H   0  0  0  0  0  0  0  0  0  0  0  0
   -3.5653   -3.5042   -2.7884 H   0  0  0  0  0  0  0  0  0  0  0  0
   -5.3342   -2.2400   -3.9338 H   0  0  0  0  0  0  0  0  0  0  0  0
  1  2  2  0
  2  3  1  0
  3  4  1  0
  4  5  1  0
  5  6  2  0
  5  7  1  0
  7  8  2  0
  8  9  1  0
  9 10  1  0
  9 11  2  0
 11 12  1  0
 12 13  1  0
 12 14  2  0
  2 15  1  0
 15 16  1  0
 16 17  1  0
 17 18  1  0
 18 19  1  0
 19 20  1  0
 19 21  2  0
 21 22  1  0
 22 23  1  0
 23 24  2  0
 14  7  1  0
 23 18  1  0
  3 25  1  0
  3 26  1  0
  8 27  1  0
 11 28  1  0
 14 29  1  0
 15 30  1  0
 16 31  1  0
 16 32  1  0
 17 33  1  0
 17 34  1  0
 20 35  1  0
 21 36  1  0
M  END
$$$$
