
     RDKit          3D

 41 44  0  0  0  0  0  0  0  0999 V2000
   -2.6319   -0.0632   -3.6028 O   0  0  0  0  0  0  0  0  0  0  0  0
   -1.9079    0.5296   -2.4970 S   0  0  0  0  0  6  0  0  0  0  0  0
   -1.1328    1.7368   -2.6782 O   0  0  0  0  0  0  0  0  0  0  0  0
   -0.9177   -0.6976   -1.8868 N   0  0  0  0  0  0  0  0  0  0  0  0
    0.1422   -0.3334   -0.9989 C   0  0  0  0  0  0  0  0  0  0  0  0
   -0.1617   -0.2696    0.3638 C   0  0  0  0  0  0  0  0  0  0  0  0
    0.8131    0.0907    1.2948 C   0  0  0  0  0  0  0  0  0  0  0  0
    0.3114    0.2198    3.0062 S   0  0  0  0  0  0  0  0  0  0  0  0
    1.2151   -1.0729    3.7401 C   0  0  0  0  0  0  0  0  0  0  0  0
    0.6453   -2.2067    4.2440 N   0  0  0  0  0  0  0  0  0  0  0  0
    1.6769   -2.8784    4.6982 C   0  0  0  0  0  0  0  0  0  0  0  0
    2.8147   -2.1687    4.4772 N   0  0  0  0  0  0  0  0  0  0  0  0
    2.5468   -1.0008    3.8657 N   0  0  0  0  0  0  0  0  0  0  0  0
    2.1052    0.3892    0.8357 C   0  0  0  0  0  0  0  0  0  0  0  0
    3.1031    0.7397    1.7179 O   0  0  0  0  0  0  0  0  0  0  0  0
    2.4336    0.3464   -0.5397 C   0  0  0  0  0  0  0  0  0  0  0  0
    3.7298    0.6556   -1.0061 C   0  0  0  0  0  0  0  0  0  0  0  0
    4.0485    0.6159   -2.3628 C   0  0  0  0  0  0  0  0  0  0  0  0
    3.0748    0.2680   -3.2867 C   0  0  0  0  0  0  0  0  0  0  0  0
    1.7859   -0.0440   -2.8516 C   0  0  0  0  0  0  0  0  0  0  0  0
    1.4370   -0.0170   -1.4795 C   0  0  0  0  0  0  0  0  0  0  0  0
   -3.0676    0.7834   -1.1788 C   0  0  0  0  0  0  0  0  0  0  0  0
   -4.1159   -0.1249   -1.0026 C   0  0  0  0  0  0  0  0  0  0  0  0
   -5.0280    0.0748    0.0333 C   0  0  0  0  0  0  0  0  0  0  0  0
   -4.8948    1.1781    0.8787 C   0  0  0  0  0  0  0  0  0  0  0  0
   -3.8543    2.0895    0.6892 C   0  0  0  0  0  0  0  0  0  0  0  0
   -2.9389    1.8986   -0.3454 C   0  0  0  0  0  0  0  0  0  0  0  0
   -0.7182   -1.4004   -2.5970 H   0  0  0  0  0  0  0  0  0  0  0  0
   -1.1664   -0.5146    0.7014 H   0  0  0  0  0  0  0  0  0  0  0  0
    1.6612   -3.8460    5.1795 H   0  0  0  0  0  0  0  0  0  0  0  0
    3.7738   -2.4064    4.7077 H   0  0  0  0  0  0  0  0  0  0  0  0
    2.8711    0.3769    2.5994 H   0  0  0  0  0  0  0  0  0  0  0  0
    4.5065    0.9411   -0.2981 H   0  0  0  0  0  0  0  0  0  0  0  0
    5.0531    0.8666   -2.6924 H   0  0  0  0  0  0  0  0  0  0  0  0
    3.3106    0.2486   -4.3476 H   0  0  0  0  0  0  0  0  0  0  0  0
    1.0455   -0.2910   -3.6086 H   0  0  0  0  0  0  0  0  0  0  0  0
   -4.2252   -0.9820   -1.6629 H   0  0  0  0  0  0  0  0  0  0  0  0
   -5.8455   -0.6267    0.1815 H   0  0  0  0  0  0  0  0  0  0  0  0
   -5.6078    1.3314    1.6856 H   0  0  0  0  0  0  0  0  0  0  0  0
   -3.7587    2.9501    1.3472 H   0  0  0  0  0  0  0  0  0  0  0  0
   -2.1313    2.6133   -0.4899 H   0  0  0  0  0  0  0  0  0  0  0  0
  1  2  2  0
  2  3  2  0
  2  4  1  0
  4  5  1  0
  5  6  2  0
  6  7  1  0
  7  8  1  0
  8  9  1  0
  9 10  1  0
 10 11  2  0
 11 12  1  0
 12 13  1  0
  7 14  2  0
 14 15  1  0
 14 16  1  0
 16 17  2  0
 17 18  1  0
 18 19  2  0
 19 20  1  0
 20 21  2  0
  2 22  1  0
 22 23  2  0
 23 24  1  0
 24 25  2  0
 25 26  1  0
 26 27  2  0
 21  5  1  0
 27 22  1  0
 13  9  2  0
 21 16  1  0
  4 28  1  0
  6 29  1  0
 11 30  1  0
 12 31  1  0
 15 32  1  0
 17 33  1  0
 18 34  1  0
 19 35  1  0
 20 36  1  0
 23 37  1  0
 24 38  1  0
 25 39  1  0
 26 40  1  0
 27 41  1  0
M  END
$$$$
