
     RDKit          3D

 41 42  0  0  0  0  0  0  0  0999 V2000
    6.5400    2.3524    0.5052 C   0  0  0  0  0  0  0  0  0  0  0  0
    5.2424    1.8720    0.1547 O   0  0  0  0  0  0  0  0  0  0  0  0
    5.0023    0.5869    0.5433 C   0  0  0  0  0  0  0  0  0  0  0  0
    5.8052   -0.1144    1.1445 O   0  0  0  0  0  0  0  0  0  0  0  0
    3.6620    0.1933    0.1450 C   0  0  0  0  0  0  0  0  0  0  0  0
    2.6866    0.9619   -0.4724 C   0  0  0  0  0  0  0  0  0  0  0  0
    1.5289    0.1732   -0.6218 C   0  0  0  0  0  0  0  0  0  0  0  0
    1.7841   -1.0797   -0.0855 C   0  0  0  0  0  0  0  0  0  0  0  0
    0.7280   -2.5066    0.0821 S   0  0  0  0  0  6  0  0  0  0  0  0
    0.8481   -2.8958    1.4673 O   0  0  0  0  0  0  0  0  0  0  0  0
    1.1254   -3.3558   -1.0150 O   0  0  0  0  0  0  0  0  0  0  0  0
   -0.8394   -1.9968   -0.2085 N   0  0  0  0  0  0  0  0  0  0  0  0
   -1.4697   -1.1916    0.8413 C   0  0  0  0  0  0  0  0  0  0  0  0
   -2.7540   -0.5725    0.3455 C   0  0  0  0  0  0  0  0  0  0  0  0
   -2.8686    0.8139    0.1779 C   0  0  0  0  0  0  0  0  0  0  0  0
   -4.0585    1.3805   -0.2950 C   0  0  0  0  0  0  0  0  0  0  0  0
   -5.1475    0.5678   -0.6095 C   0  0  0  0  0  0  0  0  0  0  0  0
   -6.3598    0.9913   -1.0790 O   0  0  0  0  0  0  0  0  0  0  0  0
   -6.5331    2.3929   -1.2435 C   0  0  0  0  0  0  0  0  0  0  0  0
   -5.0349   -0.8144   -0.4476 C   0  0  0  0  0  0  0  0  0  0  0  0
   -3.8502   -1.3831    0.0251 C   0  0  0  0  0  0  0  0  0  0  0  0
    3.1104   -1.0705    0.3193 N   0  0  0  0  0  0  0  0  0  0  0  0
    3.8384   -2.2101    0.8498 C   0  0  0  0  0  0  0  0  0  0  0  0
    6.6688    2.3521    1.5921 H   0  0  0  0  0  0  0  0  0  0  0  0
    6.6279    3.3820    0.1473 H   0  0  0  0  0  0  0  0  0  0  0  0
    7.3159    1.7509    0.0213 H   0  0  0  0  0  0  0  0  0  0  0  0
    2.8025    1.9976   -0.7704 H   0  0  0  0  0  0  0  0  0  0  0  0
    0.5908    0.4880   -1.0602 H   0  0  0  0  0  0  0  0  0  0  0  0
   -0.9621   -1.6507   -1.1585 H   0  0  0  0  0  0  0  0  0  0  0  0
   -0.7924   -0.3980    1.1744 H   0  0  0  0  0  0  0  0  0  0  0  0
   -1.6915   -1.8208    1.7109 H   0  0  0  0  0  0  0  0  0  0  0  0
   -2.0341    1.4699    0.4172 H   0  0  0  0  0  0  0  0  0  0  0  0
   -4.1011    2.4589   -0.4056 H   0  0  0  0  0  0  0  0  0  0  0  0
   -7.5487    2.5632   -1.6135 H   0  0  0  0  0  0  0  0  0  0  0  0
   -5.8363    2.7918   -1.9881 H   0  0  0  0  0  0  0  0  0  0  0  0
   -6.4345    2.9181   -0.2876 H   0  0  0  0  0  0  0  0  0  0  0  0
   -5.8786   -1.4555   -0.6925 H   0  0  0  0  0  0  0  0  0  0  0  0
   -3.7852   -2.4638    0.1385 H   0  0  0  0  0  0  0  0  0  0  0  0
    3.3208   -3.1421    0.6239 H   0  0  0  0  0  0  0  0  0  0  0  0
    4.8189   -2.2562    0.3694 H   0  0  0  0  0  0  0  0  0  0  0  0
    3.9327   -2.0802    1.9304 H   0  0  0  0  0  0  0  0  0  0  0  0
  1  2  1  0
  2  3  1  0
  3  4  2  0
  3  5  1  0
  5  6  2  0
  6  7  1  0
  7  8  2  0
  8  9  1  0
  9 10  2  0
  9 11  2  0
  9 12  1  0
 12 13  1  0
 13 14  1  0
 14 15  2  0
 15 16  1  0
 16 17  2  0
 17 18  1  0
 18 19  1  0
 17 20  1  0
 20 21  2  0
  8 22  1  0
 22 23  1  0
 22  5  1  0
 21 14  1  0
  1 24  1  0
  1 25  1  0
  1 26  1  0
  6 27  1  0
  7 28  1  0
 12 29  1  0
 13 30  1  0
 13 31  1  0
 15 32  1  0
 16 33  1  0
 19 34  1  0
 19 35  1  0
 19 36  1  0
 20 37  1  0
 21 38  1  0
 23 39  1  0
 23 40  1  0
 23 41  1  0
M  END
$$$$
