
     RDKit          3D

 55 60  0  0  0  0  0  0  0  0999 V2000
    4.9263    1.2835   -1.0966 O   0  0  0  0  0  0  0  0  0  0  0  0
    4.0362    1.4600   -0.2639 C   0  0  0  0  0  0  0  0  0  0  0  0
    4.3857    1.8274    1.1008 C   0  0  0  0  0  0  0  0  0  0  0  0
    3.8434    1.4192    2.3552 C   0  0  0  0  0  0  0  0  0  0  0  0
    4.5724    2.0656    3.3312 C   0  0  0  0  0  0  0  0  0  0  0  0
    5.5558    2.8047    2.7707 O   0  0  0  0  0  0  0  0  0  0  0  0
    5.4531    2.6383    1.4251 C   0  0  0  0  0  0  0  0  0  0  0  0
    2.6828    1.2983   -0.5998 N   0  0  0  0  0  0  0  0  0  0  0  0
    2.3973    0.8382   -1.9513 C   0  0  0  0  0  0  0  0  0  0  0  0
    0.9015    0.6415   -2.2103 C   0  0  0  0  0  0  0  0  0  0  0  0
    0.1975   -0.0227   -0.9950 C   0  0  0  0  0  0  0  0  0  0  0  0
    0.4074    0.8966    0.2558 C   0  0  0  0  0  0  0  0  0  0  0  0
    1.5584    1.9004    0.1017 C   0  0  0  0  0  0  0  0  0  0  0  0
    0.8749   -1.2683   -0.6631 O   0  0  0  0  0  0  0  0  0  0  0  0
    0.6567   -2.3186   -1.5121 C   0  0  0  0  0  0  0  0  0  0  0  0
    1.5777   -3.3647   -1.4509 C   0  0  0  0  0  0  0  0  0  0  0  0
    1.4402   -4.4671   -2.3002 C   0  0  0  0  0  0  0  0  0  0  0  0
    0.3790   -4.5219   -3.2055 C   0  0  0  0  0  0  0  0  0  0  0  0
    0.2181   -5.8795   -4.2503 Cl  0  0  0  0  0  0  0  0  0  0  0  0
   -0.5544   -3.4890   -3.2619 C   0  0  0  0  0  0  0  0  0  0  0  0
   -0.4148   -2.3934   -2.4024 C   0  0  0  0  0  0  0  0  0  0  0  0
   -1.4139   -1.3047   -2.4103 C   0  0  0  0  0  0  0  0  0  0  0  0
   -2.2819   -1.2828   -3.2815 O   0  0  0  0  0  0  0  0  0  0  0  0
   -1.3088   -0.3038   -1.2612 C   0  0  0  0  0  0  0  0  0  0  0  0
   -2.0939   -0.8758   -0.0845 C   0  0  0  0  0  0  0  0  0  0  0  0
   -2.9544    0.2972    0.2357 C   0  0  0  0  0  0  0  0  0  0  0  0
   -3.8239    0.3243    1.4372 C   0  0  0  0  0  0  0  0  0  0  0  0
   -4.0131   -0.8110    2.2293 C   0  0  0  0  0  0  0  0  0  0  0  0
   -4.8420   -0.7492    3.3559 C   0  0  0  0  0  0  0  0  0  0  0  0
   -5.4800    0.4429    3.6906 C   0  0  0  0  0  0  0  0  0  0  0  0
   -6.5015    0.5105    5.0738 Cl  0  0  0  0  0  0  0  0  0  0  0  0
   -5.2979    1.5769    2.9084 C   0  0  0  0  0  0  0  0  0  0  0  0
   -4.4722    1.5174    1.7806 C   0  0  0  0  0  0  0  0  0  0  0  0
   -2.8762    1.2840   -0.6043 N   0  0  0  0  0  0  0  0  0  0  0  0
   -1.9821    0.9095   -1.6325 O   0  0  0  0  0  0  0  0  0  0  0  0
    3.0272    0.7362    2.5262 H   0  0  0  0  0  0  0  0  0  0  0  0
    4.5348    2.0850    4.4130 H   0  0  0  0  0  0  0  0  0  0  0  0
    6.1966    3.1481    0.8328 H   0  0  0  0  0  0  0  0  0  0  0  0
    2.7992    1.5714   -2.6609 H   0  0  0  0  0  0  0  0  0  0  0  0
    2.9424   -0.0993   -2.1094 H   0  0  0  0  0  0  0  0  0  0  0  0
    0.4351    1.6132   -2.4193 H   0  0  0  0  0  0  0  0  0  0  0  0
    0.7990    0.0519   -3.1280 H   0  0  0  0  0  0  0  0  0  0  0  0
   -0.4866    1.4826    0.5002 H   0  0  0  0  0  0  0  0  0  0  0  0
    0.6171    0.2655    1.1337 H   0  0  0  0  0  0  0  0  0  0  0  0
    1.2304    2.7628   -0.4957 H   0  0  0  0  0  0  0  0  0  0  0  0
    1.8301    2.3166    1.0731 H   0  0  0  0  0  0  0  0  0  0  0  0
    2.4118   -3.3200   -0.7540 H   0  0  0  0  0  0  0  0  0  0  0  0
    2.1666   -5.2764   -2.2559 H   0  0  0  0  0  0  0  0  0  0  0  0
   -1.3861   -3.5367   -3.9619 H   0  0  0  0  0  0  0  0  0  0  0  0
   -2.7331   -1.7249   -0.3586 H   0  0  0  0  0  0  0  0  0  0  0  0
   -1.4646   -1.1586    0.7653 H   0  0  0  0  0  0  0  0  0  0  0  0
   -3.5391   -1.7564    1.9877 H   0  0  0  0  0  0  0  0  0  0  0  0
   -4.9941   -1.6352    3.9628 H   0  0  0  0  0  0  0  0  0  0  0  0
   -5.7971    2.5077    3.1624 H   0  0  0  0  0  0  0  0  0  0  0  0
   -4.3431    2.4085    1.1719 H   0  0  0  0  0  0  0  0  0  0  0  0
  1  2  2  0
  2  3  1  0
  3  4  1  0
  4  5  2  0
  5  6  1  0
  6  7  1  0
  2  8  1  0
  8  9  1  0
  9 10  1  0
 10 11  1  0
 11 12  1  0
 12 13  1  0
 11 14  1  0
 14 15  1  0
 15 16  2  0
 16 17  1  0
 17 18  2  0
 18 19  1  0
 18 20  1  0
 20 21  2  0
 21 22  1  0
 22 23  2  0
 22 24  1  0
 24 25  1  0
 25 26  1  0
 26 27  1  0
 27 28  2  0
 28 29  1  0
 29 30  2  0
 30 31  1  0
 30 32  1  0
 32 33  2  0
 26 34  2  0
 34 35  1  0
  7  3  2  0
 13  8  1  0
 21 15  1  0
 35 24  1  0
 24 11  1  0
 33 27  1  0
  4 36  1  0
  5 37  1  0
  7 38  1  0
  9 39  1  0
  9 40  1  0
 10 41  1  0
 10 42  1  0
 12 43  1  0
 12 44  1  0
 13 45  1  0
 13 46  1  0
 16 47  1  0
 17 48  1  0
 20 49  1  0
 25 50  1  0
 25 51  1  0
 28 52  1  0
 29 53  1  0
 32 54  1  0
 33 55  1  0
M  END
$$$$
