
     RDKit          3D

 52 56  0  0  0  0  0  0  0  0999 V2000
    2.7552   -2.6097    1.2500 O   0  0  0  0  0  0  0  0  0  0  0  0
    1.9663   -1.8848    1.8506 C   0  0  0  0  0  0  0  0  0  0  0  0
    0.9278   -2.4807    2.7891 C   0  0  0  0  0  0  0  0  0  0  0  0
   -0.6253   -2.8192    1.9177 S   0  0  0  0  0  0  0  0  0  0  0  0
   -1.2799   -1.2223    1.7373 C   0  0  0  0  0  0  0  0  0  0  0  0
   -0.8058   -0.1603    2.3490 N   0  0  0  0  0  0  0  0  0  0  0  0
   -1.6072    0.8985    2.0387 N   0  0  0  0  0  0  0  0  0  0  0  0
   -2.5780    0.4686    1.2487 C   0  0  0  0  0  0  0  0  0  0  0  0
   -3.5964    1.3626    0.6121 C   0  0  0  0  0  0  0  0  0  0  0  0
   -3.5065    1.4141   -0.8890 C   0  0  0  0  0  0  0  0  0  0  0  0
   -2.4107    1.7015   -1.6843 C   0  0  0  0  0  0  0  0  0  0  0  0
   -2.7178    1.6472   -3.0753 C   0  0  0  0  0  0  0  0  0  0  0  0
   -4.0395    1.3277   -3.2972 C   0  0  0  0  0  0  0  0  0  0  0  0
   -4.9078    1.1249   -1.8393 S   0  0  0  0  0  0  0  0  0  0  0  0
   -2.4291   -0.9012    1.0341 N   0  0  0  0  0  0  0  0  0  0  0  0
   -3.2467   -1.7495    0.2475 C   0  0  0  0  0  0  0  0  0  0  0  0
   -4.6384   -1.7298    0.4045 C   0  0  0  0  0  0  0  0  0  0  0  0
   -5.4366   -2.5489   -0.3958 C   0  0  0  0  0  0  0  0  0  0  0  0
   -4.8529   -3.3797   -1.3529 C   0  0  0  0  0  0  0  0  0  0  0  0
   -3.4673   -3.4034   -1.5056 C   0  0  0  0  0  0  0  0  0  0  0  0
   -2.6599   -2.5924   -0.7052 C   0  0  0  0  0  0  0  0  0  0  0  0
    1.9090   -0.5037    1.7855 N   0  0  0  0  0  0  0  0  0  0  0  0
    2.7741    0.3714    1.0978 C   0  0  0  0  0  0  0  0  0  0  0  0
    2.4471    1.7366    1.1251 C   0  0  0  0  0  0  0  0  0  0  0  0
    3.2642    2.6794    0.4946 C   0  0  0  0  0  0  0  0  0  0  0  0
    4.4124    2.2645   -0.1715 C   0  0  0  0  0  0  0  0  0  0  0  0
    4.7548    0.9085   -0.1877 C   0  0  0  0  0  0  0  0  0  0  0  0
    3.9309   -0.0359    0.4314 C   0  0  0  0  0  0  0  0  0  0  0  0
    5.8906    0.4328   -0.7948 O   0  0  0  0  0  0  0  0  0  0  0  0
    6.8287    1.4866   -1.0378 C   0  0  0  0  0  0  0  0  0  0  0  0
    6.1334    2.6846   -1.6663 C   0  0  0  0  0  0  0  0  0  0  0  0
    5.1666    3.2419   -0.7695 O   0  0  0  0  0  0  0  0  0  0  0  0
    1.3248   -3.4299    3.1672 H   0  0  0  0  0  0  0  0  0  0  0  0
    0.7736   -1.8356    3.6613 H   0  0  0  0  0  0  0  0  0  0  0  0
   -4.6017    1.0847    0.9533 H   0  0  0  0  0  0  0  0  0  0  0  0
   -3.4353    2.3862    0.9842 H   0  0  0  0  0  0  0  0  0  0  0  0
   -1.4271    1.9364   -1.2894 H   0  0  0  0  0  0  0  0  0  0  0  0
   -2.0039    1.8303   -3.8697 H   0  0  0  0  0  0  0  0  0  0  0  0
   -4.5452    1.2078   -4.2473 H   0  0  0  0  0  0  0  0  0  0  0  0
   -5.1200   -1.1134    1.1573 H   0  0  0  0  0  0  0  0  0  0  0  0
   -6.5176   -2.5402   -0.2777 H   0  0  0  0  0  0  0  0  0  0  0  0
   -5.4784   -4.0079   -1.9859 H   0  0  0  0  0  0  0  0  0  0  0  0
   -3.0152   -4.0457   -2.2581 H   0  0  0  0  0  0  0  0  0  0  0  0
   -1.5845   -2.6042   -0.8744 H   0  0  0  0  0  0  0  0  0  0  0  0
    1.0918   -0.0645    2.2153 H   0  0  0  0  0  0  0  0  0  0  0  0
    1.5517    2.0822    1.6397 H   0  0  0  0  0  0  0  0  0  0  0  0
    3.0036    3.7328    0.5243 H   0  0  0  0  0  0  0  0  0  0  0  0
    4.2315   -1.0773    0.3924 H   0  0  0  0  0  0  0  0  0  0  0  0
    7.3116    1.7522   -0.0884 H   0  0  0  0  0  0  0  0  0  0  0  0
    7.5969    1.0957   -1.7116 H   0  0  0  0  0  0  0  0  0  0  0  0
    6.8641    3.4689   -1.8917 H   0  0  0  0  0  0  0  0  0  0  0  0
    5.6238    2.4115   -2.5987 H   0  0  0  0  0  0  0  0  0  0  0  0
  1  2  2  0
  2  3  1  0
  3  4  1  0
  4  5  1  0
  5  6  2  0
  6  7  1  0
  7  8  2  0
  8  9  1  0
  9 10  1  0
 10 11  2  0
 11 12  1  0
 12 13  2  0
 13 14  1  0
  8 15  1  0
 15 16  1  0
 16 17  2  0
 17 18  1  0
 18 19  2  0
 19 20  1  0
 20 21  2  0
  2 22  1  0
 22 23  1  0
 23 24  2  0
 24 25  1  0
 25 26  2  0
 26 27  1  0
 27 28  2  0
 27 29  1  0
 29 30  1  0
 30 31  1  0
 31 32  1  0
 15  5  1  0
 21 16  1  0
 28 23  1  0
 14 10  1  0
 32 26  1  0
  3 33  1  0
  3 34  1  0
  9 35  1  0
  9 36  1  0
 11 37  1  0
 12 38  1  0
 13 39  1  0
 17 40  1  0
 18 41  1  0
 19 42  1  0
 20 43  1  0
 21 44  1  0
 22 45  1  0
 24 46  1  0
 25 47  1  0
 28 48  1  0
 30 49  1  0
 30 50  1  0
 31 51  1  0
 31 52  1  0
M  END
$$$$
