
     RDKit          3D

 41 43  0  0  0  0  0  0  0  0999 V2000
   -2.6413   -2.2683    2.3232 C   0  0  0  0  0  0  0  0  0  0  0  0
   -2.9181   -1.0937    1.4324 C   0  0  0  0  0  0  0  0  0  0  0  0
   -3.6766   -0.0151    1.8906 C   0  0  0  0  0  0  0  0  0  0  0  0
   -3.9052    1.0925    1.0695 C   0  0  0  0  0  0  0  0  0  0  0  0
   -3.3629    1.1654   -0.2247 C   0  0  0  0  0  0  0  0  0  0  0  0
   -3.6672    2.3808   -1.0532 C   0  0  0  0  0  0  0  0  0  0  0  0
   -2.5872    0.0814   -0.6781 C   0  0  0  0  0  0  0  0  0  0  0  0
   -1.8415    0.0518   -2.3060 S   0  0  0  0  0  6  0  0  0  0  0  0
   -1.3752   -1.2938   -2.5684 O   0  0  0  0  0  0  0  0  0  0  0  0
   -2.7358    0.7112   -3.2337 O   0  0  0  0  0  0  0  0  0  0  0  0
   -0.4991    1.0672   -2.1323 N   0  0  0  0  0  0  0  0  0  0  0  0
    0.4083    0.8456   -1.0584 C   0  0  0  0  0  0  0  0  0  0  0  0
    0.5212    1.8185   -0.0656 C   0  0  0  0  0  0  0  0  0  0  0  0
    1.3701    1.6058    1.0191 C   0  0  0  0  0  0  0  0  0  0  0  0
    2.1090    0.4271    1.1038 C   0  0  0  0  0  0  0  0  0  0  0  0
    2.9173    0.3080    2.2013 O   0  0  0  0  0  0  0  0  0  0  0  0
    2.0079   -0.5606    0.1136 C   0  0  0  0  0  0  0  0  0  0  0  0
    2.8438   -2.1373    0.1999 S   0  0  0  0  0  0  0  0  0  0  0  0
    4.5166   -1.6726    0.0919 C   0  0  0  0  0  0  0  0  0  0  0  0
    5.3169   -1.9655   -0.9750 N   0  0  0  0  0  0  0  0  0  0  0  0
    6.4744   -1.4563   -0.6260 C   0  0  0  0  0  0  0  0  0  0  0  0
    6.3685   -0.8897    0.6044 N   0  0  0  0  0  0  0  0  0  0  0  0
    5.1215   -1.0184    1.0930 N   0  0  0  0  0  0  0  0  0  0  0  0
    1.1466   -0.3368   -0.9702 C   0  0  0  0  0  0  0  0  0  0  0  0
   -2.3716   -1.0372    0.1464 C   0  0  0  0  0  0  0  0  0  0  0  0
   -2.5613   -3.1906    1.7382 H   0  0  0  0  0  0  0  0  0  0  0  0
   -3.4513   -2.4117    3.0460 H   0  0  0  0  0  0  0  0  0  0  0  0
   -1.7054   -2.1114    2.8683 H   0  0  0  0  0  0  0  0  0  0  0  0
   -4.1022   -0.0301    2.8921 H   0  0  0  0  0  0  0  0  0  0  0  0
   -4.5161    1.9068    1.4564 H   0  0  0  0  0  0  0  0  0  0  0  0
   -4.0957    3.1818   -0.4403 H   0  0  0  0  0  0  0  0  0  0  0  0
   -4.3964    2.1383   -1.8317 H   0  0  0  0  0  0  0  0  0  0  0  0
   -2.7587    2.7908   -1.5025 H   0  0  0  0  0  0  0  0  0  0  0  0
   -0.7150    2.0286   -2.3874 H   0  0  0  0  0  0  0  0  0  0  0  0
   -0.0560    2.7372   -0.1131 H   0  0  0  0  0  0  0  0  0  0  0  0
    1.4568    2.3546    1.8019 H   0  0  0  0  0  0  0  0  0  0  0  0
    3.6091   -0.3578    1.9952 H   0  0  0  0  0  0  0  0  0  0  0  0
    7.3894   -1.4696   -1.2011 H   0  0  0  0  0  0  0  0  0  0  0  0
    7.0772   -0.4168    1.1551 H   0  0  0  0  0  0  0  0  0  0  0  0
    1.0521   -1.0896   -1.7505 H   0  0  0  0  0  0  0  0  0  0  0  0
   -1.7669   -1.8705   -0.2096 H   0  0  0  0  0  0  0  0  0  0  0  0
  1  2  1  0
  2  3  2  0
  3  4  1  0
  4  5  2  0
  5  6  1  0
  5  7  1  0
  7  8  1  0
  8  9  2  0
  8 10  2  0
  8 11  1  0
 11 12  1  0
 12 13  2  0
 13 14  1  0
 14 15  2  0
 15 16  1  0
 15 17  1  0
 17 18  1  0
 18 19  1  0
 19 20  1  0
 20 21  2  0
 21 22  1  0
 22 23  1  0
 17 24  2  0
  7 25  2  0
 25  2  1  0
 24 12  1  0
 23 19  2  0
  1 26  1  0
  1 27  1  0
  1 28  1  0
  3 29  1  0
  4 30  1  0
  6 31  1  0
  6 32  1  0
  6 33  1  0
 11 34  1  0
 13 35  1  0
 14 36  1  0
 16 37  1  0
 21 38  1  0
 22 39  1  0
 24 40  1  0
 25 41  1  0
M  END
$$$$
