
     RDKit          3D

 51 55  0  0  0  0  0  0  0  0999 V2000
    9.0250    2.1240   -0.3778 Cl  0  0  0  0  0  0  0  0  0  0  0  0
    7.5274    1.3999    0.0890 C   0  0  0  0  0  0  0  0  0  0  0  0
    7.4643    0.0044    0.1304 C   0  0  0  0  0  0  0  0  0  0  0  0
    6.2793   -0.6365    0.4999 C   0  0  0  0  0  0  0  0  0  0  0  0
    5.1443    0.1113    0.8365 C   0  0  0  0  0  0  0  0  0  0  0  0
    3.8563   -0.5811    1.2192 C   0  0  0  0  0  0  0  0  0  0  0  0
    2.9442   -0.7997   -0.0009 C   0  0  0  0  0  0  0  0  0  0  0  0
    1.7271   -1.5705    0.3105 N   0  0  0  0  0  0  0  0  0  0  0  0
    0.8588   -0.8672    1.2828 C   0  0  0  0  0  0  0  0  0  0  0  0
   -0.6230   -1.3041    1.2384 C   0  0  0  0  0  0  0  0  0  0  0  0
   -1.2159   -1.0668   -0.0854 N   0  0  0  0  0  0  0  0  0  0  0  0
   -2.4629   -0.4679   -0.2337 C   0  0  0  0  0  0  0  0  0  0  0  0
   -2.6182    0.3918   -1.2116 N   0  0  0  0  0  0  0  0  0  0  0  0
   -3.8402    1.0658   -1.3951 C   0  0  0  0  0  0  0  0  0  0  0  0
   -3.9405    1.9830   -2.4431 C   0  0  0  0  0  0  0  0  0  0  0  0
   -5.1261    2.6893   -2.6628 C   0  0  0  0  0  0  0  0  0  0  0  0
   -6.2274    2.4835   -1.8313 C   0  0  0  0  0  0  0  0  0  0  0  0
   -6.1497    1.5713   -0.7783 C   0  0  0  0  0  0  0  0  0  0  0  0
   -4.9563    0.8727   -0.5709 C   0  0  0  0  0  0  0  0  0  0  0  0
   -4.7957   -0.0733    0.4542 N   0  0  0  0  0  0  0  0  0  0  0  0
   -5.7023   -0.5002    1.3955 C   0  0  0  0  0  0  0  0  0  0  0  0
   -5.1132   -1.4989    2.1385 C   0  0  0  0  0  0  0  0  0  0  0  0
   -3.8007   -1.6707    1.6410 C   0  0  0  0  0  0  0  0  0  0  0  0
   -3.6061   -0.7498    0.6253 C   0  0  0  0  0  0  0  0  0  0  0  0
   -0.2517   -1.0042   -1.1973 C   0  0  0  0  0  0  0  0  0  0  0  0
    0.9710   -1.9026   -0.9214 C   0  0  0  0  0  0  0  0  0  0  0  0
    5.2114    1.5115    0.7879 C   0  0  0  0  0  0  0  0  0  0  0  0
    6.3977    2.1557    0.4178 C   0  0  0  0  0  0  0  0  0  0  0  0
    6.3965    3.8835    0.3854 Cl  0  0  0  0  0  0  0  0  0  0  0  0
    8.3368   -0.5924   -0.1254 H   0  0  0  0  0  0  0  0  0  0  0  0
    6.2486   -1.7247    0.5236 H   0  0  0  0  0  0  0  0  0  0  0  0
    4.0887   -1.5437    1.6929 H   0  0  0  0  0  0  0  0  0  0  0  0
    3.3511    0.0200    1.9850 H   0  0  0  0  0  0  0  0  0  0  0  0
    3.5241   -1.3517   -0.7529 H   0  0  0  0  0  0  0  0  0  0  0  0
    2.6835    0.1657   -0.4553 H   0  0  0  0  0  0  0  0  0  0  0  0
    0.8920    0.2172    1.1087 H   0  0  0  0  0  0  0  0  0  0  0  0
    1.2419   -1.0475    2.2937 H   0  0  0  0  0  0  0  0  0  0  0  0
   -1.1553   -0.7402    2.0127 H   0  0  0  0  0  0  0  0  0  0  0  0
   -0.7029   -2.3699    1.4821 H   0  0  0  0  0  0  0  0  0  0  0  0
   -3.0835    2.1469   -3.0910 H   0  0  0  0  0  0  0  0  0  0  0  0
   -5.1876    3.3998   -3.4831 H   0  0  0  0  0  0  0  0  0  0  0  0
   -7.1483    3.0347   -2.0062 H   0  0  0  0  0  0  0  0  0  0  0  0
   -7.0201    1.4261   -0.1475 H   0  0  0  0  0  0  0  0  0  0  0  0
   -6.6975   -0.0850    1.4581 H   0  0  0  0  0  0  0  0  0  0  0  0
   -5.5836   -2.0515    2.9418 H   0  0  0  0  0  0  0  0  0  0  0  0
   -3.0794   -2.3962    1.9902 H   0  0  0  0  0  0  0  0  0  0  0  0
   -0.7342   -1.3487   -2.1198 H   0  0  0  0  0  0  0  0  0  0  0  0
    0.0766    0.0310   -1.3538 H   0  0  0  0  0  0  0  0  0  0  0  0
    1.6240   -1.9133   -1.8027 H   0  0  0  0  0  0  0  0  0  0  0  0
    0.6169   -2.9356   -0.8064 H   0  0  0  0  0  0  0  0  0  0  0  0
    4.3346    2.1048    1.0407 H   0  0  0  0  0  0  0  0  0  0  0  0
  1  2  1  0
  2  3  2  0
  3  4  1  0
  4  5  2  0
  5  6  1  0
  6  7  1  0
  7  8  1  0
  8  9  1  0
  9 10  1  0
 10 11  1  0
 11 12  1  0
 12 13  2  0
 13 14  1  0
 14 15  2  0
 15 16  1  0
 16 17  2  0
 17 18  1  0
 18 19  2  0
 19 20  1  0
 20 21  1  0
 21 22  2  0
 22 23  1  0
 23 24  2  0
 11 25  1  0
 25 26  1  0
  5 27  1  0
 27 28  2  0
 28 29  1  0
 28  2  1  0
 26  8  1  0
 24 12  1  0
 19 14  1  0
 24 20  1  0
  3 30  1  0
  4 31  1  0
  6 32  1  0
  6 33  1  0
  7 34  1  0
  7 35  1  0
  9 36  1  0
  9 37  1  0
 10 38  1  0
 10 39  1  0
 15 40  1  0
 16 41  1  0
 17 42  1  0
 18 43  1  0
 21 44  1  0
 22 45  1  0
 23 46  1  0
 25 47  1  0
 25 48  1  0
 26 49  1  0
 26 50  1  0
 27 51  1  0
M  END
$$$$
