
     RDKit          3D

 39 42  0  0  0  0  0  0  0  0999 V2000
    5.8758   -0.5876   -1.5831 C   0  0  0  0  0  0  0  0  0  0  0  0
    5.6213   -1.5542   -0.5950 C   0  0  0  0  0  0  0  0  0  0  0  0
    4.4044   -1.5729    0.0945 C   0  0  0  0  0  0  0  0  0  0  0  0
    3.4549   -0.6153   -0.2197 C   0  0  0  0  0  0  0  0  0  0  0  0
    3.7171    0.3528   -1.2136 C   0  0  0  0  0  0  0  0  0  0  0  0
    4.9192    0.3785   -1.9010 C   0  0  0  0  0  0  0  0  0  0  0  0
    2.5291    1.2798   -1.3695 C   0  0  0  0  0  0  0  0  0  0  0  0
    1.5594    0.7237   -0.3459 C   0  0  0  0  0  0  0  0  0  0  0  0
    0.2855    1.1770   -0.0405 C   0  0  0  0  0  0  0  0  0  0  0  0
   -0.4441    0.5022    0.9507 C   0  0  0  0  0  0  0  0  0  0  0  0
   -1.8389    0.9643    1.3245 C   0  0  0  0  0  0  0  0  0  0  0  0
   -2.8710   -0.0610    1.1059 N   0  0  0  0  0  0  0  0  0  0  0  0
   -2.9936   -0.4137   -0.3279 C   0  0  0  0  0  0  0  0  0  0  0  0
   -4.3803   -0.9837   -0.6609 C   0  0  0  0  0  0  0  0  0  0  0  0
   -5.4321   -0.0298   -0.4529 O   0  0  0  0  0  0  0  0  0  0  0  0
   -5.1399    0.9101    0.5895 C   0  0  0  0  0  0  0  0  0  0  0  0
   -4.1794    0.3558    1.6530 C   0  0  0  0  0  0  0  0  0  0  0  0
    0.1324   -0.6089    1.6093 C   0  0  0  0  0  0  0  0  0  0  0  0
    1.4193   -1.0585    1.2932 C   0  0  0  0  0  0  0  0  0  0  0  0
    2.1283   -0.3867    0.3135 C   0  0  0  0  0  0  0  0  0  0  0  0
    6.8298   -0.5940   -2.1053 H   0  0  0  0  0  0  0  0  0  0  0  0
    6.3812   -2.2972   -0.3641 H   0  0  0  0  0  0  0  0  0  0  0  0
    4.2176   -2.3230    0.8552 H   0  0  0  0  0  0  0  0  0  0  0  0
    5.1160    1.1242   -2.6638 H   0  0  0  0  0  0  0  0  0  0  0  0
    2.1109    1.2065   -2.3777 H   0  0  0  0  0  0  0  0  0  0  0  0
    2.8057    2.3085   -1.1211 H   0  0  0  0  0  0  0  0  0  0  0  0
   -0.1328    2.0324   -0.5616 H   0  0  0  0  0  0  0  0  0  0  0  0
   -1.8003    1.2297    2.3896 H   0  0  0  0  0  0  0  0  0  0  0  0
   -2.0920    1.8885    0.7881 H   0  0  0  0  0  0  0  0  0  0  0  0
   -2.2286   -1.1537   -0.5870 H   0  0  0  0  0  0  0  0  0  0  0  0
   -2.8366    0.4732   -0.9561 H   0  0  0  0  0  0  0  0  0  0  0  0
   -4.4196   -1.2884   -1.7117 H   0  0  0  0  0  0  0  0  0  0  0  0
   -4.5957   -1.8727   -0.0565 H   0  0  0  0  0  0  0  0  0  0  0  0
   -6.0918    1.1894    1.0526 H   0  0  0  0  0  0  0  0  0  0  0  0
   -4.7265    1.8140    0.1272 H   0  0  0  0  0  0  0  0  0  0  0  0
   -4.6372   -0.5379    2.0959 H   0  0  0  0  0  0  0  0  0  0  0  0
   -4.0669    1.0767    2.4714 H   0  0  0  0  0  0  0  0  0  0  0  0
   -0.4406   -1.1332    2.3727 H   0  0  0  0  0  0  0  0  0  0  0  0
    1.8399   -1.9152    1.8079 H   0  0  0  0  0  0  0  0  0  0  0  0
  1  2  2  0
  2  3  1  0
  3  4  2  0
  4  5  1  0
  5  6  2  0
  5  7  1  0
  7  8  1  0
  8  9  2  0
  9 10  1  0
 10 11  1  0
 11 12  1  0
 12 13  1  0
 13 14  1  0
 14 15  1  0
 15 16  1  0
 16 17  1  0
 10 18  2  0
 18 19  1  0
 19 20  2  0
  6  1  1  0
 20  8  1  0
 20  4  1  0
 17 12  1  0
  1 21  1  0
  2 22  1  0
  3 23  1  0
  6 24  1  0
  7 25  1  0
  7 26  1  0
  9 27  1  0
 11 28  1  0
 11 29  1  0
 13 30  1  0
 13 31  1  0
 14 32  1  0
 14 33  1  0
 16 34  1  0
 16 35  1  0
 17 36  1  0
 17 37  1  0
 18 38  1  0
 19 39  1  0
M  END
$$$$
