
     RDKit          3D

 28 29  0  0  0  0  0  0  0  0999 V2000
    4.2577   -0.4833    2.1249 C   0  0  0  0  0  0  0  0  0  0  0  0
    3.7120   -1.3996    1.0459 C   0  0  0  0  0  0  0  0  0  0  0  0
    2.5192   -0.8395    0.4772 O   0  0  0  0  0  0  0  0  0  0  0  0
    2.7150    0.0338   -0.5537 C   0  0  0  0  0  0  0  0  0  0  0  0
    3.8043    0.3602   -1.0030 O   0  0  0  0  0  0  0  0  0  0  0  0
    1.4362    0.5097   -1.0224 C   0  0  0  0  0  0  0  0  0  0  0  0
    1.1673    1.4028   -2.0452 C   0  0  0  0  0  0  0  0  0  0  0  0
   -0.2374    1.5588   -2.1318 C   0  0  0  0  0  0  0  0  0  0  0  0
   -0.8096    0.7602   -1.1620 C   0  0  0  0  0  0  0  0  0  0  0  0
   -2.1930    0.5732   -0.8499 C   0  0  0  0  0  0  0  0  0  0  0  0
   -2.7866   -0.2175    0.1128 C   0  0  0  0  0  0  0  0  0  0  0  0
   -4.1754   -0.0073   -0.0380 C   0  0  0  0  0  0  0  0  0  0  0  0
   -5.2887   -0.6031    0.7326 C   0  0  0  0  0  0  0  0  0  0  0  0
   -4.4280    0.8546   -1.0263 N   0  0  0  0  0  0  0  0  0  0  0  0
   -3.1933    1.2157   -1.5313 O   0  0  0  0  0  0  0  0  0  0  0  0
    0.2165    0.1331   -0.5007 N   0  0  0  0  0  0  0  0  0  0  0  0
    4.5453    0.4872    1.7084 H   0  0  0  0  0  0  0  0  0  0  0  0
    5.1323   -0.9294    2.6067 H   0  0  0  0  0  0  0  0  0  0  0  0
    3.4951   -0.2895    2.8864 H   0  0  0  0  0  0  0  0  0  0  0  0
    4.4638   -1.6070    0.2757 H   0  0  0  0  0  0  0  0  0  0  0  0
    3.4329   -2.3617    1.4880 H   0  0  0  0  0  0  0  0  0  0  0  0
    1.9137    1.8892   -2.6624 H   0  0  0  0  0  0  0  0  0  0  0  0
   -0.7756    2.1890   -2.8297 H   0  0  0  0  0  0  0  0  0  0  0  0
   -2.2958   -0.8590    0.8277 H   0  0  0  0  0  0  0  0  0  0  0  0
   -5.8750    0.1772    1.2283 H   0  0  0  0  0  0  0  0  0  0  0  0
   -5.9536   -1.1702    0.0731 H   0  0  0  0  0  0  0  0  0  0  0  0
   -4.9147   -1.2853    1.5029 H   0  0  0  0  0  0  0  0  0  0  0  0
    0.1156   -0.5183    0.2659 H   0  0  0  0  0  0  0  0  0  0  0  0
  1  2  1  0
  2  3  1  0
  3  4  1  0
  4  5  2  0
  4  6  1  0
  6  7  2  0
  7  8  1  0
  8  9  2  0
  9 10  1  0
 10 11  2  0
 11 12  1  0
 12 13  1  0
 12 14  2  0
 14 15  1  0
  9 16  1  0
 16  6  1  0
 15 10  1  0
  1 17  1  0
  1 18  1  0
  1 19  1  0
  2 20  1  0
  2 21  1  0
  7 22  1  0
  8 23  1  0
 11 24  1  0
 13 25  1  0
 13 26  1  0
 13 27  1  0
 16 28  1  0
M  END
$$$$
