
     RDKit          3D

 47 48  0  0  0  0  0  0  0  0999 V2000
    4.5804    1.6840    3.8443 C   0  0  0  0  0  0  0  0  0  0  0  0
    3.2616    0.9719    4.0787 C   0  0  0  0  0  0  0  0  0  0  0  0
    2.7611    0.4391    2.8428 O   0  0  0  0  0  0  0  0  0  0  0  0
    2.0113    1.2804    2.0860 C   0  0  0  0  0  0  0  0  0  0  0  0
    1.7425    2.4380    2.3775 O   0  0  0  0  0  0  0  0  0  0  0  0
    1.5538    0.6048    0.8453 C   0  0  0  0  0  0  0  0  0  0  0  0
    1.9154   -0.7501    0.6060 C   0  0  0  0  0  0  0  0  0  0  0  0
    2.2215   -1.8563    0.4229 N   0  0  0  0  0  0  0  0  0  0  0  0
    0.8111    1.3370   -0.0089 C   0  0  0  0  0  0  0  0  0  0  0  0
    0.2343    0.8748   -1.2668 C   0  0  0  0  0  0  0  0  0  0  0  0
   -0.6905   -0.1159   -1.3562 C   0  0  0  0  0  0  0  0  0  0  0  0
   -1.2460   -0.6702   -0.1784 N   0  0  0  0  0  0  0  0  0  0  0  0
   -1.4086   -2.1275    0.0279 C   0  0  0  0  0  0  0  0  0  0  0  0
   -1.4701   -2.4498    1.5302 C   0  0  0  0  0  0  0  0  0  0  0  0
   -2.5248   -1.7243    2.1834 O   0  0  0  0  0  0  0  0  0  0  0  0
   -2.3193   -0.3118    2.0283 C   0  0  0  0  0  0  0  0  0  0  0  0
   -2.2981    0.0907    0.5477 C   0  0  0  0  0  0  0  0  0  0  0  0
   -1.2103   -0.5652   -2.7623 C   0  0  0  0  0  0  0  0  0  0  0  0
   -2.7283   -0.3650   -2.8903 C   0  0  0  0  0  0  0  0  0  0  0  0
   -0.8584   -2.0244   -3.0899 C   0  0  0  0  0  0  0  0  0  0  0  0
   -0.5932    0.1636   -3.8541 O   0  0  0  0  0  0  0  0  0  0  0  0
   -0.3463    1.5340   -3.5825 C   0  0  0  0  0  0  0  0  0  0  0  0
    0.6928    1.6365   -2.4815 C   0  0  0  0  0  0  0  0  0  0  0  0
    5.3020    1.0105    3.3703 H   0  0  0  0  0  0  0  0  0  0  0  0
    4.4519    2.5375    3.1712 H   0  0  0  0  0  0  0  0  0  0  0  0
    5.0002    2.0435    4.7880 H   0  0  0  0  0  0  0  0  0  0  0  0
    2.5272    1.6324    4.5536 H   0  0  0  0  0  0  0  0  0  0  0  0
    3.4156    0.1235    4.7535 H   0  0  0  0  0  0  0  0  0  0  0  0
    0.6027    2.3832    0.2153 H   0  0  0  0  0  0  0  0  0  0  0  0
   -0.5677   -2.6752   -0.4086 H   0  0  0  0  0  0  0  0  0  0  0  0
   -2.3390   -2.4567   -0.4482 H   0  0  0  0  0  0  0  0  0  0  0  0
   -1.6655   -3.5173    1.6723 H   0  0  0  0  0  0  0  0  0  0  0  0
   -0.5207   -2.2155    2.0254 H   0  0  0  0  0  0  0  0  0  0  0  0
   -1.3846   -0.0301    2.5278 H   0  0  0  0  0  0  0  0  0  0  0  0
   -3.1397    0.2003    2.5407 H   0  0  0  0  0  0  0  0  0  0  0  0
   -3.2702   -0.1327    0.0925 H   0  0  0  0  0  0  0  0  0  0  0  0
   -2.1294    1.1704    0.4690 H   0  0  0  0  0  0  0  0  0  0  0  0
   -3.0577   -0.5412   -3.9210 H   0  0  0  0  0  0  0  0  0  0  0  0
   -3.2892   -1.0391   -2.2355 H   0  0  0  0  0  0  0  0  0  0  0  0
   -3.0183    0.6624   -2.6436 H   0  0  0  0  0  0  0  0  0  0  0  0
    0.1995   -2.2260   -2.8846 H   0  0  0  0  0  0  0  0  0  0  0  0
   -1.4649   -2.7459   -2.5384 H   0  0  0  0  0  0  0  0  0  0  0  0
   -1.0086   -2.2307   -4.1572 H   0  0  0  0  0  0  0  0  0  0  0  0
    0.0385    1.9936   -4.4987 H   0  0  0  0  0  0  0  0  0  0  0  0
   -1.2773    2.0514   -3.3241 H   0  0  0  0  0  0  0  0  0  0  0  0
    0.8570    2.6956   -2.2511 H   0  0  0  0  0  0  0  0  0  0  0  0
    1.6465    1.2121   -2.8188 H   0  0  0  0  0  0  0  0  0  0  0  0
  1  2  1  0
  2  3  1  0
  3  4  1  0
  4  5  2  0
  4  6  1  0
  6  7  1  0
  7  8  3  0
  6  9  2  3
  9 10  1  0
 10 11  2  0
 11 12  1  0
 12 13  1  0
 13 14  1  0
 14 15  1  0
 15 16  1  0
 16 17  1  0
 11 18  1  0
 18 19  1  0
 18 20  1  0
 18 21  1  0
 21 22  1  0
 22 23  1  0
 23 10  1  0
 17 12  1  0
  1 24  1  0
  1 25  1  0
  1 26  1  0
  2 27  1  0
  2 28  1  0
  9 29  1  0
 13 30  1  0
 13 31  1  0
 14 32  1  0
 14 33  1  0
 16 34  1  0
 16 35  1  0
 17 36  1  0
 17 37  1  0
 19 38  1  0
 19 39  1  0
 19 40  1  0
 20 41  1  0
 20 42  1  0
 20 43  1  0
 22 44  1  0
 22 45  1  0
 23 46  1  0
 23 47  1  0
M  END
$$$$
