
     RDKit          3D

 34 37  0  0  0  0  0  0  0  0999 V2000
   -2.5379   -2.6532   -0.6859 C   0  0  0  0  0  0  0  0  0  0  0  0
   -2.5702   -1.3116   -1.1612 O   0  0  0  0  0  0  0  0  0  0  0  0
   -3.3272   -0.4279   -0.4316 C   0  0  0  0  0  0  0  0  0  0  0  0
   -4.3822   -0.8045    0.4063 C   0  0  0  0  0  0  0  0  0  0  0  0
   -5.1167    0.1648    1.0955 C   0  0  0  0  0  0  0  0  0  0  0  0
   -4.8035    1.5126    0.9414 C   0  0  0  0  0  0  0  0  0  0  0  0
   -5.8034    2.8197    1.8717 Br  0  0  0  0  0  0  0  0  0  0  0  0
   -3.7629    1.9060    0.1030 C   0  0  0  0  0  0  0  0  0  0  0  0
   -3.0177    0.9389   -0.5852 C   0  0  0  0  0  0  0  0  0  0  0  0
   -1.9318    1.3947   -1.4635 C   0  0  0  0  0  0  0  0  0  0  0  0
   -0.6237    1.2034   -1.2379 C   0  0  0  0  0  0  0  0  0  0  0  0
    0.5975    1.7332   -2.3958 S   0  0  0  0  0  0  0  0  0  0  0  0
    1.8218    1.0694   -1.3991 C   0  0  0  0  0  0  0  0  0  0  0  0
    3.1180    0.9789   -1.4624 N   0  0  0  0  0  0  0  0  0  0  0  0
    3.4076    0.3233   -0.2754 C   0  0  0  0  0  0  0  0  0  0  0  0
    4.8717   -0.0370    0.1411 C   0  0  0  0  0  0  0  0  0  0  0  0
    5.2456   -0.6851    1.3033 C   0  0  0  0  0  0  0  0  0  0  0  0
    6.6563   -0.8028    1.2695 C   0  0  0  0  0  0  0  0  0  0  0  0
    7.0578   -0.2206    0.0910 C   0  0  0  0  0  0  0  0  0  0  0  0
    5.9863    0.2458   -0.5994 O   0  0  0  0  0  0  0  0  0  0  0  0
    2.3381    0.0218    0.4915 N   0  0  0  0  0  0  0  0  0  0  0  0
    1.3436    0.5157   -0.2687 N   0  0  0  0  0  0  0  0  0  0  0  0
   -0.0158    0.5348   -0.0378 C   0  0  0  0  0  0  0  0  0  0  0  0
   -0.5243    0.0937    0.9756 O   0  0  0  0  0  0  0  0  0  0  0  0
   -1.7408   -3.1769   -1.2225 H   0  0  0  0  0  0  0  0  0  0  0  0
   -3.4794   -3.1657   -0.9067 H   0  0  0  0  0  0  0  0  0  0  0  0
   -2.3039   -2.6968    0.3833 H   0  0  0  0  0  0  0  0  0  0  0  0
   -4.6633   -1.8445    0.5362 H   0  0  0  0  0  0  0  0  0  0  0  0
   -5.9313   -0.1437    1.7458 H   0  0  0  0  0  0  0  0  0  0  0  0
   -3.5281    2.9615   -0.0105 H   0  0  0  0  0  0  0  0  0  0  0  0
   -2.2710    1.8993   -2.3656 H   0  0  0  0  0  0  0  0  0  0  0  0
    4.5722   -1.0275    2.0773 H   0  0  0  0  0  0  0  0  0  0  0  0
    7.2998   -1.2548    2.0110 H   0  0  0  0  0  0  0  0  0  0  0  0
    8.0188   -0.0649   -0.3795 H   0  0  0  0  0  0  0  0  0  0  0  0
  1  2  1  0
  2  3  1  0
  3  4  2  0
  4  5  1  0
  5  6  2  0
  6  7  1  0
  6  8  1  0
  8  9  2  0
  9 10  1  0
 10 11  2  3
 11 12  1  0
 12 13  1  0
 13 14  2  0
 14 15  1  0
 15 16  1  0
 16 17  2  0
 17 18  1  0
 18 19  2  0
 19 20  1  0
 15 21  2  0
 21 22  1  0
 22 23  1  0
 23 24  2  0
  9  3  1  0
 23 11  1  0
 22 13  1  0
 20 16  1  0
  1 25  1  0
  1 26  1  0
  1 27  1  0
  4 28  1  0
  5 29  1  0
  8 30  1  0
 10 31  1  0
 17 32  1  0
 18 33  1  0
 19 34  1  0
M  END
$$$$
