
     RDKit          3D

 44 47  0  0  0  0  0  0  0  0999 V2000
   -6.7647   -1.9922   -0.7804 C   0  0  0  0  0  0  0  0  0  0  0  0
   -5.4156   -2.3601   -0.1891 C   0  0  0  0  0  0  0  0  0  0  0  0
   -4.7531   -1.1536    0.1767 O   0  0  0  0  0  0  0  0  0  0  0  0
   -3.4788   -1.2470    0.6794 C   0  0  0  0  0  0  0  0  0  0  0  0
   -2.8258   -2.4521    0.9551 C   0  0  0  0  0  0  0  0  0  0  0  0
   -1.5281   -2.4497    1.4724 C   0  0  0  0  0  0  0  0  0  0  0  0
   -0.8665   -1.2443    1.7153 C   0  0  0  0  0  0  0  0  0  0  0  0
    0.4775   -1.2771    2.3008 C   0  0  0  0  0  0  0  0  0  0  0  0
    1.6086   -0.8295    1.7349 C   0  0  0  0  0  0  0  0  0  0  0  0
    3.1595   -0.9527    2.5714 S   0  0  0  0  0  0  0  0  0  0  0  0
    3.9381   -0.2335    1.2264 C   0  0  0  0  0  0  0  0  0  0  0  0
    5.1615    0.0962    0.9331 N   0  0  0  0  0  0  0  0  0  0  0  0
    5.0064    0.6344   -0.3356 C   0  0  0  0  0  0  0  0  0  0  0  0
    6.2143    1.1948   -1.1561 C   0  0  0  0  0  0  0  0  0  0  0  0
    6.1462    1.7459   -2.4219 C   0  0  0  0  0  0  0  0  0  0  0  0
    7.4656    2.1176   -2.7769 C   0  0  0  0  0  0  0  0  0  0  0  0
    8.2581    1.7718   -1.7086 C   0  0  0  0  0  0  0  0  0  0  0  0
    7.5113    1.2128   -0.7226 O   0  0  0  0  0  0  0  0  0  0  0  0
    3.7411    0.6398   -0.8069 N   0  0  0  0  0  0  0  0  0  0  0  0
    3.0917    0.0730    0.2254 N   0  0  0  0  0  0  0  0  0  0  0  0
    1.7498   -0.2077    0.3759 C   0  0  0  0  0  0  0  0  0  0  0  0
    0.9180    0.0397   -0.4756 O   0  0  0  0  0  0  0  0  0  0  0  0
   -1.5214   -0.0343    1.4513 C   0  0  0  0  0  0  0  0  0  0  0  0
   -2.8199   -0.0251    0.9275 C   0  0  0  0  0  0  0  0  0  0  0  0
   -3.5384    1.1073    0.6369 O   0  0  0  0  0  0  0  0  0  0  0  0
   -2.9016    2.3813    0.6662 C   0  0  0  0  0  0  0  0  0  0  0  0
   -2.1061    2.6335   -0.6031 C   0  0  0  0  0  0  0  0  0  0  0  0
   -7.3637   -1.4315   -0.0551 H   0  0  0  0  0  0  0  0  0  0  0  0
   -7.3173   -2.8877   -1.0780 H   0  0  0  0  0  0  0  0  0  0  0  0
   -6.6386   -1.3470   -1.6562 H   0  0  0  0  0  0  0  0  0  0  0  0
   -5.5732   -2.9890    0.6945 H   0  0  0  0  0  0  0  0  0  0  0  0
   -4.8328   -2.9044   -0.9411 H   0  0  0  0  0  0  0  0  0  0  0  0
   -3.3009   -3.4117    0.7826 H   0  0  0  0  0  0  0  0  0  0  0  0
   -1.0433   -3.4009    1.6817 H   0  0  0  0  0  0  0  0  0  0  0  0
    0.5106   -1.7371    3.2880 H   0  0  0  0  0  0  0  0  0  0  0  0
    5.2462    1.8611   -3.0107 H   0  0  0  0  0  0  0  0  0  0  0  0
    7.7974    2.5795   -3.6961 H   0  0  0  0  0  0  0  0  0  0  0  0
    9.3166    1.8520   -1.5029 H   0  0  0  0  0  0  0  0  0  0  0  0
   -0.9986    0.8919    1.6590 H   0  0  0  0  0  0  0  0  0  0  0  0
   -2.3067    2.5298    1.5732 H   0  0  0  0  0  0  0  0  0  0  0  0
   -3.7064    3.1238    0.7170 H   0  0  0  0  0  0  0  0  0  0  0  0
   -2.7412    2.5036   -1.4857 H   0  0  0  0  0  0  0  0  0  0  0  0
   -1.7002    3.6492   -0.6082 H   0  0  0  0  0  0  0  0  0  0  0  0
   -1.2755    1.9293   -0.7034 H   0  0  0  0  0  0  0  0  0  0  0  0
  1  2  1  0
  2  3  1  0
  3  4  1  0
  4  5  2  0
  5  6  1  0
  6  7  2  0
  7  8  1  0
  8  9  2  3
  9 10  1  0
 10 11  1  0
 11 12  2  0
 12 13  1  0
 13 14  1  0
 14 15  2  0
 15 16  1  0
 16 17  2  0
 17 18  1  0
 13 19  2  0
 19 20  1  0
 20 21  1  0
 21 22  2  0
  7 23  1  0
 23 24  2  0
 24 25  1  0
 25 26  1  0
 26 27  1  0
 24  4  1  0
 21  9  1  0
 20 11  1  0
 18 14  1  0
  1 28  1  0
  1 29  1  0
  1 30  1  0
  2 31  1  0
  2 32  1  0
  5 33  1  0
  6 34  1  0
  8 35  1  0
 15 36  1  0
 16 37  1  0
 17 38  1  0
 23 39  1  0
 26 40  1  0
 26 41  1  0
 27 42  1  0
 27 43  1  0
 27 44  1  0
M  END
$$$$
