
     RDKit          3D

 46 48  0  0  0  0  0  0  0  0999 V2000
    0.5153    2.3122   -0.7993 C   0  0  0  0  0  0  0  0  0  0  0  0
    1.2851    1.0239   -0.9984 C   0  0  0  0  0  0  0  0  0  0  0  0
    2.6383    1.1716   -1.6130 C   0  0  0  0  0  0  0  0  0  0  0  0
    3.6355    0.3588   -1.2346 C   0  0  0  0  0  0  0  0  0  0  0  0
    5.0046    0.4299   -1.7632 C   0  0  0  0  0  0  0  0  0  0  0  0
    5.6243    1.6439   -2.0884 C   0  0  0  0  0  0  0  0  0  0  0  0
    6.9409    1.6674   -2.5571 C   0  0  0  0  0  0  0  0  0  0  0  0
    7.6552    0.4791   -2.6952 C   0  0  0  0  0  0  0  0  0  0  0  0
    7.0561   -0.7331   -2.3603 C   0  0  0  0  0  0  0  0  0  0  0  0
    5.7400   -0.7565   -1.8915 C   0  0  0  0  0  0  0  0  0  0  0  0
    0.8337   -0.1680   -0.7171 N   0  0  0  0  0  0  0  0  0  0  0  0
   -0.3652   -0.2787   -0.0647 N   0  0  0  0  0  0  0  0  0  0  0  0
   -0.4904    0.1185    1.2612 C   0  0  0  0  0  0  0  0  0  0  0  0
    0.2811    0.8306    1.8896 O   0  0  0  0  0  0  0  0  0  0  0  0
   -1.6908   -0.4522    1.9287 C   0  0  0  0  0  0  0  0  0  0  0  0
   -2.4870    0.3818    2.8991 C   0  0  0  0  0  0  0  0  0  0  0  0
   -3.1049    0.0099    1.5658 C   0  0  0  0  0  0  0  0  0  0  0  0
   -3.2978    1.1302    0.5688 C   0  0  0  0  0  0  0  0  0  0  0  0
   -4.2067   -1.0425    1.5435 C   0  0  0  0  0  0  0  0  0  0  0  0
   -4.1240   -2.1751    0.7154 C   0  0  0  0  0  0  0  0  0  0  0  0
   -5.1400   -3.1346    0.6880 C   0  0  0  0  0  0  0  0  0  0  0  0
   -6.2679   -2.9776    1.4878 C   0  0  0  0  0  0  0  0  0  0  0  0
   -6.3801   -1.8615    2.3110 C   0  0  0  0  0  0  0  0  0  0  0  0
   -5.3608   -0.9060    2.3347 C   0  0  0  0  0  0  0  0  0  0  0  0
   -0.5500    2.1592   -0.9882 H   0  0  0  0  0  0  0  0  0  0  0  0
    0.8665    3.0815   -1.4939 H   0  0  0  0  0  0  0  0  0  0  0  0
    0.6636    2.6811    0.2177 H   0  0  0  0  0  0  0  0  0  0  0  0
    2.7651    1.9642   -2.3395 H   0  0  0  0  0  0  0  0  0  0  0  0
    3.4500   -0.4256   -0.5026 H   0  0  0  0  0  0  0  0  0  0  0  0
    5.0982    2.5873   -1.9667 H   0  0  0  0  0  0  0  0  0  0  0  0
    7.4107    2.6158   -2.8056 H   0  0  0  0  0  0  0  0  0  0  0  0
    8.6802    0.4982   -3.0566 H   0  0  0  0  0  0  0  0  0  0  0  0
    7.6133   -1.6614   -2.4587 H   0  0  0  0  0  0  0  0  0  0  0  0
    5.2907   -1.7127   -1.6321 H   0  0  0  0  0  0  0  0  0  0  0  0
   -0.8674   -1.1293   -0.2987 H   0  0  0  0  0  0  0  0  0  0  0  0
   -1.5494   -1.4870    2.2294 H   0  0  0  0  0  0  0  0  0  0  0  0
   -2.8362   -0.1072    3.8023 H   0  0  0  0  0  0  0  0  0  0  0  0
   -2.1721    1.4074    3.0663 H   0  0  0  0  0  0  0  0  0  0  0  0
   -4.2783    1.5996    0.7045 H   0  0  0  0  0  0  0  0  0  0  0  0
   -3.2404    0.7466   -0.4555 H   0  0  0  0  0  0  0  0  0  0  0  0
   -2.5438    1.9170    0.6780 H   0  0  0  0  0  0  0  0  0  0  0  0
   -3.2564   -2.3146    0.0759 H   0  0  0  0  0  0  0  0  0  0  0  0
   -5.0502   -4.0028    0.0406 H   0  0  0  0  0  0  0  0  0  0  0  0
   -7.0601   -3.7215    1.4669 H   0  0  0  0  0  0  0  0  0  0  0  0
   -7.2605   -1.7308    2.9347 H   0  0  0  0  0  0  0  0  0  0  0  0
   -5.4680   -0.0369    2.9806 H   0  0  0  0  0  0  0  0  0  0  0  0
  1  2  1  0
  2  3  1  0
  3  4  2  3
  4  5  1  0
  5  6  2  0
  6  7  1  0
  7  8  2  0
  8  9  1  0
  9 10  2  0
  2 11  2  3
 11 12  1  0
 12 13  1  0
 13 14  2  0
 13 15  1  0
 15 16  1  0
 16 17  1  0
 17 18  1  0
 17 19  1  0
 19 20  2  0
 20 21  1  0
 21 22  2  0
 22 23  1  0
 23 24  2  0
 10  5  1  0
 17 15  1  0
 24 19  1  0
  1 25  1  0
  1 26  1  0
  1 27  1  0
  3 28  1  0
  4 29  1  0
  6 30  1  0
  7 31  1  0
  8 32  1  0
  9 33  1  0
 10 34  1  0
 12 35  1  0
 15 36  1  0
 16 37  1  0
 16 38  1  0
 18 39  1  0
 18 40  1  0
 18 41  1  0
 20 42  1  0
 21 43  1  0
 22 44  1  0
 23 45  1  0
 24 46  1  0
M  END
$$$$
