
     RDKit          3D

 28 30  0  0  0  0  0  0  0  0999 V2000
    0.5381   -3.3922   -0.7275 O   0  0  0  0  0  0  0  0  0  0  0  0
    0.5413   -2.2441   -0.2696 C   0  0  0  0  0  0  0  0  0  0  0  0
   -0.6877   -1.6946    0.3747 C   0  0  0  0  0  0  0  0  0  0  0  0
   -1.0410   -0.3475   -0.2156 C   0  0  0  0  0  0  0  0  0  0  0  0
   -2.5221   -0.1466   -0.3109 C   0  0  0  0  0  0  0  0  0  0  0  0
   -3.3361    0.3827   -1.2934 C   0  0  0  0  0  0  0  0  0  0  0  0
   -4.6619    0.3013   -0.8041 C   0  0  0  0  0  0  0  0  0  0  0  0
   -4.5760   -0.2709    0.4426 C   0  0  0  0  0  0  0  0  0  0  0  0
   -3.2839   -0.5482    0.7508 O   0  0  0  0  0  0  0  0  0  0  0  0
   -0.3440    0.9403    0.8601 S   0  0  0  0  0  0  0  0  0  0  0  0
    1.4089    0.7949    0.5678 C   0  0  0  0  0  0  0  0  0  0  0  0
    2.0989    1.9776    0.9257 C   0  0  0  0  0  0  0  0  0  0  0  0
    3.4745    2.1194    0.7506 C   0  0  0  0  0  0  0  0  0  0  0  0
    4.1987    1.0741    0.2090 C   0  0  0  0  0  0  0  0  0  0  0  0
    3.5411   -0.1053   -0.1399 C   0  0  0  0  0  0  0  0  0  0  0  0
    2.1486   -0.2776    0.0416 C   0  0  0  0  0  0  0  0  0  0  0  0
    1.7026   -1.5552   -0.3502 N   0  0  0  0  0  0  0  0  0  0  0  0
   -0.5561   -1.6971    1.4635 H   0  0  0  0  0  0  0  0  0  0  0  0
   -1.4857   -2.4211    0.1654 H   0  0  0  0  0  0  0  0  0  0  0  0
   -0.6263   -0.2221   -1.2238 H   0  0  0  0  0  0  0  0  0  0  0  0
   -3.0101    0.7819   -2.2439 H   0  0  0  0  0  0  0  0  0  0  0  0
   -5.5689    0.6221   -1.2966 H   0  0  0  0  0  0  0  0  0  0  0  0
   -5.3028   -0.5337    1.1987 H   0  0  0  0  0  0  0  0  0  0  0  0
    1.5547    2.8238    1.3467 H   0  0  0  0  0  0  0  0  0  0  0  0
    3.9685    3.0449    1.0342 H   0  0  0  0  0  0  0  0  0  0  0  0
    5.2716    1.1672    0.0621 H   0  0  0  0  0  0  0  0  0  0  0  0
    4.1488   -0.9101   -0.5518 H   0  0  0  0  0  0  0  0  0  0  0  0
    2.4066   -2.1568   -0.7662 H   0  0  0  0  0  0  0  0  0  0  0  0
  1  2  2  0
  2  3  1  0
  3  4  1  0
  4  5  1  0
  5  6  2  0
  6  7  1  0
  7  8  2  0
  8  9  1  0
  4 10  1  0
 10 11  1  0
 11 12  2  0
 12 13  1  0
 13 14  2  0
 14 15  1  0
 15 16  2  0
 16 17  1  0
 17  2  1  0
  9  5  1  0
 16 11  1  0
  3 18  1  0
  3 19  1  0
  4 20  1  0
  6 21  1  0
  7 22  1  0
  8 23  1  0
 12 24  1  0
 13 25  1  0
 14 26  1  0
 15 27  1  0
 17 28  1  0
M  END
$$$$
