
     RDKit          3D

 42 44  0  0  0  0  0  0  0  0999 V2000
   -8.5008    0.0583    0.3573 C   0  0  0  0  0  0  0  0  0  0  0  0
   -7.5554   -1.0521   -0.0195 C   0  0  0  0  0  0  0  0  0  0  0  0
   -7.9722   -2.1734   -0.3040 O   0  0  0  0  0  0  0  0  0  0  0  0
   -6.0884   -0.7763   -0.0450 C   0  0  0  0  0  0  0  0  0  0  0  0
   -5.5563    0.4764    0.2725 C   0  0  0  0  0  0  0  0  0  0  0  0
   -4.1707    0.6877    0.2340 C   0  0  0  0  0  0  0  0  0  0  0  0
   -3.3007   -0.3439   -0.1230 C   0  0  0  0  0  0  0  0  0  0  0  0
   -1.8980   -0.2095   -0.1795 N   0  0  0  0  0  0  0  0  0  0  0  0
   -1.1579    0.9437    0.0114 C   0  0  0  0  0  0  0  0  0  0  0  0
   -1.5941    2.0736    0.1966 O   0  0  0  0  0  0  0  0  0  0  0  0
    0.3203    0.7643   -0.0661 C   0  0  0  0  0  0  0  0  0  0  0  0
    0.9531   -0.3952    0.3925 C   0  0  0  0  0  0  0  0  0  0  0  0
    2.3458   -0.5223    0.3001 C   0  0  0  0  0  0  0  0  0  0  0  0
    3.1222    0.5059   -0.2395 C   0  0  0  0  0  0  0  0  0  0  0  0
    4.5266    0.4587   -0.3675 N   0  0  0  0  0  0  0  0  0  0  0  0
    5.3775   -0.5948   -0.0534 C   0  0  0  0  0  0  0  0  0  0  0  0
    4.9953   -1.6814    0.3715 O   0  0  0  0  0  0  0  0  0  0  0  0
    6.7891   -0.3064   -0.2835 C   0  0  0  0  0  0  0  0  0  0  0  0
    7.4875    0.8216   -0.6878 C   0  0  0  0  0  0  0  0  0  0  0  0
    8.8607    0.4702   -0.7236 C   0  0  0  0  0  0  0  0  0  0  0  0
    8.9268   -0.8458   -0.3398 C   0  0  0  0  0  0  0  0  0  0  0  0
    7.6872   -1.3229   -0.0717 O   0  0  0  0  0  0  0  0  0  0  0  0
    2.4834    1.6744   -0.6756 C   0  0  0  0  0  0  0  0  0  0  0  0
    1.0936    1.8058   -0.5869 C   0  0  0  0  0  0  0  0  0  0  0  0
   -3.8365   -1.5984   -0.4359 C   0  0  0  0  0  0  0  0  0  0  0  0
   -5.2184   -1.8136   -0.3988 C   0  0  0  0  0  0  0  0  0  0  0  0
   -9.5284   -0.3167    0.3201 H   0  0  0  0  0  0  0  0  0  0  0  0
   -8.4167    0.8851   -0.3527 H   0  0  0  0  0  0  0  0  0  0  0  0
   -8.3007    0.3965    1.3773 H   0  0  0  0  0  0  0  0  0  0  0  0
   -6.1898    1.3120    0.5557 H   0  0  0  0  0  0  0  0  0  0  0  0
   -3.8030    1.6758    0.4949 H   0  0  0  0  0  0  0  0  0  0  0  0
   -1.3909   -1.0404   -0.4557 H   0  0  0  0  0  0  0  0  0  0  0  0
    0.3900   -1.2015    0.8552 H   0  0  0  0  0  0  0  0  0  0  0  0
    2.7912   -1.4386    0.6765 H   0  0  0  0  0  0  0  0  0  0  0  0
    4.9551    1.2865   -0.7538 H   0  0  0  0  0  0  0  0  0  0  0  0
    7.0749    1.7909   -0.9267 H   0  0  0  0  0  0  0  0  0  0  0  0
    9.6985    1.0983   -0.9927 H   0  0  0  0  0  0  0  0  0  0  0  0
    9.7361   -1.5516   -0.2114 H   0  0  0  0  0  0  0  0  0  0  0  0
    3.0526    2.5027   -1.0905 H   0  0  0  0  0  0  0  0  0  0  0  0
    0.6156    2.7229   -0.9269 H   0  0  0  0  0  0  0  0  0  0  0  0
   -3.1923   -2.4284   -0.7155 H   0  0  0  0  0  0  0  0  0  0  0  0
   -5.6115   -2.7979   -0.6485 H   0  0  0  0  0  0  0  0  0  0  0  0
  1  2  1  0
  2  3  2  0
  2  4  1  0
  4  5  2  0
  5  6  1  0
  6  7  2  0
  7  8  1  0
  8  9  1  0
  9 10  2  0
  9 11  1  0
 11 12  2  0
 12 13  1  0
 13 14  2  0
 14 15  1  0
 15 16  1  0
 16 17  2  0
 16 18  1  0
 18 19  2  0
 19 20  1  0
 20 21  2  0
 21 22  1  0
 14 23  1  0
 23 24  2  0
  7 25  1  0
 25 26  2  0
 26  4  1  0
 24 11  1  0
 22 18  1  0
  1 27  1  0
  1 28  1  0
  1 29  1  0
  5 30  1  0
  6 31  1  0
  8 32  1  0
 12 33  1  0
 13 34  1  0
 15 35  1  0
 19 36  1  0
 20 37  1  0
 21 38  1  0
 23 39  1  0
 24 40  1  0
 25 41  1  0
 26 42  1  0
M  END
$$$$
