
     RDKit          3D

 49 52  0  0  0  0  0  0  0  0999 V2000
    2.4674    0.0804    2.4980 C   0  0  0  0  0  0  0  0  0  0  0  0
    3.7717    0.5028    1.8719 C   0  0  0  0  0  0  0  0  0  0  0  0
    4.7189    1.1452    2.6927 C   0  0  0  0  0  0  0  0  0  0  0  0
    5.9406    1.5565    2.1777 C   0  0  0  0  0  0  0  0  0  0  0  0
    7.0818    2.3325    3.2022 Cl  0  0  0  0  0  0  0  0  0  0  0  0
    6.2415    1.3371    0.8398 C   0  0  0  0  0  0  0  0  0  0  0  0
    5.3094    0.7067    0.0109 C   0  0  0  0  0  0  0  0  0  0  0  0
    4.0625    0.2945    0.5052 C   0  0  0  0  0  0  0  0  0  0  0  0
    3.0960   -0.3356   -0.3163 N   0  0  0  0  0  0  0  0  0  0  0  0
    3.1432   -0.5347   -1.6861 C   0  0  0  0  0  0  0  0  0  0  0  0
    4.0242   -0.1412   -2.4493 O   0  0  0  0  0  0  0  0  0  0  0  0
    1.9729   -1.3457   -2.2242 C   0  0  0  0  0  0  0  0  0  0  0  0
    0.5092   -0.2968   -2.4851 S   0  0  0  0  0  0  0  0  0  0  0  0
   -0.2843   -0.4965   -0.9654 C   0  0  0  0  0  0  0  0  0  0  0  0
    0.3108   -0.8203    0.1584 N   0  0  0  0  0  0  0  0  0  0  0  0
   -0.6525   -0.9473    1.1185 N   0  0  0  0  0  0  0  0  0  0  0  0
   -1.8265   -0.6962    0.5639 C   0  0  0  0  0  0  0  0  0  0  0  0
   -3.1505   -0.7708    1.2540 C   0  0  0  0  0  0  0  0  0  0  0  0
   -3.6650    0.5744    1.6876 C   0  0  0  0  0  0  0  0  0  0  0  0
   -2.9795    1.6129    2.2909 C   0  0  0  0  0  0  0  0  0  0  0  0
   -3.8190    2.7392    2.5696 C   0  0  0  0  0  0  0  0  0  0  0  0
   -5.1213    2.5141    2.1830 C   0  0  0  0  0  0  0  0  0  0  0  0
   -5.3248    0.9638    1.4875 S   0  0  0  0  0  0  0  0  0  0  0  0
   -1.6262   -0.3715   -0.7642 N   0  0  0  0  0  0  0  0  0  0  0  0
   -2.6311    0.0472   -1.7227 C   0  0  0  0  0  0  0  0  0  0  0  0
   -3.0404   -1.0789   -2.5958 C   0  0  0  0  0  0  0  0  0  0  0  0
   -2.8835   -1.3305   -3.9430 C   0  0  0  0  0  0  0  0  0  0  0  0
   -3.4814   -2.5940   -4.1837 C   0  0  0  0  0  0  0  0  0  0  0  0
   -3.9679   -3.0246   -2.9727 C   0  0  0  0  0  0  0  0  0  0  0  0
   -3.7187   -2.1087   -2.0042 O   0  0  0  0  0  0  0  0  0  0  0  0
    2.2577   -0.9688    2.2803 H   0  0  0  0  0  0  0  0  0  0  0  0
    2.4981    0.1704    3.5910 H   0  0  0  0  0  0  0  0  0  0  0  0
    1.6508    0.7113    2.1359 H   0  0  0  0  0  0  0  0  0  0  0  0
    4.4988    1.3223    3.7438 H   0  0  0  0  0  0  0  0  0  0  0  0
    7.1940    1.6541    0.4269 H   0  0  0  0  0  0  0  0  0  0  0  0
    5.5926    0.5481   -1.0243 H   0  0  0  0  0  0  0  0  0  0  0  0
    2.2080   -0.5693    0.1273 H   0  0  0  0  0  0  0  0  0  0  0  0
    2.2692   -1.7682   -3.1858 H   0  0  0  0  0  0  0  0  0  0  0  0
    1.7638   -2.1925   -1.5696 H   0  0  0  0  0  0  0  0  0  0  0  0
   -3.0437   -1.4005    2.1448 H   0  0  0  0  0  0  0  0  0  0  0  0
   -3.8737   -1.2829    0.6082 H   0  0  0  0  0  0  0  0  0  0  0  0
   -1.9207    1.5715    2.5280 H   0  0  0  0  0  0  0  0  0  0  0  0
   -3.4862    3.6594    3.0458 H   0  0  0  0  0  0  0  0  0  0  0  0
   -5.9670    3.1901    2.2810 H   0  0  0  0  0  0  0  0  0  0  0  0
   -2.2143    0.8738   -2.3076 H   0  0  0  0  0  0  0  0  0  0  0  0
   -3.4933    0.4488   -1.1871 H   0  0  0  0  0  0  0  0  0  0  0  0
   -2.3837   -0.6907   -4.6627 H   0  0  0  0  0  0  0  0  0  0  0  0
   -3.5439   -3.1278   -5.1233 H   0  0  0  0  0  0  0  0  0  0  0  0
   -4.4842   -3.9158   -2.6516 H   0  0  0  0  0  0  0  0  0  0  0  0
  1  2  1  0
  2  3  2  0
  3  4  1  0
  4  5  1  0
  4  6  2  0
  6  7  1  0
  7  8  2  0
  8  9  1  0
  9 10  1  0
 10 11  2  0
 10 12  1  0
 12 13  1  0
 13 14  1  0
 14 15  2  0
 15 16  1  0
 16 17  2  0
 17 18  1  0
 18 19  1  0
 19 20  2  0
 20 21  1  0
 21 22  2  0
 22 23  1  0
 17 24  1  0
 24 25  1  0
 25 26  1  0
 26 27  2  0
 27 28  1  0
 28 29  2  0
 29 30  1  0
  8  2  1  0
 24 14  1  0
 30 26  1  0
 23 19  1  0
  1 31  1  0
  1 32  1  0
  1 33  1  0
  3 34  1  0
  6 35  1  0
  7 36  1  0
  9 37  1  0
 12 38  1  0
 12 39  1  0
 18 40  1  0
 18 41  1  0
 20 42  1  0
 21 43  1  0
 22 44  1  0
 25 45  1  0
 25 46  1  0
 27 47  1  0
 28 48  1  0
 29 49  1  0
M  END
$$$$
