
     RDKit          3D

 59 62  0  0  0  0  0  0  0  0999 V2000
    5.6552    5.0520    0.3201 C   0  0  0  0  0  0  0  0  0  0  0  0
    4.8791    3.7752    0.4501 C   0  0  0  0  0  0  0  0  0  0  0  0
    3.5106    3.7450    0.1691 C   0  0  0  0  0  0  0  0  0  0  0  0
    2.7956    2.5468    0.2566 C   0  0  0  0  0  0  0  0  0  0  0  0
    3.4360    1.3543    0.6319 C   0  0  0  0  0  0  0  0  0  0  0  0
    2.6696    0.1495    0.6964 N   0  0  0  0  0  0  0  0  0  0  0  0
    1.4530    0.1173    0.0861 N   0  0  0  0  0  0  0  0  0  0  0  0
    1.1007   -1.1702    0.0860 C   0  0  0  0  0  0  0  0  0  0  0  0
   -0.0879   -1.7412   -0.5334 C   0  0  0  0  0  0  0  0  0  0  0  0
   -0.9267   -1.0754   -1.1384 O   0  0  0  0  0  0  0  0  0  0  0  0
   -0.1853   -3.1358   -0.3411 N   0  0  0  0  0  0  0  0  0  0  0  0
   -1.3131   -3.8697   -0.9120 C   0  0  0  0  0  0  0  0  0  0  0  0
   -2.4642   -4.0522    0.0823 C   0  0  0  0  0  0  0  0  0  0  0  0
   -3.2385   -2.7654    0.3662 C   0  0  0  0  0  0  0  0  0  0  0  0
   -3.9790   -2.2610   -0.8592 C   0  0  0  0  0  0  0  0  0  0  0  0
   -4.4478   -3.0145   -1.7074 O   0  0  0  0  0  0  0  0  0  0  0  0
   -4.1262   -0.8958   -0.8909 N   0  0  0  0  0  0  0  0  0  0  0  0
   -4.7022   -0.2577   -2.0513 C   0  0  0  0  0  0  0  0  0  0  0  0
   -5.0535    1.1368   -1.6928 C   0  0  0  0  0  0  0  0  0  0  0  0
   -6.2517    1.7997   -1.5235 C   0  0  0  0  0  0  0  0  0  0  0  0
   -5.9258    3.1302   -1.1657 C   0  0  0  0  0  0  0  0  0  0  0  0
   -4.5496    3.1985   -1.1363 C   0  0  0  0  0  0  0  0  0  0  0  0
   -3.5882    4.2772   -0.8361 C   0  0  0  0  0  0  0  0  0  0  0  0
   -4.0129    1.9884   -1.4551 O   0  0  0  0  0  0  0  0  0  0  0  0
    0.7191   -3.9094    0.3976 N   0  0  0  0  0  0  0  0  0  0  0  0
    1.7728   -3.3746    0.9482 C   0  0  0  0  0  0  0  0  0  0  0  0
    2.7082   -4.2659    1.7149 C   0  0  0  0  0  0  0  0  0  0  0  0
    2.0020   -1.9583    0.8089 C   0  0  0  0  0  0  0  0  0  0  0  0
    2.9565   -1.0821    1.2980 C   0  0  0  0  0  0  0  0  0  0  0  0
    4.0385   -1.3092    2.2900 C   0  0  0  0  0  0  0  0  0  0  0  0
    4.8138    1.3793    0.8730 C   0  0  0  0  0  0  0  0  0  0  0  0
    5.5269    2.5813    0.7832 C   0  0  0  0  0  0  0  0  0  0  0  0
    5.0190    5.9191    0.5279 H   0  0  0  0  0  0  0  0  0  0  0  0
    6.0571    5.1435   -0.6938 H   0  0  0  0  0  0  0  0  0  0  0  0
    6.4836    5.0787    1.0357 H   0  0  0  0  0  0  0  0  0  0  0  0
    2.9874    4.6521   -0.1260 H   0  0  0  0  0  0  0  0  0  0  0  0
    1.7302    2.5624    0.0306 H   0  0  0  0  0  0  0  0  0  0  0  0
   -1.6525   -3.3671   -1.8239 H   0  0  0  0  0  0  0  0  0  0  0  0
   -0.9400   -4.8556   -1.2151 H   0  0  0  0  0  0  0  0  0  0  0  0
   -2.0759   -4.4478    1.0287 H   0  0  0  0  0  0  0  0  0  0  0  0
   -3.1510   -4.8081   -0.3176 H   0  0  0  0  0  0  0  0  0  0  0  0
   -2.5767   -1.9937    0.7702 H   0  0  0  0  0  0  0  0  0  0  0  0
   -3.9972   -2.9655    1.1325 H   0  0  0  0  0  0  0  0  0  0  0  0
   -3.4130   -0.3500   -0.4176 H   0  0  0  0  0  0  0  0  0  0  0  0
   -3.9633   -0.2809   -2.8590 H   0  0  0  0  0  0  0  0  0  0  0  0
   -5.5857   -0.8164   -2.3778 H   0  0  0  0  0  0  0  0  0  0  0  0
   -7.2372    1.3705   -1.6400 H   0  0  0  0  0  0  0  0  0  0  0  0
   -6.6097    3.9398   -0.9522 H   0  0  0  0  0  0  0  0  0  0  0  0
   -2.8494    4.3684   -1.6382 H   0  0  0  0  0  0  0  0  0  0  0  0
   -4.0985    5.2397   -0.7328 H   0  0  0  0  0  0  0  0  0  0  0  0
   -3.0600    4.0681    0.0993 H   0  0  0  0  0  0  0  0  0  0  0  0
    3.7435   -4.0662    1.4280 H   0  0  0  0  0  0  0  0  0  0  0  0
    2.5820   -4.0898    2.7865 H   0  0  0  0  0  0  0  0  0  0  0  0
    2.4876   -5.3166    1.5063 H   0  0  0  0  0  0  0  0  0  0  0  0
    4.9481   -1.6669    1.7978 H   0  0  0  0  0  0  0  0  0  0  0  0
    4.2639   -0.4080    2.8678 H   0  0  0  0  0  0  0  0  0  0  0  0
    3.7380   -2.0603    3.0271 H   0  0  0  0  0  0  0  0  0  0  0  0
    5.3839    0.4816    1.0800 H   0  0  0  0  0  0  0  0  0  0  0  0
    6.6009    2.5757    0.9615 H   0  0  0  0  0  0  0  0  0  0  0  0
  1  2  1  0
  2  3  2  0
  3  4  1  0
  4  5  2  0
  5  6  1  0
  6  7  1  0
  7  8  2  0
  8  9  1  0
  9 10  2  0
  9 11  1  0
 11 12  1  0
 12 13  1  0
 13 14  1  0
 14 15  1  0
 15 16  2  0
 15 17  1  0
 17 18  1  0
 18 19  1  0
 19 20  2  0
 20 21  1  0
 21 22  2  0
 22 23  1  0
 22 24  1  0
 11 25  1  0
 25 26  2  0
 26 27  1  0
 26 28  1  0
 28 29  2  0
 29 30  1  0
  5 31  1  0
 31 32  2  0
 32  2  1  0
 29  6  1  0
 28  8  1  0
 24 19  1  0
  1 33  1  0
  1 34  1  0
  1 35  1  0
  3 36  1  0
  4 37  1  0
 12 38  1  0
 12 39  1  0
 13 40  1  0
 13 41  1  0
 14 42  1  0
 14 43  1  0
 17 44  1  0
 18 45  1  0
 18 46  1  0
 20 47  1  0
 21 48  1  0
 23 49  1  0
 23 50  1  0
 23 51  1  0
 27 52  1  0
 27 53  1  0
 27 54  1  0
 30 55  1  0
 30 56  1  0
 30 57  1  0
 31 58  1  0
 32 59  1  0
M  END
$$$$
