
     RDKit          3D

 38 39  0  0  0  0  0  0  0  0999 V2000
   -3.9255    2.3901    3.6091 C   0  0  0  0  0  0  0  0  0  0  0  0
   -2.8965    2.0801    2.8093 C   0  0  0  0  0  0  0  0  0  0  0  0
   -3.0230    1.7743    1.3436 C   0  0  0  0  0  0  0  0  0  0  0  0
   -2.5061    0.3978    0.9989 C   0  0  0  0  0  0  0  0  0  0  0  0
   -3.3157   -0.7280    1.1775 C   0  0  0  0  0  0  0  0  0  0  0  0
   -2.8244   -1.9967    0.8807 C   0  0  0  0  0  0  0  0  0  0  0  0
   -1.5197   -2.1504    0.4109 C   0  0  0  0  0  0  0  0  0  0  0  0
   -1.1250   -3.4421    0.1819 O   0  0  0  0  0  0  0  0  0  0  0  0
   -0.6736   -1.0474    0.1964 C   0  0  0  0  0  0  0  0  0  0  0  0
    0.6935   -1.1453   -0.3750 C   0  0  0  0  0  0  0  0  0  0  0  0
    1.0415   -0.3447   -1.4826 C   0  0  0  0  0  0  0  0  0  0  0  0
    2.3304   -0.3643   -2.0441 C   0  0  0  0  0  0  0  0  0  0  0  0
    2.6652    0.5242   -3.2193 C   0  0  0  0  0  0  0  0  0  0  0  0
    3.1599    1.9094   -2.8930 C   0  0  0  0  0  0  0  0  0  0  0  0
    3.3473    2.4561   -1.6835 C   0  0  0  0  0  0  0  0  0  0  0  0
    3.3017   -1.1989   -1.4824 C   0  0  0  0  0  0  0  0  0  0  0  0
    2.9857   -2.0119   -0.3959 C   0  0  0  0  0  0  0  0  0  0  0  0
    1.6967   -1.9830    0.1422 C   0  0  0  0  0  0  0  0  0  0  0  0
    1.3994   -2.8201    1.1875 O   0  0  0  0  0  0  0  0  0  0  0  0
   -1.1960    0.2248    0.5171 C   0  0  0  0  0  0  0  0  0  0  0  0
   -3.7649    2.5992    4.6624 H   0  0  0  0  0  0  0  0  0  0  0  0
   -4.9444    2.4375    3.2378 H   0  0  0  0  0  0  0  0  0  0  0  0
   -1.8939    2.0447    3.2309 H   0  0  0  0  0  0  0  0  0  0  0  0
   -2.4658    2.5305    0.7767 H   0  0  0  0  0  0  0  0  0  0  0  0
   -4.0645    1.8597    1.0078 H   0  0  0  0  0  0  0  0  0  0  0  0
   -4.3289   -0.6237    1.5581 H   0  0  0  0  0  0  0  0  0  0  0  0
   -3.4508   -2.8721    1.0277 H   0  0  0  0  0  0  0  0  0  0  0  0
   -0.1622   -3.4582    0.3468 H   0  0  0  0  0  0  0  0  0  0  0  0
    0.2899    0.3100   -1.9237 H   0  0  0  0  0  0  0  0  0  0  0  0
    1.7774    0.6146   -3.8585 H   0  0  0  0  0  0  0  0  0  0  0  0
    3.4209    0.0238   -3.8385 H   0  0  0  0  0  0  0  0  0  0  0  0
    3.3857    2.5238   -3.7637 H   0  0  0  0  0  0  0  0  0  0  0  0
    3.1473    1.9163   -0.7632 H   0  0  0  0  0  0  0  0  0  0  0  0
    3.7113    3.4747   -1.5879 H   0  0  0  0  0  0  0  0  0  0  0  0
    4.3085   -1.2219   -1.8939 H   0  0  0  0  0  0  0  0  0  0  0  0
    3.7500   -2.6676    0.0101 H   0  0  0  0  0  0  0  0  0  0  0  0
    2.2337   -3.1195    1.5891 H   0  0  0  0  0  0  0  0  0  0  0  0
   -0.5654    1.1044    0.3913 H   0  0  0  0  0  0  0  0  0  0  0  0
  1  2  2  0
  2  3  1  0
  3  4  1  0
  4  5  2  0
  5  6  1  0
  6  7  2  0
  7  8  1  0
  7  9  1  0
  9 10  1  0
 10 11  2  0
 11 12  1  0
 12 13  1  0
 13 14  1  0
 14 15  2  0
 12 16  2  0
 16 17  1  0
 17 18  2  0
 18 19  1  0
  9 20  2  0
 20  4  1  0
 18 10  1  0
  1 21  1  0
  1 22  1  0
  2 23  1  0
  3 24  1  0
  3 25  1  0
  5 26  1  0
  6 27  1  0
  8 28  1  0
 11 29  1  0
 13 30  1  0
 13 31  1  0
 14 32  1  0
 15 33  1  0
 15 34  1  0
 16 35  1  0
 17 36  1  0
 19 37  1  0
 20 38  1  0
M  END
$$$$
