
     RDKit          3D

 42 44  0  0  0  0  0  0  0  0999 V2000
   -8.4773   -0.7388    0.2947 C   0  0  0  0  0  0  0  0  0  0  0  0
   -7.6246    0.4846    0.0829 C   0  0  0  0  0  0  0  0  0  0  0  0
   -8.1300    1.5978   -0.0497 O   0  0  0  0  0  0  0  0  0  0  0  0
   -6.1401    0.3332    0.0372 C   0  0  0  0  0  0  0  0  0  0  0  0
   -5.3587    1.4700   -0.1979 C   0  0  0  0  0  0  0  0  0  0  0  0
   -3.9639    1.3736   -0.2487 C   0  0  0  0  0  0  0  0  0  0  0  0
   -3.3267    0.1409   -0.0670 C   0  0  0  0  0  0  0  0  0  0  0  0
   -1.9179    0.1280   -0.1266 N   0  0  0  0  0  0  0  0  0  0  0  0
   -1.0864   -0.9754   -0.0540 C   0  0  0  0  0  0  0  0  0  0  0  0
   -1.4259   -2.1501    0.0104 O   0  0  0  0  0  0  0  0  0  0  0  0
    0.3690   -0.6618   -0.0979 C   0  0  0  0  0  0  0  0  0  0  0  0
    1.2220   -1.5248   -0.7904 C   0  0  0  0  0  0  0  0  0  0  0  0
    2.5965   -1.2631   -0.8531 C   0  0  0  0  0  0  0  0  0  0  0  0
    3.1364   -0.1452   -0.2140 C   0  0  0  0  0  0  0  0  0  0  0  0
    4.5070    0.1907   -0.2207 N   0  0  0  0  0  0  0  0  0  0  0  0
    5.5417   -0.4582   -0.8853 C   0  0  0  0  0  0  0  0  0  0  0  0
    5.3854   -1.4353   -1.6113 O   0  0  0  0  0  0  0  0  0  0  0  0
    6.8559    0.1338   -0.6571 C   0  0  0  0  0  0  0  0  0  0  0  0
    7.3212    1.1631    0.1478 C   0  0  0  0  0  0  0  0  0  0  0  0
    8.7182    1.2648   -0.0729 C   0  0  0  0  0  0  0  0  0  0  0  0
    9.0294    0.2963   -0.9941 C   0  0  0  0  0  0  0  0  0  0  0  0
    7.9175   -0.3906   -1.3517 O   0  0  0  0  0  0  0  0  0  0  0  0
    2.2774    0.7044    0.4989 C   0  0  0  0  0  0  0  0  0  0  0  0
    0.9021    0.4505    0.5606 C   0  0  0  0  0  0  0  0  0  0  0  0
   -4.1086   -0.9906    0.1721 C   0  0  0  0  0  0  0  0  0  0  0  0
   -5.5068   -0.8985    0.2230 C   0  0  0  0  0  0  0  0  0  0  0  0
   -8.2718   -1.1782    1.2741 H   0  0  0  0  0  0  0  0  0  0  0  0
   -8.3047   -1.4650   -0.5039 H   0  0  0  0  0  0  0  0  0  0  0  0
   -9.5328   -0.4503    0.2657 H   0  0  0  0  0  0  0  0  0  0  0  0
   -5.8320    2.4397   -0.3444 H   0  0  0  0  0  0  0  0  0  0  0  0
   -3.3907    2.2781   -0.4353 H   0  0  0  0  0  0  0  0  0  0  0  0
   -1.4792    1.0199   -0.3147 H   0  0  0  0  0  0  0  0  0  0  0  0
    0.8226   -2.4075   -1.2874 H   0  0  0  0  0  0  0  0  0  0  0  0
    3.2139   -1.9654   -1.4053 H   0  0  0  0  0  0  0  0  0  0  0  0
    4.7564    1.0141    0.3059 H   0  0  0  0  0  0  0  0  0  0  0  0
    6.7404    1.7731    0.8238 H   0  0  0  0  0  0  0  0  0  0  0  0
    9.4129    1.9554    0.3848 H   0  0  0  0  0  0  0  0  0  0  0  0
    9.9464   -0.0191   -1.4728 H   0  0  0  0  0  0  0  0  0  0  0  0
    2.6660    1.5734    1.0247 H   0  0  0  0  0  0  0  0  0  0  0  0
    0.2698    1.1089    1.1502 H   0  0  0  0  0  0  0  0  0  0  0  0
   -3.6608   -1.9679    0.3279 H   0  0  0  0  0  0  0  0  0  0  0  0
   -6.0691   -1.8085    0.4118 H   0  0  0  0  0  0  0  0  0  0  0  0
  1  2  1  0
  2  3  2  0
  2  4  1  0
  4  5  2  0
  5  6  1  0
  6  7  2  0
  7  8  1  0
  8  9  1  0
  9 10  2  0
  9 11  1  0
 11 12  2  0
 12 13  1  0
 13 14  2  0
 14 15  1  0
 15 16  1  0
 16 17  2  0
 16 18  1  0
 18 19  2  0
 19 20  1  0
 20 21  2  0
 21 22  1  0
 14 23  1  0
 23 24  2  0
  7 25  1  0
 25 26  2  0
 26  4  1  0
 24 11  1  0
 22 18  1  0
  1 27  1  0
  1 28  1  0
  1 29  1  0
  5 30  1  0
  6 31  1  0
  8 32  1  0
 12 33  1  0
 13 34  1  0
 15 35  1  0
 19 36  1  0
 20 37  1  0
 21 38  1  0
 23 39  1  0
 24 40  1  0
 25 41  1  0
 26 42  1  0
M  END
$$$$
