
     RDKit          3D

 55 60  0  0  0  0  0  0  0  0999 V2000
    4.4841    2.2667    1.5605 O   0  0  0  0  0  0  0  0  0  0  0  0
    4.1036    1.1225    1.3172 C   0  0  0  0  0  0  0  0  0  0  0  0
    5.0738    0.0486    1.1827 C   0  0  0  0  0  0  0  0  0  0  0  0
    6.2966   -0.1097    1.8990 C   0  0  0  0  0  0  0  0  0  0  0  0
    6.9030   -1.2378    1.4005 C   0  0  0  0  0  0  0  0  0  0  0  0
    6.1552   -1.7731    0.4026 O   0  0  0  0  0  0  0  0  0  0  0  0
    5.0650   -0.9771    0.2576 C   0  0  0  0  0  0  0  0  0  0  0  0
    2.7478    0.8289    1.1418 N   0  0  0  0  0  0  0  0  0  0  0  0
    2.1363   -0.4634    1.4146 C   0  0  0  0  0  0  0  0  0  0  0  0
    1.1357   -0.8446    0.3230 C   0  0  0  0  0  0  0  0  0  0  0  0
    0.3191    0.3702   -0.2232 C   0  0  0  0  0  0  0  0  0  0  0  0
    0.3899    1.5446    0.7825 C   0  0  0  0  0  0  0  0  0  0  0  0
    1.8349    1.9609    1.0675 C   0  0  0  0  0  0  0  0  0  0  0  0
    1.0468    0.7556   -1.4222 O   0  0  0  0  0  0  0  0  0  0  0  0
    0.3953    1.5002   -2.3578 C   0  0  0  0  0  0  0  0  0  0  0  0
    1.1954    2.0757   -3.3468 C   0  0  0  0  0  0  0  0  0  0  0  0
    0.6181    2.8724   -4.3370 C   0  0  0  0  0  0  0  0  0  0  0  0
   -0.7565    3.0856   -4.3325 C   0  0  0  0  0  0  0  0  0  0  0  0
   -1.3063    3.8543   -5.2808 F   0  0  0  0  0  0  0  0  0  0  0  0
   -1.5664    2.5119   -3.3615 C   0  0  0  0  0  0  0  0  0  0  0  0
   -0.9800    1.7082   -2.3804 C   0  0  0  0  0  0  0  0  0  0  0  0
   -1.8052    1.0723   -1.3461 C   0  0  0  0  0  0  0  0  0  0  0  0
   -2.9552    1.4622   -1.1596 O   0  0  0  0  0  0  0  0  0  0  0  0
   -1.1408   -0.0465   -0.5521 C   0  0  0  0  0  0  0  0  0  0  0  0
   -1.9846   -0.4314    0.6565 C   0  0  0  0  0  0  0  0  0  0  0  0
   -2.7150   -1.5900    0.0672 C   0  0  0  0  0  0  0  0  0  0  0  0
   -3.8909   -2.2023    0.7303 C   0  0  0  0  0  0  0  0  0  0  0  0
   -4.3436   -1.7594    1.9790 C   0  0  0  0  0  0  0  0  0  0  0  0
   -5.4548   -2.3648    2.5762 C   0  0  0  0  0  0  0  0  0  0  0  0
   -6.1113   -3.4104    1.9286 C   0  0  0  0  0  0  0  0  0  0  0  0
   -7.4754   -4.1511    2.6691 Cl  0  0  0  0  0  0  0  0  0  0  0  0
   -5.6676   -3.8584    0.6869 C   0  0  0  0  0  0  0  0  0  0  0  0
   -4.5580   -3.2551    0.0883 C   0  0  0  0  0  0  0  0  0  0  0  0
   -2.2195   -2.0369   -1.0426 N   0  0  0  0  0  0  0  0  0  0  0  0
   -1.1255   -1.2151   -1.3882 O   0  0  0  0  0  0  0  0  0  0  0  0
    6.6781    0.5313    2.6822 H   0  0  0  0  0  0  0  0  0  0  0  0
    7.8253   -1.7557    1.6246 H   0  0  0  0  0  0  0  0  0  0  0  0
    4.3894   -1.2595   -0.5382 H   0  0  0  0  0  0  0  0  0  0  0  0
    2.8686   -1.2602    1.5564 H   0  0  0  0  0  0  0  0  0  0  0  0
    1.6200   -0.3713    2.3792 H   0  0  0  0  0  0  0  0  0  0  0  0
    0.4896   -1.6273    0.7343 H   0  0  0  0  0  0  0  0  0  0  0  0
    1.6868   -1.3126   -0.5038 H   0  0  0  0  0  0  0  0  0  0  0  0
   -0.1500    2.4256    0.4174 H   0  0  0  0  0  0  0  0  0  0  0  0
   -0.0900    1.2555    1.7257 H   0  0  0  0  0  0  0  0  0  0  0  0
    1.8805    2.5107    2.0153 H   0  0  0  0  0  0  0  0  0  0  0  0
    2.2000    2.6372    0.2848 H   0  0  0  0  0  0  0  0  0  0  0  0
    2.2704    1.9099   -3.3428 H   0  0  0  0  0  0  0  0  0  0  0  0
    1.2308    3.3284   -5.1089 H   0  0  0  0  0  0  0  0  0  0  0  0
   -2.6383    2.6858   -3.3828 H   0  0  0  0  0  0  0  0  0  0  0  0
   -2.6535    0.3590    1.0047 H   0  0  0  0  0  0  0  0  0  0  0  0
   -1.3958   -0.7963    1.5029 H   0  0  0  0  0  0  0  0  0  0  0  0
   -3.8538   -0.9481    2.5087 H   0  0  0  0  0  0  0  0  0  0  0  0
   -5.8040   -2.0157    3.5449 H   0  0  0  0  0  0  0  0  0  0  0  0
   -6.1774   -4.6725    0.1782 H   0  0  0  0  0  0  0  0  0  0  0  0
   -4.2209   -3.6117   -0.8837 H   0  0  0  0  0  0  0  0  0  0  0  0
  1  2  2  0
  2  3  1  0
  3  4  1  0
  4  5  2  0
  5  6  1  0
  6  7  1  0
  2  8  1  0
  8  9  1  0
  9 10  1  0
 10 11  1  0
 11 12  1  0
 12 13  1  0
 11 14  1  0
 14 15  1  0
 15 16  2  0
 16 17  1  0
 17 18  2  0
 18 19  1  0
 18 20  1  0
 20 21  2  0
 21 22  1  0
 22 23  2  0
 22 24  1  0
 24 25  1  0
 25 26  1  0
 26 27  1  0
 27 28  2  0
 28 29  1  0
 29 30  2  0
 30 31  1  0
 30 32  1  0
 32 33  2  0
 26 34  2  0
 34 35  1  0
  7  3  2  0
 13  8  1  0
 21 15  1  0
 35 24  1  0
 24 11  1  0
 33 27  1  0
  4 36  1  0
  5 37  1  0
  7 38  1  0
  9 39  1  0
  9 40  1  0
 10 41  1  0
 10 42  1  0
 12 43  1  0
 12 44  1  0
 13 45  1  0
 13 46  1  0
 16 47  1  0
 17 48  1  0
 20 49  1  0
 25 50  1  0
 25 51  1  0
 28 52  1  0
 29 53  1  0
 32 54  1  0
 33 55  1  0
M  END
$$$$
