
     RDKit          3D

 58 62  0  0  0  0  0  0  0  0999 V2000
    7.6892    3.4292    0.7193 C   0  0  0  0  0  0  0  0  0  0  0  0
    7.1874    2.2431    1.3212 O   0  0  0  0  0  0  0  0  0  0  0  0
    5.8728    1.9437    1.0898 C   0  0  0  0  0  0  0  0  0  0  0  0
    5.4245    0.7705    1.7013 C   0  0  0  0  0  0  0  0  0  0  0  0
    4.1029    0.3450    1.5482 C   0  0  0  0  0  0  0  0  0  0  0  0
    3.2066    1.0956    0.7808 C   0  0  0  0  0  0  0  0  0  0  0  0
    1.7818    0.6362    0.5917 C   0  0  0  0  0  0  0  0  0  0  0  0
    1.6055   -0.1573   -0.7064 C   0  0  0  0  0  0  0  0  0  0  0  0
    0.2021   -0.5881   -0.8620 N   0  0  0  0  0  0  0  0  0  0  0  0
   -0.7043    0.2927   -1.4698 C   0  0  0  0  0  0  0  0  0  0  0  0
   -0.2945    1.4558   -1.8963 N   0  0  0  0  0  0  0  0  0  0  0  0
   -2.1531   -0.1145   -1.6225 C   0  0  0  0  0  0  0  0  0  0  0  0
   -3.1662    0.7735   -2.2650 C   0  0  0  0  0  0  0  0  0  0  0  0
   -2.8154    1.6753   -3.0214 O   0  0  0  0  0  0  0  0  0  0  0  0
   -4.4761    0.5637   -1.9065 N   0  0  0  0  0  0  0  0  0  0  0  0
   -5.5162    1.4862   -2.3067 C   0  0  0  0  0  0  0  0  0  0  0  0
   -5.6890    2.4872   -1.2268 C   0  0  0  0  0  0  0  0  0  0  0  0
   -5.1709    3.7478   -1.0136 C   0  0  0  0  0  0  0  0  0  0  0  0
   -5.7052    4.1955    0.2179 C   0  0  0  0  0  0  0  0  0  0  0  0
   -6.5098    3.1800    0.6789 C   0  0  0  0  0  0  0  0  0  0  0  0
   -6.5034    2.1354   -0.1890 O   0  0  0  0  0  0  0  0  0  0  0  0
   -2.4558   -1.3510   -1.1896 C   0  0  0  0  0  0  0  0  0  0  0  0
   -1.4893   -2.2214   -0.5346 C   0  0  0  0  0  0  0  0  0  0  0  0
   -1.9321   -3.5497   -0.0235 C   0  0  0  0  0  0  0  0  0  0  0  0
   -3.1098   -3.8919   -0.1556 O   0  0  0  0  0  0  0  0  0  0  0  0
   -0.9606   -4.3222    0.5866 N   0  0  0  0  0  0  0  0  0  0  0  0
   -1.2933   -5.5790    1.0814 C   0  0  0  0  0  0  0  0  0  0  0  0
   -0.3899   -6.3594    1.6871 C   0  0  0  0  0  0  0  0  0  0  0  0
    0.9648   -5.9008    1.8393 C   0  0  0  0  0  0  0  0  0  0  0  0
    1.3279   -4.6976    1.3796 C   0  0  0  0  0  0  0  0  0  0  0  0
    0.3245   -3.8265    0.7041 C   0  0  0  0  0  0  0  0  0  0  0  0
    0.7039   -2.6681    0.2704 N   0  0  0  0  0  0  0  0  0  0  0  0
   -0.2005   -1.8492   -0.3668 C   0  0  0  0  0  0  0  0  0  0  0  0
    3.6588    2.2684    0.1635 C   0  0  0  0  0  0  0  0  0  0  0  0
    4.9835    2.6913    0.3182 C   0  0  0  0  0  0  0  0  0  0  0  0
    7.6367    3.3709   -0.3730 H   0  0  0  0  0  0  0  0  0  0  0  0
    8.7435    3.5241    0.9968 H   0  0  0  0  0  0  0  0  0  0  0  0
    7.1653    4.3146    1.0945 H   0  0  0  0  0  0  0  0  0  0  0  0
    6.1128    0.1817    2.3023 H   0  0  0  0  0  0  0  0  0  0  0  0
    3.7806   -0.5741    2.0315 H   0  0  0  0  0  0  0  0  0  0  0  0
    1.4760    0.0280    1.4528 H   0  0  0  0  0  0  0  0  0  0  0  0
    1.1188    1.5108    0.6039 H   0  0  0  0  0  0  0  0  0  0  0  0
    1.9229    0.4401   -1.5709 H   0  0  0  0  0  0  0  0  0  0  0  0
    2.2818   -1.0222   -0.7153 H   0  0  0  0  0  0  0  0  0  0  0  0
   -1.0700    1.9616   -2.3591 H   0  0  0  0  0  0  0  0  0  0  0  0
   -4.6891   -0.0079   -1.1010 H   0  0  0  0  0  0  0  0  0  0  0  0
   -6.4341    0.9069   -2.4467 H   0  0  0  0  0  0  0  0  0  0  0  0
   -5.2622    1.9693   -3.2552 H   0  0  0  0  0  0  0  0  0  0  0  0
   -4.4852    4.2698   -1.6678 H   0  0  0  0  0  0  0  0  0  0  0  0
   -5.5232    5.1400    0.7111 H   0  0  0  0  0  0  0  0  0  0  0  0
   -7.1211    3.0510    1.5612 H   0  0  0  0  0  0  0  0  0  0  0  0
   -3.4536   -1.7621   -1.3147 H   0  0  0  0  0  0  0  0  0  0  0  0
   -2.3232   -5.9044    0.9556 H   0  0  0  0  0  0  0  0  0  0  0  0
   -0.6582   -7.3389    2.0700 H   0  0  0  0  0  0  0  0  0  0  0  0
    1.6805   -6.5506    2.3327 H   0  0  0  0  0  0  0  0  0  0  0  0
    2.3369   -4.3158    1.4730 H   0  0  0  0  0  0  0  0  0  0  0  0
    2.9783    2.8610   -0.4463 H   0  0  0  0  0  0  0  0  0  0  0  0
    5.2850    3.6068   -0.1790 H   0  0  0  0  0  0  0  0  0  0  0  0
  1  2  1  0
  2  3  1  0
  3  4  2  0
  4  5  1  0
  5  6  2  0
  6  7  1  0
  7  8  1  0
  8  9  1  0
  9 10  1  0
 10 11  2  3
 10 12  1  0
 12 13  1  0
 13 14  2  0
 13 15  1  0
 15 16  1  0
 16 17  1  0
 17 18  2  0
 18 19  1  0
 19 20  2  0
 20 21  1  0
 12 22  2  0
 22 23  1  0
 23 24  1  0
 24 25  2  0
 24 26  1  0
 26 27  1  0
 27 28  2  0
 28 29  1  0
 29 30  2  0
 30 31  1  0
 31 32  2  0
 32 33  1  0
  6 34  1  0
 34 35  2  0
 35  3  1  0
 33  9  1  0
 21 17  1  0
 33 23  2  0
 31 26  1  0
  1 36  1  0
  1 37  1  0
  1 38  1  0
  4 39  1  0
  5 40  1  0
  7 41  1  0
  7 42  1  0
  8 43  1  0
  8 44  1  0
 11 45  1  0
 15 46  1  0
 16 47  1  0
 16 48  1  0
 18 49  1  0
 19 50  1  0
 20 51  1  0
 22 52  1  0
 27 53  1  0
 28 54  1  0
 29 55  1  0
 30 56  1  0
 34 57  1  0
 35 58  1  0
M  END
$$$$
