
     RDKit          3D

 47 49  0  0  0  0  0  0  0  0999 V2000
    8.4339    0.6510    0.6528 C   0  0  0  0  0  0  0  0  0  0  0  0
    7.5051   -0.5041    0.3116 C   0  0  0  0  0  0  0  0  0  0  0  0
    6.0576   -0.0823    0.3218 C   0  0  0  0  0  0  0  0  0  0  0  0
    5.4563    0.4215   -0.8387 C   0  0  0  0  0  0  0  0  0  0  0  0
    4.1212    0.8320   -0.8217 C   0  0  0  0  0  0  0  0  0  0  0  0
    3.3677    0.7385    0.3499 C   0  0  0  0  0  0  0  0  0  0  0  0
    2.0255    1.1368    0.3614 N   0  0  0  0  0  0  0  0  0  0  0  0
    1.1162    0.2652    0.0918 C   0  0  0  0  0  0  0  0  0  0  0  0
    1.2912   -1.0461   -0.2195 N   0  0  0  0  0  0  0  0  0  0  0  0
    0.1762   -1.7889   -0.4754 C   0  0  0  0  0  0  0  0  0  0  0  0
    0.1806   -2.9746   -0.7655 O   0  0  0  0  0  0  0  0  0  0  0  0
   -1.0382   -0.9374   -0.3480 C   0  0  0  0  0  0  0  0  0  0  0  0
   -2.2682   -1.4342   -0.5354 C   0  0  0  0  0  0  0  0  0  0  0  0
   -3.5344   -0.6985   -0.4185 C   0  0  0  0  0  0  0  0  0  0  0  0
   -4.4878   -1.1391    0.5137 C   0  0  0  0  0  0  0  0  0  0  0  0
   -5.7149   -0.4838    0.6410 C   0  0  0  0  0  0  0  0  0  0  0  0
   -6.7076   -0.8309    1.5178 O   0  0  0  0  0  0  0  0  0  0  0  0
   -6.4617   -1.9226    2.3916 C   0  0  0  0  0  0  0  0  0  0  0  0
   -5.9717    0.6155   -0.1863 C   0  0  0  0  0  0  0  0  0  0  0  0
   -7.1720    1.2785   -0.0818 O   0  0  0  0  0  0  0  0  0  0  0  0
   -5.0351    1.0666   -1.1279 C   0  0  0  0  0  0  0  0  0  0  0  0
   -5.4329    2.1536   -1.8660 O   0  0  0  0  0  0  0  0  0  0  0  0
   -4.4707    2.7082   -2.7560 C   0  0  0  0  0  0  0  0  0  0  0  0
   -3.8184    0.3973   -1.2468 C   0  0  0  0  0  0  0  0  0  0  0  0
   -0.5817    0.6692    0.0833 S   0  0  0  0  0  0  0  0  0  0  0  0
    3.9717    0.2622    1.5148 C   0  0  0  0  0  0  0  0  0  0  0  0
    5.3065   -0.1494    1.5023 C   0  0  0  0  0  0  0  0  0  0  0  0
    9.4758    0.3159    0.6378 H   0  0  0  0  0  0  0  0  0  0  0  0
    8.3305    1.4700   -0.0671 H   0  0  0  0  0  0  0  0  0  0  0  0
    8.2206    1.0514    1.6497 H   0  0  0  0  0  0  0  0  0  0  0  0
    7.6551   -1.3237    1.0250 H   0  0  0  0  0  0  0  0  0  0  0  0
    7.7639   -0.9093   -0.6742 H   0  0  0  0  0  0  0  0  0  0  0  0
    6.0271    0.5071   -1.7608 H   0  0  0  0  0  0  0  0  0  0  0  0
    3.6685    1.2337   -1.7242 H   0  0  0  0  0  0  0  0  0  0  0  0
    2.2034   -1.4717   -0.2633 H   0  0  0  0  0  0  0  0  0  0  0  0
   -2.3832   -2.4909   -0.7760 H   0  0  0  0  0  0  0  0  0  0  0  0
   -4.2478   -1.9969    1.1341 H   0  0  0  0  0  0  0  0  0  0  0  0
   -5.6074   -1.7208    3.0462 H   0  0  0  0  0  0  0  0  0  0  0  0
   -7.3440   -2.0489    3.0264 H   0  0  0  0  0  0  0  0  0  0  0  0
   -6.3199   -2.8524    1.8310 H   0  0  0  0  0  0  0  0  0  0  0  0
   -7.1265    1.9953   -0.7418 H   0  0  0  0  0  0  0  0  0  0  0  0
   -3.5743    3.0341   -2.2180 H   0  0  0  0  0  0  0  0  0  0  0  0
   -4.9182    3.5909   -3.2230 H   0  0  0  0  0  0  0  0  0  0  0  0
   -4.2201    2.0008   -3.5532 H   0  0  0  0  0  0  0  0  0  0  0  0
   -3.0792    0.7057   -1.9786 H   0  0  0  0  0  0  0  0  0  0  0  0
    3.4020    0.2184    2.4394 H   0  0  0  0  0  0  0  0  0  0  0  0
    5.7593   -0.5130    2.4223 H   0  0  0  0  0  0  0  0  0  0  0  0
  1  2  1  0
  2  3  1  0
  3  4  2  0
  4  5  1  0
  5  6  2  0
  6  7  1  0
  7  8  2  3
  8  9  1  0
  9 10  1  0
 10 11  2  0
 10 12  1  0
 12 13  2  3
 13 14  1  0
 14 15  2  0
 15 16  1  0
 16 17  1  0
 17 18  1  0
 16 19  2  0
 19 20  1  0
 19 21  1  0
 21 22  1  0
 22 23  1  0
 21 24  2  0
 12 25  1  0
  6 26  1  0
 26 27  2  0
 27  3  1  0
 25  8  1  0
 24 14  1  0
  1 28  1  0
  1 29  1  0
  1 30  1  0
  2 31  1  0
  2 32  1  0
  4 33  1  0
  5 34  1  0
  9 35  1  0
 13 36  1  0
 15 37  1  0
 18 38  1  0
 18 39  1  0
 18 40  1  0
 20 41  1  0
 23 42  1  0
 23 43  1  0
 23 44  1  0
 24 45  1  0
 26 46  1  0
 27 47  1  0
M  END
$$$$
