
     RDKit          3D

 40 42  0  0  0  0  0  0  0  0999 V2000
    2.4555    5.3020    0.1506 C   0  0  0  0  0  0  0  0  0  0  0  0
    2.0343    3.8438    0.2057 C   0  0  0  0  0  0  0  0  0  0  0  0
    0.2625    3.6979   -0.1951 S   0  0  0  0  0  0  0  0  0  0  0  0
    0.0331    1.9304   -0.0466 C   0  0  0  0  0  0  0  0  0  0  0  0
   -1.2298    1.4138   -0.2411 C   0  0  0  0  0  0  0  0  0  0  0  0
   -1.3844    0.0471   -0.1290 C   0  0  0  0  0  0  0  0  0  0  0  0
   -2.6297   -0.5504   -0.2923 N   0  0  0  0  0  0  0  0  0  0  0  0
   -3.5292   -0.0753   -1.3596 C   0  0  0  0  0  0  0  0  0  0  0  0
   -4.0272   -1.2499   -2.2197 C   0  0  0  0  0  0  0  0  0  0  0  0
   -4.7063   -2.2666   -1.4707 O   0  0  0  0  0  0  0  0  0  0  0  0
   -4.1636   -2.4623   -0.1547 C   0  0  0  0  0  0  0  0  0  0  0  0
   -2.7086   -1.9925   -0.0035 C   0  0  0  0  0  0  0  0  0  0  0  0
   -0.3343   -0.7276    0.1900 N   0  0  0  0  0  0  0  0  0  0  0  0
    0.8680   -0.1465    0.3620 C   0  0  0  0  0  0  0  0  0  0  0  0
    2.0132   -1.0185    0.6978 C   0  0  0  0  0  0  0  0  0  0  0  0
    1.8620   -2.4126    0.8342 C   0  0  0  0  0  0  0  0  0  0  0  0
    2.9442   -3.2402    1.1515 C   0  0  0  0  0  0  0  0  0  0  0  0
    4.2086   -2.6913    1.3409 C   0  0  0  0  0  0  0  0  0  0  0  0
    4.3909   -1.3179    1.2134 C   0  0  0  0  0  0  0  0  0  0  0  0
    3.3059   -0.4939    0.8958 C   0  0  0  0  0  0  0  0  0  0  0  0
    1.0955    1.1701    0.2468 N   0  0  0  0  0  0  0  0  0  0  0  0
    1.9012    5.9087    0.8748 H   0  0  0  0  0  0  0  0  0  0  0  0
    2.3058    5.7268   -0.8479 H   0  0  0  0  0  0  0  0  0  0  0  0
    3.5201    5.3909    0.3913 H   0  0  0  0  0  0  0  0  0  0  0  0
    2.6238    3.2666   -0.5140 H   0  0  0  0  0  0  0  0  0  0  0  0
    2.2187    3.4486    1.2099 H   0  0  0  0  0  0  0  0  0  0  0  0
   -2.0689    2.0639   -0.4483 H   0  0  0  0  0  0  0  0  0  0  0  0
   -3.0472    0.6505   -2.0241 H   0  0  0  0  0  0  0  0  0  0  0  0
   -4.3851    0.4156   -0.8822 H   0  0  0  0  0  0  0  0  0  0  0  0
   -4.7225   -0.8860   -2.9830 H   0  0  0  0  0  0  0  0  0  0  0  0
   -3.1883   -1.7225   -2.7445 H   0  0  0  0  0  0  0  0  0  0  0  0
   -4.8107   -1.9245    0.5481 H   0  0  0  0  0  0  0  0  0  0  0  0
   -4.2429   -3.5291    0.0775 H   0  0  0  0  0  0  0  0  0  0  0  0
   -2.3769   -2.1969    1.0215 H   0  0  0  0  0  0  0  0  0  0  0  0
   -2.0713   -2.5523   -0.6999 H   0  0  0  0  0  0  0  0  0  0  0  0
    0.8836   -2.8690    0.6916 H   0  0  0  0  0  0  0  0  0  0  0  0
    2.7952   -4.3123    1.2499 H   0  0  0  0  0  0  0  0  0  0  0  0
    5.0503   -3.3328    1.5876 H   0  0  0  0  0  0  0  0  0  0  0  0
    5.3761   -0.8831    1.3603 H   0  0  0  0  0  0  0  0  0  0  0  0
    3.4782    0.5772    0.8026 H   0  0  0  0  0  0  0  0  0  0  0  0
  1  2  1  0
  2  3  1  0
  3  4  1  0
  4  5  2  0
  5  6  1  0
  6  7  1  0
  7  8  1  0
  8  9  1  0
  9 10  1  0
 10 11  1  0
 11 12  1  0
  6 13  2  0
 13 14  1  0
 14 15  1  0
 15 16  2  0
 16 17  1  0
 17 18  2  0
 18 19  1  0
 19 20  2  0
 14 21  2  0
 21  4  1  0
 12  7  1  0
 20 15  1  0
  1 22  1  0
  1 23  1  0
  1 24  1  0
  2 25  1  0
  2 26  1  0
  5 27  1  0
  8 28  1  0
  8 29  1  0
  9 30  1  0
  9 31  1  0
 11 32  1  0
 11 33  1  0
 12 34  1  0
 12 35  1  0
 16 36  1  0
 17 37  1  0
 18 38  1  0
 19 39  1  0
 20 40  1  0
M  END
$$$$
