
     RDKit          3D

 51 55  0  0  0  0  0  0  0  0999 V2000
    9.2716    1.6360    0.8103 Cl  0  0  0  0  0  0  0  0  0  0  0  0
    7.5687    1.4641    0.5723 C   0  0  0  0  0  0  0  0  0  0  0  0
    6.7426    1.5581    1.6958 C   0  0  0  0  0  0  0  0  0  0  0  0
    5.3582    1.4237    1.5653 C   0  0  0  0  0  0  0  0  0  0  0  0
    4.7837    1.1974    0.3083 C   0  0  0  0  0  0  0  0  0  0  0  0
    3.2880    1.0294    0.1686 C   0  0  0  0  0  0  0  0  0  0  0  0
    2.8654   -0.4405    0.3394 C   0  0  0  0  0  0  0  0  0  0  0  0
    1.4208   -0.6336    0.1664 N   0  0  0  0  0  0  0  0  0  0  0  0
    0.6134    0.0087    1.2328 C   0  0  0  0  0  0  0  0  0  0  0  0
   -0.5309   -0.8596    1.8046 C   0  0  0  0  0  0  0  0  0  0  0  0
   -1.2969   -1.5120    0.7318 N   0  0  0  0  0  0  0  0  0  0  0  0
   -2.4590   -0.8948    0.2642 C   0  0  0  0  0  0  0  0  0  0  0  0
   -2.6876    0.3517    0.5994 N   0  0  0  0  0  0  0  0  0  0  0  0
   -3.8228    1.0329    0.1221 C   0  0  0  0  0  0  0  0  0  0  0  0
   -4.0023    2.3659    0.4970 C   0  0  0  0  0  0  0  0  0  0  0  0
   -5.1061    3.0927    0.0434 C   0  0  0  0  0  0  0  0  0  0  0  0
   -6.0450    2.4894   -0.7941 C   0  0  0  0  0  0  0  0  0  0  0  0
   -5.8858    1.1584   -1.1814 C   0  0  0  0  0  0  0  0  0  0  0  0
   -4.7755    0.4446   -0.7197 C   0  0  0  0  0  0  0  0  0  0  0  0
   -4.5441   -0.9004   -1.0490 N   0  0  0  0  0  0  0  0  0  0  0  0
   -5.2994   -1.7517   -1.8206 C   0  0  0  0  0  0  0  0  0  0  0  0
   -4.7067   -2.9947   -1.7960 C   0  0  0  0  0  0  0  0  0  0  0  0
   -3.5456   -2.8883   -0.9957 C   0  0  0  0  0  0  0  0  0  0  0  0
   -3.4410   -1.5750   -0.5711 C   0  0  0  0  0  0  0  0  0  0  0  0
   -0.4502   -2.2582   -0.2232 C   0  0  0  0  0  0  0  0  0  0  0  0
    1.0664   -2.0546    0.0176 C   0  0  0  0  0  0  0  0  0  0  0  0
    5.6174    1.1009   -0.8154 C   0  0  0  0  0  0  0  0  0  0  0  0
    7.0047    1.2347   -0.6868 C   0  0  0  0  0  0  0  0  0  0  0  0
    7.9611    1.1008   -2.1198 Cl  0  0  0  0  0  0  0  0  0  0  0  0
    7.1717    1.7366    2.6791 H   0  0  0  0  0  0  0  0  0  0  0  0
    4.7306    1.5001    2.4518 H   0  0  0  0  0  0  0  0  0  0  0  0
    2.7917    1.6718    0.9060 H   0  0  0  0  0  0  0  0  0  0  0  0
    2.9715    1.4000   -0.8148 H   0  0  0  0  0  0  0  0  0  0  0  0
    3.3976   -1.0306   -0.4184 H   0  0  0  0  0  0  0  0  0  0  0  0
    3.1920   -0.8245    1.3150 H   0  0  0  0  0  0  0  0  0  0  0  0
    1.2402    0.3094    2.0815 H   0  0  0  0  0  0  0  0  0  0  0  0
    0.1902    0.9276    0.8106 H   0  0  0  0  0  0  0  0  0  0  0  0
   -0.1084   -1.6415    2.4492 H   0  0  0  0  0  0  0  0  0  0  0  0
   -1.1715   -0.2594    2.4614 H   0  0  0  0  0  0  0  0  0  0  0  0
   -3.2712    2.8390    1.1473 H   0  0  0  0  0  0  0  0  0  0  0  0
   -5.2307    4.1297    0.3444 H   0  0  0  0  0  0  0  0  0  0  0  0
   -6.9030    3.0584   -1.1443 H   0  0  0  0  0  0  0  0  0  0  0  0
   -6.6300    0.7104   -1.8315 H   0  0  0  0  0  0  0  0  0  0  0  0
   -6.2044   -1.4245   -2.3120 H   0  0  0  0  0  0  0  0  0  0  0  0
   -5.0778   -3.8826   -2.2914 H   0  0  0  0  0  0  0  0  0  0  0  0
   -2.8648   -3.6915   -0.7534 H   0  0  0  0  0  0  0  0  0  0  0  0
   -0.6748   -1.9413   -1.2494 H   0  0  0  0  0  0  0  0  0  0  0  0
   -0.6746   -3.3266   -0.1423 H   0  0  0  0  0  0  0  0  0  0  0  0
    1.3775   -2.6201    0.9060 H   0  0  0  0  0  0  0  0  0  0  0  0
    1.6023   -2.4866   -0.8364 H   0  0  0  0  0  0  0  0  0  0  0  0
    5.1826    0.9201   -1.7969 H   0  0  0  0  0  0  0  0  0  0  0  0
  1  2  1  0
  2  3  2  0
  3  4  1  0
  4  5  2  0
  5  6  1  0
  6  7  1  0
  7  8  1  0
  8  9  1  0
  9 10  1  0
 10 11  1  0
 11 12  1  0
 12 13  2  0
 13 14  1  0
 14 15  2  0
 15 16  1  0
 16 17  2  0
 17 18  1  0
 18 19  2  0
 19 20  1  0
 20 21  1  0
 21 22  2  0
 22 23  1  0
 23 24  2  0
 11 25  1  0
 25 26  1  0
  5 27  1  0
 27 28  2  0
 28 29  1  0
 28  2  1  0
 26  8  1  0
 24 12  1  0
 19 14  1  0
 24 20  1  0
  3 30  1  0
  4 31  1  0
  6 32  1  0
  6 33  1  0
  7 34  1  0
  7 35  1  0
  9 36  1  0
  9 37  1  0
 10 38  1  0
 10 39  1  0
 15 40  1  0
 16 41  1  0
 17 42  1  0
 18 43  1  0
 21 44  1  0
 22 45  1  0
 23 46  1  0
 25 47  1  0
 25 48  1  0
 26 49  1  0
 26 50  1  0
 27 51  1  0
M  END
$$$$
