
     RDKit          3D

 58 61  0  0  0  0  0  0  0  0999 V2000
   -2.7196    5.0815   -0.5415 C   0  0  0  0  0  0  0  0  0  0  0  0
   -2.7537    3.6610   -0.5878 O   0  0  0  0  0  0  0  0  0  0  0  0
   -2.7733    3.0039    0.6122 C   0  0  0  0  0  0  0  0  0  0  0  0
   -2.8243    3.6002    1.8725 C   0  0  0  0  0  0  0  0  0  0  0  0
   -2.8408    2.8079    3.0232 C   0  0  0  0  0  0  0  0  0  0  0  0
   -2.8065    1.4170    2.9192 C   0  0  0  0  0  0  0  0  0  0  0  0
   -2.7574    0.8038    1.6615 C   0  0  0  0  0  0  0  0  0  0  0  0
   -2.7027   -0.6581    1.5403 C   0  0  0  0  0  0  0  0  0  0  0  0
   -4.0551   -1.5685    2.0606 S   0  0  0  0  0  0  0  0  0  0  0  0
   -3.3369   -3.0624    1.6142 C   0  0  0  0  0  0  0  0  0  0  0  0
   -3.9004   -4.3454    1.7530 C   0  0  0  0  0  0  0  0  0  0  0  0
   -3.1681   -5.4638    1.3383 C   0  0  0  0  0  0  0  0  0  0  0  0
   -1.8982   -5.3167    0.7977 C   0  0  0  0  0  0  0  0  0  0  0  0
   -1.0875   -6.3282    0.3600 O   0  0  0  0  0  0  0  0  0  0  0  0
   -1.5835   -7.6545    0.4901 C   0  0  0  0  0  0  0  0  0  0  0  0
   -1.3503   -4.0352    0.6651 C   0  0  0  0  0  0  0  0  0  0  0  0
   -2.0663   -2.8775    1.0693 C   0  0  0  0  0  0  0  0  0  0  0  0
   -1.7071   -1.4762    1.0275 C   0  0  0  0  0  0  0  0  0  0  0  0
   -0.4528   -0.9335    0.5148 C   0  0  0  0  0  0  0  0  0  0  0  0
    0.4768   -0.3512    1.3805 C   0  0  0  0  0  0  0  0  0  0  0  0
    1.6732    0.1633    0.8754 C   0  0  0  0  0  0  0  0  0  0  0  0
    1.9561    0.1027   -0.4916 C   0  0  0  0  0  0  0  0  0  0  0  0
    3.1610    0.6412   -0.8475 O   0  0  0  0  0  0  0  0  0  0  0  0
    3.4582    0.7107   -2.2428 C   0  0  0  0  0  0  0  0  0  0  0  0
    4.8252    1.3941   -2.4482 C   0  0  0  0  0  0  0  0  0  0  0  0
    4.9119    2.8029   -2.0079 N   0  0  0  0  0  0  0  0  0  0  0  0
    4.0235    3.6807   -2.7678 C   0  0  0  0  0  0  0  0  0  0  0  0
    6.2934    3.2769   -2.1076 C   0  0  0  0  0  0  0  0  0  0  0  0
    1.0316   -0.4861   -1.3549 C   0  0  0  0  0  0  0  0  0  0  0  0
   -0.1684   -1.0033   -0.8534 C   0  0  0  0  0  0  0  0  0  0  0  0
   -2.7416    1.6094    0.5146 C   0  0  0  0  0  0  0  0  0  0  0  0
   -2.6772    5.4486   -1.5716 H   0  0  0  0  0  0  0  0  0  0  0  0
   -1.8236    5.4396   -0.0236 H   0  0  0  0  0  0  0  0  0  0  0  0
   -3.6293    5.4827   -0.0828 H   0  0  0  0  0  0  0  0  0  0  0  0
   -2.8523    4.6776    1.9952 H   0  0  0  0  0  0  0  0  0  0  0  0
   -2.8779    3.2761    4.0035 H   0  0  0  0  0  0  0  0  0  0  0  0
   -2.8111    0.8152    3.8251 H   0  0  0  0  0  0  0  0  0  0  0  0
   -4.8929   -4.4682    2.1780 H   0  0  0  0  0  0  0  0  0  0  0  0
   -3.6292   -6.4389    1.4573 H   0  0  0  0  0  0  0  0  0  0  0  0
   -2.4878   -7.7981   -0.1104 H   0  0  0  0  0  0  0  0  0  0  0  0
   -0.8182   -8.3366    0.1072 H   0  0  0  0  0  0  0  0  0  0  0  0
   -1.7608   -7.9088    1.5403 H   0  0  0  0  0  0  0  0  0  0  0  0
   -0.3519   -3.9286    0.2460 H   0  0  0  0  0  0  0  0  0  0  0  0
    0.2792   -0.2911    2.4476 H   0  0  0  0  0  0  0  0  0  0  0  0
    2.3911    0.6205    1.5521 H   0  0  0  0  0  0  0  0  0  0  0  0
    3.5301   -0.3072   -2.6460 H   0  0  0  0  0  0  0  0  0  0  0  0
    2.6728    1.2501   -2.7835 H   0  0  0  0  0  0  0  0  0  0  0  0
    5.1025    1.3137   -3.5072 H   0  0  0  0  0  0  0  0  0  0  0  0
    5.5590    0.8140   -1.8732 H   0  0  0  0  0  0  0  0  0  0  0  0
    4.1415    4.7216   -2.4448 H   0  0  0  0  0  0  0  0  0  0  0  0
    2.9728    3.4310   -2.5914 H   0  0  0  0  0  0  0  0  0  0  0  0
    4.2190    3.6334   -3.8450 H   0  0  0  0  0  0  0  0  0  0  0  0
    6.3784    4.3015   -1.7284 H   0  0  0  0  0  0  0  0  0  0  0  0
    6.6626    3.2588   -3.1394 H   0  0  0  0  0  0  0  0  0  0  0  0
    6.9589    2.6619   -1.4914 H   0  0  0  0  0  0  0  0  0  0  0  0
    1.2109   -0.5614   -2.4216 H   0  0  0  0  0  0  0  0  0  0  0  0
   -0.8813   -1.4556   -1.5393 H   0  0  0  0  0  0  0  0  0  0  0  0
   -2.7021    1.1517   -0.4714 H   0  0  0  0  0  0  0  0  0  0  0  0
  1  2  1  0
  2  3  1  0
  3  4  2  0
  4  5  1  0
  5  6  2  0
  6  7  1  0
  7  8  1  0
  8  9  1  0
  9 10  1  0
 10 11  2  0
 11 12  1  0
 12 13  2  0
 13 14  1  0
 14 15  1  0
 13 16  1  0
 16 17  2  0
 17 18  1  0
 18 19  1  0
 19 20  2  0
 20 21  1  0
 21 22  2  0
 22 23  1  0
 23 24  1  0
 24 25  1  0
 25 26  1  0
 26 27  1  0
 26 28  1  0
 22 29  1  0
 29 30  2  0
  7 31  2  0
 31  3  1  0
 18  8  2  0
 30 19  1  0
 17 10  1  0
  1 32  1  0
  1 33  1  0
  1 34  1  0
  4 35  1  0
  5 36  1  0
  6 37  1  0
 11 38  1  0
 12 39  1  0
 15 40  1  0
 15 41  1  0
 15 42  1  0
 16 43  1  0
 20 44  1  0
 21 45  1  0
 24 46  1  0
 24 47  1  0
 25 48  1  0
 25 49  1  0
 27 50  1  0
 27 51  1  0
 27 52  1  0
 28 53  1  0
 28 54  1  0
 28 55  1  0
 29 56  1  0
 30 57  1  0
 31 58  1  0
M  END
$$$$
