
     RDKit          3D

 41 42  0  0  0  0  0  0  0  0999 V2000
    7.0273    0.9346    1.2906 C   0  0  0  0  0  0  0  0  0  0  0  0
    5.7278    0.4257    0.9882 O   0  0  0  0  0  0  0  0  0  0  0  0
    5.2028    0.9025   -0.1741 C   0  0  0  0  0  0  0  0  0  0  0  0
    5.7697    1.7032   -0.9072 O   0  0  0  0  0  0  0  0  0  0  0  0
    3.8674    0.3767   -0.4000 C   0  0  0  0  0  0  0  0  0  0  0  0
    2.9574    0.8916   -1.3122 C   0  0  0  0  0  0  0  0  0  0  0  0
    1.7550    0.1699   -1.1984 C   0  0  0  0  0  0  0  0  0  0  0  0
    1.9222   -0.7967   -0.2203 C   0  0  0  0  0  0  0  0  0  0  0  0
    0.7697   -1.9832    0.4282 S   0  0  0  0  0  6  0  0  0  0  0  0
    1.0656   -3.2069   -0.2776 O   0  0  0  0  0  0  0  0  0  0  0  0
    0.8793   -1.8739    1.8646 O   0  0  0  0  0  0  0  0  0  0  0  0
   -0.7682   -1.4976   -0.0287 N   0  0  0  0  0  0  0  0  0  0  0  0
   -1.3442   -0.3854    0.7381 C   0  0  0  0  0  0  0  0  0  0  0  0
   -2.6776    0.0301    0.1642 C   0  0  0  0  0  0  0  0  0  0  0  0
   -3.8571   -0.1137    0.9070 C   0  0  0  0  0  0  0  0  0  0  0  0
   -5.0919    0.2719    0.3710 C   0  0  0  0  0  0  0  0  0  0  0  0
   -5.1638    0.8048   -0.9157 C   0  0  0  0  0  0  0  0  0  0  0  0
   -6.2999    1.2185   -1.5543 O   0  0  0  0  0  0  0  0  0  0  0  0
   -7.5222    1.0930   -0.8389 C   0  0  0  0  0  0  0  0  0  0  0  0
   -3.9911    0.9473   -1.6597 C   0  0  0  0  0  0  0  0  0  0  0  0
   -2.7577    0.5642   -1.1280 C   0  0  0  0  0  0  0  0  0  0  0  0
    3.2433   -0.7123    0.1967 N   0  0  0  0  0  0  0  0  0  0  0  0
    3.8851   -1.6566    1.0932 C   0  0  0  0  0  0  0  0  0  0  0  0
    7.7410    0.6545    0.5095 H   0  0  0  0  0  0  0  0  0  0  0  0
    6.9943    2.0213    1.4168 H   0  0  0  0  0  0  0  0  0  0  0  0
    7.3543    0.4872    2.2333 H   0  0  0  0  0  0  0  0  0  0  0  0
    3.1503    1.7307   -1.9714 H   0  0  0  0  0  0  0  0  0  0  0  0
    0.8421    0.3370   -1.7558 H   0  0  0  0  0  0  0  0  0  0  0  0
   -1.3873   -2.3047   -0.1026 H   0  0  0  0  0  0  0  0  0  0  0  0
   -1.4798   -0.6958    1.7805 H   0  0  0  0  0  0  0  0  0  0  0  0
   -0.6757    0.4823    0.7282 H   0  0  0  0  0  0  0  0  0  0  0  0
   -3.8284   -0.5273    1.9132 H   0  0  0  0  0  0  0  0  0  0  0  0
   -5.9767    0.1420    0.9853 H   0  0  0  0  0  0  0  0  0  0  0  0
   -7.5133    1.7057    0.0686 H   0  0  0  0  0  0  0  0  0  0  0  0
   -7.7381    0.0448   -0.6069 H   0  0  0  0  0  0  0  0  0  0  0  0
   -8.3259    1.4635   -1.4826 H   0  0  0  0  0  0  0  0  0  0  0  0
   -4.0390    1.3593   -2.6650 H   0  0  0  0  0  0  0  0  0  0  0  0
   -1.8602    0.6799   -1.7314 H   0  0  0  0  0  0  0  0  0  0  0  0
    3.8933   -1.2245    2.0965 H   0  0  0  0  0  0  0  0  0  0  0  0
    4.8983   -1.8558    0.7356 H   0  0  0  0  0  0  0  0  0  0  0  0
    3.3520   -2.6080    1.0937 H   0  0  0  0  0  0  0  0  0  0  0  0
  1  2  1  0
  2  3  1  0
  3  4  2  0
  3  5  1  0
  5  6  2  0
  6  7  1  0
  7  8  2  0
  8  9  1  0
  9 10  2  0
  9 11  2  0
  9 12  1  0
 12 13  1  0
 13 14  1  0
 14 15  2  0
 15 16  1  0
 16 17  2  0
 17 18  1  0
 18 19  1  0
 17 20  1  0
 20 21  2  0
  8 22  1  0
 22 23  1  0
 22  5  1  0
 21 14  1  0
  1 24  1  0
  1 25  1  0
  1 26  1  0
  6 27  1  0
  7 28  1  0
 12 29  1  0
 13 30  1  0
 13 31  1  0
 15 32  1  0
 16 33  1  0
 19 34  1  0
 19 35  1  0
 19 36  1  0
 20 37  1  0
 21 38  1  0
 23 39  1  0
 23 40  1  0
 23 41  1  0
M  END
$$$$
