
     RDKit          3D

 39 41  0  0  0  0  0  0  0  0999 V2000
    2.4208    0.3662   -1.7316 O   0  0  0  0  0  0  0  0  0  0  0  0
    1.9185    0.8256   -0.7132 C   0  0  0  0  0  0  0  0  0  0  0  0
    2.6830    1.6671    0.2515 C   0  0  0  0  0  0  0  0  0  0  0  0
    3.9920    1.5592    0.5277 C   0  0  0  0  0  0  0  0  0  0  0  0
    4.9343    0.5800   -0.0171 C   0  0  0  0  0  0  0  0  0  0  0  0
    5.3936   -0.4608    0.7989 C   0  0  0  0  0  0  0  0  0  0  0  0
    6.3140   -1.3898    0.3062 C   0  0  0  0  0  0  0  0  0  0  0  0
    6.7779   -1.2748   -1.0031 C   0  0  0  0  0  0  0  0  0  0  0  0
    8.0215   -2.5323   -1.6710 Br  0  0  0  0  0  0  0  0  0  0  0  0
    6.3318   -0.2404   -1.8228 C   0  0  0  0  0  0  0  0  0  0  0  0
    5.4130    0.6883   -1.3272 C   0  0  0  0  0  0  0  0  0  0  0  0
    0.4680    0.6164   -0.4439 C   0  0  0  0  0  0  0  0  0  0  0  0
   -0.0793    0.6949    0.8410 C   0  0  0  0  0  0  0  0  0  0  0  0
   -1.4505    0.4829    1.0409 C   0  0  0  0  0  0  0  0  0  0  0  0
   -2.2886    0.1811   -0.0340 C   0  0  0  0  0  0  0  0  0  0  0  0
   -3.6714   -0.0448    0.0843 N   0  0  0  0  0  0  0  0  0  0  0  0
   -4.4576   -0.0014    1.2225 C   0  0  0  0  0  0  0  0  0  0  0  0
   -4.0592    0.2570    2.3535 O   0  0  0  0  0  0  0  0  0  0  0  0
   -5.8527   -0.2979    0.9460 C   0  0  0  0  0  0  0  0  0  0  0  0
   -6.9527   -0.3624    1.7804 C   0  0  0  0  0  0  0  0  0  0  0  0
   -8.0632   -0.6939    0.9680 C   0  0  0  0  0  0  0  0  0  0  0  0
   -7.5786   -0.8122   -0.3128 C   0  0  0  0  0  0  0  0  0  0  0  0
   -6.2416   -0.5749   -0.3416 O   0  0  0  0  0  0  0  0  0  0  0  0
   -1.7346    0.0860   -1.3160 C   0  0  0  0  0  0  0  0  0  0  0  0
   -0.3671    0.2976   -1.5201 C   0  0  0  0  0  0  0  0  0  0  0  0
    2.1083    2.4306    0.7666 H   0  0  0  0  0  0  0  0  0  0  0  0
    4.4294    2.2337    1.2612 H   0  0  0  0  0  0  0  0  0  0  0  0
    5.0354   -0.5594    1.8207 H   0  0  0  0  0  0  0  0  0  0  0  0
    6.6581   -2.1961    0.9478 H   0  0  0  0  0  0  0  0  0  0  0  0
    6.6822   -0.1502   -2.8471 H   0  0  0  0  0  0  0  0  0  0  0  0
    5.0563    1.4842   -1.9773 H   0  0  0  0  0  0  0  0  0  0  0  0
    0.5399    0.8977    1.7105 H   0  0  0  0  0  0  0  0  0  0  0  0
   -1.8286    0.5523    2.0566 H   0  0  0  0  0  0  0  0  0  0  0  0
   -4.1782   -0.2696   -0.7659 H   0  0  0  0  0  0  0  0  0  0  0  0
   -6.9396   -0.1886    2.8482 H   0  0  0  0  0  0  0  0  0  0  0  0
   -9.0901   -0.8300    1.2777 H   0  0  0  0  0  0  0  0  0  0  0  0
   -8.0335   -1.0479   -1.2653 H   0  0  0  0  0  0  0  0  0  0  0  0
   -2.3548   -0.1567   -2.1756 H   0  0  0  0  0  0  0  0  0  0  0  0
    0.0439    0.2124   -2.5248 H   0  0  0  0  0  0  0  0  0  0  0  0
  1  2  2  0
  2  3  1  0
  3  4  2  3
  4  5  1  0
  5  6  2  0
  6  7  1  0
  7  8  2  0
  8  9  1  0
  8 10  1  0
 10 11  2  0
  2 12  1  0
 12 13  2  0
 13 14  1  0
 14 15  2  0
 15 16  1  0
 16 17  1  0
 17 18  2  0
 17 19  1  0
 19 20  2  0
 20 21  1  0
 21 22  2  0
 22 23  1  0
 15 24  1  0
 24 25  2  0
 11  5  1  0
 25 12  1  0
 23 19  1  0
  3 26  1  0
  4 27  1  0
  6 28  1  0
  7 29  1  0
 10 30  1  0
 11 31  1  0
 13 32  1  0
 14 33  1  0
 16 34  1  0
 20 35  1  0
 21 36  1  0
 22 37  1  0
 24 38  1  0
 25 39  1  0
M  END
$$$$
