
     RDKit          3D

 55 60  0  0  0  0  0  0  0  0999 V2000
    3.4686    1.0032    3.3510 O   0  0  0  0  0  0  0  0  0  0  0  0
    3.6482    0.9540    2.1348 C   0  0  0  0  0  0  0  0  0  0  0  0
    4.8470    1.5348    1.5461 C   0  0  0  0  0  0  0  0  0  0  0  0
    5.6194    1.1598    0.4067 C   0  0  0  0  0  0  0  0  0  0  0  0
    6.6706    2.0436    0.3324 C   0  0  0  0  0  0  0  0  0  0  0  0
    6.6170    2.9276    1.3592 O   0  0  0  0  0  0  0  0  0  0  0  0
    5.5281    2.6023    2.1002 C   0  0  0  0  0  0  0  0  0  0  0  0
    2.7156    0.3396    1.2898 N   0  0  0  0  0  0  0  0  0  0  0  0
    1.6219   -0.3869    1.9211 C   0  0  0  0  0  0  0  0  0  0  0  0
    0.9780   -1.3962    0.9765 C   0  0  0  0  0  0  0  0  0  0  0  0
    0.4897   -0.7731   -0.3668 C   0  0  0  0  0  0  0  0  0  0  0  0
    1.1072    0.6351   -0.5647 C   0  0  0  0  0  0  0  0  0  0  0  0
    2.5705    0.6627   -0.1276 C   0  0  0  0  0  0  0  0  0  0  0  0
    1.0678   -1.6536   -1.3755 O   0  0  0  0  0  0  0  0  0  0  0  0
    0.5188   -1.6487   -2.6242 C   0  0  0  0  0  0  0  0  0  0  0  0
    1.2380   -2.3197   -3.6129 C   0  0  0  0  0  0  0  0  0  0  0  0
    0.7683   -2.3405   -4.9289 C   0  0  0  0  0  0  0  0  0  0  0  0
   -0.4231   -1.6903   -5.2523 C   0  0  0  0  0  0  0  0  0  0  0  0
   -0.9927   -1.7126   -6.8748 Cl  0  0  0  0  0  0  0  0  0  0  0  0
   -1.1544   -1.0280   -4.2706 C   0  0  0  0  0  0  0  0  0  0  0  0
   -0.6798   -1.0244   -2.9556 C   0  0  0  0  0  0  0  0  0  0  0  0
   -1.4357   -0.3548   -1.8896 C   0  0  0  0  0  0  0  0  0  0  0  0
   -2.2896    0.4802   -2.1740 O   0  0  0  0  0  0  0  0  0  0  0  0
   -1.0623   -0.7561   -0.4683 C   0  0  0  0  0  0  0  0  0  0  0  0
   -1.7752    0.1065    0.5614 C   0  0  0  0  0  0  0  0  0  0  0  0
   -2.9665   -0.7603    0.7963 C   0  0  0  0  0  0  0  0  0  0  0  0
   -4.1739   -0.2707    1.5025 C   0  0  0  0  0  0  0  0  0  0  0  0
   -5.2839   -1.1195    1.6134 C   0  0  0  0  0  0  0  0  0  0  0  0
   -6.4374   -0.6910    2.2761 C   0  0  0  0  0  0  0  0  0  0  0  0
   -6.4821    0.5861    2.8298 C   0  0  0  0  0  0  0  0  0  0  0  0
   -7.8995    1.1162    3.6470 Cl  0  0  0  0  0  0  0  0  0  0  0  0
   -5.3829    1.4374    2.7270 C   0  0  0  0  0  0  0  0  0  0  0  0
   -4.2270    1.0108    2.0639 C   0  0  0  0  0  0  0  0  0  0  0  0
   -2.8426   -1.9760    0.3671 N   0  0  0  0  0  0  0  0  0  0  0  0
   -1.5803   -2.0810   -0.2567 O   0  0  0  0  0  0  0  0  0  0  0  0
    5.4477    0.3334   -0.2674 H   0  0  0  0  0  0  0  0  0  0  0  0
    7.5069    2.1619   -0.3429 H   0  0  0  0  0  0  0  0  0  0  0  0
    5.3620    3.2090    2.9806 H   0  0  0  0  0  0  0  0  0  0  0  0
    0.8923    0.3524    2.2694 H   0  0  0  0  0  0  0  0  0  0  0  0
    1.9976   -0.9077    2.8100 H   0  0  0  0  0  0  0  0  0  0  0  0
    1.7164   -2.1847    0.7733 H   0  0  0  0  0  0  0  0  0  0  0  0
    0.1605   -1.8954    1.5087 H   0  0  0  0  0  0  0  0  0  0  0  0
    0.5527    1.3847    0.0126 H   0  0  0  0  0  0  0  0  0  0  0  0
    1.0625    0.9414   -1.6158 H   0  0  0  0  0  0  0  0  0  0  0  0
    2.9797    1.6580   -0.3278 H   0  0  0  0  0  0  0  0  0  0  0  0
    3.1514   -0.0712   -0.6965 H   0  0  0  0  0  0  0  0  0  0  0  0
    2.1686   -2.8240   -3.3630 H   0  0  0  0  0  0  0  0  0  0  0  0
    1.3355   -2.8635   -5.6952 H   0  0  0  0  0  0  0  0  0  0  0  0
   -2.0885   -0.5295   -4.5196 H   0  0  0  0  0  0  0  0  0  0  0  0
   -2.0364    1.1053    0.2054 H   0  0  0  0  0  0  0  0  0  0  0  0
   -1.2356    0.1864    1.5080 H   0  0  0  0  0  0  0  0  0  0  0  0
   -5.2600   -2.1191    1.1828 H   0  0  0  0  0  0  0  0  0  0  0  0
   -7.2924   -1.3578    2.3546 H   0  0  0  0  0  0  0  0  0  0  0  0
   -5.4198    2.4339    3.1606 H   0  0  0  0  0  0  0  0  0  0  0  0
   -3.3869    1.6960    2.0028 H   0  0  0  0  0  0  0  0  0  0  0  0
  1  2  2  0
  2  3  1  0
  3  4  1  0
  4  5  2  0
  5  6  1  0
  6  7  1  0
  2  8  1  0
  8  9  1  0
  9 10  1  0
 10 11  1  0
 11 12  1  0
 12 13  1  0
 11 14  1  0
 14 15  1  0
 15 16  2  0
 16 17  1  0
 17 18  2  0
 18 19  1  0
 18 20  1  0
 20 21  2  0
 21 22  1  0
 22 23  2  0
 22 24  1  0
 24 25  1  0
 25 26  1  0
 26 27  1  0
 27 28  2  0
 28 29  1  0
 29 30  2  0
 30 31  1  0
 30 32  1  0
 32 33  2  0
 26 34  2  0
 34 35  1  0
  7  3  2  0
 13  8  1  0
 21 15  1  0
 35 24  1  0
 24 11  1  0
 33 27  1  0
  4 36  1  0
  5 37  1  0
  7 38  1  0
  9 39  1  0
  9 40  1  0
 10 41  1  0
 10 42  1  0
 12 43  1  0
 12 44  1  0
 13 45  1  0
 13 46  1  0
 16 47  1  0
 17 48  1  0
 20 49  1  0
 25 50  1  0
 25 51  1  0
 28 52  1  0
 29 53  1  0
 32 54  1  0
 33 55  1  0
M  END
$$$$
