
     RDKit          3D

 27 27  0  0  0  0  0  0  0  0999 V2000
    2.6345    0.4774   -2.5767 C   0  0  0  0  0  0  0  0  0  0  0  0
    1.8284    0.2456   -1.3559 C   0  0  0  0  0  0  0  0  0  0  0  0
    2.2732   -0.0182   -0.0541 C   0  0  0  0  0  0  0  0  0  0  0  0
    1.1364   -0.1593    0.7307 C   0  0  0  0  0  0  0  0  0  0  0  0
    1.0947   -0.4381    2.1392 C   0  0  0  0  0  0  0  0  0  0  0  0
    0.1351   -0.5727    2.8800 O   0  0  0  0  0  0  0  0  0  0  0  0
    2.3407   -0.5555    2.6516 O   0  0  0  0  0  0  0  0  0  0  0  0
    0.0766    0.0276   -0.1441 N   0  0  0  0  0  0  0  0  0  0  0  0
   -1.3852   -0.0012    0.0949 C   0  0  0  0  0  0  0  0  0  0  0  0
   -2.1806    0.2691   -1.2175 C   0  0  0  0  0  0  0  0  0  0  0  0
   -1.8369   -1.3921    0.5787 C   0  0  0  0  0  0  0  0  0  0  0  0
   -1.8050    1.1105    1.0750 C   0  0  0  0  0  0  0  0  0  0  0  0
    0.4993    0.2735   -1.4114 N   0  0  0  0  0  0  0  0  0  0  0  0
    3.7059    0.4206   -2.3592 H   0  0  0  0  0  0  0  0  0  0  0  0
    2.4036   -0.2744   -3.3383 H   0  0  0  0  0  0  0  0  0  0  0  0
    2.4258    1.4683   -2.9928 H   0  0  0  0  0  0  0  0  0  0  0  0
    3.2968   -0.0988    0.2869 H   0  0  0  0  0  0  0  0  0  0  0  0
    2.1749   -0.7411    3.5981 H   0  0  0  0  0  0  0  0  0  0  0  0
   -1.9649   -0.4860   -1.9830 H   0  0  0  0  0  0  0  0  0  0  0  0
   -3.2619    0.2469   -1.0361 H   0  0  0  0  0  0  0  0  0  0  0  0
   -1.9428    1.2536   -1.6381 H   0  0  0  0  0  0  0  0  0  0  0  0
   -2.9277   -1.4385    0.6789 H   0  0  0  0  0  0  0  0  0  0  0  0
   -1.5349   -2.1701   -0.1327 H   0  0  0  0  0  0  0  0  0  0  0  0
   -1.4222   -1.6687    1.5481 H   0  0  0  0  0  0  0  0  0  0  0  0
   -2.8949    1.1419    1.1905 H   0  0  0  0  0  0  0  0  0  0  0  0
   -1.3884    0.9861    2.0745 H   0  0  0  0  0  0  0  0  0  0  0  0
   -1.4807    2.0934    0.7127 H   0  0  0  0  0  0  0  0  0  0  0  0
  1  2  1  0
  2  3  1  0
  3  4  2  0
  4  5  1  0
  5  6  2  0
  5  7  1  0
  4  8  1  0
  8  9  1  0
  9 10  1  0
  9 11  1  0
  9 12  1  0
  8 13  1  0
 13  2  2  0
  1 14  1  0
  1 15  1  0
  1 16  1  0
  3 17  1  0
  7 18  1  0
 10 19  1  0
 10 20  1  0
 10 21  1  0
 11 22  1  0
 11 23  1  0
 11 24  1  0
 12 25  1  0
 12 26  1  0
 12 27  1  0
M  END
$$$$
