
     RDKit          3D

 40 41  0  0  0  0  0  0  0  0999 V2000
    6.4847   -0.2252   -5.0061 C   0  0  0  0  0  0  0  0  0  0  0  0
    5.6512    0.3066   -3.8517 C   0  0  0  0  0  0  0  0  0  0  0  0
    4.2403   -0.2759   -3.8647 C   0  0  0  0  0  0  0  0  0  0  0  0
    3.3852    0.2423   -2.7169 C   0  0  0  0  0  0  0  0  0  0  0  0
    3.8126    1.0385   -1.8899 O   0  0  0  0  0  0  0  0  0  0  0  0
    2.1104   -0.3025   -2.7538 N   0  0  0  0  0  0  0  0  0  0  0  0
    1.0462   -0.0613   -1.8614 C   0  0  0  0  0  0  0  0  0  0  0  0
   -0.1570   -0.7346   -2.1056 C   0  0  0  0  0  0  0  0  0  0  0  0
   -1.2615   -0.5507   -1.2669 C   0  0  0  0  0  0  0  0  0  0  0  0
   -1.1761    0.3054   -0.1640 C   0  0  0  0  0  0  0  0  0  0  0  0
   -2.3789    0.4697    0.6978 C   0  0  0  0  0  0  0  0  0  0  0  0
   -3.4981    0.1705    0.2858 O   0  0  0  0  0  0  0  0  0  0  0  0
   -2.1672    0.9380    1.9816 N   0  0  0  0  0  0  0  0  0  0  0  0
   -3.2634    0.8555    2.8676 N   0  0  0  0  0  0  0  0  0  0  0  0
   -3.0099    0.3998    4.1551 C   0  0  0  0  0  0  0  0  0  0  0  0
   -1.8461    0.2871    4.5482 O   0  0  0  0  0  0  0  0  0  0  0  0
   -4.1925    0.0727    4.9408 C   0  0  0  0  0  0  0  0  0  0  0  0
   -5.5340    0.2961    4.6768 C   0  0  0  0  0  0  0  0  0  0  0  0
   -6.3866   -0.1853    5.7150 C   0  0  0  0  0  0  0  0  0  0  0  0
   -5.6736   -0.7569    6.7429 C   0  0  0  0  0  0  0  0  0  0  0  0
   -3.9904   -0.7086    6.4583 S   0  0  0  0  0  0  0  0  0  0  0  0
    0.0192    0.9902    0.0767 C   0  0  0  0  0  0  0  0  0  0  0  0
    1.1228    0.8029   -0.7673 C   0  0  0  0  0  0  0  0  0  0  0  0
    7.4907    0.2050   -4.9771 H   0  0  0  0  0  0  0  0  0  0  0  0
    6.5794   -1.3145   -4.9524 H   0  0  0  0  0  0  0  0  0  0  0  0
    6.0322    0.0338   -5.9686 H   0  0  0  0  0  0  0  0  0  0  0  0
    5.6049    1.4005   -3.9130 H   0  0  0  0  0  0  0  0  0  0  0  0
    6.1478    0.0629   -2.9048 H   0  0  0  0  0  0  0  0  0  0  0  0
    3.7416   -0.0185   -4.8068 H   0  0  0  0  0  0  0  0  0  0  0  0
    4.2897   -1.3687   -3.7890 H   0  0  0  0  0  0  0  0  0  0  0  0
    1.9186   -0.9504   -3.5077 H   0  0  0  0  0  0  0  0  0  0  0  0
   -0.2578   -1.4106   -2.9511 H   0  0  0  0  0  0  0  0  0  0  0  0
   -2.1884   -1.0814   -1.4776 H   0  0  0  0  0  0  0  0  0  0  0  0
   -1.2533    0.8566    2.4286 H   0  0  0  0  0  0  0  0  0  0  0  0
   -4.1565    0.6669    2.4165 H   0  0  0  0  0  0  0  0  0  0  0  0
   -5.9067    0.7897    3.7876 H   0  0  0  0  0  0  0  0  0  0  0  0
   -7.4675   -0.1116    5.7084 H   0  0  0  0  0  0  0  0  0  0  0  0
   -6.0584   -1.1985    7.6522 H   0  0  0  0  0  0  0  0  0  0  0  0
    0.1172    1.6943    0.8985 H   0  0  0  0  0  0  0  0  0  0  0  0
    2.0292    1.3576   -0.5421 H   0  0  0  0  0  0  0  0  0  0  0  0
  1  2  1  0
  2  3  1  0
  3  4  1  0
  4  5  2  0
  4  6  1  0
  6  7  1  0
  7  8  2  0
  8  9  1  0
  9 10  2  0
 10 11  1  0
 11 12  2  0
 11 13  1  0
 13 14  1  0
 14 15  1  0
 15 16  2  0
 15 17  1  0
 17 18  2  0
 18 19  1  0
 19 20  2  0
 20 21  1  0
 10 22  1  0
 22 23  2  0
 23  7  1  0
 21 17  1  0
  1 24  1  0
  1 25  1  0
  1 26  1  0
  2 27  1  0
  2 28  1  0
  3 29  1  0
  3 30  1  0
  6 31  1  0
  8 32  1  0
  9 33  1  0
 13 34  1  0
 14 35  1  0
 18 36  1  0
 19 37  1  0
 20 38  1  0
 22 39  1  0
 23 40  1  0
M  END
$$$$
