
     RDKit          3D

 36 37  0  0  0  0  0  0  0  0999 V2000
   -1.8044    0.1425    3.4005 O   0  0  0  0  0  0  0  0  0  0  0  0
   -1.0182    0.1281    2.4570 C   0  0  0  0  0  0  0  0  0  0  0  0
    0.4792   -0.1059    2.6419 C   0  0  0  0  0  0  0  0  0  0  0  0
    1.2135    0.3417    1.4987 O   0  0  0  0  0  0  0  0  0  0  0  0
    2.5467    0.1169    1.5962 C   0  0  0  0  0  0  0  0  0  0  0  0
    3.1282   -0.4235    2.5194 O   0  0  0  0  0  0  0  0  0  0  0  0
    3.1985    0.6482    0.3852 C   0  0  0  0  0  0  0  0  0  0  0  0
    2.7805    0.1614   -0.8626 C   0  0  0  0  0  0  0  0  0  0  0  0
    3.3847    0.6210   -2.0330 C   0  0  0  0  0  0  0  0  0  0  0  0
    4.4097    1.5623   -1.9625 C   0  0  0  0  0  0  0  0  0  0  0  0
    4.8297    2.0489   -0.7224 C   0  0  0  0  0  0  0  0  0  0  0  0
    4.2263    1.5943    0.4559 C   0  0  0  0  0  0  0  0  0  0  0  0
    4.8237    2.3519    2.0905 Br  0  0  0  0  0  0  0  0  0  0  0  0
   -1.4150    0.2758    1.1464 N   0  0  0  0  0  0  0  0  0  0  0  0
   -2.7898    0.5843    0.7979 C   0  0  0  0  0  0  0  0  0  0  0  0
   -3.0583    0.5024   -0.7079 C   0  0  0  0  0  0  0  0  0  0  0  0
   -2.8284   -0.8289   -1.2437 N   0  0  0  0  0  0  0  0  0  0  0  0
   -3.7887   -1.8088   -1.2802 C   0  0  0  0  0  0  0  0  0  0  0  0
   -5.0499   -1.5109   -0.8615 O   0  0  0  0  0  0  0  0  0  0  0  0
   -3.3580   -2.9924   -1.7318 C   0  0  0  0  0  0  0  0  0  0  0  0
   -1.6668   -2.9357   -2.1320 S   0  0  0  0  0  0  0  0  0  0  0  0
   -1.5631   -1.2394   -1.6282 C   0  0  0  0  0  0  0  0  0  0  0  0
   -0.5264   -0.5938   -1.6195 O   0  0  0  0  0  0  0  0  0  0  0  0
    0.6309   -1.1804    2.7931 H   0  0  0  0  0  0  0  0  0  0  0  0
    0.8001    0.4603    3.5235 H   0  0  0  0  0  0  0  0  0  0  0  0
    1.9868   -0.5800   -0.9290 H   0  0  0  0  0  0  0  0  0  0  0  0
    3.0542    0.2423   -2.9977 H   0  0  0  0  0  0  0  0  0  0  0  0
    4.8818    1.9205   -2.8746 H   0  0  0  0  0  0  0  0  0  0  0  0
    5.6271    2.7879   -0.6863 H   0  0  0  0  0  0  0  0  0  0  0  0
   -0.6784    0.4053    0.4534 H   0  0  0  0  0  0  0  0  0  0  0  0
   -2.9968    1.5987    1.1567 H   0  0  0  0  0  0  0  0  0  0  0  0
   -3.4448   -0.1018    1.3470 H   0  0  0  0  0  0  0  0  0  0  0  0
   -4.0846    0.8155   -0.9300 H   0  0  0  0  0  0  0  0  0  0  0  0
   -2.3897    1.1978   -1.2305 H   0  0  0  0  0  0  0  0  0  0  0  0
   -5.5926   -2.3156   -0.9248 H   0  0  0  0  0  0  0  0  0  0  0  0
   -3.9476   -3.8910   -1.8374 H   0  0  0  0  0  0  0  0  0  0  0  0
  1  2  2  0
  2  3  1  0
  3  4  1  0
  4  5  1  0
  5  6  2  0
  5  7  1  0
  7  8  2  0
  8  9  1  0
  9 10  2  0
 10 11  1  0
 11 12  2  0
 12 13  1  0
  2 14  1  0
 14 15  1  0
 15 16  1  0
 16 17  1  0
 17 18  1  0
 18 19  1  0
 18 20  2  0
 20 21  1  0
 21 22  1  0
 22 23  2  0
 12  7  1  0
 22 17  1  0
  3 24  1  0
  3 25  1  0
  8 26  1  0
  9 27  1  0
 10 28  1  0
 11 29  1  0
 14 30  1  0
 15 31  1  0
 15 32  1  0
 16 33  1  0
 16 34  1  0
 19 35  1  0
 20 36  1  0
M  END
$$$$
