
     RDKit          3D

 41 44  0  0  0  0  0  0  0  0999 V2000
   -1.0683    1.6953   -2.7333 O   0  0  0  0  0  0  0  0  0  0  0  0
   -2.0518    1.8333   -1.6823 S   0  0  0  0  0  6  0  0  0  0  0  0
   -3.0065    2.9228   -1.6946 O   0  0  0  0  0  0  0  0  0  0  0  0
   -1.2758    1.9212   -0.1824 N   0  0  0  0  0  0  0  0  0  0  0  0
   -0.0680    1.1774   -0.0009 C   0  0  0  0  0  0  0  0  0  0  0  0
   -0.1928   -0.1420    0.4431 C   0  0  0  0  0  0  0  0  0  0  0  0
    0.9355   -0.9413    0.6333 C   0  0  0  0  0  0  0  0  0  0  0  0
    0.6606   -2.6404    1.1185 S   0  0  0  0  0  0  0  0  0  0  0  0
    1.3757   -2.6872    2.7027 C   0  0  0  0  0  0  0  0  0  0  0  0
    2.6954   -2.3802    2.9172 N   0  0  0  0  0  0  0  0  0  0  0  0
    2.8299   -2.5622    4.2108 C   0  0  0  0  0  0  0  0  0  0  0  0
    1.6450   -2.9700    4.7383 N   0  0  0  0  0  0  0  0  0  0  0  0
    0.6996   -3.0641    3.7902 N   0  0  0  0  0  0  0  0  0  0  0  0
    2.1995   -0.3918    0.3690 C   0  0  0  0  0  0  0  0  0  0  0  0
    3.3441   -1.1350    0.5511 O   0  0  0  0  0  0  0  0  0  0  0  0
    2.3512    0.9357   -0.0971 C   0  0  0  0  0  0  0  0  0  0  0  0
    3.6209    1.4873   -0.3746 C   0  0  0  0  0  0  0  0  0  0  0  0
    3.7663    2.7946   -0.8366 C   0  0  0  0  0  0  0  0  0  0  0  0
    2.6421    3.5816   -1.0352 C   0  0  0  0  0  0  0  0  0  0  0  0
    1.3753    3.0610   -0.7665 C   0  0  0  0  0  0  0  0  0  0  0  0
    1.1998    1.7387   -0.2911 C   0  0  0  0  0  0  0  0  0  0  0  0
   -2.9727    0.3225   -1.5545 C   0  0  0  0  0  0  0  0  0  0  0  0
   -2.5150   -0.8271   -2.2058 C   0  0  0  0  0  0  0  0  0  0  0  0
   -3.2445   -2.0107   -2.0992 C   0  0  0  0  0  0  0  0  0  0  0  0
   -4.4271   -2.0385   -1.3576 C   0  0  0  0  0  0  0  0  0  0  0  0
   -4.8882   -0.8833   -0.7230 C   0  0  0  0  0  0  0  0  0  0  0  0
   -4.1637    0.3042   -0.8224 C   0  0  0  0  0  0  0  0  0  0  0  0
   -1.3084    2.8668    0.1956 H   0  0  0  0  0  0  0  0  0  0  0  0
   -1.1814   -0.5457    0.6510 H   0  0  0  0  0  0  0  0  0  0  0  0
    3.7265   -2.4225    4.7983 H   0  0  0  0  0  0  0  0  0  0  0  0
    1.4133   -3.1983    5.6991 H   0  0  0  0  0  0  0  0  0  0  0  0
    3.1727   -1.7817    1.2675 H   0  0  0  0  0  0  0  0  0  0  0  0
    4.5163    0.8832   -0.2347 H   0  0  0  0  0  0  0  0  0  0  0  0
    4.7565    3.1887   -1.0486 H   0  0  0  0  0  0  0  0  0  0  0  0
    2.7453    4.5970   -1.4088 H   0  0  0  0  0  0  0  0  0  0  0  0
    0.5178    3.7024   -0.9550 H   0  0  0  0  0  0  0  0  0  0  0  0
   -1.5953   -0.8107   -2.7870 H   0  0  0  0  0  0  0  0  0  0  0  0
   -2.8930   -2.9120   -2.5960 H   0  0  0  0  0  0  0  0  0  0  0  0
   -4.9942   -2.9631   -1.2786 H   0  0  0  0  0  0  0  0  0  0  0  0
   -5.8145   -0.9099   -0.1540 H   0  0  0  0  0  0  0  0  0  0  0  0
   -4.5281    1.2038   -0.3319 H   0  0  0  0  0  0  0  0  0  0  0  0
  1  2  2  0
  2  3  2  0
  2  4  1  0
  4  5  1  0
  5  6  2  0
  6  7  1  0
  7  8  1  0
  8  9  1  0
  9 10  1  0
 10 11  2  0
 11 12  1  0
 12 13  1  0
  7 14  2  0
 14 15  1  0
 14 16  1  0
 16 17  2  0
 17 18  1  0
 18 19  2  0
 19 20  1  0
 20 21  2  0
  2 22  1  0
 22 23  2  0
 23 24  1  0
 24 25  2  0
 25 26  1  0
 26 27  2  0
 21  5  1  0
 27 22  1  0
 13  9  2  0
 21 16  1  0
  4 28  1  0
  6 29  1  0
 11 30  1  0
 12 31  1  0
 15 32  1  0
 17 33  1  0
 18 34  1  0
 19 35  1  0
 20 36  1  0
 23 37  1  0
 24 38  1  0
 25 39  1  0
 26 40  1  0
 27 41  1  0
M  END
$$$$
