
     RDKit          3D

 38 40  0  0  0  0  0  0  0  0999 V2000
    1.1092   -0.4359   -2.0636 O   0  0  0  0  0  0  0  0  0  0  0  0
    0.6430   -0.8200   -0.9943 C   0  0  0  0  0  0  0  0  0  0  0  0
    1.4078   -1.4245   -0.0315 N   0  0  0  0  0  0  0  0  0  0  0  0
    2.8336   -1.5913   -0.2132 C   0  0  0  0  0  0  0  0  0  0  0  0
    3.6025   -0.4698    0.4415 C   0  0  0  0  0  0  0  0  0  0  0  0
    3.7607    0.7586   -0.2180 C   0  0  0  0  0  0  0  0  0  0  0  0
    4.4509    1.8083    0.3918 C   0  0  0  0  0  0  0  0  0  0  0  0
    4.9830    1.6366    1.6672 C   0  0  0  0  0  0  0  0  0  0  0  0
    5.8330    2.9287    2.4213 Cl  0  0  0  0  0  0  0  0  0  0  0  0
    4.8284    0.4255    2.3389 C   0  0  0  0  0  0  0  0  0  0  0  0
    4.1368   -0.6244    1.7294 C   0  0  0  0  0  0  0  0  0  0  0  0
   -0.6942   -0.6704   -0.6597 N   0  0  0  0  0  0  0  0  0  0  0  0
   -1.4049   -1.5595    0.2594 C   0  0  0  0  0  0  0  0  0  0  0  0
   -2.4841   -0.8020    1.0291 C   0  0  0  0  0  0  0  0  0  0  0  0
   -3.3714   -0.0062    0.1078 C   0  0  0  0  0  0  0  0  0  0  0  0
   -4.6470    0.3906    0.5323 C   0  0  0  0  0  0  0  0  0  0  0  0
   -5.4628    1.1526   -0.3031 C   0  0  0  0  0  0  0  0  0  0  0  0
   -5.0086    1.5311   -1.5638 C   0  0  0  0  0  0  0  0  0  0  0  0
   -3.7353    1.1521   -1.9892 C   0  0  0  0  0  0  0  0  0  0  0  0
   -2.9011    0.3893   -1.1574 C   0  0  0  0  0  0  0  0  0  0  0  0
   -1.5313   -0.0121   -1.6583 C   0  0  0  0  0  0  0  0  0  0  0  0
    1.1204   -1.2161    0.9114 H   0  0  0  0  0  0  0  0  0  0  0  0
    3.1032   -2.5487    0.2465 H   0  0  0  0  0  0  0  0  0  0  0  0
    3.0896   -1.6618   -1.2764 H   0  0  0  0  0  0  0  0  0  0  0  0
    3.3386    0.9024   -1.2124 H   0  0  0  0  0  0  0  0  0  0  0  0
    4.5649    2.7532   -0.1326 H   0  0  0  0  0  0  0  0  0  0  0  0
    5.2422    0.2933    3.3350 H   0  0  0  0  0  0  0  0  0  0  0  0
    4.0207   -1.5638    2.2656 H   0  0  0  0  0  0  0  0  0  0  0  0
   -1.8492   -2.3592   -0.3477 H   0  0  0  0  0  0  0  0  0  0  0  0
   -0.7290   -2.0466    0.9667 H   0  0  0  0  0  0  0  0  0  0  0  0
   -3.0805   -1.5186    1.6055 H   0  0  0  0  0  0  0  0  0  0  0  0
   -2.0142   -0.1060    1.7348 H   0  0  0  0  0  0  0  0  0  0  0  0
   -5.0113    0.1083    1.5174 H   0  0  0  0  0  0  0  0  0  0  0  0
   -6.4522    1.4538    0.0308 H   0  0  0  0  0  0  0  0  0  0  0  0
   -5.6443    2.1252   -2.2151 H   0  0  0  0  0  0  0  0  0  0  0  0
   -3.3921    1.4582   -2.9755 H   0  0  0  0  0  0  0  0  0  0  0  0
   -1.0048    0.8785   -2.0232 H   0  0  0  0  0  0  0  0  0  0  0  0
   -1.6502   -0.7095   -2.4973 H   0  0  0  0  0  0  0  0  0  0  0  0
  1  2  2  0
  2  3  1  0
  3  4  1  0
  4  5  1  0
  5  6  2  0
  6  7  1  0
  7  8  2  0
  8  9  1  0
  8 10  1  0
 10 11  2  0
  2 12  1  0
 12 13  1  0
 13 14  1  0
 14 15  1  0
 15 16  2  0
 16 17  1  0
 17 18  2  0
 18 19  1  0
 19 20  2  0
 20 21  1  0
 11  5  1  0
 21 12  1  0
 20 15  1  0
  3 22  1  0
  4 23  1  0
  4 24  1  0
  6 25  1  0
  7 26  1  0
 10 27  1  0
 11 28  1  0
 13 29  1  0
 13 30  1  0
 14 31  1  0
 14 32  1  0
 16 33  1  0
 17 34  1  0
 18 35  1  0
 19 36  1  0
 21 37  1  0
 21 38  1  0
M  END
$$$$
