
     RDKit          3D

 37 40  0  0  0  0  0  0  0  0999 V2000
   -3.1207    3.0379    0.4242 C   0  0  0  0  0  0  0  0  0  0  0  0
   -2.3780    1.7162    0.3575 C   0  0  0  0  0  0  0  0  0  0  0  0
   -2.3410    1.2648   -1.0019 O   0  0  0  0  0  0  0  0  0  0  0  0
   -2.9666    0.0619   -1.2165 C   0  0  0  0  0  0  0  0  0  0  0  0
   -4.2763   -0.1761   -0.7879 C   0  0  0  0  0  0  0  0  0  0  0  0
   -4.8941   -1.3966   -1.0647 C   0  0  0  0  0  0  0  0  0  0  0  0
   -4.2143   -2.3756   -1.7863 C   0  0  0  0  0  0  0  0  0  0  0  0
   -2.9170   -2.1336   -2.2409 C   0  0  0  0  0  0  0  0  0  0  0  0
   -2.2848   -0.9141   -1.9630 C   0  0  0  0  0  0  0  0  0  0  0  0
   -0.9331   -0.6920   -2.4899 C   0  0  0  0  0  0  0  0  0  0  0  0
    0.1872   -0.6139   -1.7576 C   0  0  0  0  0  0  0  0  0  0  0  0
    1.7519   -0.2872   -2.5063 S   0  0  0  0  0  0  0  0  0  0  0  0
    2.4884   -0.3050   -0.9607 C   0  0  0  0  0  0  0  0  0  0  0  0
    3.6983   -0.1354   -0.5117 N   0  0  0  0  0  0  0  0  0  0  0  0
    3.5097   -0.3082    0.8531 C   0  0  0  0  0  0  0  0  0  0  0  0
    4.6909   -0.1999    1.8720 C   0  0  0  0  0  0  0  0  0  0  0  0
    6.0063    0.0692    1.5448 C   0  0  0  0  0  0  0  0  0  0  0  0
    6.7354    0.0766    2.7588 C   0  0  0  0  0  0  0  0  0  0  0  0
    5.8225   -0.1879    3.7517 C   0  0  0  0  0  0  0  0  0  0  0  0
    4.5826   -0.3567    3.2261 O   0  0  0  0  0  0  0  0  0  0  0  0
    2.2425   -0.5742    1.2293 N   0  0  0  0  0  0  0  0  0  0  0  0
    1.6214   -0.5621    0.0375 N   0  0  0  0  0  0  0  0  0  0  0  0
    0.2930   -0.7731   -0.2679 C   0  0  0  0  0  0  0  0  0  0  0  0
   -0.5480   -1.0405    0.5693 O   0  0  0  0  0  0  0  0  0  0  0  0
   -3.1195    3.4331    1.4439 H   0  0  0  0  0  0  0  0  0  0  0  0
   -4.1573    2.9224    0.0929 H   0  0  0  0  0  0  0  0  0  0  0  0
   -2.6554    3.7742   -0.2395 H   0  0  0  0  0  0  0  0  0  0  0  0
   -2.8099    0.9858    1.0526 H   0  0  0  0  0  0  0  0  0  0  0  0
   -1.3398    1.8745    0.6698 H   0  0  0  0  0  0  0  0  0  0  0  0
   -4.8323    0.5841   -0.2485 H   0  0  0  0  0  0  0  0  0  0  0  0
   -5.9092   -1.5805   -0.7220 H   0  0  0  0  0  0  0  0  0  0  0  0
   -4.6973   -3.3254   -2.0015 H   0  0  0  0  0  0  0  0  0  0  0  0
   -2.4054   -2.9047   -2.8121 H   0  0  0  0  0  0  0  0  0  0  0  0
   -0.8975   -0.5678   -3.5702 H   0  0  0  0  0  0  0  0  0  0  0  0
    6.3843    0.2385    0.5458 H   0  0  0  0  0  0  0  0  0  0  0  0
    7.7933    0.2525    2.8937 H   0  0  0  0  0  0  0  0  0  0  0  0
    5.8898   -0.2852    4.8264 H   0  0  0  0  0  0  0  0  0  0  0  0
  1  2  1  0
  2  3  1  0
  3  4  1  0
  4  5  2  0
  5  6  1  0
  6  7  2  0
  7  8  1  0
  8  9  2  0
  9 10  1  0
 10 11  2  3
 11 12  1  0
 12 13  1  0
 13 14  2  0
 14 15  1  0
 15 16  1  0
 16 17  2  0
 17 18  1  0
 18 19  2  0
 19 20  1  0
 15 21  2  0
 21 22  1  0
 22 23  1  0
 23 24  2  0
  9  4  1  0
 23 11  1  0
 22 13  1  0
 20 16  1  0
  1 25  1  0
  1 26  1  0
  1 27  1  0
  2 28  1  0
  2 29  1  0
  5 30  1  0
  6 31  1  0
  7 32  1  0
  8 33  1  0
 10 34  1  0
 17 35  1  0
 18 36  1  0
 19 37  1  0
M  END
$$$$
