
     RDKit          3D

 33 34  0  0  0  0  0  0  0  0999 V2000
   -3.9193   -1.4480   -2.6495 C   0  0  0  0  0  0  0  0  0  0  0  0
   -3.3654   -0.6722   -1.4895 C   0  0  0  0  0  0  0  0  0  0  0  0
   -4.1038    0.3739   -0.9252 C   0  0  0  0  0  0  0  0  0  0  0  0
   -3.5836    1.1101    0.1383 C   0  0  0  0  0  0  0  0  0  0  0  0
   -2.3174    0.8142    0.6367 C   0  0  0  0  0  0  0  0  0  0  0  0
   -1.8931    1.5855    1.6864 O   0  0  0  0  0  0  0  0  0  0  0  0
   -1.5456   -0.2127    0.0716 C   0  0  0  0  0  0  0  0  0  0  0  0
   -0.1787   -0.4940    0.6071 C   0  0  0  0  0  0  0  0  0  0  0  0
    0.1567    0.0548    1.6567 O   0  0  0  0  0  0  0  0  0  0  0  0
    0.7264   -1.4327   -0.1543 C   0  0  0  0  0  0  0  0  0  0  0  0
    2.1681   -1.4991    0.2893 C   0  0  0  0  0  0  0  0  0  0  0  0
    2.8117   -2.5446    0.2178 O   0  0  0  0  0  0  0  0  0  0  0  0
    2.8691   -0.2564    0.6764 C   0  0  0  0  0  0  0  0  0  0  0  0
    2.9455    0.7867   -0.2580 C   0  0  0  0  0  0  0  0  0  0  0  0
    3.6116    1.9676    0.0726 C   0  0  0  0  0  0  0  0  0  0  0  0
    4.2023    2.1071    1.3280 C   0  0  0  0  0  0  0  0  0  0  0  0
    4.1295    1.0662    2.2567 C   0  0  0  0  0  0  0  0  0  0  0  0
    3.4642   -0.1206    1.9350 C   0  0  0  0  0  0  0  0  0  0  0  0
    3.3770   -1.3489    3.1452 Cl  0  0  0  0  0  0  0  0  0  0  0  0
   -2.0814   -0.9531   -0.9942 C   0  0  0  0  0  0  0  0  0  0  0  0
   -5.0125   -1.4937   -2.6032 H   0  0  0  0  0  0  0  0  0  0  0  0
   -3.5509   -2.4793   -2.6408 H   0  0  0  0  0  0  0  0  0  0  0  0
   -3.6243   -0.9738   -3.5907 H   0  0  0  0  0  0  0  0  0  0  0  0
   -5.0934    0.6199   -1.3055 H   0  0  0  0  0  0  0  0  0  0  0  0
   -4.1649    1.9147    0.5816 H   0  0  0  0  0  0  0  0  0  0  0  0
   -1.0395    1.2177    2.0086 H   0  0  0  0  0  0  0  0  0  0  0  0
    0.3122   -2.4413   -0.0372 H   0  0  0  0  0  0  0  0  0  0  0  0
    0.7321   -1.1639   -1.2160 H   0  0  0  0  0  0  0  0  0  0  0  0
    2.5065    0.6854   -1.2469 H   0  0  0  0  0  0  0  0  0  0  0  0
    3.6744    2.7791   -0.6490 H   0  0  0  0  0  0  0  0  0  0  0  0
    4.7203    3.0280    1.5866 H   0  0  0  0  0  0  0  0  0  0  0  0
    4.5894    1.1889    3.2346 H   0  0  0  0  0  0  0  0  0  0  0  0
   -1.5233   -1.7654   -1.4524 H   0  0  0  0  0  0  0  0  0  0  0  0
  1  2  1  0
  2  3  2  0
  3  4  1  0
  4  5  2  0
  5  6  1  0
  5  7  1  0
  7  8  1  0
  8  9  2  0
  8 10  1  0
 10 11  1  0
 11 12  2  0
 11 13  1  0
 13 14  2  0
 14 15  1  0
 15 16  2  0
 16 17  1  0
 17 18  2  0
 18 19  1  0
  7 20  2  0
 20  2  1  0
 18 13  1  0
  1 21  1  0
  1 22  1  0
  1 23  1  0
  3 24  1  0
  4 25  1  0
  6 26  1  0
 10 27  1  0
 10 28  1  0
 14 29  1  0
 15 30  1  0
 16 31  1  0
 17 32  1  0
 20 33  1  0
M  END
$$$$
