
     RDKit          3D

 42 44  0  0  0  0  0  0  0  0999 V2000
   -3.2627    4.0044    0.3070 C   0  0  0  0  0  0  0  0  0  0  0  0
   -1.9705    3.2288    0.1409 C   0  0  0  0  0  0  0  0  0  0  0  0
   -2.2769    1.8328    0.2213 O   0  0  0  0  0  0  0  0  0  0  0  0
   -1.1970    1.0092    0.0828 C   0  0  0  0  0  0  0  0  0  0  0  0
   -0.0509    1.4084   -0.0948 O   0  0  0  0  0  0  0  0  0  0  0  0
   -1.5500   -0.4051    0.1722 C   0  0  0  0  0  0  0  0  0  0  0  0
   -0.6126   -1.4391    0.0862 C   0  0  0  0  0  0  0  0  0  0  0  0
    0.7515   -1.2974   -0.0976 N   0  0  0  0  0  0  0  0  0  0  0  0
    1.7144   -2.2846   -0.1859 C   0  0  0  0  0  0  0  0  0  0  0  0
    1.5560   -3.4977   -0.1184 O   0  0  0  0  0  0  0  0  0  0  0  0
    3.0590   -1.7075   -0.3834 C   0  0  0  0  0  0  0  0  0  0  0  0
    4.2839   -2.4123   -0.5135 C   0  0  0  0  0  0  0  0  0  0  0  0
    5.2471   -1.4461   -0.6766 C   0  0  0  0  0  0  0  0  0  0  0  0
    4.5897   -0.2528   -0.6370 N   0  0  0  0  0  0  0  0  0  0  0  0
    5.1790    1.0662   -0.7679 C   0  0  0  0  0  0  0  0  0  0  0  0
    5.4173    1.7230    0.5798 C   0  0  0  0  0  0  0  0  0  0  0  0
    3.2603   -0.3752   -0.4636 N   0  0  0  0  0  0  0  0  0  0  0  0
   -1.3227   -2.9946    0.2389 S   0  0  0  0  0  0  0  0  0  0  0  0
   -2.8369   -2.3246    0.4105 C   0  0  0  0  0  0  0  0  0  0  0  0
   -2.8503   -0.9601    0.3567 C   0  0  0  0  0  0  0  0  0  0  0  0
   -4.2343   -0.4408    0.5182 C   0  0  0  0  0  0  0  0  0  0  0  0
   -5.1000   -1.7270    0.3359 C   0  0  0  0  0  0  0  0  0  0  0  0
   -4.1662   -2.9430    0.6140 C   0  0  0  0  0  0  0  0  0  0  0  0
   -3.9815    3.7267   -0.4712 H   0  0  0  0  0  0  0  0  0  0  0  0
   -3.7305    3.7721    1.2695 H   0  0  0  0  0  0  0  0  0  0  0  0
   -3.0814    5.0814    0.2527 H   0  0  0  0  0  0  0  0  0  0  0  0
   -1.2706    3.5010    0.9387 H   0  0  0  0  0  0  0  0  0  0  0  0
   -1.5264    3.4553   -0.8349 H   0  0  0  0  0  0  0  0  0  0  0  0
    1.1161   -0.3448   -0.1824 H   0  0  0  0  0  0  0  0  0  0  0  0
    4.4238   -3.4844   -0.4884 H   0  0  0  0  0  0  0  0  0  0  0  0
    6.3177   -1.5097   -0.8115 H   0  0  0  0  0  0  0  0  0  0  0  0
    6.1228    0.9578   -1.3133 H   0  0  0  0  0  0  0  0  0  0  0  0
    4.5032    1.6709   -1.3827 H   0  0  0  0  0  0  0  0  0  0  0  0
    5.8681    2.7112    0.4468 H   0  0  0  0  0  0  0  0  0  0  0  0
    4.4791    1.8469    1.1311 H   0  0  0  0  0  0  0  0  0  0  0  0
    6.0904    1.1197    1.1983 H   0  0  0  0  0  0  0  0  0  0  0  0
   -4.3723   -0.0252    1.5218 H   0  0  0  0  0  0  0  0  0  0  0  0
   -4.4973    0.3132   -0.2287 H   0  0  0  0  0  0  0  0  0  0  0  0
   -5.9855   -1.7263    0.9790 H   0  0  0  0  0  0  0  0  0  0  0  0
   -5.4492   -1.7761   -0.7041 H   0  0  0  0  0  0  0  0  0  0  0  0
   -4.3724   -3.7669   -0.0745 H   0  0  0  0  0  0  0  0  0  0  0  0
   -4.2818   -3.2877    1.6466 H   0  0  0  0  0  0  0  0  0  0  0  0
  1  2  1  0
  2  3  1  0
  3  4  1  0
  4  5  2  0
  4  6  1  0
  6  7  2  0
  7  8  1  0
  8  9  1  0
  9 10  2  0
  9 11  1  0
 11 12  1  0
 12 13  2  0
 13 14  1  0
 14 15  1  0
 15 16  1  0
 14 17  1  0
  7 18  1  0
 18 19  1  0
 19 20  2  0
 20 21  1  0
 21 22  1  0
 22 23  1  0
 20  6  1  0
 17 11  2  0
 23 19  1  0
  1 24  1  0
  1 25  1  0
  1 26  1  0
  2 27  1  0
  2 28  1  0
  8 29  1  0
 12 30  1  0
 13 31  1  0
 15 32  1  0
 15 33  1  0
 16 34  1  0
 16 35  1  0
 16 36  1  0
 21 37  1  0
 21 38  1  0
 22 39  1  0
 22 40  1  0
 23 41  1  0
 23 42  1  0
M  END
$$$$
