
     RDKit          3D

 39 40  0  0  0  0  0  0  0  0999 V2000
   -0.9835   -2.1124    0.9689 O   0  0  0  0  0  0  0  0  0  0  0  0
   -1.1212   -1.0376    0.3854 C   0  0  0  0  0  0  0  0  0  0  0  0
   -2.5102   -0.5396    0.1740 C   0  0  0  0  0  0  0  0  0  0  0  0
   -2.8350    0.5327   -0.5631 C   0  0  0  0  0  0  0  0  0  0  0  0
   -4.2209    0.9844   -0.7576 C   0  0  0  0  0  0  0  0  0  0  0  0
   -4.5995    1.4863   -2.0101 C   0  0  0  0  0  0  0  0  0  0  0  0
   -5.8993    1.9505   -2.2252 C   0  0  0  0  0  0  0  0  0  0  0  0
   -6.8204    1.9255   -1.1862 C   0  0  0  0  0  0  0  0  0  0  0  0
   -8.0766    2.3889   -1.4400 O   0  0  0  0  0  0  0  0  0  0  0  0
   -6.4629    1.4472    0.0691 C   0  0  0  0  0  0  0  0  0  0  0  0
   -5.1615    0.9820    0.2831 C   0  0  0  0  0  0  0  0  0  0  0  0
    0.0457   -0.2506   -0.1536 C   0  0  0  0  0  0  0  0  0  0  0  0
    1.3821   -0.6373    0.4307 C   0  0  0  0  0  0  0  0  0  0  0  0
    1.9794    0.1278    1.1844 O   0  0  0  0  0  0  0  0  0  0  0  0
    1.9533   -1.9553    0.0171 C   0  0  0  0  0  0  0  0  0  0  0  0
    3.2478   -2.3098    0.0170 C   0  0  0  0  0  0  0  0  0  0  0  0
    4.4162   -1.4978    0.3735 C   0  0  0  0  0  0  0  0  0  0  0  0
    5.3260   -1.9948    1.3156 C   0  0  0  0  0  0  0  0  0  0  0  0
    6.4746   -1.2699    1.6410 C   0  0  0  0  0  0  0  0  0  0  0  0
    6.7177   -0.0516    1.0199 C   0  0  0  0  0  0  0  0  0  0  0  0
    7.8481    0.6262    1.3690 O   0  0  0  0  0  0  0  0  0  0  0  0
    5.8341    0.4530    0.0719 C   0  0  0  0  0  0  0  0  0  0  0  0
    4.6870   -0.2760   -0.2557 C   0  0  0  0  0  0  0  0  0  0  0  0
   -3.2671   -1.1479    0.6619 H   0  0  0  0  0  0  0  0  0  0  0  0
   -2.0856    1.1213   -1.0844 H   0  0  0  0  0  0  0  0  0  0  0  0
   -3.8914    1.5142   -2.8351 H   0  0  0  0  0  0  0  0  0  0  0  0
   -6.1906    2.3315   -3.2000 H   0  0  0  0  0  0  0  0  0  0  0  0
   -8.6071    2.3109   -0.6302 H   0  0  0  0  0  0  0  0  0  0  0  0
   -7.1730    1.4328    0.8899 H   0  0  0  0  0  0  0  0  0  0  0  0
   -4.8913    0.6296    1.2760 H   0  0  0  0  0  0  0  0  0  0  0  0
    0.0906   -0.3682   -1.2417 H   0  0  0  0  0  0  0  0  0  0  0  0
   -0.1004    0.8127    0.0687 H   0  0  0  0  0  0  0  0  0  0  0  0
    1.2183   -2.6897   -0.3005 H   0  0  0  0  0  0  0  0  0  0  0  0
    3.4959   -3.3296   -0.2742 H   0  0  0  0  0  0  0  0  0  0  0  0
    5.1432   -2.9446    1.8121 H   0  0  0  0  0  0  0  0  0  0  0  0
    7.1725   -1.6531    2.3796 H   0  0  0  0  0  0  0  0  0  0  0  0
    7.8459    1.4817    0.9098 H   0  0  0  0  0  0  0  0  0  0  0  0
    6.0158    1.4029   -0.4196 H   0  0  0  0  0  0  0  0  0  0  0  0
    4.0030    0.1234   -0.9994 H   0  0  0  0  0  0  0  0  0  0  0  0
  1  2  2  0
  2  3  1  0
  3  4  2  3
  4  5  1  0
  5  6  2  0
  6  7  1  0
  7  8  2  0
  8  9  1  0
  8 10  1  0
 10 11  2  0
  2 12  1  0
 12 13  1  0
 13 14  2  0
 13 15  1  0
 15 16  2  3
 16 17  1  0
 17 18  2  0
 18 19  1  0
 19 20  2  0
 20 21  1  0
 20 22  1  0
 22 23  2  0
 11  5  1  0
 23 17  1  0
  3 24  1  0
  4 25  1  0
  6 26  1  0
  7 27  1  0
  9 28  1  0
 10 29  1  0
 11 30  1  0
 12 31  1  0
 12 32  1  0
 15 33  1  0
 16 34  1  0
 18 35  1  0
 19 36  1  0
 21 37  1  0
 22 38  1  0
 23 39  1  0
M  END
$$$$
