
     RDKit          3D

 23 24  0  0  0  0  0  0  0  0999 V2000
    2.8360    0.5772   -2.6760 O   0  0  0  0  0  0  0  0  0  0  0  0
    2.7237    0.4833   -1.4685 C   0  0  0  0  0  0  0  0  0  0  0  0
    3.7280    0.6341   -0.5607 O   0  0  0  0  0  0  0  0  0  0  0  0
    3.1793    0.6589    0.7592 C   0  0  0  0  0  0  0  0  0  0  0  0
    1.8641   -0.0775    0.6914 C   0  0  0  0  0  0  0  0  0  0  0  0
    1.4870    0.1701   -0.7192 C   0  0  0  0  0  0  0  0  0  0  0  0
    0.2846    0.1882   -1.3108 C   0  0  0  0  0  0  0  0  0  0  0  0
   -0.9752   -0.0854   -0.6161 C   0  0  0  0  0  0  0  0  0  0  0  0
   -1.2097   -1.3136    0.0135 C   0  0  0  0  0  0  0  0  0  0  0  0
   -2.4242   -1.5544    0.6595 C   0  0  0  0  0  0  0  0  0  0  0  0
   -3.4136   -0.5727    0.6738 C   0  0  0  0  0  0  0  0  0  0  0  0
   -3.1924    0.6480    0.0382 C   0  0  0  0  0  0  0  0  0  0  0  0
   -1.9786    0.8898   -0.6087 C   0  0  0  0  0  0  0  0  0  0  0  0
    3.8759    0.1772    1.4522 H   0  0  0  0  0  0  0  0  0  0  0  0
    3.0550    1.7045    1.0643 H   0  0  0  0  0  0  0  0  0  0  0  0
    2.0171   -1.1505    0.8510 H   0  0  0  0  0  0  0  0  0  0  0  0
    1.1516    0.2984    1.4301 H   0  0  0  0  0  0  0  0  0  0  0  0
    0.1956    0.4353   -2.3679 H   0  0  0  0  0  0  0  0  0  0  0  0
   -0.4554   -2.0966   -0.0035 H   0  0  0  0  0  0  0  0  0  0  0  0
   -2.6007   -2.5106    1.1453 H   0  0  0  0  0  0  0  0  0  0  0  0
   -4.3601   -0.7614    1.1741 H   0  0  0  0  0  0  0  0  0  0  0  0
   -3.9662    1.4114    0.0427 H   0  0  0  0  0  0  0  0  0  0  0  0
   -1.8220    1.8461   -1.1028 H   0  0  0  0  0  0  0  0  0  0  0  0
  1  2  2  0
  2  3  1  0
  3  4  1  0
  4  5  1  0
  5  6  1  0
  6  7  2  3
  7  8  1  0
  8  9  2  0
  9 10  1  0
 10 11  2  0
 11 12  1  0
 12 13  2  0
  6  2  1  0
 13  8  1  0
  4 14  1  0
  4 15  1  0
  5 16  1  0
  5 17  1  0
  7 18  1  0
  9 19  1  0
 10 20  1  0
 11 21  1  0
 12 22  1  0
 13 23  1  0
M  END
$$$$
