
     RDKit          3D

 43 45  0  0  0  0  0  0  0  0999 V2000
    7.4503   -0.8988    2.1516 O   0  0  0  0  0  0  0  0  0  0  0  0
    8.0236   -0.6789    1.0985 C   0  0  0  0  0  0  0  0  0  0  0  0
    9.3604   -0.8585    1.0125 O   0  0  0  0  0  0  0  0  0  0  0  0
    7.4436   -0.1715   -0.1990 C   0  0  0  0  0  0  0  0  0  0  0  0
    5.9345   -0.1742   -0.2414 C   0  0  0  0  0  0  0  0  0  0  0  0
    5.2008    0.8355    0.3909 C   0  0  0  0  0  0  0  0  0  0  0  0
    3.8027    0.8236    0.3560 C   0  0  0  0  0  0  0  0  0  0  0  0
    3.1108   -0.1939   -0.3117 C   0  0  0  0  0  0  0  0  0  0  0  0
    1.7013   -0.1346   -0.2940 N   0  0  0  0  0  0  0  0  0  0  0  0
    0.8181   -0.9734   -0.9489 C   0  0  0  0  0  0  0  0  0  0  0  0
    1.0989   -1.8755   -1.7290 O   0  0  0  0  0  0  0  0  0  0  0  0
   -0.6236   -0.6918   -0.6921 C   0  0  0  0  0  0  0  0  0  0  0  0
   -1.0836   -0.2450    0.5506 C   0  0  0  0  0  0  0  0  0  0  0  0
   -2.4477    0.0085    0.7486 C   0  0  0  0  0  0  0  0  0  0  0  0
   -3.3675   -0.1899   -0.2839 C   0  0  0  0  0  0  0  0  0  0  0  0
   -4.7549    0.0391   -0.1678 N   0  0  0  0  0  0  0  0  0  0  0  0
   -5.4478    0.5481    0.9244 C   0  0  0  0  0  0  0  0  0  0  0  0
   -4.9127    0.9097    1.9684 O   0  0  0  0  0  0  0  0  0  0  0  0
   -6.8906    0.6325    0.7243 C   0  0  0  0  0  0  0  0  0  0  0  0
   -7.7450    0.2408   -0.2956 C   0  0  0  0  0  0  0  0  0  0  0  0
   -9.0583    0.5988    0.1013 C   0  0  0  0  0  0  0  0  0  0  0  0
   -8.9360    1.1852    1.3361 C   0  0  0  0  0  0  0  0  0  0  0  0
   -7.6372    1.2098    1.7213 O   0  0  0  0  0  0  0  0  0  0  0  0
   -2.9025   -0.6606   -1.5192 C   0  0  0  0  0  0  0  0  0  0  0  0
   -1.5420   -0.9134   -1.7224 C   0  0  0  0  0  0  0  0  0  0  0  0
    3.8416   -1.2048   -0.9349 C   0  0  0  0  0  0  0  0  0  0  0  0
    5.2412   -1.1972   -0.8989 C   0  0  0  0  0  0  0  0  0  0  0  0
    9.6084   -1.1774    1.9062 H   0  0  0  0  0  0  0  0  0  0  0  0
    7.8071    0.8496   -0.3639 H   0  0  0  0  0  0  0  0  0  0  0  0
    7.8302   -0.7936   -1.0154 H   0  0  0  0  0  0  0  0  0  0  0  0
    5.7107    1.6347    0.9245 H   0  0  0  0  0  0  0  0  0  0  0  0
    3.2670    1.6223    0.8621 H   0  0  0  0  0  0  0  0  0  0  0  0
    1.3067    0.6509    0.2059 H   0  0  0  0  0  0  0  0  0  0  0  0
   -0.4058   -0.1169    1.3907 H   0  0  0  0  0  0  0  0  0  0  0  0
   -2.7566    0.3464    1.7334 H   0  0  0  0  0  0  0  0  0  0  0  0
   -5.2996   -0.1739   -0.9900 H   0  0  0  0  0  0  0  0  0  0  0  0
   -7.4734   -0.2511   -1.2181 H   0  0  0  0  0  0  0  0  0  0  0  0
   -9.9798    0.4456   -0.4430 H   0  0  0  0  0  0  0  0  0  0  0  0
   -9.6388    1.6134    2.0377 H   0  0  0  0  0  0  0  0  0  0  0  0
   -3.5873   -0.8398   -2.3444 H   0  0  0  0  0  0  0  0  0  0  0  0
   -1.1994   -1.2826   -2.6876 H   0  0  0  0  0  0  0  0  0  0  0  0
    3.3528   -2.0241   -1.4527 H   0  0  0  0  0  0  0  0  0  0  0  0
    5.7795   -2.0047   -1.3909 H   0  0  0  0  0  0  0  0  0  0  0  0
  1  2  2  0
  2  3  1  0
  2  4  1  0
  4  5  1  0
  5  6  2  0
  6  7  1  0
  7  8  2  0
  8  9  1  0
  9 10  1  0
 10 11  2  0
 10 12  1  0
 12 13  2  0
 13 14  1  0
 14 15  2  0
 15 16  1  0
 16 17  1  0
 17 18  2  0
 17 19  1  0
 19 20  2  0
 20 21  1  0
 21 22  2  0
 22 23  1  0
 15 24  1  0
 24 25  2  0
  8 26  1  0
 26 27  2  0
 27  5  1  0
 25 12  1  0
 23 19  1  0
  3 28  1  0
  4 29  1  0
  4 30  1  0
  6 31  1  0
  7 32  1  0
  9 33  1  0
 13 34  1  0
 14 35  1  0
 16 36  1  0
 20 37  1  0
 21 38  1  0
 22 39  1  0
 24 40  1  0
 25 41  1  0
 26 42  1  0
 27 43  1  0
M  END
$$$$
