
     RDKit          3D

 68 71  0  0  0  0  0  0  0  0999 V2000
   -2.5892   -6.1139    1.7149 C   0  0  0  0  0  0  0  0  0  0  0  0
   -2.2263   -4.7004    1.3716 C   0  0  0  0  0  0  0  0  0  0  0  0
   -3.2023   -3.8112    0.9100 C   0  0  0  0  0  0  0  0  0  0  0  0
   -2.8756   -2.4845    0.6147 C   0  0  0  0  0  0  0  0  0  0  0  0
   -1.5666   -2.0120    0.7874 C   0  0  0  0  0  0  0  0  0  0  0  0
   -1.1508   -0.5879    0.4407 C   0  0  0  0  0  0  0  0  0  0  0  0
   -2.2659    0.4909    0.6154 C   0  0  0  0  0  0  0  0  0  0  0  0
   -3.0825    0.4809    1.5359 O   0  0  0  0  0  0  0  0  0  0  0  0
   -2.2169    1.5303   -0.3004 N   0  0  0  0  0  0  0  0  0  0  0  0
   -3.2450    2.5584   -0.3492 C   0  0  0  0  0  0  0  0  0  0  0  0
   -4.5134    2.0510   -1.0383 C   0  0  0  0  0  0  0  0  0  0  0  0
   -4.3542    2.3878   -2.5227 C   0  0  0  0  0  0  0  0  0  0  0  0
   -3.0931    3.2388   -2.6419 C   0  0  0  0  0  0  0  0  0  0  0  0
   -2.8145    3.7288   -1.2277 C   0  0  0  0  0  0  0  0  0  0  0  0
   -0.4955   -0.4948   -0.8964 N   0  0  0  0  0  0  0  0  0  0  0  0
   -1.2327   -1.0055   -2.0626 C   0  0  0  0  0  0  0  0  0  0  0  0
   -0.8304   -2.3983   -2.3906 C   0  0  0  0  0  0  0  0  0  0  0  0
    0.3830   -3.0278   -2.5834 C   0  0  0  0  0  0  0  0  0  0  0  0
    0.0905   -4.3802   -2.8821 C   0  0  0  0  0  0  0  0  0  0  0  0
   -1.2796   -4.4882   -2.8656 C   0  0  0  0  0  0  0  0  0  0  0  0
   -1.8477   -3.2892   -2.5808 O   0  0  0  0  0  0  0  0  0  0  0  0
    0.7141    0.1472   -1.1298 C   0  0  0  0  0  0  0  0  0  0  0  0
    1.1402    0.3282   -2.2720 O   0  0  0  0  0  0  0  0  0  0  0  0
    1.5026    0.6358    0.0698 C   0  0  0  0  0  0  0  0  0  0  0  0
    2.8031    1.3139   -0.3545 C   0  0  0  0  0  0  0  0  0  0  0  0
    3.6217    1.7581    0.8406 C   0  0  0  0  0  0  0  0  0  0  0  0
    3.2872    1.5064    1.9943 O   0  0  0  0  0  0  0  0  0  0  0  0
    4.7520    2.4434    0.4562 N   0  0  0  0  0  0  0  0  0  0  0  0
    5.7116    2.9394    1.3098 C   0  0  0  0  0  0  0  0  0  0  0  0
    5.7752    2.8928    2.7200 C   0  0  0  0  0  0  0  0  0  0  0  0
    6.9603    3.5096    3.0305 C   0  0  0  0  0  0  0  0  0  0  0  0
    7.6712    3.8021    4.2871 C   0  0  0  0  0  0  0  0  0  0  0  0
    7.5586    3.9293    1.8839 O   0  0  0  0  0  0  0  0  0  0  0  0
    6.7772    3.5692    0.8021 N   0  0  0  0  0  0  0  0  0  0  0  0
   -0.5940   -2.9099    1.2621 C   0  0  0  0  0  0  0  0  0  0  0  0
   -0.9219   -4.2353    1.5573 C   0  0  0  0  0  0  0  0  0  0  0  0
   -2.9245   -6.1716    2.7555 H   0  0  0  0  0  0  0  0  0  0  0  0
   -3.3891   -6.4810    1.0619 H   0  0  0  0  0  0  0  0  0  0  0  0
   -1.7314   -6.7834    1.5830 H   0  0  0  0  0  0  0  0  0  0  0  0
   -4.2283   -4.1442    0.7734 H   0  0  0  0  0  0  0  0  0  0  0  0
   -3.6640   -1.8303    0.2497 H   0  0  0  0  0  0  0  0  0  0  0  0
   -0.4282   -0.2977    1.2109 H   0  0  0  0  0  0  0  0  0  0  0  0
   -1.6052    1.4178   -1.0998 H   0  0  0  0  0  0  0  0  0  0  0  0
   -3.4533    2.8785    0.6771 H   0  0  0  0  0  0  0  0  0  0  0  0
   -4.6954    0.9815   -0.8859 H   0  0  0  0  0  0  0  0  0  0  0  0
   -5.3869    2.5884   -0.6447 H   0  0  0  0  0  0  0  0  0  0  0  0
   -5.2329    2.9447   -2.8730 H   0  0  0  0  0  0  0  0  0  0  0  0
   -4.2702    1.4821   -3.1361 H   0  0  0  0  0  0  0  0  0  0  0  0
   -2.2619    2.6200   -3.0004 H   0  0  0  0  0  0  0  0  0  0  0  0
   -3.2181    4.0628   -3.3514 H   0  0  0  0  0  0  0  0  0  0  0  0
   -3.4375    4.6050   -1.0136 H   0  0  0  0  0  0  0  0  0  0  0  0
   -1.7658    4.0112   -1.0919 H   0  0  0  0  0  0  0  0  0  0  0  0
   -2.3088   -0.9349   -1.8713 H   0  0  0  0  0  0  0  0  0  0  0  0
   -1.0328   -0.3694   -2.9330 H   0  0  0  0  0  0  0  0  0  0  0  0
    1.3571   -2.5631   -2.5136 H   0  0  0  0  0  0  0  0  0  0  0  0
    0.7908   -5.1771   -3.0874 H   0  0  0  0  0  0  0  0  0  0  0  0
   -1.9700   -5.3026   -3.0317 H   0  0  0  0  0  0  0  0  0  0  0  0
    0.8927    1.3520    0.6316 H   0  0  0  0  0  0  0  0  0  0  0  0
    1.7300   -0.2240    0.7104 H   0  0  0  0  0  0  0  0  0  0  0  0
    3.4144    0.6242   -0.9491 H   0  0  0  0  0  0  0  0  0  0  0  0
    2.5825    2.1916   -0.9742 H   0  0  0  0  0  0  0  0  0  0  0  0
    4.9553    2.6023   -0.5214 H   0  0  0  0  0  0  0  0  0  0  0  0
    5.0701    2.4603    3.4140 H   0  0  0  0  0  0  0  0  0  0  0  0
    8.6934    3.4127    4.2494 H   0  0  0  0  0  0  0  0  0  0  0  0
    7.7188    4.8824    4.4585 H   0  0  0  0  0  0  0  0  0  0  0  0
    7.1644    3.3434    5.1423 H   0  0  0  0  0  0  0  0  0  0  0  0
    0.4341   -2.5813    1.4030 H   0  0  0  0  0  0  0  0  0  0  0  0
   -0.1498   -4.9038    1.9341 H   0  0  0  0  0  0  0  0  0  0  0  0
  1  2  1  0
  2  3  2  0
  3  4  1  0
  4  5  2  0
  5  6  1  0
  6  7  1  0
  7  8  2  0
  7  9  1  0
  9 10  1  0
 10 11  1  0
 11 12  1  0
 12 13  1  0
 13 14  1  0
  6 15  1  0
 15 16  1  0
 16 17  1  0
 17 18  2  0
 18 19  1  0
 19 20  2  0
 20 21  1  0
 15 22  1  0
 22 23  2  0
 22 24  1  0
 24 25  1  0
 25 26  1  0
 26 27  2  0
 26 28  1  0
 28 29  1  0
 29 30  1  0
 30 31  2  0
 31 32  1  0
 31 33  1  0
 33 34  1  0
  5 35  1  0
 35 36  2  0
 36  2  1  0
 14 10  1  0
 21 17  1  0
 34 29  2  0
  1 37  1  0
  1 38  1  0
  1 39  1  0
  3 40  1  0
  4 41  1  0
  6 42  1  0
  9 43  1  0
 10 44  1  0
 11 45  1  0
 11 46  1  0
 12 47  1  0
 12 48  1  0
 13 49  1  0
 13 50  1  0
 14 51  1  0
 14 52  1  0
 16 53  1  0
 16 54  1  0
 18 55  1  0
 19 56  1  0
 20 57  1  0
 24 58  1  0
 24 59  1  0
 25 60  1  0
 25 61  1  0
 28 62  1  0
 30 63  1  0
 32 64  1  0
 32 65  1  0
 32 66  1  0
 35 67  1  0
 36 68  1  0
M  END
$$$$
