
     RDKit          3D

 59 62  0  0  0  0  0  0  0  0999 V2000
    5.2169    5.1586    1.8138 C   0  0  0  0  0  0  0  0  0  0  0  0
    4.5656    3.8655    1.4208 C   0  0  0  0  0  0  0  0  0  0  0  0
    3.2191    3.8310    1.0488 C   0  0  0  0  0  0  0  0  0  0  0  0
    2.6099    2.6209    0.7038 C   0  0  0  0  0  0  0  0  0  0  0  0
    3.3390    1.4202    0.7203 C   0  0  0  0  0  0  0  0  0  0  0  0
    2.6757    0.2066    0.3596 N   0  0  0  0  0  0  0  0  0  0  0  0
    1.3137    0.1871    0.3474 N   0  0  0  0  0  0  0  0  0  0  0  0
    0.9876   -1.0994    0.2104 C   0  0  0  0  0  0  0  0  0  0  0  0
   -0.3592   -1.6517    0.2167 C   0  0  0  0  0  0  0  0  0  0  0  0
   -1.3748   -0.9675    0.3373 O   0  0  0  0  0  0  0  0  0  0  0  0
   -0.3779   -3.0507    0.0450 N   0  0  0  0  0  0  0  0  0  0  0  0
   -1.6513   -3.7684    0.0508 C   0  0  0  0  0  0  0  0  0  0  0  0
   -2.1786   -4.0546   -1.3579 C   0  0  0  0  0  0  0  0  0  0  0  0
   -2.7034   -2.8203   -2.0886 C   0  0  0  0  0  0  0  0  0  0  0  0
   -3.9702   -2.2941   -1.4442 C   0  0  0  0  0  0  0  0  0  0  0  0
   -4.9990   -2.9613   -1.3932 O   0  0  0  0  0  0  0  0  0  0  0  0
   -3.8551   -1.0297   -0.9228 N   0  0  0  0  0  0  0  0  0  0  0  0
   -4.9447   -0.4578   -0.1645 C   0  0  0  0  0  0  0  0  0  0  0  0
   -4.6672    0.9775    0.0825 C   0  0  0  0  0  0  0  0  0  0  0  0
   -3.6926    1.6437    0.7986 C   0  0  0  0  0  0  0  0  0  0  0  0
   -3.9678    3.0255    0.6615 C   0  0  0  0  0  0  0  0  0  0  0  0
   -5.0933    3.1201   -0.1277 C   0  0  0  0  0  0  0  0  0  0  0  0
   -5.8814    4.2567   -0.6437 C   0  0  0  0  0  0  0  0  0  0  0  0
   -5.5236    1.8773   -0.4829 O   0  0  0  0  0  0  0  0  0  0  0  0
    0.7557   -3.8465   -0.1642 N   0  0  0  0  0  0  0  0  0  0  0  0
    1.9523   -3.3284   -0.1806 C   0  0  0  0  0  0  0  0  0  0  0  0
    3.1243   -4.2428   -0.4038 C   0  0  0  0  0  0  0  0  0  0  0  0
    2.1102   -1.9075    0.0122 C   0  0  0  0  0  0  0  0  0  0  0  0
    3.1936   -1.0445    0.0008 C   0  0  0  0  0  0  0  0  0  0  0  0
    4.6104   -1.3019   -0.3664 C   0  0  0  0  0  0  0  0  0  0  0  0
    4.6747    1.4511    1.1355 C   0  0  0  0  0  0  0  0  0  0  0  0
    5.2816    2.6657    1.4798 C   0  0  0  0  0  0  0  0  0  0  0  0
    5.1984    5.2728    2.9019 H   0  0  0  0  0  0  0  0  0  0  0  0
    6.2543    5.1895    1.4650 H   0  0  0  0  0  0  0  0  0  0  0  0
    4.7000    6.0136    1.3620 H   0  0  0  0  0  0  0  0  0  0  0  0
    2.6303    4.7461    1.0206 H   0  0  0  0  0  0  0  0  0  0  0  0
    1.5607    2.6360    0.4093 H   0  0  0  0  0  0  0  0  0  0  0  0
   -1.4845   -4.7184    0.5731 H   0  0  0  0  0  0  0  0  0  0  0  0
   -2.3875   -3.2113    0.6399 H   0  0  0  0  0  0  0  0  0  0  0  0
   -1.3858   -4.5122   -1.9618 H   0  0  0  0  0  0  0  0  0  0  0  0
   -2.9839   -4.7953   -1.2801 H   0  0  0  0  0  0  0  0  0  0  0  0
   -2.9611   -3.0882   -3.1204 H   0  0  0  0  0  0  0  0  0  0  0  0
   -1.9378   -2.0410   -2.1559 H   0  0  0  0  0  0  0  0  0  0  0  0
   -2.9189   -0.7248   -0.6562 H   0  0  0  0  0  0  0  0  0  0  0  0
   -5.0177   -1.0008    0.7853 H   0  0  0  0  0  0  0  0  0  0  0  0
   -5.8840   -0.6021   -0.7108 H   0  0  0  0  0  0  0  0  0  0  0  0
   -2.8779    1.1830    1.3435 H   0  0  0  0  0  0  0  0  0  0  0  0
   -3.4110    3.8504    1.0826 H   0  0  0  0  0  0  0  0  0  0  0  0
   -5.6544    5.1730   -0.0877 H   0  0  0  0  0  0  0  0  0  0  0  0
   -6.9555    4.0608   -0.5491 H   0  0  0  0  0  0  0  0  0  0  0  0
   -5.6539    4.4284   -1.7017 H   0  0  0  0  0  0  0  0  0  0  0  0
    2.8109   -5.2896   -0.3278 H   0  0  0  0  0  0  0  0  0  0  0  0
    3.8986   -4.0570    0.3462 H   0  0  0  0  0  0  0  0  0  0  0  0
    3.5310   -4.0755   -1.4058 H   0  0  0  0  0  0  0  0  0  0  0  0
    4.6780   -2.0781   -1.1350 H   0  0  0  0  0  0  0  0  0  0  0  0
    5.1818   -1.6395    0.5044 H   0  0  0  0  0  0  0  0  0  0  0  0
    5.0912   -0.4204   -0.8013 H   0  0  0  0  0  0  0  0  0  0  0  0
    5.2685    0.5524    1.2510 H   0  0  0  0  0  0  0  0  0  0  0  0
    6.3198    2.6679    1.8048 H   0  0  0  0  0  0  0  0  0  0  0  0
  1  2  1  0
  2  3  2  0
  3  4  1  0
  4  5  2  0
  5  6  1  0
  6  7  1  0
  7  8  2  0
  8  9  1  0
  9 10  2  0
  9 11  1  0
 11 12  1  0
 12 13  1  0
 13 14  1  0
 14 15  1  0
 15 16  2  0
 15 17  1  0
 17 18  1  0
 18 19  1  0
 19 20  2  0
 20 21  1  0
 21 22  2  0
 22 23  1  0
 22 24  1  0
 11 25  1  0
 25 26  2  0
 26 27  1  0
 26 28  1  0
 28 29  2  0
 29 30  1  0
  5 31  1  0
 31 32  2  0
 32  2  1  0
 29  6  1  0
 28  8  1  0
 24 19  1  0
  1 33  1  0
  1 34  1  0
  1 35  1  0
  3 36  1  0
  4 37  1  0
 12 38  1  0
 12 39  1  0
 13 40  1  0
 13 41  1  0
 14 42  1  0
 14 43  1  0
 17 44  1  0
 18 45  1  0
 18 46  1  0
 20 47  1  0
 21 48  1  0
 23 49  1  0
 23 50  1  0
 23 51  1  0
 27 52  1  0
 27 53  1  0
 27 54  1  0
 30 55  1  0
 30 56  1  0
 30 57  1  0
 31 58  1  0
 32 59  1  0
M  END
$$$$
