
     RDKit          3D

 30 31  0  0  0  0  0  0  0  0999 V2000
    4.8803   -2.1004   -2.3246 C   0  0  0  0  0  0  0  0  0  0  0  0
    4.1024   -2.5996   -1.2439 O   0  0  0  0  0  0  0  0  0  0  0  0
    2.8981   -1.9939   -1.0162 C   0  0  0  0  0  0  0  0  0  0  0  0
    2.1496   -2.5554    0.0210 C   0  0  0  0  0  0  0  0  0  0  0  0
    0.8982   -2.0356    0.3627 C   0  0  0  0  0  0  0  0  0  0  0  0
    0.3786   -0.9371   -0.3317 C   0  0  0  0  0  0  0  0  0  0  0  0
   -0.9405   -0.3785    0.0312 C   0  0  0  0  0  0  0  0  0  0  0  0
   -2.0986   -1.1803   -0.2243 C   0  0  0  0  0  0  0  0  0  0  0  0
   -2.9880   -1.8937   -0.4483 N   0  0  0  0  0  0  0  0  0  0  0  0
   -0.9603    0.8384    0.6141 C   0  0  0  0  0  0  0  0  0  0  0  0
   -2.1231    1.6160    1.0689 C   0  0  0  0  0  0  0  0  0  0  0  0
   -1.9398    2.7756    1.8182 C   0  0  0  0  0  0  0  0  0  0  0  0
   -3.0585    3.4991    2.2275 C   0  0  0  0  0  0  0  0  0  0  0  0
   -4.3247    3.0496    1.8772 C   0  0  0  0  0  0  0  0  0  0  0  0
   -4.4174    1.8915    1.1269 C   0  0  0  0  0  0  0  0  0  0  0  0
   -3.3471    1.1760    0.7171 N   0  0  0  0  0  0  0  0  0  0  0  0
    1.1311   -0.3753   -1.3730 C   0  0  0  0  0  0  0  0  0  0  0  0
    2.3837   -0.9009   -1.7132 C   0  0  0  0  0  0  0  0  0  0  0  0
    5.1779   -1.0614   -2.1486 H   0  0  0  0  0  0  0  0  0  0  0  0
    5.7923   -2.7019   -2.3859 H   0  0  0  0  0  0  0  0  0  0  0  0
    4.3482   -2.2042   -3.2761 H   0  0  0  0  0  0  0  0  0  0  0  0
    2.5436   -3.4101    0.5665 H   0  0  0  0  0  0  0  0  0  0  0  0
    0.3386   -2.4974    1.1738 H   0  0  0  0  0  0  0  0  0  0  0  0
   -0.0097    1.3383    0.7926 H   0  0  0  0  0  0  0  0  0  0  0  0
   -0.9478    3.1203    2.0906 H   0  0  0  0  0  0  0  0  0  0  0  0
   -2.9411    4.4048    2.8159 H   0  0  0  0  0  0  0  0  0  0  0  0
   -5.2166    3.5863    2.1801 H   0  0  0  0  0  0  0  0  0  0  0  0
   -5.3815    1.4924    0.8240 H   0  0  0  0  0  0  0  0  0  0  0  0
    0.7445    0.4720   -1.9364 H   0  0  0  0  0  0  0  0  0  0  0  0
    2.9278   -0.4346   -2.5278 H   0  0  0  0  0  0  0  0  0  0  0  0
  1  2  1  0
  2  3  1  0
  3  4  2  0
  4  5  1  0
  5  6  2  0
  6  7  1  0
  7  8  1  0
  8  9  3  0
  7 10  2  3
 10 11  1  0
 11 12  2  0
 12 13  1  0
 13 14  2  0
 14 15  1  0
 15 16  2  0
  6 17  1  0
 17 18  2  0
 18  3  1  0
 16 11  1  0
  1 19  1  0
  1 20  1  0
  1 21  1  0
  4 22  1  0
  5 23  1  0
 10 24  1  0
 12 25  1  0
 13 26  1  0
 14 27  1  0
 15 28  1  0
 17 29  1  0
 18 30  1  0
M  END
$$$$
