
     RDKit          3D

 74 75  0  0  0  0  0  0  0  0999 V2000
   -2.9245    5.3379    1.2998 C   0  0  0  0  0  0  0  0  0  0  0  0
   -2.3207    4.3516    2.1313 O   0  0  0  0  0  0  0  0  0  0  0  0
   -2.4803    3.0505    1.7334 C   0  0  0  0  0  0  0  0  0  0  0  0
   -3.6233    2.6045    1.0633 C   0  0  0  0  0  0  0  0  0  0  0  0
   -3.7307    1.2757    0.6650 C   0  0  0  0  0  0  0  0  0  0  0  0
   -2.7045    0.3759    0.9437 C   0  0  0  0  0  0  0  0  0  0  0  0
   -1.5518    0.7793    1.6413 C   0  0  0  0  0  0  0  0  0  0  0  0
   -0.4121   -0.2135    1.9535 C   0  0  0  0  0  0  0  0  0  0  0  0
   -0.8461   -1.6864    2.2458 C   0  0  0  0  0  0  0  0  0  0  0  0
   -0.2378   -2.6648    1.8161 O   0  0  0  0  0  0  0  0  0  0  0  0
   -1.9075   -1.8065    3.1369 N   0  0  0  0  0  0  0  0  0  0  0  0
   -2.5219   -3.0819    3.5379 C   0  0  0  0  0  0  0  0  0  0  0  0
   -3.6342   -2.7686    4.5583 C   0  0  0  0  0  0  0  0  0  0  0  0
   -3.1514   -3.7857    2.3271 C   0  0  0  0  0  0  0  0  0  0  0  0
   -1.4974   -4.0065    4.2188 C   0  0  0  0  0  0  0  0  0  0  0  0
    0.7390   -0.1138    1.0069 N   0  0  0  0  0  0  0  0  0  0  0  0
    0.4115   -0.3802   -0.3327 C   0  0  0  0  0  0  0  0  0  0  0  0
   -0.6779   -0.8618   -0.6614 O   0  0  0  0  0  0  0  0  0  0  0  0
    1.3888    0.0095   -1.4247 C   0  0  0  0  0  0  0  0  0  0  0  0
    0.8434   -0.3373   -2.8099 C   0  0  0  0  0  0  0  0  0  0  0  0
    1.8447   -0.0155   -3.9011 C   0  0  0  0  0  0  0  0  0  0  0  0
    2.8638    0.6340   -3.6882 O   0  0  0  0  0  0  0  0  0  0  0  0
    1.4546   -0.5250   -5.1193 N   0  0  0  0  0  0  0  0  0  0  0  0
    2.1546   -0.3895   -6.2977 C   0  0  0  0  0  0  0  0  0  0  0  0
    3.3451    0.3244   -6.5583 C   0  0  0  0  0  0  0  0  0  0  0  0
    3.5853    0.1205   -7.8943 C   0  0  0  0  0  0  0  0  0  0  0  0
    4.6305    0.5684   -8.8300 C   0  0  0  0  0  0  0  0  0  0  0  0
    2.6055   -0.6713   -8.4069 O   0  0  0  0  0  0  0  0  0  0  0  0
    1.7042   -0.9891   -7.4069 N   0  0  0  0  0  0  0  0  0  0  0  0
    2.1565   -0.1071    1.5593 C   0  0  0  0  0  0  0  0  0  0  0  0
    2.9810    1.0670    0.9838 C   0  0  0  0  0  0  0  0  0  0  0  0
    2.8596   -1.4528    1.2768 C   0  0  0  0  0  0  0  0  0  0  0  0
    2.2387    0.0680    3.1023 C   0  0  0  0  0  0  0  0  0  0  0  0
   -1.4601    2.1292    2.0521 C   0  0  0  0  0  0  0  0  0  0  0  0
   -0.3049    2.4877    2.7058 O   0  0  0  0  0  0  0  0  0  0  0  0
   -0.5066    3.2237    3.9094 C   0  0  0  0  0  0  0  0  0  0  0  0
   -2.7053    5.1624    0.2409 H   0  0  0  0  0  0  0  0  0  0  0  0
   -2.4971    6.3073    1.5719 H   0  0  0  0  0  0  0  0  0  0  0  0
   -4.0026    5.3913    1.4775 H   0  0  0  0  0  0  0  0  0  0  0  0
   -4.4462    3.2741    0.8381 H   0  0  0  0  0  0  0  0  0  0  0  0
   -4.6162    0.9379    0.1306 H   0  0  0  0  0  0  0  0  0  0  0  0
   -2.8071   -0.6522    0.5943 H   0  0  0  0  0  0  0  0  0  0  0  0
   -0.0764    0.1098    2.9409 H   0  0  0  0  0  0  0  0  0  0  0  0
   -2.4436   -0.9669    3.3160 H   0  0  0  0  0  0  0  0  0  0  0  0
   -3.2225   -2.2652    5.4410 H   0  0  0  0  0  0  0  0  0  0  0  0
   -4.3925   -2.1022    4.1287 H   0  0  0  0  0  0  0  0  0  0  0  0
   -4.1411   -3.6815    4.8947 H   0  0  0  0  0  0  0  0  0  0  0  0
   -2.3997   -4.0724    1.5846 H   0  0  0  0  0  0  0  0  0  0  0  0
   -3.6758   -4.6991    2.6302 H   0  0  0  0  0  0  0  0  0  0  0  0
   -3.8746   -3.1326    1.8237 H   0  0  0  0  0  0  0  0  0  0  0  0
   -1.9836   -4.8927    4.6395 H   0  0  0  0  0  0  0  0  0  0  0  0
   -0.9798   -3.4861    5.0338 H   0  0  0  0  0  0  0  0  0  0  0  0
   -0.7312   -4.3614    3.5217 H   0  0  0  0  0  0  0  0  0  0  0  0
    1.5560    1.0905   -1.3668 H   0  0  0  0  0  0  0  0  0  0  0  0
    2.3363   -0.5116   -1.2995 H   0  0  0  0  0  0  0  0  0  0  0  0
    0.6012   -1.4071   -2.8598 H   0  0  0  0  0  0  0  0  0  0  0  0
   -0.0742    0.2298   -3.0125 H   0  0  0  0  0  0  0  0  0  0  0  0
    0.6110   -1.0756   -5.2005 H   0  0  0  0  0  0  0  0  0  0  0  0
    3.9415    0.9142   -5.8765 H   0  0  0  0  0  0  0  0  0  0  0  0
    5.5445    0.8383   -8.2933 H   0  0  0  0  0  0  0  0  0  0  0  0
    4.2900    1.4473   -9.3871 H   0  0  0  0  0  0  0  0  0  0  0  0
    4.8795   -0.2205   -9.5476 H   0  0  0  0  0  0  0  0  0  0  0  0
    2.3916    1.9907    0.9763 H   0  0  0  0  0  0  0  0  0  0  0  0
    3.3422    0.8837   -0.0299 H   0  0  0  0  0  0  0  0  0  0  0  0
    3.8818    1.2558    1.5809 H   0  0  0  0  0  0  0  0  0  0  0  0
    3.8925   -1.4409    1.6456 H   0  0  0  0  0  0  0  0  0  0  0  0
    2.9030   -1.7068    0.2167 H   0  0  0  0  0  0  0  0  0  0  0  0
    2.3425   -2.2795    1.7780 H   0  0  0  0  0  0  0  0  0  0  0  0
    1.8122    1.0230    3.4251 H   0  0  0  0  0  0  0  0  0  0  0  0
    1.7314   -0.7451    3.6342 H   0  0  0  0  0  0  0  0  0  0  0  0
    3.2813    0.0552    3.4453 H   0  0  0  0  0  0  0  0  0  0  0  0
   -0.4618    4.2986    3.7112 H   0  0  0  0  0  0  0  0  0  0  0  0
   -1.4404    2.9575    4.4188 H   0  0  0  0  0  0  0  0  0  0  0  0
    0.3203    2.9816    4.5851 H   0  0  0  0  0  0  0  0  0  0  0  0
  1  2  1  0
  2  3  1  0
  3  4  2  0
  4  5  1  0
  5  6  2  0
  6  7  1  0
  7  8  1  0
  8  9  1  0
  9 10  2  0
  9 11  1  0
 11 12  1  0
 12 13  1  0
 12 14  1  0
 12 15  1  0
  8 16  1  0
 16 17  1  0
 17 18  2  0
 17 19  1  0
 19 20  1  0
 20 21  1  0
 21 22  2  0
 21 23  1  0
 23 24  1  0
 24 25  1  0
 25 26  2  0
 26 27  1  0
 26 28  1  0
 28 29  1  0
 16 30  1  0
 30 31  1  0
 30 32  1  0
 30 33  1  0
  7 34  2  0
 34 35  1  0
 35 36  1  0
 34  3  1  0
 29 24  2  0
  1 37  1  0
  1 38  1  0
  1 39  1  0
  4 40  1  0
  5 41  1  0
  6 42  1  0
  8 43  1  0
 11 44  1  0
 13 45  1  0
 13 46  1  0
 13 47  1  0
 14 48  1  0
 14 49  1  0
 14 50  1  0
 15 51  1  0
 15 52  1  0
 15 53  1  0
 19 54  1  0
 19 55  1  0
 20 56  1  0
 20 57  1  0
 23 58  1  0
 25 59  1  0
 27 60  1  0
 27 61  1  0
 27 62  1  0
 31 63  1  0
 31 64  1  0
 31 65  1  0
 32 66  1  0
 32 67  1  0
 32 68  1  0
 33 69  1  0
 33 70  1  0
 33 71  1  0
 36 72  1  0
 36 73  1  0
 36 74  1  0
M  END
$$$$
