
     RDKit          3D

 36 35  0  0  0  0  0  0  0  0999 V2000
    3.6748   -1.4957    0.5662 C   0  0  0  0  0  0  0  0  0  0  0  0
    2.5213   -0.5110    0.6738 C   0  0  0  0  0  0  0  0  0  0  0  0
    1.9587   -0.1168   -0.6316 N   0  0  0  0  0  0  0  0  0  0  0  0
    2.7127    0.9273   -1.3529 C   0  0  0  0  0  0  0  0  0  0  0  0
    3.6349    0.3686   -2.4289 C   0  0  0  0  0  0  0  0  0  0  0  0
    0.8505   -0.7954   -1.1874 C   0  0  0  0  0  0  0  0  0  0  0  0
    0.1697   -2.2134   -0.5760 S   0  0  0  0  0  0  0  0  0  0  0  0
    0.1364   -0.1118   -2.6599 S   0  0  0  0  0  0  0  0  0  0  0  0
   -1.0374    1.4092   -1.8952 S   0  0  0  0  0  0  0  0  0  0  0  0
   -2.5474    0.5874   -1.4282 C   0  0  0  0  0  0  0  0  0  0  0  0
   -3.4433   -0.2302   -2.6069 S   0  0  0  0  0  0  0  0  0  0  0  0
   -2.9463    0.7377   -0.0789 N   0  0  0  0  0  0  0  0  0  0  0  0
   -4.0499   -0.0634    0.4877 C   0  0  0  0  0  0  0  0  0  0  0  0
   -3.6382   -1.4858    0.8407 C   0  0  0  0  0  0  0  0  0  0  0  0
   -2.3221    1.6918    0.8575 C   0  0  0  0  0  0  0  0  0  0  0  0
   -1.2584    1.0661    1.7429 C   0  0  0  0  0  0  0  0  0  0  0  0
    3.4079   -2.3701   -0.0344 H   0  0  0  0  0  0  0  0  0  0  0  0
    4.5516   -1.0277    0.1104 H   0  0  0  0  0  0  0  0  0  0  0  0
    3.9687   -1.8404    1.5628 H   0  0  0  0  0  0  0  0  0  0  0  0
    2.8498    0.3954    1.1959 H   0  0  0  0  0  0  0  0  0  0  0  0
    1.7373   -0.9405    1.3047 H   0  0  0  0  0  0  0  0  0  0  0  0
    3.3042    1.5010   -0.6302 H   0  0  0  0  0  0  0  0  0  0  0  0
    2.0200    1.6440   -1.8010 H   0  0  0  0  0  0  0  0  0  0  0  0
    4.3953   -0.2908   -2.0033 H   0  0  0  0  0  0  0  0  0  0  0  0
    3.0876   -0.2067   -3.1805 H   0  0  0  0  0  0  0  0  0  0  0  0
    4.1512    1.1870   -2.9407 H   0  0  0  0  0  0  0  0  0  0  0  0
   -4.8877   -0.0855   -0.2161 H   0  0  0  0  0  0  0  0  0  0  0  0
   -4.4298    0.4343    1.3873 H   0  0  0  0  0  0  0  0  0  0  0  0
   -4.4879   -2.0263    1.2697 H   0  0  0  0  0  0  0  0  0  0  0  0
   -2.8279   -1.4974    1.5744 H   0  0  0  0  0  0  0  0  0  0  0  0
   -3.2976   -2.0410   -0.0373 H   0  0  0  0  0  0  0  0  0  0  0  0
   -1.8944    2.5378    0.3129 H   0  0  0  0  0  0  0  0  0  0  0  0
   -3.1116    2.1278    1.4811 H   0  0  0  0  0  0  0  0  0  0  0  0
   -1.6836    0.2976    2.3939 H   0  0  0  0  0  0  0  0  0  0  0  0
   -0.4638    0.6073    1.1518 H   0  0  0  0  0  0  0  0  0  0  0  0
   -0.8056    1.8297    2.3833 H   0  0  0  0  0  0  0  0  0  0  0  0
  1  2  1  0
  2  3  1  0
  3  4  1  0
  4  5  1  0
  3  6  1  0
  6  7  2  0
  6  8  1  0
  8  9  1  0
  9 10  1  0
 10 11  2  0
 10 12  1  0
 12 13  1  0
 13 14  1  0
 12 15  1  0
 15 16  1  0
  1 17  1  0
  1 18  1  0
  1 19  1  0
  2 20  1  0
  2 21  1  0
  4 22  1  0
  4 23  1  0
  5 24  1  0
  5 25  1  0
  5 26  1  0
 13 27  1  0
 13 28  1  0
 14 29  1  0
 14 30  1  0
 14 31  1  0
 15 32  1  0
 15 33  1  0
 16 34  1  0
 16 35  1  0
 16 36  1  0
M  END
$$$$
