
     RDKit          3D

 57 62  0  0  0  0  0  0  0  0999 V2000
    7.9029   -2.2579    0.5062 C   0  0  0  0  0  0  0  0  0  0  0  0
    6.6277   -2.8561    0.3006 O   0  0  0  0  0  0  0  0  0  0  0  0
    5.5917   -2.0241   -0.0197 C   0  0  0  0  0  0  0  0  0  0  0  0
    5.6594   -0.6386   -0.1608 C   0  0  0  0  0  0  0  0  0  0  0  0
    4.5089    0.0975   -0.4798 C   0  0  0  0  0  0  0  0  0  0  0  0
    3.2834   -0.5473   -0.6631 C   0  0  0  0  0  0  0  0  0  0  0  0
    1.9828    0.2709   -0.9909 C   0  0  0  0  0  0  0  0  0  0  0  0
    0.6974   -0.2436   -1.1256 C   0  0  0  0  0  0  0  0  0  0  0  0
   -0.1887    0.8091   -1.3523 N   0  0  0  0  0  4  0  0  0  0  0  0
   -1.6567    0.7257   -1.4391 C   0  0  0  0  0  0  0  0  0  0  0  0
   -2.2786    1.0841   -0.0737 C   0  0  0  0  0  0  0  0  0  0  0  0
   -1.8669    2.0765    0.5306 O   0  0  0  0  0  0  0  0  0  0  0  0
   -3.2048    0.1424    0.3973 N   0  0  0  0  0  0  0  0  0  0  0  0
   -4.3085   -0.2580   -0.4441 C   0  0  0  0  0  0  0  0  0  0  0  0
   -4.7621    0.6247   -1.4503 C   0  0  0  0  0  0  0  0  0  0  0  0
   -5.8221    0.2904   -2.2988 C   0  0  0  0  0  0  0  0  0  0  0  0
   -6.4626   -0.9308   -2.1538 C   0  0  0  0  0  0  0  0  0  0  0  0
   -6.0540   -1.8034   -1.1488 C   0  0  0  0  0  0  0  0  0  0  0  0
   -4.9955   -1.4692   -0.2869 C   0  0  0  0  0  0  0  0  0  0  0  0
   -4.5583   -2.6546    0.9468 S   0  0  0  0  0  0  0  0  0  0  0  0
   -3.7470   -1.5907    2.1132 C   0  0  0  0  0  0  0  0  0  0  0  0
   -3.6548   -2.0779    3.4299 C   0  0  0  0  0  0  0  0  0  0  0  0
   -2.9464   -1.3786    4.4004 C   0  0  0  0  0  0  0  0  0  0  0  0
   -2.3118   -0.1954    4.0556 C   0  0  0  0  0  0  0  0  0  0  0  0
   -2.3996    0.2929    2.7456 C   0  0  0  0  0  0  0  0  0  0  0  0
   -3.1342   -0.3763    1.7451 C   0  0  0  0  0  0  0  0  0  0  0  0
    0.5197    1.9346   -1.3502 C   0  0  0  0  0  0  0  0  0  0  0  0
    1.8046    1.6290   -1.1894 N   0  0  0  0  0  0  0  0  0  0  0  0
    2.6486    2.8169   -1.2063 C   0  0  0  0  0  0  0  0  0  0  0  0
    1.7043    3.9236   -1.7500 C   0  0  0  0  0  0  0  0  0  0  0  0
    0.2795    3.3901   -1.4983 C   0  0  0  0  0  0  0  0  0  0  0  0
    3.2162   -1.9379   -0.5281 C   0  0  0  0  0  0  0  0  0  0  0  0
    4.3669   -2.6661   -0.2090 C   0  0  0  0  0  0  0  0  0  0  0  0
    7.8757   -1.5367    1.3302 H   0  0  0  0  0  0  0  0  0  0  0  0
    8.2660   -1.7913   -0.4161 H   0  0  0  0  0  0  0  0  0  0  0  0
    8.6054   -3.0522    0.7808 H   0  0  0  0  0  0  0  0  0  0  0  0
    6.5913   -0.0994   -0.0178 H   0  0  0  0  0  0  0  0  0  0  0  0
    4.6108    1.1727   -0.5628 H   0  0  0  0  0  0  0  0  0  0  0  0
    0.2905   -1.2394   -1.0577 H   0  0  0  0  0  0  0  0  0  0  0  0
   -1.9991    1.4424   -2.1919 H   0  0  0  0  0  0  0  0  0  0  0  0
   -1.9206   -0.2867   -1.7610 H   0  0  0  0  0  0  0  0  0  0  0  0
   -4.3482    1.6245   -1.5589 H   0  0  0  0  0  0  0  0  0  0  0  0
   -6.1656    0.9938   -3.0553 H   0  0  0  0  0  0  0  0  0  0  0  0
   -7.2947   -1.1976   -2.8033 H   0  0  0  0  0  0  0  0  0  0  0  0
   -6.5798   -2.7503   -1.0343 H   0  0  0  0  0  0  0  0  0  0  0  0
   -4.1303   -3.0198    3.7057 H   0  0  0  0  0  0  0  0  0  0  0  0
   -2.8852   -1.7612    5.4163 H   0  0  0  0  0  0  0  0  0  0  0  0
   -1.7525    0.3596    4.8067 H   0  0  0  0  0  0  0  0  0  0  0  0
   -1.8979    1.2379    2.5637 H   0  0  0  0  0  0  0  0  0  0  0  0
    3.5088    2.6788   -1.8660 H   0  0  0  0  0  0  0  0  0  0  0  0
    2.9687    3.0363   -0.1822 H   0  0  0  0  0  0  0  0  0  0  0  0
    1.8634    4.0269   -2.8300 H   0  0  0  0  0  0  0  0  0  0  0  0
    1.8835    4.8978   -1.2895 H   0  0  0  0  0  0  0  0  0  0  0  0
   -0.1313    3.7450   -0.5516 H   0  0  0  0  0  0  0  0  0  0  0  0
   -0.4024    3.5575   -2.3339 H   0  0  0  0  0  0  0  0  0  0  0  0
    2.2918   -2.4912   -0.6630 H   0  0  0  0  0  0  0  0  0  0  0  0
    4.3107   -3.7490   -0.0991 H   0  0  0  0  0  0  0  0  0  0  0  0
  1  2  1  0
  2  3  1  0
  3  4  2  0
  4  5  1  0
  5  6  2  0
  6  7  1  0
  7  8  2  0
  8  9  1  0
  9 10  1  0
 10 11  1  0
 11 12  2  0
 11 13  1  0
 13 14  1  0
 14 15  2  0
 15 16  1  0
 16 17  2  0
 17 18  1  0
 18 19  2  0
 19 20  1  0
 20 21  1  0
 21 22  2  0
 22 23  1  0
 23 24  2  0
 24 25  1  0
 25 26  2  0
  9 27  2  0
 27 28  1  0
 28 29  1  0
 29 30  1  0
 30 31  1  0
  6 32  1  0
 32 33  2  0
 33  3  1  0
 28  7  1  0
 26 13  1  0
 31 27  1  0
 19 14  1  0
 26 21  1  0
  1 34  1  0
  1 35  1  0
  1 36  1  0
  4 37  1  0
  5 38  1  0
  8 39  1  0
 10 40  1  0
 10 41  1  0
 15 42  1  0
 16 43  1  0
 17 44  1  0
 18 45  1  0
 22 46  1  0
 23 47  1  0
 24 48  1  0
 25 49  1  0
 29 50  1  0
 29 51  1  0
 30 52  1  0
 30 53  1  0
 31 54  1  0
 31 55  1  0
 32 56  1  0
 33 57  1  0
M  CHG  1   9   1
M  END
$$$$
