
     RDKit          3D

 52 56  0  0  0  0  0  0  0  0999 V2000
    2.9884   -2.8329    0.2091 O   0  0  0  0  0  0  0  0  0  0  0  0
    2.1786   -2.4024    1.0263 C   0  0  0  0  0  0  0  0  0  0  0  0
    1.1363   -3.3242    1.6462 C   0  0  0  0  0  0  0  0  0  0  0  0
   -0.3933   -3.3248    0.6624 S   0  0  0  0  0  0  0  0  0  0  0  0
   -1.0151   -1.7446    1.0219 C   0  0  0  0  0  0  0  0  0  0  0  0
   -0.6593   -1.0498    2.0792 N   0  0  0  0  0  0  0  0  0  0  0  0
   -1.1631    0.2093    1.9426 N   0  0  0  0  0  0  0  0  0  0  0  0
   -1.8638    0.2583    0.8228 C   0  0  0  0  0  0  0  0  0  0  0  0
   -2.7267    1.4129    0.4226 C   0  0  0  0  0  0  0  0  0  0  0  0
   -4.1973    1.1178    0.5405 C   0  0  0  0  0  0  0  0  0  0  0  0
   -5.1114    0.8790   -0.4684 C   0  0  0  0  0  0  0  0  0  0  0  0
   -6.4224    0.6334    0.0321 C   0  0  0  0  0  0  0  0  0  0  0  0
   -6.4713    0.7043    1.4056 C   0  0  0  0  0  0  0  0  0  0  0  0
   -4.9456    1.0656    2.0844 S   0  0  0  0  0  0  0  0  0  0  0  0
   -1.7718   -0.9650    0.1646 N   0  0  0  0  0  0  0  0  0  0  0  0
   -2.3109   -1.3136   -1.0985 C   0  0  0  0  0  0  0  0  0  0  0  0
   -2.1429   -0.4552   -2.1922 C   0  0  0  0  0  0  0  0  0  0  0  0
   -2.6796   -0.7993   -3.4342 C   0  0  0  0  0  0  0  0  0  0  0  0
   -3.3821   -1.9936   -3.5865 C   0  0  0  0  0  0  0  0  0  0  0  0
   -3.5436   -2.8522   -2.5001 C   0  0  0  0  0  0  0  0  0  0  0  0
   -3.0059   -2.5187   -1.2559 C   0  0  0  0  0  0  0  0  0  0  0  0
    2.0862   -1.0949    1.4745 N   0  0  0  0  0  0  0  0  0  0  0  0
    2.8907    0.0039    1.1143 C   0  0  0  0  0  0  0  0  0  0  0  0
    2.4971    1.2597    1.6001 C   0  0  0  0  0  0  0  0  0  0  0  0
    3.2384    2.4058    1.3021 C   0  0  0  0  0  0  0  0  0  0  0  0
    4.3838    2.3026    0.5205 C   0  0  0  0  0  0  0  0  0  0  0  0
    4.7706    1.0588    0.0129 C   0  0  0  0  0  0  0  0  0  0  0  0
    4.0355   -0.0892    0.3205 C   0  0  0  0  0  0  0  0  0  0  0  0
    5.8727    0.8879   -0.7881 O   0  0  0  0  0  0  0  0  0  0  0  0
    6.3408    2.1362   -1.3088 C   0  0  0  0  0  0  0  0  0  0  0  0
    6.3920    3.1877   -0.2132 C   0  0  0  0  0  0  0  0  0  0  0  0
    5.0773    3.4618    0.2852 O   0  0  0  0  0  0  0  0  0  0  0  0
    1.5459   -4.3398    1.6562 H   0  0  0  0  0  0  0  0  0  0  0  0
    0.9421   -3.0513    2.6886 H   0  0  0  0  0  0  0  0  0  0  0  0
   -2.4889    1.7489   -0.5906 H   0  0  0  0  0  0  0  0  0  0  0  0
   -2.4845    2.2693    1.0666 H   0  0  0  0  0  0  0  0  0  0  0  0
   -4.8564    0.8716   -1.5216 H   0  0  0  0  0  0  0  0  0  0  0  0
   -7.2864    0.4171   -0.5845 H   0  0  0  0  0  0  0  0  0  0  0  0
   -7.3310    0.5636    2.0464 H   0  0  0  0  0  0  0  0  0  0  0  0
   -1.5553    0.4562   -2.1191 H   0  0  0  0  0  0  0  0  0  0  0  0
   -2.5367   -0.1433   -4.2896 H   0  0  0  0  0  0  0  0  0  0  0  0
   -3.7959   -2.2615   -4.5557 H   0  0  0  0  0  0  0  0  0  0  0  0
   -4.0903   -3.7845   -2.6220 H   0  0  0  0  0  0  0  0  0  0  0  0
   -3.1719   -3.1960   -0.4209 H   0  0  0  0  0  0  0  0  0  0  0  0
    1.2693   -0.8712    2.0453 H   0  0  0  0  0  0  0  0  0  0  0  0
    1.6066    1.3608    2.2180 H   0  0  0  0  0  0  0  0  0  0  0  0
    2.9286    3.3718    1.6905 H   0  0  0  0  0  0  0  0  0  0  0  0
    4.3796   -1.0379   -0.0776 H   0  0  0  0  0  0  0  0  0  0  0  0
    7.3411    1.9697   -1.7206 H   0  0  0  0  0  0  0  0  0  0  0  0
    5.6797    2.4422   -2.1291 H   0  0  0  0  0  0  0  0  0  0  0  0
    6.7995    4.1245   -0.6062 H   0  0  0  0  0  0  0  0  0  0  0  0
    7.0228    2.8652    0.6248 H   0  0  0  0  0  0  0  0  0  0  0  0
  1  2  2  0
  2  3  1  0
  3  4  1  0
  4  5  1  0
  5  6  2  0
  6  7  1  0
  7  8  2  0
  8  9  1  0
  9 10  1  0
 10 11  2  0
 11 12  1  0
 12 13  2  0
 13 14  1  0
  8 15  1  0
 15 16  1  0
 16 17  2  0
 17 18  1  0
 18 19  2  0
 19 20  1  0
 20 21  2  0
  2 22  1  0
 22 23  1  0
 23 24  2  0
 24 25  1  0
 25 26  2  0
 26 27  1  0
 27 28  2  0
 27 29  1  0
 29 30  1  0
 30 31  1  0
 31 32  1  0
 15  5  1  0
 21 16  1  0
 28 23  1  0
 14 10  1  0
 32 26  1  0
  3 33  1  0
  3 34  1  0
  9 35  1  0
  9 36  1  0
 11 37  1  0
 12 38  1  0
 13 39  1  0
 17 40  1  0
 18 41  1  0
 19 42  1  0
 20 43  1  0
 21 44  1  0
 22 45  1  0
 24 46  1  0
 25 47  1  0
 28 48  1  0
 30 49  1  0
 30 50  1  0
 31 51  1  0
 31 52  1  0
M  END
$$$$
