
     RDKit          3D

 41 44  0  0  0  0  0  0  0  0999 V2000
   -3.9644   -0.0581   -1.7743 O   0  0  0  0  0  0  0  0  0  0  0  0
   -2.7792   -0.1059   -0.9429 S   0  0  0  0  0  6  0  0  0  0  0  0
   -2.5685   -1.1904   -0.0093 O   0  0  0  0  0  0  0  0  0  0  0  0
   -1.4667   -0.0009   -2.0055 N   0  0  0  0  0  0  0  0  0  0  0  0
   -0.1763   -0.3732   -1.5138 C   0  0  0  0  0  0  0  0  0  0  0  0
    0.5629    0.6117   -0.8538 C   0  0  0  0  0  0  0  0  0  0  0  0
    1.8002    0.3128   -0.2840 C   0  0  0  0  0  0  0  0  0  0  0  0
    2.6711    1.6451    0.5304 S   0  0  0  0  0  0  0  0  0  0  0  0
    2.6424    1.1003    2.1822 C   0  0  0  0  0  0  0  0  0  0  0  0
    3.3244   -0.0196    2.5838 N   0  0  0  0  0  0  0  0  0  0  0  0
    3.0452   -0.0850    3.8651 C   0  0  0  0  0  0  0  0  0  0  0  0
    2.2372    0.9533    4.2085 N   0  0  0  0  0  0  0  0  0  0  0  0
    1.9647    1.7281    3.1460 N   0  0  0  0  0  0  0  0  0  0  0  0
    2.3031   -0.9906   -0.4125 C   0  0  0  0  0  0  0  0  0  0  0  0
    3.5215   -1.3327    0.1303 O   0  0  0  0  0  0  0  0  0  0  0  0
    1.5852   -1.9996   -1.0970 C   0  0  0  0  0  0  0  0  0  0  0  0
    2.0919   -3.3098   -1.2367 C   0  0  0  0  0  0  0  0  0  0  0  0
    1.3701   -4.3079   -1.8898 C   0  0  0  0  0  0  0  0  0  0  0  0
    0.1193   -4.0193   -2.4144 C   0  0  0  0  0  0  0  0  0  0  0  0
   -0.4031   -2.7307   -2.2929 C   0  0  0  0  0  0  0  0  0  0  0  0
    0.3137   -1.6959   -1.6446 C   0  0  0  0  0  0  0  0  0  0  0  0
   -2.6842    1.4319   -0.0616 C   0  0  0  0  0  0  0  0  0  0  0  0
   -3.2053    2.5917   -0.6425 C   0  0  0  0  0  0  0  0  0  0  0  0
   -3.1203    3.8007    0.0477 C   0  0  0  0  0  0  0  0  0  0  0  0
   -2.5229    3.8452    1.3091 C   0  0  0  0  0  0  0  0  0  0  0  0
   -2.0174    2.6812    1.8909 C   0  0  0  0  0  0  0  0  0  0  0  0
   -2.1064    1.4668    1.2117 C   0  0  0  0  0  0  0  0  0  0  0  0
   -1.7222   -0.3048   -2.9438 H   0  0  0  0  0  0  0  0  0  0  0  0
    0.1698    1.6240   -0.7893 H   0  0  0  0  0  0  0  0  0  0  0  0
    3.3860   -0.8320    4.5684 H   0  0  0  0  0  0  0  0  0  0  0  0
    1.8460    1.1901    5.1139 H   0  0  0  0  0  0  0  0  0  0  0  0
    3.6781   -0.7611    0.9108 H   0  0  0  0  0  0  0  0  0  0  0  0
    3.0686   -3.5599   -0.8245 H   0  0  0  0  0  0  0  0  0  0  0  0
    1.7848   -5.3084   -1.9781 H   0  0  0  0  0  0  0  0  0  0  0  0
   -0.4557   -4.7951   -2.9131 H   0  0  0  0  0  0  0  0  0  0  0  0
   -1.3936   -2.5492   -2.7026 H   0  0  0  0  0  0  0  0  0  0  0  0
   -3.6708    2.5611   -1.6249 H   0  0  0  0  0  0  0  0  0  0  0  0
   -3.5180    4.7100   -0.3966 H   0  0  0  0  0  0  0  0  0  0  0  0
   -2.4520    4.7907    1.8419 H   0  0  0  0  0  0  0  0  0  0  0  0
   -1.5492    2.7221    2.8716 H   0  0  0  0  0  0  0  0  0  0  0  0
   -1.7100    0.5631    1.6695 H   0  0  0  0  0  0  0  0  0  0  0  0
  1  2  2  0
  2  3  2  0
  2  4  1  0
  4  5  1  0
  5  6  2  0
  6  7  1  0
  7  8  1  0
  8  9  1  0
  9 10  1  0
 10 11  2  0
 11 12  1  0
 12 13  1  0
  7 14  2  0
 14 15  1  0
 14 16  1  0
 16 17  2  0
 17 18  1  0
 18 19  2  0
 19 20  1  0
 20 21  2  0
  2 22  1  0
 22 23  2  0
 23 24  1  0
 24 25  2  0
 25 26  1  0
 26 27  2  0
 21  5  1  0
 27 22  1  0
 13  9  2  0
 21 16  1  0
  4 28  1  0
  6 29  1  0
 11 30  1  0
 12 31  1  0
 15 32  1  0
 17 33  1  0
 18 34  1  0
 19 35  1  0
 20 36  1  0
 23 37  1  0
 24 38  1  0
 25 39  1  0
 26 40  1  0
 27 41  1  0
M  END
$$$$
