
     RDKit          3D

 52 54  0  0  0  0  0  0  0  0999 V2000
   -2.8255    0.9724   -2.7722 C   0  0  0  0  0  0  0  0  0  0  0  0
   -3.7146   -0.1489   -2.4981 N   0  0  0  0  0  0  0  0  0  0  0  0
   -4.7485    0.0620   -1.4856 C   0  0  0  0  0  0  0  0  0  0  0  0
   -4.1812   -0.0405   -0.0862 C   0  0  0  0  0  0  0  0  0  0  0  0
   -4.0608   -1.2920    0.5368 C   0  0  0  0  0  0  0  0  0  0  0  0
   -3.5057   -1.4006    1.8111 C   0  0  0  0  0  0  0  0  0  0  0  0
   -3.0543   -0.2625    2.4736 C   0  0  0  0  0  0  0  0  0  0  0  0
   -3.1518    0.9837    1.8578 C   0  0  0  0  0  0  0  0  0  0  0  0
   -3.7113    1.0962    0.5861 C   0  0  0  0  0  0  0  0  0  0  0  0
   -3.4700   -1.4599   -2.9019 C   0  0  0  0  0  0  0  0  0  0  0  0
   -4.2999   -2.3601   -2.7459 O   0  0  0  0  0  0  0  0  0  0  0  0
   -2.1191   -1.7628   -3.5701 C   0  0  0  0  0  0  0  0  0  0  0  0
   -0.9922   -1.2505   -2.8533 O   0  0  0  0  0  0  0  0  0  0  0  0
   -0.7727   -1.8371   -1.6382 C   0  0  0  0  0  0  0  0  0  0  0  0
   -1.3325   -2.8511   -1.2439 O   0  0  0  0  0  0  0  0  0  0  0  0
    0.2624   -1.0866   -0.8262 C   0  0  0  0  0  0  0  0  0  0  0  0
    0.8924    0.0156   -1.5571 N   0  0  0  0  0  0  0  0  0  0  0  0
    1.1288    1.5022   -0.8532 S   0  0  0  0  0  6  0  0  0  0  0  0
    1.7274    2.3393   -1.8697 O   0  0  0  0  0  0  0  0  0  0  0  0
   -0.0924    1.8905   -0.1789 O   0  0  0  0  0  0  0  0  0  0  0  0
    2.3682    1.1436    0.3656 C   0  0  0  0  0  0  0  0  0  0  0  0
    2.0045    0.9884    1.7030 C   0  0  0  0  0  0  0  0  0  0  0  0
    2.9890    0.7041    2.6498 C   0  0  0  0  0  0  0  0  0  0  0  0
    4.3371    0.5812    2.2731 C   0  0  0  0  0  0  0  0  0  0  0  0
    5.3352    0.2893    3.2146 C   0  0  0  0  0  0  0  0  0  0  0  0
    6.6680    0.1589    2.8212 C   0  0  0  0  0  0  0  0  0  0  0  0
    7.0218    0.3220    1.4853 C   0  0  0  0  0  0  0  0  0  0  0  0
    6.0431    0.6194    0.5364 C   0  0  0  0  0  0  0  0  0  0  0  0
    4.6979    0.7510    0.9144 C   0  0  0  0  0  0  0  0  0  0  0  0
    3.7048    1.0412   -0.0313 C   0  0  0  0  0  0  0  0  0  0  0  0
   -3.4144    1.8876   -2.8676 H   0  0  0  0  0  0  0  0  0  0  0  0
   -2.2769    0.8259   -3.7042 H   0  0  0  0  0  0  0  0  0  0  0  0
   -2.1164    1.0804   -1.9502 H   0  0  0  0  0  0  0  0  0  0  0  0
   -5.5552   -0.6736   -1.6034 H   0  0  0  0  0  0  0  0  0  0  0  0
   -5.2107    1.0453   -1.6480 H   0  0  0  0  0  0  0  0  0  0  0  0
   -4.3888   -2.1960    0.0222 H   0  0  0  0  0  0  0  0  0  0  0  0
   -3.4209   -2.3760    2.2804 H   0  0  0  0  0  0  0  0  0  0  0  0
   -2.6201   -0.3477    3.4619 H   0  0  0  0  0  0  0  0  0  0  0  0
   -2.7749    1.8708    2.3628 H   0  0  0  0  0  0  0  0  0  0  0  0
   -3.7621    2.0764    0.1188 H   0  0  0  0  0  0  0  0  0  0  0  0
   -2.1225   -1.3173   -4.5718 H   0  0  0  0  0  0  0  0  0  0  0  0
   -2.0105   -2.8468   -3.7046 H   0  0  0  0  0  0  0  0  0  0  0  0
    1.0462   -1.7996   -0.5553 H   0  0  0  0  0  0  0  0  0  0  0  0
   -0.2322   -0.7303    0.0809 H   0  0  0  0  0  0  0  0  0  0  0  0
    1.1608   -0.0986   -2.5328 H   0  0  0  0  0  0  0  0  0  0  0  0
    0.9677    1.0858    2.0155 H   0  0  0  0  0  0  0  0  0  0  0  0
    2.6967    0.5811    3.6902 H   0  0  0  0  0  0  0  0  0  0  0  0
    5.0806    0.1561    4.2639 H   0  0  0  0  0  0  0  0  0  0  0  0
    7.4314   -0.0747    3.5584 H   0  0  0  0  0  0  0  0  0  0  0  0
    8.0634    0.2146    1.1781 H   0  0  0  0  0  0  0  0  0  0  0  0
    6.3423    0.7450   -0.5030 H   0  0  0  0  0  0  0  0  0  0  0  0
    3.9682    1.1833   -1.0779 H   0  0  0  0  0  0  0  0  0  0  0  0
  1  2  1  0
  2  3  1  0
  3  4  1  0
  4  5  2  0
  5  6  1  0
  6  7  2  0
  7  8  1  0
  8  9  2  0
  2 10  1  0
 10 11  2  0
 10 12  1  0
 12 13  1  0
 13 14  1  0
 14 15  2  0
 14 16  1  0
 16 17  1  0
 17 18  1  0
 18 19  2  0
 18 20  2  0
 18 21  1  0
 21 22  2  0
 22 23  1  0
 23 24  2  0
 24 25  1  0
 25 26  2  0
 26 27  1  0
 27 28  2  0
 28 29  1  0
 29 30  2  0
  9  4  1  0
 30 21  1  0
 29 24  1  0
  1 31  1  0
  1 32  1  0
  1 33  1  0
  3 34  1  0
  3 35  1  0
  5 36  1  0
  6 37  1  0
  7 38  1  0
  8 39  1  0
  9 40  1  0
 12 41  1  0
 12 42  1  0
 16 43  1  0
 16 44  1  0
 17 45  1  0
 22 46  1  0
 23 47  1  0
 25 48  1  0
 26 49  1  0
 27 50  1  0
 28 51  1  0
 30 52  1  0
M  END
$$$$
