
     RDKit          3D

 46 48  0  0  0  0  0  0  0  0999 V2000
    0.4589    1.1637   -2.4215 C   0  0  0  0  0  0  0  0  0  0  0  0
   -0.1066    1.8115   -1.1741 C   0  0  0  0  0  0  0  0  0  0  0  0
    0.2097    3.2434   -0.9024 C   0  0  0  0  0  0  0  0  0  0  0  0
    1.4059    3.8423   -1.0036 C   0  0  0  0  0  0  0  0  0  0  0  0
    2.6924    3.2235   -1.3378 C   0  0  0  0  0  0  0  0  0  0  0  0
    3.4887    3.7953   -2.3370 C   0  0  0  0  0  0  0  0  0  0  0  0
    4.7314    3.2416   -2.6542 C   0  0  0  0  0  0  0  0  0  0  0  0
    5.1910    2.1189   -1.9677 C   0  0  0  0  0  0  0  0  0  0  0  0
    4.4119    1.5531   -0.9604 C   0  0  0  0  0  0  0  0  0  0  0  0
    3.1710    2.1078   -0.6403 C   0  0  0  0  0  0  0  0  0  0  0  0
   -0.9332    1.2304   -0.3457 N   0  0  0  0  0  0  0  0  0  0  0  0
   -1.1774   -0.1101   -0.5154 N   0  0  0  0  0  0  0  0  0  0  0  0
   -0.1863   -1.0399   -0.2112 C   0  0  0  0  0  0  0  0  0  0  0  0
    0.9870   -0.7767    0.0306 O   0  0  0  0  0  0  0  0  0  0  0  0
   -0.6022   -2.4741   -0.1957 C   0  0  0  0  0  0  0  0  0  0  0  0
   -1.9551   -2.9829   -0.6123 C   0  0  0  0  0  0  0  0  0  0  0  0
   -1.5527   -3.0463    0.8532 C   0  0  0  0  0  0  0  0  0  0  0  0
   -1.2052   -4.4040    1.4215 C   0  0  0  0  0  0  0  0  0  0  0  0
   -2.2753   -2.1342    1.8353 C   0  0  0  0  0  0  0  0  0  0  0  0
   -3.6796   -2.0935    1.8971 C   0  0  0  0  0  0  0  0  0  0  0  0
   -4.3474   -1.2566    2.7948 C   0  0  0  0  0  0  0  0  0  0  0  0
   -3.6210   -0.4437    3.6592 C   0  0  0  0  0  0  0  0  0  0  0  0
   -2.2303   -0.4747    3.6303 C   0  0  0  0  0  0  0  0  0  0  0  0
   -1.5681   -1.3161    2.7331 C   0  0  0  0  0  0  0  0  0  0  0  0
    0.7996    1.9195   -3.1346 H   0  0  0  0  0  0  0  0  0  0  0  0
    1.2953    0.5086   -2.1728 H   0  0  0  0  0  0  0  0  0  0  0  0
   -0.3185    0.5770   -2.9202 H   0  0  0  0  0  0  0  0  0  0  0  0
   -0.6434    3.8180   -0.5521 H   0  0  0  0  0  0  0  0  0  0  0  0
    1.4680    4.9055   -0.7783 H   0  0  0  0  0  0  0  0  0  0  0  0
    3.1451    4.6714   -2.8817 H   0  0  0  0  0  0  0  0  0  0  0  0
    5.3403    3.6865   -3.4366 H   0  0  0  0  0  0  0  0  0  0  0  0
    6.1563    1.6856   -2.2152 H   0  0  0  0  0  0  0  0  0  0  0  0
    4.7644    0.6775   -0.4213 H   0  0  0  0  0  0  0  0  0  0  0  0
    2.5793    1.6508    0.1519 H   0  0  0  0  0  0  0  0  0  0  0  0
   -2.0961   -0.3767   -0.1741 H   0  0  0  0  0  0  0  0  0  0  0  0
    0.2310   -3.1123   -0.4859 H   0  0  0  0  0  0  0  0  0  0  0  0
   -2.7215   -2.2858   -0.9275 H   0  0  0  0  0  0  0  0  0  0  0  0
   -1.9882   -3.9101   -1.1770 H   0  0  0  0  0  0  0  0  0  0  0  0
   -2.1084   -4.9208    1.7633 H   0  0  0  0  0  0  0  0  0  0  0  0
   -0.5224   -4.3004    2.2715 H   0  0  0  0  0  0  0  0  0  0  0  0
   -0.7173   -5.0452    0.6790 H   0  0  0  0  0  0  0  0  0  0  0  0
   -4.2659   -2.7291    1.2366 H   0  0  0  0  0  0  0  0  0  0  0  0
   -5.4339   -1.2426    2.8197 H   0  0  0  0  0  0  0  0  0  0  0  0
   -4.1364    0.2108    4.3569 H   0  0  0  0  0  0  0  0  0  0  0  0
   -1.6558    0.1571    4.3029 H   0  0  0  0  0  0  0  0  0  0  0  0
   -0.4788   -1.3237    2.7289 H   0  0  0  0  0  0  0  0  0  0  0  0
  1  2  1  0
  2  3  1  0
  3  4  2  3
  4  5  1  0
  5  6  2  0
  6  7  1  0
  7  8  2  0
  8  9  1  0
  9 10  2  0
  2 11  2  3
 11 12  1  0
 12 13  1  0
 13 14  2  0
 13 15  1  0
 15 16  1  0
 16 17  1  0
 17 18  1  0
 17 19  1  0
 19 20  2  0
 20 21  1  0
 21 22  2  0
 22 23  1  0
 23 24  2  0
 10  5  1  0
 17 15  1  0
 24 19  1  0
  1 25  1  0
  1 26  1  0
  1 27  1  0
  3 28  1  0
  4 29  1  0
  6 30  1  0
  7 31  1  0
  8 32  1  0
  9 33  1  0
 10 34  1  0
 12 35  1  0
 15 36  1  0
 16 37  1  0
 16 38  1  0
 18 39  1  0
 18 40  1  0
 18 41  1  0
 20 42  1  0
 21 43  1  0
 22 44  1  0
 23 45  1  0
 24 46  1  0
M  END
$$$$
