
     RDKit          3D

 52 51  0  0  0  0  0  0  0  0999 V2000
   -5.7998    0.2163   -2.9244 C   0  0  0  0  0  0  0  0  0  0  0  0
   -4.8992    0.4247   -2.1569 C   0  0  0  0  0  0  0  0  0  0  0  0
   -3.7852    0.6772   -1.2364 C   0  0  0  0  0  0  0  0  0  0  0  0
   -4.2388    0.7312    0.2363 N   0  0  0  0  0  4  0  0  0  0  0  0
   -4.9232   -0.5649    0.6509 C   0  0  0  0  0  0  0  0  0  0  0  0
   -5.2578    1.8761    0.3881 C   0  0  0  0  0  0  0  0  0  0  0  0
   -3.0460    1.0731    1.1544 C   0  0  0  0  0  0  0  0  0  0  0  0
   -2.1537   -0.0879    1.6159 C   0  0  0  0  0  0  0  0  0  0  0  0
   -1.3015   -0.7568    0.5388 C   0  0  0  0  0  0  0  0  0  0  0  0
   -0.2413   -1.7123    1.1020 C   0  0  0  0  0  0  0  0  0  0  0  0
    0.8403   -1.0774    1.9827 C   0  0  0  0  0  0  0  0  0  0  0  0
    1.5988    0.0995    1.3627 C   0  0  0  0  0  0  0  0  0  0  0  0
    2.3447   -0.2682    0.0776 C   0  0  0  0  0  0  0  0  0  0  0  0
    3.1639    0.9163   -0.4410 C   0  0  0  0  0  0  0  0  0  0  0  0
    3.8736    0.6301   -1.7648 C   0  0  0  0  0  0  0  0  0  0  0  0
    4.9130   -0.4967   -1.7566 C   0  0  0  0  0  0  0  0  0  0  0  0
    6.1439   -0.2307   -0.8847 C   0  0  0  0  0  0  0  0  0  0  0  0
    6.0417   -0.8204    0.5140 C   0  0  0  0  0  0  0  0  0  0  0  0
   -6.5905    0.0305   -3.6179 H   0  0  0  0  0  0  0  0  0  0  0  0
   -3.3043    1.6354   -1.4625 H   0  0  0  0  0  0  0  0  0  0  0  0
   -3.0446   -0.1152   -1.3336 H   0  0  0  0  0  0  0  0  0  0  0  0
   -5.8712   -0.6601    0.1136 H   0  0  0  0  0  0  0  0  0  0  0  0
   -4.2706   -1.4060    0.4055 H   0  0  0  0  0  0  0  0  0  0  0  0
   -5.1166   -0.5210    1.7270 H   0  0  0  0  0  0  0  0  0  0  0  0
   -4.7779    2.8073    0.0726 H   0  0  0  0  0  0  0  0  0  0  0  0
   -5.5555    1.9347    1.4398 H   0  0  0  0  0  0  0  0  0  0  0  0
   -6.1384    1.6650   -0.2242 H   0  0  0  0  0  0  0  0  0  0  0  0
   -3.4747    1.5248    2.0579 H   0  0  0  0  0  0  0  0  0  0  0  0
   -2.4566    1.8485    0.6507 H   0  0  0  0  0  0  0  0  0  0  0  0
   -2.7420   -0.8454    2.1459 H   0  0  0  0  0  0  0  0  0  0  0  0
   -1.4850    0.3395    2.3726 H   0  0  0  0  0  0  0  0  0  0  0  0
   -0.8279    0.0001   -0.0953 H   0  0  0  0  0  0  0  0  0  0  0  0
   -1.9462   -1.3594   -0.1079 H   0  0  0  0  0  0  0  0  0  0  0  0
   -0.7433   -2.4958    1.6839 H   0  0  0  0  0  0  0  0  0  0  0  0
    0.2401   -2.2269    0.2615 H   0  0  0  0  0  0  0  0  0  0  0  0
    1.5616   -1.8586    2.2547 H   0  0  0  0  0  0  0  0  0  0  0  0
    0.3936   -0.7459    2.9273 H   0  0  0  0  0  0  0  0  0  0  0  0
    2.3223    0.4635    2.1032 H   0  0  0  0  0  0  0  0  0  0  0  0
    0.9113    0.9314    1.1714 H   0  0  0  0  0  0  0  0  0  0  0  0
    1.6324   -0.5751   -0.6962 H   0  0  0  0  0  0  0  0  0  0  0  0
    2.9978   -1.1245    0.2757 H   0  0  0  0  0  0  0  0  0  0  0  0
    3.8887    1.2403    0.3131 H   0  0  0  0  0  0  0  0  0  0  0  0
    2.4897    1.7683   -0.5976 H   0  0  0  0  0  0  0  0  0  0  0  0
    4.3586    1.5542   -2.1040 H   0  0  0  0  0  0  0  0  0  0  0  0
    3.1162    0.3907   -2.5221 H   0  0  0  0  0  0  0  0  0  0  0  0
    4.4490   -1.4550   -1.4987 H   0  0  0  0  0  0  0  0  0  0  0  0
    5.2626   -0.6046   -2.7921 H   0  0  0  0  0  0  0  0  0  0  0  0
    7.0123   -0.6934   -1.3704 H   0  0  0  0  0  0  0  0  0  0  0  0
    6.3554    0.8428   -0.8253 H   0  0  0  0  0  0  0  0  0  0  0  0
    5.2467   -0.3545    1.0996 H   0  0  0  0  0  0  0  0  0  0  0  0
    6.9821   -0.6673    1.0535 H   0  0  0  0  0  0  0  0  0  0  0  0
    5.8513   -1.8976    0.4721 H   0  0  0  0  0  0  0  0  0  0  0  0
  1  2  3  0
  2  3  1  0
  3  4  1  0
  4  5  1  0
  4  6  1  0
  4  7  1  0
  7  8  1  0
  8  9  1  0
  9 10  1  0
 10 11  1  0
 11 12  1  0
 12 13  1  0
 13 14  1  0
 14 15  1  0
 15 16  1  0
 16 17  1  0
 17 18  1  0
  1 19  1  0
  3 20  1  0
  3 21  1  0
  5 22  1  0
  5 23  1  0
  5 24  1  0
  6 25  1  0
  6 26  1  0
  6 27  1  0
  7 28  1  0
  7 29  1  0
  8 30  1  0
  8 31  1  0
  9 32  1  0
  9 33  1  0
 10 34  1  0
 10 35  1  0
 11 36  1  0
 11 37  1  0
 12 38  1  0
 12 39  1  0
 13 40  1  0
 13 41  1  0
 14 42  1  0
 14 43  1  0
 15 44  1  0
 15 45  1  0
 16 46  1  0
 16 47  1  0
 17 48  1  0
 17 49  1  0
 18 50  1  0
 18 51  1  0
 18 52  1  0
M  CHG  1   4   1
M  END
$$$$
