
     RDKit          3D

 38 40  0  0  0  0  0  0  0  0999 V2000
   -2.3258   -2.7649   -0.1744 C   0  0  0  0  0  0  0  0  0  0  0  0
   -2.6369   -1.4679   -0.8652 C   0  0  0  0  0  0  0  0  0  0  0  0
   -2.6430   -1.4605   -2.2732 C   0  0  0  0  0  0  0  0  0  0  0  0
   -2.9490   -0.3019   -2.9815 C   0  0  0  0  0  0  0  0  0  0  0  0
   -2.9471   -0.3277   -4.3202 F   0  0  0  0  0  0  0  0  0  0  0  0
   -3.2646    0.8754   -2.3217 C   0  0  0  0  0  0  0  0  0  0  0  0
   -3.2666    0.8955   -0.9284 C   0  0  0  0  0  0  0  0  0  0  0  0
   -2.9408   -0.2647   -0.1961 C   0  0  0  0  0  0  0  0  0  0  0  0
   -2.9700   -0.0949    1.5903 S   0  0  0  0  0  6  0  0  0  0  0  0
   -4.0577    0.8082    1.9077 O   0  0  0  0  0  0  0  0  0  0  0  0
   -2.8842   -1.3942    2.2170 O   0  0  0  0  0  0  0  0  0  0  0  0
   -1.5495    0.7683    1.9067 N   0  0  0  0  0  0  0  0  0  0  0  0
   -0.3055    0.2479    1.4579 C   0  0  0  0  0  0  0  0  0  0  0  0
    0.2323   -0.8958    2.0430 C   0  0  0  0  0  0  0  0  0  0  0  0
    1.4310   -1.4211    1.5635 C   0  0  0  0  0  0  0  0  0  0  0  0
    2.0886   -0.7993    0.5036 C   0  0  0  0  0  0  0  0  0  0  0  0
    3.2581   -1.3831    0.1004 O   0  0  0  0  0  0  0  0  0  0  0  0
    1.5572    0.3505   -0.0980 C   0  0  0  0  0  0  0  0  0  0  0  0
    2.2883    1.1518   -1.5173 S   0  0  0  0  0  0  0  0  0  0  0  0
    3.7935    1.7267   -0.8616 C   0  0  0  0  0  0  0  0  0  0  0  0
    4.0515    3.0406   -0.5946 N   0  0  0  0  0  0  0  0  0  0  0  0
    5.2780    3.0109   -0.1286 C   0  0  0  0  0  0  0  0  0  0  0  0
    5.7310    1.7293   -0.1210 N   0  0  0  0  0  0  0  0  0  0  0  0
    4.7958    0.8817   -0.5874 N   0  0  0  0  0  0  0  0  0  0  0  0
    0.3492    0.8680    0.3912 C   0  0  0  0  0  0  0  0  0  0  0  0
   -2.0590   -3.5468   -0.8946 H   0  0  0  0  0  0  0  0  0  0  0  0
   -3.2007   -3.1247    0.3752 H   0  0  0  0  0  0  0  0  0  0  0  0
   -1.4702   -2.6574    0.4954 H   0  0  0  0  0  0  0  0  0  0  0  0
   -2.4131   -2.3611   -2.8382 H   0  0  0  0  0  0  0  0  0  0  0  0
   -3.5128    1.7638   -2.8940 H   0  0  0  0  0  0  0  0  0  0  0  0
   -3.5292    1.8196   -0.4162 H   0  0  0  0  0  0  0  0  0  0  0  0
   -1.6951    1.7752    1.8564 H   0  0  0  0  0  0  0  0  0  0  0  0
   -0.2748   -1.3857    2.8711 H   0  0  0  0  0  0  0  0  0  0  0  0
    1.8535   -2.3150    2.0150 H   0  0  0  0  0  0  0  0  0  0  0  0
    3.7759   -0.7181   -0.4025 H   0  0  0  0  0  0  0  0  0  0  0  0
    5.8669    3.8536    0.2051 H   0  0  0  0  0  0  0  0  0  0  0  0
    6.6315    1.3692    0.1769 H   0  0  0  0  0  0  0  0  0  0  0  0
   -0.0867    1.7490   -0.0732 H   0  0  0  0  0  0  0  0  0  0  0  0
  1  2  1  0
  2  3  2  0
  3  4  1  0
  4  5  1  0
  4  6  2  0
  6  7  1  0
  7  8  2  0
  8  9  1  0
  9 10  2  0
  9 11  2  0
  9 12  1  0
 12 13  1  0
 13 14  2  0
 14 15  1  0
 15 16  2  0
 16 17  1  0
 16 18  1  0
 18 19  1  0
 19 20  1  0
 20 21  1  0
 21 22  2  0
 22 23  1  0
 23 24  1  0
 18 25  2  0
  8  2  1  0
 25 13  1  0
 24 20  2  0
  1 26  1  0
  1 27  1  0
  1 28  1  0
  3 29  1  0
  6 30  1  0
  7 31  1  0
 12 32  1  0
 14 33  1  0
 15 34  1  0
 17 35  1  0
 22 36  1  0
 23 37  1  0
 25 38  1  0
M  END
$$$$
