
     RDKit          3D

 46 48  0  0  0  0  0  0  0  0999 V2000
    8.4648   -0.5075    1.9721 C   0  0  0  0  0  0  0  0  0  0  0  0
    8.0445   -1.3906    0.8123 C   0  0  0  0  0  0  0  0  0  0  0  0
    7.0354   -0.7340    0.0308 O   0  0  0  0  0  0  0  0  0  0  0  0
    5.7566   -0.9128    0.4506 C   0  0  0  0  0  0  0  0  0  0  0  0
    5.4109   -1.5677    1.4200 O   0  0  0  0  0  0  0  0  0  0  0  0
    4.8101   -0.1885   -0.4440 C   0  0  0  0  0  0  0  0  0  0  0  0
    5.2547    0.6095   -1.5064 C   0  0  0  0  0  0  0  0  0  0  0  0
    4.3329    1.2755   -2.3115 C   0  0  0  0  0  0  0  0  0  0  0  0
    2.9662    1.1456   -2.0597 C   0  0  0  0  0  0  0  0  0  0  0  0
    2.5030    0.3475   -1.0050 C   0  0  0  0  0  0  0  0  0  0  0  0
    1.1050    0.2800   -0.8233 N   0  0  0  0  0  0  0  0  0  0  0  0
    0.4126   -0.5056    0.0805 C   0  0  0  0  0  0  0  0  0  0  0  0
    0.8857   -1.3442    0.8367 O   0  0  0  0  0  0  0  0  0  0  0  0
   -1.0669   -0.3196    0.0725 C   0  0  0  0  0  0  0  0  0  0  0  0
   -1.8810   -1.4245    0.3388 C   0  0  0  0  0  0  0  0  0  0  0  0
   -3.2728   -1.2889    0.3393 C   0  0  0  0  0  0  0  0  0  0  0  0
   -3.8703   -0.0485    0.0828 C   0  0  0  0  0  0  0  0  0  0  0  0
   -5.2755    0.0006    0.1001 N   0  0  0  0  0  0  0  0  0  0  0  0
   -6.1031    1.0839   -0.1388 C   0  0  0  0  0  0  0  0  0  0  0  0
   -5.7284    2.2160   -0.4263 O   0  0  0  0  0  0  0  0  0  0  0  0
   -7.5108    0.7449   -0.0196 C   0  0  0  0  0  0  0  0  0  0  0  0
   -8.6489    1.5145   -0.1712 C   0  0  0  0  0  0  0  0  0  0  0  0
   -9.7535    0.6613    0.0626 C   0  0  0  0  0  0  0  0  0  0  0  0
   -9.2278   -0.5775    0.3425 C   0  0  0  0  0  0  0  0  0  0  0  0
   -7.8708   -0.5422    0.2958 O   0  0  0  0  0  0  0  0  0  0  0  0
   -3.0525    1.0570   -0.1622 C   0  0  0  0  0  0  0  0  0  0  0  0
   -1.6574    0.9267   -0.1624 C   0  0  0  0  0  0  0  0  0  0  0  0
    3.4323   -0.3138   -0.1979 C   0  0  0  0  0  0  0  0  0  0  0  0
    9.2761   -0.9723    2.5394 H   0  0  0  0  0  0  0  0  0  0  0  0
    8.8016    0.4692    1.6092 H   0  0  0  0  0  0  0  0  0  0  0  0
    7.6255   -0.3230    2.6500 H   0  0  0  0  0  0  0  0  0  0  0  0
    7.7054   -2.3739    1.1582 H   0  0  0  0  0  0  0  0  0  0  0  0
    8.9002   -1.5607    0.1507 H   0  0  0  0  0  0  0  0  0  0  0  0
    6.3154    0.7239   -1.7160 H   0  0  0  0  0  0  0  0  0  0  0  0
    4.6786    1.8961   -3.1346 H   0  0  0  0  0  0  0  0  0  0  0  0
    2.2693    1.6763   -2.7039 H   0  0  0  0  0  0  0  0  0  0  0  0
    0.5520    0.8159   -1.4792 H   0  0  0  0  0  0  0  0  0  0  0  0
   -1.4333   -2.3950    0.5463 H   0  0  0  0  0  0  0  0  0  0  0  0
   -3.8785   -2.1681    0.5461 H   0  0  0  0  0  0  0  0  0  0  0  0
   -5.7663   -0.8624    0.3114 H   0  0  0  0  0  0  0  0  0  0  0  0
   -8.6642    2.5673   -0.4206 H   0  0  0  0  0  0  0  0  0  0  0  0
  -10.8034    0.9175    0.0315 H   0  0  0  0  0  0  0  0  0  0  0  0
   -9.6637   -1.5375    0.5835 H   0  0  0  0  0  0  0  0  0  0  0  0
   -3.4675    2.0440   -0.3432 H   0  0  0  0  0  0  0  0  0  0  0  0
   -1.0539    1.8173   -0.3158 H   0  0  0  0  0  0  0  0  0  0  0  0
    3.1117   -0.9318    0.6369 H   0  0  0  0  0  0  0  0  0  0  0  0
  1  2  1  0
  2  3  1  0
  3  4  1  0
  4  5  2  0
  4  6  1  0
  6  7  2  0
  7  8  1  0
  8  9  2  0
  9 10  1  0
 10 11  1  0
 11 12  1  0
 12 13  2  0
 12 14  1  0
 14 15  2  0
 15 16  1  0
 16 17  2  0
 17 18  1  0
 18 19  1  0
 19 20  2  0
 19 21  1  0
 21 22  2  0
 22 23  1  0
 23 24  2  0
 24 25  1  0
 17 26  1  0
 26 27  2  0
 10 28  2  0
 28  6  1  0
 27 14  1  0
 25 21  1  0
  1 29  1  0
  1 30  1  0
  1 31  1  0
  2 32  1  0
  2 33  1  0
  7 34  1  0
  8 35  1  0
  9 36  1  0
 11 37  1  0
 15 38  1  0
 16 39  1  0
 18 40  1  0
 22 41  1  0
 23 42  1  0
 24 43  1  0
 26 44  1  0
 27 45  1  0
 28 46  1  0
M  END
$$$$
