
     RDKit          3D

 40 41  0  0  0  0  0  0  0  0999 V2000
    5.1878   -1.9121   -4.4613 C   0  0  0  0  0  0  0  0  0  0  0  0
    5.4277   -0.4130   -4.3495 C   0  0  0  0  0  0  0  0  0  0  0  0
    4.1294    0.3801   -4.2136 C   0  0  0  0  0  0  0  0  0  0  0  0
    3.4765    0.2633   -2.8418 C   0  0  0  0  0  0  0  0  0  0  0  0
    4.0218   -0.3012   -1.9014 O   0  0  0  0  0  0  0  0  0  0  0  0
    2.2374    0.8861   -2.8203 N   0  0  0  0  0  0  0  0  0  0  0  0
    1.3459    0.9898   -1.7333 C   0  0  0  0  0  0  0  0  0  0  0  0
    1.5942    0.4632   -0.4642 C   0  0  0  0  0  0  0  0  0  0  0  0
    0.6559    0.6066    0.5675 C   0  0  0  0  0  0  0  0  0  0  0  0
   -0.5501    1.2756    0.3352 C   0  0  0  0  0  0  0  0  0  0  0  0
   -1.5809    1.4578    1.3943 C   0  0  0  0  0  0  0  0  0  0  0  0
   -2.4331    2.3383    1.2981 O   0  0  0  0  0  0  0  0  0  0  0  0
   -1.5448    0.5725    2.4558 N   0  0  0  0  0  0  0  0  0  0  0  0
   -2.6497    0.5865    3.3279 N   0  0  0  0  0  0  0  0  0  0  0  0
   -3.1624   -0.6302    3.7486 C   0  0  0  0  0  0  0  0  0  0  0  0
   -2.5321   -1.6731    3.5578 O   0  0  0  0  0  0  0  0  0  0  0  0
   -4.4634   -0.5922    4.4008 C   0  0  0  0  0  0  0  0  0  0  0  0
   -5.1649   -1.6732    4.9054 C   0  0  0  0  0  0  0  0  0  0  0  0
   -6.4127   -1.2993    5.4824 C   0  0  0  0  0  0  0  0  0  0  0  0
   -6.6286    0.0574    5.4008 C   0  0  0  0  0  0  0  0  0  0  0  0
   -5.3334    0.8674    4.6340 S   0  0  0  0  0  0  0  0  0  0  0  0
   -0.7966    1.8169   -0.9309 C   0  0  0  0  0  0  0  0  0  0  0  0
    0.1431    1.6710   -1.9568 C   0  0  0  0  0  0  0  0  0  0  0  0
    4.5550   -2.1438   -5.3240 H   0  0  0  0  0  0  0  0  0  0  0  0
    6.1399   -2.4366   -4.5909 H   0  0  0  0  0  0  0  0  0  0  0  0
    4.7041   -2.3108   -3.5648 H   0  0  0  0  0  0  0  0  0  0  0  0
    5.9500   -0.0791   -5.2540 H   0  0  0  0  0  0  0  0  0  0  0  0
    6.0940   -0.2112   -3.5029 H   0  0  0  0  0  0  0  0  0  0  0  0
    3.4135    0.0649   -4.9818 H   0  0  0  0  0  0  0  0  0  0  0  0
    4.3494    1.4427   -4.3742 H   0  0  0  0  0  0  0  0  0  0  0  0
    1.9342    1.3178   -3.6844 H   0  0  0  0  0  0  0  0  0  0  0  0
    2.5170   -0.0624   -0.2363 H   0  0  0  0  0  0  0  0  0  0  0  0
    0.9061    0.2063    1.5461 H   0  0  0  0  0  0  0  0  0  0  0  0
   -1.0734   -0.3284    2.3779 H   0  0  0  0  0  0  0  0  0  0  0  0
   -3.2589    1.4019    3.2610 H   0  0  0  0  0  0  0  0  0  0  0  0
   -4.7902   -2.6901    4.8591 H   0  0  0  0  0  0  0  0  0  0  0  0
   -7.1144   -1.9906    5.9336 H   0  0  0  0  0  0  0  0  0  0  0  0
   -7.4858    0.6141    5.7550 H   0  0  0  0  0  0  0  0  0  0  0  0
   -1.7237    2.3534   -1.1256 H   0  0  0  0  0  0  0  0  0  0  0  0
   -0.0836    2.1011   -2.9293 H   0  0  0  0  0  0  0  0  0  0  0  0
  1  2  1  0
  2  3  1  0
  3  4  1  0
  4  5  2  0
  4  6  1  0
  6  7  1  0
  7  8  2  0
  8  9  1  0
  9 10  2  0
 10 11  1  0
 11 12  2  0
 11 13  1  0
 13 14  1  0
 14 15  1  0
 15 16  2  0
 15 17  1  0
 17 18  2  0
 18 19  1  0
 19 20  2  0
 20 21  1  0
 10 22  1  0
 22 23  2  0
 23  7  1  0
 21 17  1  0
  1 24  1  0
  1 25  1  0
  1 26  1  0
  2 27  1  0
  2 28  1  0
  3 29  1  0
  3 30  1  0
  6 31  1  0
  8 32  1  0
  9 33  1  0
 13 34  1  0
 14 35  1  0
 18 36  1  0
 19 37  1  0
 20 38  1  0
 22 39  1  0
 23 40  1  0
M  END
$$$$
