
     RDKit          3D

 55 60  0  0  0  0  0  0  0  0999 V2000
    4.7784   -1.1093    0.3531 O   0  0  0  0  0  0  0  0  0  0  0  0
    4.0665   -0.2245    0.8257 C   0  0  0  0  0  0  0  0  0  0  0  0
    4.5795    1.1332    0.9493 C   0  0  0  0  0  0  0  0  0  0  0  0
    4.3618    2.1416    1.9342 C   0  0  0  0  0  0  0  0  0  0  0  0
    5.1287    3.2232    1.5695 C   0  0  0  0  0  0  0  0  0  0  0  0
    5.8208    2.9503    0.4360 O   0  0  0  0  0  0  0  0  0  0  0  0
    5.5044    1.6799    0.0802 C   0  0  0  0  0  0  0  0  0  0  0  0
    2.7570   -0.4835    1.2482 N   0  0  0  0  0  0  0  0  0  0  0  0
    2.2786   -1.8559    1.2113 C   0  0  0  0  0  0  0  0  0  0  0  0
    1.3577   -2.0628    0.0109 C   0  0  0  0  0  0  0  0  0  0  0  0
    0.2681   -0.9444   -0.1360 C   0  0  0  0  0  0  0  0  0  0  0  0
    0.3153   -0.0174    1.1090 C   0  0  0  0  0  0  0  0  0  0  0  0
    1.7231    0.5421    1.3455 C   0  0  0  0  0  0  0  0  0  0  0  0
    0.6123   -0.0749   -1.2483 O   0  0  0  0  0  0  0  0  0  0  0  0
    0.4221   -0.5956   -2.4980 C   0  0  0  0  0  0  0  0  0  0  0  0
    1.0873    0.0495   -3.5393 C   0  0  0  0  0  0  0  0  0  0  0  0
    0.9666   -0.4282   -4.8463 C   0  0  0  0  0  0  0  0  0  0  0  0
    0.1772   -1.5486   -5.1074 C   0  0  0  0  0  0  0  0  0  0  0  0
    0.0320   -2.1296   -6.7189 Cl  0  0  0  0  0  0  0  0  0  0  0  0
   -0.5013   -2.1917   -4.0756 C   0  0  0  0  0  0  0  0  0  0  0  0
   -0.3813   -1.7021   -2.7711 C   0  0  0  0  0  0  0  0  0  0  0  0
   -1.1303   -2.3286   -1.6649 C   0  0  0  0  0  0  0  0  0  0  0  0
   -1.7245   -3.3842   -1.8539 O   0  0  0  0  0  0  0  0  0  0  0  0
   -1.1497   -1.5429   -0.3579 C   0  0  0  0  0  0  0  0  0  0  0  0
   -2.2976   -0.5427   -0.4423 C   0  0  0  0  0  0  0  0  0  0  0  0
   -2.8759   -0.7262    0.9170 C   0  0  0  0  0  0  0  0  0  0  0  0
   -3.8897    0.2008    1.4712 C   0  0  0  0  0  0  0  0  0  0  0  0
   -4.2614    0.0741    2.8161 C   0  0  0  0  0  0  0  0  0  0  0  0
   -5.2092    0.9389    3.3702 C   0  0  0  0  0  0  0  0  0  0  0  0
   -5.7883    1.9284    2.5796 C   0  0  0  0  0  0  0  0  0  0  0  0
   -6.9549    2.9936    3.2587 Cl  0  0  0  0  0  0  0  0  0  0  0  0
   -5.4286    2.0593    1.2392 C   0  0  0  0  0  0  0  0  0  0  0  0
   -4.4797    1.1953    0.6819 C   0  0  0  0  0  0  0  0  0  0  0  0
   -2.4185   -1.7458    1.5685 N   0  0  0  0  0  0  0  0  0  0  0  0
   -1.4950   -2.4095    0.7285 O   0  0  0  0  0  0  0  0  0  0  0  0
    3.7437    2.0820    2.8180 H   0  0  0  0  0  0  0  0  0  0  0  0
    5.2966    4.2030    1.9953 H   0  0  0  0  0  0  0  0  0  0  0  0
    6.0033    1.3020   -0.8019 H   0  0  0  0  0  0  0  0  0  0  0  0
    1.7485   -2.0541    2.1505 H   0  0  0  0  0  0  0  0  0  0  0  0
    3.1107   -2.5667    1.1700 H   0  0  0  0  0  0  0  0  0  0  0  0
    1.9821   -2.1038   -0.8902 H   0  0  0  0  0  0  0  0  0  0  0  0
    0.9005   -3.0533    0.1174 H   0  0  0  0  0  0  0  0  0  0  0  0
   -0.0073   -0.5618    2.0043 H   0  0  0  0  0  0  0  0  0  0  0  0
   -0.3594    0.8383    0.9923 H   0  0  0  0  0  0  0  0  0  0  0  0
    1.9303    1.3371    0.6207 H   0  0  0  0  0  0  0  0  0  0  0  0
    1.7692    0.9739    2.3504 H   0  0  0  0  0  0  0  0  0  0  0  0
    1.7139    0.9149   -3.3353 H   0  0  0  0  0  0  0  0  0  0  0  0
    1.4950    0.0730   -5.6539 H   0  0  0  0  0  0  0  0  0  0  0  0
   -1.1236   -3.0593   -4.2830 H   0  0  0  0  0  0  0  0  0  0  0  0
   -1.9727    0.4843   -0.6250 H   0  0  0  0  0  0  0  0  0  0  0  0
   -3.0558   -0.8183   -1.1841 H   0  0  0  0  0  0  0  0  0  0  0  0
   -3.8187   -0.6994    3.4416 H   0  0  0  0  0  0  0  0  0  0  0  0
   -5.4903    0.8321    4.4149 H   0  0  0  0  0  0  0  0  0  0  0  0
   -5.8879    2.8274    0.6219 H   0  0  0  0  0  0  0  0  0  0  0  0
   -4.2294    1.3130   -0.3683 H   0  0  0  0  0  0  0  0  0  0  0  0
  1  2  2  0
  2  3  1  0
  3  4  1  0
  4  5  2  0
  5  6  1  0
  6  7  1  0
  2  8  1  0
  8  9  1  0
  9 10  1  0
 10 11  1  0
 11 12  1  0
 12 13  1  0
 11 14  1  0
 14 15  1  0
 15 16  2  0
 16 17  1  0
 17 18  2  0
 18 19  1  0
 18 20  1  0
 20 21  2  0
 21 22  1  0
 22 23  2  0
 22 24  1  0
 24 25  1  0
 25 26  1  0
 26 27  1  0
 27 28  2  0
 28 29  1  0
 29 30  2  0
 30 31  1  0
 30 32  1  0
 32 33  2  0
 26 34  2  0
 34 35  1  0
  7  3  2  0
 13  8  1  0
 21 15  1  0
 35 24  1  0
 24 11  1  0
 33 27  1  0
  4 36  1  0
  5 37  1  0
  7 38  1  0
  9 39  1  0
  9 40  1  0
 10 41  1  0
 10 42  1  0
 12 43  1  0
 12 44  1  0
 13 45  1  0
 13 46  1  0
 16 47  1  0
 17 48  1  0
 20 49  1  0
 25 50  1  0
 25 51  1  0
 28 52  1  0
 29 53  1  0
 32 54  1  0
 33 55  1  0
M  END
$$$$
