
     RDKit          3D

 58 59  0  0  0  0  0  0  0  0999 V2000
    6.3444   -1.8937    1.1785 C   0  0  0  0  0  0  0  0  0  0  0  0
    7.3252   -1.0951    0.3350 C   0  0  0  0  0  0  0  0  0  0  0  0
    6.6674   -0.1420   -0.6697 C   0  0  0  0  0  0  0  0  0  0  0  0
    5.9169   -0.8417   -1.8050 C   0  0  0  0  0  0  0  0  0  0  0  0
    4.7027   -1.4438   -1.3636 O   0  0  0  0  0  0  0  0  0  0  0  0
    3.5647   -0.6895   -1.3094 C   0  0  0  0  0  0  0  0  0  0  0  0
    2.4144   -1.4051   -0.9617 C   0  0  0  0  0  0  0  0  0  0  0  0
    1.1773   -0.7656   -0.8625 C   0  0  0  0  0  0  0  0  0  0  0  0
    1.0859    0.6057   -1.0998 C   0  0  0  0  0  0  0  0  0  0  0  0
   -0.2382    1.2660   -0.9832 C   0  0  0  0  0  0  0  0  0  0  0  0
   -1.2637    0.6946   -1.3347 O   0  0  0  0  0  0  0  0  0  0  0  0
   -0.2269    2.5179   -0.4023 N   0  0  0  0  0  0  0  0  0  0  0  0
   -1.4846    3.1728   -0.0786 C   0  0  0  0  0  0  0  0  0  0  0  0
   -2.1729    2.6586    1.1862 C   0  0  0  0  0  0  0  0  0  0  0  0
   -3.2180    3.1277    1.6230 O   0  0  0  0  0  0  0  0  0  0  0  0
   -1.5049    1.6170    1.7542 O   0  0  0  0  0  0  0  0  0  0  0  0
   -2.0975    1.0637    2.9266 C   0  0  0  0  0  0  0  0  0  0  0  0
   -3.5115    0.4883    2.8079 C   0  0  0  0  0  0  0  0  0  0  0  0
   -4.3138    0.5932    3.7397 O   0  0  0  0  0  0  0  0  0  0  0  0
   -3.9170   -0.1613    1.5262 C   0  0  0  0  0  0  0  0  0  0  0  0
   -5.1053    0.1512    0.9649 C   0  0  0  0  0  0  0  0  0  0  0  0
   -6.0218    1.0040    1.5737 N   0  0  0  0  0  0  0  0  0  0  0  0
   -5.4342   -0.3980   -0.2702 N   0  0  0  0  0  0  0  0  0  0  0  0
   -6.7382   -0.0940   -0.8579 C   0  0  0  0  0  0  0  0  0  0  0  0
   -4.6023   -1.2602   -0.9803 C   0  0  0  0  0  0  0  0  0  0  0  0
   -4.9093   -1.7203   -2.0816 O   0  0  0  0  0  0  0  0  0  0  0  0
   -3.4030   -1.5897   -0.3699 N   0  0  0  0  0  0  0  0  0  0  0  0
   -2.5347   -2.4993   -1.0917 C   0  0  0  0  0  0  0  0  0  0  0  0
   -2.9954   -1.0954    0.8488 C   0  0  0  0  0  0  0  0  0  0  0  0
   -1.9391   -1.4121    1.3984 O   0  0  0  0  0  0  0  0  0  0  0  0
    2.2308    1.3299   -1.4494 C   0  0  0  0  0  0  0  0  0  0  0  0
    3.4669    0.6808   -1.5533 C   0  0  0  0  0  0  0  0  0  0  0  0
    5.6100   -1.2388    1.6596 H   0  0  0  0  0  0  0  0  0  0  0  0
    6.8830   -2.4315    1.9669 H   0  0  0  0  0  0  0  0  0  0  0  0
    5.8120   -2.6394    0.5810 H   0  0  0  0  0  0  0  0  0  0  0  0
    7.9492   -0.4965    1.0111 H   0  0  0  0  0  0  0  0  0  0  0  0
    7.9997   -1.7823   -0.1892 H   0  0  0  0  0  0  0  0  0  0  0  0
    7.4607    0.4695   -1.1159 H   0  0  0  0  0  0  0  0  0  0  0  0
    6.0022    0.5382   -0.1272 H   0  0  0  0  0  0  0  0  0  0  0  0
    5.7428   -0.1644   -2.6499 H   0  0  0  0  0  0  0  0  0  0  0  0
    6.5431   -1.6490   -2.2032 H   0  0  0  0  0  0  0  0  0  0  0  0
    2.4827   -2.4726   -0.7660 H   0  0  0  0  0  0  0  0  0  0  0  0
    0.2945   -1.3352   -0.5845 H   0  0  0  0  0  0  0  0  0  0  0  0
    0.5938    2.7820    0.1287 H   0  0  0  0  0  0  0  0  0  0  0  0
   -1.2584    4.2332    0.0652 H   0  0  0  0  0  0  0  0  0  0  0  0
   -2.1765    3.0472   -0.9173 H   0  0  0  0  0  0  0  0  0  0  0  0
   -1.4404    0.2690    3.2934 H   0  0  0  0  0  0  0  0  0  0  0  0
   -2.1097    1.8412    3.7007 H   0  0  0  0  0  0  0  0  0  0  0  0
   -5.7099    1.3439    2.4896 H   0  0  0  0  0  0  0  0  0  0  0  0
   -6.2496    1.7962    0.9783 H   0  0  0  0  0  0  0  0  0  0  0  0
   -6.7826    0.9731   -1.0986 H   0  0  0  0  0  0  0  0  0  0  0  0
   -7.5306   -0.3520   -0.1476 H   0  0  0  0  0  0  0  0  0  0  0  0
   -6.9219   -0.6548   -1.7782 H   0  0  0  0  0  0  0  0  0  0  0  0
   -3.0941   -3.4088   -1.3414 H   0  0  0  0  0  0  0  0  0  0  0  0
   -1.6473   -2.7802   -0.5156 H   0  0  0  0  0  0  0  0  0  0  0  0
   -2.2195   -2.0226   -2.0269 H   0  0  0  0  0  0  0  0  0  0  0  0
    2.1707    2.3929   -1.6674 H   0  0  0  0  0  0  0  0  0  0  0  0
    4.3317    1.2769   -1.8241 H   0  0  0  0  0  0  0  0  0  0  0  0
  1  2  1  0
  2  3  1  0
  3  4  1  0
  4  5  1  0
  5  6  1  0
  6  7  2  0
  7  8  1  0
  8  9  2  0
  9 10  1  0
 10 11  2  0
 10 12  1  0
 12 13  1  0
 13 14  1  0
 14 15  2  0
 14 16  1  0
 16 17  1  0
 17 18  1  0
 18 19  2  0
 18 20  1  0
 20 21  2  0
 21 22  1  0
 21 23  1  0
 23 24  1  0
 23 25  1  0
 25 26  2  0
 25 27  1  0
 27 28  1  0
 27 29  1  0
 29 30  2  0
  9 31  1  0
 31 32  2  0
 32  6  1  0
 29 20  1  0
  1 33  1  0
  1 34  1  0
  1 35  1  0
  2 36  1  0
  2 37  1  0
  3 38  1  0
  3 39  1  0
  4 40  1  0
  4 41  1  0
  7 42  1  0
  8 43  1  0
 12 44  1  0
 13 45  1  0
 13 46  1  0
 17 47  1  0
 17 48  1  0
 22 49  1  0
 22 50  1  0
 24 51  1  0
 24 52  1  0
 24 53  1  0
 28 54  1  0
 28 55  1  0
 28 56  1  0
 31 57  1  0
 32 58  1  0
M  END
$$$$
