
     RDKit          3D

 46 49  0  0  0  0  0  0  0  0999 V2000
    3.2476   -2.5437    1.3641 O   0  0  0  0  0  0  0  0  0  0  0  0
    2.2107   -2.6412    0.7201 C   0  0  0  0  0  0  0  0  0  0  0  0
    0.8568   -2.9717    1.3306 C   0  0  0  0  0  0  0  0  0  0  0  0
   -0.0858   -1.8620    1.1147 N   0  0  0  0  0  4  0  0  0  0  0  0
   -1.1776   -1.8405    0.2490 C   0  0  0  0  0  0  0  0  0  0  0  0
   -1.7011   -0.5514    0.2169 C   0  0  0  0  0  0  0  0  0  0  0  0
   -2.8978   -0.0501   -0.6731 C   0  0  0  0  0  0  0  0  0  0  0  0
   -3.6228   -0.9606   -1.4529 C   0  0  0  0  0  0  0  0  0  0  0  0
   -4.6853   -0.5158   -2.2495 C   0  0  0  0  0  0  0  0  0  0  0  0
   -5.0266    0.8390   -2.2814 C   0  0  0  0  0  0  0  0  0  0  0  0
   -6.3413    1.3201   -3.2881 Cl  0  0  0  0  0  0  0  0  0  0  0  0
   -4.2977    1.7494   -1.5104 C   0  0  0  0  0  0  0  0  0  0  0  0
   -4.6392    3.4423   -1.5009 Cl  0  0  0  0  0  0  0  0  0  0  0  0
   -3.2374    1.3037   -0.7066 C   0  0  0  0  0  0  0  0  0  0  0  0
   -0.9098    0.1365    1.1197 N   0  0  0  0  0  0  0  0  0  0  0  0
    0.0467   -0.6404    1.6228 C   0  0  0  0  0  0  0  0  0  0  0  0
    0.9398    0.0625    2.5733 C   0  0  0  0  0  0  0  0  0  0  0  0
    0.1515    1.3600    2.8425 C   0  0  0  0  0  0  0  0  0  0  0  0
   -0.8276    1.4938    1.6459 C   0  0  0  0  0  0  0  0  0  0  0  0
    2.0635   -2.3912   -0.6131 O   0  0  0  0  0  0  0  0  0  0  0  0
    3.1760   -1.7351   -1.2470 C   0  0  0  0  0  0  0  0  0  0  0  0
    2.9670   -0.2465   -1.0928 C   0  0  0  0  0  0  0  0  0  0  0  0
    3.7815    0.5057   -0.2362 C   0  0  0  0  0  0  0  0  0  0  0  0
    3.5435    1.8711   -0.0600 C   0  0  0  0  0  0  0  0  0  0  0  0
    2.4968    2.4950   -0.7343 C   0  0  0  0  0  0  0  0  0  0  0  0
    1.6803    1.7566   -1.5895 C   0  0  0  0  0  0  0  0  0  0  0  0
    1.9154    0.3939   -1.7669 C   0  0  0  0  0  0  0  0  0  0  0  0
    0.4694   -3.8917    0.8880 H   0  0  0  0  0  0  0  0  0  0  0  0
    0.9688   -3.1246    2.4112 H   0  0  0  0  0  0  0  0  0  0  0  0
   -1.4254   -2.7490   -0.2743 H   0  0  0  0  0  0  0  0  0  0  0  0
   -3.3974   -2.0239   -1.4604 H   0  0  0  0  0  0  0  0  0  0  0  0
   -5.2462   -1.2344   -2.8483 H   0  0  0  0  0  0  0  0  0  0  0  0
   -2.6876    2.0440   -0.1363 H   0  0  0  0  0  0  0  0  0  0  0  0
    1.8818    0.2461    2.0531 H   0  0  0  0  0  0  0  0  0  0  0  0
    1.0784   -0.5565    3.4579 H   0  0  0  0  0  0  0  0  0  0  0  0
    0.7957    2.2342    2.9656 H   0  0  0  0  0  0  0  0  0  0  0  0
   -0.4348    1.2392    3.7597 H   0  0  0  0  0  0  0  0  0  0  0  0
   -1.8085    1.8493    1.9767 H   0  0  0  0  0  0  0  0  0  0  0  0
   -0.4176    2.1460    0.8751 H   0  0  0  0  0  0  0  0  0  0  0  0
    3.1612   -1.9987   -2.3061 H   0  0  0  0  0  0  0  0  0  0  0  0
    4.1390   -2.0762   -0.8493 H   0  0  0  0  0  0  0  0  0  0  0  0
    4.6085    0.0350    0.2975 H   0  0  0  0  0  0  0  0  0  0  0  0
    4.1926    2.4473    0.5922 H   0  0  0  0  0  0  0  0  0  0  0  0
    2.3389    3.5610   -0.6124 H   0  0  0  0  0  0  0  0  0  0  0  0
    0.8772    2.2441   -2.1360 H   0  0  0  0  0  0  0  0  0  0  0  0
    1.2788   -0.1706   -2.4504 H   0  0  0  0  0  0  0  0  0  0  0  0
  1  2  2  0
  2  3  1  0
  3  4  1  0
  4  5  1  0
  5  6  2  0
  6  7  1  0
  7  8  2  0
  8  9  1  0
  9 10  2  0
 10 11  1  0
 10 12  1  0
 12 13  1  0
 12 14  2  0
  6 15  1  0
 15 16  1  0
 16 17  1  0
 17 18  1  0
 18 19  1  0
  2 20  1  0
 20 21  1  0
 21 22  1  0
 22 23  2  0
 23 24  1  0
 24 25  2  0
 25 26  1  0
 26 27  2  0
 16  4  2  0
 27 22  1  0
 14  7  1  0
 19 15  1  0
  3 28  1  0
  3 29  1  0
  5 30  1  0
  8 31  1  0
  9 32  1  0
 14 33  1  0
 17 34  1  0
 17 35  1  0
 18 36  1  0
 18 37  1  0
 19 38  1  0
 19 39  1  0
 21 40  1  0
 21 41  1  0
 23 42  1  0
 24 43  1  0
 25 44  1  0
 26 45  1  0
 27 46  1  0
M  CHG  1   4   1
M  END
$$$$
