
     RDKit          3D

 55 58  0  0  0  0  0  0  0  0999 V2000
    2.9056   -0.7086   -1.3144 O   0  0  0  0  0  0  0  0  0  0  0  0
    2.6954   -0.1404   -0.2421 C   0  0  0  0  0  0  0  0  0  0  0  0
    1.4067    0.5777    0.1116 C   0  0  0  0  0  0  0  0  0  0  0  0
   -0.0291   -0.4357   -0.3483 S   0  0  0  0  0  0  0  0  0  0  0  0
   -1.3115    0.6176    0.1329 C   0  0  0  0  0  0  0  0  0  0  0  0
   -1.1632    1.7505    0.7765 N   0  0  0  0  0  0  0  0  0  0  0  0
   -2.4064    2.2966    0.9468 N   0  0  0  0  0  0  0  0  0  0  0  0
   -3.3041    1.4683    0.4391 C   0  0  0  0  0  0  0  0  0  0  0  0
   -4.7332    1.7555    0.3661 C   0  0  0  0  0  0  0  0  0  0  0  0
   -5.6820    0.8664    0.8869 C   0  0  0  0  0  0  0  0  0  0  0  0
   -7.0479    1.1449    0.7830 C   0  0  0  0  0  0  0  0  0  0  0  0
   -7.4783    2.3208    0.1692 C   0  0  0  0  0  0  0  0  0  0  0  0
   -6.5444    3.2300   -0.3242 C   0  0  0  0  0  0  0  0  0  0  0  0
   -5.1842    2.9548   -0.2071 C   0  0  0  0  0  0  0  0  0  0  0  0
   -4.3214    3.9118   -0.6758 O   0  0  0  0  0  0  0  0  0  0  0  0
   -2.6411    0.3865   -0.1100 N   0  0  0  0  0  0  0  0  0  0  0  0
   -3.2169   -0.6537   -0.9485 C   0  0  0  0  0  0  0  0  0  0  0  0
   -3.8230   -1.8013   -0.1747 C   0  0  0  0  0  0  0  0  0  0  0  0
   -5.0283   -2.3666   -0.6248 C   0  0  0  0  0  0  0  0  0  0  0  0
   -5.6132   -3.4399    0.0504 C   0  0  0  0  0  0  0  0  0  0  0  0
   -4.9967   -3.9717    1.1789 C   0  0  0  0  0  0  0  0  0  0  0  0
   -3.7905   -3.4383    1.6248 C   0  0  0  0  0  0  0  0  0  0  0  0
   -3.2024   -2.3660    0.9499 C   0  0  0  0  0  0  0  0  0  0  0  0
    3.6549   -0.0940    0.7578 N   0  0  0  0  0  0  0  0  0  0  0  0
    4.9535   -0.5174    0.4025 N   0  0  0  0  0  0  0  0  0  0  0  0
    5.9922    0.3370    0.7264 C   0  0  0  0  0  0  0  0  0  0  0  0
    5.8311    1.3294    1.4396 O   0  0  0  0  0  0  0  0  0  0  0  0
    7.3295    0.0478    0.1407 C   0  0  0  0  0  0  0  0  0  0  0  0
    7.6459   -1.2159   -0.3836 C   0  0  0  0  0  0  0  0  0  0  0  0
    8.9069   -1.4526   -0.9398 C   0  0  0  0  0  0  0  0  0  0  0  0
    9.8618   -0.4371   -0.9699 C   0  0  0  0  0  0  0  0  0  0  0  0
    9.5642    0.8153   -0.4339 C   0  0  0  0  0  0  0  0  0  0  0  0
    8.3092    1.0537    0.1246 C   0  0  0  0  0  0  0  0  0  0  0  0
    8.1109    2.3068    0.6427 O   0  0  0  0  0  0  0  0  0  0  0  0
    1.3734    0.7742    1.1885 H   0  0  0  0  0  0  0  0  0  0  0  0
    1.3952    1.5335   -0.4224 H   0  0  0  0  0  0  0  0  0  0  0  0
   -5.3727   -0.0423    1.3988 H   0  0  0  0  0  0  0  0  0  0  0  0
   -7.7747    0.4471    1.1916 H   0  0  0  0  0  0  0  0  0  0  0  0
   -8.5404    2.5393    0.0912 H   0  0  0  0  0  0  0  0  0  0  0  0
   -6.8723    4.1589   -0.7836 H   0  0  0  0  0  0  0  0  0  0  0  0
   -3.4513    3.7631   -0.2524 H   0  0  0  0  0  0  0  0  0  0  0  0
   -3.9720   -0.1656   -1.5768 H   0  0  0  0  0  0  0  0  0  0  0  0
   -2.4526   -1.0381   -1.6313 H   0  0  0  0  0  0  0  0  0  0  0  0
   -5.5285   -1.9719   -1.5073 H   0  0  0  0  0  0  0  0  0  0  0  0
   -6.5501   -3.8611   -0.3058 H   0  0  0  0  0  0  0  0  0  0  0  0
   -5.4500   -4.8070    1.7061 H   0  0  0  0  0  0  0  0  0  0  0  0
   -3.3022   -3.8607    2.5000 H   0  0  0  0  0  0  0  0  0  0  0  0
   -2.2553   -1.9842    1.3221 H   0  0  0  0  0  0  0  0  0  0  0  0
    3.6296    0.6469    1.4612 H   0  0  0  0  0  0  0  0  0  0  0  0
    4.9923   -1.0896   -0.4430 H   0  0  0  0  0  0  0  0  0  0  0  0
    6.9374   -2.0389   -0.3552 H   0  0  0  0  0  0  0  0  0  0  0  0
    9.1470   -2.4322   -1.3470 H   0  0  0  0  0  0  0  0  0  0  0  0
   10.8416   -0.6213   -1.4034 H   0  0  0  0  0  0  0  0  0  0  0  0
   10.3095    1.6069   -0.4458 H   0  0  0  0  0  0  0  0  0  0  0  0
    7.2462    2.3107    1.1105 H   0  0  0  0  0  0  0  0  0  0  0  0
  1  2  2  0
  2  3  1  0
  3  4  1  0
  4  5  1  0
  5  6  2  0
  6  7  1  0
  7  8  2  0
  8  9  1  0
  9 10  2  0
 10 11  1  0
 11 12  2  0
 12 13  1  0
 13 14  2  0
 14 15  1  0
  8 16  1  0
 16 17  1  0
 17 18  1  0
 18 19  2  0
 19 20  1  0
 20 21  2  0
 21 22  1  0
 22 23  2  0
  2 24  1  0
 24 25  1  0
 25 26  1  0
 26 27  2  0
 26 28  1  0
 28 29  2  0
 29 30  1  0
 30 31  2  0
 31 32  1  0
 32 33  2  0
 33 34  1  0
 16  5  1  0
 23 18  1  0
 33 28  1  0
 14  9  1  0
  3 35  1  0
  3 36  1  0
 10 37  1  0
 11 38  1  0
 12 39  1  0
 13 40  1  0
 15 41  1  0
 17 42  1  0
 17 43  1  0
 19 44  1  0
 20 45  1  0
 21 46  1  0
 22 47  1  0
 23 48  1  0
 24 49  1  0
 25 50  1  0
 29 51  1  0
 30 52  1  0
 31 53  1  0
 32 54  1  0
 34 55  1  0
M  END
$$$$
