
     RDKit          3D

 61 66  0  0  0  0  0  0  0  0999 V2000
   -4.1968   -1.1860    0.5469 C   0  0  0  0  0  0  0  0  0  0  0  0
   -2.9331   -0.3781    0.8576 C   0  0  0  0  0  0  0  0  0  0  0  0
   -2.8039   -0.1530    2.3687 C   0  0  0  0  0  0  0  0  0  0  0  0
   -2.9208    0.9274    0.0650 C   0  0  0  0  0  0  0  0  0  0  0  0
   -3.8494    1.9365    0.3914 C   0  0  0  0  0  0  0  0  0  0  0  0
   -3.9492    3.1132   -0.3587 C   0  0  0  0  0  0  0  0  0  0  0  0
   -3.1304    3.3105   -1.4657 C   0  0  0  0  0  0  0  0  0  0  0  0
   -2.2030    2.3352   -1.8208 C   0  0  0  0  0  0  0  0  0  0  0  0
   -2.0930    1.1578   -1.0567 C   0  0  0  0  0  0  0  0  0  0  0  0
   -1.1173    0.2193   -1.4711 N   0  0  0  0  0  0  0  0  0  0  0  0
    0.0868   -0.0506   -0.8455 C   0  0  0  0  0  0  0  0  0  0  0  0
    0.5939    0.6354    0.6636 S   0  0  0  0  0  0  0  0  0  0  0  0
    2.1807    1.3899    0.1971 C   0  0  0  0  0  0  0  0  0  0  0  0
    3.3039    0.3925    0.0552 C   0  0  0  0  0  0  0  0  0  0  0  0
    3.8053    0.2417   -1.1856 C   0  0  0  0  0  0  0  0  0  0  0  0
    4.8087   -0.7513   -1.5630 C   0  0  0  0  0  0  0  0  0  0  0  0
    5.3188   -0.7502   -2.6759 O   0  0  0  0  0  0  0  0  0  0  0  0
    5.1067   -1.6885   -0.6051 O   0  0  0  0  0  0  0  0  0  0  0  0
    4.6847   -1.5206    0.7311 C   0  0  0  0  0  0  0  0  0  0  0  0
    5.2043   -2.4849    1.5900 C   0  0  0  0  0  0  0  0  0  0  0  0
    4.9332   -2.4001    2.9413 C   0  0  0  0  0  0  0  0  0  0  0  0
    4.1773   -1.3403    3.4471 C   0  0  0  0  0  0  0  0  0  0  0  0
    3.9780   -1.2989    4.8380 C   0  0  0  0  0  0  0  0  0  0  0  0
    3.2671   -0.2687    5.4358 C   0  0  0  0  0  0  0  0  0  0  0  0
    2.7635    0.7466    4.6423 C   0  0  0  0  0  0  0  0  0  0  0  0
    2.9561    0.7156    3.2537 C   0  0  0  0  0  0  0  0  0  0  0  0
    3.6415   -0.3337    2.5809 C   0  0  0  0  0  0  0  0  0  0  0  0
    3.8611   -0.4560    1.1566 C   0  0  0  0  0  0  0  0  0  0  0  0
    0.8354   -0.8064   -1.6093 N   0  0  0  0  0  0  0  0  0  0  0  0
    0.1534   -1.0250   -2.7727 N   0  0  0  0  0  0  0  0  0  0  0  0
   -1.0246   -0.4209   -2.7072 C   0  0  0  0  0  0  0  0  0  0  0  0
   -2.0175   -0.4651   -3.7882 C   0  0  0  0  0  0  0  0  0  0  0  0
   -1.5911   -0.7114   -5.1012 C   0  0  0  0  0  0  0  0  0  0  0  0
   -2.5132   -0.7905   -6.1439 C   0  0  0  0  0  0  0  0  0  0  0  0
   -3.8526   -0.6223   -5.8454 C   0  0  0  0  0  0  0  0  0  0  0  0
   -4.3132   -0.3898   -4.5998 N   0  0  0  0  0  0  0  0  0  0  0  0
   -3.3900   -0.3303   -3.6051 C   0  0  0  0  0  0  0  0  0  0  0  0
   -4.2653   -1.4088   -0.5235 H   0  0  0  0  0  0  0  0  0  0  0  0
   -4.1912   -2.1404    1.0853 H   0  0  0  0  0  0  0  0  0  0  0  0
   -5.1074   -0.6472    0.8333 H   0  0  0  0  0  0  0  0  0  0  0  0
   -2.0843   -1.0031    0.5646 H   0  0  0  0  0  0  0  0  0  0  0  0
   -3.6903    0.3324    2.7904 H   0  0  0  0  0  0  0  0  0  0  0  0
   -1.9374    0.4723    2.6075 H   0  0  0  0  0  0  0  0  0  0  0  0
   -2.6794   -1.1100    2.8870 H   0  0  0  0  0  0  0  0  0  0  0  0
   -4.5321    1.8091    1.2299 H   0  0  0  0  0  0  0  0  0  0  0  0
   -4.6800    3.8698   -0.0808 H   0  0  0  0  0  0  0  0  0  0  0  0
   -3.2150    4.2237   -2.0519 H   0  0  0  0  0  0  0  0  0  0  0  0
   -1.5629    2.5120   -2.6845 H   0  0  0  0  0  0  0  0  0  0  0  0
    2.4514    2.1900    0.8889 H   0  0  0  0  0  0  0  0  0  0  0  0
    2.0048    1.9259   -0.7459 H   0  0  0  0  0  0  0  0  0  0  0  0
    3.4462    0.8233   -2.0297 H   0  0  0  0  0  0  0  0  0  0  0  0
    5.8223   -3.2915    1.2027 H   0  0  0  0  0  0  0  0  0  0  0  0
    5.3458   -3.1610    3.6012 H   0  0  0  0  0  0  0  0  0  0  0  0
    4.3859   -2.0801    5.4782 H   0  0  0  0  0  0  0  0  0  0  0  0
    3.1207   -0.2542    6.5134 H   0  0  0  0  0  0  0  0  0  0  0  0
    2.2201    1.5731    5.0944 H   0  0  0  0  0  0  0  0  0  0  0  0
    2.5542    1.5667    2.7244 H   0  0  0  0  0  0  0  0  0  0  0  0
   -0.5333   -0.8567   -5.3185 H   0  0  0  0  0  0  0  0  0  0  0  0
   -2.1893   -0.9920   -7.1610 H   0  0  0  0  0  0  0  0  0  0  0  0
   -4.6116   -0.6772   -6.6208 H   0  0  0  0  0  0  0  0  0  0  0  0
   -3.8332   -0.1755   -2.6262 H   0  0  0  0  0  0  0  0  0  0  0  0
  1  2  1  0
  2  3  1  0
  2  4  1  0
  4  5  2  0
  5  6  1  0
  6  7  2  0
  7  8  1  0
  8  9  2  0
  9 10  1  0
 10 11  1  0
 11 12  1  0
 12 13  1  0
 13 14  1  0
 14 15  2  0
 15 16  1  0
 16 17  2  0
 16 18  1  0
 18 19  1  0
 19 20  2  0
 20 21  1  0
 21 22  2  0
 22 23  1  0
 23 24  2  0
 24 25  1  0
 25 26  2  0
 26 27  1  0
 27 28  2  0
 11 29  2  0
 29 30  1  0
 30 31  2  0
 31 32  1  0
 32 33  2  0
 33 34  1  0
 34 35  2  0
 35 36  1  0
 36 37  2  0
  9  4  1  0
 31 10  1  0
 37 32  1  0
 28 14  1  0
 28 19  1  0
 27 22  1  0
  1 38  1  0
  1 39  1  0
  1 40  1  0
  2 41  1  0
  3 42  1  0
  3 43  1  0
  3 44  1  0
  5 45  1  0
  6 46  1  0
  7 47  1  0
  8 48  1  0
 13 49  1  0
 13 50  1  0
 15 51  1  0
 20 52  1  0
 21 53  1  0
 23 54  1  0
 24 55  1  0
 25 56  1  0
 26 57  1  0
 33 58  1  0
 34 59  1  0
 35 60  1  0
 37 61  1  0
M  END
$$$$
