
     RDKit          3D

 30 31  0  0  0  0  0  0  0  0999 V2000
   -3.4641    0.1192   -0.6079 C   0  0  0  0  0  0  0  0  0  0  0  0
   -3.0934   -0.5277    0.7297 C   0  0  0  0  0  0  0  0  0  0  0  0
   -4.3474   -0.6323    1.6002 C   0  0  0  0  0  0  0  0  0  0  0  0
   -2.1753    0.3031    1.4582 O   0  0  0  0  0  0  0  0  0  0  0  0
   -0.8545    0.1826    1.2270 C   0  0  0  0  0  0  0  0  0  0  0  0
    0.0033    0.7504    1.8751 O   0  0  0  0  0  0  0  0  0  0  0  0
   -0.5664   -0.8043    0.1268 C   0  0  0  0  0  0  0  0  0  0  0  0
    0.1983   -0.6016   -0.9107 N   0  0  0  0  0  0  0  0  0  0  0  0
    0.8308    0.6064   -0.9624 N   0  0  0  0  0  0  0  0  0  0  0  0
    2.2380    0.6083   -0.7147 C   0  0  0  0  0  0  0  0  0  0  0  0
    2.9608    1.7847   -0.9670 C   0  0  0  0  0  0  0  0  0  0  0  0
    4.3279    1.8613   -0.6875 C   0  0  0  0  0  0  0  0  0  0  0  0
    4.9871    0.7676   -0.1323 C   0  0  0  0  0  0  0  0  0  0  0  0
    4.2779   -0.3968    0.1521 C   0  0  0  0  0  0  0  0  0  0  0  0
    2.9100   -0.4713   -0.1267 C   0  0  0  0  0  0  0  0  0  0  0  0
   -1.3491   -2.0833    0.2047 C   0  0  0  0  0  0  0  0  0  0  0  0
   -0.8498   -3.1752    0.0080 O   0  0  0  0  0  0  0  0  0  0  0  0
   -2.6347   -1.8759    0.5354 O   0  0  0  0  0  0  0  0  0  0  0  0
   -4.2002   -0.4863   -1.1476 H   0  0  0  0  0  0  0  0  0  0  0  0
   -2.5958    0.2206   -1.2658 H   0  0  0  0  0  0  0  0  0  0  0  0
   -3.8659    1.1273   -0.4596 H   0  0  0  0  0  0  0  0  0  0  0  0
   -4.7714    0.3551    1.8128 H   0  0  0  0  0  0  0  0  0  0  0  0
   -4.1038   -1.0932    2.5648 H   0  0  0  0  0  0  0  0  0  0  0  0
   -5.1122   -1.2582    1.1279 H   0  0  0  0  0  0  0  0  0  0  0  0
    0.7024    1.0956   -1.8543 H   0  0  0  0  0  0  0  0  0  0  0  0
    2.4596    2.6582   -1.3753 H   0  0  0  0  0  0  0  0  0  0  0  0
    4.8738    2.7780   -0.8931 H   0  0  0  0  0  0  0  0  0  0  0  0
    6.0493    0.8257    0.0897 H   0  0  0  0  0  0  0  0  0  0  0  0
    4.7849   -1.2488    0.5972 H   0  0  0  0  0  0  0  0  0  0  0  0
    2.3802   -1.3892    0.1105 H   0  0  0  0  0  0  0  0  0  0  0  0
  1  2  1  0
  2  3  1  0
  2  4  1  0
  4  5  1  0
  5  6  2  0
  5  7  1  0
  7  8  2  3
  8  9  1  0
  9 10  1  0
 10 11  2  0
 11 12  1  0
 12 13  2  0
 13 14  1  0
 14 15  2  0
  7 16  1  0
 16 17  2  0
 16 18  1  0
 18  2  1  0
 15 10  1  0
  1 19  1  0
  1 20  1  0
  1 21  1  0
  3 22  1  0
  3 23  1  0
  3 24  1  0
  9 25  1  0
 11 26  1  0
 12 27  1  0
 13 28  1  0
 14 29  1  0
 15 30  1  0
M  END
$$$$
