
     RDKit          3D

 49 51  0  0  0  0  0  0  0  0999 V2000
    1.4492   -2.4610    0.4760 O   0  0  0  0  0  0  0  0  0  0  0  0
    1.6957   -1.3878   -0.0572 C   0  0  0  0  0  0  0  0  0  0  0  0
    2.7813   -0.5823    0.1864 N   0  0  0  0  0  0  0  0  0  0  0  0
    3.8601   -0.9768    1.0516 C   0  0  0  0  0  0  0  0  0  0  0  0
    5.0116   -1.5336    0.2562 C   0  0  0  0  0  0  0  0  0  0  0  0
    6.0675   -0.7061   -0.1514 C   0  0  0  0  0  0  0  0  0  0  0  0
    7.1212   -1.2244   -0.9065 C   0  0  0  0  0  0  0  0  0  0  0  0
    7.1262   -2.5708   -1.2673 C   0  0  0  0  0  0  0  0  0  0  0  0
    6.0763   -3.4001   -0.8772 C   0  0  0  0  0  0  0  0  0  0  0  0
    5.0223   -2.8840   -0.1221 C   0  0  0  0  0  0  0  0  0  0  0  0
    0.7385   -0.8170   -1.1300 C   0  0  0  0  0  0  0  0  0  0  0  0
    1.0702    0.1521   -1.7987 O   0  0  0  0  0  0  0  0  0  0  0  0
   -0.4584   -1.4938   -1.2137 N   0  0  0  0  0  0  0  0  0  0  0  0
   -1.5660   -0.9953   -2.0025 C   0  0  0  0  0  0  0  0  0  0  0  0
   -2.5387   -0.0667   -1.2406 C   0  0  0  0  0  0  0  0  0  0  0  0
   -3.5535    0.3780   -2.1625 O   0  0  0  0  0  0  0  0  0  0  0  0
   -3.7246    1.7840   -1.9592 C   0  0  0  0  0  0  0  0  0  0  0  0
   -2.3731    2.2761   -1.4962 C   0  0  0  0  0  0  0  0  0  0  0  0
   -1.8640    1.1368   -0.7374 N   0  0  0  0  0  0  0  0  0  0  0  0
   -1.5715    1.2720    0.9033 S   0  0  0  0  0  6  0  0  0  0  0  0
   -0.8101    2.4821    1.1273 O   0  0  0  0  0  0  0  0  0  0  0  0
   -1.0979   -0.0083    1.3848 O   0  0  0  0  0  0  0  0  0  0  0  0
   -3.1887    1.5351    1.6104 C   0  0  0  0  0  0  0  0  0  0  0  0
   -3.6666    2.8405    1.7740 C   0  0  0  0  0  0  0  0  0  0  0  0
   -4.9216    3.0494    2.3492 C   0  0  0  0  0  0  0  0  0  0  0  0
   -5.6795    1.9572    2.7732 C   0  0  0  0  0  0  0  0  0  0  0  0
   -7.3785    2.2429    3.5509 Br  0  0  0  0  0  0  0  0  0  0  0  0
   -5.1908    0.6570    2.6391 C   0  0  0  0  0  0  0  0  0  0  0  0
   -3.9359    0.4432    2.0651 C   0  0  0  0  0  0  0  0  0  0  0  0
    2.8909    0.2220   -0.4238 H   0  0  0  0  0  0  0  0  0  0  0  0
    4.1757   -0.0886    1.6098 H   0  0  0  0  0  0  0  0  0  0  0  0
    3.5134   -1.7143    1.7846 H   0  0  0  0  0  0  0  0  0  0  0  0
    6.0750    0.3481    0.1161 H   0  0  0  0  0  0  0  0  0  0  0  0
    7.9371   -0.5767   -1.2164 H   0  0  0  0  0  0  0  0  0  0  0  0
    7.9457   -2.9729   -1.8568 H   0  0  0  0  0  0  0  0  0  0  0  0
    6.0748   -4.4484   -1.1639 H   0  0  0  0  0  0  0  0  0  0  0  0
    4.2017   -3.5383    0.1684 H   0  0  0  0  0  0  0  0  0  0  0  0
   -0.6088   -2.1957   -0.4925 H   0  0  0  0  0  0  0  0  0  0  0  0
   -1.1715   -0.4745   -2.8838 H   0  0  0  0  0  0  0  0  0  0  0  0
   -2.1159   -1.8665   -2.3757 H   0  0  0  0  0  0  0  0  0  0  0  0
   -3.0395   -0.6262   -0.4459 H   0  0  0  0  0  0  0  0  0  0  0  0
   -4.4944    1.9266   -1.1935 H   0  0  0  0  0  0  0  0  0  0  0  0
   -4.0558    2.2603   -2.8858 H   0  0  0  0  0  0  0  0  0  0  0  0
   -1.7049    2.4399   -2.3491 H   0  0  0  0  0  0  0  0  0  0  0  0
   -2.4397    3.2101   -0.9354 H   0  0  0  0  0  0  0  0  0  0  0  0
   -3.0676    3.6961    1.4686 H   0  0  0  0  0  0  0  0  0  0  0  0
   -5.2941    4.0635    2.4734 H   0  0  0  0  0  0  0  0  0  0  0  0
   -5.7737   -0.1923    2.9881 H   0  0  0  0  0  0  0  0  0  0  0  0
   -3.5492   -0.5708    1.9875 H   0  0  0  0  0  0  0  0  0  0  0  0
  1  2  2  0
  2  3  1  0
  3  4  1  0
  4  5  1  0
  5  6  2  0
  6  7  1  0
  7  8  2  0
  8  9  1  0
  9 10  2  0
  2 11  1  0
 11 12  2  0
 11 13  1  0
 13 14  1  0
 14 15  1  0
 15 16  1  0
 16 17  1  0
 17 18  1  0
 18 19  1  0
 19 20  1  0
 20 21  2  0
 20 22  2  0
 20 23  1  0
 23 24  2  0
 24 25  1  0
 25 26  2  0
 26 27  1  0
 26 28  1  0
 28 29  2  0
 10  5  1  0
 19 15  1  0
 29 23  1  0
  3 30  1  0
  4 31  1  0
  4 32  1  0
  6 33  1  0
  7 34  1  0
  8 35  1  0
  9 36  1  0
 10 37  1  0
 13 38  1  0
 14 39  1  0
 14 40  1  0
 15 41  1  0
 17 42  1  0
 17 43  1  0
 18 44  1  0
 18 45  1  0
 24 46  1  0
 25 47  1  0
 28 48  1  0
 29 49  1  0
M  END
$$$$
