
     RDKit          3D

 41 42  0  0  0  0  0  0  0  0999 V2000
    2.9045    1.6337    2.8053 C   0  0  0  0  0  0  0  0  0  0  0  0
    1.7803    2.1396    1.9228 C   0  0  0  0  0  0  0  0  0  0  0  0
    1.4929    1.1285    0.9509 O   0  0  0  0  0  0  0  0  0  0  0  0
    0.5108    1.4434    0.0609 C   0  0  0  0  0  0  0  0  0  0  0  0
   -0.1150    2.5021    0.0819 O   0  0  0  0  0  0  0  0  0  0  0  0
    0.2479    0.3208   -0.9674 C   0  0  0  0  0  0  0  0  0  0  0  0
   -1.2330    0.1726   -1.0648 N   0  0  0  0  0  0  0  0  0  0  0  0
   -1.9874   -0.3016   -0.0163 C   0  0  0  0  0  0  0  0  0  0  0  0
   -1.4805   -0.7842    0.9909 O   0  0  0  0  0  0  0  0  0  0  0  0
   -3.4637   -0.1719   -0.1380 C   0  0  0  0  0  0  0  0  0  0  0  0
   -4.2252   -0.1126    1.0373 C   0  0  0  0  0  0  0  0  0  0  0  0
   -5.6143    0.0073    0.9704 C   0  0  0  0  0  0  0  0  0  0  0  0
   -6.2476    0.0596   -0.2710 C   0  0  0  0  0  0  0  0  0  0  0  0
   -5.4900   -0.0155   -1.4393 C   0  0  0  0  0  0  0  0  0  0  0  0
   -6.2775    0.0327   -2.9688 Cl  0  0  0  0  0  0  0  0  0  0  0  0
   -4.1013   -0.1343   -1.3834 C   0  0  0  0  0  0  0  0  0  0  0  0
    0.7232   -1.0223   -0.5785 N   0  0  0  0  0  0  0  0  0  0  0  0
    2.0450   -1.3016   -0.5287 C   0  0  0  0  0  0  0  0  0  0  0  0
    3.0027   -0.6685   -1.1666 N   0  0  0  0  0  0  0  0  0  0  0  0
    4.2565   -1.1738   -0.8962 N   0  0  0  0  0  0  0  0  0  0  0  0
    4.2073   -2.1907   -0.0644 C   0  0  0  0  0  0  0  0  0  0  0  0
    5.3844   -2.9547    0.4165 C   0  0  0  0  0  0  0  0  0  0  0  0
    2.6232   -2.5938    0.4548 S   0  0  0  0  0  0  0  0  0  0  0  0
    0.8209    0.9085   -2.2964 C   0  0  0  0  0  0  0  0  0  0  0  0
   -0.0633    1.8149   -2.8127 F   0  0  0  0  0  0  0  0  0  0  0  0
    1.9958    1.5577   -2.1643 F   0  0  0  0  0  0  0  0  0  0  0  0
    0.9643   -0.0388   -3.2569 F   0  0  0  0  0  0  0  0  0  0  0  0
    3.7948    1.4137    2.2067 H   0  0  0  0  0  0  0  0  0  0  0  0
    2.6158    0.7002    3.2998 H   0  0  0  0  0  0  0  0  0  0  0  0
    3.1647    2.3724    3.5684 H   0  0  0  0  0  0  0  0  0  0  0  0
    2.0907    3.0611    1.4180 H   0  0  0  0  0  0  0  0  0  0  0  0
    0.8887    2.3317    2.5298 H   0  0  0  0  0  0  0  0  0  0  0  0
   -1.6723    0.8647   -1.6631 H   0  0  0  0  0  0  0  0  0  0  0  0
   -3.7371   -0.1566    2.0098 H   0  0  0  0  0  0  0  0  0  0  0  0
   -6.2010    0.0575    1.8848 H   0  0  0  0  0  0  0  0  0  0  0  0
   -7.3299    0.1514   -0.3209 H   0  0  0  0  0  0  0  0  0  0  0  0
   -3.5378   -0.2227   -2.3075 H   0  0  0  0  0  0  0  0  0  0  0  0
    0.1771   -1.3771    0.2090 H   0  0  0  0  0  0  0  0  0  0  0  0
    6.3050   -2.5565   -0.0221 H   0  0  0  0  0  0  0  0  0  0  0  0
    5.3065   -4.0095    0.1346 H   0  0  0  0  0  0  0  0  0  0  0  0
    5.4742   -2.8876    1.5053 H   0  0  0  0  0  0  0  0  0  0  0  0
  1  2  1  0
  2  3  1  0
  3  4  1  0
  4  5  2  0
  4  6  1  0
  6  7  1  0
  7  8  1  0
  8  9  2  0
  8 10  1  0
 10 11  2  0
 11 12  1  0
 12 13  2  0
 13 14  1  0
 14 15  1  0
 14 16  2  0
  6 17  1  0
 17 18  1  0
 18 19  2  0
 19 20  1  0
 20 21  2  0
 21 22  1  0
 21 23  1  0
  6 24  1  0
 24 25  1  0
 24 26  1  0
 24 27  1  0
 16 10  1  0
 23 18  1  0
  1 28  1  0
  1 29  1  0
  1 30  1  0
  2 31  1  0
  2 32  1  0
  7 33  1  0
 11 34  1  0
 12 35  1  0
 13 36  1  0
 16 37  1  0
 17 38  1  0
 22 39  1  0
 22 40  1  0
 22 41  1  0
M  END
$$$$
