
     RDKit          3D

 37 38  0  0  0  0  0  0  0  0999 V2000
   -5.9052    0.8728   -1.2699 C   0  0  0  0  0  0  0  0  0  0  0  0
   -4.9991   -0.2622   -1.4410 N   0  0  0  0  0  0  0  0  0  0  0  0
   -5.6053   -1.5829   -1.2767 C   0  0  0  0  0  0  0  0  0  0  0  0
   -3.6363   -0.0974   -1.1766 C   0  0  0  0  0  0  0  0  0  0  0  0
   -3.0475    1.1712   -1.0413 C   0  0  0  0  0  0  0  0  0  0  0  0
   -1.6755    1.3425   -0.7961 C   0  0  0  0  0  0  0  0  0  0  0  0
   -0.8304    0.2410   -0.6730 C   0  0  0  0  0  0  0  0  0  0  0  0
    0.6057    0.4594   -0.4500 C   0  0  0  0  0  0  0  0  0  0  0  0
    1.3579   -0.3154    0.3486 C   0  0  0  0  0  0  0  0  0  0  0  0
    2.7920   -0.1048    0.5765 C   0  0  0  0  0  0  0  0  0  0  0  0
    3.3466    1.1663    0.7194 C   0  0  0  0  0  0  0  0  0  0  0  0
    4.7093    1.3022    0.9604 C   0  0  0  0  0  0  0  0  0  0  0  0
    5.5010    0.2126    1.0716 N   0  0  0  0  0  4  0  0  0  0  0  0
    6.9439    0.3822    1.3135 C   0  0  0  0  0  0  0  0  0  0  0  0
    4.9855   -1.0302    0.9444 C   0  0  0  0  0  0  0  0  0  0  0  0
    3.6280   -1.2126    0.7052 C   0  0  0  0  0  0  0  0  0  0  0  0
   -1.3822   -1.0292   -0.8328 C   0  0  0  0  0  0  0  0  0  0  0  0
   -2.7558   -1.1883   -1.0787 C   0  0  0  0  0  0  0  0  0  0  0  0
   -5.8953    1.2307   -0.2345 H   0  0  0  0  0  0  0  0  0  0  0  0
   -5.6439    1.6937   -1.9462 H   0  0  0  0  0  0  0  0  0  0  0  0
   -6.9376    0.5996   -1.5154 H   0  0  0  0  0  0  0  0  0  0  0  0
   -5.1652   -2.3093   -1.9683 H   0  0  0  0  0  0  0  0  0  0  0  0
   -5.4951   -1.9406   -0.2470 H   0  0  0  0  0  0  0  0  0  0  0  0
   -6.6767   -1.5619   -1.5059 H   0  0  0  0  0  0  0  0  0  0  0  0
   -3.6441    2.0744   -1.1294 H   0  0  0  0  0  0  0  0  0  0  0  0
   -1.2888    2.3544   -0.7018 H   0  0  0  0  0  0  0  0  0  0  0  0
    1.0258    1.3103   -0.9804 H   0  0  0  0  0  0  0  0  0  0  0  0
    0.9116   -1.1622    0.8680 H   0  0  0  0  0  0  0  0  0  0  0  0
    2.7260    2.0579    0.6541 H   0  0  0  0  0  0  0  0  0  0  0  0
    5.1738    2.2783    1.0688 H   0  0  0  0  0  0  0  0  0  0  0  0
    7.4327    0.4521    0.3386 H   0  0  0  0  0  0  0  0  0  0  0  0
    7.1049    1.2926    1.8966 H   0  0  0  0  0  0  0  0  0  0  0  0
    7.3168   -0.4777    1.8759 H   0  0  0  0  0  0  0  0  0  0  0  0
    5.6662   -1.8721    1.0351 H   0  0  0  0  0  0  0  0  0  0  0  0
    3.2320   -2.2222    0.6082 H   0  0  0  0  0  0  0  0  0  0  0  0
   -0.7607   -1.9194   -0.7896 H   0  0  0  0  0  0  0  0  0  0  0  0
   -3.1149   -2.2055   -1.2044 H   0  0  0  0  0  0  0  0  0  0  0  0
  1  2  1  0
  2  3  1  0
  2  4  1  0
  4  5  2  0
  5  6  1  0
  6  7  2  0
  7  8  1  0
  8  9  2  3
  9 10  1  0
 10 11  2  0
 11 12  1  0
 12 13  2  0
 13 14  1  0
 13 15  1  0
 15 16  2  0
  7 17  1  0
 17 18  2  0
 18  4  1  0
 16 10  1  0
  1 19  1  0
  1 20  1  0
  1 21  1  0
  3 22  1  0
  3 23  1  0
  3 24  1  0
  5 25  1  0
  6 26  1  0
  8 27  1  0
  9 28  1  0
 11 29  1  0
 12 30  1  0
 14 31  1  0
 14 32  1  0
 14 33  1  0
 15 34  1  0
 16 35  1  0
 17 36  1  0
 18 37  1  0
M  CHG  1  13   1
M  END
$$$$
