
     RDKit          3D

 51 55  0  0  0  0  0  0  0  0999 V2000
   -6.8954    3.0665   -0.1631 F   0  0  0  0  0  0  0  0  0  0  0  0
   -6.6024    1.7773    0.0529 C   0  0  0  0  0  0  0  0  0  0  0  0
   -7.5491    0.8027   -0.2381 C   0  0  0  0  0  0  0  0  0  0  0  0
   -7.2423   -0.5385   -0.0168 C   0  0  0  0  0  0  0  0  0  0  0  0
   -5.9908   -0.8929    0.4945 C   0  0  0  0  0  0  0  0  0  0  0  0
   -5.0363    0.0915    0.7930 C   0  0  0  0  0  0  0  0  0  0  0  0
   -3.6764   -0.2958    1.3261 C   0  0  0  0  0  0  0  0  0  0  0  0
   -2.6579   -0.4862    0.1883 C   0  0  0  0  0  0  0  0  0  0  0  0
   -1.3552   -0.9866    0.6623 N   0  0  0  0  0  0  0  0  0  0  0  0
   -0.5178   -1.4614   -0.4675 C   0  0  0  0  0  0  0  0  0  0  0  0
    0.0648   -0.3445   -1.3664 C   0  0  0  0  0  0  0  0  0  0  0  0
    0.8293    0.6323   -0.5654 N   0  0  0  0  0  0  0  0  0  0  0  0
    2.1871    0.3916   -0.3530 C   0  0  0  0  0  0  0  0  0  0  0  0
    2.6286    0.2440    0.8705 N   0  0  0  0  0  0  0  0  0  0  0  0
    3.9875   -0.0352    1.1155 C   0  0  0  0  0  0  0  0  0  0  0  0
    4.4012   -0.2048    2.4382 C   0  0  0  0  0  0  0  0  0  0  0  0
    5.7356   -0.4931    2.7371 C   0  0  0  0  0  0  0  0  0  0  0  0
    6.6727   -0.6153    1.7104 C   0  0  0  0  0  0  0  0  0  0  0  0
    6.2820   -0.4500    0.3811 C   0  0  0  0  0  0  0  0  0  0  0  0
    4.9435   -0.1629    0.0978 C   0  0  0  0  0  0  0  0  0  0  0  0
    4.4666    0.0295   -1.2086 N   0  0  0  0  0  0  0  0  0  0  0  0
    5.1460   -0.0023   -2.4036 C   0  0  0  0  0  0  0  0  0  0  0  0
    4.2602    0.3147   -3.4109 C   0  0  0  0  0  0  0  0  0  0  0  0
    2.9999    0.5317   -2.8074 C   0  0  0  0  0  0  0  0  0  0  0  0
    3.1411    0.3140   -1.4482 C   0  0  0  0  0  0  0  0  0  0  0  0
    0.0262    1.1636    0.5554 C   0  0  0  0  0  0  0  0  0  0  0  0
   -0.5739    0.0272    1.4164 C   0  0  0  0  0  0  0  0  0  0  0  0
   -5.3532    1.4365    0.5625 C   0  0  0  0  0  0  0  0  0  0  0  0
   -8.5164    1.0937   -0.6343 H   0  0  0  0  0  0  0  0  0  0  0  0
   -7.9756   -1.3088   -0.2416 H   0  0  0  0  0  0  0  0  0  0  0  0
   -5.7637   -1.9446    0.6606 H   0  0  0  0  0  0  0  0  0  0  0  0
   -3.3462    0.4778    2.0288 H   0  0  0  0  0  0  0  0  0  0  0  0
   -3.7661   -1.2203    1.9112 H   0  0  0  0  0  0  0  0  0  0  0  0
   -2.5552    0.4442   -0.3826 H   0  0  0  0  0  0  0  0  0  0  0  0
   -3.0814   -1.2237   -0.5072 H   0  0  0  0  0  0  0  0  0  0  0  0
    0.3134   -2.0426   -0.0462 H   0  0  0  0  0  0  0  0  0  0  0  0
   -1.0859   -2.1687   -1.0841 H   0  0  0  0  0  0  0  0  0  0  0  0
   -0.7421    0.1817   -1.8897 H   0  0  0  0  0  0  0  0  0  0  0  0
    0.6840   -0.8081   -2.1405 H   0  0  0  0  0  0  0  0  0  0  0  0
    3.6734   -0.1126    3.2399 H   0  0  0  0  0  0  0  0  0  0  0  0
    6.0413   -0.6223    3.7722 H   0  0  0  0  0  0  0  0  0  0  0  0
    7.7099   -0.8390    1.9482 H   0  0  0  0  0  0  0  0  0  0  0  0
    7.0285   -0.5475   -0.3999 H   0  0  0  0  0  0  0  0  0  0  0  0
    6.2014   -0.2268   -2.4533 H   0  0  0  0  0  0  0  0  0  0  0  0
    4.5007    0.3923   -4.4635 H   0  0  0  0  0  0  0  0  0  0  0  0
    2.0850    0.8188   -3.3086 H   0  0  0  0  0  0  0  0  0  0  0  0
   -0.7782    1.7836    0.1420 H   0  0  0  0  0  0  0  0  0  0  0  0
    0.6258    1.8342    1.1828 H   0  0  0  0  0  0  0  0  0  0  0  0
    0.2407   -0.5029    1.9262 H   0  0  0  0  0  0  0  0  0  0  0  0
   -1.1747    0.4610    2.2222 H   0  0  0  0  0  0  0  0  0  0  0  0
   -4.6401    2.2270    0.7764 H   0  0  0  0  0  0  0  0  0  0  0  0
  1  2  1  0
  2  3  2  0
  3  4  1  0
  4  5  2  0
  5  6  1  0
  6  7  1  0
  7  8  1  0
  8  9  1  0
  9 10  1  0
 10 11  1  0
 11 12  1  0
 12 13  1  0
 13 14  2  0
 14 15  1  0
 15 16  2  0
 16 17  1  0
 17 18  2  0
 18 19  1  0
 19 20  2  0
 20 21  1  0
 21 22  1  0
 22 23  2  0
 23 24  1  0
 24 25  2  0
 12 26  1  0
 26 27  1  0
  6 28  2  0
 28  2  1  0
 27  9  1  0
 25 13  1  0
 20 15  1  0
 25 21  1  0
  3 29  1  0
  4 30  1  0
  5 31  1  0
  7 32  1  0
  7 33  1  0
  8 34  1  0
  8 35  1  0
 10 36  1  0
 10 37  1  0
 11 38  1  0
 11 39  1  0
 16 40  1  0
 17 41  1  0
 18 42  1  0
 19 43  1  0
 22 44  1  0
 23 45  1  0
 24 46  1  0
 26 47  1  0
 26 48  1  0
 27 49  1  0
 27 50  1  0
 28 51  1  0
M  END
$$$$
