
     RDKit          3D

 38 39  0  0  0  0  0  0  0  0999 V2000
    1.2076   -3.6610    0.5401 O   0  0  0  0  0  0  0  0  0  0  0  0
    0.8765   -2.5380    0.1643 C   0  0  0  0  0  0  0  0  0  0  0  0
   -0.1126   -2.3130   -0.9749 C   0  0  0  0  0  0  0  0  0  0  0  0
   -1.2342   -1.5311   -0.5711 O   0  0  0  0  0  0  0  0  0  0  0  0
   -1.1781   -0.2041   -0.8406 C   0  0  0  0  0  0  0  0  0  0  0  0
   -0.2343    0.3996   -1.3304 O   0  0  0  0  0  0  0  0  0  0  0  0
   -2.3923    0.4621   -0.3186 C   0  0  0  0  0  0  0  0  0  0  0  0
   -2.2207    1.5970    0.4824 C   0  0  0  0  0  0  0  0  0  0  0  0
   -3.3359    2.2460    1.0111 C   0  0  0  0  0  0  0  0  0  0  0  0
   -4.6102    1.7596    0.7389 C   0  0  0  0  0  0  0  0  0  0  0  0
   -5.6668    2.4276    1.2851 O   0  0  0  0  0  0  0  0  0  0  0  0
   -4.7970    0.6383   -0.0683 C   0  0  0  0  0  0  0  0  0  0  0  0
   -3.6812   -0.0020   -0.6067 C   0  0  0  0  0  0  0  0  0  0  0  0
   -3.8494   -1.0672   -1.4500 O   0  0  0  0  0  0  0  0  0  0  0  0
    1.3998   -1.3862    0.6962 N   0  0  0  0  0  0  0  0  0  0  0  0
    2.4799   -1.4020    1.6680 C   0  0  0  0  0  0  0  0  0  0  0  0
    3.2163   -0.0552    1.7625 C   0  0  0  0  0  0  0  0  0  0  0  0
    3.7565    0.3868    0.4861 N   0  0  0  0  0  0  0  0  0  0  0  0
    3.0321    1.1088   -0.4323 C   0  0  0  0  0  0  0  0  0  0  0  0
    1.7654    1.4947   -0.1082 O   0  0  0  0  0  0  0  0  0  0  0  0
    3.6575    1.3275   -1.5941 C   0  0  0  0  0  0  0  0  0  0  0  0
    5.2473    0.6217   -1.5873 S   0  0  0  0  0  0  0  0  0  0  0  0
    5.0033   -0.0275    0.0476 C   0  0  0  0  0  0  0  0  0  0  0  0
    5.8164   -0.7215    0.6346 O   0  0  0  0  0  0  0  0  0  0  0  0
    0.4167   -1.8829   -1.8296 H   0  0  0  0  0  0  0  0  0  0  0  0
   -0.4953   -3.2882   -1.3009 H   0  0  0  0  0  0  0  0  0  0  0  0
   -1.2235    1.9740    0.7066 H   0  0  0  0  0  0  0  0  0  0  0  0
   -3.2139    3.1255    1.6404 H   0  0  0  0  0  0  0  0  0  0  0  0
   -6.4816    1.9235    1.1375 H   0  0  0  0  0  0  0  0  0  0  0  0
   -5.7970    0.2839   -0.2906 H   0  0  0  0  0  0  0  0  0  0  0  0
   -4.7841   -1.3258   -1.4839 H   0  0  0  0  0  0  0  0  0  0  0  0
    1.1177   -0.4890    0.3130 H   0  0  0  0  0  0  0  0  0  0  0  0
    2.0382   -1.6396    2.6435 H   0  0  0  0  0  0  0  0  0  0  0  0
    3.1732   -2.2163    1.4103 H   0  0  0  0  0  0  0  0  0  0  0  0
    2.5518    0.7210    2.1539 H   0  0  0  0  0  0  0  0  0  0  0  0
    4.0463   -0.1549    2.4732 H   0  0  0  0  0  0  0  0  0  0  0  0
    1.2488    1.5419   -0.9341 H   0  0  0  0  0  0  0  0  0  0  0  0
    3.2570    1.8659   -2.4417 H   0  0  0  0  0  0  0  0  0  0  0  0
  1  2  2  0
  2  3  1  0
  3  4  1  0
  4  5  1  0
  5  6  2  0
  5  7  1  0
  7  8  2  0
  8  9  1  0
  9 10  2  0
 10 11  1  0
 10 12  1  0
 12 13  2  0
 13 14  1  0
  2 15  1  0
 15 16  1  0
 16 17  1  0
 17 18  1  0
 18 19  1  0
 19 20  1  0
 19 21  2  0
 21 22  1  0
 22 23  1  0
 23 24  2  0
 13  7  1  0
 23 18  1  0
  3 25  1  0
  3 26  1  0
  8 27  1  0
  9 28  1  0
 11 29  1  0
 12 30  1  0
 14 31  1  0
 15 32  1  0
 16 33  1  0
 16 34  1  0
 17 35  1  0
 17 36  1  0
 20 37  1  0
 21 38  1  0
M  END
$$$$
