
     RDKit          3D

 34 36  0  0  0  0  0  0  0  0999 V2000
    0.1091    0.8832    2.1451 O   0  0  0  0  0  0  0  0  0  0  0  0
    0.4429    0.4547    1.0493 C   0  0  0  0  0  0  0  0  0  0  0  0
    1.8572    0.1088    0.8223 C   0  0  0  0  0  0  0  0  0  0  0  0
    2.4107   -0.9646    1.5259 C   0  0  0  0  0  0  0  0  0  0  0  0
    3.7532   -1.2946    1.3316 C   0  0  0  0  0  0  0  0  0  0  0  0
    4.5311   -0.5429    0.4490 C   0  0  0  0  0  0  0  0  0  0  0  0
    6.1847   -0.9527    0.2092 Cl  0  0  0  0  0  0  0  0  0  0  0  0
    3.9819    0.5422   -0.2375 C   0  0  0  0  0  0  0  0  0  0  0  0
    2.6395    0.8761   -0.0472 C   0  0  0  0  0  0  0  0  0  0  0  0
   -0.4452    0.2655    0.0226 N   0  0  0  0  0  0  0  0  0  0  0  0
   -0.2131   -0.3903   -1.2720 C   0  0  0  0  0  0  0  0  0  0  0  0
   -0.8414   -1.7566   -1.1552 C   0  0  0  0  0  0  0  0  0  0  0  0
   -2.1760   -1.5952   -1.1562 C   0  0  0  0  0  0  0  0  0  0  0  0
   -2.4288   -0.0950   -1.1841 C   0  0  0  0  0  0  0  0  0  0  0  0
   -1.2805    0.2636   -2.1485 C   0  0  0  0  0  0  0  0  0  0  0  0
   -1.9354    0.5455    0.1704 C   0  0  0  0  0  0  0  0  0  0  0  0
   -2.6486   -0.0877    1.3694 C   0  0  0  0  0  0  0  0  0  0  0  0
   -2.2581   -1.3683    1.5868 F   0  0  0  0  0  0  0  0  0  0  0  0
   -3.9889   -0.1379    1.1460 F   0  0  0  0  0  0  0  0  0  0  0  0
   -2.4827    0.5676    2.5338 F   0  0  0  0  0  0  0  0  0  0  0  0
   -2.3147    2.0222    0.2416 C   0  0  0  0  0  0  0  0  0  0  0  0
   -1.7383    2.7349   -0.7596 F   0  0  0  0  0  0  0  0  0  0  0  0
   -1.9571    2.6329    1.3865 F   0  0  0  0  0  0  0  0  0  0  0  0
   -3.6512    2.1914    0.0951 F   0  0  0  0  0  0  0  0  0  0  0  0
    1.8022   -1.5349    2.2244 H   0  0  0  0  0  0  0  0  0  0  0  0
    4.1878   -2.1298    1.8752 H   0  0  0  0  0  0  0  0  0  0  0  0
    4.5964    1.1339   -0.9114 H   0  0  0  0  0  0  0  0  0  0  0  0
    2.2139    1.7332   -0.5628 H   0  0  0  0  0  0  0  0  0  0  0  0
    0.8042   -0.3718   -1.6586 H   0  0  0  0  0  0  0  0  0  0  0  0
   -0.3045   -2.6902   -1.0769 H   0  0  0  0  0  0  0  0  0  0  0  0
   -2.9227   -2.3700   -1.0557 H   0  0  0  0  0  0  0  0  0  0  0  0
   -3.4240    0.1901   -1.5291 H   0  0  0  0  0  0  0  0  0  0  0  0
   -1.3791   -0.1985   -3.1402 H   0  0  0  0  0  0  0  0  0  0  0  0
   -1.1246    1.3350   -2.2893 H   0  0  0  0  0  0  0  0  0  0  0  0
  1  2  2  0
  2  3  1  0
  3  4  2  0
  4  5  1  0
  5  6  2  0
  6  7  1  0
  6  8  1  0
  8  9  2  0
  2 10  1  0
 10 11  1  0
 11 12  1  0
 12 13  2  0
 13 14  1  0
 14 15  1  0
 14 16  1  0
 16 17  1  0
 17 18  1  0
 17 19  1  0
 17 20  1  0
 16 21  1  0
 21 22  1  0
 21 23  1  0
 21 24  1  0
  9  3  1  0
 16 10  1  0
 15 11  1  0
  4 25  1  0
  5 26  1  0
  8 27  1  0
  9 28  1  0
 11 29  1  0
 12 30  1  0
 13 31  1  0
 14 32  1  0
 15 33  1  0
 15 34  1  0
M  END
$$$$
