
     RDKit          3D

 55 60  0  0  0  0  0  0  0  0999 V2000
   -3.5740    2.8018    1.6474 O   0  0  0  0  0  0  0  0  0  0  0  0
   -3.7457    1.7666    1.0055 C   0  0  0  0  0  0  0  0  0  0  0  0
   -5.0951    1.3390    0.6612 C   0  0  0  0  0  0  0  0  0  0  0  0
   -5.6763    0.0416    0.5409 C   0  0  0  0  0  0  0  0  0  0  0  0
   -7.0026    0.2292    0.2291 C   0  0  0  0  0  0  0  0  0  0  0  0
   -7.2908    1.5527    0.1695 O   0  0  0  0  0  0  0  0  0  0  0  0
   -6.1419    2.2170    0.4515 C   0  0  0  0  0  0  0  0  0  0  0  0
   -2.6677    0.9695    0.6072 N   0  0  0  0  0  0  0  0  0  0  0  0
   -2.7159   -0.0053   -0.4806 C   0  0  0  0  0  0  0  0  0  0  0  0
   -1.4108   -0.0277   -1.2740 C   0  0  0  0  0  0  0  0  0  0  0  0
   -0.1821   -0.4079   -0.3875 C   0  0  0  0  0  0  0  0  0  0  0  0
   -0.4140    0.1205    1.0593 C   0  0  0  0  0  0  0  0  0  0  0  0
   -1.3436    1.3250    1.1082 C   0  0  0  0  0  0  0  0  0  0  0  0
   -0.1334   -1.8536   -0.2355 O   0  0  0  0  0  0  0  0  0  0  0  0
    0.3073   -2.5663   -1.3158 C   0  0  0  0  0  0  0  0  0  0  0  0
    0.0372   -3.9353   -1.3000 C   0  0  0  0  0  0  0  0  0  0  0  0
    0.4277   -4.7337   -2.3764 C   0  0  0  0  0  0  0  0  0  0  0  0
    1.0879   -4.1581   -3.4581 C   0  0  0  0  0  0  0  0  0  0  0  0
    1.4578   -4.9293   -4.4877 F   0  0  0  0  0  0  0  0  0  0  0  0
    1.3763   -2.7999   -3.4819 C   0  0  0  0  0  0  0  0  0  0  0  0
    0.9912   -2.0085   -2.3972 C   0  0  0  0  0  0  0  0  0  0  0  0
    1.3219   -0.5718   -2.3643 C   0  0  0  0  0  0  0  0  0  0  0  0
    1.7459   -0.0233   -3.3753 O   0  0  0  0  0  0  0  0  0  0  0  0
    1.1520    0.1041   -1.0078 C   0  0  0  0  0  0  0  0  0  0  0  0
    2.4201   -0.1693   -0.2043 C   0  0  0  0  0  0  0  0  0  0  0  0
    2.6919    1.2047    0.3011 C   0  0  0  0  0  0  0  0  0  0  0  0
    3.7254    1.4728    1.3280 C   0  0  0  0  0  0  0  0  0  0  0  0
    3.8526    2.7706    1.8387 C   0  0  0  0  0  0  0  0  0  0  0  0
    4.8129    3.0525    2.8120 C   0  0  0  0  0  0  0  0  0  0  0  0
    5.6508    2.0410    3.2776 C   0  0  0  0  0  0  0  0  0  0  0  0
    5.5317    0.7478    2.7701 C   0  0  0  0  0  0  0  0  0  0  0  0
    4.5716    0.4610    1.7960 C   0  0  0  0  0  0  0  0  0  0  0  0
    1.9503    2.1296   -0.2169 N   0  0  0  0  0  0  0  0  0  0  0  0
    1.1107    1.5230   -1.1762 O   0  0  0  0  0  0  0  0  0  0  0  0
   -5.1959   -0.9151    0.6841 H   0  0  0  0  0  0  0  0  0  0  0  0
   -7.8328   -0.4384    0.0443 H   0  0  0  0  0  0  0  0  0  0  0  0
   -6.2152    3.2964    0.4659 H   0  0  0  0  0  0  0  0  0  0  0  0
   -3.5379    0.2330   -1.1622 H   0  0  0  0  0  0  0  0  0  0  0  0
   -2.9051   -0.9892   -0.0376 H   0  0  0  0  0  0  0  0  0  0  0  0
   -1.2686    0.9661   -1.7165 H   0  0  0  0  0  0  0  0  0  0  0  0
   -1.5367   -0.7298   -2.1053 H   0  0  0  0  0  0  0  0  0  0  0  0
   -0.8569   -0.6786    1.6716 H   0  0  0  0  0  0  0  0  0  0  0  0
    0.5233    0.3649    1.5647 H   0  0  0  0  0  0  0  0  0  0  0  0
   -0.9628    2.1575    0.5066 H   0  0  0  0  0  0  0  0  0  0  0  0
   -1.4316    1.6811    2.1410 H   0  0  0  0  0  0  0  0  0  0  0  0
   -0.4865   -4.3803   -0.4572 H   0  0  0  0  0  0  0  0  0  0  0  0
    0.2183   -5.7995   -2.3815 H   0  0  0  0  0  0  0  0  0  0  0  0
    1.9018   -2.3754   -4.3329 H   0  0  0  0  0  0  0  0  0  0  0  0
    2.2752   -0.8882    0.6060 H   0  0  0  0  0  0  0  0  0  0  0  0
    3.2656   -0.4890   -0.8235 H   0  0  0  0  0  0  0  0  0  0  0  0
    3.2071    3.5715    1.4824 H   0  0  0  0  0  0  0  0  0  0  0  0
    4.9068    4.0625    3.2038 H   0  0  0  0  0  0  0  0  0  0  0  0
    6.3998    2.2624    4.0343 H   0  0  0  0  0  0  0  0  0  0  0  0
    6.1913   -0.0374    3.1324 H   0  0  0  0  0  0  0  0  0  0  0  0
    4.5113   -0.5542    1.4161 H   0  0  0  0  0  0  0  0  0  0  0  0
  1  2  2  0
  2  3  1  0
  3  4  1  0
  4  5  2  0
  5  6  1  0
  6  7  1  0
  2  8  1  0
  8  9  1  0
  9 10  1  0
 10 11  1  0
 11 12  1  0
 12 13  1  0
 11 14  1  0
 14 15  1  0
 15 16  2  0
 16 17  1  0
 17 18  2  0
 18 19  1  0
 18 20  1  0
 20 21  2  0
 21 22  1  0
 22 23  2  0
 22 24  1  0
 24 25  1  0
 25 26  1  0
 26 27  1  0
 27 28  2  0
 28 29  1  0
 29 30  2  0
 30 31  1  0
 31 32  2  0
 26 33  2  0
 33 34  1  0
  7  3  2  0
 13  8  1  0
 21 15  1  0
 34 24  1  0
 24 11  1  0
 32 27  1  0
  4 35  1  0
  5 36  1  0
  7 37  1  0
  9 38  1  0
  9 39  1  0
 10 40  1  0
 10 41  1  0
 12 42  1  0
 12 43  1  0
 13 44  1  0
 13 45  1  0
 16 46  1  0
 17 47  1  0
 20 48  1  0
 25 49  1  0
 25 50  1  0
 28 51  1  0
 29 52  1  0
 30 53  1  0
 31 54  1  0
 32 55  1  0
M  END
$$$$
