
     RDKit          3D

 44 46  0  0  0  0  0  0  0  0999 V2000
    8.2293   -1.4336    1.9333 C   0  0  0  0  0  0  0  0  0  0  0  0
    6.8879   -1.4680    1.2619 C   0  0  0  0  0  0  0  0  0  0  0  0
    6.7672   -1.1584   -0.0987 C   0  0  0  0  0  0  0  0  0  0  0  0
    5.5231   -1.2217   -0.7337 C   0  0  0  0  0  0  0  0  0  0  0  0
    4.3855   -1.6008   -0.0106 C   0  0  0  0  0  0  0  0  0  0  0  0
    3.0411   -1.6884   -0.6450 C   0  0  0  0  0  0  0  0  0  0  0  0
    2.1823   -2.4301   -0.1835 O   0  0  0  0  0  0  0  0  0  0  0  0
    2.8218   -0.8700   -1.7349 N   0  0  0  0  0  0  0  0  0  0  0  0
    1.4790   -0.7363   -2.2807 C   0  0  0  0  0  0  0  0  0  0  0  0
    0.7459    0.4195   -1.6132 C   0  0  0  0  0  0  0  0  0  0  0  0
    1.2975    1.3800   -1.0870 O   0  0  0  0  0  0  0  0  0  0  0  0
   -0.5987    0.2716   -1.7553 O   0  0  0  0  0  0  0  0  0  0  0  0
   -1.3579    1.3195   -1.1352 C   0  0  0  0  0  0  0  0  0  0  0  0
   -2.8283    1.1099   -1.3279 C   0  0  0  0  0  0  0  0  0  0  0  0
   -3.4566    0.6756   -2.4775 C   0  0  0  0  0  0  0  0  0  0  0  0
   -5.1460    0.5946   -2.2335 S   0  0  0  0  0  0  0  0  0  0  0  0
   -4.9469    1.1485   -0.6121 C   0  0  0  0  0  0  0  0  0  0  0  0
   -6.0913    1.3245    0.3068 C   0  0  0  0  0  0  0  0  0  0  0  0
   -7.4341    1.2544   -0.1013 C   0  0  0  0  0  0  0  0  0  0  0  0
   -8.4767    1.4284    0.8163 C   0  0  0  0  0  0  0  0  0  0  0  0
   -8.1960    1.6780    2.1572 C   0  0  0  0  0  0  0  0  0  0  0  0
   -6.8738    1.7558    2.5834 C   0  0  0  0  0  0  0  0  0  0  0  0
   -5.8337    1.5824    1.6658 C   0  0  0  0  0  0  0  0  0  0  0  0
   -3.6903    1.3815   -0.2745 N   0  0  0  0  0  0  0  0  0  0  0  0
    4.5078   -1.9385    1.3419 C   0  0  0  0  0  0  0  0  0  0  0  0
    5.7518   -1.8723    1.9738 C   0  0  0  0  0  0  0  0  0  0  0  0
    8.8811   -0.6877    1.4672 H   0  0  0  0  0  0  0  0  0  0  0  0
    8.7085   -2.4151    1.8630 H   0  0  0  0  0  0  0  0  0  0  0  0
    8.1289   -1.1624    2.9891 H   0  0  0  0  0  0  0  0  0  0  0  0
    7.6454   -0.8731   -0.6757 H   0  0  0  0  0  0  0  0  0  0  0  0
    5.4662   -1.0013   -1.7962 H   0  0  0  0  0  0  0  0  0  0  0  0
    3.4216   -0.0590   -1.8271 H   0  0  0  0  0  0  0  0  0  0  0  0
    0.9208   -1.6663   -2.1354 H   0  0  0  0  0  0  0  0  0  0  0  0
    1.5719   -0.5192   -3.3488 H   0  0  0  0  0  0  0  0  0  0  0  0
   -1.1324    1.3397   -0.0622 H   0  0  0  0  0  0  0  0  0  0  0  0
   -1.0835    2.2837   -1.5800 H   0  0  0  0  0  0  0  0  0  0  0  0
   -3.0104    0.4029   -3.4227 H   0  0  0  0  0  0  0  0  0  0  0  0
   -7.7004    1.0684   -1.1383 H   0  0  0  0  0  0  0  0  0  0  0  0
   -9.5091    1.3701    0.4799 H   0  0  0  0  0  0  0  0  0  0  0  0
   -9.0066    1.8117    2.8689 H   0  0  0  0  0  0  0  0  0  0  0  0
   -6.6468    1.9497    3.6285 H   0  0  0  0  0  0  0  0  0  0  0  0
   -4.8056    1.6464    2.0211 H   0  0  0  0  0  0  0  0  0  0  0  0
    3.6332   -2.2539    1.9078 H   0  0  0  0  0  0  0  0  0  0  0  0
    5.8273   -2.1407    3.0251 H   0  0  0  0  0  0  0  0  0  0  0  0
  1  2  1  0
  2  3  2  0
  3  4  1  0
  4  5  2  0
  5  6  1  0
  6  7  2  0
  6  8  1  0
  8  9  1  0
  9 10  1  0
 10 11  2  0
 10 12  1  0
 12 13  1  0
 13 14  1  0
 14 15  2  0
 15 16  1  0
 16 17  1  0
 17 18  1  0
 18 19  2  0
 19 20  1  0
 20 21  2  0
 21 22  1  0
 22 23  2  0
 17 24  2  0
  5 25  1  0
 25 26  2  0
 26  2  1  0
 24 14  1  0
 23 18  1  0
  1 27  1  0
  1 28  1  0
  1 29  1  0
  3 30  1  0
  4 31  1  0
  8 32  1  0
  9 33  1  0
  9 34  1  0
 13 35  1  0
 13 36  1  0
 15 37  1  0
 19 38  1  0
 20 39  1  0
 21 40  1  0
 22 41  1  0
 23 42  1  0
 25 43  1  0
 26 44  1  0
M  END
$$$$
