
     RDKit          3D

 44 46  0  0  0  0  0  0  0  0999 V2000
   -4.5701   -4.4612    2.3273 C   0  0  0  0  0  0  0  0  0  0  0  0
   -3.7921   -3.3714    1.6488 C   0  0  0  0  0  0  0  0  0  0  0  0
   -3.9995   -2.0339    1.9895 C   0  0  0  0  0  0  0  0  0  0  0  0
   -3.3166   -0.9876    1.3380 C   0  0  0  0  0  0  0  0  0  0  0  0
   -3.6273    0.4089    1.8023 C   0  0  0  0  0  0  0  0  0  0  0  0
   -2.4047   -1.3069    0.3026 C   0  0  0  0  0  0  0  0  0  0  0  0
   -1.5217   -0.0165   -0.6021 S   0  0  0  0  0  6  0  0  0  0  0  0
   -1.5218   -0.3693   -2.0054 O   0  0  0  0  0  0  0  0  0  0  0  0
   -1.9675    1.2910   -0.1710 O   0  0  0  0  0  0  0  0  0  0  0  0
    0.0518   -0.2038    0.0481 N   0  0  0  0  0  0  0  0  0  0  0  0
    1.0583    0.5434   -0.6506 C   0  0  0  0  0  0  0  0  0  0  0  0
    1.6449   -0.0006   -1.7912 C   0  0  0  0  0  0  0  0  0  0  0  0
    2.5916    0.7352   -2.5012 C   0  0  0  0  0  0  0  0  0  0  0  0
    2.9430    2.0138   -2.0718 C   0  0  0  0  0  0  0  0  0  0  0  0
    3.8866    2.6580   -2.8239 O   0  0  0  0  0  0  0  0  0  0  0  0
    2.3416    2.5864   -0.9408 C   0  0  0  0  0  0  0  0  0  0  0  0
    2.6529    4.2600   -0.3949 S   0  0  0  0  0  0  0  0  0  0  0  0
    4.3222    4.1863    0.0893 C   0  0  0  0  0  0  0  0  0  0  0  0
    4.7444    4.3587    1.3762 N   0  0  0  0  0  0  0  0  0  0  0  0
    6.0476    4.2440    1.2784 C   0  0  0  0  0  0  0  0  0  0  0  0
    6.3881    4.0218   -0.0178 N   0  0  0  0  0  0  0  0  0  0  0  0
    5.2987    3.9869   -0.8054 N   0  0  0  0  0  0  0  0  0  0  0  0
    1.3852    1.8382   -0.2379 C   0  0  0  0  0  0  0  0  0  0  0  0
   -2.1851   -2.6635   -0.0520 C   0  0  0  0  0  0  0  0  0  0  0  0
   -1.2536   -3.1086   -1.1498 C   0  0  0  0  0  0  0  0  0  0  0  0
   -2.8982   -3.6727    0.6224 C   0  0  0  0  0  0  0  0  0  0  0  0
   -4.7791   -4.2014    3.3700 H   0  0  0  0  0  0  0  0  0  0  0  0
   -5.5178   -4.6228    1.8052 H   0  0  0  0  0  0  0  0  0  0  0  0
   -4.0066   -5.4002    2.3341 H   0  0  0  0  0  0  0  0  0  0  0  0
   -4.7156   -1.8011    2.7774 H   0  0  0  0  0  0  0  0  0  0  0  0
   -2.7204    0.9080    2.1545 H   0  0  0  0  0  0  0  0  0  0  0  0
   -4.3253    0.4074    2.6484 H   0  0  0  0  0  0  0  0  0  0  0  0
   -4.1087    0.9818    1.0042 H   0  0  0  0  0  0  0  0  0  0  0  0
    0.0043    0.0673    1.0319 H   0  0  0  0  0  0  0  0  0  0  0  0
    1.3650   -0.9914   -2.1376 H   0  0  0  0  0  0  0  0  0  0  0  0
    3.0526    0.3163   -3.3918 H   0  0  0  0  0  0  0  0  0  0  0  0
    4.2852    3.3624   -2.2689 H   0  0  0  0  0  0  0  0  0  0  0  0
    6.7674    4.3125    2.0812 H   0  0  0  0  0  0  0  0  0  0  0  0
    7.3070    3.8876   -0.4258 H   0  0  0  0  0  0  0  0  0  0  0  0
    0.8820    2.2756    0.6212 H   0  0  0  0  0  0  0  0  0  0  0  0
   -1.0551   -4.1845   -1.0872 H   0  0  0  0  0  0  0  0  0  0  0  0
   -0.2798   -2.6222   -1.0724 H   0  0  0  0  0  0  0  0  0  0  0  0
   -1.6983   -2.9162   -2.1301 H   0  0  0  0  0  0  0  0  0  0  0  0
   -2.7554   -4.7156    0.3381 H   0  0  0  0  0  0  0  0  0  0  0  0
  1  2  1  0
  2  3  2  0
  3  4  1  0
  4  5  1  0
  4  6  2  0
  6  7  1  0
  7  8  2  0
  7  9  2  0
  7 10  1  0
 10 11  1  0
 11 12  2  0
 12 13  1  0
 13 14  2  0
 14 15  1  0
 14 16  1  0
 16 17  1  0
 17 18  1  0
 18 19  1  0
 19 20  2  0
 20 21  1  0
 21 22  1  0
 16 23  2  0
  6 24  1  0
 24 25  1  0
 24 26  2  0
 26  2  1  0
 23 11  1  0
 22 18  2  0
  1 27  1  0
  1 28  1  0
  1 29  1  0
  3 30  1  0
  5 31  1  0
  5 32  1  0
  5 33  1  0
 10 34  1  0
 12 35  1  0
 13 36  1  0
 15 37  1  0
 20 38  1  0
 21 39  1  0
 23 40  1  0
 25 41  1  0
 25 42  1  0
 25 43  1  0
 26 44  1  0
M  END
$$$$
