
     RDKit          3D

 57 60  0  0  0  0  0  0  0  0999 V2000
    2.7895    2.1687   -3.5616 C   0  0  0  0  0  0  0  0  0  0  0  0
    1.4598    2.5744   -2.9261 C   0  0  0  0  0  0  0  0  0  0  0  0
    1.0332    1.5968   -1.8179 C   0  0  0  0  0  0  0  0  0  0  0  0
   -0.7092    1.9330   -1.3291 S   0  0  0  0  0  0  0  0  0  0  0  0
   -1.5862    0.8464   -2.4008 C   0  0  0  0  0  0  0  0  0  0  0  0
   -1.0128    0.5684   -3.5338 N   0  0  0  0  0  0  0  0  0  0  0  0
   -1.7406   -0.2657   -4.3761 C   0  0  0  0  0  0  0  0  0  0  0  0
   -1.2978   -0.6805   -5.6521 C   0  0  0  0  0  0  0  0  0  0  0  0
   -2.2329   -1.4993   -6.2538 C   0  0  0  0  0  0  0  0  0  0  0  0
   -3.6186   -1.7369   -5.2580 S   0  0  0  0  0  0  0  0  0  0  0  0
   -2.9668   -0.7521   -4.0412 C   0  0  0  0  0  0  0  0  0  0  0  0
   -3.6037   -0.4521   -2.7936 C   0  0  0  0  0  0  0  0  0  0  0  0
   -4.7091   -0.8830   -2.4695 O   0  0  0  0  0  0  0  0  0  0  0  0
   -2.8305    0.3762   -1.9661 N   0  0  0  0  0  0  0  0  0  0  0  0
   -3.4072    0.6809   -0.6494 C   0  0  0  0  0  0  0  0  0  0  0  0
   -2.8793   -0.2261    0.4515 C   0  0  0  0  0  0  0  0  0  0  0  0
   -2.1794    0.3067    1.5452 C   0  0  0  0  0  0  0  0  0  0  0  0
   -1.7047   -0.5244    2.5650 C   0  0  0  0  0  0  0  0  0  0  0  0
   -1.9230   -1.9039    2.5081 C   0  0  0  0  0  0  0  0  0  0  0  0
   -1.3926   -2.7515    3.6021 C   0  0  0  0  0  0  0  0  0  0  0  0
   -0.7582   -2.3612    4.5649 O   0  0  0  0  0  0  0  0  0  0  0  0
   -1.6712   -4.0566    3.4278 O   0  0  0  0  0  0  0  0  0  0  0  0
   -2.6298   -2.4424    1.4290 C   0  0  0  0  0  0  0  0  0  0  0  0
   -3.1095   -1.6093    0.4144 C   0  0  0  0  0  0  0  0  0  0  0  0
    1.8885    1.7431   -0.5428 C   0  0  0  0  0  0  0  0  0  0  0  0
    2.6475    2.6916   -0.3674 O   0  0  0  0  0  0  0  0  0  0  0  0
    1.6973    0.6888    0.3435 N   0  0  0  0  0  0  0  0  0  0  0  0
    2.2763    0.5141    1.6166 C   0  0  0  0  0  0  0  0  0  0  0  0
    1.9279   -0.6474    2.3147 C   0  0  0  0  0  0  0  0  0  0  0  0
    2.4239   -0.8901    3.5997 C   0  0  0  0  0  0  0  0  0  0  0  0
    3.2958    0.0193    4.2104 C   0  0  0  0  0  0  0  0  0  0  0  0
    3.8020   -0.2577    5.5977 C   0  0  0  0  0  0  0  0  0  0  0  0
    3.6504    1.1782    3.5038 C   0  0  0  0  0  0  0  0  0  0  0  0
    4.7165    2.3558    4.1912 Cl  0  0  0  0  0  0  0  0  0  0  0  0
    3.1460    1.4233    2.2184 C   0  0  0  0  0  0  0  0  0  0  0  0
    2.7351    1.1506   -3.9644 H   0  0  0  0  0  0  0  0  0  0  0  0
    3.6085    2.2078   -2.8372 H   0  0  0  0  0  0  0  0  0  0  0  0
    3.0385    2.8434   -4.3874 H   0  0  0  0  0  0  0  0  0  0  0  0
    0.7128    2.6029   -3.7278 H   0  0  0  0  0  0  0  0  0  0  0  0
    1.5489    3.5984   -2.5394 H   0  0  0  0  0  0  0  0  0  0  0  0
    1.1333    0.5607   -2.1595 H   0  0  0  0  0  0  0  0  0  0  0  0
   -0.3570   -0.4004   -6.1088 H   0  0  0  0  0  0  0  0  0  0  0  0
   -2.1756   -1.9724   -7.2271 H   0  0  0  0  0  0  0  0  0  0  0  0
   -4.4994    0.5819   -0.6712 H   0  0  0  0  0  0  0  0  0  0  0  0
   -3.2252    1.7331   -0.4026 H   0  0  0  0  0  0  0  0  0  0  0  0
   -1.9992    1.3783    1.6208 H   0  0  0  0  0  0  0  0  0  0  0  0
   -1.1634   -0.0873    3.4048 H   0  0  0  0  0  0  0  0  0  0  0  0
   -1.2892   -4.4953    4.2158 H   0  0  0  0  0  0  0  0  0  0  0  0
   -2.8234   -3.5095    1.3676 H   0  0  0  0  0  0  0  0  0  0  0  0
   -3.6798   -2.0564   -0.3978 H   0  0  0  0  0  0  0  0  0  0  0  0
    1.0351   -0.0242    0.0608 H   0  0  0  0  0  0  0  0  0  0  0  0
    1.2592   -1.3833    1.8762 H   0  0  0  0  0  0  0  0  0  0  0  0
    2.1131   -1.7940    4.1229 H   0  0  0  0  0  0  0  0  0  0  0  0
    3.4835   -1.2423    5.9540 H   0  0  0  0  0  0  0  0  0  0  0  0
    3.4127    0.4878    6.2976 H   0  0  0  0  0  0  0  0  0  0  0  0
    4.8965   -0.2436    5.6192 H   0  0  0  0  0  0  0  0  0  0  0  0
    3.4437    2.3388    1.7187 H   0  0  0  0  0  0  0  0  0  0  0  0
  1  2  1  0
  2  3  1  0
  3  4  1  0
  4  5  1  0
  5  6  2  0
  6  7  1  0
  7  8  1  0
  8  9  2  0
  9 10  1  0
 10 11  1  0
 11 12  1  0
 12 13  2  0
 12 14  1  0
 14 15  1  0
 15 16  1  0
 16 17  2  0
 17 18  1  0
 18 19  2  0
 19 20  1  0
 20 21  2  0
 20 22  1  0
 19 23  1  0
 23 24  2  0
  3 25  1  0
 25 26  2  0
 25 27  1  0
 27 28  1  0
 28 29  2  0
 29 30  1  0
 30 31  2  0
 31 32  1  0
 31 33  1  0
 33 34  1  0
 33 35  2  0
 14  5  1  0
 24 16  1  0
 35 28  1  0
 11  7  2  0
  1 36  1  0
  1 37  1  0
  1 38  1  0
  2 39  1  0
  2 40  1  0
  3 41  1  0
  8 42  1  0
  9 43  1  0
 15 44  1  0
 15 45  1  0
 17 46  1  0
 18 47  1  0
 22 48  1  0
 23 49  1  0
 24 50  1  0
 27 51  1  0
 29 52  1  0
 30 53  1  0
 32 54  1  0
 32 55  1  0
 32 56  1  0
 35 57  1  0
M  END
$$$$
