
     RDKit          3D

 37 40  0  0  0  0  0  0  0  0999 V2000
   -3.2796    2.1792    1.2573 C   0  0  0  0  0  0  0  0  0  0  0  0
   -3.7971    0.7532    1.3328 C   0  0  0  0  0  0  0  0  0  0  0  0
   -2.9971   -0.1208    0.5397 O   0  0  0  0  0  0  0  0  0  0  0  0
   -3.2692   -0.2645   -0.7963 C   0  0  0  0  0  0  0  0  0  0  0  0
   -4.2944    0.3899   -1.4849 C   0  0  0  0  0  0  0  0  0  0  0  0
   -4.4885    0.1635   -2.8513 C   0  0  0  0  0  0  0  0  0  0  0  0
   -3.6619   -0.7178   -3.5426 C   0  0  0  0  0  0  0  0  0  0  0  0
   -2.6332   -1.3742   -2.8704 C   0  0  0  0  0  0  0  0  0  0  0  0
   -2.4283   -1.1497   -1.5019 C   0  0  0  0  0  0  0  0  0  0  0  0
   -1.3231   -1.8576   -0.8407 C   0  0  0  0  0  0  0  0  0  0  0  0
   -0.1474   -1.3057   -0.5108 C   0  0  0  0  0  0  0  0  0  0  0  0
    0.3676    0.3456   -0.8100 S   0  0  0  0  0  0  0  0  0  0  0  0
    1.8597    0.0099   -0.0359 C   0  0  0  0  0  0  0  0  0  0  0  0
    2.9393    0.6873    0.2286 N   0  0  0  0  0  0  0  0  0  0  0  0
    3.7137   -0.2719    0.8685 C   0  0  0  0  0  0  0  0  0  0  0  0
    5.1486    0.0456    1.4030 C   0  0  0  0  0  0  0  0  0  0  0  0
    5.7854    1.2681    1.3049 C   0  0  0  0  0  0  0  0  0  0  0  0
    7.0556    1.1164    1.9121 C   0  0  0  0  0  0  0  0  0  0  0  0
    7.1173   -0.1872    2.3433 C   0  0  0  0  0  0  0  0  0  0  0  0
    5.9688   -0.8439    2.0403 O   0  0  0  0  0  0  0  0  0  0  0  0
    3.1405   -1.4865    0.9911 N   0  0  0  0  0  0  0  0  0  0  0  0
    1.9549   -1.2613    0.4019 N   0  0  0  0  0  0  0  0  0  0  0  0
    0.8936   -2.1151    0.1920 C   0  0  0  0  0  0  0  0  0  0  0  0
    0.8751   -3.2845    0.5303 O   0  0  0  0  0  0  0  0  0  0  0  0
   -2.2219    2.2178    1.5385 H   0  0  0  0  0  0  0  0  0  0  0  0
   -3.8457    2.8314    1.9284 H   0  0  0  0  0  0  0  0  0  0  0  0
   -3.3517    2.5792    0.2416 H   0  0  0  0  0  0  0  0  0  0  0  0
   -4.8637    0.6778    1.0963 H   0  0  0  0  0  0  0  0  0  0  0  0
   -3.6971    0.4065    2.3677 H   0  0  0  0  0  0  0  0  0  0  0  0
   -4.9625    1.0891   -0.9945 H   0  0  0  0  0  0  0  0  0  0  0  0
   -5.2894    0.6790   -3.3762 H   0  0  0  0  0  0  0  0  0  0  0  0
   -3.8170   -0.8916   -4.6044 H   0  0  0  0  0  0  0  0  0  0  0  0
   -1.9913   -2.0580   -3.4211 H   0  0  0  0  0  0  0  0  0  0  0  0
   -1.5300   -2.8996   -0.6030 H   0  0  0  0  0  0  0  0  0  0  0  0
    5.3732    2.1573    0.8476 H   0  0  0  0  0  0  0  0  0  0  0  0
    7.8295    1.8630    2.0220 H   0  0  0  0  0  0  0  0  0  0  0  0
    7.8673   -0.7735    2.8558 H   0  0  0  0  0  0  0  0  0  0  0  0
  1  2  1  0
  2  3  1  0
  3  4  1  0
  4  5  2  0
  5  6  1  0
  6  7  2  0
  7  8  1  0
  8  9  2  0
  9 10  1  0
 10 11  2  3
 11 12  1  0
 12 13  1  0
 13 14  2  0
 14 15  1  0
 15 16  1  0
 16 17  2  0
 17 18  1  0
 18 19  2  0
 19 20  1  0
 15 21  2  0
 21 22  1  0
 22 23  1  0
 23 24  2  0
  9  4  1  0
 23 11  1  0
 22 13  1  0
 20 16  1  0
  1 25  1  0
  1 26  1  0
  1 27  1  0
  2 28  1  0
  2 29  1  0
  5 30  1  0
  6 31  1  0
  7 32  1  0
  8 33  1  0
 10 34  1  0
 17 35  1  0
 18 36  1  0
 19 37  1  0
M  END
$$$$
