
     RDKit          3D

 56 61  0  0  0  0  0  0  0  0999 V2000
    7.6600    2.3999   -2.7021 C   0  0  0  0  0  0  0  0  0  0  0  0
    8.3191    1.5948   -1.7314 O   0  0  0  0  0  0  0  0  0  0  0  0
    7.5250    0.9005   -0.8607 C   0  0  0  0  0  0  0  0  0  0  0  0
    8.2176    0.1362    0.0746 C   0  0  0  0  0  0  0  0  0  0  0  0
    7.5236   -0.6182    1.0179 C   0  0  0  0  0  0  0  0  0  0  0  0
    6.1219   -0.6130    1.0306 C   0  0  0  0  0  0  0  0  0  0  0  0
    5.4087   -1.3696    1.9741 C   0  0  0  0  0  0  0  0  0  0  0  0
    4.0105   -1.3166    1.9247 C   0  0  0  0  0  0  0  0  0  0  0  0
    2.9349   -1.8890    2.6457 C   0  0  0  0  0  0  0  0  0  0  0  0
    1.7649   -1.4246    2.0658 C   0  0  0  0  0  0  0  0  0  0  0  0
    0.3829   -1.6821    2.4419 C   0  0  0  0  0  0  0  0  0  0  0  0
    0.1230   -2.1988    3.5316 O   0  0  0  0  0  0  0  0  0  0  0  0
   -0.6519   -1.3482    1.5647 N   0  0  0  0  0  0  0  0  0  0  0  0
   -2.0326   -1.4760    2.0291 C   0  0  0  0  0  0  0  0  0  0  0  0
   -2.9881   -0.5085    1.3050 C   0  0  0  0  0  0  0  0  0  0  0  0
   -2.9400   -0.5515   -0.1720 N   0  0  0  0  0  0  0  0  0  0  0  0
   -4.1700   -1.0817   -0.7747 C   0  0  0  0  0  0  0  0  0  0  0  0
   -5.3590   -0.1544   -0.6167 C   0  0  0  0  0  0  0  0  0  0  0  0
   -6.5658   -0.6308   -0.0529 C   0  0  0  0  0  0  0  0  0  0  0  0
   -7.6765    0.2084    0.0860 C   0  0  0  0  0  0  0  0  0  0  0  0
   -7.5558    1.5099   -0.3492 C   0  0  0  0  0  0  0  0  0  0  0  0
   -6.3913    1.9823   -0.9056 C   0  0  0  0  0  0  0  0  0  0  0  0
   -5.2808    1.1795   -1.0554 C   0  0  0  0  0  0  0  0  0  0  0  0
   -6.4827    3.2895   -1.2687 O   0  0  0  0  0  0  0  0  0  0  0  0
   -7.8377    3.5858   -0.8745 C   0  0  0  0  0  0  0  0  0  0  0  0
   -8.5264    2.4603   -0.2903 O   0  0  0  0  0  0  0  0  0  0  0  0
   -1.7579   -1.2740   -0.6733 C   0  0  0  0  0  0  0  0  0  0  0  0
   -0.4844   -1.0012    0.1492 C   0  0  0  0  0  0  0  0  0  0  0  0
    2.0790   -0.5722    1.0425 O   0  0  0  0  0  0  0  0  0  0  0  0
    3.4343   -0.5156    0.9482 C   0  0  0  0  0  0  0  0  0  0  0  0
    4.0688    0.2228    0.0254 N   0  0  0  0  0  0  0  0  0  0  0  0
    5.4054    0.1608    0.0845 C   0  0  0  0  0  0  0  0  0  0  0  0
    6.1280    0.9022   -0.8419 C   0  0  0  0  0  0  0  0  0  0  0  0
    7.0446    1.7879   -3.3695 H   0  0  0  0  0  0  0  0  0  0  0  0
    8.4287    2.8859   -3.3105 H   0  0  0  0  0  0  0  0  0  0  0  0
    7.0665    3.1864   -2.2241 H   0  0  0  0  0  0  0  0  0  0  0  0
    9.3051    0.1290    0.0686 H   0  0  0  0  0  0  0  0  0  0  0  0
    8.0859   -1.2069    1.7394 H   0  0  0  0  0  0  0  0  0  0  0  0
    5.9142   -1.9768    2.7181 H   0  0  0  0  0  0  0  0  0  0  0  0
    2.9858   -2.5617    3.4913 H   0  0  0  0  0  0  0  0  0  0  0  0
   -2.3401   -2.5145    1.8555 H   0  0  0  0  0  0  0  0  0  0  0  0
   -2.0813   -1.2950    3.1088 H   0  0  0  0  0  0  0  0  0  0  0  0
   -2.7123    0.5139    1.5937 H   0  0  0  0  0  0  0  0  0  0  0  0
   -4.0012   -0.6652    1.6929 H   0  0  0  0  0  0  0  0  0  0  0  0
   -4.3973   -2.0748   -0.3652 H   0  0  0  0  0  0  0  0  0  0  0  0
   -4.0300   -1.2175   -1.8559 H   0  0  0  0  0  0  0  0  0  0  0  0
   -6.6407   -1.6621    0.2855 H   0  0  0  0  0  0  0  0  0  0  0  0
   -8.6018   -0.1500    0.5220 H   0  0  0  0  0  0  0  0  0  0  0  0
   -4.3690    1.5736   -1.4923 H   0  0  0  0  0  0  0  0  0  0  0  0
   -7.8195    4.4027   -0.1437 H   0  0  0  0  0  0  0  0  0  0  0  0
   -8.3956    3.9164   -1.7583 H   0  0  0  0  0  0  0  0  0  0  0  0
   -1.5741   -0.9839   -1.7144 H   0  0  0  0  0  0  0  0  0  0  0  0
   -1.9452   -2.3567   -0.6651 H   0  0  0  0  0  0  0  0  0  0  0  0
   -0.2241    0.0622    0.0975 H   0  0  0  0  0  0  0  0  0  0  0  0
    0.3367   -1.5880   -0.2749 H   0  0  0  0  0  0  0  0  0  0  0  0
    5.5582    1.4882   -1.5565 H   0  0  0  0  0  0  0  0  0  0  0  0
  1  2  1  0
  2  3  1  0
  3  4  2  0
  4  5  1  0
  5  6  2  0
  6  7  1  0
  7  8  2  0
  8  9  1  0
  9 10  2  0
 10 11  1  0
 11 12  2  0
 11 13  1  0
 13 14  1  0
 14 15  1  0
 15 16  1  0
 16 17  1  0
 17 18  1  0
 18 19  2  0
 19 20  1  0
 20 21  2  0
 21 22  1  0
 22 23  2  0
 22 24  1  0
 24 25  1  0
 25 26  1  0
 16 27  1  0
 27 28  1  0
 10 29  1  0
 29 30  1  0
 30 31  2  0
 31 32  1  0
 32 33  2  0
 33  3  1  0
 32  6  1  0
 30  8  1  0
 28 13  1  0
 23 18  1  0
 26 21  1  0
  1 34  1  0
  1 35  1  0
  1 36  1  0
  4 37  1  0
  5 38  1  0
  7 39  1  0
  9 40  1  0
 14 41  1  0
 14 42  1  0
 15 43  1  0
 15 44  1  0
 17 45  1  0
 17 46  1  0
 19 47  1  0
 20 48  1  0
 23 49  1  0
 25 50  1  0
 25 51  1  0
 27 52  1  0
 27 53  1  0
 28 54  1  0
 28 55  1  0
 33 56  1  0
M  END
$$$$
