
     RDKit          3D

 36 37  0  0  0  0  0  0  0  0999 V2000
    0.4790    0.0462   -1.2750 O   0  0  0  0  0  0  0  0  0  0  0  0
   -0.2233    0.0158   -0.2671 C   0  0  0  0  0  0  0  0  0  0  0  0
   -0.0624    0.9991    0.8960 C   0  0  0  0  0  0  0  0  0  0  0  0
    1.1981    1.6683    0.8784 O   0  0  0  0  0  0  0  0  0  0  0  0
    2.2375    0.8890    1.2636 C   0  0  0  0  0  0  0  0  0  0  0  0
    2.1556   -0.2425    1.7140 O   0  0  0  0  0  0  0  0  0  0  0  0
    3.5262    1.6087    1.0885 C   0  0  0  0  0  0  0  0  0  0  0  0
    4.6945    0.9900    1.5537 C   0  0  0  0  0  0  0  0  0  0  0  0
    5.9241    1.6297    1.4074 C   0  0  0  0  0  0  0  0  0  0  0  0
    7.3552    0.8678    1.9837 Cl  0  0  0  0  0  0  0  0  0  0  0  0
    6.0068    2.8803    0.8007 C   0  0  0  0  0  0  0  0  0  0  0  0
    4.8442    3.4903    0.3358 C   0  0  0  0  0  0  0  0  0  0  0  0
    4.9384    5.0353   -0.4167 Cl  0  0  0  0  0  0  0  0  0  0  0  0
    3.6052    2.8651    0.4735 C   0  0  0  0  0  0  0  0  0  0  0  0
   -1.2453   -0.8911   -0.0934 N   0  0  0  0  0  0  0  0  0  0  0  0
   -1.5166   -1.9236   -1.0786 C   0  0  0  0  0  0  0  0  0  0  0  0
   -2.7140   -2.8047   -0.7070 C   0  0  0  0  0  0  0  0  0  0  0  0
   -3.9649   -2.0631   -0.6660 N   0  0  0  0  0  0  0  0  0  0  0  0
   -4.8430   -1.9905   -1.7186 C   0  0  0  0  0  0  0  0  0  0  0  0
   -4.5662   -2.6825   -2.8584 O   0  0  0  0  0  0  0  0  0  0  0  0
   -5.9090   -1.2115   -1.5003 C   0  0  0  0  0  0  0  0  0  0  0  0
   -5.8533   -0.4971    0.0839 S   0  0  0  0  0  0  0  0  0  0  0  0
   -4.3006   -1.2787    0.4255 C   0  0  0  0  0  0  0  0  0  0  0  0
   -3.6527   -1.1004    1.4463 O   0  0  0  0  0  0  0  0  0  0  0  0
   -0.8390    1.7639    0.7892 H   0  0  0  0  0  0  0  0  0  0  0  0
   -0.2223    0.4973    1.8577 H   0  0  0  0  0  0  0  0  0  0  0  0
    4.6433    0.0110    2.0271 H   0  0  0  0  0  0  0  0  0  0  0  0
    6.9684    3.3739    0.6892 H   0  0  0  0  0  0  0  0  0  0  0  0
    2.7123    3.3571    0.0952 H   0  0  0  0  0  0  0  0  0  0  0  0
   -1.7430   -0.9196    0.7961 H   0  0  0  0  0  0  0  0  0  0  0  0
   -0.6151   -2.5408   -1.1631 H   0  0  0  0  0  0  0  0  0  0  0  0
   -1.6776   -1.4341   -2.0460 H   0  0  0  0  0  0  0  0  0  0  0  0
   -2.5490   -3.2356    0.2886 H   0  0  0  0  0  0  0  0  0  0  0  0
   -2.8010   -3.6411   -1.4090 H   0  0  0  0  0  0  0  0  0  0  0  0
   -5.2766   -2.5139   -3.5009 H   0  0  0  0  0  0  0  0  0  0  0  0
   -6.7138   -1.0179   -2.1939 H   0  0  0  0  0  0  0  0  0  0  0  0
  1  2  2  0
  2  3  1  0
  3  4  1  0
  4  5  1  0
  5  6  2  0
  5  7  1  0
  7  8  2  0
  8  9  1  0
  9 10  1  0
  9 11  2  0
 11 12  1  0
 12 13  1  0
 12 14  2  0
  2 15  1  0
 15 16  1  0
 16 17  1  0
 17 18  1  0
 18 19  1  0
 19 20  1  0
 19 21  2  0
 21 22  1  0
 22 23  1  0
 23 24  2  0
 14  7  1  0
 23 18  1  0
  3 25  1  0
  3 26  1  0
  8 27  1  0
 11 28  1  0
 14 29  1  0
 15 30  1  0
 16 31  1  0
 16 32  1  0
 17 33  1  0
 17 34  1  0
 20 35  1  0
 21 36  1  0
M  END
$$$$
