
     RDKit          3D

 36 37  0  0  0  0  0  0  0  0999 V2000
   -0.1154    0.4155    1.2533 O   0  0  0  0  0  0  0  0  0  0  0  0
    0.3395    0.2738    0.1210 C   0  0  0  0  0  0  0  0  0  0  0  0
   -0.4612   -0.3047   -1.0517 C   0  0  0  0  0  0  0  0  0  0  0  0
   -1.8637   -0.3916   -0.8107 O   0  0  0  0  0  0  0  0  0  0  0  0
   -2.4954    0.8045   -0.8054 C   0  0  0  0  0  0  0  0  0  0  0  0
   -2.0077    1.8854   -1.0941 O   0  0  0  0  0  0  0  0  0  0  0  0
   -3.9354    0.6175   -0.5444 C   0  0  0  0  0  0  0  0  0  0  0  0
   -4.8153    1.2872   -1.4107 C   0  0  0  0  0  0  0  0  0  0  0  0
   -6.1912    1.1604   -1.2384 C   0  0  0  0  0  0  0  0  0  0  0  0
   -7.2657    1.9703   -2.3090 Cl  0  0  0  0  0  0  0  0  0  0  0  0
   -6.7033    0.3801   -0.2049 C   0  0  0  0  0  0  0  0  0  0  0  0
   -5.8305   -0.2713    0.6703 C   0  0  0  0  0  0  0  0  0  0  0  0
   -4.4442   -0.1525    0.5092 C   0  0  0  0  0  0  0  0  0  0  0  0
   -3.4511   -0.9402    1.6807 Cl  0  0  0  0  0  0  0  0  0  0  0  0
    1.6450    0.6002   -0.2050 N   0  0  0  0  0  0  0  0  0  0  0  0
    2.5836    0.9717    0.8389 C   0  0  0  0  0  0  0  0  0  0  0  0
    3.1302   -0.2487    1.6010 C   0  0  0  0  0  0  0  0  0  0  0  0
    4.2224   -0.9158    0.8980 N   0  0  0  0  0  0  0  0  0  0  0  0
    5.5530   -0.8286    1.2398 C   0  0  0  0  0  0  0  0  0  0  0  0
    5.9599   -0.1916    2.3724 O   0  0  0  0  0  0  0  0  0  0  0  0
    6.3936   -1.4156    0.3838 C   0  0  0  0  0  0  0  0  0  0  0  0
    5.5456   -2.1526   -0.9351 S   0  0  0  0  0  0  0  0  0  0  0  0
    3.9908   -1.5895   -0.2993 C   0  0  0  0  0  0  0  0  0  0  0  0
    2.9300   -1.7518   -0.8823 O   0  0  0  0  0  0  0  0  0  0  0  0
   -0.1008   -1.3253   -1.2203 H   0  0  0  0  0  0  0  0  0  0  0  0
   -0.2649    0.2682   -1.9661 H   0  0  0  0  0  0  0  0  0  0  0  0
   -4.4212    1.9030   -2.2171 H   0  0  0  0  0  0  0  0  0  0  0  0
   -7.7777    0.2814   -0.0680 H   0  0  0  0  0  0  0  0  0  0  0  0
   -6.2392   -0.8649    1.4857 H   0  0  0  0  0  0  0  0  0  0  0  0
    2.0284    0.1311   -1.0221 H   0  0  0  0  0  0  0  0  0  0  0  0
    3.3931    1.5392    0.3682 H   0  0  0  0  0  0  0  0  0  0  0  0
    2.0650    1.6338    1.5413 H   0  0  0  0  0  0  0  0  0  0  0  0
    2.3384   -0.9911    1.7571 H   0  0  0  0  0  0  0  0  0  0  0  0
    3.4667    0.0750    2.5896 H   0  0  0  0  0  0  0  0  0  0  0  0
    5.3299   -0.4164    3.0759 H   0  0  0  0  0  0  0  0  0  0  0  0
    7.4690   -1.4463    0.4888 H   0  0  0  0  0  0  0  0  0  0  0  0
  1  2  2  0
  2  3  1  0
  3  4  1  0
  4  5  1  0
  5  6  2  0
  5  7  1  0
  7  8  2  0
  8  9  1  0
  9 10  1  0
  9 11  2  0
 11 12  1  0
 12 13  2  0
 13 14  1  0
  2 15  1  0
 15 16  1  0
 16 17  1  0
 17 18  1  0
 18 19  1  0
 19 20  1  0
 19 21  2  0
 21 22  1  0
 22 23  1  0
 23 24  2  0
 13  7  1  0
 23 18  1  0
  3 25  1  0
  3 26  1  0
  8 27  1  0
 11 28  1  0
 12 29  1  0
 15 30  1  0
 16 31  1  0
 16 32  1  0
 17 33  1  0
 17 34  1  0
 20 35  1  0
 21 36  1  0
M  END
$$$$
