
     RDKit          3D

 59 62  0  0  0  0  0  0  0  0999 V2000
    9.5434    0.0197    0.6679 C   0  0  0  0  0  0  0  0  0  0  0  0
    8.0666    0.0462    0.9276 C   0  0  0  0  0  0  0  0  0  0  0  0
    7.3341    1.2239    0.7497 C   0  0  0  0  0  0  0  0  0  0  0  0
    5.9495    1.2462    0.9603 C   0  0  0  0  0  0  0  0  0  0  0  0
    5.2750    0.0866    1.3561 C   0  0  0  0  0  0  0  0  0  0  0  0
    3.8629    0.0569    1.5791 N   0  0  0  0  0  0  0  0  0  0  0  0
    3.2304   -1.1478    1.5791 N   0  0  0  0  0  0  0  0  0  0  0  0
    1.9280   -0.8587    1.5979 C   0  0  0  0  0  0  0  0  0  0  0  0
    0.8291   -1.8142    1.5443 C   0  0  0  0  0  0  0  0  0  0  0  0
    0.9849   -3.0278    1.4301 O   0  0  0  0  0  0  0  0  0  0  0  0
   -0.4351   -1.1936    1.6455 N   0  0  0  0  0  0  0  0  0  0  0  0
   -1.6350   -2.0219    1.6139 C   0  0  0  0  0  0  0  0  0  0  0  0
   -2.1261   -2.3112    0.1957 C   0  0  0  0  0  0  0  0  0  0  0  0
   -2.6175   -1.0556   -0.5238 C   0  0  0  0  0  0  0  0  0  0  0  0
   -3.3012   -1.3773   -1.8383 C   0  0  0  0  0  0  0  0  0  0  0  0
   -3.4049   -2.5101   -2.2937 O   0  0  0  0  0  0  0  0  0  0  0  0
   -3.7872   -0.2549   -2.4723 N   0  0  0  0  0  0  0  0  0  0  0  0
   -4.6098   -0.3583   -3.6558 C   0  0  0  0  0  0  0  0  0  0  0  0
   -6.0317   -0.3586   -3.2373 C   0  0  0  0  0  0  0  0  0  0  0  0
   -6.9351   -1.3643   -2.9663 C   0  0  0  0  0  0  0  0  0  0  0  0
   -8.1443   -0.7277   -2.6004 C   0  0  0  0  0  0  0  0  0  0  0  0
   -7.9046    0.6274   -2.6666 C   0  0  0  0  0  0  0  0  0  0  0  0
   -8.7357    1.8198   -2.4119 C   0  0  0  0  0  0  0  0  0  0  0  0
   -6.6175    0.8596   -3.0490 O   0  0  0  0  0  0  0  0  0  0  0  0
   -0.6504    0.1868    1.7426 N   0  0  0  0  0  0  0  0  0  0  0  0
    0.3506    1.0220    1.7745 C   0  0  0  0  0  0  0  0  0  0  0  0
    0.0494    2.4907    1.8700 C   0  0  0  0  0  0  0  0  0  0  0  0
    1.6995    0.5157    1.7183 C   0  0  0  0  0  0  0  0  0  0  0  0
    2.9533    1.0973    1.8094 C   0  0  0  0  0  0  0  0  0  0  0  0
    3.3327    2.4935    2.1465 C   0  0  0  0  0  0  0  0  0  0  0  0
    6.0071   -1.1045    1.4926 C   0  0  0  0  0  0  0  0  0  0  0  0
    7.3892   -1.1226    1.2831 C   0  0  0  0  0  0  0  0  0  0  0  0
    9.9988    0.9854    0.9094 H   0  0  0  0  0  0  0  0  0  0  0  0
    9.7344   -0.2084   -0.3849 H   0  0  0  0  0  0  0  0  0  0  0  0
   10.0358   -0.7357    1.2891 H   0  0  0  0  0  0  0  0  0  0  0  0
    7.8369    2.1350    0.4318 H   0  0  0  0  0  0  0  0  0  0  0  0
    5.4347    2.1763    0.7545 H   0  0  0  0  0  0  0  0  0  0  0  0
   -1.4152   -2.9720    2.1148 H   0  0  0  0  0  0  0  0  0  0  0  0
   -2.4172   -1.5258    2.2007 H   0  0  0  0  0  0  0  0  0  0  0  0
   -2.9453   -3.0388    0.2594 H   0  0  0  0  0  0  0  0  0  0  0  0
   -1.3307   -2.7845   -0.3936 H   0  0  0  0  0  0  0  0  0  0  0  0
   -3.3351   -0.5196    0.1088 H   0  0  0  0  0  0  0  0  0  0  0  0
   -1.7764   -0.3867   -0.7380 H   0  0  0  0  0  0  0  0  0  0  0  0
   -3.8657    0.6028   -1.9431 H   0  0  0  0  0  0  0  0  0  0  0  0
   -4.3658   -1.2646   -4.2179 H   0  0  0  0  0  0  0  0  0  0  0  0
   -4.3928    0.5101   -4.2858 H   0  0  0  0  0  0  0  0  0  0  0  0
   -6.7346   -2.4256   -3.0217 H   0  0  0  0  0  0  0  0  0  0  0  0
   -9.0758   -1.1996   -2.3203 H   0  0  0  0  0  0  0  0  0  0  0  0
   -8.8078    2.4355   -3.3134 H   0  0  0  0  0  0  0  0  0  0  0  0
   -9.7490    1.5365   -2.1109 H   0  0  0  0  0  0  0  0  0  0  0  0
   -8.2999    2.4269   -1.6119 H   0  0  0  0  0  0  0  0  0  0  0  0
    0.6517    3.0501    1.1497 H   0  0  0  0  0  0  0  0  0  0  0  0
    0.2636    2.8411    2.8828 H   0  0  0  0  0  0  0  0  0  0  0  0
   -1.0074    2.6754    1.6552 H   0  0  0  0  0  0  0  0  0  0  0  0
    3.4073    3.1044    1.2422 H   0  0  0  0  0  0  0  0  0  0  0  0
    2.5876    2.9540    2.8014 H   0  0  0  0  0  0  0  0  0  0  0  0
    4.2747    2.5398    2.7009 H   0  0  0  0  0  0  0  0  0  0  0  0
    5.5147   -2.0352    1.7732 H   0  0  0  0  0  0  0  0  0  0  0  0
    7.9289   -2.0601    1.3995 H   0  0  0  0  0  0  0  0  0  0  0  0
  1  2  1  0
  2  3  2  0
  3  4  1  0
  4  5  2  0
  5  6  1  0
  6  7  1  0
  7  8  2  0
  8  9  1  0
  9 10  2  0
  9 11  1  0
 11 12  1  0
 12 13  1  0
 13 14  1  0
 14 15  1  0
 15 16  2  0
 15 17  1  0
 17 18  1  0
 18 19  1  0
 19 20  2  0
 20 21  1  0
 21 22  2  0
 22 23  1  0
 22 24  1  0
 11 25  1  0
 25 26  2  0
 26 27  1  0
 26 28  1  0
 28 29  2  0
 29 30  1  0
  5 31  1  0
 31 32  2  0
 32  2  1  0
 29  6  1  0
 28  8  1  0
 24 19  1  0
  1 33  1  0
  1 34  1  0
  1 35  1  0
  3 36  1  0
  4 37  1  0
 12 38  1  0
 12 39  1  0
 13 40  1  0
 13 41  1  0
 14 42  1  0
 14 43  1  0
 17 44  1  0
 18 45  1  0
 18 46  1  0
 20 47  1  0
 21 48  1  0
 23 49  1  0
 23 50  1  0
 23 51  1  0
 27 52  1  0
 27 53  1  0
 27 54  1  0
 30 55  1  0
 30 56  1  0
 30 57  1  0
 31 58  1  0
 32 59  1  0
M  END
$$$$
