
     RDKit          3D

 37 37  0  0  0  0  0  0  0  0999 V2000
   -0.6621   -3.1520    2.6020 C   0  0  0  0  0  0  0  0  0  0  0  0
   -0.6676   -1.9650    1.8080 O   0  0  0  0  0  0  0  0  0  0  0  0
   -1.8395   -1.7486    1.1372 C   0  0  0  0  0  0  0  0  0  0  0  0
   -2.8411   -2.4420    1.2666 O   0  0  0  0  0  0  0  0  0  0  0  0
   -1.7753   -0.4658    0.2825 C   0  0  0  0  0  0  0  0  0  0  0  0
   -2.6576    0.6244    0.9098 C   0  0  0  0  0  0  0  0  0  0  0  0
   -4.1665    0.4216    0.7507 C   0  0  0  0  0  0  0  0  0  0  0  0
   -4.7622    0.4125   -0.9732 S   0  0  0  0  0  0  0  0  0  0  0  0
   -4.4266    2.1307   -1.4302 C   0  0  0  0  0  0  0  0  0  0  0  0
   -0.3964    0.0463    0.1902 N   0  0  0  0  0  0  0  0  0  0  0  0
    0.4478   -0.4750   -0.7582 C   0  0  0  0  0  0  0  0  0  0  0  0
    0.1158   -1.2767   -1.6179 O   0  0  0  0  0  0  0  0  0  0  0  0
    1.7146    0.0197   -0.6085 N   0  0  0  0  0  0  0  0  0  0  0  0
    2.7310   -0.3537   -1.5643 C   0  0  0  0  0  0  0  0  0  0  0  0
    4.0235    0.2736   -1.1534 C   0  0  0  0  0  0  0  0  0  0  0  0
    4.5616    1.4758   -1.5724 C   0  0  0  0  0  0  0  0  0  0  0  0
    5.8190    1.7501   -0.9608 C   0  0  0  0  0  0  0  0  0  0  0  0
    6.2002    0.7492   -0.0962 C   0  0  0  0  0  0  0  0  0  0  0  0
    5.0480   -0.5118   -0.0249 S   0  0  0  0  0  0  0  0  0  0  0  0
    0.3311   -3.2563    3.0475 H   0  0  0  0  0  0  0  0  0  0  0  0
   -0.8567   -4.0323    1.9813 H   0  0  0  0  0  0  0  0  0  0  0  0
   -1.3975   -3.0742    3.4088 H   0  0  0  0  0  0  0  0  0  0  0  0
   -2.1014   -0.7265   -0.7290 H   0  0  0  0  0  0  0  0  0  0  0  0
   -2.4379    0.6866    1.9846 H   0  0  0  0  0  0  0  0  0  0  0  0
   -2.3818    1.6047    0.5010 H   0  0  0  0  0  0  0  0  0  0  0  0
   -4.4781   -0.5195    1.2122 H   0  0  0  0  0  0  0  0  0  0  0  0
   -4.6990    1.2151    1.2867 H   0  0  0  0  0  0  0  0  0  0  0  0
   -4.8672    2.3303   -2.4108 H   0  0  0  0  0  0  0  0  0  0  0  0
   -3.3509    2.3094   -1.4981 H   0  0  0  0  0  0  0  0  0  0  0  0
   -4.8730    2.8162   -0.7053 H   0  0  0  0  0  0  0  0  0  0  0  0
    0.0703    0.1577    1.0811 H   0  0  0  0  0  0  0  0  0  0  0  0
    1.7599    0.9587   -0.2422 H   0  0  0  0  0  0  0  0  0  0  0  0
    2.7981   -1.4465   -1.6130 H   0  0  0  0  0  0  0  0  0  0  0  0
    2.4228    0.0056   -2.5531 H   0  0  0  0  0  0  0  0  0  0  0  0
    4.0769    2.1287   -2.2888 H   0  0  0  0  0  0  0  0  0  0  0  0
    6.4152    2.6349   -1.1477 H   0  0  0  0  0  0  0  0  0  0  0  0
    7.1024    0.6940    0.4975 H   0  0  0  0  0  0  0  0  0  0  0  0
  1  2  1  0
  2  3  1  0
  3  4  2  0
  3  5  1  0
  5  6  1  0
  6  7  1  0
  7  8  1  0
  8  9  1  0
  5 10  1  0
 10 11  1  0
 11 12  2  0
 11 13  1  0
 13 14  1  0
 14 15  1  0
 15 16  2  0
 16 17  1  0
 17 18  2  0
 18 19  1  0
 19 15  1  0
  1 20  1  0
  1 21  1  0
  1 22  1  0
  5 23  1  0
  6 24  1  0
  6 25  1  0
  7 26  1  0
  7 27  1  0
  9 28  1  0
  9 29  1  0
  9 30  1  0
 10 31  1  0
 13 32  1  0
 14 33  1  0
 14 34  1  0
 16 35  1  0
 17 36  1  0
 18 37  1  0
M  END
$$$$
