
     RDKit          3D

 41 42  0  0  0  0  0  0  0  0999 V2000
    6.4042   -1.6711    0.0151 C   0  0  0  0  0  0  0  0  0  0  0  0
    5.2413   -0.8744    0.2481 O   0  0  0  0  0  0  0  0  0  0  0  0
    4.8846   -0.0896   -0.8113 C   0  0  0  0  0  0  0  0  0  0  0  0
    5.4940   -0.0380   -1.8712 O   0  0  0  0  0  0  0  0  0  0  0  0
    3.6366    0.6019   -0.5401 C   0  0  0  0  0  0  0  0  0  0  0  0
    2.7648    1.0934   -1.5009 C   0  0  0  0  0  0  0  0  0  0  0  0
    1.6154    1.5791   -0.8477 C   0  0  0  0  0  0  0  0  0  0  0  0
    1.7866    1.4014    0.5166 C   0  0  0  0  0  0  0  0  0  0  0  0
    0.6598    1.7133    1.8654 S   0  0  0  0  0  6  0  0  0  0  0  0
    0.7811    3.1331    2.0922 O   0  0  0  0  0  0  0  0  0  0  0  0
    0.9751    0.7215    2.8686 O   0  0  0  0  0  0  0  0  0  0  0  0
   -0.8845    1.4052    1.2754 N   0  0  0  0  0  0  0  0  0  0  0  0
   -1.1733   -0.0084    0.9870 C   0  0  0  0  0  0  0  0  0  0  0  0
   -2.5571   -0.1898    0.4056 C   0  0  0  0  0  0  0  0  0  0  0  0
   -3.6875    0.2653    1.0979 C   0  0  0  0  0  0  0  0  0  0  0  0
   -4.9675    0.0692    0.5701 C   0  0  0  0  0  0  0  0  0  0  0  0
   -5.1435   -0.5899   -0.6500 C   0  0  0  0  0  0  0  0  0  0  0  0
   -6.4448   -0.7197   -1.0552 O   0  0  0  0  0  0  0  0  0  0  0  0
   -6.6850   -1.5863   -2.1577 C   0  0  0  0  0  0  0  0  0  0  0  0
   -4.0231   -1.0408   -1.3477 C   0  0  0  0  0  0  0  0  0  0  0  0
   -2.7388   -0.8415   -0.8231 C   0  0  0  0  0  0  0  0  0  0  0  0
    3.0801    0.9313    0.6862 N   0  0  0  0  0  0  0  0  0  0  0  0
    3.7682    0.8401    1.9623 C   0  0  0  0  0  0  0  0  0  0  0  0
    7.2940   -1.0352   -0.0513 H   0  0  0  0  0  0  0  0  0  0  0  0
    6.2880   -2.2787   -0.8881 H   0  0  0  0  0  0  0  0  0  0  0  0
    6.5262   -2.3420    0.8706 H   0  0  0  0  0  0  0  0  0  0  0  0
    2.9361    1.0491   -2.5702 H   0  0  0  0  0  0  0  0  0  0  0  0
    0.7311    1.9859   -1.3194 H   0  0  0  0  0  0  0  0  0  0  0  0
   -1.1212    2.0250    0.4975 H   0  0  0  0  0  0  0  0  0  0  0  0
   -1.1016   -0.6095    1.9000 H   0  0  0  0  0  0  0  0  0  0  0  0
   -0.4383   -0.3864    0.2709 H   0  0  0  0  0  0  0  0  0  0  0  0
   -3.5766    0.7754    2.0532 H   0  0  0  0  0  0  0  0  0  0  0  0
   -5.8344    0.4265    1.1194 H   0  0  0  0  0  0  0  0  0  0  0  0
   -6.3123   -2.5977   -1.9385 H   0  0  0  0  0  0  0  0  0  0  0  0
   -7.7699   -1.6543   -2.3102 H   0  0  0  0  0  0  0  0  0  0  0  0
   -6.2391   -1.1975   -3.0837 H   0  0  0  0  0  0  0  0  0  0  0  0
   -4.1124   -1.5434   -2.3086 H   0  0  0  0  0  0  0  0  0  0  0  0
   -1.8826   -1.2055   -1.3882 H   0  0  0  0  0  0  0  0  0  0  0  0
    3.3816    1.6014    2.6480 H   0  0  0  0  0  0  0  0  0  0  0  0
    3.6100   -0.1609    2.3699 H   0  0  0  0  0  0  0  0  0  0  0  0
    4.8345    1.0425    1.8150 H   0  0  0  0  0  0  0  0  0  0  0  0
  1  2  1  0
  2  3  1  0
  3  4  2  0
  3  5  1  0
  5  6  2  0
  6  7  1  0
  7  8  2  0
  8  9  1  0
  9 10  2  0
  9 11  2  0
  9 12  1  0
 12 13  1  0
 13 14  1  0
 14 15  2  0
 15 16  1  0
 16 17  2  0
 17 18  1  0
 18 19  1  0
 17 20  1  0
 20 21  2  0
  8 22  1  0
 22 23  1  0
 22  5  1  0
 21 14  1  0
  1 24  1  0
  1 25  1  0
  1 26  1  0
  6 27  1  0
  7 28  1  0
 12 29  1  0
 13 30  1  0
 13 31  1  0
 15 32  1  0
 16 33  1  0
 19 34  1  0
 19 35  1  0
 19 36  1  0
 20 37  1  0
 21 38  1  0
 23 39  1  0
 23 40  1  0
 23 41  1  0
M  END
$$$$
