
     RDKit          3D

 56 58  0  0  0  0  0  0  0  0999 V2000
    2.4910    5.6362   -3.1614 C   0  0  0  0  0  0  0  0  0  0  0  0
    1.9208    4.5752   -2.4016 O   0  0  0  0  0  0  0  0  0  0  0  0
    2.4575    3.3299   -2.5813 C   0  0  0  0  0  0  0  0  0  0  0  0
    3.5659    3.0245   -3.3692 C   0  0  0  0  0  0  0  0  0  0  0  0
    4.0302    1.7090   -3.4443 C   0  0  0  0  0  0  0  0  0  0  0  0
    3.3660    0.6802   -2.7659 C   0  0  0  0  0  0  0  0  0  0  0  0
    3.9262   -0.5668   -2.6945 O   0  0  0  0  0  0  0  0  0  0  0  0
    4.2186   -1.1260   -3.9755 C   0  0  0  0  0  0  0  0  0  0  0  0
    2.2249    0.9705   -2.0021 C   0  0  0  0  0  0  0  0  0  0  0  0
    1.4740    0.0043   -1.2940 N   0  0  0  0  0  0  0  0  0  0  0  0
    1.2412   -1.3005   -1.7104 C   0  0  0  0  0  0  0  0  0  0  0  0
    1.5000   -1.7678   -2.8185 O   0  0  0  0  0  0  0  0  0  0  0  0
    0.5255   -2.1300   -0.6597 C   0  0  0  0  0  0  0  0  0  0  0  0
   -1.2474   -2.2029   -1.0554 S   0  0  0  0  0  0  0  0  0  0  0  0
   -1.8789   -2.2909    0.5732 C   0  0  0  0  0  0  0  0  0  0  0  0
   -1.2863   -3.0944    1.3921 N   0  0  0  0  0  0  0  0  0  0  0  0
   -1.7625   -3.1880    2.7015 C   0  0  0  0  0  0  0  0  0  0  0  0
   -1.1588   -4.0903    3.5778 C   0  0  0  0  0  0  0  0  0  0  0  0
   -1.6064   -4.2140    4.8956 C   0  0  0  0  0  0  0  0  0  0  0  0
   -2.6637   -3.4306    5.3490 C   0  0  0  0  0  0  0  0  0  0  0  0
   -3.2682   -2.5192    4.4849 C   0  0  0  0  0  0  0  0  0  0  0  0
   -2.8103   -2.4068    3.1664 C   0  0  0  0  0  0  0  0  0  0  0  0
   -3.4161   -1.4588    2.2208 C   0  0  0  0  0  0  0  0  0  0  0  0
   -4.2501   -0.6586    2.6345 O   0  0  0  0  0  0  0  0  0  0  0  0
   -2.9703   -1.5068    0.9011 N   0  0  0  0  0  0  0  0  0  0  0  0
   -3.6370   -0.5926   -0.0396 C   0  0  0  0  0  0  0  0  0  0  0  0
   -2.9284    0.7648   -0.2010 C   0  0  0  0  0  0  0  0  0  0  0  0
   -2.4782    1.3330    1.0600 N   0  0  0  0  0  0  0  0  0  0  0  0
   -1.1591    1.2899    1.4425 C   0  0  0  0  0  0  0  0  0  0  0  0
   -0.8921    1.8273    2.8228 C   0  0  0  0  0  0  0  0  0  0  0  0
   -0.2591    0.8536    0.7268 O   0  0  0  0  0  0  0  0  0  0  0  0
    1.8060    2.3037   -1.8885 C   0  0  0  0  0  0  0  0  0  0  0  0
    2.3706    5.4593   -4.2355 H   0  0  0  0  0  0  0  0  0  0  0  0
    1.9533    6.5581   -2.9114 H   0  0  0  0  0  0  0  0  0  0  0  0
    3.5454    5.7902   -2.8998 H   0  0  0  0  0  0  0  0  0  0  0  0
    4.1127    3.7869   -3.9130 H   0  0  0  0  0  0  0  0  0  0  0  0
    4.9385    1.5042   -4.0056 H   0  0  0  0  0  0  0  0  0  0  0  0
    4.2596   -2.2136   -3.8654 H   0  0  0  0  0  0  0  0  0  0  0  0
    5.2010   -0.7875   -4.3257 H   0  0  0  0  0  0  0  0  0  0  0  0
    3.4457   -0.8923   -4.7155 H   0  0  0  0  0  0  0  0  0  0  0  0
    0.8323    0.3628   -0.5792 H   0  0  0  0  0  0  0  0  0  0  0  0
    0.9462   -3.1385   -0.6629 H   0  0  0  0  0  0  0  0  0  0  0  0
    0.7004   -1.7002    0.3302 H   0  0  0  0  0  0  0  0  0  0  0  0
   -0.3321   -4.7000    3.2262 H   0  0  0  0  0  0  0  0  0  0  0  0
   -1.1280   -4.9244    5.5654 H   0  0  0  0  0  0  0  0  0  0  0  0
   -3.0154   -3.5312    6.3730 H   0  0  0  0  0  0  0  0  0  0  0  0
   -4.0935   -1.9076    4.8358 H   0  0  0  0  0  0  0  0  0  0  0  0
   -3.7546   -1.0745   -1.0165 H   0  0  0  0  0  0  0  0  0  0  0  0
   -4.6569   -0.4055    0.3186 H   0  0  0  0  0  0  0  0  0  0  0  0
   -2.0783    0.6728   -0.8834 H   0  0  0  0  0  0  0  0  0  0  0  0
   -3.6227    1.4860   -0.6456 H   0  0  0  0  0  0  0  0  0  0  0  0
   -3.1872    1.4679    1.7787 H   0  0  0  0  0  0  0  0  0  0  0  0
   -0.2634    2.7192    2.7425 H   0  0  0  0  0  0  0  0  0  0  0  0
   -0.3747    1.0602    3.4086 H   0  0  0  0  0  0  0  0  0  0  0  0
   -1.8154    2.0966    3.3425 H   0  0  0  0  0  0  0  0  0  0  0  0
    0.9412    2.5541   -1.2779 H   0  0  0  0  0  0  0  0  0  0  0  0
  1  2  1  0
  2  3  1  0
  3  4  2  0
  4  5  1  0
  5  6  2  0
  6  7  1  0
  7  8  1  0
  6  9  1  0
  9 10  1  0
 10 11  1  0
 11 12  2  0
 11 13  1  0
 13 14  1  0
 14 15  1  0
 15 16  2  0
 16 17  1  0
 17 18  2  0
 18 19  1  0
 19 20  2  0
 20 21  1  0
 21 22  2  0
 22 23  1  0
 23 24  2  0
 23 25  1  0
 25 26  1  0
 26 27  1  0
 27 28  1  0
 28 29  1  0
 29 30  1  0
 29 31  2  0
  9 32  2  0
 32  3  1  0
 25 15  1  0
 22 17  1  0
  1 33  1  0
  1 34  1  0
  1 35  1  0
  4 36  1  0
  5 37  1  0
  8 38  1  0
  8 39  1  0
  8 40  1  0
 10 41  1  0
 13 42  1  0
 13 43  1  0
 18 44  1  0
 19 45  1  0
 20 46  1  0
 21 47  1  0
 26 48  1  0
 26 49  1  0
 27 50  1  0
 27 51  1  0
 28 52  1  0
 30 53  1  0
 30 54  1  0
 30 55  1  0
 32 56  1  0
M  END
$$$$
