
     RDKit          3D

 48 49  0  0  0  0  0  0  0  0999 V2000
   -7.2330   -0.4130    2.8144 C   0  0  0  0  0  0  0  0  0  0  0  0
   -6.8016   -0.2574    1.3858 C   0  0  0  0  0  0  0  0  0  0  0  0
   -7.7502   -0.1358    0.3714 C   0  0  0  0  0  0  0  0  0  0  0  0
   -7.3428    0.0390   -0.9495 C   0  0  0  0  0  0  0  0  0  0  0  0
   -5.9790    0.1036   -1.2836 C   0  0  0  0  0  0  0  0  0  0  0  0
   -5.6118    0.2892   -2.7321 C   0  0  0  0  0  0  0  0  0  0  0  0
   -5.0101   -0.0012   -0.2613 C   0  0  0  0  0  0  0  0  0  0  0  0
   -3.6407    0.0778   -0.6117 N   0  0  0  0  0  0  0  0  0  0  0  0
   -2.5363   -0.0192    0.2191 C   0  0  0  0  0  0  0  0  0  0  0  0
   -2.5342   -0.1931    1.4325 O   0  0  0  0  0  0  0  0  0  0  0  0
   -1.2444    0.1192   -0.5641 C   0  0  0  0  0  0  0  0  0  0  0  0
   -0.0244   -0.0286    0.3364 C   0  0  0  0  0  0  0  0  0  0  0  0
    1.2628    0.0888   -0.4480 C   0  0  0  0  0  0  0  0  0  0  0  0
    1.2932    0.2805   -1.6602 O   0  0  0  0  0  0  0  0  0  0  0  0
    2.3808   -0.0442    0.3642 N   0  0  0  0  0  0  0  0  0  0  0  0
    3.6201    0.0375   -0.1888 N   0  0  0  0  0  0  0  0  0  0  0  0
    4.6159   -0.0906    0.6276 C   0  0  0  0  0  0  0  0  0  0  0  0
    6.0058   -0.0163    0.1325 C   0  0  0  0  0  0  0  0  0  0  0  0
    7.0424   -0.1641    1.0610 C   0  0  0  0  0  0  0  0  0  0  0  0
    8.3730   -0.0981    0.6188 C   0  0  0  0  0  0  0  0  0  0  0  0
    9.4657   -0.2536    1.5882 N   0  0  0  0  0  4  0  0  0  0  0  0
   10.6273   -0.1565    1.1702 O   0  0  0  0  0  0  0  0  0  0  0  0
    9.1562   -0.4731    2.7682 O   0  0  0  0  0  1  0  0  0  0  0  0
    8.6709    0.1111   -0.7345 C   0  0  0  0  0  0  0  0  0  0  0  0
    7.6285    0.2550   -1.6520 C   0  0  0  0  0  0  0  0  0  0  0  0
    6.3038    0.1904   -1.2216 C   0  0  0  0  0  0  0  0  0  0  0  0
    5.3493    0.3390   -2.1890 O   0  0  0  0  0  0  0  0  0  0  0  0
   -5.4385   -0.1756    1.0615 C   0  0  0  0  0  0  0  0  0  0  0  0
   -8.1665   -0.9817    2.8787 H   0  0  0  0  0  0  0  0  0  0  0  0
   -7.3851    0.5714    3.2683 H   0  0  0  0  0  0  0  0  0  0  0  0
   -6.4809   -0.9577    3.3951 H   0  0  0  0  0  0  0  0  0  0  0  0
   -8.8121   -0.1769    0.6026 H   0  0  0  0  0  0  0  0  0  0  0  0
   -8.1039    0.1237   -1.7228 H   0  0  0  0  0  0  0  0  0  0  0  0
   -4.9884   -0.5425   -3.0760 H   0  0  0  0  0  0  0  0  0  0  0  0
   -6.4990    0.3154   -3.3748 H   0  0  0  0  0  0  0  0  0  0  0  0
   -5.0763    1.2344   -2.8709 H   0  0  0  0  0  0  0  0  0  0  0  0
   -3.4414    0.2151   -1.5936 H   0  0  0  0  0  0  0  0  0  0  0  0
   -1.2286   -0.6474   -1.3485 H   0  0  0  0  0  0  0  0  0  0  0  0
   -1.2372    1.1021   -1.0503 H   0  0  0  0  0  0  0  0  0  0  0  0
   -0.0305    0.7467    1.1115 H   0  0  0  0  0  0  0  0  0  0  0  0
   -0.0383   -1.0062    0.8331 H   0  0  0  0  0  0  0  0  0  0  0  0
    2.2767   -0.1966    1.3624 H   0  0  0  0  0  0  0  0  0  0  0  0
    4.4689   -0.2555    1.7100 H   0  0  0  0  0  0  0  0  0  0  0  0
    6.8163   -0.3284    2.1124 H   0  0  0  0  0  0  0  0  0  0  0  0
    9.6984    0.1641   -1.0894 H   0  0  0  0  0  0  0  0  0  0  0  0
    7.8451    0.4191   -2.7057 H   0  0  0  0  0  0  0  0  0  0  0  0
    4.4581    0.2754   -1.7726 H   0  0  0  0  0  0  0  0  0  0  0  0
   -4.7238   -0.2523    1.8749 H   0  0  0  0  0  0  0  0  0  0  0  0
  1  2  1  0
  2  3  2  0
  3  4  1  0
  4  5  2  0
  5  6  1  0
  5  7  1  0
  7  8  1  0
  8  9  1  0
  9 10  2  0
  9 11  1  0
 11 12  1  0
 12 13  1  0
 13 14  2  0
 13 15  1  0
 15 16  1  0
 16 17  2  3
 17 18  1  0
 18 19  2  0
 19 20  1  0
 20 21  1  0
 21 22  2  0
 21 23  1  0
 20 24  2  0
 24 25  1  0
 25 26  2  0
 26 27  1  0
  7 28  2  0
 28  2  1  0
 26 18  1  0
  1 29  1  0
  1 30  1  0
  1 31  1  0
  3 32  1  0
  4 33  1  0
  6 34  1  0
  6 35  1  0
  6 36  1  0
  8 37  1  0
 11 38  1  0
 11 39  1  0
 12 40  1  0
 12 41  1  0
 15 42  1  0
 17 43  1  0
 19 44  1  0
 24 45  1  0
 25 46  1  0
 27 47  1  0
 28 48  1  0
M  CHG  2  21   1  23  -1
M  END
$$$$
