
     RDKit          3D

 43 46  0  0  0  0  0  0  0  0999 V2000
    6.4625    1.5539   -1.4545 C   0  0  0  0  0  0  0  0  0  0  0  0
    5.0454    1.2645   -1.0520 C   0  0  0  0  0  0  0  0  0  0  0  0
    4.7333    0.1023   -0.3404 C   0  0  0  0  0  0  0  0  0  0  0  0
    3.4189   -0.1560    0.0623 C   0  0  0  0  0  0  0  0  0  0  0  0
    2.4021    0.7516   -0.2353 C   0  0  0  0  0  0  0  0  0  0  0  0
    0.9214    0.4747    0.2106 C   0  0  0  0  0  0  0  0  0  0  0  0
   -0.1632    1.3271    0.0408 C   0  0  0  0  0  0  0  0  0  0  0  0
   -1.3011    0.7317    0.5881 N   0  0  0  0  0  4  0  0  0  0  0  0
   -2.6446    1.3035    0.6430 C   0  0  0  0  0  0  0  0  0  0  0  0
   -3.5969    0.4496   -0.1540 C   0  0  0  0  0  0  0  0  0  0  0  0
   -4.8248    0.0525    0.3993 C   0  0  0  0  0  0  0  0  0  0  0  0
   -5.7163   -0.7325   -0.3365 C   0  0  0  0  0  0  0  0  0  0  0  0
   -5.3966   -1.1247   -1.6357 C   0  0  0  0  0  0  0  0  0  0  0  0
   -4.1891   -0.7234   -2.1985 C   0  0  0  0  0  0  0  0  0  0  0  0
   -3.7858   -1.2027   -3.7994 Cl  0  0  0  0  0  0  0  0  0  0  0  0
   -3.2957    0.0638   -1.4708 C   0  0  0  0  0  0  0  0  0  0  0  0
   -0.9317   -0.4469    1.0801 C   0  0  0  0  0  0  0  0  0  0  0  0
    0.3669   -0.6193    0.8508 N   0  0  0  0  0  0  0  0  0  0  0  0
    0.8412   -1.9048    1.3430 C   0  0  0  0  0  0  0  0  0  0  0  0
   -0.4662   -2.6726    1.6791 C   0  0  0  0  0  0  0  0  0  0  0  0
   -1.5551   -1.5871    1.7913 C   0  0  0  0  0  0  0  0  0  0  0  0
    2.7127    1.9262   -0.9302 C   0  0  0  0  0  0  0  0  0  0  0  0
    4.0276    2.1806   -1.3317 C   0  0  0  0  0  0  0  0  0  0  0  0
    6.4935    2.1477   -2.3740 H   0  0  0  0  0  0  0  0  0  0  0  0
    6.9718    2.1059   -0.6587 H   0  0  0  0  0  0  0  0  0  0  0  0
    7.0102    0.6258   -1.6489 H   0  0  0  0  0  0  0  0  0  0  0  0
    5.5183   -0.6114   -0.0939 H   0  0  0  0  0  0  0  0  0  0  0  0
    3.2359   -1.0672    0.6162 H   0  0  0  0  0  0  0  0  0  0  0  0
   -0.2704    2.3036   -0.4007 H   0  0  0  0  0  0  0  0  0  0  0  0
   -2.6342    2.3224    0.2413 H   0  0  0  0  0  0  0  0  0  0  0  0
   -2.9365    1.3543    1.6980 H   0  0  0  0  0  0  0  0  0  0  0  0
   -5.1084    0.3514    1.4078 H   0  0  0  0  0  0  0  0  0  0  0  0
   -6.6672   -1.0348    0.0992 H   0  0  0  0  0  0  0  0  0  0  0  0
   -6.0957   -1.7337   -2.2045 H   0  0  0  0  0  0  0  0  0  0  0  0
   -2.3634    0.3731   -1.9378 H   0  0  0  0  0  0  0  0  0  0  0  0
    1.4171   -2.4294    0.5773 H   0  0  0  0  0  0  0  0  0  0  0  0
    1.4432   -1.7384    2.2410 H   0  0  0  0  0  0  0  0  0  0  0  0
   -0.3789   -3.2829    2.5820 H   0  0  0  0  0  0  0  0  0  0  0  0
   -0.7107   -3.3406    0.8447 H   0  0  0  0  0  0  0  0  0  0  0  0
   -1.7196   -1.2610    2.8203 H   0  0  0  0  0  0  0  0  0  0  0  0
   -2.4849   -1.8640    1.2955 H   0  0  0  0  0  0  0  0  0  0  0  0
    1.9594    2.6666   -1.1813 H   0  0  0  0  0  0  0  0  0  0  0  0
    4.2554    3.1005   -1.8685 H   0  0  0  0  0  0  0  0  0  0  0  0
  1  2  1  0
  2  3  2  0
  3  4  1  0
  4  5  2  0
  5  6  1  0
  6  7  2  0
  7  8  1  0
  8  9  1  0
  9 10  1  0
 10 11  2  0
 11 12  1  0
 12 13  2  0
 13 14  1  0
 14 15  1  0
 14 16  2  0
  8 17  2  0
 17 18  1  0
 18 19  1  0
 19 20  1  0
 20 21  1  0
  5 22  1  0
 22 23  2  0
 23  2  1  0
 18  6  1  0
 16 10  1  0
 21 17  1  0
  1 24  1  0
  1 25  1  0
  1 26  1  0
  3 27  1  0
  4 28  1  0
  7 29  1  0
  9 30  1  0
  9 31  1  0
 11 32  1  0
 12 33  1  0
 13 34  1  0
 16 35  1  0
 19 36  1  0
 19 37  1  0
 20 38  1  0
 20 39  1  0
 21 40  1  0
 21 41  1  0
 22 42  1  0
 23 43  1  0
M  CHG  1   8   1
M  END
$$$$
