
     RDKit          3D

 71 72  0  0  0  0  0  0  0  0999 V2000
   -3.5059   -5.5185    0.1218 C   0  0  0  0  0  0  0  0  0  0  0  0
   -3.0470   -4.4806    0.9799 O   0  0  0  0  0  0  0  0  0  0  0  0
   -2.9557   -3.2199    0.4492 C   0  0  0  0  0  0  0  0  0  0  0  0
   -3.5756   -2.8414   -0.7449 C   0  0  0  0  0  0  0  0  0  0  0  0
   -3.4080   -1.5544   -1.2480 C   0  0  0  0  0  0  0  0  0  0  0  0
   -2.6090   -0.6378   -0.5697 C   0  0  0  0  0  0  0  0  0  0  0  0
   -1.9714   -0.9752    0.6383 C   0  0  0  0  0  0  0  0  0  0  0  0
   -1.0803    0.0440    1.3706 C   0  0  0  0  0  0  0  0  0  0  0  0
   -1.6274    1.5123    1.3585 C   0  0  0  0  0  0  0  0  0  0  0  0
   -0.9179    2.4942    1.1451 O   0  0  0  0  0  0  0  0  0  0  0  0
   -2.9671    1.6244    1.7158 N   0  0  0  0  0  0  0  0  0  0  0  0
   -3.7310    2.8811    1.7112 C   0  0  0  0  0  0  0  0  0  0  0  0
   -5.1574    2.5669    2.2009 C   0  0  0  0  0  0  0  0  0  0  0  0
   -3.8179    3.4555    0.2892 C   0  0  0  0  0  0  0  0  0  0  0  0
   -3.1180    3.9170    2.6674 C   0  0  0  0  0  0  0  0  0  0  0  0
    0.3656   -0.0448    1.0154 N   0  0  0  0  0  0  0  0  0  0  0  0
    0.7301    0.2816   -0.2965 C   0  0  0  0  0  0  0  0  0  0  0  0
   -0.0859    0.5857   -1.1674 O   0  0  0  0  0  0  0  0  0  0  0  0
    2.2090    0.2378   -0.6441 C   0  0  0  0  0  0  0  0  0  0  0  0
    2.4419    0.4781   -2.1331 C   0  0  0  0  0  0  0  0  0  0  0  0
    3.9105    0.3954   -2.4942 C   0  0  0  0  0  0  0  0  0  0  0  0
    4.7881    0.2316   -1.6530 O   0  0  0  0  0  0  0  0  0  0  0  0
    4.1096    0.5289   -3.8496 N   0  0  0  0  0  0  0  0  0  0  0  0
    5.3330    0.5223   -4.4809 C   0  0  0  0  0  0  0  0  0  0  0  0
    6.6281    0.4161   -3.9296 C   0  0  0  0  0  0  0  0  0  0  0  0
    7.4704    0.4888   -5.0104 C   0  0  0  0  0  0  0  0  0  0  0  0
    8.9338    0.4556   -5.1774 C   0  0  0  0  0  0  0  0  0  0  0  0
    6.7299    0.6119   -6.1440 O   0  0  0  0  0  0  0  0  0  0  0  0
    5.3880    0.6435   -5.8122 N   0  0  0  0  0  0  0  0  0  0  0  0
    1.3594   -0.0904    2.1190 C   0  0  0  0  0  0  0  0  0  0  0  0
    1.1647   -1.2649    3.0790 C   0  0  0  0  0  0  0  0  0  0  0  0
    1.4308    1.2343    2.8810 C   0  0  0  0  0  0  0  0  0  0  0  0
   -2.1898   -2.2695    1.1617 C   0  0  0  0  0  0  0  0  0  0  0  0
   -1.5732   -2.5498    2.3572 O   0  0  0  0  0  0  0  0  0  0  0  0
   -2.4014   -3.1835    3.3289 C   0  0  0  0  0  0  0  0  0  0  0  0
   -4.5778   -5.4153   -0.0758 H   0  0  0  0  0  0  0  0  0  0  0  0
   -3.3526   -6.4702    0.6399 H   0  0  0  0  0  0  0  0  0  0  0  0
   -2.9326   -5.5530   -0.8110 H   0  0  0  0  0  0  0  0  0  0  0  0
   -4.1943   -3.5281   -1.3120 H   0  0  0  0  0  0  0  0  0  0  0  0
   -3.8822   -1.2681   -2.1837 H   0  0  0  0  0  0  0  0  0  0  0  0
   -2.4748    0.3503   -1.0103 H   0  0  0  0  0  0  0  0  0  0  0  0
   -1.1565   -0.2006    2.4363 H   0  0  0  0  0  0  0  0  0  0  0  0
   -3.5071    0.7661    1.6959 H   0  0  0  0  0  0  0  0  0  0  0  0
   -5.1417    2.1428    3.2116 H   0  0  0  0  0  0  0  0  0  0  0  0
   -5.6478    1.8336    1.5496 H   0  0  0  0  0  0  0  0  0  0  0  0
   -5.7819    3.4672    2.2232 H   0  0  0  0  0  0  0  0  0  0  0  0
   -4.2451    2.7223   -0.4050 H   0  0  0  0  0  0  0  0  0  0  0  0
   -2.8325    3.7355   -0.0977 H   0  0  0  0  0  0  0  0  0  0  0  0
   -4.4462    4.3530    0.2615 H   0  0  0  0  0  0  0  0  0  0  0  0
   -3.0005    3.5030    3.6754 H   0  0  0  0  0  0  0  0  0  0  0  0
   -3.7527    4.8072    2.7419 H   0  0  0  0  0  0  0  0  0  0  0  0
   -2.1309    4.2541    2.3366 H   0  0  0  0  0  0  0  0  0  0  0  0
    2.7324    1.0089   -0.0681 H   0  0  0  0  0  0  0  0  0  0  0  0
    2.6056   -0.7478   -0.3765 H   0  0  0  0  0  0  0  0  0  0  0  0
    1.8946   -0.2667   -2.7242 H   0  0  0  0  0  0  0  0  0  0  0  0
    2.0751    1.4714   -2.4175 H   0  0  0  0  0  0  0  0  0  0  0  0
    3.3252    0.6502   -4.4741 H   0  0  0  0  0  0  0  0  0  0  0  0
    6.9124    0.3201   -2.8920 H   0  0  0  0  0  0  0  0  0  0  0  0
    9.2644   -0.5525   -5.4461 H   0  0  0  0  0  0  0  0  0  0  0  0
    9.2521    1.1464   -5.9636 H   0  0  0  0  0  0  0  0  0  0  0  0
    9.4372    0.7458   -4.2493 H   0  0  0  0  0  0  0  0  0  0  0  0
    2.3516   -0.2445    1.6901 H   0  0  0  0  0  0  0  0  0  0  0  0
    1.0839   -2.2074    2.5283 H   0  0  0  0  0  0  0  0  0  0  0  0
    2.0228   -1.3480    3.7552 H   0  0  0  0  0  0  0  0  0  0  0  0
    0.2766   -1.1495    3.7063 H   0  0  0  0  0  0  0  0  0  0  0  0
    2.2376    1.2105    3.6212 H   0  0  0  0  0  0  0  0  0  0  0  0
    0.4978    1.4448    3.4134 H   0  0  0  0  0  0  0  0  0  0  0  0
    1.6275    2.0674    2.1984 H   0  0  0  0  0  0  0  0  0  0  0  0
   -2.0731   -2.8389    4.3150 H   0  0  0  0  0  0  0  0  0  0  0  0
   -3.4598   -2.9196    3.2227 H   0  0  0  0  0  0  0  0  0  0  0  0
   -2.2600   -4.2671    3.2972 H   0  0  0  0  0  0  0  0  0  0  0  0
  1  2  1  0
  2  3  1  0
  3  4  2  0
  4  5  1  0
  5  6  2  0
  6  7  1  0
  7  8  1  0
  8  9  1  0
  9 10  2  0
  9 11  1  0
 11 12  1  0
 12 13  1  0
 12 14  1  0
 12 15  1  0
  8 16  1  0
 16 17  1  0
 17 18  2  0
 17 19  1  0
 19 20  1  0
 20 21  1  0
 21 22  2  0
 21 23  1  0
 23 24  1  0
 24 25  1  0
 25 26  2  0
 26 27  1  0
 26 28  1  0
 28 29  1  0
 16 30  1  0
 30 31  1  0
 30 32  1  0
  7 33  2  0
 33 34  1  0
 34 35  1  0
 33  3  1  0
 29 24  2  0
  1 36  1  0
  1 37  1  0
  1 38  1  0
  4 39  1  0
  5 40  1  0
  6 41  1  0
  8 42  1  0
 11 43  1  0
 13 44  1  0
 13 45  1  0
 13 46  1  0
 14 47  1  0
 14 48  1  0
 14 49  1  0
 15 50  1  0
 15 51  1  0
 15 52  1  0
 19 53  1  0
 19 54  1  0
 20 55  1  0
 20 56  1  0
 23 57  1  0
 25 58  1  0
 27 59  1  0
 27 60  1  0
 27 61  1  0
 30 62  1  0
 31 63  1  0
 31 64  1  0
 31 65  1  0
 32 66  1  0
 32 67  1  0
 32 68  1  0
 35 69  1  0
 35 70  1  0
 35 71  1  0
M  END
$$$$
