
     RDKit          3D

 43 46  0  0  0  0  0  0  0  0999 V2000
   -1.6990   -1.6422    0.7305 O   0  0  0  0  0  0  0  0  0  0  0  0
   -1.9015   -0.4900    0.3689 C   0  0  0  0  0  0  0  0  0  0  0  0
   -0.9542    0.4408   -0.0187 N   0  0  0  0  0  0  0  0  0  0  0  0
    0.4479    0.2905   -0.0031 C   0  0  0  0  0  0  0  0  0  0  0  0
    1.2106    1.3378   -0.5289 C   0  0  0  0  0  0  0  0  0  0  0  0
    2.6087    1.2659   -0.5438 C   0  0  0  0  0  0  0  0  0  0  0  0
    3.2728    0.1471   -0.0302 C   0  0  0  0  0  0  0  0  0  0  0  0
    4.6796    0.1562   -0.0843 N   0  0  0  0  0  0  0  0  0  0  0  0
    5.5663   -0.8140    0.3544 C   0  0  0  0  0  0  0  0  0  0  0  0
    5.2348   -1.8716    0.8816 O   0  0  0  0  0  0  0  0  0  0  0  0
    6.9788   -0.4874    0.1434 C   0  0  0  0  0  0  0  0  0  0  0  0
    8.0651   -1.2745    0.4853 C   0  0  0  0  0  0  0  0  0  0  0  0
    9.3115   -0.6736    0.1472 C   0  0  0  0  0  0  0  0  0  0  0  0
    9.1429    0.5573   -0.4442 C   0  0  0  0  0  0  0  0  0  0  0  0
    7.4928    0.9787   -0.5875 S   0  0  0  0  0  0  0  0  0  0  0  0
    2.5119   -0.8944    0.4972 C   0  0  0  0  0  0  0  0  0  0  0  0
    1.1102   -0.8226    0.5113 C   0  0  0  0  0  0  0  0  0  0  0  0
   -3.3115   -0.0165    0.2819 C   0  0  0  0  0  0  0  0  0  0  0  0
   -3.6674    1.2937    0.6178 C   0  0  0  0  0  0  0  0  0  0  0  0
   -5.0013    1.6987    0.5215 C   0  0  0  0  0  0  0  0  0  0  0  0
   -5.9959    0.8020    0.0984 C   0  0  0  0  0  0  0  0  0  0  0  0
   -7.3396    1.1961   -0.0042 C   0  0  0  0  0  0  0  0  0  0  0  0
   -8.3184    0.2916   -0.4192 C   0  0  0  0  0  0  0  0  0  0  0  0
   -7.9674   -1.0177   -0.7349 C   0  0  0  0  0  0  0  0  0  0  0  0
   -6.6365   -1.4262   -0.6372 C   0  0  0  0  0  0  0  0  0  0  0  0
   -5.6395   -0.5286   -0.2235 C   0  0  0  0  0  0  0  0  0  0  0  0
   -4.2971   -0.9256   -0.1216 C   0  0  0  0  0  0  0  0  0  0  0  0
   -1.2983    1.3008   -0.4243 H   0  0  0  0  0  0  0  0  0  0  0  0
    0.7330    2.2240   -0.9379 H   0  0  0  0  0  0  0  0  0  0  0  0
    3.1660    2.0994   -0.9636 H   0  0  0  0  0  0  0  0  0  0  0  0
    5.1102    0.9743   -0.4964 H   0  0  0  0  0  0  0  0  0  0  0  0
    7.9592   -2.2443    0.9600 H   0  0  0  0  0  0  0  0  0  0  0  0
   10.2804   -1.1229    0.3293 H   0  0  0  0  0  0  0  0  0  0  0  0
    9.9111    1.2307   -0.7999 H   0  0  0  0  0  0  0  0  0  0  0  0
    2.9692   -1.7878    0.9113 H   0  0  0  0  0  0  0  0  0  0  0  0
    0.5692   -1.6612    0.9397 H   0  0  0  0  0  0  0  0  0  0  0  0
   -2.9284    2.0004    0.9851 H   0  0  0  0  0  0  0  0  0  0  0  0
   -5.2636    2.7198    0.7912 H   0  0  0  0  0  0  0  0  0  0  0  0
   -7.6362    2.2134    0.2411 H   0  0  0  0  0  0  0  0  0  0  0  0
   -9.3553    0.6093   -0.4933 H   0  0  0  0  0  0  0  0  0  0  0  0
   -8.7293   -1.7236   -1.0556 H   0  0  0  0  0  0  0  0  0  0  0  0
   -6.3825   -2.4547   -0.8857 H   0  0  0  0  0  0  0  0  0  0  0  0
   -4.0095   -1.9490   -0.3592 H   0  0  0  0  0  0  0  0  0  0  0  0
  1  2  2  0
  2  3  1  0
  3  4  1  0
  4  5  2  0
  5  6  1  0
  6  7  2  0
  7  8  1  0
  8  9  1  0
  9 10  2  0
  9 11  1  0
 11 12  2  0
 12 13  1  0
 13 14  2  0
 14 15  1  0
  7 16  1  0
 16 17  2  0
  2 18  1  0
 18 19  2  0
 19 20  1  0
 20 21  2  0
 21 22  1  0
 22 23  2  0
 23 24  1  0
 24 25  2  0
 25 26  1  0
 26 27  2  0
 17  4  1  0
 27 18  1  0
 15 11  1  0
 26 21  1  0
  3 28  1  0
  5 29  1  0
  6 30  1  0
  8 31  1  0
 12 32  1  0
 13 33  1  0
 14 34  1  0
 16 35  1  0
 17 36  1  0
 19 37  1  0
 20 38  1  0
 22 39  1  0
 23 40  1  0
 24 41  1  0
 25 42  1  0
 27 43  1  0
M  END
$$$$
