
     RDKit          3D

 38 41  0  0  0  0  0  0  0  0999 V2000
    2.4199   -2.2675   -1.3837 O   0  0  0  0  0  0  0  0  0  0  0  0
    1.8361   -1.2120   -1.1319 C   0  0  0  0  0  0  0  0  0  0  0  0
    0.5794   -0.8136   -1.8910 C   0  0  0  0  0  0  0  0  0  0  0  0
   -0.6027   -0.4138   -1.0168 C   0  0  0  0  0  0  0  0  0  0  0  0
   -1.1305   -1.3479   -0.0716 C   0  0  0  0  0  0  0  0  0  0  0  0
   -0.7017   -2.6944    0.0712 C   0  0  0  0  0  0  0  0  0  0  0  0
   -1.2507   -3.5433    1.0328 C   0  0  0  0  0  0  0  0  0  0  0  0
   -2.2469   -3.0709    1.8699 C   0  0  0  0  0  0  0  0  0  0  0  0
   -2.6913   -1.7569    1.7291 C   0  0  0  0  0  0  0  0  0  0  0  0
   -2.1610   -0.8967    0.7765 C   0  0  0  0  0  0  0  0  0  0  0  0
   -2.6717    0.3368    0.7134 N   0  0  0  0  0  0  0  0  0  0  0  0
   -2.2241    1.1933   -0.2096 C   0  0  0  0  0  0  0  0  0  0  0  0
   -2.8230    2.4453   -0.2474 C   0  0  0  0  0  0  0  0  0  0  0  0
   -2.4534    3.4167   -1.1758 C   0  0  0  0  0  0  0  0  0  0  0  0
   -1.4618    3.1301   -2.0974 C   0  0  0  0  0  0  0  0  0  0  0  0
   -0.8429    1.8790   -2.0748 C   0  0  0  0  0  0  0  0  0  0  0  0
   -1.1962    0.8822   -1.1243 C   0  0  0  0  0  0  0  0  0  0  0  0
    2.3915   -0.3230   -0.0751 C   0  0  0  0  0  0  0  0  0  0  0  0
    3.0559   -0.9170    1.0056 C   0  0  0  0  0  0  0  0  0  0  0  0
    3.5884   -0.1249    2.0236 C   0  0  0  0  0  0  0  0  0  0  0  0
    3.4671    1.2623    1.9610 C   0  0  0  0  0  0  0  0  0  0  0  0
    2.8220    1.8589    0.8780 C   0  0  0  0  0  0  0  0  0  0  0  0
    2.2891    1.0692   -0.1437 C   0  0  0  0  0  0  0  0  0  0  0  0
    0.8794   -0.0496   -2.6100 H   0  0  0  0  0  0  0  0  0  0  0  0
    0.2629   -1.6686   -2.5031 H   0  0  0  0  0  0  0  0  0  0  0  0
    0.0634   -3.1156   -0.5770 H   0  0  0  0  0  0  0  0  0  0  0  0
   -0.8995   -4.5684    1.1197 H   0  0  0  0  0  0  0  0  0  0  0  0
   -2.6863   -3.7172    2.6245 H   0  0  0  0  0  0  0  0  0  0  0  0
   -3.4819   -1.3916    2.3810 H   0  0  0  0  0  0  0  0  0  0  0  0
   -3.6104    2.6693    0.4696 H   0  0  0  0  0  0  0  0  0  0  0  0
   -2.9479    4.3841   -1.1780 H   0  0  0  0  0  0  0  0  0  0  0  0
   -1.1710    3.8719   -2.8370 H   0  0  0  0  0  0  0  0  0  0  0  0
   -0.0847    1.7003   -2.8306 H   0  0  0  0  0  0  0  0  0  0  0  0
    3.1551   -1.9994    1.0603 H   0  0  0  0  0  0  0  0  0  0  0  0
    4.0968   -0.5905    2.8642 H   0  0  0  0  0  0  0  0  0  0  0  0
    3.8802    1.8796    2.7551 H   0  0  0  0  0  0  0  0  0  0  0  0
    2.7366    2.9419    0.8285 H   0  0  0  0  0  0  0  0  0  0  0  0
    1.8157    1.5621   -0.9851 H   0  0  0  0  0  0  0  0  0  0  0  0
  1  2  2  0
  2  3  1  0
  3  4  1  0
  4  5  1  0
  5  6  2  0
  6  7  1  0
  7  8  2  0
  8  9  1  0
  9 10  2  0
 10 11  1  0
 11 12  2  0
 12 13  1  0
 13 14  2  0
 14 15  1  0
 15 16  2  0
 16 17  1  0
  2 18  1  0
 18 19  2  0
 19 20  1  0
 20 21  2  0
 21 22  1  0
 22 23  2  0
 17  4  2  0
 23 18  1  0
 10  5  1  0
 17 12  1  0
  3 24  1  0
  3 25  1  0
  6 26  1  0
  7 27  1  0
  8 28  1  0
  9 29  1  0
 13 30  1  0
 14 31  1  0
 15 32  1  0
 16 33  1  0
 19 34  1  0
 20 35  1  0
 21 36  1  0
 22 37  1  0
 23 38  1  0
M  END
$$$$
