
     RDKit          3D

 40 41  0  0  0  0  0  0  0  0999 V2000
    7.6839   -1.4089    0.0194 C   0  0  0  0  0  0  0  0  0  0  0  0
    7.1309   -0.3171    0.7433 O   0  0  0  0  0  0  0  0  0  0  0  0
    5.8187   -0.0171    0.5049 C   0  0  0  0  0  0  0  0  0  0  0  0
    5.3305    1.0777    1.2204 C   0  0  0  0  0  0  0  0  0  0  0  0
    4.0045    1.4946    1.0716 C   0  0  0  0  0  0  0  0  0  0  0  0
    3.1402    0.8108    0.2116 C   0  0  0  0  0  0  0  0  0  0  0  0
    1.7610    1.2883    0.0622 C   0  0  0  0  0  0  0  0  0  0  0  0
    0.6964    0.4723    0.0168 C   0  0  0  0  0  0  0  0  0  0  0  0
   -0.6725    1.0478   -0.1199 C   0  0  0  0  0  0  0  0  0  0  0  0
   -0.8419    2.2512   -0.2585 O   0  0  0  0  0  0  0  0  0  0  0  0
   -1.6528    0.0735   -0.0648 N   0  0  0  0  0  0  0  0  0  0  0  0
   -3.0284    0.2182   -0.1617 C   0  0  0  0  0  0  0  0  0  0  0  0
   -3.6073    1.4077   -0.3611 C   0  0  0  0  0  0  0  0  0  0  0  0
   -5.0643    1.5386   -0.4663 C   0  0  0  0  0  0  0  0  0  0  0  0
   -5.5473    2.6408   -0.7135 O   0  0  0  0  0  0  0  0  0  0  0  0
   -5.7910    0.3878   -0.2797 N   0  0  0  0  0  0  0  0  0  0  0  0
   -7.2372    0.4644   -0.3631 C   0  0  0  0  0  0  0  0  0  0  0  0
   -5.2248   -0.8667   -0.1243 C   0  0  0  0  0  0  0  0  0  0  0  0
   -5.9235   -1.8811   -0.0560 O   0  0  0  0  0  0  0  0  0  0  0  0
   -3.8277   -0.9182   -0.0556 N   0  0  0  0  0  0  0  0  0  0  0  0
   -3.2380   -2.2407    0.1319 C   0  0  0  0  0  0  0  0  0  0  0  0
    3.6363   -0.2776   -0.5163 C   0  0  0  0  0  0  0  0  0  0  0  0
    4.9664   -0.6925   -0.3677 C   0  0  0  0  0  0  0  0  0  0  0  0
    7.1745   -2.3457    0.2683 H   0  0  0  0  0  0  0  0  0  0  0  0
    8.7320   -1.5108    0.3169 H   0  0  0  0  0  0  0  0  0  0  0  0
    7.6606   -1.2201   -1.0590 H   0  0  0  0  0  0  0  0  0  0  0  0
    5.9896    1.6148    1.8984 H   0  0  0  0  0  0  0  0  0  0  0  0
    3.6556    2.3539    1.6403 H   0  0  0  0  0  0  0  0  0  0  0  0
    1.6341    2.3693    0.0166 H   0  0  0  0  0  0  0  0  0  0  0  0
    0.8060   -0.6016    0.0900 H   0  0  0  0  0  0  0  0  0  0  0  0
   -1.3214   -0.8665    0.0788 H   0  0  0  0  0  0  0  0  0  0  0  0
   -3.0746    2.3425   -0.4676 H   0  0  0  0  0  0  0  0  0  0  0  0
   -7.6007    1.4891   -0.2476 H   0  0  0  0  0  0  0  0  0  0  0  0
   -7.6900   -0.1593    0.4143 H   0  0  0  0  0  0  0  0  0  0  0  0
   -7.5478    0.0829   -1.3412 H   0  0  0  0  0  0  0  0  0  0  0  0
   -3.9851   -3.0367    0.1892 H   0  0  0  0  0  0  0  0  0  0  0  0
   -2.5794   -2.4649   -0.7137 H   0  0  0  0  0  0  0  0  0  0  0  0
   -2.6706   -2.2523    1.0684 H   0  0  0  0  0  0  0  0  0  0  0  0
    3.0011   -0.8078   -1.2217 H   0  0  0  0  0  0  0  0  0  0  0  0
    5.3040   -1.5406   -0.9537 H   0  0  0  0  0  0  0  0  0  0  0  0
  1  2  1  0
  2  3  1  0
  3  4  2  0
  4  5  1  0
  5  6  2  0
  6  7  1  0
  7  8  2  3
  8  9  1  0
  9 10  2  0
  9 11  1  0
 11 12  1  0
 12 13  2  0
 13 14  1  0
 14 15  2  0
 14 16  1  0
 16 17  1  0
 16 18  1  0
 18 19  2  0
 18 20  1  0
 20 21  1  0
  6 22  1  0
 22 23  2  0
 23  3  1  0
 20 12  1  0
  1 24  1  0
  1 25  1  0
  1 26  1  0
  4 27  1  0
  5 28  1  0
  7 29  1  0
  8 30  1  0
 11 31  1  0
 13 32  1  0
 17 33  1  0
 17 34  1  0
 17 35  1  0
 21 36  1  0
 21 37  1  0
 21 38  1  0
 22 39  1  0
 23 40  1  0
M  END
$$$$
