
     RDKit          3D

 59 62  0  0  0  0  0  0  0  0999 V2000
    7.1217    1.4937    0.2623 C   0  0  0  0  0  0  0  0  0  0  0  0
    5.8811    1.9923    0.7411 O   0  0  0  0  0  0  0  0  0  0  0  0
    4.8258    1.1212    0.7601 C   0  0  0  0  0  0  0  0  0  0  0  0
    4.8482   -0.2024    0.3123 C   0  0  0  0  0  0  0  0  0  0  0  0
    3.6928   -0.9901    0.3815 C   0  0  0  0  0  0  0  0  0  0  0  0
    2.5107   -0.4587    0.9011 C   0  0  0  0  0  0  0  0  0  0  0  0
    1.2854   -1.2506    0.9863 C   0  0  0  0  0  0  0  0  0  0  0  0
    0.1399   -0.7236    1.4604 C   0  0  0  0  0  0  0  0  0  0  0  0
   -1.1496   -1.4899    1.5716 C   0  0  0  0  0  0  0  0  0  0  0  0
   -1.7481   -1.6691    0.2160 N   0  0  0  0  0  0  0  0  0  0  0  0
   -1.4246   -2.9949   -0.4134 C   0  0  0  0  0  0  0  0  0  0  0  0
   -0.9741   -2.8033   -1.8676 C   0  0  0  0  0  0  0  0  0  0  0  0
   -0.9869   -4.0993   -2.6625 C   0  0  0  0  0  0  0  0  0  0  0  0
   -0.0265   -3.7749   -3.7799 C   0  0  0  0  0  0  0  0  0  0  0  0
    1.0260   -2.9490   -3.0677 C   0  0  0  0  0  0  0  0  0  0  0  0
    0.3968   -2.3493   -1.9239 O   0  0  0  0  0  0  0  0  0  0  0  0
   -3.4105   -1.2796    0.1092 S   0  0  0  0  0  6  0  0  0  0  0  0
   -4.0737   -1.9532    1.2060 O   0  0  0  0  0  0  0  0  0  0  0  0
   -3.8358   -1.4960   -1.2583 O   0  0  0  0  0  0  0  0  0  0  0  0
   -3.4458    0.4687    0.3939 C   0  0  0  0  0  0  0  0  0  0  0  0
   -4.1677    0.9899    1.4692 C   0  0  0  0  0  0  0  0  0  0  0  0
   -4.1837    2.3714    1.6754 C   0  0  0  0  0  0  0  0  0  0  0  0
   -3.4813    3.2293    0.8130 C   0  0  0  0  0  0  0  0  0  0  0  0
   -3.5218    4.6966    1.0853 C   0  0  0  0  0  0  0  0  0  0  0  0
   -2.5826    5.6003    0.3317 C   0  0  0  0  0  0  0  0  0  0  0  0
   -4.3180    5.1495    1.9060 O   0  0  0  0  0  0  0  0  0  0  0  0
   -2.7729    2.6939   -0.2732 C   0  0  0  0  0  0  0  0  0  0  0  0
   -2.7571    1.3125   -0.4859 C   0  0  0  0  0  0  0  0  0  0  0  0
    0.1401    0.6819    1.9763 C   0  0  0  0  0  0  0  0  0  0  0  0
   -0.8562    1.1888    2.4864 O   0  0  0  0  0  0  0  0  0  0  0  0
    1.3078    1.3909    1.8728 N   0  0  0  0  0  0  0  0  0  0  0  0
    2.4936    0.8648    1.3475 C   0  0  0  0  0  0  0  0  0  0  0  0
    3.6413    1.6532    1.2792 C   0  0  0  0  0  0  0  0  0  0  0  0
    7.8529    2.3073    0.3145 H   0  0  0  0  0  0  0  0  0  0  0  0
    7.0462    1.1804   -0.7835 H   0  0  0  0  0  0  0  0  0  0  0  0
    7.4842    0.6772    0.8935 H   0  0  0  0  0  0  0  0  0  0  0  0
    5.7456   -0.6522   -0.1010 H   0  0  0  0  0  0  0  0  0  0  0  0
    3.7248   -2.0163    0.0226 H   0  0  0  0  0  0  0  0  0  0  0  0
    1.3259   -2.2723    0.6238 H   0  0  0  0  0  0  0  0  0  0  0  0
   -1.8444   -0.9864    2.2505 H   0  0  0  0  0  0  0  0  0  0  0  0
   -0.9673   -2.4651    2.0411 H   0  0  0  0  0  0  0  0  0  0  0  0
   -0.6327   -3.5003    0.1492 H   0  0  0  0  0  0  0  0  0  0  0  0
   -2.3044   -3.6473   -0.3652 H   0  0  0  0  0  0  0  0  0  0  0  0
   -1.5778   -2.0445   -2.3798 H   0  0  0  0  0  0  0  0  0  0  0  0
   -0.5810   -4.9248   -2.0706 H   0  0  0  0  0  0  0  0  0  0  0  0
   -1.9836   -4.3747   -3.0172 H   0  0  0  0  0  0  0  0  0  0  0  0
   -0.5288   -3.1659   -4.5416 H   0  0  0  0  0  0  0  0  0  0  0  0
    0.3879   -4.6616   -4.2697 H   0  0  0  0  0  0  0  0  0  0  0  0
    1.8476   -3.5746   -2.7045 H   0  0  0  0  0  0  0  0  0  0  0  0
    1.4429   -2.1666   -3.7073 H   0  0  0  0  0  0  0  0  0  0  0  0
   -4.7088    0.3385    2.1526 H   0  0  0  0  0  0  0  0  0  0  0  0
   -4.7391    2.7783    2.5193 H   0  0  0  0  0  0  0  0  0  0  0  0
   -2.9020    5.6834   -0.7111 H   0  0  0  0  0  0  0  0  0  0  0  0
   -1.5576    5.2261    0.3973 H   0  0  0  0  0  0  0  0  0  0  0  0
   -2.6023    6.5979    0.7841 H   0  0  0  0  0  0  0  0  0  0  0  0
   -2.2304    3.3288   -0.9698 H   0  0  0  0  0  0  0  0  0  0  0  0
   -2.2049    0.8985   -1.3282 H   0  0  0  0  0  0  0  0  0  0  0  0
    1.2826    2.3381    2.2264 H   0  0  0  0  0  0  0  0  0  0  0  0
    3.6298    2.6829    1.6255 H   0  0  0  0  0  0  0  0  0  0  0  0
  1  2  1  0
  2  3  1  0
  3  4  2  0
  4  5  1  0
  5  6  2  0
  6  7  1  0
  7  8  2  0
  8  9  1  0
  9 10  1  0
 10 11  1  0
 11 12  1  0
 12 13  1  0
 13 14  1  0
 14 15  1  0
 15 16  1  0
 10 17  1  0
 17 18  2  0
 17 19  2  0
 17 20  1  0
 20 21  2  0
 21 22  1  0
 22 23  2  0
 23 24  1  0
 24 25  1  0
 24 26  2  0
 23 27  1  0
 27 28  2  0
  8 29  1  0
 29 30  2  0
 29 31  1  0
 31 32  1  0
 32 33  2  0
 33  3  1  0
 32  6  1  0
 16 12  1  0
 28 20  1  0
  1 34  1  0
  1 35  1  0
  1 36  1  0
  4 37  1  0
  5 38  1  0
  7 39  1  0
  9 40  1  0
  9 41  1  0
 11 42  1  0
 11 43  1  0
 12 44  1  0
 13 45  1  0
 13 46  1  0
 14 47  1  0
 14 48  1  0
 15 49  1  0
 15 50  1  0
 21 51  1  0
 22 52  1  0
 25 53  1  0
 25 54  1  0
 25 55  1  0
 27 56  1  0
 28 57  1  0
 31 58  1  0
 33 59  1  0
M  END
$$$$
