
     RDKit          3D

 60 63  0  0  0  0  0  0  0  0999 V2000
   -6.8414    2.5386   -0.7177 C   0  0  0  0  0  0  0  0  0  0  0  0
   -5.5559    2.6570   -1.3149 O   0  0  0  0  0  0  0  0  0  0  0  0
   -4.4857    2.2462   -0.5711 C   0  0  0  0  0  0  0  0  0  0  0  0
   -4.5419    1.6650    0.6963 C   0  0  0  0  0  0  0  0  0  0  0  0
   -3.3650    1.2764    1.3463 C   0  0  0  0  0  0  0  0  0  0  0  0
   -2.1239    1.4731    0.7285 C   0  0  0  0  0  0  0  0  0  0  0  0
   -0.9376    1.0741    1.3907 N   0  0  0  0  0  0  0  0  0  0  0  0
   -0.6754   -0.1553    1.9843 C   0  0  0  0  0  0  0  0  0  0  0  0
   -1.5055   -1.3934    1.8435 C   0  0  0  0  0  0  0  0  0  0  0  0
   -1.1855   -2.1434    0.5802 C   0  0  0  0  0  0  0  0  0  0  0  0
    0.0125   -2.7436    0.2238 C   0  0  0  0  0  0  0  0  0  0  0  0
   -0.1398   -3.3041   -1.0622 C   0  0  0  0  0  0  0  0  0  0  0  0
   -1.4318   -3.0554   -1.4599 C   0  0  0  0  0  0  0  0  0  0  0  0
   -2.0675   -2.3637   -0.4575 N   0  0  0  0  0  0  0  0  0  0  0  0
   -3.4543   -1.9559   -0.5308 C   0  0  0  0  0  0  0  0  0  0  0  0
    0.5053   -0.1122    2.5775 N   0  0  0  0  0  0  0  0  0  0  0  0
    1.0719    1.1058    2.3218 N   0  0  0  0  0  0  0  0  0  0  0  0
    0.2202    1.7992    1.6019 C   0  0  0  0  0  0  0  0  0  0  0  0
    0.4678    3.4582    1.1629 S   0  0  0  0  0  0  0  0  0  0  0  0
    2.1908    3.3670    0.5905 C   0  0  0  0  0  0  0  0  0  0  0  0
    2.3072    2.5256   -0.6746 C   0  0  0  0  0  0  0  0  0  0  0  0
    1.4694    2.5426   -1.5748 O   0  0  0  0  0  0  0  0  0  0  0  0
    3.4632    1.7741   -0.7498 N   0  0  0  0  0  0  0  0  0  0  0  0
    3.6924    0.8479   -1.8470 C   0  0  0  0  0  0  0  0  0  0  0  0
    3.1246   -0.5471   -1.5694 C   0  0  0  0  0  0  0  0  0  0  0  0
    3.9307   -1.2915   -0.5302 C   0  0  0  0  0  0  0  0  0  0  0  0
    3.5575   -1.2553    0.8188 C   0  0  0  0  0  0  0  0  0  0  0  0
    4.3102   -1.9260    1.7826 C   0  0  0  0  0  0  0  0  0  0  0  0
    5.4478   -2.6370    1.4075 C   0  0  0  0  0  0  0  0  0  0  0  0
    5.8343   -2.6742    0.0687 C   0  0  0  0  0  0  0  0  0  0  0  0
    5.0794   -2.0047   -0.8964 C   0  0  0  0  0  0  0  0  0  0  0  0
   -2.0616    2.0680   -0.5336 C   0  0  0  0  0  0  0  0  0  0  0  0
   -3.2428    2.4436   -1.1780 C   0  0  0  0  0  0  0  0  0  0  0  0
   -7.0920    1.4888   -0.5319 H   0  0  0  0  0  0  0  0  0  0  0  0
   -7.5779    2.9376   -1.4234 H   0  0  0  0  0  0  0  0  0  0  0  0
   -6.9065    3.1306    0.2016 H   0  0  0  0  0  0  0  0  0  0  0  0
   -5.4850    1.5074    1.2096 H   0  0  0  0  0  0  0  0  0  0  0  0
   -3.4389    0.8659    2.3508 H   0  0  0  0  0  0  0  0  0  0  0  0
   -1.2760   -2.0536    2.6910 H   0  0  0  0  0  0  0  0  0  0  0  0
   -2.5711   -1.1809    1.9328 H   0  0  0  0  0  0  0  0  0  0  0  0
    0.9104   -2.7587    0.8304 H   0  0  0  0  0  0  0  0  0  0  0  0
    0.6133   -3.8291   -1.6339 H   0  0  0  0  0  0  0  0  0  0  0  0
   -1.9477   -3.3150   -2.3755 H   0  0  0  0  0  0  0  0  0  0  0  0
   -3.4851   -0.8998   -0.8019 H   0  0  0  0  0  0  0  0  0  0  0  0
   -3.9352   -2.1337    0.4339 H   0  0  0  0  0  0  0  0  0  0  0  0
   -3.9640   -2.5483   -1.2954 H   0  0  0  0  0  0  0  0  0  0  0  0
    2.5368    4.3780    0.3517 H   0  0  0  0  0  0  0  0  0  0  0  0
    2.8283    2.9722    1.3879 H   0  0  0  0  0  0  0  0  0  0  0  0
    4.0065    1.6229    0.0938 H   0  0  0  0  0  0  0  0  0  0  0  0
    3.2280    1.2529   -2.7530 H   0  0  0  0  0  0  0  0  0  0  0  0
    4.7741    0.8099   -2.0153 H   0  0  0  0  0  0  0  0  0  0  0  0
    2.0764   -0.4818   -1.2522 H   0  0  0  0  0  0  0  0  0  0  0  0
    3.1272   -1.1316   -2.4976 H   0  0  0  0  0  0  0  0  0  0  0  0
    2.6699   -0.7088    1.1297 H   0  0  0  0  0  0  0  0  0  0  0  0
    4.0002   -1.8953    2.8243 H   0  0  0  0  0  0  0  0  0  0  0  0
    6.0309   -3.1633    2.1579 H   0  0  0  0  0  0  0  0  0  0  0  0
    6.7224   -3.2273   -0.2241 H   0  0  0  0  0  0  0  0  0  0  0  0
    5.3933   -2.0465   -1.9369 H   0  0  0  0  0  0  0  0  0  0  0  0
   -1.1169    2.2142   -1.0551 H   0  0  0  0  0  0  0  0  0  0  0  0
   -3.1908    2.8937   -2.1674 H   0  0  0  0  0  0  0  0  0  0  0  0
  1  2  1  0
  2  3  1  0
  3  4  2  0
  4  5  1  0
  5  6  2  0
  6  7  1  0
  7  8  1  0
  8  9  1  0
  9 10  1  0
 10 11  2  0
 11 12  1  0
 12 13  2  0
 13 14  1  0
 14 15  1  0
  8 16  2  0
 16 17  1  0
 17 18  2  0
 18 19  1  0
 19 20  1  0
 20 21  1  0
 21 22  2  0
 21 23  1  0
 23 24  1  0
 24 25  1  0
 25 26  1  0
 26 27  2  0
 27 28  1  0
 28 29  2  0
 29 30  1  0
 30 31  2  0
  6 32  1  0
 32 33  2  0
 33  3  1  0
 18  7  1  0
 31 26  1  0
 14 10  1  0
  1 34  1  0
  1 35  1  0
  1 36  1  0
  4 37  1  0
  5 38  1  0
  9 39  1  0
  9 40  1  0
 11 41  1  0
 12 42  1  0
 13 43  1  0
 15 44  1  0
 15 45  1  0
 15 46  1  0
 20 47  1  0
 20 48  1  0
 23 49  1  0
 24 50  1  0
 24 51  1  0
 25 52  1  0
 25 53  1  0
 27 54  1  0
 28 55  1  0
 29 56  1  0
 30 57  1  0
 31 58  1  0
 32 59  1  0
 33 60  1  0
M  END
$$$$
