
     RDKit          3D

 50 53  0  0  0  0  0  0  0  0999 V2000
   -5.6902   -1.1601    5.2077 C   0  0  0  0  0  0  0  0  0  0  0  0
   -4.8032   -0.9986    4.0091 C   0  0  0  0  0  0  0  0  0  0  0  0
   -5.2219   -1.4439    2.7514 C   0  0  0  0  0  0  0  0  0  0  0  0
   -4.3862   -1.3256    1.6336 C   0  0  0  0  0  0  0  0  0  0  0  0
   -3.1152   -0.7549    1.7574 C   0  0  0  0  0  0  0  0  0  0  0  0
   -2.2233   -0.6180    0.6483 N   0  0  0  0  0  0  0  0  0  0  0  0
   -0.8989   -0.4233    0.8994 N   0  0  0  0  0  0  0  0  0  0  0  0
   -0.2992   -0.5496   -0.2851 C   0  0  0  0  0  0  0  0  0  0  0  0
    1.1326   -0.4895   -0.5370 C   0  0  0  0  0  0  0  0  0  0  0  0
    1.9816   -0.3101    0.3362 O   0  0  0  0  0  0  0  0  0  0  0  0
    1.4554   -0.6192   -1.9000 N   0  0  0  0  0  0  0  0  0  0  0  0
    2.8597   -0.6073   -2.3003 C   0  0  0  0  0  0  0  0  0  0  0  0
    3.4165    0.8111   -2.4276 C   0  0  0  0  0  0  0  0  0  0  0  0
    3.9889    1.1957   -3.4465 O   0  0  0  0  0  0  0  0  0  0  0  0
    3.3214    1.5818   -1.2883 N   0  0  0  0  0  0  0  0  0  0  0  0
    3.9456    2.8795   -1.1863 C   0  0  0  0  0  0  0  0  0  0  0  0
    5.3111    2.7083   -0.6004 C   0  0  0  0  0  0  0  0  0  0  0  0
    6.4853    2.3886   -1.2553 C   0  0  0  0  0  0  0  0  0  0  0  0
    7.5973    2.3082   -0.3693 C   0  0  0  0  0  0  0  0  0  0  0  0
    7.2365    2.5690    0.9333 C   0  0  0  0  0  0  0  0  0  0  0  0
    5.5671    2.9071    1.0826 S   0  0  0  0  0  0  0  0  0  0  0  0
    0.5244   -0.7893   -2.9320 N   0  0  0  0  0  0  0  0  0  0  0  0
   -0.7555   -0.8377   -2.6859 C   0  0  0  0  0  0  0  0  0  0  0  0
   -1.6978   -1.0249   -3.8405 C   0  0  0  0  0  0  0  0  0  0  0  0
   -1.2192   -0.7105   -1.3255 C   0  0  0  0  0  0  0  0  0  0  0  0
   -2.4689   -0.6526   -0.7308 C   0  0  0  0  0  0  0  0  0  0  0  0
   -3.8160   -0.5700   -1.3526 C   0  0  0  0  0  0  0  0  0  0  0  0
   -2.6814   -0.3470    3.0299 C   0  0  0  0  0  0  0  0  0  0  0  0
   -3.5188   -0.4657    4.1431 C   0  0  0  0  0  0  0  0  0  0  0  0
   -5.5500   -2.1529    5.6462 H   0  0  0  0  0  0  0  0  0  0  0  0
   -6.7429   -1.0390    4.9312 H   0  0  0  0  0  0  0  0  0  0  0  0
   -5.4651   -0.4037    5.9671 H   0  0  0  0  0  0  0  0  0  0  0  0
   -6.2027   -1.9010    2.6347 H   0  0  0  0  0  0  0  0  0  0  0  0
   -4.7502   -1.7381    0.7008 H   0  0  0  0  0  0  0  0  0  0  0  0
    3.4602   -1.1504   -1.5621 H   0  0  0  0  0  0  0  0  0  0  0  0
    2.9592   -1.1173   -3.2647 H   0  0  0  0  0  0  0  0  0  0  0  0
    3.0756    1.1181   -0.4145 H   0  0  0  0  0  0  0  0  0  0  0  0
    3.3065    3.5029   -0.5526 H   0  0  0  0  0  0  0  0  0  0  0  0
    4.0061    3.3505   -2.1732 H   0  0  0  0  0  0  0  0  0  0  0  0
    6.5360    2.2145   -2.3247 H   0  0  0  0  0  0  0  0  0  0  0  0
    8.6090    2.0691   -0.6726 H   0  0  0  0  0  0  0  0  0  0  0  0
    7.8720    2.5760    1.8080 H   0  0  0  0  0  0  0  0  0  0  0  0
   -2.2171   -0.0845   -4.0431 H   0  0  0  0  0  0  0  0  0  0  0  0
   -2.4260   -1.8076   -3.6127 H   0  0  0  0  0  0  0  0  0  0  0  0
   -1.1449   -1.3156   -4.7388 H   0  0  0  0  0  0  0  0  0  0  0  0
   -3.7692   -0.0660   -2.3219 H   0  0  0  0  0  0  0  0  0  0  0  0
   -4.5096    0.0233   -0.7498 H   0  0  0  0  0  0  0  0  0  0  0  0
   -4.2309   -1.5691   -1.5143 H   0  0  0  0  0  0  0  0  0  0  0  0
   -1.6886    0.0780    3.1735 H   0  0  0  0  0  0  0  0  0  0  0  0
   -3.1554   -0.1388    5.1151 H   0  0  0  0  0  0  0  0  0  0  0  0
  1  2  1  0
  2  3  2  0
  3  4  1  0
  4  5  2  0
  5  6  1  0
  6  7  1  0
  7  8  2  0
  8  9  1  0
  9 10  2  0
  9 11  1  0
 11 12  1  0
 12 13  1  0
 13 14  2  0
 13 15  1  0
 15 16  1  0
 16 17  1  0
 17 18  2  0
 18 19  1  0
 19 20  2  0
 20 21  1  0
 11 22  1  0
 22 23  2  0
 23 24  1  0
 23 25  1  0
 25 26  2  0
 26 27  1  0
  5 28  1  0
 28 29  2  0
 29  2  1  0
 26  6  1  0
 25  8  1  0
 21 17  1  0
  1 30  1  0
  1 31  1  0
  1 32  1  0
  3 33  1  0
  4 34  1  0
 12 35  1  0
 12 36  1  0
 15 37  1  0
 16 38  1  0
 16 39  1  0
 18 40  1  0
 19 41  1  0
 20 42  1  0
 24 43  1  0
 24 44  1  0
 24 45  1  0
 27 46  1  0
 27 47  1  0
 27 48  1  0
 28 49  1  0
 29 50  1  0
M  END
$$$$
