
     RDKit          3D

 97 99  0  0  0  0  0  0  0  0999 V2000
   -0.8325   -1.5572   -1.4163 C   0  0  0  0  0  0  0  0  0  0  0  0
   -1.3648   -0.4575   -0.8480 C   0  0  0  0  0  0  0  0  0  0  0  0
   -2.8202   -0.4338   -0.3369 C   0  0  1  0  0  0  0  0  0  0  0  0
   -3.6547   -1.3300   -1.1092 O   0  0  0  0  0  0  0  0  0  0  0  0
   -4.1316   -0.8626   -2.2947 C   0  0  0  0  0  0  0  0  0  0  0  0
   -3.9309    0.2541   -2.7512 O   0  0  0  0  0  0  0  0  0  0  0  0
   -4.9500   -1.9448   -2.9761 C   0  0  0  0  0  0  0  0  0  0  0  0
   -5.8807   -1.3387   -4.0233 C   0  0  0  0  0  0  0  0  0  0  0  0
   -4.0205   -2.9772   -3.6035 C   0  0  0  0  0  0  0  0  0  0  0  0
   -3.0126   -0.7555    1.1757 C   0  0  0  0  0  0  0  0  0  0  0  0
   -2.3992    0.2779    1.9537 O   0  0  0  0  0  0  0  0  0  0  0  0
   -3.1520    1.3912    2.1584 C   0  0  0  0  0  0  0  0  0  0  0  0
   -2.3360    2.4519    2.8305 C   0  0  0  0  0  0  0  0  0  0  0  0
   -4.3211    1.5182    1.8286 O   0  0  0  0  0  0  0  0  0  0  0  0
   -2.5525   -2.1820    1.5678 C   0  0  0  0  0  0  0  0  0  0  0  0
   -2.6582   -3.1232    0.7706 O   0  0  0  0  0  0  0  0  0  0  0  0
   -2.0007   -2.4503    3.0043 C   0  0  0  0  0  0  0  0  0  0  0  0
   -2.0443   -3.9705    3.2862 C   0  0  0  0  0  0  0  0  0  0  0  0
   -2.8772   -1.7793    4.0754 C   0  0  0  0  0  0  0  0  0  0  0  0
   -0.5543   -1.9757    3.0830 C   0  0  0  0  0  0  0  0  0  0  0  0
    0.3791   -2.3167    2.1772 C   0  0  0  0  0  0  0  0  0  0  0  0
    1.8082   -1.8371    2.0467 C   0  0  2  0  0  0  0  0  0  0  0  0
    2.4400   -1.2248    3.2988 C   0  0  0  0  0  0  0  0  0  0  0  0
    1.9600   -0.9787    0.7557 C   0  0  2  0  0  0  0  0  0  0  0  0
    3.3676   -0.9998    0.3916 O   0  0  0  0  0  0  0  0  0  0  0  0
    3.6968   -1.4407   -0.8464 C   0  0  0  0  0  0  0  0  0  0  0  0
    2.9155   -1.8027   -1.7101 O   0  0  0  0  0  0  0  0  0  0  0  0
    5.1717   -1.4067   -1.0349 C   0  0  0  0  0  0  0  0  0  0  0  0
    6.0526   -1.0208   -0.0145 C   0  0  0  0  0  0  0  0  0  0  0  0
    7.4300   -1.0048   -0.2473 C   0  0  0  0  0  0  0  0  0  0  0  0
    7.9329   -1.3725   -1.4953 C   0  0  0  0  0  0  0  0  0  0  0  0
    7.0624   -1.7588   -2.5135 C   0  0  0  0  0  0  0  0  0  0  0  0
    5.6851   -1.7768   -2.2854 C   0  0  0  0  0  0  0  0  0  0  0  0
    1.4249    0.5006    0.7795 C   0  0  1  0  0  0  0  0  0  0  0  0
    0.3626    0.6808    1.7134 O   0  0  0  0  0  0  0  0  0  0  0  0
    2.5353    1.5336    1.1249 C   0  0  0  0  0  0  0  0  0  0  0  0
    2.8623    2.2307   -0.1950 C   0  0  2  0  0  0  0  0  0  0  0  0
    3.6053    3.5422    0.0089 C   0  0  0  0  0  0  0  0  0  0  0  0
    1.4793    2.3543   -0.8425 C   0  0  2  0  0  0  0  0  0  0  0  0
    0.6953    3.3322   -0.1335 O   0  0  0  0  0  0  0  0  0  0  0  0
    0.5101    4.5338   -0.7473 C   0  0  0  0  0  0  0  0  0  0  0  0
   -0.2895    5.4436    0.1337 C   0  0  0  0  0  0  0  0  0  0  0  0
    0.9579    4.8514   -1.8393 O   0  0  0  0  0  0  0  0  0  0  0  0
    0.8917    0.9346   -0.6348 C   0  0  2  0  0  0  0  0  0  0  0  0
   -0.6520    0.8993   -0.8361 C   0  0  1  0  0  0  0  0  0  0  0  0
   -0.9273    1.4674   -2.1421 O   0  0  0  0  0  0  0  0  0  0  0  0
   -1.8001    2.5088   -2.1986 C   0  0  0  0  0  0  0  0  0  0  0  0
   -2.0272    2.9099   -3.6233 C   0  0  0  0  0  0  0  0  0  0  0  0
   -2.2936    3.0784   -1.2347 O   0  0  0  0  0  0  0  0  0  0  0  0
    0.1449   -1.5560   -1.8878 H   0  0  0  0  0  0  0  0  0  0  0  0
   -1.3785   -2.4959   -1.4627 H   0  0  0  0  0  0  0  0  0  0  0  0
   -3.2093    0.5799   -0.4910 H   0  0  0  0  0  0  0  0  0  0  0  0
   -5.5760   -2.4249   -2.2136 H   0  0  0  0  0  0  0  0  0  0  0  0
   -6.5178   -2.1092   -4.4700 H   0  0  0  0  0  0  0  0  0  0  0  0
   -5.3169   -0.8550   -4.8291 H   0  0  0  0  0  0  0  0  0  0  0  0
   -6.5309   -0.5812   -3.5720 H   0  0  0  0  0  0  0  0  0  0  0  0
   -3.3968   -3.4573   -2.8423 H   0  0  0  0  0  0  0  0  0  0  0  0
   -3.3477   -2.5149   -4.3341 H   0  0  0  0  0  0  0  0  0  0  0  0
   -4.5913   -3.7615   -4.1108 H   0  0  0  0  0  0  0  0  0  0  0  0
   -4.0910   -0.7883    1.3892 H   0  0  0  0  0  0  0  0  0  0  0  0
   -3.0051    3.1879    3.2852 H   0  0  0  0  0  0  0  0  0  0  0  0
   -1.7284    2.0113    3.6274 H   0  0  0  0  0  0  0  0  0  0  0  0
   -1.6974    2.9442    2.0933 H   0  0  0  0  0  0  0  0  0  0  0  0
   -3.0741   -4.3461    3.2467 H   0  0  0  0  0  0  0  0  0  0  0  0
   -1.6396   -4.2057    4.2781 H   0  0  0  0  0  0  0  0  0  0  0  0
   -1.4662   -4.5463    2.5536 H   0  0  0  0  0  0  0  0  0  0  0  0
   -2.7210   -0.6990    4.1372 H   0  0  0  0  0  0  0  0  0  0  0  0
   -3.9419   -1.9490    3.8767 H   0  0  0  0  0  0  0  0  0  0  0  0
   -2.6570   -2.1759    5.0741 H   0  0  0  0  0  0  0  0  0  0  0  0
   -0.3032   -1.2906    3.8871 H   0  0  0  0  0  0  0  0  0  0  0  0
    0.0863   -3.0033    1.3788 H   0  0  0  0  0  0  0  0  0  0  0  0
    2.3945   -2.7526    1.8724 H   0  0  0  0  0  0  0  0  0  0  0  0
    2.4293   -1.9499    4.1212 H   0  0  0  0  0  0  0  0  0  0  0  0
    3.4867   -0.9591    3.1151 H   0  0  0  0  0  0  0  0  0  0  0  0
    1.9251   -0.3302    3.6531 H   0  0  0  0  0  0  0  0  0  0  0  0
    1.3999   -1.5221   -0.0076 H   0  0  0  0  0  0  0  0  0  0  0  0
    5.6842   -0.7326    0.9668 H   0  0  0  0  0  0  0  0  0  0  0  0
    8.1123   -0.7068    0.5455 H   0  0  0  0  0  0  0  0  0  0  0  0
    9.0056   -1.3600   -1.6742 H   0  0  0  0  0  0  0  0  0  0  0  0
    7.4553   -2.0478   -3.4855 H   0  0  0  0  0  0  0  0  0  0  0  0
    5.0149   -2.0812   -3.0875 H   0  0  0  0  0  0  0  0  0  0  0  0
    0.7323    0.8360    2.5967 H   0  0  0  0  0  0  0  0  0  0  0  0
    2.1676    2.2644    1.8578 H   0  0  0  0  0  0  0  0  0  0  0  0
    3.4297    1.0880    1.5706 H   0  0  0  0  0  0  0  0  0  0  0  0
    3.4876    1.5712   -0.8099 H   0  0  0  0  0  0  0  0  0  0  0  0
    4.5858    3.3575    0.4612 H   0  0  0  0  0  0  0  0  0  0  0  0
    3.0621    4.2267    0.6686 H   0  0  0  0  0  0  0  0  0  0  0  0
    3.7666    4.0469   -0.9496 H   0  0  0  0  0  0  0  0  0  0  0  0
    1.5542    2.5841   -1.9112 H   0  0  0  0  0  0  0  0  0  0  0  0
   -1.2042    4.9439    0.4611 H   0  0  0  0  0  0  0  0  0  0  0  0
    0.3106    5.7407    0.9972 H   0  0  0  0  0  0  0  0  0  0  0  0
   -0.5721    6.3371   -0.4310 H   0  0  0  0  0  0  0  0  0  0  0  0
    1.3682    0.3209   -1.4098 H   0  0  0  0  0  0  0  0  0  0  0  0
   -1.1010    1.5150   -0.0510 H   0  0  0  0  0  0  0  0  0  0  0  0
   -2.2115    2.0248   -4.2385 H   0  0  0  0  0  0  0  0  0  0  0  0
   -2.9112    3.5509   -3.6815 H   0  0  0  0  0  0  0  0  0  0  0  0
   -1.1567    3.4552   -3.9947 H   0  0  0  0  0  0  0  0  0  0  0  0
  1  2  2  0
  2  3  1  0
  3  4  1  0
  4  5  1  0
  5  6  2  0
  5  7  1  0
  7  8  1  0
  7  9  1  0
  3 10  1  0
 10 11  1  0
 11 12  1  0
 12 13  1  0
 12 14  2  0
 10 15  1  0
 15 16  2  0
 15 17  1  0
 17 18  1  0
 17 19  1  0
 17 20  1  0
 20 21  2  0
 21 22  1  0
 22 23  1  0
 22 24  1  0
 24 25  1  0
 25 26  1  0
 26 27  2  0
 26 28  1  0
 28 29  2  0
 29 30  1  0
 30 31  2  0
 31 32  1  0
 32 33  2  0
 24 34  1  0
 34 35  1  1
 34 36  1  0
 36 37  1  0
 37 38  1  0
 37 39  1  0
 39 40  1  0
 40 41  1  0
 41 42  1  0
 41 43  2  0
 39 44  1  0
 44 45  1  0
 45 46  1  0
 46 47  1  0
 47 48  1  0
 47 49  2  0
 45  2  1  0
 33 28  1  0
 44 34  1  0
  1 50  1  0
  1 51  1  0
  3 52  1  1
  7 53  1  0
  8 54  1  0
  8 55  1  0
  8 56  1  0
  9 57  1  0
  9 58  1  0
  9 59  1  0
 10 60  1  0
 13 61  1  0
 13 62  1  0
 13 63  1  0
 18 64  1  0
 18 65  1  0
 18 66  1  0
 19 67  1  0
 19 68  1  0
 19 69  1  0
 20 70  1  0
 21 71  1  0
 22 72  1  6
 23 73  1  0
 23 74  1  0
 23 75  1  0
 24 76  1  6
 29 77  1  0
 30 78  1  0
 31 79  1  0
 32 80  1  0
 33 81  1  0
 35 82  1  0
 36 83  1  0
 36 84  1  0
 37 85  1  6
 38 86  1  0
 38 87  1  0
 38 88  1  0
 39 89  1  6
 42 90  1  0
 42 91  1  0
 42 92  1  0
 44 93  1  6
 45 94  1  1
 48 95  1  0
 48 96  1  0
 48 97  1  0
M  END
$$$$
