
     RDKit          3D

 51 55  0  0  0  0  0  0  0  0999 V2000
   -7.5868    1.1530   -1.0718 F   0  0  0  0  0  0  0  0  0  0  0  0
   -6.3854    0.6180   -1.3282 C   0  0  0  0  0  0  0  0  0  0  0  0
   -5.9409    0.5344   -2.6417 C   0  0  0  0  0  0  0  0  0  0  0  0
   -4.6894   -0.0177   -2.9078 C   0  0  0  0  0  0  0  0  0  0  0  0
   -3.8941   -0.4829   -1.8573 C   0  0  0  0  0  0  0  0  0  0  0  0
   -4.3458   -0.4042   -0.5312 C   0  0  0  0  0  0  0  0  0  0  0  0
   -3.4777   -0.8908    0.6047 C   0  0  0  0  0  0  0  0  0  0  0  0
   -2.5215    0.2099    1.0959 C   0  0  0  0  0  0  0  0  0  0  0  0
   -1.7023   -0.2126    2.2464 N   0  0  0  0  0  0  0  0  0  0  0  0
   -0.9673    0.9291    2.8351 C   0  0  0  0  0  0  0  0  0  0  0  0
    0.4143    1.2300    2.2112 C   0  0  0  0  0  0  0  0  0  0  0  0
    1.2891    0.0375    2.1410 N   0  0  0  0  0  0  0  0  0  0  0  0
    2.2118   -0.0219    1.0928 C   0  0  0  0  0  0  0  0  0  0  0  0
    2.1987   -1.0624    0.2962 N   0  0  0  0  0  0  0  0  0  0  0  0
    3.0761   -1.1418   -0.8019 C   0  0  0  0  0  0  0  0  0  0  0  0
    3.0106   -2.2692   -1.6229 C   0  0  0  0  0  0  0  0  0  0  0  0
    3.8488   -2.3932   -2.7336 C   0  0  0  0  0  0  0  0  0  0  0  0
    4.7644   -1.3851   -3.0349 C   0  0  0  0  0  0  0  0  0  0  0  0
    4.8473   -0.2496   -2.2282 C   0  0  0  0  0  0  0  0  0  0  0  0
    4.0020   -0.1398   -1.1207 C   0  0  0  0  0  0  0  0  0  0  0  0
    4.0293    0.9594   -0.2475 N   0  0  0  0  0  0  0  0  0  0  0  0
    4.8310    2.0756   -0.2735 C   0  0  0  0  0  0  0  0  0  0  0  0
    4.5394    2.8413    0.8338 C   0  0  0  0  0  0  0  0  0  0  0  0
    3.5169    2.1740    1.5453 C   0  0  0  0  0  0  0  0  0  0  0  0
    3.1869    1.0297    0.8401 C   0  0  0  0  0  0  0  0  0  0  0  0
    0.6126   -1.2097    2.5542 C   0  0  0  0  0  0  0  0  0  0  0  0
   -0.7698   -1.3112    1.8797 C   0  0  0  0  0  0  0  0  0  0  0  0
   -5.6030    0.1577   -0.2743 C   0  0  0  0  0  0  0  0  0  0  0  0
   -6.5703    0.8997   -3.4461 H   0  0  0  0  0  0  0  0  0  0  0  0
   -4.3326   -0.0870   -3.9323 H   0  0  0  0  0  0  0  0  0  0  0  0
   -2.9177   -0.9100   -2.0802 H   0  0  0  0  0  0  0  0  0  0  0  0
   -2.9243   -1.7762    0.2685 H   0  0  0  0  0  0  0  0  0  0  0  0
   -4.1165   -1.2295    1.4305 H   0  0  0  0  0  0  0  0  0  0  0  0
   -3.1349    1.0705    1.3954 H   0  0  0  0  0  0  0  0  0  0  0  0
   -1.8830    0.5564    0.2725 H   0  0  0  0  0  0  0  0  0  0  0  0
   -0.8204    0.7042    3.9002 H   0  0  0  0  0  0  0  0  0  0  0  0
   -1.5806    1.8386    2.8249 H   0  0  0  0  0  0  0  0  0  0  0  0
    0.9021    1.9996    2.8167 H   0  0  0  0  0  0  0  0  0  0  0  0
    0.2616    1.6395    1.2048 H   0  0  0  0  0  0  0  0  0  0  0  0
    2.2985   -3.0559   -1.3912 H   0  0  0  0  0  0  0  0  0  0  0  0
    3.7865   -3.2783   -3.3617 H   0  0  0  0  0  0  0  0  0  0  0  0
    5.4171   -1.4868   -3.8991 H   0  0  0  0  0  0  0  0  0  0  0  0
    5.5701    0.5191   -2.4798 H   0  0  0  0  0  0  0  0  0  0  0  0
    5.5583    2.2370   -1.0558 H   0  0  0  0  0  0  0  0  0  0  0  0
    5.0219    3.7716    1.1051 H   0  0  0  0  0  0  0  0  0  0  0  0
    3.0777    2.4944    2.4790 H   0  0  0  0  0  0  0  0  0  0  0  0
    1.2159   -2.0945    2.3193 H   0  0  0  0  0  0  0  0  0  0  0  0
    0.5046   -1.2117    3.6463 H   0  0  0  0  0  0  0  0  0  0  0  0
   -0.6095   -1.3379    0.7938 H   0  0  0  0  0  0  0  0  0  0  0  0
   -1.2361   -2.2622    2.1607 H   0  0  0  0  0  0  0  0  0  0  0  0
   -5.9839    0.2416    0.7394 H   0  0  0  0  0  0  0  0  0  0  0  0
  1  2  1  0
  2  3  2  0
  3  4  1  0
  4  5  2  0
  5  6  1  0
  6  7  1  0
  7  8  1  0
  8  9  1  0
  9 10  1  0
 10 11  1  0
 11 12  1  0
 12 13  1  0
 13 14  2  0
 14 15  1  0
 15 16  2  0
 16 17  1  0
 17 18  2  0
 18 19  1  0
 19 20  2  0
 20 21  1  0
 21 22  1  0
 22 23  2  0
 23 24  1  0
 24 25  2  0
 12 26  1  0
 26 27  1  0
  6 28  2  0
 28  2  1  0
 27  9  1  0
 25 13  1  0
 20 15  1  0
 25 21  1  0
  3 29  1  0
  4 30  1  0
  5 31  1  0
  7 32  1  0
  7 33  1  0
  8 34  1  0
  8 35  1  0
 10 36  1  0
 10 37  1  0
 11 38  1  0
 11 39  1  0
 16 40  1  0
 17 41  1  0
 18 42  1  0
 19 43  1  0
 22 44  1  0
 23 45  1  0
 24 46  1  0
 26 47  1  0
 26 48  1  0
 27 49  1  0
 27 50  1  0
 28 51  1  0
M  END
$$$$
