
     RDKit          3D

 56 60  0  0  0  0  0  0  0  0999 V2000
   -5.7663    2.0700   -0.6918 C   0  0  0  0  0  0  0  0  0  0  0  0
   -4.5204    1.4325   -1.0368 N   0  0  0  0  0  0  0  0  0  0  0  0
   -3.2549    1.9461   -0.9705 C   0  0  0  0  0  0  0  0  0  0  0  0
   -2.8195    3.4898   -0.3369 S   0  0  0  0  0  0  0  0  0  0  0  0
   -2.6584    3.0781    1.4215 C   0  0  0  0  0  0  0  0  0  0  0  0
   -1.3186    2.4971    1.8574 C   0  0  0  0  0  0  0  0  0  0  0  0
   -0.9328    2.7165    3.0089 O   0  0  0  0  0  0  0  0  0  0  0  0
   -0.6761    1.6833    0.9488 N   0  0  0  0  0  0  0  0  0  0  0  0
    0.4915    0.9133    1.1433 C   0  0  0  0  0  0  0  0  0  0  0  0
    0.9921    0.2421    0.0187 C   0  0  0  0  0  0  0  0  0  0  0  0
    2.1528   -0.5433    0.0920 C   0  0  0  0  0  0  0  0  0  0  0  0
    2.8190   -0.6789    1.3250 C   0  0  0  0  0  0  0  0  0  0  0  0
    3.9653   -1.4279    1.5504 N   0  0  0  0  0  0  0  0  0  0  0  0
    4.2948   -1.3541    2.8215 C   0  0  0  0  0  0  0  0  0  0  0  0
    5.6701   -2.2173    3.4758 S   0  0  0  0  0  0  0  0  0  0  0  0
    6.4196   -2.9046    1.9765 C   0  0  0  0  0  0  0  0  0  0  0  0
    7.2148   -1.8419    1.2405 C   0  0  0  0  0  0  0  0  0  0  0  0
    8.4170   -1.6761    1.4336 O   0  0  0  0  0  0  0  0  0  0  0  0
    6.4712   -1.1007    0.3398 N   0  0  0  0  0  0  0  0  0  0  0  0
    6.9979    0.0386   -0.3428 C   0  0  0  0  0  0  0  0  0  0  0  0
    6.3135    0.5777   -1.5676 C   0  0  0  0  0  0  0  0  0  0  0  0
    6.2774    1.3587   -0.2858 C   0  0  0  0  0  0  0  0  0  0  0  0
    3.2935   -0.3734    3.8065 S   0  0  0  0  0  0  0  0  0  0  0  0
    2.2967   -0.0278    2.4427 C   0  0  0  0  0  0  0  0  0  0  0  0
    1.1402    0.7768    2.3740 C   0  0  0  0  0  0  0  0  0  0  0  0
   -2.3804    1.0604   -1.3789 N   0  0  0  0  0  0  0  0  0  0  0  0
   -3.0733   -0.0806   -1.6925 N   0  0  0  0  0  0  0  0  0  0  0  0
   -4.3620    0.1358   -1.4870 C   0  0  0  0  0  0  0  0  0  0  0  0
   -5.4271   -0.8433   -1.6772 C   0  0  0  0  0  0  0  0  0  0  0  0
   -5.3575   -2.0717   -1.0079 C   0  0  0  0  0  0  0  0  0  0  0  0
   -6.3670   -3.0235   -1.1672 C   0  0  0  0  0  0  0  0  0  0  0  0
   -7.4496   -2.7568   -2.0100 C   0  0  0  0  0  0  0  0  0  0  0  0
   -7.5181   -1.5448   -2.6966 C   0  0  0  0  0  0  0  0  0  0  0  0
   -6.5075   -0.5925   -2.5389 C   0  0  0  0  0  0  0  0  0  0  0  0
   -6.2490    2.3777   -1.6171 H   0  0  0  0  0  0  0  0  0  0  0  0
   -6.3952    1.3622   -0.1422 H   0  0  0  0  0  0  0  0  0  0  0  0
   -5.5901    2.9382   -0.0534 H   0  0  0  0  0  0  0  0  0  0  0  0
   -3.4546    2.3881    1.7361 H   0  0  0  0  0  0  0  0  0  0  0  0
   -2.7952    4.0198    1.9704 H   0  0  0  0  0  0  0  0  0  0  0  0
   -1.0764    1.6295    0.0126 H   0  0  0  0  0  0  0  0  0  0  0  0
    0.4906    0.3287   -0.9450 H   0  0  0  0  0  0  0  0  0  0  0  0
    2.5425   -1.0188   -0.7985 H   0  0  0  0  0  0  0  0  0  0  0  0
    7.1125   -3.6987    2.2688 H   0  0  0  0  0  0  0  0  0  0  0  0
    5.6724   -3.3617    1.3179 H   0  0  0  0  0  0  0  0  0  0  0  0
    5.4563   -1.1940    0.3985 H   0  0  0  0  0  0  0  0  0  0  0  0
    8.0862    0.0742   -0.3576 H   0  0  0  0  0  0  0  0  0  0  0  0
    6.9443    0.9490   -2.3689 H   0  0  0  0  0  0  0  0  0  0  0  0
    5.3956    0.1069   -1.9012 H   0  0  0  0  0  0  0  0  0  0  0  0
    5.3341    1.4136    0.2465 H   0  0  0  0  0  0  0  0  0  0  0  0
    6.8817    2.2587   -0.2117 H   0  0  0  0  0  0  0  0  0  0  0  0
    0.7749    1.2480    3.2778 H   0  0  0  0  0  0  0  0  0  0  0  0
   -4.5168   -2.2935   -0.3485 H   0  0  0  0  0  0  0  0  0  0  0  0
   -6.3055   -3.9723   -0.6421 H   0  0  0  0  0  0  0  0  0  0  0  0
   -8.2335   -3.5006   -2.1408 H   0  0  0  0  0  0  0  0  0  0  0  0
   -8.3541   -1.3465   -3.3650 H   0  0  0  0  0  0  0  0  0  0  0  0
   -6.5587    0.3335   -3.1115 H   0  0  0  0  0  0  0  0  0  0  0  0
  1  2  1  0
  2  3  1  0
  3  4  1  0
  4  5  1  0
  5  6  1  0
  6  7  2  0
  6  8  1  0
  8  9  1  0
  9 10  2  0
 10 11  1  0
 11 12  2  0
 12 13  1  0
 13 14  2  0
 14 15  1  0
 15 16  1  0
 16 17  1  0
 17 18  2  0
 17 19  1  0
 19 20  1  0
 20 21  1  0
 21 22  1  0
 14 23  1  0
 23 24  1  0
 24 25  2  0
  3 26  2  0
 26 27  1  0
 27 28  2  0
 28 29  1  0
 29 30  2  0
 30 31  1  0
 31 32  2  0
 32 33  1  0
 33 34  2  0
 28  2  1  0
 34 29  1  0
 25  9  1  0
 24 12  1  0
 22 20  1  0
  1 35  1  0
  1 36  1  0
  1 37  1  0
  5 38  1  0
  5 39  1  0
  8 40  1  0
 10 41  1  0
 11 42  1  0
 16 43  1  0
 16 44  1  0
 19 45  1  0
 20 46  1  0
 21 47  1  0
 21 48  1  0
 22 49  1  0
 22 50  1  0
 25 51  1  0
 30 52  1  0
 31 53  1  0
 32 54  1  0
 33 55  1  0
 34 56  1  0
M  END
$$$$
