
     RDKit          3D

 33 35  0  0  0  0  0  0  0  0999 V2000
    5.0626    1.9918   -0.5452 C   0  0  0  0  0  0  0  0  0  0  0  0
    4.3409    0.8346   -0.0687 N   0  0  0  0  0  0  0  0  0  0  0  0
    4.8758   -0.3013    0.4569 C   0  0  0  0  0  0  0  0  0  0  0  0
    3.7992   -1.1045    0.7716 C   0  0  0  0  0  0  0  0  0  0  0  0
    3.8719   -2.3828    1.3938 N   0  0  0  0  0  4  0  0  0  0  0  0
    3.2385   -2.5244    2.4448 O   0  0  0  0  0  0  0  0  0  0  0  0
    4.6280   -3.2087    0.8679 O   0  0  0  0  0  1  0  0  0  0  0  0
    2.6504   -0.3902    0.3687 C   0  0  0  0  0  0  0  0  0  0  0  0
    1.2471   -0.8291    0.4060 C   0  0  0  0  0  0  0  0  0  0  0  0
    0.9402   -1.9817    0.6664 O   0  0  0  0  0  0  0  0  0  0  0  0
    0.3864    0.1939    0.0878 N   0  0  0  0  0  0  0  0  0  0  0  0
   -0.9849    0.1325    0.0198 C   0  0  0  0  0  0  0  0  0  0  0  0
   -1.6270    1.6798   -0.4221 S   0  0  0  0  0  0  0  0  0  0  0  0
   -3.1814    1.0844   -0.3561 C   0  0  0  0  0  0  0  0  0  0  0  0
   -3.2531   -0.2364   -0.0173 C   0  0  0  0  0  0  0  0  0  0  0  0
   -1.9768   -0.8206    0.2067 C   0  0  0  0  0  0  0  0  0  0  0  0
   -1.8300   -2.2004    0.5640 C   0  0  0  0  0  0  0  0  0  0  0  0
   -1.8433   -3.3280    0.8418 N   0  0  0  0  0  0  0  0  0  0  0  0
   -4.6652   -0.7011    0.0165 C   0  0  0  0  0  0  0  0  0  0  0  0
   -5.4577    0.6437   -0.0136 C   0  0  0  0  0  0  0  0  0  0  0  0
   -4.4958    1.7218   -0.6006 C   0  0  0  0  0  0  0  0  0  0  0  0
    2.9931    0.8256   -0.1219 N   0  0  0  0  0  0  0  0  0  0  0  0
    6.1360    1.8245   -0.4275 H   0  0  0  0  0  0  0  0  0  0  0  0
    4.7516    2.8573    0.0450 H   0  0  0  0  0  0  0  0  0  0  0  0
    4.8199    2.1369   -1.6008 H   0  0  0  0  0  0  0  0  0  0  0  0
    5.9415   -0.4444    0.5766 H   0  0  0  0  0  0  0  0  0  0  0  0
    0.8253    1.0847   -0.1342 H   0  0  0  0  0  0  0  0  0  0  0  0
   -4.8922   -1.2991   -0.8723 H   0  0  0  0  0  0  0  0  0  0  0  0
   -4.9017   -1.2784    0.9146 H   0  0  0  0  0  0  0  0  0  0  0  0
   -5.7215    0.9239    1.0150 H   0  0  0  0  0  0  0  0  0  0  0  0
   -6.3900    0.5642   -0.5812 H   0  0  0  0  0  0  0  0  0  0  0  0
   -4.6724    1.8508   -1.6733 H   0  0  0  0  0  0  0  0  0  0  0  0
   -4.6155    2.6806   -0.0892 H   0  0  0  0  0  0  0  0  0  0  0  0
  1  2  1  0
  2  3  1  0
  3  4  2  0
  4  5  1  0
  5  6  2  0
  5  7  1  0
  4  8  1  0
  8  9  1  0
  9 10  2  0
  9 11  1  0
 11 12  1  0
 12 13  1  0
 13 14  1  0
 14 15  2  0
 15 16  1  0
 16 17  1  0
 17 18  3  0
 15 19  1  0
 19 20  1  0
 20 21  1  0
  8 22  2  0
 22  2  1  0
 16 12  2  0
 21 14  1  0
  1 23  1  0
  1 24  1  0
  1 25  1  0
  3 26  1  0
 11 27  1  0
 19 28  1  0
 19 29  1  0
 20 30  1  0
 20 31  1  0
 21 32  1  0
 21 33  1  0
M  CHG  2   5   1   7  -1
M  END
$$$$
