
     RDKit          3D

 47 50  0  0  0  0  0  0  0  0999 V2000
   -7.5035   -0.9146   -2.3062 C   0  0  0  0  0  0  0  0  0  0  0  0
   -6.7658   -0.1133   -1.3811 O   0  0  0  0  0  0  0  0  0  0  0  0
   -5.6443   -0.7091   -0.9073 C   0  0  0  0  0  0  0  0  0  0  0  0
   -5.2431   -1.8224   -1.2071 O   0  0  0  0  0  0  0  0  0  0  0  0
   -4.9385    0.1800    0.0583 C   0  0  0  0  0  0  0  0  0  0  0  0
   -5.3878    1.4737    0.3451 C   0  0  0  0  0  0  0  0  0  0  0  0
   -4.7037    2.2562    1.2720 C   0  0  0  0  0  0  0  0  0  0  0  0
   -3.5649    1.7556    1.9074 C   0  0  0  0  0  0  0  0  0  0  0  0
   -3.0835    0.4644    1.6185 C   0  0  0  0  0  0  0  0  0  0  0  0
   -1.9154    0.0057    2.2963 N   0  0  0  0  0  0  0  0  0  0  0  0
   -1.4456    0.7015    3.3698 N   0  0  0  0  0  0  0  0  0  0  0  0
   -0.4167    0.0209    3.8458 N   0  0  0  0  0  0  0  0  0  0  0  0
   -0.1622   -1.0785    3.0828 N   0  0  0  0  0  0  0  0  0  0  0  0
   -1.0573   -1.0770    2.1203 C   0  0  0  0  0  0  0  0  0  0  0  0
   -1.0337   -2.1903    0.7922 S   0  0  0  0  0  0  0  0  0  0  0  0
    0.3487   -3.2831    1.2491 C   0  0  0  0  0  0  0  0  0  0  0  0
    1.7264   -2.6388    1.1286 C   0  0  0  0  0  0  0  0  0  0  0  0
    2.6426   -3.0400    1.8431 O   0  0  0  0  0  0  0  0  0  0  0  0
    1.8248   -1.7029    0.1256 N   0  0  0  0  0  0  0  0  0  0  0  0
    2.9149   -0.9491   -0.2168 C   0  0  0  0  0  0  0  0  0  0  0  0
    2.8368   -0.0672   -1.1897 N   0  0  0  0  0  0  0  0  0  0  0  0
    4.0549    0.5652   -1.3241 C   0  0  0  0  0  0  0  0  0  0  0  0
    5.0370    0.1398   -0.4541 C   0  0  0  0  0  0  0  0  0  0  0  0
    4.4255   -1.0726    0.5676 S   0  0  0  0  0  0  0  0  0  0  0  0
    6.4230    0.6812   -0.3849 C   0  0  0  0  0  0  0  0  0  0  0  0
    6.7381    1.4837   -1.6612 C   0  0  0  0  0  0  0  0  0  0  0  0
    5.5731    2.4050   -2.0689 C   0  0  0  0  0  0  0  0  0  0  0  0
    4.2856    1.6126   -2.3596 C   0  0  0  0  0  0  0  0  0  0  0  0
   -3.7886   -0.3208    0.6985 C   0  0  0  0  0  0  0  0  0  0  0  0
   -7.8151   -1.8548   -1.8396 H   0  0  0  0  0  0  0  0  0  0  0  0
   -6.9080   -1.1048   -3.2049 H   0  0  0  0  0  0  0  0  0  0  0  0
   -8.3995   -0.3587   -2.5957 H   0  0  0  0  0  0  0  0  0  0  0  0
   -6.2722    1.8823   -0.1383 H   0  0  0  0  0  0  0  0  0  0  0  0
   -5.0551    3.2602    1.5017 H   0  0  0  0  0  0  0  0  0  0  0  0
   -3.0576    2.4030    2.6232 H   0  0  0  0  0  0  0  0  0  0  0  0
    0.3324   -4.1501    0.5811 H   0  0  0  0  0  0  0  0  0  0  0  0
    0.2070   -3.6427    2.2733 H   0  0  0  0  0  0  0  0  0  0  0  0
    1.0029   -1.4763   -0.4172 H   0  0  0  0  0  0  0  0  0  0  0  0
    6.5054    1.3417    0.4867 H   0  0  0  0  0  0  0  0  0  0  0  0
    7.1586   -0.1215   -0.2650 H   0  0  0  0  0  0  0  0  0  0  0  0
    7.6458    2.0771   -1.5035 H   0  0  0  0  0  0  0  0  0  0  0  0
    6.9482    0.7907   -2.4864 H   0  0  0  0  0  0  0  0  0  0  0  0
    5.3863    3.1206   -1.2574 H   0  0  0  0  0  0  0  0  0  0  0  0
    5.8495    2.9896   -2.9537 H   0  0  0  0  0  0  0  0  0  0  0  0
    4.3707    1.1245   -3.3378 H   0  0  0  0  0  0  0  0  0  0  0  0
    3.4320    2.2976   -2.4058 H   0  0  0  0  0  0  0  0  0  0  0  0
   -3.5084   -1.3441    0.4750 H   0  0  0  0  0  0  0  0  0  0  0  0
  1  2  1  0
  2  3  1  0
  3  4  2  0
  3  5  1  0
  5  6  2  0
  6  7  1  0
  7  8  2  0
  8  9  1  0
  9 10  1  0
 10 11  1  0
 11 12  2  0
 12 13  1  0
 13 14  2  0
 14 15  1  0
 15 16  1  0
 16 17  1  0
 17 18  2  0
 17 19  1  0
 19 20  1  0
 20 21  2  0
 21 22  1  0
 22 23  2  0
 23 24  1  0
 23 25  1  0
 25 26  1  0
 26 27  1  0
 27 28  1  0
  9 29  2  0
 29  5  1  0
 14 10  1  0
 24 20  1  0
 28 22  1  0
  1 30  1  0
  1 31  1  0
  1 32  1  0
  6 33  1  0
  7 34  1  0
  8 35  1  0
 16 36  1  0
 16 37  1  0
 19 38  1  0
 25 39  1  0
 25 40  1  0
 26 41  1  0
 26 42  1  0
 27 43  1  0
 27 44  1  0
 28 45  1  0
 28 46  1  0
 29 47  1  0
M  END
$$$$
