
     RDKit          3D

 43 45  0  0  0  0  0  0  0  0999 V2000
   -4.8598   -2.7206   -1.0503 C   0  0  0  0  0  0  0  0  0  0  0  0
   -3.8803   -1.9772   -1.7673 O   0  0  0  0  0  0  0  0  0  0  0  0
   -3.4213   -0.8320   -1.1815 C   0  0  0  0  0  0  0  0  0  0  0  0
   -3.7840   -0.3465    0.0716 C   0  0  0  0  0  0  0  0  0  0  0  0
   -3.2267    0.8448    0.5600 C   0  0  0  0  0  0  0  0  0  0  0  0
   -2.2984    1.5731   -0.1945 C   0  0  0  0  0  0  0  0  0  0  0  0
   -1.7046    2.7175    0.2509 O   0  0  0  0  0  0  0  0  0  0  0  0
   -2.2558    3.3634    1.3906 C   0  0  0  0  0  0  0  0  0  0  0  0
   -1.9318    1.0740   -1.4508 C   0  0  0  0  0  0  0  0  0  0  0  0
   -0.7773    1.9081   -2.5201 S   0  0  0  0  0  6  0  0  0  0  0  0
   -0.5493    3.2702   -2.0875 O   0  0  0  0  0  0  0  0  0  0  0  0
   -1.2010    1.6463   -3.8832 O   0  0  0  0  0  0  0  0  0  0  0  0
    0.6407    1.0108   -2.3241 N   0  0  0  0  0  0  0  0  0  0  0  0
    1.1840    0.7650   -1.0329 C   0  0  0  0  0  0  0  0  0  0  0  0
    1.4446    1.7970   -0.1332 C   0  0  0  0  0  0  0  0  0  0  0  0
    1.9949    1.5112    1.1167 C   0  0  0  0  0  0  0  0  0  0  0  0
    2.3054    0.1963    1.4575 C   0  0  0  0  0  0  0  0  0  0  0  0
    2.8475    0.0071    2.6997 O   0  0  0  0  0  0  0  0  0  0  0  0
    2.0695   -0.8494    0.5566 C   0  0  0  0  0  0  0  0  0  0  0  0
    2.4226   -2.5585    0.9319 S   0  0  0  0  0  0  0  0  0  0  0  0
    4.1563   -2.4975    1.0726 C   0  0  0  0  0  0  0  0  0  0  0  0
    5.0104   -2.6457    0.0187 N   0  0  0  0  0  0  0  0  0  0  0  0
    6.1885   -2.4721    0.5705 C   0  0  0  0  0  0  0  0  0  0  0  0
    6.0372   -2.2161    1.8966 N   0  0  0  0  0  0  0  0  0  0  0  0
    4.7387   -2.2170    2.2443 N   0  0  0  0  0  0  0  0  0  0  0  0
    1.5045   -0.5517   -0.6916 C   0  0  0  0  0  0  0  0  0  0  0  0
   -2.4995   -0.1156   -1.9419 C   0  0  0  0  0  0  0  0  0  0  0  0
   -4.4537   -3.0945   -0.1042 H   0  0  0  0  0  0  0  0  0  0  0  0
   -5.7636   -2.1262   -0.8848 H   0  0  0  0  0  0  0  0  0  0  0  0
   -5.1384   -3.5845   -1.6598 H   0  0  0  0  0  0  0  0  0  0  0  0
   -4.4950   -0.8698    0.7034 H   0  0  0  0  0  0  0  0  0  0  0  0
   -3.5365    1.1720    1.5503 H   0  0  0  0  0  0  0  0  0  0  0  0
   -3.3230    3.5665    1.2551 H   0  0  0  0  0  0  0  0  0  0  0  0
   -1.7454    4.3244    1.5116 H   0  0  0  0  0  0  0  0  0  0  0  0
   -2.0762    2.7755    2.2965 H   0  0  0  0  0  0  0  0  0  0  0  0
    0.7404    0.2952   -3.0419 H   0  0  0  0  0  0  0  0  0  0  0  0
    1.2296    2.8309   -0.3868 H   0  0  0  0  0  0  0  0  0  0  0  0
    2.1886    2.3145    1.8205 H   0  0  0  0  0  0  0  0  0  0  0  0
    3.2375   -0.8911    2.7401 H   0  0  0  0  0  0  0  0  0  0  0  0
    7.1493   -2.5142    0.0772 H   0  0  0  0  0  0  0  0  0  0  0  0
    6.7456   -2.0364    2.6002 H   0  0  0  0  0  0  0  0  0  0  0  0
    1.3103   -1.3555   -1.3974 H   0  0  0  0  0  0  0  0  0  0  0  0
   -2.2247   -0.4921   -2.9252 H   0  0  0  0  0  0  0  0  0  0  0  0
  1  2  1  0
  2  3  1  0
  3  4  2  0
  4  5  1  0
  5  6  2  0
  6  7  1  0
  7  8  1  0
  6  9  1  0
  9 10  1  0
 10 11  2  0
 10 12  2  0
 10 13  1  0
 13 14  1  0
 14 15  2  0
 15 16  1  0
 16 17  2  0
 17 18  1  0
 17 19  1  0
 19 20  1  0
 20 21  1  0
 21 22  1  0
 22 23  2  0
 23 24  1  0
 24 25  1  0
 19 26  2  0
  9 27  2  0
 27  3  1  0
 26 14  1  0
 25 21  2  0
  1 28  1  0
  1 29  1  0
  1 30  1  0
  4 31  1  0
  5 32  1  0
  8 33  1  0
  8 34  1  0
  8 35  1  0
 13 36  1  0
 15 37  1  0
 16 38  1  0
 18 39  1  0
 23 40  1  0
 24 41  1  0
 26 42  1  0
 27 43  1  0
M  END
$$$$
