
     RDKit          3D

 24 26  0  0  0  0  0  0  0  0999 V2000
   -4.3246   -1.1593   -1.7700 F   0  0  0  0  0  0  0  0  0  0  0  0
   -3.2430   -0.7003   -1.1306 C   0  0  0  0  0  0  0  0  0  0  0  0
   -2.4136    0.2199   -1.7618 C   0  0  0  0  0  0  0  0  0  0  0  0
   -1.2813    0.6994   -1.0994 C   0  0  0  0  0  0  0  0  0  0  0  0
   -0.9863    0.2505    0.1968 C   0  0  0  0  0  0  0  0  0  0  0  0
    0.1962    0.7302    0.8777 C   0  0  0  0  0  0  0  0  0  0  0  0
    0.1654    1.5661    1.9799 C   0  0  0  0  0  0  0  0  0  0  0  0
    1.7804    1.9356    2.4947 S   0  0  0  0  0  0  0  0  0  0  0  0
    2.4252    0.9746    1.2661 C   0  0  0  0  0  0  0  0  0  0  0  0
    1.4915    0.4276    0.5301 N   0  0  0  0  0  4  0  0  0  0  0  0
    1.9697   -0.4045   -0.5651 C   0  0  0  0  0  0  0  0  0  0  0  0
    3.4459   -0.7404   -0.2933 C   0  0  0  0  0  0  0  0  0  0  0  0
    4.0469    0.5760    0.8330 S   0  0  0  0  0  0  0  0  0  0  0  0
   -1.8345   -0.6740    0.8243 C   0  0  0  0  0  0  0  0  0  0  0  0
   -2.9644   -1.1496    0.1550 C   0  0  0  0  0  0  0  0  0  0  0  0
   -2.6650    0.5621   -2.7627 H   0  0  0  0  0  0  0  0  0  0  0  0
   -0.6580    1.4360   -1.6034 H   0  0  0  0  0  0  0  0  0  0  0  0
   -0.6876    1.9863    2.4991 H   0  0  0  0  0  0  0  0  0  0  0  0
    1.8720    0.1663   -1.4963 H   0  0  0  0  0  0  0  0  0  0  0  0
    1.3731   -1.3185   -0.6478 H   0  0  0  0  0  0  0  0  0  0  0  0
    4.0345   -0.7845   -1.2134 H   0  0  0  0  0  0  0  0  0  0  0  0
    3.5274   -1.6989    0.2289 H   0  0  0  0  0  0  0  0  0  0  0  0
   -1.6358   -1.0358    1.8322 H   0  0  0  0  0  0  0  0  0  0  0  0
   -3.6343   -1.8646    0.6262 H   0  0  0  0  0  0  0  0  0  0  0  0
  1  2  1  0
  2  3  2  0
  3  4  1  0
  4  5  2  0
  5  6  1  0
  6  7  2  0
  7  8  1  0
  8  9  1  0
  9 10  2  0
 10 11  1  0
 11 12  1  0
 12 13  1  0
  5 14  1  0
 14 15  2  0
 15  2  1  0
 10  6  1  0
 13  9  1  0
  3 16  1  0
  4 17  1  0
  7 18  1  0
 11 19  1  0
 11 20  1  0
 12 21  1  0
 12 22  1  0
 14 23  1  0
 15 24  1  0
M  CHG  1  10   1
M  END
$$$$
