
     RDKit          3D

 56 61  0  0  0  0  0  0  0  0999 V2000
    8.3566   -0.4860   -0.9862 C   0  0  0  0  0  0  0  0  0  0  0  0
    6.8834   -0.4225   -0.7045 C   0  0  0  0  0  0  0  0  0  0  0  0
    6.3682    0.5198    0.1904 C   0  0  0  0  0  0  0  0  0  0  0  0
    4.9979    0.5651    0.4667 C   0  0  0  0  0  0  0  0  0  0  0  0
    4.1286   -0.3405   -0.1416 C   0  0  0  0  0  0  0  0  0  0  0  0
    2.5870   -0.2950    0.1546 C   0  0  0  0  0  0  0  0  0  0  0  0
    1.6305   -1.1941   -0.3048 C   0  0  0  0  0  0  0  0  0  0  0  0
    0.3841   -0.8233    0.1992 N   0  0  0  0  0  4  0  0  0  0  0  0
   -0.9169   -1.4551   -0.0897 C   0  0  0  0  0  0  0  0  0  0  0  0
   -1.7323   -0.5666   -1.0553 C   0  0  0  0  0  0  0  0  0  0  0  0
   -1.1254    0.0047   -1.9650 O   0  0  0  0  0  0  0  0  0  0  0  0
   -3.0780   -0.3525   -0.7028 N   0  0  0  0  0  0  0  0  0  0  0  0
   -3.7461    0.8878   -1.0212 C   0  0  0  0  0  0  0  0  0  0  0  0
   -3.4326    1.6049   -2.1895 C   0  0  0  0  0  0  0  0  0  0  0  0
   -4.0561    2.8205   -2.4934 C   0  0  0  0  0  0  0  0  0  0  0  0
   -5.0066    3.3503   -1.6331 C   0  0  0  0  0  0  0  0  0  0  0  0
   -5.3380    2.6614   -0.4710 C   0  0  0  0  0  0  0  0  0  0  0  0
   -4.7201    1.4387   -0.1648 C   0  0  0  0  0  0  0  0  0  0  0  0
   -5.1473    0.6806    1.3867 S   0  0  0  0  0  0  0  0  0  0  0  0
   -4.8188   -1.0050    0.9558 C   0  0  0  0  0  0  0  0  0  0  0  0
   -5.5276   -2.0089    1.6308 C   0  0  0  0  0  0  0  0  0  0  0  0
   -5.3061   -3.3526    1.3393 C   0  0  0  0  0  0  0  0  0  0  0  0
   -4.3846   -3.7013    0.3601 C   0  0  0  0  0  0  0  0  0  0  0  0
   -3.6669   -2.7058   -0.3078 C   0  0  0  0  0  0  0  0  0  0  0  0
   -3.8497   -1.3430   -0.0010 C   0  0  0  0  0  0  0  0  0  0  0  0
    0.5538    0.2966    0.8927 C   0  0  0  0  0  0  0  0  0  0  0  0
    1.8453    0.6086    0.8962 N   0  0  0  0  0  0  0  0  0  0  0  0
    2.1028    1.8475    1.6164 C   0  0  0  0  0  0  0  0  0  0  0  0
    0.6847    2.4450    1.8351 C   0  0  0  0  0  0  0  0  0  0  0  0
   -0.2868    1.2651    1.6339 C   0  0  0  0  0  0  0  0  0  0  0  0
    4.6422   -1.3022   -1.0184 C   0  0  0  0  0  0  0  0  0  0  0  0
    6.0123   -1.3421   -1.2953 C   0  0  0  0  0  0  0  0  0  0  0  0
    8.8339    0.4829   -0.8023 H   0  0  0  0  0  0  0  0  0  0  0  0
    8.5379   -0.7438   -2.0352 H   0  0  0  0  0  0  0  0  0  0  0  0
    8.8288   -1.2384   -0.3467 H   0  0  0  0  0  0  0  0  0  0  0  0
    7.0351    1.2285    0.6775 H   0  0  0  0  0  0  0  0  0  0  0  0
    4.6537    1.3073    1.1746 H   0  0  0  0  0  0  0  0  0  0  0  0
    1.6793   -2.0662   -0.9353 H   0  0  0  0  0  0  0  0  0  0  0  0
   -0.7445   -2.4307   -0.5542 H   0  0  0  0  0  0  0  0  0  0  0  0
   -1.4106   -1.5861    0.8772 H   0  0  0  0  0  0  0  0  0  0  0  0
   -2.7321    1.2218   -2.9266 H   0  0  0  0  0  0  0  0  0  0  0  0
   -3.8038    3.3447   -3.4130 H   0  0  0  0  0  0  0  0  0  0  0  0
   -5.4939    4.2950   -1.8679 H   0  0  0  0  0  0  0  0  0  0  0  0
   -6.0824    3.0889    0.1986 H   0  0  0  0  0  0  0  0  0  0  0  0
   -6.2682   -1.7498    2.3862 H   0  0  0  0  0  0  0  0  0  0  0  0
   -5.8729   -4.1231    1.8587 H   0  0  0  0  0  0  0  0  0  0  0  0
   -4.2444   -4.7485    0.0998 H   0  0  0  0  0  0  0  0  0  0  0  0
   -3.0115   -3.0201   -1.1167 H   0  0  0  0  0  0  0  0  0  0  0  0
    2.5814    1.6071    2.5703 H   0  0  0  0  0  0  0  0  0  0  0  0
    2.7251    2.5243    1.0267 H   0  0  0  0  0  0  0  0  0  0  0  0
    0.5735    2.9250    2.8113 H   0  0  0  0  0  0  0  0  0  0  0  0
    0.4952    3.2016    1.0644 H   0  0  0  0  0  0  0  0  0  0  0  0
   -1.1583    1.5225    1.0313 H   0  0  0  0  0  0  0  0  0  0  0  0
   -0.5655    0.7830    2.5734 H   0  0  0  0  0  0  0  0  0  0  0  0
    4.0076   -2.0307   -1.5133 H   0  0  0  0  0  0  0  0  0  0  0  0
    6.3993   -2.0949   -1.9812 H   0  0  0  0  0  0  0  0  0  0  0  0
  1  2  1  0
  2  3  2  0
  3  4  1  0
  4  5  2  0
  5  6  1  0
  6  7  2  0
  7  8  1  0
  8  9  1  0
  9 10  1  0
 10 11  2  0
 10 12  1  0
 12 13  1  0
 13 14  2  0
 14 15  1  0
 15 16  2  0
 16 17  1  0
 17 18  2  0
 18 19  1  0
 19 20  1  0
 20 21  2  0
 21 22  1  0
 22 23  2  0
 23 24  1  0
 24 25  2  0
  8 26  2  0
 26 27  1  0
 27 28  1  0
 28 29  1  0
 29 30  1  0
  5 31  1  0
 31 32  2  0
 32  2  1  0
 27  6  1  0
 25 12  1  0
 30 26  1  0
 18 13  1  0
 25 20  1  0
  1 33  1  0
  1 34  1  0
  1 35  1  0
  3 36  1  0
  4 37  1  0
  7 38  1  0
  9 39  1  0
  9 40  1  0
 14 41  1  0
 15 42  1  0
 16 43  1  0
 17 44  1  0
 21 45  1  0
 22 46  1  0
 23 47  1  0
 24 48  1  0
 28 49  1  0
 28 50  1  0
 29 51  1  0
 29 52  1  0
 30 53  1  0
 30 54  1  0
 31 55  1  0
 32 56  1  0
M  CHG  1   8   1
M  END
$$$$
