
     RDKit          3D

 46 48  0  0  0  0  0  0  0  0999 V2000
   -3.3430   -3.3128    1.6809 C   0  0  0  0  0  0  0  0  0  0  0  0
   -2.7705   -2.3683    2.4389 C   0  0  0  0  0  0  0  0  0  0  0  0
   -2.0242   -1.1394    1.9913 C   0  0  0  0  0  0  0  0  0  0  0  0
   -1.8497   -0.9970    0.5572 N   0  0  0  0  0  0  0  0  0  0  0  0
   -0.8365   -1.5242   -0.2076 C   0  0  0  0  0  0  0  0  0  0  0  0
    0.3411   -2.6410    0.3867 S   0  0  0  0  0  0  0  0  0  0  0  0
    1.5523   -2.6527   -0.9714 C   0  0  0  0  0  0  0  0  0  0  0  0
    2.5743   -1.5466   -0.8417 C   0  0  0  0  0  0  0  0  0  0  0  0
    3.6853   -1.7036    0.0004 C   0  0  0  0  0  0  0  0  0  0  0  0
    4.6287   -0.6837    0.1308 C   0  0  0  0  0  0  0  0  0  0  0  0
    4.4727    0.5146   -0.5767 C   0  0  0  0  0  0  0  0  0  0  0  0
    5.4513    1.6308   -0.4785 C   0  0  0  0  0  0  0  0  0  0  0  0
    5.3614    2.6701   -1.1152 O   0  0  0  0  0  0  0  0  0  0  0  0
    6.4346    1.3277    0.4050 O   0  0  0  0  0  0  0  0  0  0  0  0
    7.4406    2.3376    0.5249 C   0  0  0  0  0  0  0  0  0  0  0  0
    3.3610    0.6789   -1.4122 C   0  0  0  0  0  0  0  0  0  0  0  0
    2.4196   -0.3433   -1.5437 C   0  0  0  0  0  0  0  0  0  0  0  0
   -0.9281   -1.0766   -1.4358 N   0  0  0  0  0  0  0  0  0  0  0  0
   -1.9987   -0.2234   -1.4903 N   0  0  0  0  0  0  0  0  0  0  0  0
   -2.5757   -0.2019   -0.3026 C   0  0  0  0  0  0  0  0  0  0  0  0
   -3.7403    0.5816   -0.0189 C   0  0  0  0  0  0  0  0  0  0  0  0
   -5.1128   -0.0388    0.7973 S   0  0  0  0  0  0  0  0  0  0  0  0
   -5.9115    1.4630    0.6147 C   0  0  0  0  0  0  0  0  0  0  0  0
   -7.1572    1.6618    1.0795 N   0  0  0  0  0  0  0  0  0  0  0  0
   -5.2349    2.3827   -0.0245 N   0  0  0  0  0  0  0  0  0  0  0  0
   -3.9948    1.8887   -0.4080 C   0  0  0  0  0  0  0  0  0  0  0  0
   -3.0867    2.7883   -1.1735 C   0  0  0  0  0  0  0  0  0  0  0  0
   -3.8489   -4.1593    2.1363 H   0  0  0  0  0  0  0  0  0  0  0  0
   -3.3258   -3.2834    0.5960 H   0  0  0  0  0  0  0  0  0  0  0  0
   -2.8374   -2.4848    3.5182 H   0  0  0  0  0  0  0  0  0  0  0  0
   -1.0280   -1.1317    2.4483 H   0  0  0  0  0  0  0  0  0  0  0  0
   -2.5292   -0.2434    2.3660 H   0  0  0  0  0  0  0  0  0  0  0  0
    2.0734   -3.6151   -0.9414 H   0  0  0  0  0  0  0  0  0  0  0  0
    1.0579   -2.6221   -1.9489 H   0  0  0  0  0  0  0  0  0  0  0  0
    3.8218   -2.6260    0.5641 H   0  0  0  0  0  0  0  0  0  0  0  0
    5.4804   -0.8395    0.7886 H   0  0  0  0  0  0  0  0  0  0  0  0
    8.1154    2.0450    1.3321 H   0  0  0  0  0  0  0  0  0  0  0  0
    8.0184    2.4005   -0.4033 H   0  0  0  0  0  0  0  0  0  0  0  0
    6.9976    3.3066    0.7796 H   0  0  0  0  0  0  0  0  0  0  0  0
    3.2207    1.6062   -1.9651 H   0  0  0  0  0  0  0  0  0  0  0  0
    1.5597   -0.1930   -2.1951 H   0  0  0  0  0  0  0  0  0  0  0  0
   -7.7482    0.8429    1.1669 H   0  0  0  0  0  0  0  0  0  0  0  0
   -7.6317    2.4519    0.6557 H   0  0  0  0  0  0  0  0  0  0  0  0
   -3.5425    3.7680   -1.3246 H   0  0  0  0  0  0  0  0  0  0  0  0
   -2.8654    2.3706   -2.1600 H   0  0  0  0  0  0  0  0  0  0  0  0
   -2.1464    2.9343   -0.6370 H   0  0  0  0  0  0  0  0  0  0  0  0
  1  2  2  0
  2  3  1  0
  3  4  1  0
  4  5  1  0
  5  6  1  0
  6  7  1  0
  7  8  1  0
  8  9  2  0
  9 10  1  0
 10 11  2  0
 11 12  1  0
 12 13  2  0
 12 14  1  0
 14 15  1  0
 11 16  1  0
 16 17  2  0
  5 18  2  0
 18 19  1  0
 19 20  2  0
 20 21  1  0
 21 22  1  0
 22 23  1  0
 23 24  1  0
 23 25  2  0
 25 26  1  0
 26 27  1  0
 20  4  1  0
 26 21  2  0
 17  8  1  0
  1 28  1  0
  1 29  1  0
  2 30  1  0
  3 31  1  0
  3 32  1  0
  7 33  1  0
  7 34  1  0
  9 35  1  0
 10 36  1  0
 15 37  1  0
 15 38  1  0
 15 39  1  0
 16 40  1  0
 17 41  1  0
 24 42  1  0
 24 43  1  0
 27 44  1  0
 27 45  1  0
 27 46  1  0
M  END
$$$$
