
     RDKit          3D

 41 42  0  0  0  0  0  0  0  0999 V2000
    5.8338    1.4690   -1.6608 C   0  0  0  0  0  0  0  0  0  0  0  0
    4.8266    1.0047   -0.7612 O   0  0  0  0  0  0  0  0  0  0  0  0
    4.6729   -0.3479   -0.7516 C   0  0  0  0  0  0  0  0  0  0  0  0
    5.3250   -1.1192   -1.4442 O   0  0  0  0  0  0  0  0  0  0  0  0
    3.6704   -0.7546    0.2186 C   0  0  0  0  0  0  0  0  0  0  0  0
    3.5273   -2.0433    0.7117 C   0  0  0  0  0  0  0  0  0  0  0  0
    2.5108   -2.0372    1.6830 C   0  0  0  0  0  0  0  0  0  0  0  0
    2.0017   -0.7513    1.7722 C   0  0  0  0  0  0  0  0  0  0  0  0
    0.7269   -0.1111    2.8364 S   0  0  0  0  0  6  0  0  0  0  0  0
    1.2244    1.1560    3.3176 O   0  0  0  0  0  0  0  0  0  0  0  0
    0.3789   -1.1944    3.7258 O   0  0  0  0  0  0  0  0  0  0  0  0
   -0.5997    0.2081    1.8600 N   0  0  0  0  0  0  0  0  0  0  0  0
   -1.3130   -0.9709    1.3506 C   0  0  0  0  0  0  0  0  0  0  0  0
   -2.3601   -0.5569    0.3461 C   0  0  0  0  0  0  0  0  0  0  0  0
   -1.9835   -0.1675   -0.9453 C   0  0  0  0  0  0  0  0  0  0  0  0
   -2.9490    0.2344   -1.8709 C   0  0  0  0  0  0  0  0  0  0  0  0
   -4.3015    0.2605   -1.5249 C   0  0  0  0  0  0  0  0  0  0  0  0
   -5.1389    0.6733   -2.5240 O   0  0  0  0  0  0  0  0  0  0  0  0
   -6.5290    0.7052   -2.2264 C   0  0  0  0  0  0  0  0  0  0  0  0
   -4.6820   -0.1178   -0.2375 C   0  0  0  0  0  0  0  0  0  0  0  0
   -3.7170   -0.5210    0.6933 C   0  0  0  0  0  0  0  0  0  0  0  0
    2.6801    0.0086    0.8282 N   0  0  0  0  0  0  0  0  0  0  0  0
    2.3801    1.3906    0.5019 C   0  0  0  0  0  0  0  0  0  0  0  0
    5.8747    2.5593   -1.5886 H   0  0  0  0  0  0  0  0  0  0  0  0
    5.5815    1.2001   -2.6913 H   0  0  0  0  0  0  0  0  0  0  0  0
    6.8129    1.0671   -1.3818 H   0  0  0  0  0  0  0  0  0  0  0  0
    4.1374   -2.8900    0.4172 H   0  0  0  0  0  0  0  0  0  0  0  0
    2.1791   -2.8753    2.2846 H   0  0  0  0  0  0  0  0  0  0  0  0
   -1.2168    0.8794    2.3172 H   0  0  0  0  0  0  0  0  0  0  0  0
   -0.6206   -1.6677    0.8655 H   0  0  0  0  0  0  0  0  0  0  0  0
   -1.7932   -1.5003    2.1815 H   0  0  0  0  0  0  0  0  0  0  0  0
   -0.9356   -0.1719   -1.2371 H   0  0  0  0  0  0  0  0  0  0  0  0
   -2.6447    0.5320   -2.8716 H   0  0  0  0  0  0  0  0  0  0  0  0
   -6.7442    1.4174   -1.4230 H   0  0  0  0  0  0  0  0  0  0  0  0
   -7.0551    1.0465   -3.1231 H   0  0  0  0  0  0  0  0  0  0  0  0
   -6.9035   -0.2940   -1.9807 H   0  0  0  0  0  0  0  0  0  0  0  0
   -5.7205   -0.1096    0.0765 H   0  0  0  0  0  0  0  0  0  0  0  0
   -4.0379   -0.8083    1.6927 H   0  0  0  0  0  0  0  0  0  0  0  0
    3.0830    2.0300    1.0408 H   0  0  0  0  0  0  0  0  0  0  0  0
    2.4633    1.5282   -0.5790 H   0  0  0  0  0  0  0  0  0  0  0  0
    1.3551    1.6395    0.7736 H   0  0  0  0  0  0  0  0  0  0  0  0
  1  2  1  0
  2  3  1  0
  3  4  2  0
  3  5  1  0
  5  6  2  0
  6  7  1  0
  7  8  2  0
  8  9  1  0
  9 10  2  0
  9 11  2  0
  9 12  1  0
 12 13  1  0
 13 14  1  0
 14 15  2  0
 15 16  1  0
 16 17  2  0
 17 18  1  0
 18 19  1  0
 17 20  1  0
 20 21  2  0
  8 22  1  0
 22 23  1  0
 22  5  1  0
 21 14  1  0
  1 24  1  0
  1 25  1  0
  1 26  1  0
  6 27  1  0
  7 28  1  0
 12 29  1  0
 13 30  1  0
 13 31  1  0
 15 32  1  0
 16 33  1  0
 19 34  1  0
 19 35  1  0
 19 36  1  0
 20 37  1  0
 21 38  1  0
 23 39  1  0
 23 40  1  0
 23 41  1  0
M  END
$$$$
