
     RDKit          3D

 47 50  0  0  0  0  0  0  0  0999 V2000
   -2.3383   -3.2245    0.7919 C   0  0  0  0  0  0  0  0  0  0  0  0
   -1.5324   -2.0744    0.2587 C   0  0  0  0  0  0  0  0  0  0  0  0
   -0.3240   -2.3121   -0.1704 N   0  0  0  0  0  0  0  0  0  0  0  0
    0.4749   -1.2780   -0.6699 N   0  0  0  0  0  0  0  0  0  0  0  0
    1.8294   -1.6281   -1.0607 C   0  0  0  0  0  0  0  0  0  0  0  0
    2.8274   -1.2200    0.0263 C   0  0  0  0  0  0  0  0  0  0  0  0
    2.5468   -1.1367    1.2197 O   0  0  0  0  0  0  0  0  0  0  0  0
    4.1094   -1.0106   -0.4486 N   0  0  0  0  0  0  0  0  0  0  0  0
    5.1250   -0.4990    0.4427 C   0  0  0  0  0  0  0  0  0  0  0  0
    6.4473   -0.6114   -0.2431 C   0  0  0  0  0  0  0  0  0  0  0  0
    7.3265   -1.6773   -0.2345 C   0  0  0  0  0  0  0  0  0  0  0  0
    8.4943   -1.4240   -1.0101 C   0  0  0  0  0  0  0  0  0  0  0  0
    8.4683   -0.1742   -1.5865 C   0  0  0  0  0  0  0  0  0  0  0  0
    7.0430    0.6845   -1.1943 S   0  0  0  0  0  0  0  0  0  0  0  0
    0.0843    0.0689   -0.7936 C   0  0  0  0  0  0  0  0  0  0  0  0
    0.8153    0.9402   -1.2628 O   0  0  0  0  0  0  0  0  0  0  0  0
   -1.2706    0.3061   -0.3166 C   0  0  0  0  0  0  0  0  0  0  0  0
   -1.9069    1.4784   -0.2873 N   0  0  0  0  0  0  0  0  0  0  0  0
   -3.1556    1.1932    0.1734 N   0  0  0  0  0  0  0  0  0  0  0  0
   -4.1489    2.2212    0.1292 C   0  0  0  0  0  0  0  0  0  0  0  0
   -3.7356    3.5549   -0.0382 C   0  0  0  0  0  0  0  0  0  0  0  0
   -4.6716    4.5905   -0.0919 C   0  0  0  0  0  0  0  0  0  0  0  0
   -6.0304    4.3063    0.0049 C   0  0  0  0  0  0  0  0  0  0  0  0
   -6.4537    2.9865    0.1437 C   0  0  0  0  0  0  0  0  0  0  0  0
   -5.5198    1.9456    0.1994 C   0  0  0  0  0  0  0  0  0  0  0  0
   -3.2339   -0.1331    0.6175 C   0  0  0  0  0  0  0  0  0  0  0  0
   -4.3511   -0.6920    1.4219 C   0  0  0  0  0  0  0  0  0  0  0  0
   -2.0537   -0.7294    0.2045 C   0  0  0  0  0  0  0  0  0  0  0  0
   -1.8552   -4.1743    0.5435 H   0  0  0  0  0  0  0  0  0  0  0  0
   -2.4087   -3.1466    1.8800 H   0  0  0  0  0  0  0  0  0  0  0  0
   -3.3403   -3.2204    0.3553 H   0  0  0  0  0  0  0  0  0  0  0  0
    1.9014   -2.7101   -1.2143 H   0  0  0  0  0  0  0  0  0  0  0  0
    2.0730   -1.1221   -2.0012 H   0  0  0  0  0  0  0  0  0  0  0  0
    4.2176   -0.7862   -1.4297 H   0  0  0  0  0  0  0  0  0  0  0  0
    4.8745    0.5377    0.6941 H   0  0  0  0  0  0  0  0  0  0  0  0
    5.1179   -1.0797    1.3721 H   0  0  0  0  0  0  0  0  0  0  0  0
    7.1379   -2.5984    0.3049 H   0  0  0  0  0  0  0  0  0  0  0  0
    9.3121   -2.1227   -1.1380 H   0  0  0  0  0  0  0  0  0  0  0  0
    9.2183    0.2789   -2.2204 H   0  0  0  0  0  0  0  0  0  0  0  0
   -2.6786    3.8073   -0.1168 H   0  0  0  0  0  0  0  0  0  0  0  0
   -4.3350    5.6171   -0.2124 H   0  0  0  0  0  0  0  0  0  0  0  0
   -6.7590    5.1116   -0.0409 H   0  0  0  0  0  0  0  0  0  0  0  0
   -7.5170    2.7641    0.1946 H   0  0  0  0  0  0  0  0  0  0  0  0
   -5.9081    0.9359    0.2490 H   0  0  0  0  0  0  0  0  0  0  0  0
   -4.8127    0.0643    2.0634 H   0  0  0  0  0  0  0  0  0  0  0  0
   -3.9924   -1.4697    2.1018 H   0  0  0  0  0  0  0  0  0  0  0  0
   -5.1111   -1.1381    0.7738 H   0  0  0  0  0  0  0  0  0  0  0  0
  1  2  1  0
  2  3  2  0
  3  4  1  0
  4  5  1  0
  5  6  1  0
  6  7  2  0
  6  8  1  0
  8  9  1  0
  9 10  1  0
 10 11  2  0
 11 12  1  0
 12 13  2  0
 13 14  1  0
  4 15  1  0
 15 16  2  0
 15 17  1  0
 17 18  2  0
 18 19  1  0
 19 20  1  0
 20 21  2  0
 21 22  1  0
 22 23  2  0
 23 24  1  0
 24 25  2  0
 19 26  1  0
 26 27  1  0
 26 28  2  0
 28  2  1  0
 14 10  1  0
 28 17  1  0
 25 20  1  0
  1 29  1  0
  1 30  1  0
  1 31  1  0
  5 32  1  0
  5 33  1  0
  8 34  1  0
  9 35  1  0
  9 36  1  0
 11 37  1  0
 12 38  1  0
 13 39  1  0
 21 40  1  0
 22 41  1  0
 23 42  1  0
 24 43  1  0
 25 44  1  0
 27 45  1  0
 27 46  1  0
 27 47  1  0
M  END
$$$$
