
     RDKit          3D

 41 44  0  0  0  0  0  0  0  0999 V2000
    0.5633   -2.2933    0.0625 O   0  0  0  0  0  0  0  0  0  0  0  0
    0.3576   -1.2875    0.7371 C   0  0  0  0  0  0  0  0  0  0  0  0
   -1.0023   -1.0588    1.4090 C   0  0  0  0  0  0  0  0  0  0  0  0
   -1.7961   -0.0300    0.7263 N   0  0  0  0  0  0  0  0  0  0  0  0
   -1.4797    1.3010    0.9763 C   0  0  0  0  0  0  0  0  0  0  0  0
   -0.5957    1.6232    1.7776 O   0  0  0  0  0  0  0  0  0  0  0  0
   -2.1794    2.3576    0.1544 C   0  0  0  0  0  0  0  0  0  0  0  0
   -3.5137    2.7532    0.7461 C   0  0  0  0  0  0  0  0  0  0  0  0
   -4.6237    1.3815    1.1817 S   0  0  0  0  0  0  0  0  0  0  0  0
   -4.1603    0.1614   -0.0451 C   0  0  0  0  0  0  0  0  0  0  0  0
   -5.1901   -0.2980   -0.8813 C   0  0  0  0  0  0  0  0  0  0  0  0
   -4.9722   -1.3503   -1.7688 C   0  0  0  0  0  0  0  0  0  0  0  0
   -3.7292   -1.9697   -1.8122 C   0  0  0  0  0  0  0  0  0  0  0  0
   -2.6993   -1.5313   -0.9766 C   0  0  0  0  0  0  0  0  0  0  0  0
   -2.8885   -0.4527   -0.0958 C   0  0  0  0  0  0  0  0  0  0  0  0
    1.2548   -0.2599    0.9746 N   0  0  0  0  0  0  0  0  0  0  0  0
    2.5831   -0.1455    0.5219 C   0  0  0  0  0  0  0  0  0  0  0  0
    3.2636    1.0482    0.8536 C   0  0  0  0  0  0  0  0  0  0  0  0
    4.5873    1.2636    0.4544 C   0  0  0  0  0  0  0  0  0  0  0  0
    5.2026    0.2703   -0.2716 C   0  0  0  0  0  0  0  0  0  0  0  0
    4.5488   -0.8939   -0.5968 C   0  0  0  0  0  0  0  0  0  0  0  0
    3.2425   -1.1330   -0.2161 C   0  0  0  0  0  0  0  0  0  0  0  0
    5.3337   -1.7433   -1.3145 O   0  0  0  0  0  0  0  0  0  0  0  0
    6.5536   -0.9794   -1.4016 C   0  0  0  0  0  0  0  0  0  0  0  0
    6.4772    0.3017   -0.7424 O   0  0  0  0  0  0  0  0  0  0  0  0
   -0.8306   -0.7533    2.4488 H   0  0  0  0  0  0  0  0  0  0  0  0
   -1.5482   -2.0083    1.4551 H   0  0  0  0  0  0  0  0  0  0  0  0
   -1.5261    3.2382    0.1118 H   0  0  0  0  0  0  0  0  0  0  0  0
   -2.2758    2.0274   -0.8864 H   0  0  0  0  0  0  0  0  0  0  0  0
   -3.3542    3.3318    1.6627 H   0  0  0  0  0  0  0  0  0  0  0  0
   -4.0412    3.4083    0.0445 H   0  0  0  0  0  0  0  0  0  0  0  0
   -6.1814    0.1488   -0.8319 H   0  0  0  0  0  0  0  0  0  0  0  0
   -5.7778   -1.6969   -2.4115 H   0  0  0  0  0  0  0  0  0  0  0  0
   -3.5551   -2.7970   -2.4967 H   0  0  0  0  0  0  0  0  0  0  0  0
   -1.7367   -2.0308   -1.0586 H   0  0  0  0  0  0  0  0  0  0  0  0
    0.8857    0.5382    1.4963 H   0  0  0  0  0  0  0  0  0  0  0  0
    2.7622    1.8246    1.4284 H   0  0  0  0  0  0  0  0  0  0  0  0
    5.1104    2.1786    0.7075 H   0  0  0  0  0  0  0  0  0  0  0  0
    2.7767   -2.0692   -0.4961 H   0  0  0  0  0  0  0  0  0  0  0  0
    6.7901   -0.8155   -2.4593 H   0  0  0  0  0  0  0  0  0  0  0  0
    7.3643   -1.5599   -0.9463 H   0  0  0  0  0  0  0  0  0  0  0  0
  1  2  2  0
  2  3  1  0
  3  4  1  0
  4  5  1  0
  5  6  2  0
  5  7  1  0
  7  8  1  0
  8  9  1  0
  9 10  1  0
 10 11  2  0
 11 12  1  0
 12 13  2  0
 13 14  1  0
 14 15  2  0
  2 16  1  0
 16 17  1  0
 17 18  2  0
 18 19  1  0
 19 20  2  0
 20 21  1  0
 21 22  2  0
 21 23  1  0
 23 24  1  0
 24 25  1  0
 15  4  1  0
 22 17  1  0
 15 10  1  0
 25 20  1  0
  3 26  1  0
  3 27  1  0
  7 28  1  0
  7 29  1  0
  8 30  1  0
  8 31  1  0
 11 32  1  0
 12 33  1  0
 13 34  1  0
 14 35  1  0
 16 36  1  0
 18 37  1  0
 19 38  1  0
 22 39  1  0
 24 40  1  0
 24 41  1  0
M  END
$$$$
