
     RDKit          3D

102104  0  0  0  0  0  0  0  0999 V2000
    8.5576    0.7435    0.9175 C   0  0  0  0  0  0  0  0  0  0  0  0
    7.2424    0.7513    1.6825 C   0  0  0  0  0  0  0  0  0  0  0  0
    6.3895    1.9672    1.3153 C   0  0  0  0  0  0  0  0  0  0  0  0
    5.0931    2.0730    2.1255 C   0  0  0  0  0  0  0  0  0  0  0  0
    4.1308    0.8894    1.9964 C   0  0  0  0  0  0  0  0  0  0  0  0
    3.6821    0.5459    0.5688 C   0  0  0  0  0  0  0  0  0  0  0  0
    3.1137    1.6894   -0.2762 C   0  0  0  0  0  0  0  0  0  0  0  0
    1.8976    2.3880    0.2941 C   0  0  0  0  0  0  0  0  0  0  0  0
    1.5550    2.3443    1.4709 O   0  0  0  0  0  0  0  0  0  0  0  0
    1.2182    3.1374   -0.6557 N   0  0  0  0  0  0  0  0  0  0  0  0
   -0.1701    3.5014   -0.3823 C   0  0  0  0  0  0  0  0  0  0  0  0
   -0.5661    4.7582   -1.1608 C   0  0  0  0  0  0  0  0  0  0  0  0
   -1.9974    5.2640   -0.8869 C   0  0  0  0  0  0  0  0  0  0  0  0
   -2.2919    6.4816   -1.7697 C   0  0  0  0  0  0  0  0  0  0  0  0
   -2.2219    5.6281    0.5838 C   0  0  0  0  0  0  0  0  0  0  0  0
   -0.9773    2.2758   -0.8590 C   0  0  0  0  0  0  0  0  0  0  0  0
   -0.7051    1.7019   -1.9133 O   0  0  0  0  0  0  0  0  0  0  0  0
   -2.0114    1.9027   -0.0232 N   0  0  0  0  0  0  0  0  0  0  0  0
   -2.6249    0.5642   -0.1023 C   0  0  0  0  0  0  0  0  0  0  0  0
   -2.9405    0.0836   -1.5318 C   0  0  0  0  0  0  0  0  0  0  0  0
   -4.1134   -0.8690   -1.6331 C   0  0  0  0  0  0  0  0  0  0  0  0
   -3.9363   -2.1692   -2.1251 C   0  0  0  0  0  0  0  0  0  0  0  0
   -5.0184   -3.0458   -2.2051 C   0  0  0  0  0  0  0  0  0  0  0  0
   -6.2892   -2.6292   -1.8118 C   0  0  0  0  0  0  0  0  0  0  0  0
   -6.4804   -1.3331   -1.3435 C   0  0  0  0  0  0  0  0  0  0  0  0
   -5.4004   -0.4541   -1.2598 C   0  0  0  0  0  0  0  0  0  0  0  0
   -1.7252   -0.3988    0.7181 C   0  0  0  0  0  0  0  0  0  0  0  0
   -0.7511   -0.0051    1.3599 O   0  0  0  0  0  0  0  0  0  0  0  0
   -2.1288   -1.7057    0.7946 N   0  0  0  0  0  0  0  0  0  0  0  0
   -1.5516   -2.6488    1.7534 C   0  0  0  0  0  0  0  0  0  0  0  0
   -2.5671   -3.7506    2.1220 C   0  0  0  0  0  0  0  0  0  0  0  0
   -3.7054   -3.3220    3.0743 C   0  0  0  0  0  0  0  0  0  0  0  0
   -4.6503   -2.2785    2.4792 C   0  0  0  0  0  0  0  0  0  0  0  0
   -4.5131   -4.5597    3.4838 C   0  0  0  0  0  0  0  0  0  0  0  0
   -0.2407   -3.2762    1.2062 C   0  0  0  0  0  0  0  0  0  0  0  0
   -0.0420   -4.4909    1.1916 O   0  0  0  0  0  0  0  0  0  0  0  0
    0.7421   -2.3842    0.8280 N   0  0  0  0  0  0  0  0  0  0  0  0
    2.0897   -2.8502    0.4863 C   0  0  0  0  0  0  0  0  0  0  0  0
    2.1522   -3.5559   -0.8845 C   0  0  0  0  0  0  0  0  0  0  0  0
    1.8527   -2.6553   -2.0642 C   0  0  0  0  0  0  0  0  0  0  0  0
    2.8875   -1.9815   -2.7267 C   0  0  0  0  0  0  0  0  0  0  0  0
    2.6116   -1.1378   -3.8032 C   0  0  0  0  0  0  0  0  0  0  0  0
    1.2969   -0.9616   -4.2293 C   0  0  0  0  0  0  0  0  0  0  0  0
    0.2586   -1.6292   -3.5833 C   0  0  0  0  0  0  0  0  0  0  0  0
    0.5348   -2.4705   -2.5037 C   0  0  0  0  0  0  0  0  0  0  0  0
    3.1952   -1.7906    0.5514 C   0  0  0  0  0  0  0  0  0  0  0  0
    4.3896   -2.0690    0.4852 O   0  0  0  0  0  0  0  0  0  0  0  0
    2.7026   -0.5214    0.6167 O   0  0  0  0  0  0  0  0  0  0  0  0
    8.3840    0.7157   -0.1637 H   0  0  0  0  0  0  0  0  0  0  0  0
    9.1463   -0.1394    1.1865 H   0  0  0  0  0  0  0  0  0  0  0  0
    9.1588    1.6293    1.1484 H   0  0  0  0  0  0  0  0  0  0  0  0
    6.7032   -0.1754    1.4575 H   0  0  0  0  0  0  0  0  0  0  0  0
    7.4557    0.7564    2.7575 H   0  0  0  0  0  0  0  0  0  0  0  0
    6.1667    1.9491    0.2406 H   0  0  0  0  0  0  0  0  0  0  0  0
    6.9746    2.8804    1.4921 H   0  0  0  0  0  0  0  0  0  0  0  0
    5.3497    2.1935    3.1863 H   0  0  0  0  0  0  0  0  0  0  0  0
    4.5739    2.9938    1.8334 H   0  0  0  0  0  0  0  0  0  0  0  0
    4.5882   -0.0018    2.4438 H   0  0  0  0  0  0  0  0  0  0  0  0
    3.2549    1.0722    2.6292 H   0  0  0  0  0  0  0  0  0  0  0  0
    4.5591    0.1928    0.0113 H   0  0  0  0  0  0  0  0  0  0  0  0
    3.8782    2.4531   -0.4562 H   0  0  0  0  0  0  0  0  0  0  0  0
    2.8267    1.2715   -1.2501 H   0  0  0  0  0  0  0  0  0  0  0  0
    1.3850    2.8637   -1.6200 H   0  0  0  0  0  0  0  0  0  0  0  0
   -0.2912    3.6502    0.6935 H   0  0  0  0  0  0  0  0  0  0  0  0
   -0.4658    4.5661   -2.2383 H   0  0  0  0  0  0  0  0  0  0  0  0
    0.1503    5.5587   -0.9322 H   0  0  0  0  0  0  0  0  0  0  0  0
   -2.7148    4.4786   -1.1596 H   0  0  0  0  0  0  0  0  0  0  0  0
   -2.1540    6.2357   -2.8284 H   0  0  0  0  0  0  0  0  0  0  0  0
   -3.3293    6.8112   -1.6395 H   0  0  0  0  0  0  0  0  0  0  0  0
   -1.6352    7.3235   -1.5256 H   0  0  0  0  0  0  0  0  0  0  0  0
   -3.2276    6.0375    0.7315 H   0  0  0  0  0  0  0  0  0  0  0  0
   -1.4977    6.3753    0.9257 H   0  0  0  0  0  0  0  0  0  0  0  0
   -2.1387    4.7506    1.2305 H   0  0  0  0  0  0  0  0  0  0  0  0
   -1.8940    2.2260    0.9337 H   0  0  0  0  0  0  0  0  0  0  0  0
   -3.5495    0.6672    0.4801 H   0  0  0  0  0  0  0  0  0  0  0  0
   -2.0554   -0.3961   -1.9641 H   0  0  0  0  0  0  0  0  0  0  0  0
   -3.1831    0.9396   -2.1759 H   0  0  0  0  0  0  0  0  0  0  0  0
   -2.9572   -2.5121   -2.4549 H   0  0  0  0  0  0  0  0  0  0  0  0
   -4.8749   -4.0526   -2.5862 H   0  0  0  0  0  0  0  0  0  0  0  0
   -7.1334   -3.3104   -1.8849 H   0  0  0  0  0  0  0  0  0  0  0  0
   -7.4743   -1.0008   -1.0553 H   0  0  0  0  0  0  0  0  0  0  0  0
   -5.5737    0.5594   -0.9084 H   0  0  0  0  0  0  0  0  0  0  0  0
   -2.9025   -2.0359    0.2302 H   0  0  0  0  0  0  0  0  0  0  0  0
   -1.2723   -2.1015    2.6627 H   0  0  0  0  0  0  0  0  0  0  0  0
   -2.0274   -4.5667    2.6202 H   0  0  0  0  0  0  0  0  0  0  0  0
   -2.9926   -4.1830    1.2073 H   0  0  0  0  0  0  0  0  0  0  0  0
   -3.2599   -2.8998    3.9835 H   0  0  0  0  0  0  0  0  0  0  0  0
   -5.0266   -2.5910    1.4996 H   0  0  0  0  0  0  0  0  0  0  0  0
   -5.5150   -2.1176    3.1326 H   0  0  0  0  0  0  0  0  0  0  0  0
   -4.1570   -1.3102    2.3700 H   0  0  0  0  0  0  0  0  0  0  0  0
   -4.9779   -5.0325    2.6124 H   0  0  0  0  0  0  0  0  0  0  0  0
   -3.8708   -5.3004    3.9712 H   0  0  0  0  0  0  0  0  0  0  0  0
   -5.3082   -4.2932    4.1884 H   0  0  0  0  0  0  0  0  0  0  0  0
    0.5972   -1.3880    1.0000 H   0  0  0  0  0  0  0  0  0  0  0  0
    2.3538   -3.5827    1.2604 H   0  0  0  0  0  0  0  0  0  0  0  0
    1.4574   -4.4048   -0.9089 H   0  0  0  0  0  0  0  0  0  0  0  0
    3.1498   -3.9946   -1.0278 H   0  0  0  0  0  0  0  0  0  0  0  0
    3.9209   -2.1133   -2.4109 H   0  0  0  0  0  0  0  0  0  0  0  0
    3.4221   -0.6187   -4.3093 H   0  0  0  0  0  0  0  0  0  0  0  0
    1.0788   -0.3043   -5.0658 H   0  0  0  0  0  0  0  0  0  0  0  0
   -0.7655   -1.4892   -3.9218 H   0  0  0  0  0  0  0  0  0  0  0  0
   -0.2834   -2.9817   -2.0035 H   0  0  0  0  0  0  0  0  0  0  0  0
  1  2  1  0
  2  3  1  0
  3  4  1  0
  4  5  1  0
  5  6  1  0
  6  7  1  0
  7  8  1  0
  8  9  2  0
  8 10  1  0
 10 11  1  0
 11 12  1  0
 12 13  1  0
 13 14  1  0
 13 15  1  0
 11 16  1  0
 16 17  2  0
 16 18  1  0
 18 19  1  0
 19 20  1  0
 20 21  1  0
 21 22  2  0
 22 23  1  0
 23 24  2  0
 24 25  1  0
 25 26  2  0
 19 27  1  0
 27 28  2  0
 27 29  1  0
 29 30  1  0
 30 31  1  0
 31 32  1  0
 32 33  1  0
 32 34  1  0
 30 35  1  0
 35 36  2  0
 35 37  1  0
 37 38  1  0
 38 39  1  0
 39 40  1  0
 40 41  2  0
 41 42  1  0
 42 43  2  0
 43 44  1  0
 44 45  2  0
 38 46  1  0
 46 47  2  0
 46 48  1  0
 48  6  1  0
 26 21  1  0
 45 40  1  0
  1 49  1  0
  1 50  1  0
  1 51  1  0
  2 52  1  0
  2 53  1  0
  3 54  1  0
  3 55  1  0
  4 56  1  0
  4 57  1  0
  5 58  1  0
  5 59  1  0
  6 60  1  0
  7 61  1  0
  7 62  1  0
 10 63  1  0
 11 64  1  0
 12 65  1  0
 12 66  1  0
 13 67  1  0
 14 68  1  0
 14 69  1  0
 14 70  1  0
 15 71  1  0
 15 72  1  0
 15 73  1  0
 18 74  1  0
 19 75  1  0
 20 76  1  0
 20 77  1  0
 22 78  1  0
 23 79  1  0
 24 80  1  0
 25 81  1  0
 26 82  1  0
 29 83  1  0
 30 84  1  0
 31 85  1  0
 31 86  1  0
 32 87  1  0
 33 88  1  0
 33 89  1  0
 33 90  1  0
 34 91  1  0
 34 92  1  0
 34 93  1  0
 37 94  1  0
 38 95  1  0
 39 96  1  0
 39 97  1  0
 41 98  1  0
 42 99  1  0
 43100  1  0
 44101  1  0
 45102  1  0
M  END
$$$$
