
     RDKit          3D

 52 56  0  0  0  0  0  0  0  0999 V2000
    2.6016   -3.5874   -0.7230 C   0  0  0  0  0  0  0  0  0  0  0  0
    2.8643   -2.0966   -0.7948 C   0  0  0  0  0  0  0  0  0  0  0  0
    1.9901   -1.1885   -0.4690 N   0  0  0  0  0  0  0  0  0  0  0  0
    0.7748   -1.5775    0.0037 N   0  0  0  0  0  0  0  0  0  0  0  0
   -0.1924   -0.6373    0.3272 C   0  0  0  0  0  0  0  0  0  0  0  0
   -0.0744    0.5774    0.1945 O   0  0  0  0  0  0  0  0  0  0  0  0
   -1.4026   -1.2551    0.8682 C   0  0  0  0  0  0  0  0  0  0  0  0
   -1.4893   -2.5990    1.0829 N   0  0  0  0  0  0  0  0  0  0  0  0
   -2.6617   -2.8511    1.6309 N   0  0  0  0  0  0  0  0  0  0  0  0
   -3.3983   -1.6971    1.7059 N   0  0  0  0  0  0  0  0  0  0  0  0
   -4.7403   -1.7375    2.1855 C   0  0  0  0  0  0  0  0  0  0  0  0
   -5.1198   -2.8525    2.8244 N   0  0  0  0  0  0  0  0  0  0  0  0
   -6.4202   -2.6091    3.2335 O   0  0  0  0  0  0  0  0  0  0  0  0
   -6.8464   -1.3620    2.8113 N   0  0  0  0  0  0  0  0  0  0  0  0
   -5.8235   -0.8380    2.1362 C   0  0  0  0  0  0  0  0  0  0  0  0
   -5.9348    0.3445    1.4989 N   0  0  0  0  0  0  0  0  0  0  0  0
   -2.5851   -0.6466    1.2746 C   0  0  0  0  0  0  0  0  0  0  0  0
   -2.8930    0.8031    1.3306 C   0  0  0  0  0  0  0  0  0  0  0  0
   -3.5196    1.3615   -0.2940 S   0  0  0  0  0  0  0  0  0  0  0  0
   -3.3464    3.1204   -0.0688 C   0  0  0  0  0  0  0  0  0  0  0  0
   -2.0807    3.7150   -0.0704 C   0  0  0  0  0  0  0  0  0  0  0  0
   -1.9518    5.0942    0.1033 C   0  0  0  0  0  0  0  0  0  0  0  0
   -3.0872    5.8851    0.2717 C   0  0  0  0  0  0  0  0  0  0  0  0
   -4.3521    5.2988    0.2622 C   0  0  0  0  0  0  0  0  0  0  0  0
   -4.4825    3.9191    0.0886 C   0  0  0  0  0  0  0  0  0  0  0  0
    4.2062   -1.6373   -1.2707 C   0  0  0  0  0  0  0  0  0  0  0  0
    4.3052   -0.3796   -1.9095 C   0  0  0  0  0  0  0  0  0  0  0  0
    5.5378    0.0983   -2.3666 C   0  0  0  0  0  0  0  0  0  0  0  0
    6.6446   -0.6953   -2.1631 C   0  0  0  0  0  0  0  0  0  0  0  0
    6.5549   -1.9133   -1.5306 C   0  0  0  0  0  0  0  0  0  0  0  0
    5.3547   -2.4138   -1.0685 C   0  0  0  0  0  0  0  0  0  0  0  0
    7.7627   -2.5299   -1.4209 O   0  0  0  0  0  0  0  0  0  0  0  0
    8.6228   -1.5586   -2.0539 C   0  0  0  0  0  0  0  0  0  0  0  0
    7.9175   -0.3953   -2.5335 O   0  0  0  0  0  0  0  0  0  0  0  0
    3.3524   -4.1675   -1.2640 H   0  0  0  0  0  0  0  0  0  0  0  0
    2.5887   -3.9028    0.3240 H   0  0  0  0  0  0  0  0  0  0  0  0
    1.6364   -3.8173   -1.1844 H   0  0  0  0  0  0  0  0  0  0  0  0
    0.5740   -2.5553    0.1879 H   0  0  0  0  0  0  0  0  0  0  0  0
   -5.4439    0.4955    0.6179 H   0  0  0  0  0  0  0  0  0  0  0  0
   -6.8819    0.7143    1.4443 H   0  0  0  0  0  0  0  0  0  0  0  0
   -3.6037    1.0447    2.1242 H   0  0  0  0  0  0  0  0  0  0  0  0
   -1.9844    1.3585    1.5849 H   0  0  0  0  0  0  0  0  0  0  0  0
   -1.1848    3.1117   -0.2112 H   0  0  0  0  0  0  0  0  0  0  0  0
   -0.9645    5.5492    0.1022 H   0  0  0  0  0  0  0  0  0  0  0  0
   -2.9859    6.9594    0.4044 H   0  0  0  0  0  0  0  0  0  0  0  0
   -5.2376    5.9170    0.3863 H   0  0  0  0  0  0  0  0  0  0  0  0
   -5.4760    3.4792    0.0779 H   0  0  0  0  0  0  0  0  0  0  0  0
    3.4147    0.2319   -2.0511 H   0  0  0  0  0  0  0  0  0  0  0  0
    5.6195    1.0616   -2.8577 H   0  0  0  0  0  0  0  0  0  0  0  0
    5.3349   -3.3655   -0.5519 H   0  0  0  0  0  0  0  0  0  0  0  0
    9.1274   -2.0371   -2.9011 H   0  0  0  0  0  0  0  0  0  0  0  0
    9.3798   -1.2363   -1.3297 H   0  0  0  0  0  0  0  0  0  0  0  0
  1  2  1  0
  2  3  2  3
  3  4  1  0
  4  5  1  0
  5  6  2  0
  5  7  1  0
  7  8  1  0
  8  9  2  0
  9 10  1  0
 10 11  1  0
 11 12  2  0
 12 13  1  0
 13 14  1  0
 14 15  2  0
 15 16  1  0
 10 17  1  0
 17 18  1  0
 18 19  1  0
 19 20  1  0
 20 21  2  0
 21 22  1  0
 22 23  2  0
 23 24  1  0
 24 25  2  0
  2 26  1  0
 26 27  2  0
 27 28  1  0
 28 29  2  0
 29 30  1  0
 30 31  2  0
 30 32  1  0
 32 33  1  0
 33 34  1  0
 17  7  2  0
 25 20  1  0
 31 26  1  0
 15 11  1  0
 34 29  1  0
  1 35  1  0
  1 36  1  0
  1 37  1  0
  4 38  1  0
 16 39  1  0
 16 40  1  0
 18 41  1  0
 18 42  1  0
 21 43  1  0
 22 44  1  0
 23 45  1  0
 24 46  1  0
 25 47  1  0
 27 48  1  0
 28 49  1  0
 31 50  1  0
 33 51  1  0
 33 52  1  0
M  END
$$$$
