
     RDKit          3D

 52 55  0  0  0  0  0  0  0  0999 V2000
   -6.5760    2.5198    1.8841 C   0  0  0  0  0  0  0  0  0  0  0  0
   -5.8773    1.8462    0.7164 C   0  0  0  0  0  0  0  0  0  0  0  0
   -4.6057    2.5893    0.3151 C   0  0  0  0  0  0  0  0  0  0  0  0
   -3.9904    1.9608   -0.8092 O   0  0  0  0  0  0  0  0  0  0  0  0
   -3.0638    0.9808   -0.5902 C   0  0  0  0  0  0  0  0  0  0  0  0
   -2.4058    0.5403   -1.7415 C   0  0  0  0  0  0  0  0  0  0  0  0
   -1.4355   -0.4625   -1.6726 C   0  0  0  0  0  0  0  0  0  0  0  0
   -1.1189   -1.0456   -0.4429 C   0  0  0  0  0  0  0  0  0  0  0  0
   -0.1067   -2.0897   -0.3631 C   0  0  0  0  0  0  0  0  0  0  0  0
    1.2634   -1.9894   -0.1607 C   0  0  0  0  0  0  0  0  0  0  0  0
    2.0726   -0.7883    0.0430 C   0  0  0  0  0  0  0  0  0  0  0  0
    1.5805    0.3329    0.1141 O   0  0  0  0  0  0  0  0  0  0  0  0
    3.4283   -1.0864    0.1588 N   0  0  0  0  0  0  0  0  0  0  0  0
    4.4340   -0.2198    0.5052 N   0  0  0  0  0  0  0  0  0  0  0  0
    4.3342    1.0214    0.1459 C   0  0  0  0  0  0  0  0  0  0  0  0
    5.3562    2.0213    0.5212 C   0  0  0  0  0  0  0  0  0  0  0  0
    6.4757    1.6600    1.2765 C   0  0  0  0  0  0  0  0  0  0  0  0
    7.4256    2.6256    1.6136 C   0  0  0  0  0  0  0  0  0  0  0  0
    7.2563    3.9468    1.1976 C   0  0  0  0  0  0  0  0  0  0  0  0
    6.1373    4.3072    0.4459 C   0  0  0  0  0  0  0  0  0  0  0  0
    5.1843    3.3454    0.1059 C   0  0  0  0  0  0  0  0  0  0  0  0
    1.8166   -3.2437   -0.1737 N   0  0  0  0  0  0  0  0  0  0  0  0
    0.8510   -4.1222   -0.3695 N   0  0  0  0  0  0  0  0  0  0  0  0
   -0.3409   -3.4623   -0.4848 N   0  0  0  0  0  0  0  0  0  0  0  0
   -1.5538   -4.1636   -0.7057 C   0  0  0  0  0  0  0  0  0  0  0  0
   -2.7106   -3.5189   -0.8583 N   0  0  0  0  0  0  0  0  0  0  0  0
   -3.6423   -4.5332   -1.0674 O   0  0  0  0  0  0  0  0  0  0  0  0
   -3.0385   -5.7859   -1.0405 N   0  0  0  0  0  0  0  0  0  0  0  0
   -1.7473   -5.5543   -0.8080 C   0  0  0  0  0  0  0  0  0  0  0  0
   -0.8131   -6.5176   -0.6952 N   0  0  0  0  0  0  0  0  0  0  0  0
   -1.7739   -0.6051    0.7117 C   0  0  0  0  0  0  0  0  0  0  0  0
   -2.7451    0.4010    0.6371 C   0  0  0  0  0  0  0  0  0  0  0  0
   -6.8628    3.5455    1.6310 H   0  0  0  0  0  0  0  0  0  0  0  0
   -7.4832    1.9699    2.1523 H   0  0  0  0  0  0  0  0  0  0  0  0
   -5.9254    2.5516    2.7644 H   0  0  0  0  0  0  0  0  0  0  0  0
   -6.5558    1.7957   -0.1438 H   0  0  0  0  0  0  0  0  0  0  0  0
   -5.6478    0.8072    0.9768 H   0  0  0  0  0  0  0  0  0  0  0  0
   -4.8769    3.6008   -0.0112 H   0  0  0  0  0  0  0  0  0  0  0  0
   -3.9092    2.7245    1.1510 H   0  0  0  0  0  0  0  0  0  0  0  0
   -2.6500    0.9857   -2.7025 H   0  0  0  0  0  0  0  0  0  0  0  0
   -0.9369   -0.7780   -2.5854 H   0  0  0  0  0  0  0  0  0  0  0  0
    3.6694   -2.0687    0.2754 H   0  0  0  0  0  0  0  0  0  0  0  0
    3.5100    1.3995   -0.4811 H   0  0  0  0  0  0  0  0  0  0  0  0
    6.6128    0.6326    1.6048 H   0  0  0  0  0  0  0  0  0  0  0  0
    8.2972    2.3469    2.2004 H   0  0  0  0  0  0  0  0  0  0  0  0
    7.9975    4.6974    1.4614 H   0  0  0  0  0  0  0  0  0  0  0  0
    6.0085    5.3381    0.1241 H   0  0  0  0  0  0  0  0  0  0  0  0
    4.3153    3.6378   -0.4778 H   0  0  0  0  0  0  0  0  0  0  0  0
   -1.0415   -7.4613   -0.9907 H   0  0  0  0  0  0  0  0  0  0  0  0
    0.1810   -6.2968   -0.7142 H   0  0  0  0  0  0  0  0  0  0  0  0
   -1.5379   -1.0378    1.6808 H   0  0  0  0  0  0  0  0  0  0  0  0
   -3.2350    0.6989    1.5573 H   0  0  0  0  0  0  0  0  0  0  0  0
  1  2  1  0
  2  3  1  0
  3  4  1  0
  4  5  1  0
  5  6  2  0
  6  7  1  0
  7  8  2  0
  8  9  1  0
  9 10  2  0
 10 11  1  0
 11 12  2  0
 11 13  1  0
 13 14  1  0
 14 15  2  3
 15 16  1  0
 16 17  2  0
 17 18  1  0
 18 19  2  0
 19 20  1  0
 20 21  2  0
 10 22  1  0
 22 23  2  0
 23 24  1  0
 24 25  1  0
 25 26  2  0
 26 27  1  0
 27 28  1  0
 28 29  2  0
 29 30  1  0
  8 31  1  0
 31 32  2  0
 32  5  1  0
 24  9  1  0
 29 25  1  0
 21 16  1  0
  1 33  1  0
  1 34  1  0
  1 35  1  0
  2 36  1  0
  2 37  1  0
  3 38  1  0
  3 39  1  0
  6 40  1  0
  7 41  1  0
 13 42  1  0
 15 43  1  0
 17 44  1  0
 18 45  1  0
 19 46  1  0
 20 47  1  0
 21 48  1  0
 30 49  1  0
 30 50  1  0
 31 51  1  0
 32 52  1  0
M  END
$$$$
