
     RDKit          3D

 59 62  0  0  0  0  0  0  0  0999 V2000
   -3.7547    0.0359    1.1302 C   0  0  0  0  0  0  0  0  0  0  0  0
   -3.1424   -0.2749   -0.1258 O   0  0  0  0  0  0  0  0  0  0  0  0
   -3.9339    0.1562   -1.1632 C   0  0  0  0  0  0  0  0  0  0  0  0
   -4.8241   -0.7729   -1.7370 C   0  0  0  0  0  0  0  0  0  0  0  0
   -4.9154   -2.1869   -1.2327 C   0  0  0  0  0  0  0  0  0  0  0  0
   -5.6674   -0.3539   -2.7745 C   0  0  0  0  0  0  0  0  0  0  0  0
   -5.5962    0.9529   -3.2532 C   0  0  0  0  0  0  0  0  0  0  0  0
   -6.7423    1.4972   -4.6553 Br  0  0  0  0  0  0  0  0  0  0  0  0
   -4.6827    1.8568   -2.7165 C   0  0  0  0  0  0  0  0  0  0  0  0
   -3.8251    1.4620   -1.6760 C   0  0  0  0  0  0  0  0  0  0  0  0
   -2.8455    2.4830   -1.1854 C   0  0  0  0  0  0  0  0  0  0  0  0
   -3.0909    3.6680   -1.3915 O   0  0  0  0  0  0  0  0  0  0  0  0
   -1.7253    1.9887   -0.5618 N   0  0  0  0  0  0  0  0  0  0  0  0
   -0.6496    2.6927    0.0189 C   0  0  0  0  0  0  0  0  0  0  0  0
   -0.5408    4.0839    0.0253 C   0  0  0  0  0  0  0  0  0  0  0  0
    0.5570    4.6969    0.6322 C   0  0  0  0  0  0  0  0  0  0  0  0
    1.5505    3.9240    1.2296 C   0  0  0  0  0  0  0  0  0  0  0  0
    1.4505    2.5318    1.2261 C   0  0  0  0  0  0  0  0  0  0  0  0
    0.3522    1.8957    0.6299 C   0  0  0  0  0  0  0  0  0  0  0  0
    0.2294    0.4866    0.5657 N   0  0  0  0  0  0  0  0  0  0  0  0
    0.3378   -0.2222    1.8647 C   0  0  0  0  0  0  0  0  0  0  0  0
    0.7672   -1.6851    1.6614 C   0  0  0  0  0  0  0  0  0  0  0  0
    2.0817   -1.7535    1.0085 N   0  0  0  0  0  0  0  0  0  0  0  0
    3.1273   -2.3765    1.6871 C   0  0  0  0  0  0  0  0  0  0  0  0
    3.0002   -2.9311    2.7751 O   0  0  0  0  0  0  0  0  0  0  0  0
    4.4805   -2.3387    1.0911 C   0  0  0  0  0  0  0  0  0  0  0  0
    5.5048   -1.6998    1.7978 C   0  0  0  0  0  0  0  0  0  0  0  0
    6.7906   -1.6565    1.2585 C   0  0  0  0  0  0  0  0  0  0  0  0
    7.0505   -2.2600    0.0266 C   0  0  0  0  0  0  0  0  0  0  0  0
    6.0309   -2.9200   -0.6643 C   0  0  0  0  0  0  0  0  0  0  0  0
    4.7433   -2.9676   -0.1298 C   0  0  0  0  0  0  0  0  0  0  0  0
    2.2929   -0.7975   -0.0922 C   0  0  0  0  0  0  0  0  0  0  0  0
    1.0013   -0.0994   -0.5580 C   0  0  0  0  0  0  0  0  0  0  0  0
   -3.6847    1.1093    1.3447 H   0  0  0  0  0  0  0  0  0  0  0  0
   -4.7988   -0.2917    1.1694 H   0  0  0  0  0  0  0  0  0  0  0  0
   -3.2023   -0.5010    1.9076 H   0  0  0  0  0  0  0  0  0  0  0  0
   -3.9172   -2.6153   -1.0963 H   0  0  0  0  0  0  0  0  0  0  0  0
   -5.4434   -2.8282   -1.9475 H   0  0  0  0  0  0  0  0  0  0  0  0
   -5.4570   -2.2149   -0.2821 H   0  0  0  0  0  0  0  0  0  0  0  0
   -6.3786   -1.0522   -3.2118 H   0  0  0  0  0  0  0  0  0  0  0  0
   -4.6258    2.8700   -3.1099 H   0  0  0  0  0  0  0  0  0  0  0  0
   -1.6407    0.9796   -0.4390 H   0  0  0  0  0  0  0  0  0  0  0  0
   -1.2913    4.7137   -0.4396 H   0  0  0  0  0  0  0  0  0  0  0  0
    0.6357    5.7810    0.6315 H   0  0  0  0  0  0  0  0  0  0  0  0
    2.4063    4.4066    1.6947 H   0  0  0  0  0  0  0  0  0  0  0  0
    2.2473    1.9527    1.6818 H   0  0  0  0  0  0  0  0  0  0  0  0
    1.0619    0.2555    2.5355 H   0  0  0  0  0  0  0  0  0  0  0  0
   -0.6400   -0.1925    2.3595 H   0  0  0  0  0  0  0  0  0  0  0  0
    0.0548   -2.2059    1.0106 H   0  0  0  0  0  0  0  0  0  0  0  0
    0.7727   -2.2069    2.6227 H   0  0  0  0  0  0  0  0  0  0  0  0
    5.3013   -1.2444    2.7646 H   0  0  0  0  0  0  0  0  0  0  0  0
    7.5912   -1.1595    1.8029 H   0  0  0  0  0  0  0  0  0  0  0  0
    8.0549   -2.2266   -0.3898 H   0  0  0  0  0  0  0  0  0  0  0  0
    6.2434   -3.4046   -1.6131 H   0  0  0  0  0  0  0  0  0  0  0  0
    3.9548   -3.4998   -0.6555 H   0  0  0  0  0  0  0  0  0  0  0  0
    2.7387   -1.3281   -0.9377 H   0  0  0  0  0  0  0  0  0  0  0  0
    3.0150   -0.0505    0.2544 H   0  0  0  0  0  0  0  0  0  0  0  0
    1.2364    0.6442   -1.3296 H   0  0  0  0  0  0  0  0  0  0  0  0
    0.3528   -0.8423   -1.0396 H   0  0  0  0  0  0  0  0  0  0  0  0
  1  2  1  0
  2  3  1  0
  3  4  2  0
  4  5  1  0
  4  6  1  0
  6  7  2  0
  7  8  1  0
  7  9  1  0
  9 10  2  0
 10 11  1  0
 11 12  2  0
 11 13  1  0
 13 14  1  0
 14 15  2  0
 15 16  1  0
 16 17  2  0
 17 18  1  0
 18 19  2  0
 19 20  1  0
 20 21  1  0
 21 22  1  0
 22 23  1  0
 23 24  1  0
 24 25  2  0
 24 26  1  0
 26 27  2  0
 27 28  1  0
 28 29  2  0
 29 30  1  0
 30 31  2  0
 23 32  1  0
 32 33  1  0
 10  3  1  0
 19 14  1  0
 33 20  1  0
 31 26  1  0
  1 34  1  0
  1 35  1  0
  1 36  1  0
  5 37  1  0
  5 38  1  0
  5 39  1  0
  6 40  1  0
  9 41  1  0
 13 42  1  0
 15 43  1  0
 16 44  1  0
 17 45  1  0
 18 46  1  0
 21 47  1  0
 21 48  1  0
 22 49  1  0
 22 50  1  0
 27 51  1  0
 28 52  1  0
 29 53  1  0
 30 54  1  0
 31 55  1  0
 32 56  1  0
 32 57  1  0
 33 58  1  0
 33 59  1  0
M  END
$$$$
