
     RDKit          3D

 47 50  0  0  0  0  0  0  0  0999 V2000
   -2.2930   -3.1550    1.1211 C   0  0  0  0  0  0  0  0  0  0  0  0
   -1.5099   -2.0495    0.4722 C   0  0  0  0  0  0  0  0  0  0  0  0
   -0.3122   -2.3166    0.0304 N   0  0  0  0  0  0  0  0  0  0  0  0
    0.4657   -1.3240   -0.5751 N   0  0  0  0  0  0  0  0  0  0  0  0
    1.8112   -1.6994   -0.9735 C   0  0  0  0  0  0  0  0  0  0  0  0
    2.8360   -1.1983    0.0475 C   0  0  0  0  0  0  0  0  0  0  0  0
    2.5879   -1.0174    1.2374 O   0  0  0  0  0  0  0  0  0  0  0  0
    4.1031   -1.0237   -0.4788 N   0  0  0  0  0  0  0  0  0  0  0  0
    5.1395   -0.4356    0.3383 C   0  0  0  0  0  0  0  0  0  0  0  0
    6.4431   -0.5989   -0.3727 C   0  0  0  0  0  0  0  0  0  0  0  0
    7.3291   -1.6567   -0.3006 C   0  0  0  0  0  0  0  0  0  0  0  0
    8.4734   -1.4637   -1.1269 C   0  0  0  0  0  0  0  0  0  0  0  0
    8.4234   -0.2660   -1.8039 C   0  0  0  0  0  0  0  0  0  0  0  0
    7.0038    0.6162   -1.4442 S   0  0  0  0  0  0  0  0  0  0  0  0
    0.0628    0.0063   -0.7988 C   0  0  0  0  0  0  0  0  0  0  0  0
    0.7747    0.8389   -1.3588 O   0  0  0  0  0  0  0  0  0  0  0  0
   -1.2800    0.2763   -0.3051 C   0  0  0  0  0  0  0  0  0  0  0  0
   -1.9230    1.4442   -0.3551 N   0  0  0  0  0  0  0  0  0  0  0  0
   -3.1565    1.1927    0.1625 N   0  0  0  0  0  0  0  0  0  0  0  0
   -4.1576    2.2091    0.0613 C   0  0  0  0  0  0  0  0  0  0  0  0
   -5.5241    1.9344    0.1925 C   0  0  0  0  0  0  0  0  0  0  0  0
   -6.4662    2.9630    0.0771 C   0  0  0  0  0  0  0  0  0  0  0  0
   -6.0556    4.2686   -0.1823 C   0  0  0  0  0  0  0  0  0  0  0  0
   -4.7019    4.5497   -0.3403 C   0  0  0  0  0  0  0  0  0  0  0  0
   -3.7579    3.5262   -0.2274 C   0  0  0  0  0  0  0  0  0  0  0  0
   -3.2137   -0.0925    0.7169 C   0  0  0  0  0  0  0  0  0  0  0  0
   -4.3045   -0.5877    1.5957 C   0  0  0  0  0  0  0  0  0  0  0  0
   -2.0415   -0.7159    0.3216 C   0  0  0  0  0  0  0  0  0  0  0  0
   -2.3338   -2.9875    2.2006 H   0  0  0  0  0  0  0  0  0  0  0  0
   -1.8107   -4.1200    0.9386 H   0  0  0  0  0  0  0  0  0  0  0  0
   -3.3068   -3.1913    0.7141 H   0  0  0  0  0  0  0  0  0  0  0  0
    1.8861   -2.7901   -1.0391 H   0  0  0  0  0  0  0  0  0  0  0  0
    2.0253   -1.2720   -1.9591 H   0  0  0  0  0  0  0  0  0  0  0  0
    4.1827   -0.8809   -1.4777 H   0  0  0  0  0  0  0  0  0  0  0  0
    5.1619   -0.9373    1.3124 H   0  0  0  0  0  0  0  0  0  0  0  0
    4.8893    0.6173    0.5099 H   0  0  0  0  0  0  0  0  0  0  0  0
    7.1615   -2.5307    0.3182 H   0  0  0  0  0  0  0  0  0  0  0  0
    9.2919   -2.1671   -1.2194 H   0  0  0  0  0  0  0  0  0  0  0  0
    9.1526    0.1362   -2.4938 H   0  0  0  0  0  0  0  0  0  0  0  0
   -5.9041    0.9306    0.3364 H   0  0  0  0  0  0  0  0  0  0  0  0
   -7.5261    2.7410    0.1761 H   0  0  0  0  0  0  0  0  0  0  0  0
   -6.7905    5.0641   -0.2741 H   0  0  0  0  0  0  0  0  0  0  0  0
   -4.3756    5.5642   -0.5548 H   0  0  0  0  0  0  0  0  0  0  0  0
   -2.7052    3.7758   -0.3562 H   0  0  0  0  0  0  0  0  0  0  0  0
   -3.9220   -1.3048    2.3274 H   0  0  0  0  0  0  0  0  0  0  0  0
   -4.7533    0.2172    2.1852 H   0  0  0  0  0  0  0  0  0  0  0  0
   -5.0791   -1.0894    1.0084 H   0  0  0  0  0  0  0  0  0  0  0  0
  1  2  1  0
  2  3  2  0
  3  4  1  0
  4  5  1  0
  5  6  1  0
  6  7  2  0
  6  8  1  0
  8  9  1  0
  9 10  1  0
 10 11  2  0
 11 12  1  0
 12 13  2  0
 13 14  1  0
  4 15  1  0
 15 16  2  0
 15 17  1  0
 17 18  2  0
 18 19  1  0
 19 20  1  0
 20 21  2  0
 21 22  1  0
 22 23  2  0
 23 24  1  0
 24 25  2  0
 19 26  1  0
 26 27  1  0
 26 28  2  0
 28  2  1  0
 14 10  1  0
 28 17  1  0
 25 20  1  0
  1 29  1  0
  1 30  1  0
  1 31  1  0
  5 32  1  0
  5 33  1  0
  8 34  1  0
  9 35  1  0
  9 36  1  0
 11 37  1  0
 12 38  1  0
 13 39  1  0
 21 40  1  0
 22 41  1  0
 23 42  1  0
 24 43  1  0
 25 44  1  0
 27 45  1  0
 27 46  1  0
 27 47  1  0
M  END
$$$$
