
     RDKit          3D

 64 69  0  0  0  0  0  0  0  0999 V2000
    5.7265    0.4020   -2.7128 F   0  0  0  0  0  0  0  0  0  0  0  0
    6.3589   -0.2749   -1.7126 C   0  0  0  0  0  0  0  0  0  0  0  0
    7.4081   -0.9138   -2.3071 F   0  0  0  0  0  0  0  0  0  0  0  0
    5.5016   -1.2622   -1.3277 F   0  0  0  0  0  0  0  0  0  0  0  0
    6.7668    0.6291   -0.5688 C   0  0  0  0  0  0  0  0  0  0  0  0
    8.1379    0.8457   -0.3271 C   0  0  0  0  0  0  0  0  0  0  0  0
    8.5645    1.6762    0.7088 C   0  0  0  0  0  0  0  0  0  0  0  0
    7.6292    2.3067    1.5207 C   0  0  0  0  0  0  0  0  0  0  0  0
    6.2675    2.1094    1.2972 C   0  0  0  0  0  0  0  0  0  0  0  0
    5.8175    1.2780    0.2551 C   0  0  0  0  0  0  0  0  0  0  0  0
    4.3209    1.0973    0.0796 C   0  0  0  0  0  0  0  0  0  0  0  0
    3.7545    0.0357    1.0437 C   0  0  0  0  0  0  0  0  0  0  0  0
    2.3322   -0.2884    0.8953 N   0  0  0  0  0  0  0  0  0  0  0  0
    1.4211    0.8261    1.1932 C   0  0  0  0  0  0  0  0  0  0  0  0
   -0.0585    0.4764    0.9118 C   0  0  0  0  0  0  0  0  0  0  0  0
   -0.2889    0.0278   -0.4824 N   0  0  0  0  0  0  0  0  0  0  0  0
   -1.3855   -0.8068   -0.7167 C   0  0  0  0  0  0  0  0  0  0  0  0
   -1.1887   -1.9605   -1.3058 N   0  0  0  0  0  0  0  0  0  0  0  0
   -2.2557   -2.8531   -1.5217 C   0  0  0  0  0  0  0  0  0  0  0  0
   -1.9832   -4.0742   -2.1416 C   0  0  0  0  0  0  0  0  0  0  0  0
   -3.0030   -5.0024   -2.3692 C   0  0  0  0  0  0  0  0  0  0  0  0
   -4.3109   -4.7157   -1.9763 C   0  0  0  0  0  0  0  0  0  0  0  0
   -4.6062   -3.5015   -1.3555 C   0  0  0  0  0  0  0  0  0  0  0  0
   -3.5751   -2.5832   -1.1338 C   0  0  0  0  0  0  0  0  0  0  0  0
   -3.7848   -1.3331   -0.5294 N   0  0  0  0  0  0  0  0  0  0  0  0
   -4.9532   -0.7734   -0.0681 C   0  0  0  0  0  0  0  0  0  0  0  0
   -4.6813    0.5073    0.3746 C   0  0  0  0  0  0  0  0  0  0  0  0
   -5.6816    1.4128    0.9201 C   0  0  0  0  0  0  0  0  0  0  0  0
   -6.9850    1.4484    0.4059 C   0  0  0  0  0  0  0  0  0  0  0  0
   -7.9334    2.3282    0.9348 C   0  0  0  0  0  0  0  0  0  0  0  0
   -7.5883    3.1802    1.9819 C   0  0  0  0  0  0  0  0  0  0  0  0
   -6.2952    3.1555    2.5003 C   0  0  0  0  0  0  0  0  0  0  0  0
   -5.3455    2.2777    1.9705 C   0  0  0  0  0  0  0  0  0  0  0  0
   -3.2864    0.7095    0.1888 C   0  0  0  0  0  0  0  0  0  0  0  0
   -2.7453   -0.4511   -0.3348 C   0  0  0  0  0  0  0  0  0  0  0  0
    0.9581   -0.2245   -1.2352 C   0  0  0  0  0  0  0  0  0  0  0  0
    1.9924   -0.9729   -0.3699 C   0  0  0  0  0  0  0  0  0  0  0  0
    8.8881    0.3616   -0.9523 H   0  0  0  0  0  0  0  0  0  0  0  0
    9.6268    1.8307    0.8818 H   0  0  0  0  0  0  0  0  0  0  0  0
    7.9592    2.9537    2.3297 H   0  0  0  0  0  0  0  0  0  0  0  0
    5.5519    2.6125    1.9458 H   0  0  0  0  0  0  0  0  0  0  0  0
    3.8395    2.0676    0.2546 H   0  0  0  0  0  0  0  0  0  0  0  0
    4.0895    0.8468   -0.9601 H   0  0  0  0  0  0  0  0  0  0  0  0
    4.3318   -0.8936    0.9476 H   0  0  0  0  0  0  0  0  0  0  0  0
    3.9257    0.3623    2.0781 H   0  0  0  0  0  0  0  0  0  0  0  0
    1.5192    1.1024    2.2497 H   0  0  0  0  0  0  0  0  0  0  0  0
    1.6776    1.7145    0.6036 H   0  0  0  0  0  0  0  0  0  0  0  0
   -0.6607    1.3675    1.1147 H   0  0  0  0  0  0  0  0  0  0  0  0
   -0.3740   -0.3102    1.6108 H   0  0  0  0  0  0  0  0  0  0  0  0
   -0.9647   -4.3010   -2.4462 H   0  0  0  0  0  0  0  0  0  0  0  0
   -2.7736   -5.9487   -2.8522 H   0  0  0  0  0  0  0  0  0  0  0  0
   -5.1013   -5.4407   -2.1557 H   0  0  0  0  0  0  0  0  0  0  0  0
   -5.6310   -3.3005   -1.0616 H   0  0  0  0  0  0  0  0  0  0  0  0
   -5.8854   -1.3189   -0.0934 H   0  0  0  0  0  0  0  0  0  0  0  0
   -7.2722    0.8035   -0.4207 H   0  0  0  0  0  0  0  0  0  0  0  0
   -8.9399    2.3497    0.5251 H   0  0  0  0  0  0  0  0  0  0  0  0
   -8.3266    3.8638    2.3928 H   0  0  0  0  0  0  0  0  0  0  0  0
   -6.0246    3.8182    3.3182 H   0  0  0  0  0  0  0  0  0  0  0  0
   -4.3451    2.2673    2.3961 H   0  0  0  0  0  0  0  0  0  0  0  0
   -2.7419    1.6185    0.4016 H   0  0  0  0  0  0  0  0  0  0  0  0
    1.3717    0.7413   -1.5527 H   0  0  0  0  0  0  0  0  0  0  0  0
    0.7721   -0.7783   -2.1627 H   0  0  0  0  0  0  0  0  0  0  0  0
    2.8836   -1.1734   -0.9755 H   0  0  0  0  0  0  0  0  0  0  0  0
    1.5822   -1.9546   -0.1030 H   0  0  0  0  0  0  0  0  0  0  0  0
  1  2  1  0
  2  3  1  0
  2  4  1  0
  2  5  1  0
  5  6  2  0
  6  7  1  0
  7  8  2  0
  8  9  1  0
  9 10  2  0
 10 11  1  0
 11 12  1  0
 12 13  1  0
 13 14  1  0
 14 15  1  0
 15 16  1  0
 16 17  1  0
 17 18  2  0
 18 19  1  0
 19 20  2  0
 20 21  1  0
 21 22  2  0
 22 23  1  0
 23 24  2  0
 24 25  1  0
 25 26  1  0
 26 27  2  0
 27 28  1  0
 28 29  2  0
 29 30  1  0
 30 31  2  0
 31 32  1  0
 32 33  2  0
 27 34  1  0
 34 35  2  0
 16 36  1  0
 36 37  1  0
 10  5  1  0
 37 13  1  0
 35 17  1  0
 24 19  1  0
 35 25  1  0
 33 28  1  0
  6 38  1  0
  7 39  1  0
  8 40  1  0
  9 41  1  0
 11 42  1  0
 11 43  1  0
 12 44  1  0
 12 45  1  0
 14 46  1  0
 14 47  1  0
 15 48  1  0
 15 49  1  0
 20 50  1  0
 21 51  1  0
 22 52  1  0
 23 53  1  0
 26 54  1  0
 29 55  1  0
 30 56  1  0
 31 57  1  0
 32 58  1  0
 33 59  1  0
 34 60  1  0
 36 61  1  0
 36 62  1  0
 37 63  1  0
 37 64  1  0
M  END
$$$$
