
     RDKit          3D

 37 39  0  0  0  0  0  0  0  0999 V2000
    4.5636    0.2791   -0.0801 N   0  0  0  0  0  0  0  0  0  0  0  0
    3.4263    0.2121    0.8285 C   0  0  0  0  0  0  0  0  0  0  0  0
    2.1475   -0.1201    0.0625 C   0  0  0  0  0  0  0  0  0  0  0  0
    0.9599   -0.2440    1.0282 C   0  0  0  0  0  0  0  0  0  0  0  0
   -0.3103   -0.5114    0.3135 N   0  0  0  0  0  0  0  0  0  0  0  0
   -0.6907   -1.8777    0.1593 C   0  0  0  0  0  0  0  0  0  0  0  0
    0.2322   -2.9387    0.3072 C   0  0  0  0  0  0  0  0  0  0  0  0
   -0.1282   -4.2823    0.1447 C   0  0  0  0  0  0  0  0  0  0  0  0
   -1.4325   -4.6149   -0.1771 C   0  0  0  0  0  0  0  0  0  0  0  0
   -2.3680   -3.6001   -0.3379 C   0  0  0  0  0  0  0  0  0  0  0  0
   -2.0090   -2.2464   -0.1782 C   0  0  0  0  0  0  0  0  0  0  0  0
   -3.3315   -1.0792   -0.3911 S   0  0  0  0  0  0  0  0  0  0  0  0
   -2.4683    0.4728   -0.3956 C   0  0  0  0  0  0  0  0  0  0  0  0
   -3.2439    1.5922   -0.7558 C   0  0  0  0  0  0  0  0  0  0  0  0
   -2.6968    2.8707   -0.7785 C   0  0  0  0  0  0  0  0  0  0  0  0
   -1.3600    3.0525   -0.4345 C   0  0  0  0  0  0  0  0  0  0  0  0
   -0.7290    4.4218   -0.4800 C   0  0  0  0  0  0  0  0  0  0  0  0
    0.2408    4.5896    0.4632 F   0  0  0  0  0  0  0  0  0  0  0  0
   -0.1323    4.6775   -1.6763 F   0  0  0  0  0  0  0  0  0  0  0  0
   -1.6193    5.4326   -0.2797 F   0  0  0  0  0  0  0  0  0  0  0  0
   -0.5896    1.9259   -0.0814 C   0  0  0  0  0  0  0  0  0  0  0  0
   -1.1125    0.6122   -0.0393 C   0  0  0  0  0  0  0  0  0  0  0  0
    4.4082    0.9985   -0.7860 H   0  0  0  0  0  0  0  0  0  0  0  0
    5.3984    0.5599    0.4336 H   0  0  0  0  0  0  0  0  0  0  0  0
    3.3185    1.1718    1.3459 H   0  0  0  0  0  0  0  0  0  0  0  0
    3.6227   -0.5551    1.5850 H   0  0  0  0  0  0  0  0  0  0  0  0
    1.9550    0.6545   -0.6888 H   0  0  0  0  0  0  0  0  0  0  0  0
    2.2835   -1.0515   -0.4988 H   0  0  0  0  0  0  0  0  0  0  0  0
    0.8768    0.6600    1.6460 H   0  0  0  0  0  0  0  0  0  0  0  0
    1.1608   -1.0193    1.7793 H   0  0  0  0  0  0  0  0  0  0  0  0
    1.2768   -2.7572    0.5370 H   0  0  0  0  0  0  0  0  0  0  0  0
    0.6197   -5.0620    0.2654 H   0  0  0  0  0  0  0  0  0  0  0  0
   -1.7220   -5.6539   -0.3060 H   0  0  0  0  0  0  0  0  0  0  0  0
   -3.3917   -3.8695   -0.5909 H   0  0  0  0  0  0  0  0  0  0  0  0
   -4.2921    1.4677   -1.0240 H   0  0  0  0  0  0  0  0  0  0  0  0
   -3.3187    3.7167   -1.0660 H   0  0  0  0  0  0  0  0  0  0  0  0
    0.4559    2.1150    0.1467 H   0  0  0  0  0  0  0  0  0  0  0  0
  1  2  1  0
  2  3  1  0
  3  4  1  0
  4  5  1  0
  5  6  1  0
  6  7  2  0
  7  8  1  0
  8  9  2  0
  9 10  1  0
 10 11  2  0
 11 12  1  0
 12 13  1  0
 13 14  2  0
 14 15  1  0
 15 16  2  0
 16 17  1  0
 17 18  1  0
 17 19  1  0
 17 20  1  0
 16 21  1  0
 21 22  2  0
 22  5  1  0
 11  6  1  0
 22 13  1  0
  1 23  1  0
  1 24  1  0
  2 25  1  0
  2 26  1  0
  3 27  1  0
  3 28  1  0
  4 29  1  0
  4 30  1  0
  7 31  1  0
  8 32  1  0
  9 33  1  0
 10 34  1  0
 14 35  1  0
 15 36  1  0
 21 37  1  0
M  END
$$$$
