
     RDKit          3D

 52 55  0  0  0  0  0  0  0  0999 V2000
    5.2903    0.8711   -3.0868 C   0  0  0  0  0  0  0  0  0  0  0  0
    4.6324    1.6002   -2.0600 O   0  0  0  0  0  0  0  0  0  0  0  0
    3.8019    0.8863   -1.2363 C   0  0  0  0  0  0  0  0  0  0  0  0
    3.5467   -0.4824   -1.3070 C   0  0  0  0  0  0  0  0  0  0  0  0
    2.6805   -1.0942   -0.3848 C   0  0  0  0  0  0  0  0  0  0  0  0
    2.0629   -0.3467    0.6182 C   0  0  0  0  0  0  0  0  0  0  0  0
    1.1890   -0.8867    1.5853 N   0  0  0  0  0  0  0  0  0  0  0  0
    0.7871   -2.2060    1.7254 C   0  0  0  0  0  0  0  0  0  0  0  0
    1.1819   -3.1628    1.0658 O   0  0  0  0  0  0  0  0  0  0  0  0
   -0.2431   -2.3935    2.8310 C   0  0  0  0  0  0  0  0  0  0  0  0
   -1.9234   -2.1886    2.1873 S   0  0  0  0  0  0  0  0  0  0  0  0
   -1.8721   -0.4905    1.7292 C   0  0  0  0  0  0  0  0  0  0  0  0
   -1.4035    0.3225    2.6321 N   0  0  0  0  0  0  0  0  0  0  0  0
   -1.3408    1.6403    2.2854 C   0  0  0  0  0  0  0  0  0  0  0  0
   -1.6827    2.1410    1.1008 C   0  0  0  0  0  0  0  0  0  0  0  0
   -2.2203    1.2423    0.0590 C   0  0  0  0  0  0  0  0  0  0  0  0
   -2.6110    1.6931   -1.0175 O   0  0  0  0  0  0  0  0  0  0  0  0
   -2.2907   -0.1011    0.4562 N   0  0  0  0  0  0  0  0  0  0  0  0
   -2.7139   -1.0394   -0.5330 C   0  0  0  0  0  0  0  0  0  0  0  0
   -3.9128   -1.7493   -0.3657 C   0  0  0  0  0  0  0  0  0  0  0  0
   -4.3376   -2.6493   -1.3453 C   0  0  0  0  0  0  0  0  0  0  0  0
   -3.5718   -2.8437   -2.4943 C   0  0  0  0  0  0  0  0  0  0  0  0
   -2.3762   -2.1387   -2.6722 C   0  0  0  0  0  0  0  0  0  0  0  0
   -1.9509   -1.2264   -1.7015 C   0  0  0  0  0  0  0  0  0  0  0  0
   -0.7466   -0.5700   -1.7862 O   0  0  0  0  0  0  0  0  0  0  0  0
   -0.4983    0.0118   -3.0643 C   0  0  0  0  0  0  0  0  0  0  0  0
   -1.4706    3.8353    0.9261 S   0  0  0  0  0  0  0  0  0  0  0  0
   -1.1829    4.0445    2.7182 C   0  0  0  0  0  0  0  0  0  0  0  0
   -0.8338    2.6569    3.2669 C   0  0  0  0  0  0  0  0  0  0  0  0
    2.3129    1.0290    0.6776 C   0  0  0  0  0  0  0  0  0  0  0  0
    3.1753    1.6378   -0.2421 C   0  0  0  0  0  0  0  0  0  0  0  0
    5.9391    0.0927   -2.6706 H   0  0  0  0  0  0  0  0  0  0  0  0
    5.9201    1.5744   -3.6390 H   0  0  0  0  0  0  0  0  0  0  0  0
    4.5697    0.4489   -3.7943 H   0  0  0  0  0  0  0  0  0  0  0  0
    4.0039   -1.1118   -2.0635 H   0  0  0  0  0  0  0  0  0  0  0  0
    2.5102   -2.1625   -0.4831 H   0  0  0  0  0  0  0  0  0  0  0  0
    0.7744   -0.2205    2.2303 H   0  0  0  0  0  0  0  0  0  0  0  0
   -0.1414   -3.4105    3.2225 H   0  0  0  0  0  0  0  0  0  0  0  0
   -0.0489   -1.7145    3.6645 H   0  0  0  0  0  0  0  0  0  0  0  0
   -4.5273   -1.5991    0.5180 H   0  0  0  0  0  0  0  0  0  0  0  0
   -5.2640   -3.2023   -1.2084 H   0  0  0  0  0  0  0  0  0  0  0  0
   -3.8979   -3.5550   -3.2516 H   0  0  0  0  0  0  0  0  0  0  0  0
   -1.7756   -2.3333   -3.5570 H   0  0  0  0  0  0  0  0  0  0  0  0
   -1.4009    0.4646   -3.4987 H   0  0  0  0  0  0  0  0  0  0  0  0
   -0.0718   -0.7333   -3.7428 H   0  0  0  0  0  0  0  0  0  0  0  0
    0.2431    0.8045   -2.9299 H   0  0  0  0  0  0  0  0  0  0  0  0
   -0.3844    4.7686    2.9078 H   0  0  0  0  0  0  0  0  0  0  0  0
   -2.1048    4.4184    3.1755 H   0  0  0  0  0  0  0  0  0  0  0  0
   -1.2853    2.5195    4.2563 H   0  0  0  0  0  0  0  0  0  0  0  0
    0.2518    2.5510    3.3797 H   0  0  0  0  0  0  0  0  0  0  0  0
    1.8493    1.6500    1.4379 H   0  0  0  0  0  0  0  0  0  0  0  0
    3.3631    2.7076   -0.1810 H   0  0  0  0  0  0  0  0  0  0  0  0
  1  2  1  0
  2  3  1  0
  3  4  2  0
  4  5  1  0
  5  6  2  0
  6  7  1  0
  7  8  1  0
  8  9  2  0
  8 10  1  0
 10 11  1  0
 11 12  1  0
 12 13  2  0
 13 14  1  0
 14 15  2  0
 15 16  1  0
 16 17  2  0
 16 18  1  0
 18 19  1  0
 19 20  2  0
 20 21  1  0
 21 22  2  0
 22 23  1  0
 23 24  2  0
 24 25  1  0
 25 26  1  0
 15 27  1  0
 27 28  1  0
 28 29  1  0
  6 30  1  0
 30 31  2  0
 31  3  1  0
 18 12  1  0
 24 19  1  0
 29 14  1  0
  1 32  1  0
  1 33  1  0
  1 34  1  0
  4 35  1  0
  5 36  1  0
  7 37  1  0
 10 38  1  0
 10 39  1  0
 20 40  1  0
 21 41  1  0
 22 42  1  0
 23 43  1  0
 26 44  1  0
 26 45  1  0
 26 46  1  0
 28 47  1  0
 28 48  1  0
 29 49  1  0
 29 50  1  0
 30 51  1  0
 31 52  1  0
M  END
$$$$
