
     RDKit          3D

 36 35  0  0  0  0  0  0  0  0999 V2000
    3.1002   -0.9259   -3.2184 C   0  0  0  0  0  0  0  0  0  0  0  0
    1.8119   -0.7060   -2.4369 C   0  0  0  0  0  0  0  0  0  0  0  0
    2.0541   -0.4702   -1.0014 N   0  0  0  0  0  0  0  0  0  0  0  0
    2.1901   -1.6976   -0.1948 C   0  0  0  0  0  0  0  0  0  0  0  0
    0.8472   -2.2207    0.2850 C   0  0  0  0  0  0  0  0  0  0  0  0
    2.2123    0.8338   -0.4805 C   0  0  0  0  0  0  0  0  0  0  0  0
    2.3552    2.2306   -1.4257 S   0  0  0  0  0  0  0  0  0  0  0  0
    2.3385    0.9717    1.2888 S   0  0  0  0  0  0  0  0  0  0  0  0
    0.7556    2.1996    1.8019 S   0  0  0  0  0  0  0  0  0  0  0  0
   -0.5437    1.0496    2.1839 C   0  0  0  0  0  0  0  0  0  0  0  0
   -0.4488    0.1962    3.6405 S   0  0  0  0  0  0  0  0  0  0  0  0
   -1.6199    0.9748    1.2729 N   0  0  0  0  0  0  0  0  0  0  0  0
   -1.6558    1.6902   -0.0143 C   0  0  0  0  0  0  0  0  0  0  0  0
   -2.2848    3.0707    0.1078 C   0  0  0  0  0  0  0  0  0  0  0  0
   -2.8422    0.2063    1.5758 C   0  0  0  0  0  0  0  0  0  0  0  0
   -2.7760   -1.2199    1.0507 C   0  0  0  0  0  0  0  0  0  0  0  0
    2.8757   -1.0870   -4.2774 H   0  0  0  0  0  0  0  0  0  0  0  0
    3.6423   -1.8030   -2.8513 H   0  0  0  0  0  0  0  0  0  0  0  0
    3.7728   -0.0669   -3.1399 H   0  0  0  0  0  0  0  0  0  0  0  0
    1.2538    0.1296   -2.8697 H   0  0  0  0  0  0  0  0  0  0  0  0
    1.1643   -1.5842   -2.5398 H   0  0  0  0  0  0  0  0  0  0  0  0
    2.6816   -2.4624   -0.8068 H   0  0  0  0  0  0  0  0  0  0  0  0
    2.8541   -1.5321    0.6575 H   0  0  0  0  0  0  0  0  0  0  0  0
    0.1925   -2.4697   -0.5559 H   0  0  0  0  0  0  0  0  0  0  0  0
    0.3319   -1.4774    0.8944 H   0  0  0  0  0  0  0  0  0  0  0  0
    0.9837   -3.1237    0.8877 H   0  0  0  0  0  0  0  0  0  0  0  0
   -0.6522    1.7738   -0.4319 H   0  0  0  0  0  0  0  0  0  0  0  0
   -2.2258    1.0869   -0.7305 H   0  0  0  0  0  0  0  0  0  0  0  0
   -1.7388    3.7034    0.8136 H   0  0  0  0  0  0  0  0  0  0  0  0
   -2.2887    3.5709   -0.8656 H   0  0  0  0  0  0  0  0  0  0  0  0
   -3.3196    3.0037    0.4581 H   0  0  0  0  0  0  0  0  0  0  0  0
   -3.6981    0.7226    1.1259 H   0  0  0  0  0  0  0  0  0  0  0  0
   -3.0333    0.1959    2.6526 H   0  0  0  0  0  0  0  0  0  0  0  0
   -3.7224   -1.7359    1.2402 H   0  0  0  0  0  0  0  0  0  0  0  0
   -1.9802   -1.7893    1.5387 H   0  0  0  0  0  0  0  0  0  0  0  0
   -2.5874   -1.2383   -0.0274 H   0  0  0  0  0  0  0  0  0  0  0  0
  1  2  1  0
  2  3  1  0
  3  4  1  0
  4  5  1  0
  3  6  1  0
  6  7  2  0
  6  8  1  0
  8  9  1  0
  9 10  1  0
 10 11  2  0
 10 12  1  0
 12 13  1  0
 13 14  1  0
 12 15  1  0
 15 16  1  0
  1 17  1  0
  1 18  1  0
  1 19  1  0
  2 20  1  0
  2 21  1  0
  4 22  1  0
  4 23  1  0
  5 24  1  0
  5 25  1  0
  5 26  1  0
 13 27  1  0
 13 28  1  0
 14 29  1  0
 14 30  1  0
 14 31  1  0
 15 32  1  0
 15 33  1  0
 16 34  1  0
 16 35  1  0
 16 36  1  0
M  END
$$$$
