
     RDKit          3D

 50 53  0  0  0  0  0  0  0  0999 V2000
    7.4949   -0.2655    2.7528 C   0  0  0  0  0  0  0  0  0  0  0  0
    6.7499    1.0453    2.5752 C   0  0  0  0  0  0  0  0  0  0  0  0
    6.6352    1.3661    1.1888 O   0  0  0  0  0  0  0  0  0  0  0  0
    5.4805    1.0634    0.5270 C   0  0  0  0  0  0  0  0  0  0  0  0
    4.5330    0.1329    0.9619 C   0  0  0  0  0  0  0  0  0  0  0  0
    3.3902   -0.1376    0.1929 C   0  0  0  0  0  0  0  0  0  0  0  0
    3.1794    0.5202   -1.0275 C   0  0  0  0  0  0  0  0  0  0  0  0
    1.9827    0.2455   -1.8713 C   0  0  0  0  0  0  0  0  0  0  0  0
    2.1176    0.2919   -3.0873 O   0  0  0  0  0  0  0  0  0  0  0  0
    0.8169    0.0041   -1.1697 N   0  0  0  0  0  0  0  0  0  0  0  0
   -0.4396   -0.3582   -1.7007 C   0  0  0  0  0  0  0  0  0  0  0  0
   -0.6631   -0.6437   -3.0468 C   0  0  0  0  0  0  0  0  0  0  0  0
   -1.9321   -1.0280   -3.4856 C   0  0  0  0  0  0  0  0  0  0  0  0
   -2.9894   -1.1277   -2.5814 C   0  0  0  0  0  0  0  0  0  0  0  0
   -2.7933   -0.8354   -1.2248 C   0  0  0  0  0  0  0  0  0  0  0  0
   -3.9093   -0.9323   -0.2557 C   0  0  0  0  0  0  0  0  0  0  0  0
   -5.0565   -0.2831   -0.5201 C   0  0  0  0  0  0  0  0  0  0  0  0
   -6.1801   -0.3445    0.3995 C   0  0  0  0  0  0  0  0  0  0  0  0
   -7.3855    0.3143    0.1466 C   0  0  0  0  0  0  0  0  0  0  0  0
   -8.4395    0.2208    1.0613 C   0  0  0  0  0  0  0  0  0  0  0  0
   -8.2935   -0.5300    2.2300 C   0  0  0  0  0  0  0  0  0  0  0  0
   -7.0931   -1.1887    2.4880 C   0  0  0  0  0  0  0  0  0  0  0  0
   -6.0526   -1.0858    1.5677 C   0  0  0  0  0  0  0  0  0  0  0  0
   -4.8559   -1.7589    1.8640 O   0  0  0  0  0  0  0  0  0  0  0  0
   -3.7558   -1.7093    1.0130 C   0  0  0  0  0  0  0  0  0  0  0  0
   -2.7094   -2.2775    1.3117 O   0  0  0  0  0  0  0  0  0  0  0  0
   -1.5100   -0.4548   -0.7991 C   0  0  0  0  0  0  0  0  0  0  0  0
    4.1300    1.4294   -1.4943 C   0  0  0  0  0  0  0  0  0  0  0  0
    5.2578    1.6890   -0.7072 C   0  0  0  0  0  0  0  0  0  0  0  0
    6.2108    2.6601   -1.2007 N   0  0  0  0  0  4  0  0  0  0  0  0
    6.8627    2.3454   -2.2055 O   0  0  0  0  0  0  0  0  0  0  0  0
    6.2631    3.7494   -0.6131 O   0  0  0  0  0  1  0  0  0  0  0  0
    6.9549   -1.0974    2.2910 H   0  0  0  0  0  0  0  0  0  0  0  0
    8.4754   -0.2171    2.2675 H   0  0  0  0  0  0  0  0  0  0  0  0
    7.6391   -0.4882    3.8139 H   0  0  0  0  0  0  0  0  0  0  0  0
    5.7847    1.0486    3.0937 H   0  0  0  0  0  0  0  0  0  0  0  0
    7.3415    1.8468    3.0321 H   0  0  0  0  0  0  0  0  0  0  0  0
    4.6635   -0.4255    1.8845 H   0  0  0  0  0  0  0  0  0  0  0  0
    2.6943   -0.8970    0.5449 H   0  0  0  0  0  0  0  0  0  0  0  0
    0.8382    0.1460   -0.1682 H   0  0  0  0  0  0  0  0  0  0  0  0
    0.1345   -0.5924   -3.7818 H   0  0  0  0  0  0  0  0  0  0  0  0
   -2.0899   -1.2587   -4.5366 H   0  0  0  0  0  0  0  0  0  0  0  0
   -3.9628   -1.4464   -2.9483 H   0  0  0  0  0  0  0  0  0  0  0  0
   -5.1820    0.3105   -1.4211 H   0  0  0  0  0  0  0  0  0  0  0  0
   -7.5197    0.9033   -0.7575 H   0  0  0  0  0  0  0  0  0  0  0  0
   -9.3773    0.7345    0.8619 H   0  0  0  0  0  0  0  0  0  0  0  0
   -9.1156   -0.6001    2.9381 H   0  0  0  0  0  0  0  0  0  0  0  0
   -6.9699   -1.7743    3.3944 H   0  0  0  0  0  0  0  0  0  0  0  0
   -1.3465   -0.2368    0.2543 H   0  0  0  0  0  0  0  0  0  0  0  0
    3.9919    1.9276   -2.4525 H   0  0  0  0  0  0  0  0  0  0  0  0
  1  2  1  0
  2  3  1  0
  3  4  1  0
  4  5  2  0
  5  6  1  0
  6  7  2  0
  7  8  1  0
  8  9  2  0
  8 10  1  0
 10 11  1  0
 11 12  2  0
 12 13  1  0
 13 14  2  0
 14 15  1  0
 15 16  1  0
 16 17  2  0
 17 18  1  0
 18 19  2  0
 19 20  1  0
 20 21  2  0
 21 22  1  0
 22 23  2  0
 23 24  1  0
 24 25  1  0
 25 26  2  0
 15 27  2  0
  7 28  1  0
 28 29  2  0
 29 30  1  0
 30 31  2  0
 30 32  1  0
 29  4  1  0
 27 11  1  0
 25 16  1  0
 23 18  1  0
  1 33  1  0
  1 34  1  0
  1 35  1  0
  2 36  1  0
  2 37  1  0
  5 38  1  0
  6 39  1  0
 10 40  1  0
 12 41  1  0
 13 42  1  0
 14 43  1  0
 17 44  1  0
 19 45  1  0
 20 46  1  0
 21 47  1  0
 22 48  1  0
 27 49  1  0
 28 50  1  0
M  CHG  2  30   1  32  -1
M  END
$$$$
