
     RDKit          3D

 57 62  0  0  0  0  0  0  0  0999 V2000
    6.2349   -1.2035    1.3850 C   0  0  0  0  0  0  0  0  0  0  0  0
    4.8530   -0.8851    1.4833 O   0  0  0  0  0  0  0  0  0  0  0  0
    4.0489   -1.2657    0.4433 C   0  0  0  0  0  0  0  0  0  0  0  0
    4.4730   -1.9433   -0.7162 C   0  0  0  0  0  0  0  0  0  0  0  0
    3.5622   -2.2892   -1.7223 C   0  0  0  0  0  0  0  0  0  0  0  0
    2.2431   -1.9374   -1.5365 C   0  0  0  0  0  0  0  0  0  0  0  0
    1.8020   -1.2588   -0.3988 C   0  0  0  0  0  0  0  0  0  0  0  0
    2.7001   -0.9239    0.6030 C   0  0  0  0  0  0  0  0  0  0  0  0
    0.3269   -1.0241   -0.5142 C   0  0  0  0  0  0  0  0  0  0  0  0
   -0.4861   -1.5537    0.6193 N   0  0  0  0  0  0  0  0  0  0  0  0
   -1.5277   -0.5370    0.9944 C   0  0  2  0  0  0  0  0  0  0  0  0
   -2.9441   -0.8768    0.4824 C   0  0  0  0  0  0  0  0  0  0  0  0
   -3.4829   -2.1945    0.9887 C   0  0  0  0  0  0  0  0  0  0  0  0
   -3.8084   -2.3660    2.3408 C   0  0  0  0  0  0  0  0  0  0  0  0
   -4.2959   -3.5908    2.7997 C   0  0  0  0  0  0  0  0  0  0  0  0
   -4.4645   -4.6528    1.9131 C   0  0  0  0  0  0  0  0  0  0  0  0
   -4.1473   -4.4915    0.5660 C   0  0  0  0  0  0  0  0  0  0  0  0
   -3.6596   -3.2684    0.1046 C   0  0  0  0  0  0  0  0  0  0  0  0
   -0.9965    0.7003    0.3730 C   0  0  0  0  0  0  0  0  0  0  0  0
    0.0535    0.4230   -0.4978 C   0  0  0  0  0  0  0  0  0  0  0  0
    0.4934    1.6015   -1.0454 C   0  0  0  0  0  0  0  0  0  0  0  0
    1.5188    1.8243   -1.8652 O   0  0  0  0  0  0  0  0  0  0  0  0
   -0.3140    2.6403   -0.5260 N   0  0  0  0  0  0  0  0  0  0  0  0
   -0.2155    4.0389   -0.8511 C   0  0  0  0  0  0  0  0  0  0  0  0
    0.3452    4.4553   -2.0679 C   0  0  0  0  0  0  0  0  0  0  0  0
    0.4389    5.8146   -2.3859 C   0  0  0  0  0  0  0  0  0  0  0  0
   -0.0245    6.7763   -1.4938 C   0  0  0  0  0  0  0  0  0  0  0  0
   -0.5830    6.3793   -0.2829 C   0  0  0  0  0  0  0  0  0  0  0  0
   -0.6796    5.0204    0.0369 C   0  0  0  0  0  0  0  0  0  0  0  0
   -1.2293    2.0500    0.3757 C   0  0  0  0  0  0  0  0  0  0  0  0
   -2.1616    2.7429    1.0250 O   0  0  0  0  0  0  0  0  0  0  0  0
   -0.0214   -1.7180   -1.8636 C   0  0  0  0  0  0  0  0  0  0  0  0
   -1.1214   -1.8758   -2.3718 O   0  0  0  0  0  0  0  0  0  0  0  0
    1.1812   -2.1894   -2.3949 N   0  0  0  0  0  0  0  0  0  0  0  0
    6.7285   -0.8336    2.2888 H   0  0  0  0  0  0  0  0  0  0  0  0
    6.3882   -2.2869    1.3416 H   0  0  0  0  0  0  0  0  0  0  0  0
    6.6949   -0.7036    0.5262 H   0  0  0  0  0  0  0  0  0  0  0  0
    5.5132   -2.2198   -0.8588 H   0  0  0  0  0  0  0  0  0  0  0  0
    3.8931   -2.8181   -2.6091 H   0  0  0  0  0  0  0  0  0  0  0  0
    2.3640   -0.4046    1.4964 H   0  0  0  0  0  0  0  0  0  0  0  0
   -0.9454   -2.4147    0.3254 H   0  0  0  0  0  0  0  0  0  0  0  0
   -1.5278   -0.4441    2.0863 H   0  0  0  0  0  0  0  0  0  0  0  0
   -2.9642   -0.8684   -0.6156 H   0  0  0  0  0  0  0  0  0  0  0  0
   -3.6432   -0.0848    0.7841 H   0  0  0  0  0  0  0  0  0  0  0  0
   -3.6855   -1.5491    3.0477 H   0  0  0  0  0  0  0  0  0  0  0  0
   -4.5451   -3.7168    3.8501 H   0  0  0  0  0  0  0  0  0  0  0  0
   -4.8450   -5.6055    2.2717 H   0  0  0  0  0  0  0  0  0  0  0  0
   -4.2812   -5.3179   -0.1272 H   0  0  0  0  0  0  0  0  0  0  0  0
   -3.4171   -3.1587   -0.9518 H   0  0  0  0  0  0  0  0  0  0  0  0
    2.0350    1.0026   -1.9373 H   0  0  0  0  0  0  0  0  0  0  0  0
    0.6876    3.7427   -2.8118 H   0  0  0  0  0  0  0  0  0  0  0  0
    0.8696    6.1171   -3.3368 H   0  0  0  0  0  0  0  0  0  0  0  0
    0.0491    7.8315   -1.7413 H   0  0  0  0  0  0  0  0  0  0  0  0
   -0.9412    7.1254    0.4215 H   0  0  0  0  0  0  0  0  0  0  0  0
   -1.0911    4.7640    1.0078 H   0  0  0  0  0  0  0  0  0  0  0  0
   -2.6780    2.1217    1.5655 H   0  0  0  0  0  0  0  0  0  0  0  0
    1.2299   -2.6998   -3.2642 H   0  0  0  0  0  0  0  0  0  0  0  0
  1  2  1  0
  2  3  1  0
  3  4  2  0
  4  5  1  0
  5  6  2  0
  6  7  1  0
  7  8  2  0
  7  9  1  0
  9 10  1  0
 10 11  1  0
 11 12  1  0
 12 13  1  0
 13 14  2  0
 14 15  1  0
 15 16  2  0
 16 17  1  0
 17 18  2  0
 11 19  1  0
 19 20  1  0
 20 21  2  0
 21 22  1  0
 21 23  1  0
 23 24  1  0
 24 25  2  0
 25 26  1  0
 26 27  2  0
 27 28  1  0
 28 29  2  0
 23 30  1  0
 30 31  1  0
  9 32  1  0
 32 33  2  0
 32 34  1  0
  8  3  1  0
 20  9  1  0
 29 24  1  0
 34  6  1  0
 18 13  1  0
 30 19  2  0
  1 35  1  0
  1 36  1  0
  1 37  1  0
  4 38  1  0
  5 39  1  0
  8 40  1  0
 10 41  1  0
 11 42  1  1
 12 43  1  0
 12 44  1  0
 14 45  1  0
 15 46  1  0
 16 47  1  0
 17 48  1  0
 18 49  1  0
 22 50  1  0
 25 51  1  0
 26 52  1  0
 27 53  1  0
 28 54  1  0
 29 55  1  0
 31 56  1  0
 34 57  1  0
M  END
$$$$
