
     RDKit          3D

 44 46  0  0  0  0  0  0  0  0999 V2000
   -5.3938    3.0622   -2.6889 C   0  0  0  0  0  0  0  0  0  0  0  0
   -5.4684    1.9362   -1.8271 O   0  0  0  0  0  0  0  0  0  0  0  0
   -4.2899    1.3704   -1.4117 C   0  0  0  0  0  0  0  0  0  0  0  0
   -3.0196    1.8368   -1.7610 C   0  0  0  0  0  0  0  0  0  0  0  0
   -1.8728    1.1940   -1.2834 C   0  0  0  0  0  0  0  0  0  0  0  0
   -1.9782    0.0774   -0.4491 C   0  0  0  0  0  0  0  0  0  0  0  0
   -0.7476   -0.5911   -0.0004 C   0  0  0  0  0  0  0  0  0  0  0  0
   -0.4269   -0.9030    1.2711 C   0  0  0  0  0  0  0  0  0  0  0  0
   -1.2575   -0.6621    2.3993 C   0  0  0  0  0  0  0  0  0  0  0  0
   -1.9511   -0.4363    3.3023 N   0  0  0  0  0  0  0  0  0  0  0  0
    0.8673   -1.6020    1.5157 C   0  0  0  0  0  0  0  0  0  0  0  0
    0.8675   -2.6775    2.0994 O   0  0  0  0  0  0  0  0  0  0  0  0
    1.9625   -0.8933    1.0507 N   0  0  0  0  0  0  0  0  0  0  0  0
    3.3308   -1.2807    1.0820 C   0  0  0  0  0  0  0  0  0  0  0  0
    3.7185   -2.5437    1.5418 C   0  0  0  0  0  0  0  0  0  0  0  0
    5.0588   -2.9139    1.5510 C   0  0  0  0  0  0  0  0  0  0  0  0
    6.0257   -2.0239    1.0966 C   0  0  0  0  0  0  0  0  0  0  0  0
    5.6933   -0.7642    0.6317 C   0  0  0  0  0  0  0  0  0  0  0  0
    6.7021    0.0201    0.2144 N   0  0  0  0  0  0  0  0  0  0  0  0
    6.4129    1.2548   -0.2381 C   0  0  0  0  0  0  0  0  0  0  0  0
    5.1341    1.7599   -0.2979 C   0  0  0  0  0  0  0  0  0  0  0  0
    4.0907    0.9447    0.1323 C   0  0  0  0  0  0  0  0  0  0  0  0
    4.3334   -0.3657    0.6173 C   0  0  0  0  0  0  0  0  0  0  0  0
   -3.2499   -0.4048   -0.1153 C   0  0  0  0  0  0  0  0  0  0  0  0
   -4.4034    0.2476   -0.5708 C   0  0  0  0  0  0  0  0  0  0  0  0
   -5.6776   -0.1737   -0.2768 O   0  0  0  0  0  0  0  0  0  0  0  0
   -5.8377   -0.9017    0.9353 C   0  0  0  0  0  0  0  0  0  0  0  0
   -4.8960    3.9039   -2.1964 H   0  0  0  0  0  0  0  0  0  0  0  0
   -4.8997    2.8062   -3.6320 H   0  0  0  0  0  0  0  0  0  0  0  0
   -6.4165    3.3725   -2.9236 H   0  0  0  0  0  0  0  0  0  0  0  0
   -2.8870    2.6999   -2.4049 H   0  0  0  0  0  0  0  0  0  0  0  0
   -0.8990    1.5805   -1.5759 H   0  0  0  0  0  0  0  0  0  0  0  0
   -0.0634   -0.8404   -0.8113 H   0  0  0  0  0  0  0  0  0  0  0  0
    1.7716    0.0239    0.6771 H   0  0  0  0  0  0  0  0  0  0  0  0
    3.0022   -3.2767    1.8988 H   0  0  0  0  0  0  0  0  0  0  0  0
    5.3499   -3.8976    1.9110 H   0  0  0  0  0  0  0  0  0  0  0  0
    7.0719   -2.3226    1.1066 H   0  0  0  0  0  0  0  0  0  0  0  0
    7.2678    1.8432   -0.5588 H   0  0  0  0  0  0  0  0  0  0  0  0
    4.9511    2.7629   -0.6665 H   0  0  0  0  0  0  0  0  0  0  0  0
    3.0917    1.3624    0.0846 H   0  0  0  0  0  0  0  0  0  0  0  0
   -3.3379   -1.3052    0.4848 H   0  0  0  0  0  0  0  0  0  0  0  0
   -5.3334   -0.4093    1.7740 H   0  0  0  0  0  0  0  0  0  0  0  0
   -6.9072   -0.9375    1.1640 H   0  0  0  0  0  0  0  0  0  0  0  0
   -5.4893   -1.9324    0.8162 H   0  0  0  0  0  0  0  0  0  0  0  0
  1  2  1  0
  2  3  1  0
  3  4  2  0
  4  5  1  0
  5  6  2  0
  6  7  1  0
  7  8  2  3
  8  9  1  0
  9 10  3  0
  8 11  1  0
 11 12  2  0
 11 13  1  0
 13 14  1  0
 14 15  2  0
 15 16  1  0
 16 17  2  0
 17 18  1  0
 18 19  2  0
 19 20  1  0
 20 21  2  0
 21 22  1  0
 22 23  2  0
  6 24  1  0
 24 25  2  0
 25 26  1  0
 26 27  1  0
 25  3  1  0
 23 14  1  0
 23 18  1  0
  1 28  1  0
  1 29  1  0
  1 30  1  0
  4 31  1  0
  5 32  1  0
  7 33  1  0
 13 34  1  0
 15 35  1  0
 16 36  1  0
 17 37  1  0
 20 38  1  0
 21 39  1  0
 22 40  1  0
 24 41  1  0
 27 42  1  0
 27 43  1  0
 27 44  1  0
M  END
$$$$
