
     RDKit          3D

 60 62  0  0  0  0  0  0  0  0999 V2000
   -8.9128   -1.7809   -0.5637 C   0  0  0  0  0  0  0  0  0  0  0  0
   -8.1116   -0.8942   -1.5058 C   0  0  0  0  0  0  0  0  0  0  0  0
   -6.6523   -0.8231   -1.1349 C   0  0  0  0  0  0  0  0  0  0  0  0
   -6.2418   -0.1763    0.0358 C   0  0  0  0  0  0  0  0  0  0  0  0
   -4.8858   -0.1021    0.3774 C   0  0  0  0  0  0  0  0  0  0  0  0
   -3.9151   -0.6672   -0.4497 C   0  0  0  0  0  0  0  0  0  0  0  0
   -2.5310   -0.6374   -0.1793 N   0  0  0  0  0  0  0  0  0  0  0  0
   -1.8947   -0.0406    0.8972 C   0  0  0  0  0  0  0  0  0  0  0  0
   -2.4297    0.5714    1.8206 O   0  0  0  0  0  0  0  0  0  0  0  0
   -0.3665   -0.2463    0.8861 C   0  0  0  0  0  0  0  0  0  0  0  0
    0.2569    0.8192    1.7090 N   0  0  0  0  0  0  0  0  0  0  0  0
    0.6406    2.2584    0.9250 S   0  0  0  0  0  6  0  0  0  0  0  0
    0.6840    3.2920    1.9325 O   0  0  0  0  0  0  0  0  0  0  0  0
   -0.1748    2.3619   -0.2644 O   0  0  0  0  0  0  0  0  0  0  0  0
    2.3180    1.9391    0.4334 C   0  0  0  0  0  0  0  0  0  0  0  0
    3.3040    1.8072    1.4237 C   0  0  0  0  0  0  0  0  0  0  0  0
    4.6331    1.5376    1.0697 C   0  0  0  0  0  0  0  0  0  0  0  0
    4.9585    1.4108   -0.2710 C   0  0  0  0  0  0  0  0  0  0  0  0
    3.9647    1.5674   -1.2480 C   0  0  0  0  0  0  0  0  0  0  0  0
    2.6401    1.8257   -0.9192 C   0  0  0  0  0  0  0  0  0  0  0  0
    4.5150    1.3789   -2.6275 C   0  0  0  0  0  0  0  0  0  0  0  0
    6.0151    1.2946   -2.3526 C   0  0  0  0  0  0  0  0  0  0  0  0
    6.1926    1.1561   -0.8981 N   0  0  0  0  0  0  0  0  0  0  0  0
    7.4507    0.8866   -0.4043 C   0  0  0  0  0  0  0  0  0  0  0  0
    7.6430    0.6698    1.0688 C   0  0  0  0  0  0  0  0  0  0  0  0
    8.4287    0.8011   -1.1556 O   0  0  0  0  0  0  0  0  0  0  0  0
    0.0144   -1.6445    1.4224 C   0  0  0  0  0  0  0  0  0  0  0  0
    1.4932   -1.9447    1.1576 C   0  0  0  0  0  0  0  0  0  0  0  0
   -0.2952   -1.8380    2.9105 C   0  0  0  0  0  0  0  0  0  0  0  0
   -4.3242   -1.3109   -1.6233 C   0  0  0  0  0  0  0  0  0  0  0  0
   -5.6791   -1.3901   -1.9631 C   0  0  0  0  0  0  0  0  0  0  0  0
   -8.8948   -1.3987    0.4638 H   0  0  0  0  0  0  0  0  0  0  0  0
   -8.5167   -2.8024   -0.5497 H   0  0  0  0  0  0  0  0  0  0  0  0
   -9.9583   -1.8248   -0.8861 H   0  0  0  0  0  0  0  0  0  0  0  0
   -8.5280    0.1223   -1.5088 H   0  0  0  0  0  0  0  0  0  0  0  0
   -8.2213   -1.2741   -2.5283 H   0  0  0  0  0  0  0  0  0  0  0  0
   -6.9743    0.2797    0.6985 H   0  0  0  0  0  0  0  0  0  0  0  0
   -4.6277    0.4097    1.2992 H   0  0  0  0  0  0  0  0  0  0  0  0
   -1.9433   -1.0722   -0.8814 H   0  0  0  0  0  0  0  0  0  0  0  0
   -0.0105   -0.1732   -0.1492 H   0  0  0  0  0  0  0  0  0  0  0  0
   -0.2683    1.0268    2.5665 H   0  0  0  0  0  0  0  0  0  0  0  0
    3.0368    1.9158    2.4737 H   0  0  0  0  0  0  0  0  0  0  0  0
    5.3583    1.4569    1.8655 H   0  0  0  0  0  0  0  0  0  0  0  0
    1.8864    1.9362   -1.6939 H   0  0  0  0  0  0  0  0  0  0  0  0
    4.2751    2.2144   -3.2914 H   0  0  0  0  0  0  0  0  0  0  0  0
    4.1425    0.4441   -3.0585 H   0  0  0  0  0  0  0  0  0  0  0  0
    6.5280    2.2126   -2.6700 H   0  0  0  0  0  0  0  0  0  0  0  0
    6.4797    0.4492   -2.8763 H   0  0  0  0  0  0  0  0  0  0  0  0
    8.6508    0.2773    1.2418 H   0  0  0  0  0  0  0  0  0  0  0  0
    6.9392   -0.0766    1.4432 H   0  0  0  0  0  0  0  0  0  0  0  0
    7.5551    1.6151    1.6062 H   0  0  0  0  0  0  0  0  0  0  0  0
   -0.5719   -2.3916    0.8723 H   0  0  0  0  0  0  0  0  0  0  0  0
    1.7196   -1.8670    0.0891 H   0  0  0  0  0  0  0  0  0  0  0  0
    2.1490   -1.2543    1.6961 H   0  0  0  0  0  0  0  0  0  0  0  0
    1.7444   -2.9628    1.4771 H   0  0  0  0  0  0  0  0  0  0  0  0
    0.3025   -1.1711    3.5393 H   0  0  0  0  0  0  0  0  0  0  0  0
   -1.3530   -1.6558    3.1253 H   0  0  0  0  0  0  0  0  0  0  0  0
   -0.0723   -2.8662    3.2168 H   0  0  0  0  0  0  0  0  0  0  0  0
   -3.5992   -1.7580   -2.2959 H   0  0  0  0  0  0  0  0  0  0  0  0
   -5.9657   -1.8927   -2.8844 H   0  0  0  0  0  0  0  0  0  0  0  0
  1  2  1  0
  2  3  1  0
  3  4  2  0
  4  5  1  0
  5  6  2  0
  6  7  1  0
  7  8  1  0
  8  9  2  0
  8 10  1  0
 10 11  1  0
 11 12  1  0
 12 13  2  0
 12 14  2  0
 12 15  1  0
 15 16  2  0
 16 17  1  0
 17 18  2  0
 18 19  1  0
 19 20  2  0
 19 21  1  0
 21 22  1  0
 22 23  1  0
 23 24  1  0
 24 25  1  0
 24 26  2  0
 10 27  1  0
 27 28  1  0
 27 29  1  0
  6 30  1  0
 30 31  2  0
 31  3  1  0
 20 15  1  0
 23 18  1  0
  1 32  1  0
  1 33  1  0
  1 34  1  0
  2 35  1  0
  2 36  1  0
  4 37  1  0
  5 38  1  0
  7 39  1  0
 10 40  1  0
 11 41  1  0
 16 42  1  0
 17 43  1  0
 20 44  1  0
 21 45  1  0
 21 46  1  0
 22 47  1  0
 22 48  1  0
 25 49  1  0
 25 50  1  0
 25 51  1  0
 27 52  1  0
 28 53  1  0
 28 54  1  0
 28 55  1  0
 29 56  1  0
 29 57  1  0
 29 58  1  0
 30 59  1  0
 31 60  1  0
M  END
$$$$
