
     RDKit          3D

 59 62  0  0  0  0  0  0  0  0999 V2000
   -7.1296   -3.3646   -0.4286 C   0  0  0  0  0  0  0  0  0  0  0  0
   -7.0783   -2.0456   -1.1665 C   0  0  0  0  0  0  0  0  0  0  0  0
   -5.9316   -1.2399   -0.7918 N   0  0  0  0  0  0  0  0  0  0  0  0
   -5.9672   -0.2225    0.1457 C   0  0  0  0  0  0  0  0  0  0  0  0
   -7.0030    0.2650    0.9659 C   0  0  0  0  0  0  0  0  0  0  0  0
   -6.7330    1.3440    1.8095 C   0  0  0  0  0  0  0  0  0  0  0  0
   -5.4679    1.9088    1.8561 C   0  0  0  0  0  0  0  0  0  0  0  0
   -4.4381    1.4073    1.0598 C   0  0  0  0  0  0  0  0  0  0  0  0
   -4.6857    0.3255    0.1882 C   0  0  0  0  0  0  0  0  0  0  0  0
   -3.8645   -0.4070   -0.7275 C   0  0  0  0  0  0  0  0  0  0  0  0
   -2.4999   -0.3253   -1.0893 C   0  0  0  0  0  0  0  0  0  0  0  0
   -1.9597   -1.2087   -2.0358 C   0  0  0  0  0  0  0  0  0  0  0  0
   -0.5991   -1.2065   -2.4298 N   0  0  0  0  0  0  0  0  0  0  0  0
    0.4531   -0.5816   -1.7760 C   0  0  0  0  0  0  0  0  0  0  0  0
    0.3500    0.0880   -0.7497 O   0  0  0  0  0  0  0  0  0  0  0  0
    1.8280   -0.7939   -2.4562 C   0  0  0  0  0  0  0  0  0  0  0  0
    2.1128   -2.2568   -2.7929 C   0  0  0  0  0  0  0  0  0  0  0  0
    2.8691   -0.3956   -1.5490 O   0  0  0  0  0  0  0  0  0  0  0  0
    3.2356    0.9025   -1.5874 C   0  0  0  0  0  0  0  0  0  0  0  0
    2.8898    1.7252   -2.4185 O   0  0  0  0  0  0  0  0  0  0  0  0
    4.1710    1.2028   -0.4658 C   0  0  0  0  0  0  0  0  0  0  0  0
    4.4312    0.2826    0.5549 C   0  0  0  0  0  0  0  0  0  0  0  0
    5.3165    0.5996    1.5923 C   0  0  0  0  0  0  0  0  0  0  0  0
    5.9639    1.8342    1.6219 C   0  0  0  0  0  0  0  0  0  0  0  0
    6.9078    2.2157    2.5990 N   0  0  0  0  0  0  0  0  0  0  0  0
    7.3537    1.4673    3.6738 C   0  0  0  0  0  0  0  0  0  0  0  0
    6.9517    0.3358    3.9563 O   0  0  0  0  0  0  0  0  0  0  0  0
    8.3996    2.1005    4.5726 C   0  0  0  0  0  0  0  0  0  0  0  0
    8.9432    3.3670    4.0926 C   0  0  0  0  0  0  0  0  0  0  0  0
    9.3367    4.3700    3.6587 N   0  0  0  0  0  0  0  0  0  0  0  0
    5.6884    2.7615    0.6096 C   0  0  0  0  0  0  0  0  0  0  0  0
    4.8056    2.4497   -0.4295 C   0  0  0  0  0  0  0  0  0  0  0  0
   -2.7958   -2.1475   -2.6470 C   0  0  0  0  0  0  0  0  0  0  0  0
   -4.1477   -2.2615   -2.2984 C   0  0  0  0  0  0  0  0  0  0  0  0
   -4.6624   -1.3768   -1.3317 C   0  0  0  0  0  0  0  0  0  0  0  0
   -7.0716   -3.2238    0.6544 H   0  0  0  0  0  0  0  0  0  0  0  0
   -6.2905   -4.0128   -0.7196 H   0  0  0  0  0  0  0  0  0  0  0  0
   -8.0693   -3.8834   -0.6718 H   0  0  0  0  0  0  0  0  0  0  0  0
   -7.0522   -2.1964   -2.2494 H   0  0  0  0  0  0  0  0  0  0  0  0
   -7.9822   -1.4713   -0.9558 H   0  0  0  0  0  0  0  0  0  0  0  0
   -7.9997   -0.1617    0.9573 H   0  0  0  0  0  0  0  0  0  0  0  0
   -7.5274    1.7423    2.4362 H   0  0  0  0  0  0  0  0  0  0  0  0
   -5.2709    2.7448    2.5154 H   0  0  0  0  0  0  0  0  0  0  0  0
   -3.4499    1.8488    1.1102 H   0  0  0  0  0  0  0  0  0  0  0  0
   -1.8964    0.4436   -0.6265 H   0  0  0  0  0  0  0  0  0  0  0  0
   -0.3733   -1.8213   -3.1970 H   0  0  0  0  0  0  0  0  0  0  0  0
    1.8537   -0.2020   -3.3806 H   0  0  0  0  0  0  0  0  0  0  0  0
    1.4992   -2.6200   -3.6225 H   0  0  0  0  0  0  0  0  0  0  0  0
    3.1641   -2.3905   -3.0722 H   0  0  0  0  0  0  0  0  0  0  0  0
    1.9313   -2.9012   -1.9251 H   0  0  0  0  0  0  0  0  0  0  0  0
    3.9410   -0.6906    0.5667 H   0  0  0  0  0  0  0  0  0  0  0  0
    5.4827   -0.1549    2.3524 H   0  0  0  0  0  0  0  0  0  0  0  0
    7.3028    3.1427    2.4560 H   0  0  0  0  0  0  0  0  0  0  0  0
    7.9412    2.2311    5.5594 H   0  0  0  0  0  0  0  0  0  0  0  0
    9.2254    1.3874    4.6754 H   0  0  0  0  0  0  0  0  0  0  0  0
    6.1541    3.7434    0.6050 H   0  0  0  0  0  0  0  0  0  0  0  0
    4.6141    3.1880   -1.2071 H   0  0  0  0  0  0  0  0  0  0  0  0
   -2.4004   -2.8416   -3.3925 H   0  0  0  0  0  0  0  0  0  0  0  0
   -4.7701   -3.0200   -2.7669 H   0  0  0  0  0  0  0  0  0  0  0  0
  1  2  1  0
  2  3  1  0
  3  4  1  0
  4  5  2  0
  5  6  1  0
  6  7  2  0
  7  8  1  0
  8  9  2  0
  9 10  1  0
 10 11  2  0
 11 12  1  0
 12 13  1  0
 13 14  1  0
 14 15  2  0
 14 16  1  0
 16 17  1  0
 16 18  1  0
 18 19  1  0
 19 20  2  0
 19 21  1  0
 21 22  2  0
 22 23  1  0
 23 24  2  0
 24 25  1  0
 25 26  1  0
 26 27  2  0
 26 28  1  0
 28 29  1  0
 29 30  3  0
 24 31  1  0
 31 32  2  0
 12 33  2  0
 33 34  1  0
 34 35  2  0
 35  3  1  0
  9  4  1  0
 35 10  1  0
 32 21  1  0
  1 36  1  0
  1 37  1  0
  1 38  1  0
  2 39  1  0
  2 40  1  0
  5 41  1  0
  6 42  1  0
  7 43  1  0
  8 44  1  0
 11 45  1  0
 13 46  1  0
 16 47  1  0
 17 48  1  0
 17 49  1  0
 17 50  1  0
 22 51  1  0
 23 52  1  0
 25 53  1  0
 28 54  1  0
 28 55  1  0
 31 56  1  0
 32 57  1  0
 33 58  1  0
 34 59  1  0
M  END
$$$$
