
     RDKit          3D

 42 44  0  0  0  0  0  0  0  0999 V2000
   -5.7364   -0.7569    2.0930 C   0  0  0  0  0  0  0  0  0  0  0  0
   -4.4586   -0.2698    2.4813 O   0  0  0  0  0  0  0  0  0  0  0  0
   -3.7223    0.3726    1.5253 C   0  0  0  0  0  0  0  0  0  0  0  0
   -4.1126    0.5979    0.2027 C   0  0  0  0  0  0  0  0  0  0  0  0
   -3.2572    1.2669   -0.6795 C   0  0  0  0  0  0  0  0  0  0  0  0
   -2.0046    1.7005   -0.2351 C   0  0  0  0  0  0  0  0  0  0  0  0
   -0.9250    2.5671   -1.3524 S   0  0  0  0  0  6  0  0  0  0  0  0
   -1.7519    3.1569   -2.3854 O   0  0  0  0  0  0  0  0  0  0  0  0
   -0.0228    3.3792   -0.5655 O   0  0  0  0  0  0  0  0  0  0  0  0
   -0.0630    1.3274   -2.1064 N   0  0  0  0  0  0  0  0  0  0  0  0
    0.6267    0.3501   -1.3304 C   0  0  0  0  0  0  0  0  0  0  0  0
    1.6554    0.7466   -0.4670 C   0  0  0  0  0  0  0  0  0  0  0  0
    2.3359   -0.1873    0.3263 C   0  0  0  0  0  0  0  0  0  0  0  0
    3.5608    0.4306    1.4698 S   0  0  0  0  0  0  0  0  0  0  0  0
    5.0209   -0.3314    0.9100 C   0  0  0  0  0  0  0  0  0  0  0  0
    6.0784    0.3533    0.3826 N   0  0  0  0  0  0  0  0  0  0  0  0
    6.9513   -0.5943    0.1351 C   0  0  0  0  0  0  0  0  0  0  0  0
    6.4387   -1.7938    0.5142 N   0  0  0  0  0  0  0  0  0  0  0  0
    5.1991   -1.6554    1.0181 N   0  0  0  0  0  0  0  0  0  0  0  0
    1.9651   -1.5325    0.2323 C   0  0  0  0  0  0  0  0  0  0  0  0
    2.5568   -2.5278    0.9609 O   0  0  0  0  0  0  0  0  0  0  0  0
    0.9461   -1.9368   -0.6296 C   0  0  0  0  0  0  0  0  0  0  0  0
    0.2669   -1.0037   -1.4257 C   0  0  0  0  0  0  0  0  0  0  0  0
   -0.8168   -1.4857   -2.3486 C   0  0  0  0  0  0  0  0  0  0  0  0
   -1.6160    1.5030    1.0915 C   0  0  0  0  0  0  0  0  0  0  0  0
   -2.4753    0.8320    1.9630 C   0  0  0  0  0  0  0  0  0  0  0  0
   -6.3975    0.0637    1.7960 H   0  0  0  0  0  0  0  0  0  0  0  0
   -6.1845   -1.2475    2.9622 H   0  0  0  0  0  0  0  0  0  0  0  0
   -5.6499   -1.5041    1.2974 H   0  0  0  0  0  0  0  0  0  0  0  0
   -5.0770    0.2697   -0.1715 H   0  0  0  0  0  0  0  0  0  0  0  0
   -3.5766    1.4435   -1.7047 H   0  0  0  0  0  0  0  0  0  0  0  0
   -0.4924    1.0405   -2.9827 H   0  0  0  0  0  0  0  0  0  0  0  0
    1.9356    1.7972   -0.4128 H   0  0  0  0  0  0  0  0  0  0  0  0
    7.9350   -0.4743   -0.2966 H   0  0  0  0  0  0  0  0  0  0  0  0
    6.8585   -2.7158    0.4606 H   0  0  0  0  0  0  0  0  0  0  0  0
    3.4365   -2.2042    1.2544 H   0  0  0  0  0  0  0  0  0  0  0  0
    0.6887   -2.9929   -0.6736 H   0  0  0  0  0  0  0  0  0  0  0  0
   -0.5450   -1.2840   -3.3891 H   0  0  0  0  0  0  0  0  0  0  0  0
   -1.7659   -0.9930   -2.1184 H   0  0  0  0  0  0  0  0  0  0  0  0
   -0.9776   -2.5649   -2.2520 H   0  0  0  0  0  0  0  0  0  0  0  0
   -0.6549    1.8611    1.4542 H   0  0  0  0  0  0  0  0  0  0  0  0
   -2.1725    0.6694    2.9960 H   0  0  0  0  0  0  0  0  0  0  0  0
  1  2  1  0
  2  3  1  0
  3  4  2  0
  4  5  1  0
  5  6  2  0
  6  7  1  0
  7  8  2  0
  7  9  2  0
  7 10  1  0
 10 11  1  0
 11 12  2  0
 12 13  1  0
 13 14  1  0
 14 15  1  0
 15 16  1  0
 16 17  2  0
 17 18  1  0
 18 19  1  0
 13 20  2  0
 20 21  1  0
 20 22  1  0
 22 23  2  0
 23 24  1  0
  6 25  1  0
 25 26  2  0
 26  3  1  0
 23 11  1  0
 19 15  2  0
  1 27  1  0
  1 28  1  0
  1 29  1  0
  4 30  1  0
  5 31  1  0
 10 32  1  0
 12 33  1  0
 17 34  1  0
 18 35  1  0
 21 36  1  0
 22 37  1  0
 24 38  1  0
 24 39  1  0
 24 40  1  0
 25 41  1  0
 26 42  1  0
M  END
$$$$
