
     RDKit          3D

 46 49  0  0  0  0  0  0  0  0999 V2000
    4.1525    2.7750   -0.1203 O   0  0  0  0  0  0  0  0  0  0  0  0
    3.2253    2.1335   -0.6066 C   0  0  0  0  0  0  0  0  0  0  0  0
    1.7802    2.4688   -0.2802 C   0  0  0  0  0  0  0  0  0  0  0  0
    1.0970    1.1929    0.8183 S   0  0  0  0  0  0  0  0  0  0  0  0
   -0.5635    1.6714    0.8441 C   0  0  0  0  0  0  0  0  0  0  0  0
   -1.0818    2.6630    0.1593 N   0  0  0  0  0  0  0  0  0  0  0  0
   -2.4129    2.7367    0.4731 N   0  0  0  0  0  0  0  0  0  0  0  0
   -2.6881    1.7829    1.3426 C   0  0  0  0  0  0  0  0  0  0  0  0
   -4.0222    1.5580    1.9760 C   0  0  0  0  0  0  0  0  0  0  0  0
   -4.7520    0.3533    1.4520 C   0  0  0  0  0  0  0  0  0  0  0  0
   -4.7897   -0.1566    0.1665 C   0  0  0  0  0  0  0  0  0  0  0  0
   -5.6083   -1.3188    0.0655 C   0  0  0  0  0  0  0  0  0  0  0  0
   -6.1936   -1.6436    1.2681 C   0  0  0  0  0  0  0  0  0  0  0  0
   -5.7523   -0.5565    2.5107 S   0  0  0  0  0  0  0  0  0  0  0  0
   -1.5363    1.0632    1.5920 N   0  0  0  0  0  0  0  0  0  0  0  0
   -1.3758   -0.0379    2.5239 C   0  0  0  0  0  0  0  0  0  0  0  0
   -1.5950   -1.3584    1.8812 C   0  0  0  0  0  0  0  0  0  0  0  0
   -2.3989   -2.4357    2.1951 C   0  0  0  0  0  0  0  0  0  0  0  0
   -2.1527   -3.4232    1.2097 C   0  0  0  0  0  0  0  0  0  0  0  0
   -1.2043   -2.8937    0.3668 C   0  0  0  0  0  0  0  0  0  0  0  0
   -0.8536   -1.6464    0.7710 O   0  0  0  0  0  0  0  0  0  0  0  0
    3.3417    1.0763   -1.4947 N   0  0  0  0  0  0  0  0  0  0  0  0
    4.5189    0.5208   -2.0470 C   0  0  0  0  0  0  0  0  0  0  0  0
    5.7965    1.0314   -1.7986 C   0  0  0  0  0  0  0  0  0  0  0  0
    6.9230    0.4413   -2.3840 C   0  0  0  0  0  0  0  0  0  0  0  0
    6.7785   -0.6617   -3.2250 C   0  0  0  0  0  0  0  0  0  0  0  0
    8.1667   -1.3771   -3.9449 Cl  0  0  0  0  0  0  0  0  0  0  0  0
    5.5176   -1.1877   -3.4869 C   0  0  0  0  0  0  0  0  0  0  0  0
    4.3963   -0.5972   -2.8998 C   0  0  0  0  0  0  0  0  0  0  0  0
    2.8427   -1.2815   -3.2532 Cl  0  0  0  0  0  0  0  0  0  0  0  0
    1.2137    2.5306   -1.2158 H   0  0  0  0  0  0  0  0  0  0  0  0
    1.7446    3.4463    0.2112 H   0  0  0  0  0  0  0  0  0  0  0  0
   -3.8975    1.5016    3.0643 H   0  0  0  0  0  0  0  0  0  0  0  0
   -4.6490    2.4399    1.7901 H   0  0  0  0  0  0  0  0  0  0  0  0
   -4.2421    0.2759   -0.6653 H   0  0  0  0  0  0  0  0  0  0  0  0
   -5.7614   -1.8825   -0.8459 H   0  0  0  0  0  0  0  0  0  0  0  0
   -6.8645   -2.4659    1.4761 H   0  0  0  0  0  0  0  0  0  0  0  0
   -2.0821    0.1110    3.3477 H   0  0  0  0  0  0  0  0  0  0  0  0
   -0.3757    0.0132    2.9645 H   0  0  0  0  0  0  0  0  0  0  0  0
   -3.0865   -2.5002    3.0281 H   0  0  0  0  0  0  0  0  0  0  0  0
   -2.6074   -4.4007    1.1250 H   0  0  0  0  0  0  0  0  0  0  0  0
   -0.6996   -3.2587   -0.5178 H   0  0  0  0  0  0  0  0  0  0  0  0
    2.4801    0.5979   -1.7508 H   0  0  0  0  0  0  0  0  0  0  0  0
    5.9558    1.8922   -1.1532 H   0  0  0  0  0  0  0  0  0  0  0  0
    7.9080    0.8549   -2.1800 H   0  0  0  0  0  0  0  0  0  0  0  0
    5.4078   -2.0480   -4.1433 H   0  0  0  0  0  0  0  0  0  0  0  0
  1  2  2  0
  2  3  1  0
  3  4  1  0
  4  5  1  0
  5  6  2  0
  6  7  1  0
  7  8  2  0
  8  9  1  0
  9 10  1  0
 10 11  2  0
 11 12  1  0
 12 13  2  0
 13 14  1  0
  8 15  1  0
 15 16  1  0
 16 17  1  0
 17 18  2  0
 18 19  1  0
 19 20  2  0
 20 21  1  0
  2 22  1  0
 22 23  1  0
 23 24  2  0
 24 25  1  0
 25 26  2  0
 26 27  1  0
 26 28  1  0
 28 29  2  0
 29 30  1  0
 15  5  1  0
 21 17  1  0
 29 23  1  0
 14 10  1  0
  3 31  1  0
  3 32  1  0
  9 33  1  0
  9 34  1  0
 11 35  1  0
 12 36  1  0
 13 37  1  0
 16 38  1  0
 16 39  1  0
 18 40  1  0
 19 41  1  0
 20 42  1  0
 22 43  1  0
 24 44  1  0
 25 45  1  0
 28 46  1  0
M  END
$$$$
