
     RDKit          3D

 58 60  0  0  0  0  0  0  0  0999 V2000
    0.8432    1.1095   -2.2581 C   0  0  0  0  0  0  0  0  0  0  0  0
   -0.6254    0.8754   -2.0148 C   0  0  0  0  0  0  0  0  0  0  0  0
   -1.5237    1.9068   -2.3475 C   0  0  0  0  0  0  0  0  0  0  0  0
   -2.8915    1.7573   -2.1373 C   0  0  0  0  0  0  0  0  0  0  0  0
   -3.3700    0.5676   -1.5941 C   0  0  0  0  0  0  0  0  0  0  0  0
   -5.1191    0.3679   -1.3605 S   0  0  0  0  0  6  0  0  0  0  0  0
   -5.7785    1.1119   -2.4134 O   0  0  0  0  0  0  0  0  0  0  0  0
   -5.4065   -1.0349   -1.1589 O   0  0  0  0  0  0  0  0  0  0  0  0
   -5.3897    1.1867    0.1079 N   0  0  0  0  0  0  0  0  0  0  0  0
   -4.7762    0.5989    1.3433 C   0  0  0  0  0  0  0  0  0  0  0  0
   -5.6444   -0.5125    1.9477 C   0  0  0  0  0  0  0  0  0  0  0  0
   -6.9816   -0.0540    2.1966 O   0  0  0  0  0  0  0  0  0  0  0  0
   -7.5954    0.3846    0.9750 C   0  0  0  0  0  0  0  0  0  0  0  0
   -6.8168    1.5559    0.3686 C   0  0  0  0  0  0  0  0  0  0  0  0
   -2.4969   -0.4759   -1.2699 C   0  0  0  0  0  0  0  0  0  0  0  0
   -1.1176   -0.3235   -1.4495 C   0  0  0  0  0  0  0  0  0  0  0  0
   -0.2013   -1.3401   -1.0980 N   0  0  0  0  0  0  0  0  0  0  0  0
   -0.4433   -2.4785   -0.3473 C   0  0  0  0  0  0  0  0  0  0  0  0
   -1.4914   -2.7610    0.2265 O   0  0  0  0  0  0  0  0  0  0  0  0
    0.7777   -3.4026   -0.2519 C   0  0  0  0  0  0  0  0  0  0  0  0
    1.6700   -3.0647    0.8104 O   0  0  0  0  0  0  0  0  0  0  0  0
    2.4770   -1.9941    0.5706 C   0  0  0  0  0  0  0  0  0  0  0  0
    2.4330   -1.3113   -0.4479 O   0  0  0  0  0  0  0  0  0  0  0  0
    3.3742   -1.7313    1.7747 C   0  0  0  0  0  0  0  0  0  0  0  0
    4.3558   -0.7001    1.4791 N   0  0  0  0  0  0  0  0  0  0  0  0
    5.5413   -1.0389    0.8586 C   0  0  0  0  0  0  0  0  0  0  0  0
    5.8722   -2.1984    0.6450 O   0  0  0  0  0  0  0  0  0  0  0  0
    6.3957    0.0924    0.4044 C   0  0  0  0  0  0  0  0  0  0  0  0
    6.3873    1.3337    1.0544 C   0  0  0  0  0  0  0  0  0  0  0  0
    7.2017    2.3696    0.5900 C   0  0  0  0  0  0  0  0  0  0  0  0
    8.0277    2.1685   -0.5157 C   0  0  0  0  0  0  0  0  0  0  0  0
    8.0503    0.9300   -1.1558 C   0  0  0  0  0  0  0  0  0  0  0  0
    7.2401   -0.1093   -0.6940 C   0  0  0  0  0  0  0  0  0  0  0  0
    1.2586    0.3178   -2.8894 H   0  0  0  0  0  0  0  0  0  0  0  0
    1.3819    1.1477   -1.3061 H   0  0  0  0  0  0  0  0  0  0  0  0
    1.0203    2.0583   -2.7766 H   0  0  0  0  0  0  0  0  0  0  0  0
   -1.1585    2.8378   -2.7765 H   0  0  0  0  0  0  0  0  0  0  0  0
   -3.5744    2.5621   -2.4014 H   0  0  0  0  0  0  0  0  0  0  0  0
   -4.6811    1.4184    2.0674 H   0  0  0  0  0  0  0  0  0  0  0  0
   -3.7634    0.2367    1.1532 H   0  0  0  0  0  0  0  0  0  0  0  0
   -5.2209   -0.8218    2.9093 H   0  0  0  0  0  0  0  0  0  0  0  0
   -5.6843   -1.4020    1.3115 H   0  0  0  0  0  0  0  0  0  0  0  0
   -8.6138    0.7061    1.2175 H   0  0  0  0  0  0  0  0  0  0  0  0
   -7.6718   -0.4613    0.2824 H   0  0  0  0  0  0  0  0  0  0  0  0
   -7.3035    1.9167   -0.5429 H   0  0  0  0  0  0  0  0  0  0  0  0
   -6.8057    2.3969    1.0740 H   0  0  0  0  0  0  0  0  0  0  0  0
   -2.9158   -1.3999   -0.8832 H   0  0  0  0  0  0  0  0  0  0  0  0
    0.7823   -1.1614   -1.3023 H   0  0  0  0  0  0  0  0  0  0  0  0
    1.3065   -3.4409   -1.2126 H   0  0  0  0  0  0  0  0  0  0  0  0
    0.4123   -4.4187   -0.0655 H   0  0  0  0  0  0  0  0  0  0  0  0
    3.8831   -2.6573    2.0585 H   0  0  0  0  0  0  0  0  0  0  0  0
    2.7572   -1.3686    2.6014 H   0  0  0  0  0  0  0  0  0  0  0  0
    4.0079    0.2427    1.3507 H   0  0  0  0  0  0  0  0  0  0  0  0
    5.7759    1.5020    1.9364 H   0  0  0  0  0  0  0  0  0  0  0  0
    7.2010    3.3314    1.0967 H   0  0  0  0  0  0  0  0  0  0  0  0
    8.6620    2.9756   -0.8748 H   0  0  0  0  0  0  0  0  0  0  0  0
    8.7012    0.7710   -2.0119 H   0  0  0  0  0  0  0  0  0  0  0  0
    7.2652   -1.0748   -1.1950 H   0  0  0  0  0  0  0  0  0  0  0  0
  1  2  1  0
  2  3  2  0
  3  4  1  0
  4  5  2  0
  5  6  1  0
  6  7  2  0
  6  8  2  0
  6  9  1  0
  9 10  1  0
 10 11  1  0
 11 12  1  0
 12 13  1  0
 13 14  1  0
  5 15  1  0
 15 16  2  0
 16 17  1  0
 17 18  1  0
 18 19  2  0
 18 20  1  0
 20 21  1  0
 21 22  1  0
 22 23  2  0
 22 24  1  0
 24 25  1  0
 25 26  1  0
 26 27  2  0
 26 28  1  0
 28 29  2  0
 29 30  1  0
 30 31  2  0
 31 32  1  0
 32 33  2  0
 16  2  1  0
 33 28  1  0
 14  9  1  0
  1 34  1  0
  1 35  1  0
  1 36  1  0
  3 37  1  0
  4 38  1  0
 10 39  1  0
 10 40  1  0
 11 41  1  0
 11 42  1  0
 13 43  1  0
 13 44  1  0
 14 45  1  0
 14 46  1  0
 15 47  1  0
 17 48  1  0
 20 49  1  0
 20 50  1  0
 24 51  1  0
 24 52  1  0
 25 53  1  0
 29 54  1  0
 30 55  1  0
 31 56  1  0
 32 57  1  0
 33 58  1  0
M  END
$$$$
