
     RDKit          3D

 28 30  0  0  0  0  0  0  0  0999 V2000
    0.1867   -3.5812    0.4397 O   0  0  0  0  0  0  0  0  0  0  0  0
    0.1088   -2.3772    0.7245 C   0  0  0  0  0  0  0  0  0  0  0  0
   -1.0785   -1.9068    1.5080 C   0  0  0  0  0  0  0  0  0  0  0  0
   -1.6307   -0.5372    1.1965 C   0  0  0  0  0  0  0  0  0  0  0  0
   -1.9023   -0.2341   -0.2435 C   0  0  0  0  0  0  0  0  0  0  0  0
   -1.8889   -0.9759   -1.4110 C   0  0  0  0  0  0  0  0  0  0  0  0
   -2.2761   -0.1015   -2.4554 C   0  0  0  0  0  0  0  0  0  0  0  0
   -2.5240    1.1128   -1.8644 C   0  0  0  0  0  0  0  0  0  0  0  0
   -2.3163    1.0397   -0.5268 O   0  0  0  0  0  0  0  0  0  0  0  0
   -0.6306    0.6904    2.0757 S   0  0  0  0  0  0  0  0  0  0  0  0
    0.8282    0.7895    1.0665 C   0  0  0  0  0  0  0  0  0  0  0  0
    1.3757    2.0912    1.0173 C   0  0  0  0  0  0  0  0  0  0  0  0
    2.5394    2.3776    0.3059 C   0  0  0  0  0  0  0  0  0  0  0  0
    3.1891    1.3592   -0.3676 C   0  0  0  0  0  0  0  0  0  0  0  0
    2.6677    0.0660   -0.3223 C   0  0  0  0  0  0  0  0  0  0  0  0
    1.4856   -0.2452    0.3877 C   0  0  0  0  0  0  0  0  0  0  0  0
    1.1357   -1.6058    0.3146 N   0  0  0  0  0  0  0  0  0  0  0  0
   -0.8475   -2.0284    2.5743 H   0  0  0  0  0  0  0  0  0  0  0  0
   -1.8770   -2.6340    1.2973 H   0  0  0  0  0  0  0  0  0  0  0  0
   -2.6087   -0.4815    1.6937 H   0  0  0  0  0  0  0  0  0  0  0  0
   -1.6327   -2.0224   -1.5083 H   0  0  0  0  0  0  0  0  0  0  0  0
   -2.3708   -0.3305   -3.5074 H   0  0  0  0  0  0  0  0  0  0  0  0
   -2.8443    2.0764   -2.2352 H   0  0  0  0  0  0  0  0  0  0  0  0
    0.8853    2.9110    1.5423 H   0  0  0  0  0  0  0  0  0  0  0  0
    2.9306    3.3912    0.2847 H   0  0  0  0  0  0  0  0  0  0  0  0
    4.0988    1.5635   -0.9260 H   0  0  0  0  0  0  0  0  0  0  0  0
    3.2082   -0.7093   -0.8632 H   0  0  0  0  0  0  0  0  0  0  0  0
    1.7883   -2.1906   -0.1974 H   0  0  0  0  0  0  0  0  0  0  0  0
  1  2  2  0
  2  3  1  0
  3  4  1  0
  4  5  1  0
  5  6  2  0
  6  7  1  0
  7  8  2  0
  8  9  1  0
  4 10  1  0
 10 11  1  0
 11 12  2  0
 12 13  1  0
 13 14  2  0
 14 15  1  0
 15 16  2  0
 16 17  1  0
 17  2  1  0
  9  5  1  0
 16 11  1  0
  3 18  1  0
  3 19  1  0
  4 20  1  0
  6 21  1  0
  7 22  1  0
  8 23  1  0
 12 24  1  0
 13 25  1  0
 14 26  1  0
 15 27  1  0
 17 28  1  0
M  END
$$$$
