
     RDKit          3D

 48 50  0  0  0  0  0  0  0  0999 V2000
    3.6179   -4.5409    1.8201 C   0  0  0  0  0  0  0  0  0  0  0  0
    3.5703   -3.1529    1.5091 O   0  0  0  0  0  0  0  0  0  0  0  0
    2.4030   -2.6615    0.9850 C   0  0  0  0  0  0  0  0  0  0  0  0
    1.2951   -3.4478    0.6421 C   0  0  0  0  0  0  0  0  0  0  0  0
    0.1379   -2.8556    0.1244 C   0  0  0  0  0  0  0  0  0  0  0  0
    0.0752   -1.4727   -0.0293 C   0  0  0  0  0  0  0  0  0  0  0  0
   -1.1424   -0.8136   -0.5454 C   0  0  0  0  0  0  0  0  0  0  0  0
   -2.0790   -1.4717   -1.1541 N   0  0  0  0  0  0  0  0  0  0  0  0
   -3.1765   -0.7363   -1.5174 N   0  0  0  0  0  0  0  0  0  0  0  0
   -3.9036    0.0454   -0.6212 C   0  0  0  0  0  0  0  0  0  0  0  0
   -3.5206    0.3470    0.5012 O   0  0  0  0  0  0  0  0  0  0  0  0
   -5.2414    0.4773   -1.1668 C   0  0  0  0  0  0  0  0  0  0  0  0
   -5.4050    0.1851   -2.4871 N   0  0  0  0  0  0  0  0  0  0  0  0
   -6.5604    0.5723   -3.0684 C   0  0  0  0  0  0  0  0  0  0  0  0
   -6.6252    0.1532   -4.7313 Cl  0  0  0  0  0  0  0  0  0  0  0  0
   -7.5886    1.2266   -2.4054 C   0  0  0  0  0  0  0  0  0  0  0  0
   -9.0397    1.7080   -3.2198 Cl  0  0  0  0  0  0  0  0  0  0  0  0
   -7.4413    1.4655   -1.0259 C   0  0  0  0  0  0  0  0  0  0  0  0
   -8.4109    2.2287   -0.3296 N   0  0  0  0  0  0  0  0  0  0  0  0
   -6.2228    1.1126   -0.4014 C   0  0  0  0  0  0  0  0  0  0  0  0
   -6.0686    1.4210    1.2989 Cl  0  0  0  0  0  0  0  0  0  0  0  0
    1.1710   -0.6788    0.3127 C   0  0  0  0  0  0  0  0  0  0  0  0
    2.3568   -1.2640    0.7929 C   0  0  0  0  0  0  0  0  0  0  0  0
    3.5394   -0.3896    1.1647 C   0  0  0  0  0  0  0  0  0  0  0  0
    3.5739    0.7701    0.3266 O   0  0  0  0  0  0  0  0  0  0  0  0
    4.5690    1.6827    0.5444 C   0  0  0  0  0  0  0  0  0  0  0  0
    5.5535    1.5951    1.5313 C   0  0  0  0  0  0  0  0  0  0  0  0
    6.5181    2.6026    1.6488 C   0  0  0  0  0  0  0  0  0  0  0  0
    6.4996    3.6865    0.7799 C   0  0  0  0  0  0  0  0  0  0  0  0
    7.4322    4.6398    0.8998 F   0  0  0  0  0  0  0  0  0  0  0  0
    5.5319    3.7917   -0.2078 C   0  0  0  0  0  0  0  0  0  0  0  0
    4.5724    2.7916   -0.3148 C   0  0  0  0  0  0  0  0  0  0  0  0
    3.6284    2.9106   -1.2672 F   0  0  0  0  0  0  0  0  0  0  0  0
    4.6000   -4.7555    2.2590 H   0  0  0  0  0  0  0  0  0  0  0  0
    2.8553   -4.8045    2.5624 H   0  0  0  0  0  0  0  0  0  0  0  0
    3.5243   -5.1519    0.9168 H   0  0  0  0  0  0  0  0  0  0  0  0
    1.2959   -4.5263    0.7649 H   0  0  0  0  0  0  0  0  0  0  0  0
   -0.7149   -3.4755   -0.1398 H   0  0  0  0  0  0  0  0  0  0  0  0
   -1.1946    0.2809   -0.4146 H   0  0  0  0  0  0  0  0  0  0  0  0
   -3.6831   -1.0816   -2.3334 H   0  0  0  0  0  0  0  0  0  0  0  0
   -8.3716    2.1267    0.6826 H   0  0  0  0  0  0  0  0  0  0  0  0
   -9.3553    2.1560   -0.7085 H   0  0  0  0  0  0  0  0  0  0  0  0
    1.1147    0.4032    0.1891 H   0  0  0  0  0  0  0  0  0  0  0  0
    3.4204   -0.0943    2.2144 H   0  0  0  0  0  0  0  0  0  0  0  0
    4.4749   -0.9430    1.0263 H   0  0  0  0  0  0  0  0  0  0  0  0
    5.6045    0.7588    2.2212 H   0  0  0  0  0  0  0  0  0  0  0  0
    7.2878    2.5447    2.4143 H   0  0  0  0  0  0  0  0  0  0  0  0
    5.5218    4.6345   -0.8844 H   0  0  0  0  0  0  0  0  0  0  0  0
  1  2  1  0
  2  3  1  0
  3  4  2  0
  4  5  1  0
  5  6  2  0
  6  7  1  0
  7  8  2  3
  8  9  1  0
  9 10  1  0
 10 11  2  0
 10 12  1  0
 12 13  2  0
 13 14  1  0
 14 15  1  0
 14 16  2  0
 16 17  1  0
 16 18  1  0
 18 19  1  0
 18 20  2  0
 20 21  1  0
  6 22  1  0
 22 23  2  0
 23 24  1  0
 24 25  1  0
 25 26  1  0
 26 27  2  0
 27 28  1  0
 28 29  2  0
 29 30  1  0
 29 31  1  0
 31 32  2  0
 32 33  1  0
 23  3  1  0
 32 26  1  0
 20 12  1  0
  1 34  1  0
  1 35  1  0
  1 36  1  0
  4 37  1  0
  5 38  1  0
  7 39  1  0
  9 40  1  0
 19 41  1  0
 19 42  1  0
 22 43  1  0
 24 44  1  0
 24 45  1  0
 27 46  1  0
 28 47  1  0
 31 48  1  0
M  END
$$$$
