
     RDKit          3D

 47 50  0  0  0  0  0  0  0  0999 V2000
   -0.2902   -2.6586    2.3475 C   0  0  0  0  0  0  0  0  0  0  0  0
    0.4282   -1.4100    1.9191 C   0  0  0  0  0  0  0  0  0  0  0  0
    1.7261   -1.3681    2.0561 N   0  0  0  0  0  0  0  0  0  0  0  0
    2.4576   -0.2318    1.6639 N   0  0  0  0  0  0  0  0  0  0  0  0
    3.9197   -0.3422    1.7230 C   0  0  0  0  0  0  0  0  0  0  0  0
    4.4223   -0.9713    0.4217 C   0  0  0  0  0  0  0  0  0  0  0  0
    5.4823   -0.6559   -0.1108 O   0  0  0  0  0  0  0  0  0  0  0  0
    3.6317   -2.0105   -0.0282 N   0  0  0  0  0  0  0  0  0  0  0  0
    3.5953   -2.3668   -1.4267 C   0  0  0  0  0  0  0  0  0  0  0  0
    2.4228   -1.6333   -2.0149 C   0  0  0  0  0  0  0  0  0  0  0  0
    2.3822   -0.3348   -2.4925 C   0  0  0  0  0  0  0  0  0  0  0  0
    1.0717    0.0525   -2.9055 C   0  0  0  0  0  0  0  0  0  0  0  0
    0.1573   -0.9632   -2.7428 C   0  0  0  0  0  0  0  0  0  0  0  0
    0.8749   -2.3720   -2.0879 S   0  0  0  0  0  0  0  0  0  0  0  0
    1.9055    0.9160    1.0496 C   0  0  0  0  0  0  0  0  0  0  0  0
    2.5805    1.8665    0.6559 O   0  0  0  0  0  0  0  0  0  0  0  0
    0.4542    0.8445    0.9257 C   0  0  0  0  0  0  0  0  0  0  0  0
   -0.3495    1.7953    0.4413 N   0  0  0  0  0  0  0  0  0  0  0  0
   -1.5965    1.2445    0.4469 N   0  0  0  0  0  0  0  0  0  0  0  0
   -2.6591    1.9441   -0.2092 C   0  0  0  0  0  0  0  0  0  0  0  0
   -2.4830    3.3043   -0.5227 C   0  0  0  0  0  0  0  0  0  0  0  0
   -3.5012    4.0282   -1.1510 C   0  0  0  0  0  0  0  0  0  0  0  0
   -4.6978    3.3999   -1.4905 C   0  0  0  0  0  0  0  0  0  0  0  0
   -4.8701    2.0450   -1.2149 C   0  0  0  0  0  0  0  0  0  0  0  0
   -3.8536    1.3156   -0.5834 C   0  0  0  0  0  0  0  0  0  0  0  0
   -1.5993    0.0263    1.1403 C   0  0  0  0  0  0  0  0  0  0  0  0
   -2.8210   -0.6964    1.5852 C   0  0  0  0  0  0  0  0  0  0  0  0
   -0.2636   -0.2787    1.3530 C   0  0  0  0  0  0  0  0  0  0  0  0
    0.4291   -3.4658    2.5117 H   0  0  0  0  0  0  0  0  0  0  0  0
   -0.8274   -2.4737    3.2834 H   0  0  0  0  0  0  0  0  0  0  0  0
   -0.9953   -2.9736    1.5738 H   0  0  0  0  0  0  0  0  0  0  0  0
    4.3659    0.6513    1.8359 H   0  0  0  0  0  0  0  0  0  0  0  0
    4.2070   -0.9725    2.5701 H   0  0  0  0  0  0  0  0  0  0  0  0
    2.7639   -2.1301    0.4912 H   0  0  0  0  0  0  0  0  0  0  0  0
    3.4784   -3.4528   -1.4937 H   0  0  0  0  0  0  0  0  0  0  0  0
    4.5225   -2.0786   -1.9340 H   0  0  0  0  0  0  0  0  0  0  0  0
    3.2484    0.3206   -2.5185 H   0  0  0  0  0  0  0  0  0  0  0  0
    0.8151    1.0323   -3.2941 H   0  0  0  0  0  0  0  0  0  0  0  0
   -0.9005   -0.9423   -2.9792 H   0  0  0  0  0  0  0  0  0  0  0  0
   -1.5589    3.8235   -0.2660 H   0  0  0  0  0  0  0  0  0  0  0  0
   -3.3553    5.0831   -1.3735 H   0  0  0  0  0  0  0  0  0  0  0  0
   -5.4902    3.9637   -1.9799 H   0  0  0  0  0  0  0  0  0  0  0  0
   -5.7951    1.5498   -1.5038 H   0  0  0  0  0  0  0  0  0  0  0  0
   -4.0187    0.2526   -0.4461 H   0  0  0  0  0  0  0  0  0  0  0  0
   -2.6325   -1.2298    2.5231 H   0  0  0  0  0  0  0  0  0  0  0  0
   -3.6489   -0.0131    1.7973 H   0  0  0  0  0  0  0  0  0  0  0  0
   -3.1351   -1.4336    0.8385 H   0  0  0  0  0  0  0  0  0  0  0  0
  1  2  1  0
  2  3  2  0
  3  4  1  0
  4  5  1  0
  5  6  1  0
  6  7  2  0
  6  8  1  0
  8  9  1  0
  9 10  1  0
 10 11  2  0
 11 12  1  0
 12 13  2  0
 13 14  1  0
  4 15  1  0
 15 16  2  0
 15 17  1  0
 17 18  2  0
 18 19  1  0
 19 20  1  0
 20 21  2  0
 21 22  1  0
 22 23  2  0
 23 24  1  0
 24 25  2  0
 19 26  1  0
 26 27  1  0
 26 28  2  0
 28  2  1  0
 14 10  1  0
 28 17  1  0
 25 20  1  0
  1 29  1  0
  1 30  1  0
  1 31  1  0
  5 32  1  0
  5 33  1  0
  8 34  1  0
  9 35  1  0
  9 36  1  0
 11 37  1  0
 12 38  1  0
 13 39  1  0
 21 40  1  0
 22 41  1  0
 23 42  1  0
 24 43  1  0
 25 44  1  0
 27 45  1  0
 27 46  1  0
 27 47  1  0
M  END
$$$$
