
     RDKit          3D

 61 65  0  0  0  0  0  0  0  0999 V2000
   -8.7005    1.5286    2.1812 C   0  0  0  0  0  0  0  0  0  0  0  0
   -7.4852    2.2618    2.2256 O   0  0  0  0  0  0  0  0  0  0  0  0
   -6.3517    1.6475    1.7536 C   0  0  0  0  0  0  0  0  0  0  0  0
   -6.3293    0.3846    1.1558 C   0  0  0  0  0  0  0  0  0  0  0  0
   -5.1216   -0.1674    0.7138 C   0  0  0  0  0  0  0  0  0  0  0  0
   -3.9162    0.5307    0.8600 C   0  0  0  0  0  0  0  0  0  0  0  0
   -2.6379   -0.0355    0.4340 C   0  0  0  0  0  0  0  0  0  0  0  0
   -1.4341    0.5005    0.4731 N   0  0  0  0  0  0  0  0  0  0  0  0
   -0.5929   -0.4905   -0.0057 C   0  0  0  0  0  0  0  0  0  0  0  0
    0.8740   -0.2340   -0.0622 C   0  0  0  0  0  0  0  0  0  0  0  0
    1.5339   -0.9459   -1.1435 N   0  0  0  0  0  0  0  0  0  0  0  0
    2.4014   -2.0047   -1.0446 C   0  0  0  0  0  0  0  0  0  0  0  0
    2.8663   -2.7347    0.4567 S   0  0  0  0  0  0  0  0  0  0  0  0
    4.6740   -2.5586    0.3273 C   0  0  0  0  0  0  0  0  0  0  0  0
    5.1225   -1.1192    0.4435 C   0  0  0  0  0  0  0  0  0  0  0  0
    5.1879   -0.4871    1.6925 C   0  0  0  0  0  0  0  0  0  0  0  0
    5.5921    0.8473    1.7921 C   0  0  0  0  0  0  0  0  0  0  0  0
    5.9153    1.5819    0.6452 C   0  0  0  0  0  0  0  0  0  0  0  0
    6.3697    3.0072    0.7618 C   0  0  0  0  0  0  0  0  0  0  0  0
    5.8556    0.9530   -0.6023 C   0  0  0  0  0  0  0  0  0  0  0  0
    5.4589   -0.3843   -0.7026 C   0  0  0  0  0  0  0  0  0  0  0  0
    2.8456   -2.3937   -2.2173 N   0  0  0  0  0  0  0  0  0  0  0  0
    2.2599   -1.5455   -3.1229 C   0  0  0  0  0  0  0  0  0  0  0  0
    2.3889   -1.5080   -4.5103 C   0  0  0  0  0  0  0  0  0  0  0  0
    1.6658   -0.5155   -5.1528 C   0  0  0  0  0  0  0  0  0  0  0  0
    0.8682    0.3871   -4.5339 N   0  0  0  0  0  0  0  0  0  0  0  0
    0.7407    0.3485   -3.1864 C   0  0  0  0  0  0  0  0  0  0  0  0
    1.4407   -0.6212   -2.4821 C   0  0  0  0  0  0  0  0  0  0  0  0
   -1.3476   -1.6046   -0.3255 C   0  0  0  0  0  0  0  0  0  0  0  0
   -1.0722   -2.9538   -0.8595 C   0  0  0  0  0  0  0  0  0  0  0  0
   -2.6551   -1.3154   -0.0530 O   0  0  0  0  0  0  0  0  0  0  0  0
   -3.9458    1.8049    1.4489 C   0  0  0  0  0  0  0  0  0  0  0  0
   -5.1498    2.3695    1.8922 C   0  0  0  0  0  0  0  0  0  0  0  0
   -5.2541    3.6038    2.4846 O   0  0  0  0  0  0  0  0  0  0  0  0
   -4.0916    4.4195    2.5167 C   0  0  0  0  0  0  0  0  0  0  0  0
   -8.9989    1.3281    1.1475 H   0  0  0  0  0  0  0  0  0  0  0  0
   -8.6275    0.6015    2.7611 H   0  0  0  0  0  0  0  0  0  0  0  0
   -9.4812    2.1446    2.6388 H   0  0  0  0  0  0  0  0  0  0  0  0
   -7.2345   -0.1992    1.0170 H   0  0  0  0  0  0  0  0  0  0  0  0
   -5.1359   -1.1554    0.2570 H   0  0  0  0  0  0  0  0  0  0  0  0
    1.3329   -0.4956    0.8962 H   0  0  0  0  0  0  0  0  0  0  0  0
    1.0678    0.8352   -0.2228 H   0  0  0  0  0  0  0  0  0  0  0  0
    5.1353   -3.1412    1.1321 H   0  0  0  0  0  0  0  0  0  0  0  0
    5.0271   -3.0066   -0.6102 H   0  0  0  0  0  0  0  0  0  0  0  0
    4.9257   -1.0320    2.6016 H   0  0  0  0  0  0  0  0  0  0  0  0
    5.6459    1.3131    2.7735 H   0  0  0  0  0  0  0  0  0  0  0  0
    6.1426    3.5715   -0.1494 H   0  0  0  0  0  0  0  0  0  0  0  0
    7.4510    3.0416    0.9429 H   0  0  0  0  0  0  0  0  0  0  0  0
    5.8550    3.5057    1.5880 H   0  0  0  0  0  0  0  0  0  0  0  0
    6.1136    1.5022   -1.5078 H   0  0  0  0  0  0  0  0  0  0  0  0
    5.4087   -0.8493   -1.6864 H   0  0  0  0  0  0  0  0  0  0  0  0
    3.0143   -2.2085   -5.0472 H   0  0  0  0  0  0  0  0  0  0  0  0
    1.7119   -0.4156   -6.2341 H   0  0  0  0  0  0  0  0  0  0  0  0
    0.0879    1.0831   -2.7307 H   0  0  0  0  0  0  0  0  0  0  0  0
   -0.6665   -2.8938   -1.8732 H   0  0  0  0  0  0  0  0  0  0  0  0
   -1.9864   -3.5551   -0.9048 H   0  0  0  0  0  0  0  0  0  0  0  0
   -0.3596   -3.4834   -0.2220 H   0  0  0  0  0  0  0  0  0  0  0  0
   -3.0030    2.3349    1.5628 H   0  0  0  0  0  0  0  0  0  0  0  0
   -3.7144    4.6134    1.5079 H   0  0  0  0  0  0  0  0  0  0  0  0
   -4.3706    5.3812    2.9565 H   0  0  0  0  0  0  0  0  0  0  0  0
   -3.3168    3.9770    3.1514 H   0  0  0  0  0  0  0  0  0  0  0  0
  1  2  1  0
  2  3  1  0
  3  4  2  0
  4  5  1  0
  5  6  2  0
  6  7  1  0
  7  8  2  0
  8  9  1  0
  9 10  1  0
 10 11  1  0
 11 12  1  0
 12 13  1  0
 13 14  1  0
 14 15  1  0
 15 16  2  0
 16 17  1  0
 17 18  2  0
 18 19  1  0
 18 20  1  0
 20 21  2  0
 12 22  2  0
 22 23  1  0
 23 24  2  0
 24 25  1  0
 25 26  2  0
 26 27  1  0
 27 28  2  0
  9 29  2  0
 29 30  1  0
 29 31  1  0
  6 32  1  0
 32 33  2  0
 33 34  1  0
 34 35  1  0
 33  3  1  0
 31  7  1  0
 28 11  1  0
 21 15  1  0
 28 23  1  0
  1 36  1  0
  1 37  1  0
  1 38  1  0
  4 39  1  0
  5 40  1  0
 10 41  1  0
 10 42  1  0
 14 43  1  0
 14 44  1  0
 16 45  1  0
 17 46  1  0
 19 47  1  0
 19 48  1  0
 19 49  1  0
 20 50  1  0
 21 51  1  0
 24 52  1  0
 25 53  1  0
 27 54  1  0
 30 55  1  0
 30 56  1  0
 30 57  1  0
 32 58  1  0
 35 59  1  0
 35 60  1  0
 35 61  1  0
M  END
$$$$
