
     RDKit          3D

 51 53  0  0  0  0  0  0  0  0999 V2000
    5.0576   -1.4642   -2.4255 C   0  0  0  0  0  0  0  0  0  0  0  0
    4.3742   -0.3586   -1.8464 O   0  0  0  0  0  0  0  0  0  0  0  0
    3.0575   -0.5357   -1.5095 C   0  0  0  0  0  0  0  0  0  0  0  0
    2.3778   -1.7571   -1.5838 C   0  0  0  0  0  0  0  0  0  0  0  0
    1.0377   -1.8502   -1.1943 C   0  0  0  0  0  0  0  0  0  0  0  0
    0.3699   -0.7214   -0.7211 C   0  0  0  0  0  0  0  0  0  0  0  0
   -1.0439   -0.8495   -0.3110 C   0  0  0  0  0  0  0  0  0  0  0  0
   -1.7241    0.1705    0.1068 N   0  0  0  0  0  0  0  0  0  0  0  0
   -3.0452   -0.0232    0.4206 N   0  0  0  0  0  0  0  0  0  0  0  0
   -3.9297   -0.8578   -0.2517 C   0  0  0  0  0  0  0  0  0  0  0  0
   -3.6110   -1.6514   -1.1362 O   0  0  0  0  0  0  0  0  0  0  0  0
   -5.3770   -0.7695    0.1534 C   0  0  0  0  0  0  0  0  0  0  0  0
   -6.2208   -1.7838   -0.3407 C   0  0  0  0  0  0  0  0  0  0  0  0
   -7.5786   -1.8082   -0.0265 C   0  0  0  0  0  0  0  0  0  0  0  0
   -8.1133   -0.8171    0.7862 C   0  0  0  0  0  0  0  0  0  0  0  0
   -7.2945    0.2010    1.2815 C   0  0  0  0  0  0  0  0  0  0  0  0
   -5.9261    0.2421    0.9711 C   0  0  0  0  0  0  0  0  0  0  0  0
   -5.0833    1.2271    1.4219 O   0  0  0  0  0  0  0  0  0  0  0  0
   -5.6460    2.2987    2.1726 C   0  0  0  0  0  0  0  0  0  0  0  0
    1.0371    0.5020   -0.6415 C   0  0  0  0  0  0  0  0  0  0  0  0
    2.3810    0.6083   -1.0429 C   0  0  0  0  0  0  0  0  0  0  0  0
    3.0716    1.9497   -0.9226 C   0  0  0  0  0  0  0  0  0  0  0  0
    3.4491    2.2223    0.4372 O   0  0  0  0  0  0  0  0  0  0  0  0
    4.6007    1.5783    0.8050 C   0  0  0  0  0  0  0  0  0  0  0  0
    5.8398    1.8873    0.2425 C   0  0  0  0  0  0  0  0  0  0  0  0
    5.9399    2.8452   -0.6908 F   0  0  0  0  0  0  0  0  0  0  0  0
    6.9834    1.2106    0.6516 C   0  0  0  0  0  0  0  0  0  0  0  0
    8.1687    1.5022    0.0973 F   0  0  0  0  0  0  0  0  0  0  0  0
    6.8998    0.2358    1.6369 C   0  0  0  0  0  0  0  0  0  0  0  0
    8.0030   -0.4178    2.0276 F   0  0  0  0  0  0  0  0  0  0  0  0
    5.6756   -0.0564    2.2232 C   0  0  0  0  0  0  0  0  0  0  0  0
    5.5990   -0.9900    3.1821 F   0  0  0  0  0  0  0  0  0  0  0  0
    4.5308    0.6189    1.8157 C   0  0  0  0  0  0  0  0  0  0  0  0
    3.3541    0.3303    2.3908 F   0  0  0  0  0  0  0  0  0  0  0  0
    5.1504   -2.2865   -1.7087 H   0  0  0  0  0  0  0  0  0  0  0  0
    6.0683   -1.1327   -2.6828 H   0  0  0  0  0  0  0  0  0  0  0  0
    4.5696   -1.7933   -3.3487 H   0  0  0  0  0  0  0  0  0  0  0  0
    2.8621   -2.6623   -1.9358 H   0  0  0  0  0  0  0  0  0  0  0  0
    0.5270   -2.8077   -1.2630 H   0  0  0  0  0  0  0  0  0  0  0  0
   -1.4636   -1.8686   -0.3575 H   0  0  0  0  0  0  0  0  0  0  0  0
   -3.4541    0.7390    0.9580 H   0  0  0  0  0  0  0  0  0  0  0  0
   -5.8169   -2.5693   -0.9783 H   0  0  0  0  0  0  0  0  0  0  0  0
   -8.2130   -2.6002   -0.4167 H   0  0  0  0  0  0  0  0  0  0  0  0
   -9.1718   -0.8326    1.0356 H   0  0  0  0  0  0  0  0  0  0  0  0
   -7.7628    0.9511    1.9112 H   0  0  0  0  0  0  0  0  0  0  0  0
   -6.3989    2.8385    1.5890 H   0  0  0  0  0  0  0  0  0  0  0  0
   -6.0570    1.9399    3.1216 H   0  0  0  0  0  0  0  0  0  0  0  0
   -4.8393    3.0007    2.4045 H   0  0  0  0  0  0  0  0  0  0  0  0
    0.5146    1.3778   -0.2601 H   0  0  0  0  0  0  0  0  0  0  0  0
    2.3627    2.7346   -1.2150 H   0  0  0  0  0  0  0  0  0  0  0  0
    3.9077    2.0530   -1.6237 H   0  0  0  0  0  0  0  0  0  0  0  0
  1  2  1  0
  2  3  1  0
  3  4  2  0
  4  5  1  0
  5  6  2  0
  6  7  1  0
  7  8  2  3
  8  9  1  0
  9 10  1  0
 10 11  2  0
 10 12  1  0
 12 13  2  0
 13 14  1  0
 14 15  2  0
 15 16  1  0
 16 17  2  0
 17 18  1  0
 18 19  1  0
  6 20  1  0
 20 21  2  0
 21 22  1  0
 22 23  1  0
 23 24  1  0
 24 25  2  0
 25 26  1  0
 25 27  1  0
 27 28  1  0
 27 29  2  0
 29 30  1  0
 29 31  1  0
 31 32  1  0
 31 33  2  0
 33 34  1  0
 21  3  1  0
 33 24  1  0
 17 12  1  0
  1 35  1  0
  1 36  1  0
  1 37  1  0
  4 38  1  0
  5 39  1  0
  7 40  1  0
  9 41  1  0
 13 42  1  0
 14 43  1  0
 15 44  1  0
 16 45  1  0
 19 46  1  0
 19 47  1  0
 19 48  1  0
 20 49  1  0
 22 50  1  0
 22 51  1  0
M  END
$$$$
