
     RDKit          3D

 47 51  0  0  0  0  0  0  0  0999 V2000
   -0.7142   -1.5647   -3.4624 C   0  0  0  0  0  0  0  0  0  0  0  0
   -1.4056   -0.6875   -2.4655 C   0  0  0  0  0  0  0  0  0  0  0  0
   -2.6000   -1.0233   -2.0422 N   0  0  0  0  0  0  0  0  0  0  0  0
   -3.2082   -0.1855   -1.1495 C   0  0  0  0  0  0  0  0  0  0  0  0
   -4.7618   -0.5029   -0.5108 S   0  0  0  0  0  0  0  0  0  0  0  0
   -4.7420    0.9317    0.4188 C   0  0  0  0  0  0  0  0  0  0  0  0
   -3.5746    1.6593    0.2671 C   0  0  0  0  0  0  0  0  0  0  0  0
   -2.7184    0.9981   -0.6382 C   0  0  0  0  0  0  0  0  0  0  0  0
   -1.3273    1.3518   -1.1692 C   0  0  0  0  0  0  0  0  0  0  0  0
   -0.5694    2.3887   -0.9184 N   0  0  0  0  0  0  0  0  0  0  0  0
    0.5863    2.2115   -1.6402 N   0  0  0  0  0  0  0  0  0  0  0  0
    0.4884    1.0747   -2.3022 C   0  0  0  0  0  0  0  0  0  0  0  0
    1.7789    0.4395   -3.2641 S   0  0  0  0  0  0  0  0  0  0  0  0
    3.0504    0.2799   -1.9725 C   0  0  0  0  0  0  0  0  0  0  0  0
    2.7205   -0.8370   -0.9873 C   0  0  0  0  0  0  0  0  0  0  0  0
    1.5917   -1.2834   -0.7970 O   0  0  0  0  0  0  0  0  0  0  0  0
    3.8165   -1.2997   -0.2927 N   0  0  0  0  0  0  0  0  0  0  0  0
    3.6921   -2.4310    0.5985 C   0  0  0  0  0  0  0  0  0  0  0  0
    4.9946   -2.6585    1.2673 C   0  0  0  0  0  0  0  0  0  0  0  0
    5.3748   -2.7705    2.5883 C   0  0  0  0  0  0  0  0  0  0  0  0
    6.7730   -2.9907    2.5841 C   0  0  0  0  0  0  0  0  0  0  0  0
    7.1580   -2.9938    1.2643 C   0  0  0  0  0  0  0  0  0  0  0  0
    6.0874   -2.7890    0.4560 O   0  0  0  0  0  0  0  0  0  0  0  0
   -0.7295    0.4805   -2.0553 N   0  0  0  0  0  0  0  0  0  0  0  0
   -3.3397    2.9574    0.9745 C   0  0  0  0  0  0  0  0  0  0  0  0
   -4.3188    3.1491    2.1438 C   0  0  0  0  0  0  0  0  0  0  0  0
   -5.7568    2.7799    1.7494 C   0  0  0  0  0  0  0  0  0  0  0  0
   -5.8751    1.3070    1.3239 C   0  0  0  0  0  0  0  0  0  0  0  0
   -1.3653   -2.4036   -3.7303 H   0  0  0  0  0  0  0  0  0  0  0  0
   -0.5063   -1.0080   -4.3788 H   0  0  0  0  0  0  0  0  0  0  0  0
    0.2012   -1.9874   -3.0431 H   0  0  0  0  0  0  0  0  0  0  0  0
    3.9987    0.0511   -2.4717 H   0  0  0  0  0  0  0  0  0  0  0  0
    3.1688    1.2196   -1.4222 H   0  0  0  0  0  0  0  0  0  0  0  0
    4.7482   -1.0898   -0.6279 H   0  0  0  0  0  0  0  0  0  0  0  0
    3.3981   -3.3063    0.0101 H   0  0  0  0  0  0  0  0  0  0  0  0
    2.9005   -2.2240    1.3260 H   0  0  0  0  0  0  0  0  0  0  0  0
    4.7230   -2.7031    3.4491 H   0  0  0  0  0  0  0  0  0  0  0  0
    7.4229   -3.1313    3.4370 H   0  0  0  0  0  0  0  0  0  0  0  0
    8.1076   -3.1198    0.7634 H   0  0  0  0  0  0  0  0  0  0  0  0
   -3.4694    3.7761    0.2558 H   0  0  0  0  0  0  0  0  0  0  0  0
   -2.3122    3.0099    1.3514 H   0  0  0  0  0  0  0  0  0  0  0  0
   -4.2794    4.1896    2.4854 H   0  0  0  0  0  0  0  0  0  0  0  0
   -4.0080    2.5215    2.9886 H   0  0  0  0  0  0  0  0  0  0  0  0
   -6.4362    2.9719    2.5879 H   0  0  0  0  0  0  0  0  0  0  0  0
   -6.0772    3.4274    0.9234 H   0  0  0  0  0  0  0  0  0  0  0  0
   -5.8422    0.6693    2.2166 H   0  0  0  0  0  0  0  0  0  0  0  0
   -6.8441    1.1454    0.8356 H   0  0  0  0  0  0  0  0  0  0  0  0
  1  2  1  0
  2  3  2  0
  3  4  1  0
  4  5  1  0
  5  6  1  0
  6  7  2  0
  7  8  1  0
  8  9  1  0
  9 10  2  0
 10 11  1  0
 11 12  2  0
 12 13  1  0
 13 14  1  0
 14 15  1  0
 15 16  2  0
 15 17  1  0
 17 18  1  0
 18 19  1  0
 19 20  2  0
 20 21  1  0
 21 22  2  0
 22 23  1  0
 12 24  1  0
  7 25  1  0
 25 26  1  0
 26 27  1  0
 27 28  1  0
 24  2  1  0
  8  4  2  0
 24  9  1  0
 28  6  1  0
 23 19  1  0
  1 29  1  0
  1 30  1  0
  1 31  1  0
 14 32  1  0
 14 33  1  0
 17 34  1  0
 18 35  1  0
 18 36  1  0
 20 37  1  0
 21 38  1  0
 22 39  1  0
 25 40  1  0
 25 41  1  0
 26 42  1  0
 26 43  1  0
 27 44  1  0
 27 45  1  0
 28 46  1  0
 28 47  1  0
M  END
$$$$
