
     RDKit          3D

 48 51  0  0  0  0  0  0  0  0999 V2000
    2.1566   -0.7503    3.5709 C   0  0  0  0  0  0  0  0  0  0  0  0
    2.2453   -0.0672    2.2446 C   0  0  0  0  0  0  0  0  0  0  0  0
    1.2903    0.0657    1.3096 C   0  0  0  0  0  0  0  0  0  0  0  0
   -0.0344   -0.2650    1.2247 N   0  0  0  0  0  0  0  0  0  0  0  0
   -0.9328   -0.5137    2.2381 C   0  0  0  0  0  0  0  0  0  0  0  0
   -0.6707   -0.4548    3.4380 O   0  0  0  0  0  0  0  0  0  0  0  0
   -2.3248   -0.9325    1.7791 C   0  0  0  0  0  0  0  0  0  0  0  0
   -2.7861   -0.2016    0.1669 S   0  0  0  0  0  0  0  0  0  0  0  0
   -4.4188   -0.9268   -0.0675 C   0  0  0  0  0  0  0  0  0  0  0  0
   -4.9194   -1.5889    0.9952 N   0  0  0  0  0  0  0  0  0  0  0  0
   -6.1387   -2.1143    0.8394 C   0  0  0  0  0  0  0  0  0  0  0  0
   -6.8945   -2.0417   -0.2609 N   0  0  0  0  0  0  0  0  0  0  0  0
   -6.3820   -1.3818   -1.3063 C   0  0  0  0  0  0  0  0  0  0  0  0
   -7.1470   -1.2908   -2.4638 C   0  0  0  0  0  0  0  0  0  0  0  0
   -6.6898   -0.6217   -3.6026 C   0  0  0  0  0  0  0  0  0  0  0  0
   -5.4332   -0.0288   -3.5962 C   0  0  0  0  0  0  0  0  0  0  0  0
   -4.6465   -0.1062   -2.4482 C   0  0  0  0  0  0  0  0  0  0  0  0
   -5.1126   -0.7818   -1.2846 C   0  0  0  0  0  0  0  0  0  0  0  0
    1.9596    0.7110    0.1347 C   0  0  0  0  0  0  0  0  0  0  0  0
    1.3691    0.9114   -0.9179 O   0  0  0  0  0  0  0  0  0  0  0  0
    3.2888    0.9323    0.5021 N   0  0  0  0  0  0  0  0  0  0  0  0
    4.3771    1.0824   -0.3959 C   0  0  0  0  0  0  0  0  0  0  0  0
    5.6717    0.6652   -0.0486 C   0  0  0  0  0  0  0  0  0  0  0  0
    6.7425    0.8178   -0.9348 C   0  0  0  0  0  0  0  0  0  0  0  0
    6.5354    1.3916   -2.1856 C   0  0  0  0  0  0  0  0  0  0  0  0
    5.2577    1.8057   -2.5508 C   0  0  0  0  0  0  0  0  0  0  0  0
    4.1872    1.6484   -1.6638 C   0  0  0  0  0  0  0  0  0  0  0  0
    3.4798    0.4816    1.8404 N   0  0  0  0  0  0  0  0  0  0  0  0
    4.0850    1.4968    2.7236 C   0  0  0  0  0  0  0  0  0  0  0  0
    3.1323   -1.1561    3.8594 H   0  0  0  0  0  0  0  0  0  0  0  0
    1.8388   -0.0482    4.3481 H   0  0  0  0  0  0  0  0  0  0  0  0
    1.4721   -1.6034    3.5422 H   0  0  0  0  0  0  0  0  0  0  0  0
   -0.4430   -0.1023    0.3035 H   0  0  0  0  0  0  0  0  0  0  0  0
   -2.3392   -2.0272    1.7172 H   0  0  0  0  0  0  0  0  0  0  0  0
   -3.0381   -0.5911    2.5382 H   0  0  0  0  0  0  0  0  0  0  0  0
   -6.5560   -2.6537    1.6830 H   0  0  0  0  0  0  0  0  0  0  0  0
   -8.1337   -1.7546   -2.4799 H   0  0  0  0  0  0  0  0  0  0  0  0
   -7.3173   -0.5685   -4.4880 H   0  0  0  0  0  0  0  0  0  0  0  0
   -5.0643    0.4914   -4.4777 H   0  0  0  0  0  0  0  0  0  0  0  0
   -3.6632    0.3651   -2.4661 H   0  0  0  0  0  0  0  0  0  0  0  0
    5.8603    0.1826    0.9064 H   0  0  0  0  0  0  0  0  0  0  0  0
    7.7353    0.4783   -0.6490 H   0  0  0  0  0  0  0  0  0  0  0  0
    7.3657    1.5098   -2.8768 H   0  0  0  0  0  0  0  0  0  0  0  0
    5.0885    2.2523   -3.5274 H   0  0  0  0  0  0  0  0  0  0  0  0
    3.2070    1.9964   -1.9804 H   0  0  0  0  0  0  0  0  0  0  0  0
    4.3631    1.0452    3.6823 H   0  0  0  0  0  0  0  0  0  0  0  0
    3.3819    2.3170    2.9155 H   0  0  0  0  0  0  0  0  0  0  0  0
    4.9953    1.9252    2.2940 H   0  0  0  0  0  0  0  0  0  0  0  0
  1  2  1  0
  2  3  2  0
  3  4  1  0
  4  5  1  0
  5  6  2  0
  5  7  1  0
  7  8  1  0
  8  9  1  0
  9 10  2  0
 10 11  1  0
 11 12  2  0
 12 13  1  0
 13 14  2  0
 14 15  1  0
 15 16  2  0
 16 17  1  0
 17 18  2  0
  3 19  1  0
 19 20  2  0
 19 21  1  0
 21 22  1  0
 22 23  2  0
 23 24  1  0
 24 25  2  0
 25 26  1  0
 26 27  2  0
 21 28  1  0
 28 29  1  0
 28  2  1  0
 18  9  1  0
 27 22  1  0
 18 13  1  0
  1 30  1  0
  1 31  1  0
  1 32  1  0
  4 33  1  0
  7 34  1  0
  7 35  1  0
 11 36  1  0
 14 37  1  0
 15 38  1  0
 16 39  1  0
 17 40  1  0
 23 41  1  0
 24 42  1  0
 25 43  1  0
 26 44  1  0
 27 45  1  0
 29 46  1  0
 29 47  1  0
 29 48  1  0
M  END
$$$$
