
     RDKit          3D

 60 64  0  0  0  0  0  0  0  0999 V2000
   -0.4416   -3.0977    0.6083 C   0  0  0  0  0  0  0  0  0  0  0  0
   -1.4119   -2.0105    0.5198 N   0  0  0  0  0  0  0  0  0  0  0  0
   -2.7329   -2.3192    0.8507 C   0  0  0  0  0  0  0  0  0  0  0  0
   -3.0663   -3.4484    1.2239 O   0  0  0  0  0  0  0  0  0  0  0  0
   -3.7889   -1.2657    0.6970 C   0  0  0  0  0  0  0  0  0  0  0  0
   -5.0436   -1.6918    0.4545 C   0  0  0  0  0  0  0  0  0  0  0  0
   -6.2271   -0.8405    0.3027 C   0  0  0  0  0  0  0  0  0  0  0  0
   -7.0604   -0.5994    1.3985 C   0  0  0  0  0  0  0  0  0  0  0  0
   -8.1862    0.2166    1.2596 C   0  0  0  0  0  0  0  0  0  0  0  0
   -8.4981    0.7968    0.0206 C   0  0  0  0  0  0  0  0  0  0  0  0
   -9.6995    1.6972   -0.1315 C   0  0  0  0  0  0  0  0  0  0  0  0
  -10.3329    1.5386   -1.3277 F   0  0  0  0  0  0  0  0  0  0  0  0
  -10.6519    1.4930    0.8213 F   0  0  0  0  0  0  0  0  0  0  0  0
   -9.3712    3.0165   -0.0553 F   0  0  0  0  0  0  0  0  0  0  0  0
   -7.6523    0.5548   -1.0730 C   0  0  0  0  0  0  0  0  0  0  0  0
   -6.5263   -0.2606   -0.9336 C   0  0  0  0  0  0  0  0  0  0  0  0
   -3.3711    0.3821    0.9410 S   0  0  0  0  0  0  0  0  0  0  0  0
   -1.7972    0.4016    0.1284 C   0  0  0  0  0  0  0  0  0  0  0  0
   -1.3592    1.6418   -0.3693 C   0  0  0  0  0  0  0  0  0  0  0  0
   -0.1091    1.7686   -0.9690 C   0  0  0  0  0  0  0  0  0  0  0  0
    0.7208    0.6551   -1.0522 C   0  0  0  0  0  0  0  0  0  0  0  0
    2.0423    0.7919   -1.7102 C   0  0  0  0  0  0  0  0  0  0  0  0
    2.0985    1.4209   -2.7637 O   0  0  0  0  0  0  0  0  0  0  0  0
    3.1473    0.1746   -1.1231 N   0  0  0  0  0  0  0  0  0  0  0  0
    3.3364    0.1473    0.3405 C   0  0  0  0  0  0  0  0  0  0  0  0
    4.1670    1.3661    0.8109 C   0  0  0  0  0  0  0  0  0  0  0  0
    5.4331    1.5149    0.0526 N   0  0  0  0  0  0  0  0  0  0  0  0
    6.4804    0.6946    0.5034 C   0  0  0  0  0  0  0  0  0  0  0  0
    7.7806    0.9138    0.0423 C   0  0  0  0  0  0  0  0  0  0  0  0
    8.8283    0.1113    0.4918 C   0  0  0  0  0  0  0  0  0  0  0  0
    8.5634   -0.8948    1.4062 C   0  0  0  0  0  0  0  0  0  0  0  0
    7.2588   -1.0449    1.8342 C   0  0  0  0  0  0  0  0  0  0  0  0
    6.2294   -0.2776    1.4081 N   0  0  0  0  0  0  0  0  0  0  0  0
    5.2254    1.4981   -1.4190 C   0  0  0  0  0  0  0  0  0  0  0  0
    4.4193    0.2548   -1.8512 C   0  0  0  0  0  0  0  0  0  0  0  0
    0.2816   -0.5901   -0.5792 C   0  0  0  0  0  0  0  0  0  0  0  0
   -0.9822   -0.7370    0.0223 C   0  0  0  0  0  0  0  0  0  0  0  0
    0.4641   -2.7492    1.1155 H   0  0  0  0  0  0  0  0  0  0  0  0
   -0.8239   -3.9471    1.1819 H   0  0  0  0  0  0  0  0  0  0  0  0
   -0.2069   -3.4511   -0.4009 H   0  0  0  0  0  0  0  0  0  0  0  0
   -5.2521   -2.7559    0.3517 H   0  0  0  0  0  0  0  0  0  0  0  0
   -6.8355   -1.0395    2.3679 H   0  0  0  0  0  0  0  0  0  0  0  0
   -8.8204    0.3979    2.1263 H   0  0  0  0  0  0  0  0  0  0  0  0
   -7.8684    1.0027   -2.0419 H   0  0  0  0  0  0  0  0  0  0  0  0
   -5.8843   -0.4355   -1.7941 H   0  0  0  0  0  0  0  0  0  0  0  0
   -1.9945    2.5228   -0.2904 H   0  0  0  0  0  0  0  0  0  0  0  0
    0.2140    2.7289   -1.3648 H   0  0  0  0  0  0  0  0  0  0  0  0
    2.3809    0.1562    0.8691 H   0  0  0  0  0  0  0  0  0  0  0  0
    3.8369   -0.7964    0.5800 H   0  0  0  0  0  0  0  0  0  0  0  0
    3.5766    2.2757    0.6387 H   0  0  0  0  0  0  0  0  0  0  0  0
    4.3425    1.3251    1.8931 H   0  0  0  0  0  0  0  0  0  0  0  0
    7.9902    1.7270   -0.6447 H   0  0  0  0  0  0  0  0  0  0  0  0
    9.8401    0.2836    0.1373 H   0  0  0  0  0  0  0  0  0  0  0  0
    9.3513   -1.5362    1.7829 H   0  0  0  0  0  0  0  0  0  0  0  0
    6.9933   -1.8101    2.5577 H   0  0  0  0  0  0  0  0  0  0  0  0
    6.1669    1.5459   -1.9766 H   0  0  0  0  0  0  0  0  0  0  0  0
    4.6658    2.4037   -1.6858 H   0  0  0  0  0  0  0  0  0  0  0  0
    4.2381    0.2815   -2.9312 H   0  0  0  0  0  0  0  0  0  0  0  0
    4.9786   -0.6628   -1.6338 H   0  0  0  0  0  0  0  0  0  0  0  0
    0.9438   -1.4399   -0.7192 H   0  0  0  0  0  0  0  0  0  0  0  0
  1  2  1  0
  2  3  1  0
  3  4  2  0
  3  5  1  0
  5  6  2  3
  6  7  1  0
  7  8  2  0
  8  9  1  0
  9 10  2  0
 10 11  1  0
 11 12  1  0
 11 13  1  0
 11 14  1  0
 10 15  1  0
 15 16  2  0
  5 17  1  0
 17 18  1  0
 18 19  2  0
 19 20  1  0
 20 21  2  0
 21 22  1  0
 22 23  2  0
 22 24  1  0
 24 25  1  0
 25 26  1  0
 26 27  1  0
 27 28  1  0
 28 29  2  0
 29 30  1  0
 30 31  2  0
 31 32  1  0
 32 33  2  0
 27 34  1  0
 34 35  1  0
 21 36  1  0
 36 37  2  0
 37  2  1  0
 16  7  1  0
 37 18  1  0
 35 24  1  0
 33 28  1  0
  1 38  1  0
  1 39  1  0
  1 40  1  0
  6 41  1  0
  8 42  1  0
  9 43  1  0
 15 44  1  0
 16 45  1  0
 19 46  1  0
 20 47  1  0
 25 48  1  0
 25 49  1  0
 26 50  1  0
 26 51  1  0
 29 52  1  0
 30 53  1  0
 31 54  1  0
 32 55  1  0
 34 56  1  0
 34 57  1  0
 35 58  1  0
 35 59  1  0
 36 60  1  0
M  END
$$$$
