
     RDKit          3D

 51 55  0  0  0  0  0  0  0  0999 V2000
    1.9193    1.4828   -2.4767 O   0  0  0  0  0  0  0  0  0  0  0  0
    1.3643    0.4591   -2.0842 C   0  0  0  0  0  0  0  0  0  0  0  0
    0.0062    0.0408   -2.6604 C   0  0  0  0  0  0  0  0  0  0  0  0
   -1.0924    0.2776   -1.6983 N   0  0  0  0  0  0  0  0  0  0  0  0
   -1.2762   -0.7125   -0.7407 C   0  0  0  0  0  0  0  0  0  0  0  0
   -0.5475   -1.7206   -0.7523 O   0  0  0  0  0  0  0  0  0  0  0  0
   -2.1710   -0.5185    0.4720 C   0  0  0  0  0  0  0  0  0  0  0  0
   -3.5976   -0.0169    0.3210 C   0  0  0  0  0  0  0  0  0  0  0  0
   -4.5349   -0.6480    1.3074 C   0  0  0  0  0  0  0  0  0  0  0  0
   -5.3755   -0.1224    2.2708 C   0  0  0  0  0  0  0  0  0  0  0  0
   -6.0042   -1.2240    2.9001 C   0  0  0  0  0  0  0  0  0  0  0  0
   -5.5148   -2.3508    2.2812 C   0  0  0  0  0  0  0  0  0  0  0  0
   -4.6205   -2.0121    1.3169 O   0  0  0  0  0  0  0  0  0  0  0  0
   -4.2380   -0.1922   -1.3662 S   0  0  0  0  0  0  0  0  0  0  0  0
   -3.3853    1.2431   -1.9904 C   0  0  0  0  0  0  0  0  0  0  0  0
   -4.1935    2.2977   -2.4469 C   0  0  0  0  0  0  0  0  0  0  0  0
   -3.6265    3.4798   -2.9133 C   0  0  0  0  0  0  0  0  0  0  0  0
   -2.2458    3.6156   -2.9302 C   0  0  0  0  0  0  0  0  0  0  0  0
   -1.4351    2.5638   -2.4958 C   0  0  0  0  0  0  0  0  0  0  0  0
   -1.9822    1.3572   -2.0206 C   0  0  0  0  0  0  0  0  0  0  0  0
    1.8387   -0.4204   -1.1253 N   0  0  0  0  0  0  0  0  0  0  0  0
    3.0254   -0.3303   -0.3740 C   0  0  0  0  0  0  0  0  0  0  0  0
    3.9432    0.7190   -0.4853 C   0  0  0  0  0  0  0  0  0  0  0  0
    5.0981    0.7381    0.3040 C   0  0  0  0  0  0  0  0  0  0  0  0
    5.3461   -0.2950    1.2026 C   0  0  0  0  0  0  0  0  0  0  0  0
    4.4239   -1.3364    1.3355 C   0  0  0  0  0  0  0  0  0  0  0  0
    3.2764   -1.3601    0.5424 C   0  0  0  0  0  0  0  0  0  0  0  0
    4.5836   -2.3747    2.2189 O   0  0  0  0  0  0  0  0  0  0  0  0
    5.5882   -2.0790    3.1960 C   0  0  0  0  0  0  0  0  0  0  0  0
    6.8204   -1.4795    2.5372 C   0  0  0  0  0  0  0  0  0  0  0  0
    6.5069   -0.2210    1.9265 O   0  0  0  0  0  0  0  0  0  0  0  0
   -0.1634    0.5746   -3.6020 H   0  0  0  0  0  0  0  0  0  0  0  0
    0.0469   -1.0220   -2.9306 H   0  0  0  0  0  0  0  0  0  0  0  0
   -1.6281    0.1379    1.1665 H   0  0  0  0  0  0  0  0  0  0  0  0
   -2.1834   -1.4991    0.9731 H   0  0  0  0  0  0  0  0  0  0  0  0
   -3.5985    1.0566    0.5582 H   0  0  0  0  0  0  0  0  0  0  0  0
   -5.5140    0.9279    2.4897 H   0  0  0  0  0  0  0  0  0  0  0  0
   -6.7288   -1.2010    3.7029 H   0  0  0  0  0  0  0  0  0  0  0  0
   -5.6880   -3.4119    2.4023 H   0  0  0  0  0  0  0  0  0  0  0  0
   -5.2796    2.2067   -2.4377 H   0  0  0  0  0  0  0  0  0  0  0  0
   -4.2622    4.2898   -3.2653 H   0  0  0  0  0  0  0  0  0  0  0  0
   -1.7920    4.5335   -3.2917 H   0  0  0  0  0  0  0  0  0  0  0  0
   -0.3580    2.7179   -2.5229 H   0  0  0  0  0  0  0  0  0  0  0  0
    1.2327   -1.2181   -0.9175 H   0  0  0  0  0  0  0  0  0  0  0  0
    3.7911    1.5408   -1.1784 H   0  0  0  0  0  0  0  0  0  0  0  0
    5.8070    1.5556    0.2051 H   0  0  0  0  0  0  0  0  0  0  0  0
    2.5792   -2.1873    0.6556 H   0  0  0  0  0  0  0  0  0  0  0  0
    5.1592   -1.3977    3.9424 H   0  0  0  0  0  0  0  0  0  0  0  0
    5.8496   -3.0160    3.6984 H   0  0  0  0  0  0  0  0  0  0  0  0
    7.5986   -1.3004    3.2858 H   0  0  0  0  0  0  0  0  0  0  0  0
    7.2320   -2.1483    1.7695 H   0  0  0  0  0  0  0  0  0  0  0  0
  1  2  2  0
  2  3  1  0
  3  4  1  0
  4  5  1  0
  5  6  2  0
  5  7  1  0
  7  8  1  0
  8  9  1  0
  9 10  2  0
 10 11  1  0
 11 12  2  0
 12 13  1  0
  8 14  1  0
 14 15  1  0
 15 16  2  0
 16 17  1  0
 17 18  2  0
 18 19  1  0
 19 20  2  0
  2 21  1  0
 21 22  1  0
 22 23  2  0
 23 24  1  0
 24 25  2  0
 25 26  1  0
 26 27  2  0
 26 28  1  0
 28 29  1  0
 29 30  1  0
 30 31  1  0
 20  4  1  0
 27 22  1  0
 13  9  1  0
 20 15  1  0
 31 25  1  0
  3 32  1  0
  3 33  1  0
  7 34  1  0
  7 35  1  0
  8 36  1  0
 10 37  1  0
 11 38  1  0
 12 39  1  0
 16 40  1  0
 17 41  1  0
 18 42  1  0
 19 43  1  0
 21 44  1  0
 23 45  1  0
 24 46  1  0
 27 47  1  0
 29 48  1  0
 29 49  1  0
 30 50  1  0
 30 51  1  0
M  END
$$$$
