
     RDKit          3D

 34 35  0  0  0  0  0  0  0  0999 V2000
    2.4092    1.2525    3.6169 C   0  0  0  0  0  0  0  0  0  0  0  0
    2.0849    0.8944    2.1829 C   0  0  0  0  0  0  0  0  0  0  0  0
    0.8642    0.5209    1.9279 N   0  0  0  0  0  0  0  0  0  0  0  0
    0.5419    0.0773    0.6777 N   0  0  0  0  0  0  0  0  0  0  0  0
   -0.7767   -0.2691    0.3833 C   0  0  0  0  0  0  0  0  0  0  0  0
   -1.7143   -0.1361    1.1615 O   0  0  0  0  0  0  0  0  0  0  0  0
   -0.8836   -0.8527   -1.0141 C   0  0  0  0  0  0  0  0  0  0  0  0
   -2.3072   -1.0525   -1.5324 C   0  0  0  0  0  0  0  0  0  0  0  0
   -2.2430   -1.6817   -2.9301 C   0  0  0  0  0  0  0  0  0  0  0  0
   -3.0512   -1.9456   -0.6979 O   0  0  0  0  0  0  0  0  0  0  0  0
   -4.3481   -1.3568   -0.6055 C   0  0  0  0  0  0  0  0  0  0  0  0
   -4.1084    0.1196   -0.7893 C   0  0  0  0  0  0  0  0  0  0  0  0
   -2.9942    0.1982   -1.6813 O   0  0  0  0  0  0  0  0  0  0  0  0
    3.1519    1.0009    1.2018 C   0  0  0  0  0  0  0  0  0  0  0  0
    3.1417    1.6725   -0.0067 C   0  0  0  0  0  0  0  0  0  0  0  0
    4.3759    1.5468   -0.7075 C   0  0  0  0  0  0  0  0  0  0  0  0
    5.2886    0.7889   -0.0087 C   0  0  0  0  0  0  0  0  0  0  0  0
    4.6586    0.2399    1.4834 S   0  0  0  0  0  0  0  0  0  0  0  0
    3.0956    2.1032    3.6547 H   0  0  0  0  0  0  0  0  0  0  0  0
    2.8690    0.3924    4.1121 H   0  0  0  0  0  0  0  0  0  0  0  0
    1.4945    1.5169    4.1560 H   0  0  0  0  0  0  0  0  0  0  0  0
    1.2871   -0.1596    0.0323 H   0  0  0  0  0  0  0  0  0  0  0  0
   -0.3423   -0.1798   -1.6917 H   0  0  0  0  0  0  0  0  0  0  0  0
   -0.3620   -1.8179   -0.9857 H   0  0  0  0  0  0  0  0  0  0  0  0
   -1.7001   -1.0392   -3.6317 H   0  0  0  0  0  0  0  0  0  0  0  0
   -1.7663   -2.6674   -2.9012 H   0  0  0  0  0  0  0  0  0  0  0  0
   -3.2502   -1.8228   -3.3393 H   0  0  0  0  0  0  0  0  0  0  0  0
   -4.9629   -1.7624   -1.4163 H   0  0  0  0  0  0  0  0  0  0  0  0
   -4.8180   -1.6018    0.3504 H   0  0  0  0  0  0  0  0  0  0  0  0
   -3.8390    0.6101    0.1498 H   0  0  0  0  0  0  0  0  0  0  0  0
   -4.9719    0.6399   -1.2124 H   0  0  0  0  0  0  0  0  0  0  0  0
    2.2893    2.2398   -0.3650 H   0  0  0  0  0  0  0  0  0  0  0  0
    4.5872    1.9960   -1.6708 H   0  0  0  0  0  0  0  0  0  0  0  0
    6.2997    0.5353   -0.2980 H   0  0  0  0  0  0  0  0  0  0  0  0
  1  2  1  0
  2  3  2  3
  3  4  1  0
  4  5  1  0
  5  6  2  0
  5  7  1  0
  7  8  1  0
  8  9  1  0
  8 10  1  0
 10 11  1  0
 11 12  1  0
 12 13  1  0
  2 14  1  0
 14 15  2  0
 15 16  1  0
 16 17  2  0
 17 18  1  0
 13  8  1  0
 18 14  1  0
  1 19  1  0
  1 20  1  0
  1 21  1  0
  4 22  1  0
  7 23  1  0
  7 24  1  0
  9 25  1  0
  9 26  1  0
  9 27  1  0
 11 28  1  0
 11 29  1  0
 12 30  1  0
 12 31  1  0
 15 32  1  0
 16 33  1  0
 17 34  1  0
M  END
$$$$
