
     RDKit          3D

 33 33  0  0  0  0  0  0  0  0999 V2000
   -3.7108    3.2721   -1.1552 C   0  0  0  0  0  0  0  0  0  0  0  0
   -3.6069    2.4018    0.0724 C   0  0  0  0  0  0  0  0  0  0  0  0
   -4.5195    2.3642    0.8908 O   0  0  0  0  0  0  0  0  0  0  0  0
   -2.4017    1.7369    0.1437 N   0  0  0  0  0  0  0  0  0  0  0  0
   -1.9619    0.8213    1.1261 C   0  0  0  0  0  0  0  0  0  0  0  0
   -2.7494    0.4087    2.2027 C   0  0  0  0  0  0  0  0  0  0  0  0
   -2.2535   -0.5167    3.1228 C   0  0  0  0  0  0  0  0  0  0  0  0
   -0.9720   -1.0381    2.9690 C   0  0  0  0  0  0  0  0  0  0  0  0
   -0.1724   -0.6308    1.8990 C   0  0  0  0  0  0  0  0  0  0  0  0
   -0.6542    0.3062    0.9799 C   0  0  0  0  0  0  0  0  0  0  0  0
    0.0487    0.7885   -0.1008 O   0  0  0  0  0  0  0  0  0  0  0  0
    1.4310    0.4851   -0.1873 C   0  0  0  0  0  0  0  0  0  0  0  0
    1.7676   -0.8749   -0.8119 C   0  0  0  0  0  0  0  0  0  0  0  0
    0.9593   -1.5695   -1.4178 O   0  0  0  0  0  0  0  0  0  0  0  0
    3.0814   -1.2663   -0.6251 N   0  0  0  0  0  0  0  0  0  0  0  0
    3.5892   -2.4719   -1.2882 C   0  0  0  0  0  0  0  0  0  0  0  0
    4.0475   -2.2685   -2.7352 C   0  0  0  0  0  0  0  0  0  0  0  0
    4.5611   -3.4121   -3.2411 F   0  0  0  0  0  0  0  0  0  0  0  0
    3.0535   -1.8622   -3.5483 F   0  0  0  0  0  0  0  0  0  0  0  0
    5.0261   -1.3305   -2.7843 F   0  0  0  0  0  0  0  0  0  0  0  0
   -4.7596    3.3484   -1.4561 H   0  0  0  0  0  0  0  0  0  0  0  0
   -3.3232    4.2679   -0.9248 H   0  0  0  0  0  0  0  0  0  0  0  0
   -3.1500    2.8464   -1.9922 H   0  0  0  0  0  0  0  0  0  0  0  0
   -1.7217    1.8940   -0.5934 H   0  0  0  0  0  0  0  0  0  0  0  0
   -3.7579    0.7825    2.3475 H   0  0  0  0  0  0  0  0  0  0  0  0
   -2.8774   -0.8362    3.9540 H   0  0  0  0  0  0  0  0  0  0  0  0
   -0.5975   -1.7698    3.6806 H   0  0  0  0  0  0  0  0  0  0  0  0
    0.8104   -1.0787    1.8097 H   0  0  0  0  0  0  0  0  0  0  0  0
    1.9333    0.6063    0.7803 H   0  0  0  0  0  0  0  0  0  0  0  0
    1.8699    1.2380   -0.8532 H   0  0  0  0  0  0  0  0  0  0  0  0
    3.7582   -0.5760   -0.3202 H   0  0  0  0  0  0  0  0  0  0  0  0
    2.8162   -3.2471   -1.2560 H   0  0  0  0  0  0  0  0  0  0  0  0
    4.4360   -2.8191   -0.6873 H   0  0  0  0  0  0  0  0  0  0  0  0
  1  2  1  0
  2  3  2  0
  2  4  1  0
  4  5  1  0
  5  6  2  0
  6  7  1  0
  7  8  2  0
  8  9  1  0
  9 10  2  0
 10 11  1  0
 11 12  1  0
 12 13  1  0
 13 14  2  0
 13 15  1  0
 15 16  1  0
 16 17  1  0
 17 18  1  0
 17 19  1  0
 17 20  1  0
 10  5  1  0
  1 21  1  0
  1 22  1  0
  1 23  1  0
  4 24  1  0
  6 25  1  0
  7 26  1  0
  8 27  1  0
  9 28  1  0
 12 29  1  0
 12 30  1  0
 15 31  1  0
 16 32  1  0
 16 33  1  0
M  END
$$$$
