
     RDKit          3D

 56 61  0  0  0  0  0  0  0  0999 V2000
    6.9302    0.2588   -3.5185 C   0  0  0  0  0  0  0  0  0  0  0  0
    5.7613    0.2931   -2.5773 C   0  0  0  0  0  0  0  0  0  0  0  0
    4.5225    0.7803   -3.0034 C   0  0  0  0  0  0  0  0  0  0  0  0
    3.4407    0.8405   -2.1197 C   0  0  0  0  0  0  0  0  0  0  0  0
    3.5909    0.4255   -0.7915 C   0  0  0  0  0  0  0  0  0  0  0  0
    2.3689    0.4958    0.1931 C   0  0  0  0  0  0  0  0  0  0  0  0
    1.0731    0.8825   -0.1286 C   0  0  0  0  0  0  0  0  0  0  0  0
    0.2749    0.7882    1.0111 N   0  0  0  0  0  4  0  0  0  0  0  0
   -1.1740    1.0523    1.0979 C   0  0  0  0  0  0  0  0  0  0  0  0
   -1.9655   -0.2730    1.1484 C   0  0  0  0  0  0  0  0  0  0  0  0
   -1.5038   -1.1945    1.8281 O   0  0  0  0  0  0  0  0  0  0  0  0
   -3.0863   -0.3481    0.3026 N   0  0  0  0  0  0  0  0  0  0  0  0
   -3.5031   -1.5985   -0.2919 C   0  0  0  0  0  0  0  0  0  0  0  0
   -3.2889   -2.8263    0.3600 C   0  0  0  0  0  0  0  0  0  0  0  0
   -3.6790   -4.0417   -0.2145 C   0  0  0  0  0  0  0  0  0  0  0  0
   -4.2882   -4.0606   -1.4610 C   0  0  0  0  0  0  0  0  0  0  0  0
   -4.5076   -2.8627   -2.1325 C   0  0  0  0  0  0  0  0  0  0  0  0
   -4.1240   -1.6404   -1.5571 C   0  0  0  0  0  0  0  0  0  0  0  0
   -4.3677   -0.1762   -2.5376 S   0  0  0  0  0  0  0  0  0  0  0  0
   -4.5342    0.9952   -1.2209 C   0  0  0  0  0  0  0  0  0  0  0  0
   -5.2973    2.1477   -1.4581 C   0  0  0  0  0  0  0  0  0  0  0  0
   -5.4663    3.1049   -0.4605 C   0  0  0  0  0  0  0  0  0  0  0  0
   -4.8849    2.9095    0.7855 C   0  0  0  0  0  0  0  0  0  0  0  0
   -4.1152    1.7682    1.0239 C   0  0  0  0  0  0  0  0  0  0  0  0
   -3.8991    0.8064    0.0158 C   0  0  0  0  0  0  0  0  0  0  0  0
    1.0419    0.3319    1.9971 C   0  0  0  0  0  0  0  0  0  0  0  0
    2.2857    0.2018    1.5422 N   0  0  0  0  0  0  0  0  0  0  0  0
    3.1984   -0.2448    2.5848 C   0  0  0  0  0  0  0  0  0  0  0  0
    2.3801   -0.0450    3.8899 C   0  0  0  0  0  0  0  0  0  0  0  0
    0.9083   -0.0135    3.4324 C   0  0  0  0  0  0  0  0  0  0  0  0
    4.8288   -0.0517   -0.3600 C   0  0  0  0  0  0  0  0  0  0  0  0
    5.9086   -0.1112   -1.2472 C   0  0  0  0  0  0  0  0  0  0  0  0
    7.6235   -0.5457   -3.2522 H   0  0  0  0  0  0  0  0  0  0  0  0
    6.5982    0.0743   -4.5455 H   0  0  0  0  0  0  0  0  0  0  0  0
    7.4654    1.2127   -3.4845 H   0  0  0  0  0  0  0  0  0  0  0  0
    4.3934    1.1153   -4.0316 H   0  0  0  0  0  0  0  0  0  0  0  0
    2.4996    1.2231   -2.5032 H   0  0  0  0  0  0  0  0  0  0  0  0
    0.6073    1.2048   -1.0446 H   0  0  0  0  0  0  0  0  0  0  0  0
   -1.4419    1.6613    0.2305 H   0  0  0  0  0  0  0  0  0  0  0  0
   -1.3589    1.6196    2.0150 H   0  0  0  0  0  0  0  0  0  0  0  0
   -2.8576   -2.8811    1.3547 H   0  0  0  0  0  0  0  0  0  0  0  0
   -3.5128   -4.9732    0.3226 H   0  0  0  0  0  0  0  0  0  0  0  0
   -4.5927   -5.0035   -1.9094 H   0  0  0  0  0  0  0  0  0  0  0  0
   -4.9780   -2.8895   -3.1140 H   0  0  0  0  0  0  0  0  0  0  0  0
   -5.7795    2.3019   -2.4225 H   0  0  0  0  0  0  0  0  0  0  0  0
   -6.0740    3.9874   -0.6508 H   0  0  0  0  0  0  0  0  0  0  0  0
   -5.0533    3.6349    1.5794 H   0  0  0  0  0  0  0  0  0  0  0  0
   -3.7457    1.6203    2.0361 H   0  0  0  0  0  0  0  0  0  0  0  0
    3.4311   -1.3011    2.4215 H   0  0  0  0  0  0  0  0  0  0  0  0
    4.1080    0.3599    2.5972 H   0  0  0  0  0  0  0  0  0  0  0  0
    2.6397    0.9267    4.3266 H   0  0  0  0  0  0  0  0  0  0  0  0
    2.5795   -0.8157    4.6391 H   0  0  0  0  0  0  0  0  0  0  0  0
    0.4448   -0.9997    3.4846 H   0  0  0  0  0  0  0  0  0  0  0  0
    0.3117    0.7508    3.9311 H   0  0  0  0  0  0  0  0  0  0  0  0
    4.9931   -0.3967    0.6522 H   0  0  0  0  0  0  0  0  0  0  0  0
    6.8701   -0.4817   -0.8946 H   0  0  0  0  0  0  0  0  0  0  0  0
  1  2  1  0
  2  3  2  0
  3  4  1  0
  4  5  2  0
  5  6  1  0
  6  7  2  0
  7  8  1  0
  8  9  1  0
  9 10  1  0
 10 11  2  0
 10 12  1  0
 12 13  1  0
 13 14  2  0
 14 15  1  0
 15 16  2  0
 16 17  1  0
 17 18  2  0
 18 19  1  0
 19 20  1  0
 20 21  2  0
 21 22  1  0
 22 23  2  0
 23 24  1  0
 24 25  2  0
  8 26  2  0
 26 27  1  0
 27 28  1  0
 28 29  1  0
 29 30  1  0
  5 31  1  0
 31 32  2  0
 32  2  1  0
 27  6  1  0
 25 12  1  0
 30 26  1  0
 18 13  1  0
 25 20  1  0
  1 33  1  0
  1 34  1  0
  1 35  1  0
  3 36  1  0
  4 37  1  0
  7 38  1  0
  9 39  1  0
  9 40  1  0
 14 41  1  0
 15 42  1  0
 16 43  1  0
 17 44  1  0
 21 45  1  0
 22 46  1  0
 23 47  1  0
 24 48  1  0
 28 49  1  0
 28 50  1  0
 29 51  1  0
 29 52  1  0
 30 53  1  0
 30 54  1  0
 31 55  1  0
 32 56  1  0
M  CHG  1   8   1
M  END
$$$$
