
     RDKit          3D

 39 42  0  0  0  0  0  0  0  0999 V2000
   -4.4580    1.3912    1.8599 C   0  0  0  0  0  0  0  0  0  0  0  0
   -4.3533   -0.4171    1.8074 S   0  0  0  0  0  0  0  0  0  0  0  0
   -4.8054   -0.6588    0.0857 C   0  0  0  0  0  0  0  0  0  0  0  0
   -6.1623   -0.8240   -0.2217 C   0  0  0  0  0  0  0  0  0  0  0  0
   -6.5656   -1.0062   -1.5430 C   0  0  0  0  0  0  0  0  0  0  0  0
   -5.6151   -1.0272   -2.5598 C   0  0  0  0  0  0  0  0  0  0  0  0
   -4.2577   -0.8716   -2.2616 C   0  0  0  0  0  0  0  0  0  0  0  0
   -3.8366   -0.6910   -0.9411 C   0  0  0  0  0  0  0  0  0  0  0  0
   -2.4815   -0.5390   -0.5788 N   0  0  0  0  0  0  0  0  0  0  0  0
   -1.3610   -0.5225   -1.3835 C   0  0  0  0  0  0  0  0  0  0  0  0
   -1.3400   -0.6392   -2.6039 O   0  0  0  0  0  0  0  0  0  0  0  0
   -0.1184   -0.3372   -0.6242 C   0  0  0  0  0  0  0  0  0  0  0  0
    1.2033   -0.2969   -1.1360 C   0  0  0  0  0  0  0  0  0  0  0  0
    2.0075   -0.1016   -0.0380 C   0  0  0  0  0  0  0  0  0  0  0  0
    3.4450    0.0352    0.1776 C   0  0  0  0  0  0  0  0  0  0  0  0
    4.3373   -0.0260   -0.9207 C   0  0  0  0  0  0  0  0  0  0  0  0
    5.7214    0.1019   -0.7461 C   0  0  0  0  0  0  0  0  0  0  0  0
    6.1900    0.2900    0.5337 C   0  0  0  0  0  0  0  0  0  0  0  0
    5.3389    0.3516    1.6096 C   0  0  0  0  0  0  0  0  0  0  0  0
    3.9712    0.2288    1.4669 C   0  0  0  0  0  0  0  0  0  0  0  0
    6.0001    0.5420    2.7829 O   0  0  0  0  0  0  0  0  0  0  0  0
    7.3660    0.5915    2.3205 C   0  0  0  0  0  0  0  0  0  0  0  0
    7.4930    0.4333    0.8918 O   0  0  0  0  0  0  0  0  0  0  0  0
    1.2122   -0.0273    1.0684 O   0  0  0  0  0  0  0  0  0  0  0  0
   -0.1153   -0.1723    0.7102 N   0  0  0  0  0  0  0  0  0  0  0  0
   -5.4717    1.7244    1.6212 H   0  0  0  0  0  0  0  0  0  0  0  0
   -4.2062    1.7361    2.8662 H   0  0  0  0  0  0  0  0  0  0  0  0
   -3.7537    1.8381    1.1529 H   0  0  0  0  0  0  0  0  0  0  0  0
   -6.9127   -0.8134    0.5653 H   0  0  0  0  0  0  0  0  0  0  0  0
   -7.6190   -1.1341   -1.7788 H   0  0  0  0  0  0  0  0  0  0  0  0
   -5.9261   -1.1706   -3.5922 H   0  0  0  0  0  0  0  0  0  0  0  0
   -3.5541   -0.9023   -3.0876 H   0  0  0  0  0  0  0  0  0  0  0  0
   -2.3031   -0.4433    0.4203 H   0  0  0  0  0  0  0  0  0  0  0  0
    1.5025   -0.3995   -2.1684 H   0  0  0  0  0  0  0  0  0  0  0  0
    3.9608   -0.1752   -1.9306 H   0  0  0  0  0  0  0  0  0  0  0  0
    6.4018    0.0545   -1.5889 H   0  0  0  0  0  0  0  0  0  0  0  0
    3.3351    0.2830    2.3448 H   0  0  0  0  0  0  0  0  0  0  0  0
    7.7981    1.5575    2.6061 H   0  0  0  0  0  0  0  0  0  0  0  0
    7.9324   -0.2070    2.8135 H   0  0  0  0  0  0  0  0  0  0  0  0
  1  2  1  0
  2  3  1  0
  3  4  2  0
  4  5  1  0
  5  6  2  0
  6  7  1  0
  7  8  2  0
  8  9  1  0
  9 10  1  0
 10 11  2  0
 10 12  1  0
 12 13  1  0
 13 14  2  0
 14 15  1  0
 15 16  2  0
 16 17  1  0
 17 18  2  0
 18 19  1  0
 19 20  2  0
 19 21  1  0
 21 22  1  0
 22 23  1  0
 14 24  1  0
 24 25  1  0
  8  3  1  0
 25 12  2  0
 20 15  1  0
 23 18  1  0
  1 26  1  0
  1 27  1  0
  1 28  1  0
  4 29  1  0
  5 30  1  0
  6 31  1  0
  7 32  1  0
  9 33  1  0
 13 34  1  0
 16 35  1  0
 17 36  1  0
 20 37  1  0
 22 38  1  0
 22 39  1  0
M  END
$$$$
