
     RDKit          3D

 42 44  0  0  0  0  0  0  0  0999 V2000
   -0.7656   -3.1864   -0.6969 C   0  0  0  0  0  0  0  0  0  0  0  0
   -0.8921   -1.7396   -0.3441 C   0  0  0  0  0  0  0  0  0  0  0  0
    0.0727   -0.8823    0.0293 C   0  0  0  0  0  0  0  0  0  0  0  0
    1.4357   -0.9525    0.1486 N   0  0  0  0  0  0  0  0  0  0  0  0
    2.3001   -1.8456   -0.4504 C   0  0  0  0  0  0  0  0  0  0  0  0
    1.9829   -2.7186   -1.2542 O   0  0  0  0  0  0  0  0  0  0  0  0
    3.7432   -1.6690   -0.0380 C   0  0  0  0  0  0  0  0  0  0  0  0
    4.2771   -0.4225   -0.5469 N   0  0  0  0  0  0  0  0  0  0  0  0
    4.9544   -0.2289   -1.7172 C   0  0  0  0  0  0  0  0  0  0  0  0
    5.2655    1.1114   -1.7631 C   0  0  0  0  0  0  0  0  0  0  0  0
    4.7329    1.6442   -0.5677 C   0  0  0  0  0  0  0  0  0  0  0  0
    4.7852    3.0156   -0.0910 N   0  0  0  0  0  4  0  0  0  0  0  0
    5.3099    3.8382   -0.8578 O   0  0  0  0  0  0  0  0  0  0  0  0
    4.3257    3.2722    1.0305 O   0  0  0  0  0  1  0  0  0  0  0  0
    4.1148    0.7060    0.1745 N   0  0  0  0  0  0  0  0  0  0  0  0
   -0.6352    0.3841    0.4042 C   0  0  0  0  0  0  0  0  0  0  0  0
   -0.0361    1.3521    0.8490 O   0  0  0  0  0  0  0  0  0  0  0  0
   -1.9972    0.1593    0.1952 N   0  0  0  0  0  0  0  0  0  0  0  0
   -3.0571    0.8618    0.8250 C   0  0  0  0  0  0  0  0  0  0  0  0
   -4.2942    0.2457    1.0709 C   0  0  0  0  0  0  0  0  0  0  0  0
   -5.3382    0.9415    1.6889 C   0  0  0  0  0  0  0  0  0  0  0  0
   -5.1609    2.2667    2.0736 C   0  0  0  0  0  0  0  0  0  0  0  0
   -3.9391    2.8928    1.8457 C   0  0  0  0  0  0  0  0  0  0  0  0
   -2.8954    2.1945    1.2289 C   0  0  0  0  0  0  0  0  0  0  0  0
   -2.1754   -1.1566   -0.3230 N   0  0  0  0  0  0  0  0  0  0  0  0
   -2.9460   -1.1890   -1.5812 C   0  0  0  0  0  0  0  0  0  0  0  0
    0.0336   -3.6732   -0.1312 H   0  0  0  0  0  0  0  0  0  0  0  0
   -0.5875   -3.3103   -1.7693 H   0  0  0  0  0  0  0  0  0  0  0  0
   -1.6854   -3.7257   -0.4436 H   0  0  0  0  0  0  0  0  0  0  0  0
    1.8531   -0.1146    0.5665 H   0  0  0  0  0  0  0  0  0  0  0  0
    4.3493   -2.4901   -0.4336 H   0  0  0  0  0  0  0  0  0  0  0  0
    3.8314   -1.6703    1.0534 H   0  0  0  0  0  0  0  0  0  0  0  0
    5.1508   -1.0399   -2.4072 H   0  0  0  0  0  0  0  0  0  0  0  0
    5.8026    1.6360   -2.5416 H   0  0  0  0  0  0  0  0  0  0  0  0
   -4.4546   -0.7980    0.8156 H   0  0  0  0  0  0  0  0  0  0  0  0
   -6.2851    0.4426    1.8771 H   0  0  0  0  0  0  0  0  0  0  0  0
   -5.9695    2.8089    2.5564 H   0  0  0  0  0  0  0  0  0  0  0  0
   -3.7912    3.9271    2.1469 H   0  0  0  0  0  0  0  0  0  0  0  0
   -1.9616    2.7243    1.0575 H   0  0  0  0  0  0  0  0  0  0  0  0
   -3.1633   -2.2238   -1.8659 H   0  0  0  0  0  0  0  0  0  0  0  0
   -2.3841   -0.7146   -2.3941 H   0  0  0  0  0  0  0  0  0  0  0  0
   -3.9059   -0.6735   -1.4875 H   0  0  0  0  0  0  0  0  0  0  0  0
  1  2  1  0
  2  3  2  0
  3  4  1  0
  4  5  1  0
  5  6  2  0
  5  7  1  0
  7  8  1  0
  8  9  1  0
  9 10  2  0
 10 11  1  0
 11 12  1  0
 12 13  2  0
 12 14  1  0
 11 15  2  0
  3 16  1  0
 16 17  2  0
 16 18  1  0
 18 19  1  0
 19 20  2  0
 20 21  1  0
 21 22  2  0
 22 23  1  0
 23 24  2  0
 18 25  1  0
 25 26  1  0
 25  2  1  0
 15  8  1  0
 24 19  1  0
  1 27  1  0
  1 28  1  0
  1 29  1  0
  4 30  1  0
  7 31  1  0
  7 32  1  0
  9 33  1  0
 10 34  1  0
 20 35  1  0
 21 36  1  0
 22 37  1  0
 23 38  1  0
 24 39  1  0
 26 40  1  0
 26 41  1  0
 26 42  1  0
M  CHG  2  12   1  14  -1
M  END
$$$$
