
     RDKit          3D

 59 62  0  0  0  0  0  0  0  0999 V2000
    6.5003    0.3858    5.3813 C   0  0  0  0  0  0  0  0  0  0  0  0
    6.2750   -0.6214    4.4036 O   0  0  0  0  0  0  0  0  0  0  0  0
    5.7563   -0.2170    3.2048 C   0  0  0  0  0  0  0  0  0  0  0  0
    5.5139   -1.2492    2.2955 C   0  0  0  0  0  0  0  0  0  0  0  0
    4.9852   -0.9756    1.0320 C   0  0  0  0  0  0  0  0  0  0  0  0
    4.6860    0.3405    0.6677 C   0  0  0  0  0  0  0  0  0  0  0  0
    4.1385    0.5885   -0.6961 C   0  0  0  0  0  0  0  0  0  0  0  0
    4.5011   -0.1451   -1.6181 O   0  0  0  0  0  0  0  0  0  0  0  0
    3.2345    1.7750   -0.9577 C   0  0  0  0  0  0  0  0  0  0  0  0
    1.7986    1.8790    0.1442 S   0  0  0  0  0  0  0  0  0  0  0  0
    0.9943    0.4023   -0.2481 C   0  0  0  0  0  0  0  0  0  0  0  0
    1.4276   -0.7929    0.0687 N   0  0  0  0  0  0  0  0  0  0  0  0
    0.5367   -1.7037   -0.4349 N   0  0  0  0  0  0  0  0  0  0  0  0
   -0.4292   -1.0443   -1.0486 C   0  0  0  0  0  0  0  0  0  0  0  0
   -1.5657   -1.6829   -1.7807 C   0  0  0  0  0  0  0  0  0  0  0  0
   -2.8947   -1.0799   -1.6485 N   0  0  0  0  0  0  0  0  0  0  0  0
   -3.6481   -1.2236   -0.4714 C   0  0  0  0  0  0  0  0  0  0  0  0
   -3.1078   -1.6993    0.7316 C   0  0  0  0  0  0  0  0  0  0  0  0
   -3.8716   -1.7718    1.9019 C   0  0  0  0  0  0  0  0  0  0  0  0
   -5.1958   -1.3389    1.9122 C   0  0  0  0  0  0  0  0  0  0  0  0
   -6.0270   -1.4506    3.1549 C   0  0  0  0  0  0  0  0  0  0  0  0
   -5.7471   -0.8439    0.7282 C   0  0  0  0  0  0  0  0  0  0  0  0
   -4.9841   -0.7597   -0.4526 C   0  0  0  0  0  0  0  0  0  0  0  0
   -5.6341   -0.1792   -1.6819 C   0  0  0  0  0  0  0  0  0  0  0  0
   -0.1904    0.3091   -0.9270 N   0  0  0  0  0  0  0  0  0  0  0  0
   -1.0224    1.3966   -1.4015 C   0  0  0  0  0  0  0  0  0  0  0  0
   -0.8868    1.5761   -2.8682 C   0  0  0  0  0  0  0  0  0  0  0  0
   -1.7625    1.4342   -3.9253 C   0  0  0  0  0  0  0  0  0  0  0  0
   -1.0320    1.7524   -5.0950 C   0  0  0  0  0  0  0  0  0  0  0  0
    0.2373    2.0772   -4.6783 C   0  0  0  0  0  0  0  0  0  0  0  0
    0.3324    1.9827   -3.3277 O   0  0  0  0  0  0  0  0  0  0  0  0
    4.9380    1.3790    1.5703 C   0  0  0  0  0  0  0  0  0  0  0  0
    5.4687    1.0985    2.8365 C   0  0  0  0  0  0  0  0  0  0  0  0
    7.2503    1.1065    5.0390 H   0  0  0  0  0  0  0  0  0  0  0  0
    5.5659    0.8867    5.6557 H   0  0  0  0  0  0  0  0  0  0  0  0
    6.8927   -0.1014    6.2792 H   0  0  0  0  0  0  0  0  0  0  0  0
    5.7340   -2.2774    2.5728 H   0  0  0  0  0  0  0  0  0  0  0  0
    4.7944   -1.7931    0.3390 H   0  0  0  0  0  0  0  0  0  0  0  0
    3.8241    2.6941   -0.8846 H   0  0  0  0  0  0  0  0  0  0  0  0
    2.8714    1.7097   -1.9893 H   0  0  0  0  0  0  0  0  0  0  0  0
   -1.6190   -2.7485   -1.5227 H   0  0  0  0  0  0  0  0  0  0  0  0
   -1.3055   -1.6583   -2.8468 H   0  0  0  0  0  0  0  0  0  0  0  0
   -3.4741   -1.3158   -2.4512 H   0  0  0  0  0  0  0  0  0  0  0  0
   -2.0798   -2.0448    0.7977 H   0  0  0  0  0  0  0  0  0  0  0  0
   -3.4137   -2.1685    2.8056 H   0  0  0  0  0  0  0  0  0  0  0  0
   -5.4034   -1.3736    4.0518 H   0  0  0  0  0  0  0  0  0  0  0  0
   -6.7659   -0.6438    3.2037 H   0  0  0  0  0  0  0  0  0  0  0  0
   -6.5500   -2.4117    3.1701 H   0  0  0  0  0  0  0  0  0  0  0  0
   -6.7829   -0.5087    0.7252 H   0  0  0  0  0  0  0  0  0  0  0  0
   -5.0212    0.6289   -2.0945 H   0  0  0  0  0  0  0  0  0  0  0  0
   -6.6177    0.2463   -1.4558 H   0  0  0  0  0  0  0  0  0  0  0  0
   -5.7727   -0.9577   -2.4388 H   0  0  0  0  0  0  0  0  0  0  0  0
   -2.0553    1.2020   -1.1068 H   0  0  0  0  0  0  0  0  0  0  0  0
   -0.7407    2.3210   -0.8888 H   0  0  0  0  0  0  0  0  0  0  0  0
   -2.7992    1.1346   -3.8566 H   0  0  0  0  0  0  0  0  0  0  0  0
   -1.3845    1.7483   -6.1169 H   0  0  0  0  0  0  0  0  0  0  0  0
    1.1396    2.3822   -5.1906 H   0  0  0  0  0  0  0  0  0  0  0  0
    4.7399    2.4145    1.3105 H   0  0  0  0  0  0  0  0  0  0  0  0
    5.6481    1.9306    3.5093 H   0  0  0  0  0  0  0  0  0  0  0  0
  1  2  1  0
  2  3  1  0
  3  4  2  0
  4  5  1  0
  5  6  2  0
  6  7  1  0
  7  8  2  0
  7  9  1  0
  9 10  1  0
 10 11  1  0
 11 12  2  0
 12 13  1  0
 13 14  2  0
 14 15  1  0
 15 16  1  0
 16 17  1  0
 17 18  2  0
 18 19  1  0
 19 20  2  0
 20 21  1  0
 20 22  1  0
 22 23  2  0
 23 24  1  0
 14 25  1  0
 25 26  1  0
 26 27  1  0
 27 28  2  0
 28 29  1  0
 29 30  2  0
 30 31  1  0
  6 32  1  0
 32 33  2  0
 33  3  1  0
 25 11  1  0
 31 27  1  0
 23 17  1  0
  1 34  1  0
  1 35  1  0
  1 36  1  0
  4 37  1  0
  5 38  1  0
  9 39  1  0
  9 40  1  0
 15 41  1  0
 15 42  1  0
 16 43  1  0
 18 44  1  0
 19 45  1  0
 21 46  1  0
 21 47  1  0
 21 48  1  0
 22 49  1  0
 24 50  1  0
 24 51  1  0
 24 52  1  0
 26 53  1  0
 26 54  1  0
 28 55  1  0
 29 56  1  0
 30 57  1  0
 32 58  1  0
 33 59  1  0
M  END
$$$$
