
     RDKit          3D

 36 37  0  0  0  0  0  0  0  0999 V2000
   -1.2971   -0.9909    1.4502 O   0  0  0  0  0  0  0  0  0  0  0  0
   -0.6233    0.0383    1.4101 C   0  0  0  0  0  0  0  0  0  0  0  0
    0.6365    0.2453    2.2533 C   0  0  0  0  0  0  0  0  0  0  0  0
    1.8389   -0.0883    1.5608 O   0  0  0  0  0  0  0  0  0  0  0  0
    2.2564    0.8312    0.6605 C   0  0  0  0  0  0  0  0  0  0  0  0
    1.6682    1.8514    0.3392 O   0  0  0  0  0  0  0  0  0  0  0  0
    3.4940    0.3586    0.0197 C   0  0  0  0  0  0  0  0  0  0  0  0
    3.4608    0.1827   -1.3712 C   0  0  0  0  0  0  0  0  0  0  0  0
    4.5960   -0.2678   -2.0452 C   0  0  0  0  0  0  0  0  0  0  0  0
    5.7661   -0.5336   -1.3356 C   0  0  0  0  0  0  0  0  0  0  0  0
    5.8078   -0.3402    0.0474 C   0  0  0  0  0  0  0  0  0  0  0  0
    4.6738    0.1120    0.7305 C   0  0  0  0  0  0  0  0  0  0  0  0
    4.8411    0.4210    2.5963 Br  0  0  0  0  0  0  0  0  0  0  0  0
   -0.9592    1.1048    0.6002 N   0  0  0  0  0  0  0  0  0  0  0  0
   -2.0089    0.9649   -0.3923 C   0  0  0  0  0  0  0  0  0  0  0  0
   -3.4077    0.8053    0.2231 C   0  0  0  0  0  0  0  0  0  0  0  0
   -4.2155   -0.1456   -0.5130 N   0  0  0  0  0  0  0  0  0  0  0  0
   -4.3387   -1.4820   -0.2142 C   0  0  0  0  0  0  0  0  0  0  0  0
   -3.6778   -2.0572    0.8298 O   0  0  0  0  0  0  0  0  0  0  0  0
   -5.1542   -2.1580   -1.0287 C   0  0  0  0  0  0  0  0  0  0  0  0
   -5.8064   -1.1366   -2.2711 S   0  0  0  0  0  0  0  0  0  0  0  0
   -4.9190    0.2601   -1.6393 C   0  0  0  0  0  0  0  0  0  0  0  0
   -4.9398    1.3691   -2.1482 O   0  0  0  0  0  0  0  0  0  0  0  0
    0.6752    1.2735    2.6340 H   0  0  0  0  0  0  0  0  0  0  0  0
    0.5649   -0.4085    3.1293 H   0  0  0  0  0  0  0  0  0  0  0  0
    2.5513    0.3920   -1.9308 H   0  0  0  0  0  0  0  0  0  0  0  0
    4.5692   -0.4101   -3.1234 H   0  0  0  0  0  0  0  0  0  0  0  0
    6.6522   -0.8837   -1.8610 H   0  0  0  0  0  0  0  0  0  0  0  0
    6.7351   -0.5373    0.5813 H   0  0  0  0  0  0  0  0  0  0  0  0
   -0.2019    1.7613    0.3939 H   0  0  0  0  0  0  0  0  0  0  0  0
   -1.9789    1.8562   -1.0282 H   0  0  0  0  0  0  0  0  0  0  0  0
   -1.7477    0.1030   -1.0181 H   0  0  0  0  0  0  0  0  0  0  0  0
   -3.9104    1.7807    0.1978 H   0  0  0  0  0  0  0  0  0  0  0  0
   -3.3829    0.5150    1.2790 H   0  0  0  0  0  0  0  0  0  0  0  0
   -2.8401   -1.5744    0.9997 H   0  0  0  0  0  0  0  0  0  0  0  0
   -5.3778   -3.2121   -0.9480 H   0  0  0  0  0  0  0  0  0  0  0  0
  1  2  2  0
  2  3  1  0
  3  4  1  0
  4  5  1  0
  5  6  2  0
  5  7  1  0
  7  8  2  0
  8  9  1  0
  9 10  2  0
 10 11  1  0
 11 12  2  0
 12 13  1  0
  2 14  1  0
 14 15  1  0
 15 16  1  0
 16 17  1  0
 17 18  1  0
 18 19  1  0
 18 20  2  0
 20 21  1  0
 21 22  1  0
 22 23  2  0
 12  7  1  0
 22 17  1  0
  3 24  1  0
  3 25  1  0
  8 26  1  0
  9 27  1  0
 10 28  1  0
 11 29  1  0
 14 30  1  0
 15 31  1  0
 15 32  1  0
 16 33  1  0
 16 34  1  0
 19 35  1  0
 20 36  1  0
M  END
$$$$
