
     RDKit          3D

 49 53  0  0  0  0  0  0  0  0999 V2000
    7.2735    0.2868    0.0383 C   0  0  0  0  0  0  0  0  0  0  0  0
    5.9850    0.4184    0.7883 C   0  0  0  0  0  0  0  0  0  0  0  0
    5.9397    1.3694    2.2059 S   0  0  0  0  0  0  0  0  0  0  0  0
    4.2916    1.0559    2.4467 C   0  0  0  0  0  0  0  0  0  0  0  0
    3.6681    1.5959    3.5027 N   0  0  0  0  0  0  0  0  0  0  0  0
    2.3823    1.2636    3.5669 C   0  0  0  0  0  0  0  0  0  0  0  0
    1.7030    0.4927    2.7123 N   0  0  0  0  0  0  0  0  0  0  0  0
    2.3657   -0.0299    1.6581 C   0  0  0  0  0  0  0  0  0  0  0  0
    1.4592   -1.0598    0.5398 S   0  0  0  0  0  0  0  0  0  0  0  0
   -0.2028   -0.2598    0.5898 C   0  0  0  0  0  0  0  0  0  0  0  0
   -0.1316    1.0591   -0.1764 C   0  0  0  0  0  0  0  0  0  0  0  0
   -1.2532   -1.2326   -0.0087 C   0  0  0  0  0  0  0  0  0  0  0  0
   -1.0624   -2.4439   -0.1503 O   0  0  0  0  0  0  0  0  0  0  0  0
   -2.4696   -0.6189   -0.3467 N   0  0  0  0  0  0  0  0  0  0  0  0
   -2.8880   -0.5797   -1.7256 C   0  0  0  0  0  0  0  0  0  0  0  0
   -2.1561   -1.2882   -2.7043 C   0  0  0  0  0  0  0  0  0  0  0  0
   -2.5162   -1.2778   -4.0550 C   0  0  0  0  0  0  0  0  0  0  0  0
   -3.6139   -0.5437   -4.4708 C   0  0  0  0  0  0  0  0  0  0  0  0
   -4.3383    0.1854   -3.5338 C   0  0  0  0  0  0  0  0  0  0  0  0
   -3.9825    0.1773   -2.1715 C   0  0  0  0  0  0  0  0  0  0  0  0
   -4.9299    1.2430   -1.1202 S   0  0  0  0  0  0  0  0  0  0  0  0
   -4.4845    0.6199    0.4719 C   0  0  0  0  0  0  0  0  0  0  0  0
   -5.3125    1.0081    1.5426 C   0  0  0  0  0  0  0  0  0  0  0  0
   -5.0558    0.5811    2.8417 C   0  0  0  0  0  0  0  0  0  0  0  0
   -3.9708   -0.2471    3.0812 C   0  0  0  0  0  0  0  0  0  0  0  0
   -3.1423   -0.6326    2.0232 C   0  0  0  0  0  0  0  0  0  0  0  0
   -3.3655   -0.1939    0.6985 C   0  0  0  0  0  0  0  0  0  0  0  0
    3.7365    0.2339    1.4735 C   0  0  0  0  0  0  0  0  0  0  0  0
    4.7478   -0.1391    0.4861 C   0  0  0  0  0  0  0  0  0  0  0  0
    4.5040   -1.0084   -0.7126 C   0  0  0  0  0  0  0  0  0  0  0  0
    7.1645    0.7041   -0.9721 H   0  0  0  0  0  0  0  0  0  0  0  0
    8.1009    0.8106    0.5298 H   0  0  0  0  0  0  0  0  0  0  0  0
    7.5562   -0.7695   -0.0520 H   0  0  0  0  0  0  0  0  0  0  0  0
    1.8213    1.6669    4.4031 H   0  0  0  0  0  0  0  0  0  0  0  0
   -0.4745   -0.0790    1.6308 H   0  0  0  0  0  0  0  0  0  0  0  0
    0.6554    1.7189    0.2030 H   0  0  0  0  0  0  0  0  0  0  0  0
    0.0405    0.8962   -1.2437 H   0  0  0  0  0  0  0  0  0  0  0  0
   -1.0679    1.6140   -0.0831 H   0  0  0  0  0  0  0  0  0  0  0  0
   -1.2927   -1.8936   -2.4424 H   0  0  0  0  0  0  0  0  0  0  0  0
   -1.9368   -1.8508   -4.7748 H   0  0  0  0  0  0  0  0  0  0  0  0
   -3.9012   -0.5301   -5.5182 H   0  0  0  0  0  0  0  0  0  0  0  0
   -5.1866    0.7755   -3.8758 H   0  0  0  0  0  0  0  0  0  0  0  0
   -6.1751    1.6496    1.3662 H   0  0  0  0  0  0  0  0  0  0  0  0
   -5.7084    0.8841    3.6565 H   0  0  0  0  0  0  0  0  0  0  0  0
   -3.7705   -0.6080    4.0873 H   0  0  0  0  0  0  0  0  0  0  0  0
   -2.3351   -1.3233    2.2641 H   0  0  0  0  0  0  0  0  0  0  0  0
    3.7253   -0.5743   -1.3479 H   0  0  0  0  0  0  0  0  0  0  0  0
    4.2058   -2.0148   -0.4044 H   0  0  0  0  0  0  0  0  0  0  0  0
    5.3981   -1.1117   -1.3333 H   0  0  0  0  0  0  0  0  0  0  0  0
  1  2  1  0
  2  3  1  0
  3  4  1  0
  4  5  2  0
  5  6  1  0
  6  7  2  0
  7  8  1  0
  8  9  1  0
  9 10  1  0
 10 11  1  0
 10 12  1  0
 12 13  2  0
 12 14  1  0
 14 15  1  0
 15 16  2  0
 16 17  1  0
 17 18  2  0
 18 19  1  0
 19 20  2  0
 20 21  1  0
 21 22  1  0
 22 23  2  0
 23 24  1  0
 24 25  2  0
 25 26  1  0
 26 27  2  0
  8 28  2  0
 28 29  1  0
 29 30  1  0
 29  2  2  0
 28  4  1  0
 27 14  1  0
 20 15  1  0
 27 22  1  0
  1 31  1  0
  1 32  1  0
  1 33  1  0
  6 34  1  0
 10 35  1  0
 11 36  1  0
 11 37  1  0
 11 38  1  0
 16 39  1  0
 17 40  1  0
 18 41  1  0
 19 42  1  0
 23 43  1  0
 24 44  1  0
 25 45  1  0
 26 46  1  0
 30 47  1  0
 30 48  1  0
 30 49  1  0
M  END
$$$$
