
     RDKit          3D

 57 60  0  0  0  0  0  0  0  0999 V2000
   -2.6897    3.2042    1.8250 C   0  0  0  0  0  0  0  0  0  0  0  0
   -2.2368    1.7703    2.0745 C   0  0  0  0  0  0  0  0  0  0  0  0
   -1.6821    1.0312    0.8480 C   0  0  0  0  0  0  0  0  0  0  0  0
   -2.8891    0.8800   -0.5228 S   0  0  0  0  0  0  0  0  0  0  0  0
   -3.3821   -0.7817   -0.2520 C   0  0  0  0  0  0  0  0  0  0  0  0
   -4.0055   -0.9933    0.8681 N   0  0  0  0  0  0  0  0  0  0  0  0
   -4.4095   -2.3099    1.0705 C   0  0  0  0  0  0  0  0  0  0  0  0
   -5.1144   -2.7521    2.2107 C   0  0  0  0  0  0  0  0  0  0  0  0
   -5.3786   -4.1059    2.1305 C   0  0  0  0  0  0  0  0  0  0  0  0
   -4.7621   -4.7995    0.6806 S   0  0  0  0  0  0  0  0  0  0  0  0
   -4.1584   -3.2992    0.1696 C   0  0  0  0  0  0  0  0  0  0  0  0
   -3.4580   -3.0690   -1.0587 C   0  0  0  0  0  0  0  0  0  0  0  0
   -3.1983   -3.9520   -1.8735 O   0  0  0  0  0  0  0  0  0  0  0  0
   -3.0756   -1.7309   -1.2292 N   0  0  0  0  0  0  0  0  0  0  0  0
   -2.3409   -1.4206   -2.4607 C   0  0  0  0  0  0  0  0  0  0  0  0
   -0.8395   -1.3248   -2.2537 C   0  0  0  0  0  0  0  0  0  0  0  0
   -0.1121   -2.3779   -1.6777 C   0  0  0  0  0  0  0  0  0  0  0  0
    1.2726   -2.2787   -1.5033 C   0  0  0  0  0  0  0  0  0  0  0  0
    1.9539   -1.1307   -1.9210 C   0  0  0  0  0  0  0  0  0  0  0  0
    3.4215   -0.9888   -1.7701 C   0  0  0  0  0  0  0  0  0  0  0  0
    4.1142   -0.1193   -2.2630 O   0  0  0  0  0  0  0  0  0  0  0  0
    3.9594   -1.9472   -0.9932 O   0  0  0  0  0  0  0  0  0  0  0  0
    1.2416   -0.0869   -2.5175 C   0  0  0  0  0  0  0  0  0  0  0  0
   -0.1432   -0.1842   -2.6819 C   0  0  0  0  0  0  0  0  0  0  0  0
   -0.3805    1.6845    0.3505 C   0  0  0  0  0  0  0  0  0  0  0  0
   -0.3594    2.5116   -0.5561 O   0  0  0  0  0  0  0  0  0  0  0  0
    0.7309    1.2426    1.0630 N   0  0  0  0  0  0  0  0  0  0  0  0
    2.0808    1.6040    0.8629 C   0  0  0  0  0  0  0  0  0  0  0  0
    3.0338    0.9552    1.6563 C   0  0  0  0  0  0  0  0  0  0  0  0
    4.3966    1.2328    1.5108 C   0  0  0  0  0  0  0  0  0  0  0  0
    4.8371    2.1713    0.5697 C   0  0  0  0  0  0  0  0  0  0  0  0
    6.3084    2.4295    0.4119 C   0  0  0  0  0  0  0  0  0  0  0  0
    3.8786    2.8230   -0.2197 C   0  0  0  0  0  0  0  0  0  0  0  0
    4.3395    3.9919   -1.4080 Cl  0  0  0  0  0  0  0  0  0  0  0  0
    2.5132    2.5450   -0.0709 C   0  0  0  0  0  0  0  0  0  0  0  0
   -3.0234    3.6557    2.7649 H   0  0  0  0  0  0  0  0  0  0  0  0
   -3.5282    3.2509    1.1247 H   0  0  0  0  0  0  0  0  0  0  0  0
   -1.8749    3.8206    1.4328 H   0  0  0  0  0  0  0  0  0  0  0  0
   -1.4659    1.7931    2.8555 H   0  0  0  0  0  0  0  0  0  0  0  0
   -3.0777    1.2050    2.4948 H   0  0  0  0  0  0  0  0  0  0  0  0
   -1.4193    0.0116    1.1581 H   0  0  0  0  0  0  0  0  0  0  0  0
   -5.4177   -2.1252    3.0390 H   0  0  0  0  0  0  0  0  0  0  0  0
   -5.9033   -4.7247    2.8462 H   0  0  0  0  0  0  0  0  0  0  0  0
   -2.5255   -2.1827   -3.2274 H   0  0  0  0  0  0  0  0  0  0  0  0
   -2.7333   -0.4881   -2.8812 H   0  0  0  0  0  0  0  0  0  0  0  0
   -0.6096   -3.2970   -1.3738 H   0  0  0  0  0  0  0  0  0  0  0  0
    1.8127   -3.1117   -1.0581 H   0  0  0  0  0  0  0  0  0  0  0  0
    4.9127   -1.7185   -0.9905 H   0  0  0  0  0  0  0  0  0  0  0  0
    1.7575    0.8137   -2.8484 H   0  0  0  0  0  0  0  0  0  0  0  0
   -0.6712    0.6531   -3.1380 H   0  0  0  0  0  0  0  0  0  0  0  0
    0.5702    0.5465    1.7803 H   0  0  0  0  0  0  0  0  0  0  0  0
    2.7357    0.2143    2.3946 H   0  0  0  0  0  0  0  0  0  0  0  0
    5.1123    0.7046    2.1371 H   0  0  0  0  0  0  0  0  0  0  0  0
    6.5309    3.4948    0.5244 H   0  0  0  0  0  0  0  0  0  0  0  0
    6.6482    2.0857   -0.5701 H   0  0  0  0  0  0  0  0  0  0  0  0
    6.8914    1.8960    1.1703 H   0  0  0  0  0  0  0  0  0  0  0  0
    1.8121    3.0776   -0.7046 H   0  0  0  0  0  0  0  0  0  0  0  0
  1  2  1  0
  2  3  1  0
  3  4  1  0
  4  5  1  0
  5  6  2  0
  6  7  1  0
  7  8  1  0
  8  9  2  0
  9 10  1  0
 10 11  1  0
 11 12  1  0
 12 13  2  0
 12 14  1  0
 14 15  1  0
 15 16  1  0
 16 17  2  0
 17 18  1  0
 18 19  2  0
 19 20  1  0
 20 21  2  0
 20 22  1  0
 19 23  1  0
 23 24  2  0
  3 25  1  0
 25 26  2  0
 25 27  1  0
 27 28  1  0
 28 29  2  0
 29 30  1  0
 30 31  2  0
 31 32  1  0
 31 33  1  0
 33 34  1  0
 33 35  2  0
 14  5  1  0
 24 16  1  0
 35 28  1  0
 11  7  2  0
  1 36  1  0
  1 37  1  0
  1 38  1  0
  2 39  1  0
  2 40  1  0
  3 41  1  0
  8 42  1  0
  9 43  1  0
 15 44  1  0
 15 45  1  0
 17 46  1  0
 18 47  1  0
 22 48  1  0
 23 49  1  0
 24 50  1  0
 27 51  1  0
 29 52  1  0
 30 53  1  0
 32 54  1  0
 32 55  1  0
 32 56  1  0
 35 57  1  0
M  END
$$$$
