
     RDKit          3D

 63 67  0  0  0  0  0  0  0  0999 V2000
    6.3913    3.0079   -3.5517 C   0  0  0  0  0  0  0  0  0  0  0  0
    5.8008    1.6420   -3.8479 C   0  0  0  0  0  0  0  0  0  0  0  0
    5.0110    1.1935   -2.7381 O   0  0  0  0  0  0  0  0  0  0  0  0
    5.6902    0.5354   -1.7535 C   0  0  0  0  0  0  0  0  0  0  0  0
    6.8949    0.3131   -1.7676 O   0  0  0  0  0  0  0  0  0  0  0  0
    4.8133    0.1217   -0.6654 C   0  0  0  0  0  0  0  0  0  0  0  0
    3.4111    0.3279   -0.5165 C   0  0  0  0  0  0  0  0  0  0  0  0
    3.0113   -0.2517    0.6736 C   0  0  0  0  0  0  0  0  0  0  0  0
    1.7113   -0.3385    1.3185 C   0  0  0  0  0  0  0  0  0  0  0  0
    0.5462    0.1204    0.7028 N   0  0  0  0  0  0  0  0  0  0  0  0
    0.1291   -0.5917   -0.5291 C   0  0  0  0  0  0  0  0  0  0  0  0
   -1.3390   -0.2951   -0.9051 C   0  0  0  0  0  0  0  0  0  0  0  0
   -2.3149   -0.6856    0.1381 N   0  0  0  0  0  0  0  0  0  0  0  0
   -3.5884    0.0445    0.0100 C   0  0  0  0  0  0  0  0  0  0  0  0
   -4.3322   -0.2538   -1.3054 C   0  0  0  0  0  0  0  0  0  0  0  0
   -5.6670    0.4642   -1.3747 C   0  0  0  0  0  0  0  0  0  0  0  0
   -5.6718    1.8162   -1.7658 C   0  0  0  0  0  0  0  0  0  0  0  0
   -6.8611    2.5400   -1.8345 C   0  0  0  0  0  0  0  0  0  0  0  0
   -8.0658    1.9263   -1.5136 C   0  0  0  0  0  0  0  0  0  0  0  0
   -8.0810    0.5876   -1.1229 C   0  0  0  0  0  0  0  0  0  0  0  0
   -6.8907   -0.1623   -1.0429 C   0  0  0  0  0  0  0  0  0  0  0  0
   -6.9678   -1.6143   -0.6180 C   0  0  0  0  0  0  0  0  0  0  0  0
   -8.2197   -2.0052   -0.2415 F   0  0  0  0  0  0  0  0  0  0  0  0
   -6.6019   -2.4719   -1.6110 F   0  0  0  0  0  0  0  0  0  0  0  0
   -6.1653   -1.8974    0.4451 F   0  0  0  0  0  0  0  0  0  0  0  0
   -1.7306   -0.5205    1.4932 C   0  0  0  0  0  0  0  0  0  0  0  0
   -0.5905    0.5129    1.5651 C   0  0  0  0  0  0  0  0  0  0  0  0
    1.6409   -0.8658    2.5146 N   0  0  0  0  0  0  0  0  0  0  0  0
    2.7943   -1.3736    3.1445 C   0  0  0  0  0  0  0  0  0  0  0  0
    2.6623   -1.9383    4.4145 C   0  0  0  0  0  0  0  0  0  0  0  0
    3.7725   -2.4653    5.0799 C   0  0  0  0  0  0  0  0  0  0  0  0
    5.0309   -2.4324    4.4775 C   0  0  0  0  0  0  0  0  0  0  0  0
    5.1867   -1.8730    3.2089 C   0  0  0  0  0  0  0  0  0  0  0  0
    4.0666   -1.3504    2.5555 C   0  0  0  0  0  0  0  0  0  0  0  0
    4.1347   -0.7601    1.2833 N   0  0  0  0  0  0  0  0  0  0  0  0
    5.2210   -0.5659    0.4670 C   0  0  0  0  0  0  0  0  0  0  0  0
    7.0694    2.9655   -2.6933 H   0  0  0  0  0  0  0  0  0  0  0  0
    6.9448    3.3869   -4.4154 H   0  0  0  0  0  0  0  0  0  0  0  0
    5.6004    3.7214   -3.2979 H   0  0  0  0  0  0  0  0  0  0  0  0
    6.5789    0.9142   -4.1060 H   0  0  0  0  0  0  0  0  0  0  0  0
    5.1294    1.7119   -4.7102 H   0  0  0  0  0  0  0  0  0  0  0  0
    2.7671    0.8547   -1.2084 H   0  0  0  0  0  0  0  0  0  0  0  0
    0.7664   -0.2892   -1.3656 H   0  0  0  0  0  0  0  0  0  0  0  0
    0.2543   -1.6739   -0.3918 H   0  0  0  0  0  0  0  0  0  0  0  0
   -1.5739   -0.8346   -1.8297 H   0  0  0  0  0  0  0  0  0  0  0  0
   -1.4205    0.7785   -1.1235 H   0  0  0  0  0  0  0  0  0  0  0  0
   -4.2479   -0.2485    0.8374 H   0  0  0  0  0  0  0  0  0  0  0  0
   -3.4210    1.1249    0.1150 H   0  0  0  0  0  0  0  0  0  0  0  0
   -4.4664   -1.3343   -1.4257 H   0  0  0  0  0  0  0  0  0  0  0  0
   -3.7332    0.0622   -2.1692 H   0  0  0  0  0  0  0  0  0  0  0  0
   -4.7392    2.3162   -2.0226 H   0  0  0  0  0  0  0  0  0  0  0  0
   -6.8460    3.5833   -2.1395 H   0  0  0  0  0  0  0  0  0  0  0  0
   -8.9951    2.4883   -1.5678 H   0  0  0  0  0  0  0  0  0  0  0  0
   -9.0374    0.1260   -0.8771 H   0  0  0  0  0  0  0  0  0  0  0  0
   -2.5011   -0.2675    2.2316 H   0  0  0  0  0  0  0  0  0  0  0  0
   -1.3373   -1.4991    1.7976 H   0  0  0  0  0  0  0  0  0  0  0  0
   -0.2823    0.6573    2.6070 H   0  0  0  0  0  0  0  0  0  0  0  0
   -0.9558    1.4911    1.2278 H   0  0  0  0  0  0  0  0  0  0  0  0
    1.6833   -1.9677    4.8855 H   0  0  0  0  0  0  0  0  0  0  0  0
    3.6529   -2.9021    6.0681 H   0  0  0  0  0  0  0  0  0  0  0  0
    5.8918   -2.8435    4.9993 H   0  0  0  0  0  0  0  0  0  0  0  0
    6.1754   -1.8570    2.7624 H   0  0  0  0  0  0  0  0  0  0  0  0
    6.2102   -0.9057    0.7413 H   0  0  0  0  0  0  0  0  0  0  0  0
  1  2  1  0
  2  3  1  0
  3  4  1  0
  4  5  2  0
  4  6  1  0
  6  7  1  0
  7  8  2  0
  8  9  1  0
  9 10  1  0
 10 11  1  0
 11 12  1  0
 12 13  1  0
 13 14  1  0
 14 15  1  0
 15 16  1  0
 16 17  2  0
 17 18  1  0
 18 19  2  0
 19 20  1  0
 20 21  2  0
 21 22  1  0
 22 23  1  0
 22 24  1  0
 22 25  1  0
 13 26  1  0
 26 27  1  0
  9 28  2  0
 28 29  1  0
 29 30  2  0
 30 31  1  0
 31 32  2  0
 32 33  1  0
 33 34  2  0
 34 35  1  0
 35 36  1  0
 36  6  2  0
 35  8  1  0
 27 10  1  0
 34 29  1  0
 21 16  1  0
  1 37  1  0
  1 38  1  0
  1 39  1  0
  2 40  1  0
  2 41  1  0
  7 42  1  0
 11 43  1  0
 11 44  1  0
 12 45  1  0
 12 46  1  0
 14 47  1  0
 14 48  1  0
 15 49  1  0
 15 50  1  0
 17 51  1  0
 18 52  1  0
 19 53  1  0
 20 54  1  0
 26 55  1  0
 26 56  1  0
 27 57  1  0
 27 58  1  0
 30 59  1  0
 31 60  1  0
 32 61  1  0
 33 62  1  0
 36 63  1  0
M  END
$$$$
