
     RDKit          3D

 45 47  0  0  0  0  0  0  0  0999 V2000
    3.8897    1.9842   -1.7922 C   0  0  0  0  0  0  0  0  0  0  0  0
    5.0731    2.4339   -0.9505 C   0  0  0  0  0  0  0  0  0  0  0  0
    5.9979    1.2984   -0.4976 C   0  0  0  0  0  0  0  0  0  0  0  0
    5.4664    0.4525    0.6644 C   0  0  0  0  0  0  0  0  0  0  0  0
    4.4444   -0.5567    0.2560 C   0  0  0  0  0  0  0  0  0  0  0  0
    4.5653   -1.3922   -0.7559 N   0  0  0  0  0  0  0  0  0  0  0  0
    3.4599   -2.2079   -0.8866 N   0  0  0  0  0  0  0  0  0  0  0  0
    2.5555   -1.9705    0.0371 C   0  0  0  0  0  0  0  0  0  0  0  0
    1.3694   -2.6603    0.0814 N   0  0  0  0  0  0  0  0  0  0  0  0
    0.3645   -2.5165    1.0174 C   0  0  0  0  0  0  0  0  0  0  0  0
    0.3820   -1.7780    1.9962 O   0  0  0  0  0  0  0  0  0  0  0  0
   -0.8380   -3.4267    0.7083 C   0  0  0  0  0  0  0  0  0  0  0  0
   -2.0451   -3.1103    1.3819 O   0  0  0  0  0  0  0  0  0  0  0  0
   -2.7261   -1.9918    0.9885 C   0  0  0  0  0  0  0  0  0  0  0  0
   -3.7962   -1.6421    1.8169 C   0  0  0  0  0  0  0  0  0  0  0  0
   -4.5854   -0.5165    1.5439 C   0  0  0  0  0  0  0  0  0  0  0  0
   -4.3212    0.2822    0.4274 C   0  0  0  0  0  0  0  0  0  0  0  0
   -5.0980    1.4792    0.0790 C   0  0  0  0  0  0  0  0  0  0  0  0
   -6.2477    1.9109    0.9414 C   0  0  0  0  0  0  0  0  0  0  0  0
   -4.7478    2.1680   -1.0179 C   0  0  0  0  0  0  0  0  0  0  0  0
   -3.6282    1.7876   -1.8928 C   0  0  0  0  0  0  0  0  0  0  0  0
   -3.3524    2.4552   -2.8830 O   0  0  0  0  0  0  0  0  0  0  0  0
   -2.9178    0.6528   -1.5428 O   0  0  0  0  0  0  0  0  0  0  0  0
   -3.2533   -0.0898   -0.3918 C   0  0  0  0  0  0  0  0  0  0  0  0
   -2.4558   -1.2094   -0.1305 C   0  0  0  0  0  0  0  0  0  0  0  0
    2.9808   -0.7431    1.1363 S   0  0  0  0  0  0  0  0  0  0  0  0
    3.3703    2.8582   -2.1987 H   0  0  0  0  0  0  0  0  0  0  0  0
    3.1629    1.4227   -1.2013 H   0  0  0  0  0  0  0  0  0  0  0  0
    4.2129    1.3636   -2.6340 H   0  0  0  0  0  0  0  0  0  0  0  0
    5.6665    3.1311   -1.5554 H   0  0  0  0  0  0  0  0  0  0  0  0
    4.7130    3.0025   -0.0859 H   0  0  0  0  0  0  0  0  0  0  0  0
    6.2696    0.6673   -1.3522 H   0  0  0  0  0  0  0  0  0  0  0  0
    6.9315    1.7654   -0.1541 H   0  0  0  0  0  0  0  0  0  0  0  0
    5.0880    1.1100    1.4567 H   0  0  0  0  0  0  0  0  0  0  0  0
    6.3101   -0.1005    1.0987 H   0  0  0  0  0  0  0  0  0  0  0  0
    1.2838   -3.3421   -0.6605 H   0  0  0  0  0  0  0  0  0  0  0  0
   -1.0044   -3.5099   -0.3729 H   0  0  0  0  0  0  0  0  0  0  0  0
   -0.5503   -4.4295    1.0477 H   0  0  0  0  0  0  0  0  0  0  0  0
   -4.0131   -2.2469    2.6961 H   0  0  0  0  0  0  0  0  0  0  0  0
   -5.3989   -0.2853    2.2265 H   0  0  0  0  0  0  0  0  0  0  0  0
   -7.0168    1.1323    0.9840 H   0  0  0  0  0  0  0  0  0  0  0  0
   -5.9098    2.1305    1.9597 H   0  0  0  0  0  0  0  0  0  0  0  0
   -6.7264    2.8180    0.5564 H   0  0  0  0  0  0  0  0  0  0  0  0
   -5.2781    3.0616   -1.3287 H   0  0  0  0  0  0  0  0  0  0  0  0
   -1.6464   -1.4277   -0.8165 H   0  0  0  0  0  0  0  0  0  0  0  0
  1  2  1  0
  2  3  1  0
  3  4  1  0
  4  5  1  0
  5  6  2  0
  6  7  1  0
  7  8  2  0
  8  9  1  0
  9 10  1  0
 10 11  2  0
 10 12  1  0
 12 13  1  0
 13 14  1  0
 14 15  2  0
 15 16  1  0
 16 17  2  0
 17 18  1  0
 18 19  1  0
 18 20  2  0
 20 21  1  0
 21 22  2  0
 21 23  1  0
 23 24  1  0
 24 25  2  0
  8 26  1  0
 26  5  1  0
 25 14  1  0
 24 17  1  0
  1 27  1  0
  1 28  1  0
  1 29  1  0
  2 30  1  0
  2 31  1  0
  3 32  1  0
  3 33  1  0
  4 34  1  0
  4 35  1  0
  9 36  1  0
 12 37  1  0
 12 38  1  0
 15 39  1  0
 16 40  1  0
 19 41  1  0
 19 42  1  0
 19 43  1  0
 20 44  1  0
 25 45  1  0
M  END
$$$$
