
     RDKit          3D

 62 67  0  0  0  0  0  0  0  0999 V2000
   -3.0794   -3.8475    1.2797 C   0  0  0  0  0  0  0  0  0  0  0  0
   -3.2530   -2.4550    1.4946 O   0  0  0  0  0  0  0  0  0  0  0  0
   -2.9060   -1.9527    2.7249 C   0  0  0  0  0  0  0  0  0  0  0  0
   -2.4531   -2.7326    3.7959 C   0  0  0  0  0  0  0  0  0  0  0  0
   -2.1340   -2.1405    5.0218 C   0  0  0  0  0  0  0  0  0  0  0  0
   -2.2647   -0.7654    5.1926 C   0  0  0  0  0  0  0  0  0  0  0  0
   -2.7111    0.0240    4.1343 C   0  0  0  0  0  0  0  0  0  0  0  0
   -3.0351   -0.5576    2.8959 C   0  0  0  0  0  0  0  0  0  0  0  0
   -3.4768    0.3145    1.7982 C   0  0  0  0  0  0  0  0  0  0  0  0
   -5.0865    0.8878    1.8108 S   0  0  0  0  0  0  0  0  0  0  0  0
   -4.8856    1.7548    0.3374 C   0  0  0  0  0  0  0  0  0  0  0  0
   -5.8687    2.5298   -0.3181 C   0  0  0  0  0  0  0  0  0  0  0  0
   -5.4874    3.1457   -1.4926 C   0  0  0  0  0  0  0  0  0  0  0  0
   -4.2259    3.0204   -2.0079 C   0  0  0  0  0  0  0  0  0  0  0  0
   -3.2492    2.2686   -1.3840 C   0  0  0  0  0  0  0  0  0  0  0  0
   -3.5834    1.6092   -0.1685 C   0  0  0  0  0  0  0  0  0  0  0  0
   -2.7776    0.7755    0.6958 C   0  0  0  0  0  0  0  0  0  0  0  0
   -1.3801    0.4241    0.4802 C   0  0  0  0  0  0  0  0  0  0  0  0
   -1.0462   -0.5977   -0.4122 C   0  0  0  0  0  0  0  0  0  0  0  0
    0.2940   -0.9322   -0.6174 C   0  0  0  0  0  0  0  0  0  0  0  0
    1.3110   -0.2509    0.0579 C   0  0  0  0  0  0  0  0  0  0  0  0
    2.5750   -0.6836   -0.2332 O   0  0  0  0  0  0  0  0  0  0  0  0
    3.6619    0.0049    0.3910 C   0  0  0  0  0  0  0  0  0  0  0  0
    4.9955   -0.6129   -0.0759 C   0  0  0  0  0  0  0  0  0  0  0  0
    5.5919    0.0309   -1.2650 N   0  0  0  0  0  0  0  0  0  0  0  0
    6.9773   -0.4584   -1.4659 C   0  0  0  0  0  0  0  0  0  0  0  0
    7.4371   -0.3408   -2.9277 C   0  0  0  0  0  0  0  0  0  0  0  0
    6.6533   -1.1487   -3.8175 O   0  0  0  0  0  0  0  0  0  0  0  0
    5.2954   -1.3116   -3.3804 C   0  0  0  0  0  0  0  0  0  0  0  0
    4.8001   -0.1510   -2.5013 C   0  0  0  0  0  0  0  0  0  0  0  0
    0.9763    0.7747    0.9445 C   0  0  0  0  0  0  0  0  0  0  0  0
   -0.3658    1.1126    1.1543 C   0  0  0  0  0  0  0  0  0  0  0  0
   -4.0668    3.7098   -3.1700 O   0  0  0  0  0  0  0  0  0  0  0  0
   -5.3823    4.2785   -3.3308 C   0  0  0  0  0  0  0  0  0  0  0  0
   -6.2886    3.9322   -2.2637 O   0  0  0  0  0  0  0  0  0  0  0  0
   -3.7181   -4.4311    1.9486 H   0  0  0  0  0  0  0  0  0  0  0  0
   -2.0285   -4.1343    1.3798 H   0  0  0  0  0  0  0  0  0  0  0  0
   -3.3883   -4.0698    0.2527 H   0  0  0  0  0  0  0  0  0  0  0  0
   -2.3389   -3.8088    3.7115 H   0  0  0  0  0  0  0  0  0  0  0  0
   -1.7848   -2.7578    5.8460 H   0  0  0  0  0  0  0  0  0  0  0  0
   -2.0185   -0.3090    6.1475 H   0  0  0  0  0  0  0  0  0  0  0  0
   -2.8046    1.0994    4.2741 H   0  0  0  0  0  0  0  0  0  0  0  0
   -6.8703    2.6358    0.0823 H   0  0  0  0  0  0  0  0  0  0  0  0
   -2.2548    2.1875   -1.8111 H   0  0  0  0  0  0  0  0  0  0  0  0
   -1.8253   -1.1444   -0.9392 H   0  0  0  0  0  0  0  0  0  0  0  0
    0.5470   -1.7327   -1.3085 H   0  0  0  0  0  0  0  0  0  0  0  0
    3.6374    1.0754    0.1549 H   0  0  0  0  0  0  0  0  0  0  0  0
    3.5861   -0.1291    1.4769 H   0  0  0  0  0  0  0  0  0  0  0  0
    4.8752   -1.6906   -0.2419 H   0  0  0  0  0  0  0  0  0  0  0  0
    5.7030   -0.4804    0.7531 H   0  0  0  0  0  0  0  0  0  0  0  0
    7.6522    0.1183   -0.8232 H   0  0  0  0  0  0  0  0  0  0  0  0
    7.0557   -1.5142   -1.1736 H   0  0  0  0  0  0  0  0  0  0  0  0
    7.3915    0.6987   -3.2693 H   0  0  0  0  0  0  0  0  0  0  0  0
    8.4776   -0.6662   -3.0208 H   0  0  0  0  0  0  0  0  0  0  0  0
    4.6730   -1.3946   -4.2774 H   0  0  0  0  0  0  0  0  0  0  0  0
    5.2200   -2.2652   -2.8445 H   0  0  0  0  0  0  0  0  0  0  0  0
    4.8997    0.7817   -3.0759 H   0  0  0  0  0  0  0  0  0  0  0  0
    3.7295   -0.2652   -2.3067 H   0  0  0  0  0  0  0  0  0  0  0  0
    1.7314    1.3300    1.4908 H   0  0  0  0  0  0  0  0  0  0  0  0
   -0.6145    1.9125    1.8485 H   0  0  0  0  0  0  0  0  0  0  0  0
   -5.8037    3.9254   -4.2789 H   0  0  0  0  0  0  0  0  0  0  0  0
   -5.2906    5.3698   -3.3729 H   0  0  0  0  0  0  0  0  0  0  0  0
  1  2  1  0
  2  3  1  0
  3  4  2  0
  4  5  1  0
  5  6  2  0
  6  7  1  0
  7  8  2  0
  8  9  1  0
  9 10  1  0
 10 11  1  0
 11 12  2  0
 12 13  1  0
 13 14  2  0
 14 15  1  0
 15 16  2  0
 16 17  1  0
 17 18  1  0
 18 19  2  0
 19 20  1  0
 20 21  2  0
 21 22  1  0
 22 23  1  0
 23 24  1  0
 24 25  1  0
 25 26  1  0
 26 27  1  0
 27 28  1  0
 28 29  1  0
 29 30  1  0
 21 31  1  0
 31 32  2  0
 14 33  1  0
 33 34  1  0
 34 35  1  0
  8  3  1  0
 17  9  2  0
 32 18  1  0
 16 11  1  0
 30 25  1  0
 35 13  1  0
  1 36  1  0
  1 37  1  0
  1 38  1  0
  4 39  1  0
  5 40  1  0
  6 41  1  0
  7 42  1  0
 12 43  1  0
 15 44  1  0
 19 45  1  0
 20 46  1  0
 23 47  1  0
 23 48  1  0
 24 49  1  0
 24 50  1  0
 26 51  1  0
 26 52  1  0
 27 53  1  0
 27 54  1  0
 29 55  1  0
 29 56  1  0
 30 57  1  0
 30 58  1  0
 31 59  1  0
 32 60  1  0
 34 61  1  0
 34 62  1  0
M  END
$$$$
