
     RDKit          3D

 49 52  0  0  0  0  0  0  0  0999 V2000
   -0.3043    3.2056   -1.4656 O   0  0  0  0  0  0  0  0  0  0  0  0
   -0.7811    3.2712   -0.3500 C   0  0  0  0  0  0  0  0  0  0  0  0
   -0.2979    4.1504    0.5506 O   0  0  0  0  0  0  0  0  0  0  0  0
   -1.8740    2.4446    0.2272 C   0  0  0  0  0  0  0  0  0  0  0  0
   -2.7477    3.0834    1.1327 C   0  0  0  0  0  0  0  0  0  0  0  0
   -3.8851    2.4367    1.6063 C   0  0  0  0  0  0  0  0  0  0  0  0
   -4.1816    1.1606    1.1484 C   0  0  0  0  0  0  0  0  0  0  0  0
   -3.3192    0.5197    0.2459 C   0  0  0  0  0  0  0  0  0  0  0  0
   -3.7089   -0.8123   -0.2716 C   0  0  0  0  0  0  0  0  0  0  0  0
   -4.6935   -1.3919    0.1764 O   0  0  0  0  0  0  0  0  0  0  0  0
   -2.9125   -1.4059   -1.3621 C   0  0  0  0  0  0  0  0  0  0  0  0
   -3.3733   -2.5598   -2.0098 C   0  0  0  0  0  0  0  0  0  0  0  0
   -2.6315   -3.1112   -3.0509 C   0  0  0  0  0  0  0  0  0  0  0  0
   -1.4403   -2.5066   -3.4439 C   0  0  0  0  0  0  0  0  0  0  0  0
   -0.9820   -1.3588   -2.7876 C   0  0  0  0  0  0  0  0  0  0  0  0
   -1.7001   -0.7985   -1.7191 C   0  0  0  0  0  0  0  0  0  0  0  0
   -1.2479    0.3674   -1.0395 N   0  0  0  0  0  0  0  0  0  0  0  0
    0.1580    0.2348   -0.5309 C   0  0  0  0  0  0  0  0  0  0  0  0
    0.3026   -0.8056    0.6059 C   0  0  0  0  0  0  0  0  0  0  0  0
    0.5853   -2.1083    0.0676 O   0  0  0  0  0  0  0  0  0  0  0  0
    1.4215   -0.4572    1.6169 C   0  0  0  0  0  0  0  0  0  0  0  0
    2.7773   -0.7246    1.0974 N   0  0  0  0  0  0  0  0  0  0  0  0
    3.7402   -0.8869    2.1962 C   0  0  0  0  0  0  0  0  0  0  0  0
    5.0800   -0.8107    1.4870 C   0  0  0  0  0  0  0  0  0  0  0  0
    4.8345    0.1028    0.2945 C   0  0  0  0  0  0  0  0  0  0  0  0
    3.3340    0.3692    0.2932 C   0  0  0  0  0  0  0  0  0  0  0  0
   -2.1160    1.1149   -0.1921 C   0  0  0  0  0  0  0  0  0  0  0  0
    0.3895    4.6401    0.0508 H   0  0  0  0  0  0  0  0  0  0  0  0
   -2.5600    4.1076    1.4513 H   0  0  0  0  0  0  0  0  0  0  0  0
   -4.5567    2.9394    2.2981 H   0  0  0  0  0  0  0  0  0  0  0  0
   -5.0928    0.6656    1.4805 H   0  0  0  0  0  0  0  0  0  0  0  0
   -4.3085   -3.0232   -1.7045 H   0  0  0  0  0  0  0  0  0  0  0  0
   -2.9845   -4.0055   -3.5574 H   0  0  0  0  0  0  0  0  0  0  0  0
   -0.8633   -2.9260   -4.2643 H   0  0  0  0  0  0  0  0  0  0  0  0
   -0.0623   -0.8986   -3.1371 H   0  0  0  0  0  0  0  0  0  0  0  0
    0.5137    1.1972   -0.1589 H   0  0  0  0  0  0  0  0  0  0  0  0
    0.8255   -0.0161   -1.3618 H   0  0  0  0  0  0  0  0  0  0  0  0
   -0.6358   -0.8908    1.1647 H   0  0  0  0  0  0  0  0  0  0  0  0
    1.5633   -2.1700    0.0527 H   0  0  0  0  0  0  0  0  0  0  0  0
    1.3126    0.5658    1.9975 H   0  0  0  0  0  0  0  0  0  0  0  0
    1.2621   -1.1268    2.4737 H   0  0  0  0  0  0  0  0  0  0  0  0
    3.6561   -0.0741    2.9292 H   0  0  0  0  0  0  0  0  0  0  0  0
    3.6158   -1.8428    2.7146 H   0  0  0  0  0  0  0  0  0  0  0  0
    5.8685   -0.4274    2.1421 H   0  0  0  0  0  0  0  0  0  0  0  0
    5.3870   -1.8032    1.1359 H   0  0  0  0  0  0  0  0  0  0  0  0
    5.1488   -0.3951   -0.6298 H   0  0  0  0  0  0  0  0  0  0  0  0
    5.3994    1.0368    0.3818 H   0  0  0  0  0  0  0  0  0  0  0  0
    2.9495    0.3757   -0.7294 H   0  0  0  0  0  0  0  0  0  0  0  0
    3.1357    1.3483    0.7473 H   0  0  0  0  0  0  0  0  0  0  0  0
  1  2  2  0
  2  3  1  0
  2  4  1  0
  4  5  2  0
  5  6  1  0
  6  7  2  0
  7  8  1  0
  8  9  1  0
  9 10  2  0
  9 11  1  0
 11 12  2  0
 12 13  1  0
 13 14  2  0
 14 15  1  0
 15 16  2  0
 16 17  1  0
 17 18  1  0
 18 19  1  0
 19 20  1  0
 19 21  1  0
 21 22  1  0
 22 23  1  0
 23 24  1  0
 24 25  1  0
 25 26  1  0
 17 27  1  0
 27  4  1  0
 27  8  2  0
 16 11  1  0
 26 22  1  0
  3 28  1  0
  5 29  1  0
  6 30  1  0
  7 31  1  0
 12 32  1  0
 13 33  1  0
 14 34  1  0
 15 35  1  0
 18 36  1  0
 18 37  1  0
 19 38  1  0
 20 39  1  0
 21 40  1  0
 21 41  1  0
 23 42  1  0
 23 43  1  0
 24 44  1  0
 24 45  1  0
 25 46  1  0
 25 47  1  0
 26 48  1  0
 26 49  1  0
M  END
$$$$
