
     RDKit          3D

 42 44  0  0  0  0  0  0  0  0999 V2000
   -3.7289   -0.4325    3.6217 C   0  0  0  0  0  0  0  0  0  0  0  0
   -2.7367   -1.1399    2.8884 O   0  0  0  0  0  0  0  0  0  0  0  0
   -2.5728   -0.7941    1.5753 C   0  0  0  0  0  0  0  0  0  0  0  0
   -1.5983   -1.5337    0.8970 C   0  0  0  0  0  0  0  0  0  0  0  0
   -1.3245   -1.2881   -0.4492 C   0  0  0  0  0  0  0  0  0  0  0  0
   -2.0217   -0.2785   -1.1158 C   0  0  0  0  0  0  0  0  0  0  0  0
   -1.6890    0.0400   -2.8343 S   0  0  0  0  0  6  0  0  0  0  0  0
   -1.0676   -1.1383   -3.3981 O   0  0  0  0  0  0  0  0  0  0  0  0
   -2.8938    0.5981   -3.4136 O   0  0  0  0  0  0  0  0  0  0  0  0
   -0.5709    1.3038   -2.7912 N   0  0  0  0  0  0  0  0  0  0  0  0
    0.5912    1.2102   -1.9696 C   0  0  0  0  0  0  0  0  0  0  0  0
    1.5038    0.1673   -2.1690 C   0  0  0  0  0  0  0  0  0  0  0  0
    2.6224    0.0176   -1.3388 C   0  0  0  0  0  0  0  0  0  0  0  0
    3.7394   -1.3318   -1.6855 S   0  0  0  0  0  0  0  0  0  0  0  0
    3.5877   -2.2891   -0.2416 C   0  0  0  0  0  0  0  0  0  0  0  0
    3.9936   -1.8254    0.9843 N   0  0  0  0  0  0  0  0  0  0  0  0
    3.7202   -2.8331    1.7808 C   0  0  0  0  0  0  0  0  0  0  0  0
    3.1817   -3.8514    1.0582 N   0  0  0  0  0  0  0  0  0  0  0  0
    3.0872   -3.5263   -0.2402 N   0  0  0  0  0  0  0  0  0  0  0  0
    2.8261    0.9554   -0.3213 C   0  0  0  0  0  0  0  0  0  0  0  0
    3.8801    0.9033    0.5493 O   0  0  0  0  0  0  0  0  0  0  0  0
    1.9434    2.0197   -0.1411 C   0  0  0  0  0  0  0  0  0  0  0  0
    0.8117    2.1582   -0.9570 C   0  0  0  0  0  0  0  0  0  0  0  0
   -0.1200    3.3128   -0.7197 C   0  0  0  0  0  0  0  0  0  0  0  0
   -3.0122    0.4539   -0.4561 C   0  0  0  0  0  0  0  0  0  0  0  0
   -3.2819    0.1976    0.8926 C   0  0  0  0  0  0  0  0  0  0  0  0
   -3.4903    0.6346    3.6801 H   0  0  0  0  0  0  0  0  0  0  0  0
   -3.7359   -0.8281    4.6419 H   0  0  0  0  0  0  0  0  0  0  0  0
   -4.7245   -0.5932    3.1953 H   0  0  0  0  0  0  0  0  0  0  0  0
   -1.0508   -2.3124    1.4227 H   0  0  0  0  0  0  0  0  0  0  0  0
   -0.5699   -1.8814   -0.9614 H   0  0  0  0  0  0  0  0  0  0  0  0
   -1.0162    2.2117   -2.9044 H   0  0  0  0  0  0  0  0  0  0  0  0
    1.3459   -0.5371   -2.9839 H   0  0  0  0  0  0  0  0  0  0  0  0
    3.8849   -2.8830    2.8480 H   0  0  0  0  0  0  0  0  0  0  0  0
    2.8674   -4.7646    1.3683 H   0  0  0  0  0  0  0  0  0  0  0  0
    4.1841   -0.0274    0.6034 H   0  0  0  0  0  0  0  0  0  0  0  0
    2.1441    2.7344    0.6544 H   0  0  0  0  0  0  0  0  0  0  0  0
   -1.1341    2.9536   -0.5210 H   0  0  0  0  0  0  0  0  0  0  0  0
    0.1893    3.9101    0.1447 H   0  0  0  0  0  0  0  0  0  0  0  0
   -0.1316    3.9744   -1.5918 H   0  0  0  0  0  0  0  0  0  0  0  0
   -3.5786    1.2203   -0.9806 H   0  0  0  0  0  0  0  0  0  0  0  0
   -4.0540    0.7852    1.3788 H   0  0  0  0  0  0  0  0  0  0  0  0
  1  2  1  0
  2  3  1  0
  3  4  2  0
  4  5  1  0
  5  6  2  0
  6  7  1  0
  7  8  2  0
  7  9  2  0
  7 10  1  0
 10 11  1  0
 11 12  2  0
 12 13  1  0
 13 14  1  0
 14 15  1  0
 15 16  1  0
 16 17  2  0
 17 18  1  0
 18 19  1  0
 13 20  2  0
 20 21  1  0
 20 22  1  0
 22 23  2  0
 23 24  1  0
  6 25  1  0
 25 26  2  0
 26  3  1  0
 23 11  1  0
 19 15  2  0
  1 27  1  0
  1 28  1  0
  1 29  1  0
  4 30  1  0
  5 31  1  0
 10 32  1  0
 12 33  1  0
 17 34  1  0
 18 35  1  0
 21 36  1  0
 22 37  1  0
 24 38  1  0
 24 39  1  0
 24 40  1  0
 25 41  1  0
 26 42  1  0
M  END
$$$$
