
     RDKit          3D

 60 63  0  0  0  0  0  0  0  0999 V2000
    8.9865   -0.1875   -2.3287 C   0  0  0  0  0  0  0  0  0  0  0  0
    7.7754    0.3496   -2.8449 O   0  0  0  0  0  0  0  0  0  0  0  0
    6.7850    0.6173   -1.9401 C   0  0  0  0  0  0  0  0  0  0  0  0
    6.8518    0.4064   -0.5632 C   0  0  0  0  0  0  0  0  0  0  0  0
    5.7593    0.7256    0.2508 C   0  0  0  0  0  0  0  0  0  0  0  0
    4.5895    1.2675   -0.2984 C   0  0  0  0  0  0  0  0  0  0  0  0
    3.4091    1.5844    0.5824 C   0  0  0  0  0  0  0  0  0  0  0  0
    2.5298    0.4458    0.6934 N   0  0  0  0  0  0  0  0  0  0  0  0
    2.6373   -0.4682    1.7244 C   0  0  0  0  0  0  0  0  0  0  0  0
    3.4362   -0.3258    2.6488 O   0  0  0  0  0  0  0  0  0  0  0  0
    1.7407   -1.7163    1.5672 C   0  0  0  0  0  0  0  0  0  0  0  0
    2.0221   -2.7434    2.6640 C   0  0  0  0  0  0  0  0  0  0  0  0
    0.3230   -1.3173    1.4997 N   0  0  0  0  0  0  0  0  0  0  0  0
   -0.3927   -1.3070    2.7064 N   0  0  0  0  0  0  0  0  0  0  0  0
   -1.6446   -0.9467    2.7534 C   0  0  0  0  0  0  0  0  0  0  0  0
   -2.3445   -0.9720    4.0823 C   0  0  0  0  0  0  0  0  0  0  0  0
   -2.3074   -0.5352    1.5409 C   0  0  0  0  0  0  0  0  0  0  0  0
   -3.5712   -0.0516    1.2452 C   0  0  0  0  0  0  0  0  0  0  0  0
   -4.6785    0.3394    2.1558 C   0  0  0  0  0  0  0  0  0  0  0  0
   -3.6035    0.0751   -0.1497 N   0  0  0  0  0  0  0  0  0  0  0  0
   -4.6955    0.3284   -1.0367 C   0  0  0  0  0  0  0  0  0  0  0  0
   -4.4195    0.7498   -2.3482 C   0  0  0  0  0  0  0  0  0  0  0  0
   -5.4568    1.0059   -3.2497 C   0  0  0  0  0  0  0  0  0  0  0  0
   -6.7889    0.8405   -2.8622 C   0  0  0  0  0  0  0  0  0  0  0  0
   -7.8997    1.0806   -3.8410 C   0  0  0  0  0  0  0  0  0  0  0  0
   -7.0646    0.3804   -1.5708 C   0  0  0  0  0  0  0  0  0  0  0  0
   -6.0282    0.1246   -0.6640 C   0  0  0  0  0  0  0  0  0  0  0  0
   -2.3586   -0.0840   -0.6788 N   0  0  0  0  0  0  0  0  0  0  0  0
   -1.6060   -0.5209    0.3322 C   0  0  0  0  0  0  0  0  0  0  0  0
   -0.2038   -0.9027    0.2590 C   0  0  0  0  0  0  0  0  0  0  0  0
    0.4720   -0.8409   -0.7683 O   0  0  0  0  0  0  0  0  0  0  0  0
    4.5233    1.4644   -1.6826 C   0  0  0  0  0  0  0  0  0  0  0  0
    5.6157    1.1447   -2.4929 C   0  0  0  0  0  0  0  0  0  0  0  0
    9.6686   -0.3431   -3.1702 H   0  0  0  0  0  0  0  0  0  0  0  0
    9.4659    0.5129   -1.6368 H   0  0  0  0  0  0  0  0  0  0  0  0
    8.8171   -1.1597   -1.8541 H   0  0  0  0  0  0  0  0  0  0  0  0
    7.7339   -0.0089   -0.0881 H   0  0  0  0  0  0  0  0  0  0  0  0
    5.8212    0.5416    1.3228 H   0  0  0  0  0  0  0  0  0  0  0  0
    3.7444    1.9091    1.5739 H   0  0  0  0  0  0  0  0  0  0  0  0
    2.8273    2.4073    0.1525 H   0  0  0  0  0  0  0  0  0  0  0  0
    2.0384    0.1567   -0.1511 H   0  0  0  0  0  0  0  0  0  0  0  0
    2.0120   -2.1777    0.6087 H   0  0  0  0  0  0  0  0  0  0  0  0
    1.8507   -2.3301    3.6642 H   0  0  0  0  0  0  0  0  0  0  0  0
    3.0655   -3.0743    2.6235 H   0  0  0  0  0  0  0  0  0  0  0  0
    1.3818   -3.6241    2.5467 H   0  0  0  0  0  0  0  0  0  0  0  0
   -1.7399   -1.5087    4.8196 H   0  0  0  0  0  0  0  0  0  0  0  0
   -2.4925    0.0522    4.4355 H   0  0  0  0  0  0  0  0  0  0  0  0
   -3.3107   -1.4755    3.9930 H   0  0  0  0  0  0  0  0  0  0  0  0
   -5.2695    1.1663    1.7515 H   0  0  0  0  0  0  0  0  0  0  0  0
   -5.3320   -0.5136    2.3612 H   0  0  0  0  0  0  0  0  0  0  0  0
   -4.2888    0.7011    3.1116 H   0  0  0  0  0  0  0  0  0  0  0  0
   -3.3940    0.8944   -2.6858 H   0  0  0  0  0  0  0  0  0  0  0  0
   -5.2124    1.3337   -4.2580 H   0  0  0  0  0  0  0  0  0  0  0  0
   -7.6417    1.8902   -4.5318 H   0  0  0  0  0  0  0  0  0  0  0  0
   -8.0944    0.1710   -4.4172 H   0  0  0  0  0  0  0  0  0  0  0  0
   -8.8192    1.3756   -3.3247 H   0  0  0  0  0  0  0  0  0  0  0  0
   -8.0936    0.2042   -1.2633 H   0  0  0  0  0  0  0  0  0  0  0  0
   -6.3063   -0.2799    0.3015 H   0  0  0  0  0  0  0  0  0  0  0  0
    3.6218    1.8643   -2.1415 H   0  0  0  0  0  0  0  0  0  0  0  0
    5.5536    1.3043   -3.5666 H   0  0  0  0  0  0  0  0  0  0  0  0
  1  2  1  0
  2  3  1  0
  3  4  2  0
  4  5  1  0
  5  6  2  0
  6  7  1  0
  7  8  1  0
  8  9  1  0
  9 10  2  0
  9 11  1  0
 11 12  1  0
 11 13  1  0
 13 14  1  0
 14 15  2  0
 15 16  1  0
 15 17  1  0
 17 18  2  0
 18 19  1  0
 18 20  1  0
 20 21  1  0
 21 22  2  0
 22 23  1  0
 23 24  2  0
 24 25  1  0
 24 26  1  0
 26 27  2  0
 20 28  1  0
 28 29  2  0
 29 30  1  0
 30 31  2  0
  6 32  1  0
 32 33  2  0
 33  3  1  0
 30 13  1  0
 29 17  1  0
 27 21  1  0
  1 34  1  0
  1 35  1  0
  1 36  1  0
  4 37  1  0
  5 38  1  0
  7 39  1  0
  7 40  1  0
  8 41  1  0
 11 42  1  0
 12 43  1  0
 12 44  1  0
 12 45  1  0
 16 46  1  0
 16 47  1  0
 16 48  1  0
 19 49  1  0
 19 50  1  0
 19 51  1  0
 22 52  1  0
 23 53  1  0
 25 54  1  0
 25 55  1  0
 25 56  1  0
 26 57  1  0
 27 58  1  0
 32 59  1  0
 33 60  1  0
M  END
$$$$
