
     RDKit          3D

 37 38  0  0  0  0  0  0  0  0999 V2000
    5.9423    0.7435    1.1955 C   0  0  0  0  0  0  0  0  0  0  0  0
    4.5480    1.1401    1.6449 C   0  0  0  0  0  0  0  0  0  0  0  0
    3.5205    0.3146    1.0408 N   0  0  0  0  0  0  0  0  0  0  0  0
    2.7132    0.6479   -0.0061 C   0  0  0  0  0  0  0  0  0  0  0  0
    1.9055   -0.4477   -0.2399 C   0  0  0  0  0  0  0  0  0  0  0  0
    0.8532   -0.6013   -1.2741 C   0  0  0  0  0  0  0  0  0  0  0  0
   -0.4140   -0.2558   -0.6743 N   0  0  0  0  0  0  0  0  0  0  0  0
   -1.5869   -0.4873   -1.3539 C   0  0  0  0  0  0  0  0  0  0  0  0
   -1.6405   -1.0454   -2.4430 O   0  0  0  0  0  0  0  0  0  0  0  0
   -2.8314    0.0139   -0.7112 C   0  0  0  0  0  0  0  0  0  0  0  0
   -2.9544    0.1083    0.6829 C   0  0  0  0  0  0  0  0  0  0  0  0
   -4.1420    0.5718    1.2552 C   0  0  0  0  0  0  0  0  0  0  0  0
   -5.2150    0.9373    0.4409 C   0  0  0  0  0  0  0  0  0  0  0  0
   -5.0937    0.8309   -0.9514 C   0  0  0  0  0  0  0  0  0  0  0  0
   -6.2215    1.2161   -1.8076 N   0  0  0  0  0  4  0  0  0  0  0  0
   -6.0156    1.3081   -3.0259 O   0  0  0  0  0  0  0  0  0  0  0  0
   -7.3105    1.4349   -1.2584 O   0  0  0  0  0  1  0  0  0  0  0  0
   -3.9086    0.3656   -1.5336 C   0  0  0  0  0  0  0  0  0  0  0  0
    2.3073   -1.3944    0.7440 C   0  0  0  0  0  0  0  0  0  0  0  0
    1.7769   -2.7640    0.9612 C   0  0  0  0  0  0  0  0  0  0  0  0
    3.2776   -0.9127    1.5299 N   0  0  0  0  0  0  0  0  0  0  0  0
    6.1713   -0.2869    1.4866 H   0  0  0  0  0  0  0  0  0  0  0  0
    6.0406    0.8132    0.1066 H   0  0  0  0  0  0  0  0  0  0  0  0
    6.6903    1.4005    1.6504 H   0  0  0  0  0  0  0  0  0  0  0  0
    4.3392    2.1823    1.3787 H   0  0  0  0  0  0  0  0  0  0  0  0
    4.4485    1.0466    2.7319 H   0  0  0  0  0  0  0  0  0  0  0  0
    2.7813    1.6094   -0.4961 H   0  0  0  0  0  0  0  0  0  0  0  0
    0.8098   -1.6253   -1.6609 H   0  0  0  0  0  0  0  0  0  0  0  0
    1.0256    0.0725   -2.1192 H   0  0  0  0  0  0  0  0  0  0  0  0
   -0.3994    0.4221    0.0750 H   0  0  0  0  0  0  0  0  0  0  0  0
   -2.1443   -0.2032    1.3385 H   0  0  0  0  0  0  0  0  0  0  0  0
   -4.2336    0.6391    2.3380 H   0  0  0  0  0  0  0  0  0  0  0  0
   -6.1338    1.2969    0.9014 H   0  0  0  0  0  0  0  0  0  0  0  0
   -3.8122    0.2718   -2.6147 H   0  0  0  0  0  0  0  0  0  0  0  0
    2.0096   -3.4010    0.1019 H   0  0  0  0  0  0  0  0  0  0  0  0
    0.6896   -2.7354    1.0841 H   0  0  0  0  0  0  0  0  0  0  0  0
    2.2069   -3.2270    1.8547 H   0  0  0  0  0  0  0  0  0  0  0  0
  1  2  1  0
  2  3  1  0
  3  4  1  0
  4  5  2  0
  5  6  1  0
  6  7  1  0
  7  8  1  0
  8  9  2  0
  8 10  1  0
 10 11  2  0
 11 12  1  0
 12 13  2  0
 13 14  1  0
 14 15  1  0
 15 16  2  0
 15 17  1  0
 14 18  2  0
  5 19  1  0
 19 20  1  0
 19 21  2  0
 21  3  1  0
 18 10  1  0
  1 22  1  0
  1 23  1  0
  1 24  1  0
  2 25  1  0
  2 26  1  0
  4 27  1  0
  6 28  1  0
  6 29  1  0
  7 30  1  0
 11 31  1  0
 12 32  1  0
 13 33  1  0
 18 34  1  0
 20 35  1  0
 20 36  1  0
 20 37  1  0
M  CHG  2  15   1  17  -1
M  END
$$$$
