
     RDKit          3D

 50 53  0  0  0  0  0  0  0  0999 V2000
    8.1666    1.5033    2.6758 C   0  0  0  0  0  0  0  0  0  0  0  0
    6.7917    0.9894    2.2888 C   0  0  0  0  0  0  0  0  0  0  0  0
    6.6016    1.2480    0.8985 O   0  0  0  0  0  0  0  0  0  0  0  0
    5.4552    0.7957    0.3100 C   0  0  0  0  0  0  0  0  0  0  0  0
    4.3815    0.2194    0.9954 C   0  0  0  0  0  0  0  0  0  0  0  0
    3.2277   -0.1862    0.3061 C   0  0  0  0  0  0  0  0  0  0  0  0
    3.1261   -0.0079   -1.0810 C   0  0  0  0  0  0  0  0  0  0  0  0
    1.9211   -0.4364   -1.8450 C   0  0  0  0  0  0  0  0  0  0  0  0
    2.0918   -0.8718   -2.9766 O   0  0  0  0  0  0  0  0  0  0  0  0
    0.7181   -0.2665   -1.1860 N   0  0  0  0  0  0  0  0  0  0  0  0
   -0.5712   -0.5901   -1.6624 C   0  0  0  0  0  0  0  0  0  0  0  0
   -0.8202   -1.1849   -2.8985 C   0  0  0  0  0  0  0  0  0  0  0  0
   -2.1300   -1.4530   -3.3024 C   0  0  0  0  0  0  0  0  0  0  0  0
   -3.2025   -1.1367   -2.4690 C   0  0  0  0  0  0  0  0  0  0  0  0
   -2.9788   -0.5564   -1.2129 C   0  0  0  0  0  0  0  0  0  0  0  0
   -4.1101   -0.2290   -0.3136 C   0  0  0  0  0  0  0  0  0  0  0  0
   -5.0155   -1.1836   -0.0365 C   0  0  0  0  0  0  0  0  0  0  0  0
   -6.1428   -0.9150    0.8405 C   0  0  0  0  0  0  0  0  0  0  0  0
   -7.1019   -1.8857    1.1384 C   0  0  0  0  0  0  0  0  0  0  0  0
   -8.1715   -1.5763    1.9849 C   0  0  0  0  0  0  0  0  0  0  0  0
   -8.2867   -0.2982    2.5360 C   0  0  0  0  0  0  0  0  0  0  0  0
   -7.3326    0.6742    2.2429 C   0  0  0  0  0  0  0  0  0  0  0  0
   -6.2732    0.3507    1.3985 C   0  0  0  0  0  0  0  0  0  0  0  0
   -5.3282    1.3544    1.1296 O   0  0  0  0  0  0  0  0  0  0  0  0
   -4.2294    1.1270    0.3062 C   0  0  0  0  0  0  0  0  0  0  0  0
   -3.3985    2.0102    0.1169 O   0  0  0  0  0  0  0  0  0  0  0  0
   -1.6557   -0.2862   -0.8254 C   0  0  0  0  0  0  0  0  0  0  0  0
    4.1950    0.5497   -1.7850 C   0  0  0  0  0  0  0  0  0  0  0  0
    5.3386    0.9407   -1.0791 C   0  0  0  0  0  0  0  0  0  0  0  0
    6.4309    1.5145   -1.8370 N   0  0  0  0  0  4  0  0  0  0  0  0
    7.4735    0.8521   -1.9244 O   0  0  0  0  0  0  0  0  0  0  0  0
    6.2182    2.6074   -2.3804 O   0  0  0  0  0  1  0  0  0  0  0  0
    8.3629    1.3305    3.7377 H   0  0  0  0  0  0  0  0  0  0  0  0
    8.9439    1.0053    2.0866 H   0  0  0  0  0  0  0  0  0  0  0  0
    8.2493    2.5758    2.4706 H   0  0  0  0  0  0  0  0  0  0  0  0
    6.7422   -0.0874    2.4874 H   0  0  0  0  0  0  0  0  0  0  0  0
    6.0329    1.5171    2.8778 H   0  0  0  0  0  0  0  0  0  0  0  0
    4.4069    0.0666    2.0706 H   0  0  0  0  0  0  0  0  0  0  0  0
    2.4284   -0.6655    0.8673 H   0  0  0  0  0  0  0  0  0  0  0  0
    0.7390    0.2161   -0.2971 H   0  0  0  0  0  0  0  0  0  0  0  0
   -0.0167   -1.4439   -3.5810 H   0  0  0  0  0  0  0  0  0  0  0  0
   -2.3102   -1.9033   -4.2757 H   0  0  0  0  0  0  0  0  0  0  0  0
   -4.2127   -1.3407   -2.8174 H   0  0  0  0  0  0  0  0  0  0  0  0
   -4.9355   -2.1841   -0.4513 H   0  0  0  0  0  0  0  0  0  0  0  0
   -7.0311   -2.8863    0.7186 H   0  0  0  0  0  0  0  0  0  0  0  0
   -8.9175   -2.3338    2.2147 H   0  0  0  0  0  0  0  0  0  0  0  0
   -9.1202   -0.0617    3.1930 H   0  0  0  0  0  0  0  0  0  0  0  0
   -7.4136    1.6708    2.6668 H   0  0  0  0  0  0  0  0  0  0  0  0
   -1.4736    0.1761    0.1427 H   0  0  0  0  0  0  0  0  0  0  0  0
    4.1365    0.6759   -2.8649 H   0  0  0  0  0  0  0  0  0  0  0  0
  1  2  1  0
  2  3  1  0
  3  4  1  0
  4  5  2  0
  5  6  1  0
  6  7  2  0
  7  8  1  0
  8  9  2  0
  8 10  1  0
 10 11  1  0
 11 12  2  0
 12 13  1  0
 13 14  2  0
 14 15  1  0
 15 16  1  0
 16 17  2  0
 17 18  1  0
 18 19  2  0
 19 20  1  0
 20 21  2  0
 21 22  1  0
 22 23  2  0
 23 24  1  0
 24 25  1  0
 25 26  2  0
 15 27  2  0
  7 28  1  0
 28 29  2  0
 29 30  1  0
 30 31  2  0
 30 32  1  0
 29  4  1  0
 27 11  1  0
 25 16  1  0
 23 18  1  0
  1 33  1  0
  1 34  1  0
  1 35  1  0
  2 36  1  0
  2 37  1  0
  5 38  1  0
  6 39  1  0
 10 40  1  0
 12 41  1  0
 13 42  1  0
 14 43  1  0
 17 44  1  0
 19 45  1  0
 20 46  1  0
 21 47  1  0
 22 48  1  0
 27 49  1  0
 28 50  1  0
M  CHG  2  30   1  32  -1
M  END
$$$$
