
     RDKit          3D

 43 45  0  0  0  0  0  0  0  0999 V2000
    6.4776    2.0222    1.8241 C   0  0  0  0  0  0  0  0  0  0  0  0
    5.3569    1.2055    1.4826 O   0  0  0  0  0  0  0  0  0  0  0  0
    5.1434    1.0938    0.1477 C   0  0  0  0  0  0  0  0  0  0  0  0
    5.8139    1.6166   -0.7288 O   0  0  0  0  0  0  0  0  0  0  0  0
    3.9611    0.2321   -0.1260 C   0  0  0  0  0  0  0  0  0  0  0  0
    3.5977    0.0096   -1.4585 C   0  0  0  0  0  0  0  0  0  0  0  0
    2.4934   -0.7919   -1.7609 C   0  0  0  0  0  0  0  0  0  0  0  0
    1.7360   -1.3794   -0.7437 C   0  0  0  0  0  0  0  0  0  0  0  0
    0.6872   -2.1339   -1.1866 O   0  0  0  0  0  0  0  0  0  0  0  0
   -0.2106   -2.6731   -0.2302 C   0  0  0  0  0  0  0  0  0  0  0  0
   -1.1296   -1.6698    0.4954 C   0  0  0  0  0  0  0  0  0  0  0  0
   -1.0542   -1.6243    1.7273 O   0  0  0  0  0  0  0  0  0  0  0  0
   -2.0150   -0.9073   -0.2963 N   0  0  0  0  0  0  0  0  0  0  0  0
   -2.3041   -1.3315   -1.6738 C   0  0  0  0  0  0  0  0  0  0  0  0
   -3.0367   -0.3077   -2.5205 C   0  0  0  0  0  0  0  0  0  0  0  0
   -4.3093    0.0996   -1.8132 C   0  0  0  0  0  0  0  0  0  0  0  0
   -3.9681    0.6186   -0.4448 C   0  0  0  0  0  0  0  0  0  0  0  0
   -4.8108    1.5943    0.1205 C   0  0  0  0  0  0  0  0  0  0  0  0
   -4.5392    2.1249    1.3759 C   0  0  0  0  0  0  0  0  0  0  0  0
   -3.4224    1.6871    2.0725 C   0  0  0  0  0  0  0  0  0  0  0  0
   -2.5905    0.7040    1.5237 C   0  0  0  0  0  0  0  0  0  0  0  0
   -2.8554    0.1256    0.2723 C   0  0  0  0  0  0  0  0  0  0  0  0
    2.1003   -1.1643    0.5852 C   0  0  0  0  0  0  0  0  0  0  0  0
    3.2062   -0.3603    0.8939 C   0  0  0  0  0  0  0  0  0  0  0  0
    6.3302    3.0455    1.4648 H   0  0  0  0  0  0  0  0  0  0  0  0
    7.4004    1.5967    1.4174 H   0  0  0  0  0  0  0  0  0  0  0  0
    6.5590    2.0467    2.9143 H   0  0  0  0  0  0  0  0  0  0  0  0
    4.1705    0.4584   -2.2678 H   0  0  0  0  0  0  0  0  0  0  0  0
    2.2215   -0.9565   -2.8011 H   0  0  0  0  0  0  0  0  0  0  0  0
   -0.8522   -3.3963   -0.7475 H   0  0  0  0  0  0  0  0  0  0  0  0
    0.3348   -3.2717    0.5108 H   0  0  0  0  0  0  0  0  0  0  0  0
   -2.8851   -2.2604   -1.6082 H   0  0  0  0  0  0  0  0  0  0  0  0
   -1.3749   -1.5732   -2.1931 H   0  0  0  0  0  0  0  0  0  0  0  0
   -3.2689   -0.7295   -3.5047 H   0  0  0  0  0  0  0  0  0  0  0  0
   -2.3946    0.5676   -2.6840 H   0  0  0  0  0  0  0  0  0  0  0  0
   -4.9945   -0.7508   -1.7157 H   0  0  0  0  0  0  0  0  0  0  0  0
   -4.8136    0.8719   -2.4057 H   0  0  0  0  0  0  0  0  0  0  0  0
   -5.6812    1.9509   -0.4261 H   0  0  0  0  0  0  0  0  0  0  0  0
   -5.1888    2.8834    1.8036 H   0  0  0  0  0  0  0  0  0  0  0  0
   -3.1877    2.1064    3.0475 H   0  0  0  0  0  0  0  0  0  0  0  0
   -1.7183    0.4296    2.1080 H   0  0  0  0  0  0  0  0  0  0  0  0
    1.5528   -1.6021    1.4145 H   0  0  0  0  0  0  0  0  0  0  0  0
    3.4628   -0.2072    1.9397 H   0  0  0  0  0  0  0  0  0  0  0  0
  1  2  1  0
  2  3  1  0
  3  4  2  0
  3  5  1  0
  5  6  2  0
  6  7  1  0
  7  8  2  0
  8  9  1  0
  9 10  1  0
 10 11  1  0
 11 12  2  0
 11 13  1  0
 13 14  1  0
 14 15  1  0
 15 16  1  0
 16 17  1  0
 17 18  2  0
 18 19  1  0
 19 20  2  0
 20 21  1  0
 21 22  2  0
  8 23  1  0
 23 24  2  0
 24  5  1  0
 22 13  1  0
 22 17  1  0
  1 25  1  0
  1 26  1  0
  1 27  1  0
  6 28  1  0
  7 29  1  0
 10 30  1  0
 10 31  1  0
 14 32  1  0
 14 33  1  0
 15 34  1  0
 15 35  1  0
 16 36  1  0
 16 37  1  0
 18 38  1  0
 19 39  1  0
 20 40  1  0
 21 41  1  0
 23 42  1  0
 24 43  1  0
M  END
$$$$
