
     RDKit          3D

 54 58  0  0  0  0  0  0  0  0999 V2000
    2.3138    0.0520    3.4223 O   0  0  0  0  0  0  0  0  0  0  0  0
    2.3518   -0.7191    2.4650 C   0  0  0  0  0  0  0  0  0  0  0  0
    1.3717   -1.8811    2.3487 C   0  0  0  0  0  0  0  0  0  0  0  0
    1.1007   -2.4836    0.6499 S   0  0  0  0  0  0  0  0  0  0  0  0
    0.1895   -1.1406   -0.0451 C   0  0  0  0  0  0  0  0  0  0  0  0
    0.3701    0.0173    0.5062 N   0  0  0  0  0  0  0  0  0  0  0  0
   -0.3205    1.0756   -0.0831 C   0  0  0  0  0  0  0  0  0  0  0  0
   -1.0944    0.9079   -1.1862 C   0  0  0  0  0  0  0  0  0  0  0  0
   -1.7757    2.3626   -1.7180 S   0  0  0  0  0  0  0  0  0  0  0  0
   -1.0149    3.2555   -0.4440 C   0  0  0  0  0  0  0  0  0  0  0  0
   -1.0970    4.6423   -0.2098 C   0  0  0  0  0  0  0  0  0  0  0  0
   -0.4122    5.1825    0.8832 C   0  0  0  0  0  0  0  0  0  0  0  0
    0.3359    4.3699    1.7245 C   0  0  0  0  0  0  0  0  0  0  0  0
    0.4249    2.9958    1.4837 C   0  0  0  0  0  0  0  0  0  0  0  0
   -0.2565    2.4168    0.3881 C   0  0  0  0  0  0  0  0  0  0  0  0
   -1.2893   -0.3652   -1.8136 C   0  0  0  0  0  0  0  0  0  0  0  0
   -1.9458   -0.5292   -2.8417 O   0  0  0  0  0  0  0  0  0  0  0  0
   -0.6259   -1.4114   -1.1488 N   0  0  0  0  0  0  0  0  0  0  0  0
   -0.9119   -2.7684   -1.6400 C   0  0  0  0  0  0  0  0  0  0  0  0
   -1.9211   -3.5344   -0.7635 C   0  0  0  0  0  0  0  0  0  0  0  0
   -3.2114   -2.7909   -0.5229 C   0  0  0  0  0  0  0  0  0  0  0  0
   -3.4570   -2.1721    0.7120 C   0  0  0  0  0  0  0  0  0  0  0  0
   -4.6311   -1.4493    0.9206 C   0  0  0  0  0  0  0  0  0  0  0  0
   -5.5705   -1.3386   -0.0998 C   0  0  0  0  0  0  0  0  0  0  0  0
   -5.3377   -1.9523   -1.3297 C   0  0  0  0  0  0  0  0  0  0  0  0
   -4.1642   -2.6754   -1.5410 C   0  0  0  0  0  0  0  0  0  0  0  0
    3.3068   -0.6317    1.4857 N   0  0  0  0  0  0  0  0  0  0  0  0
    4.2640    0.4409    1.4322 C   0  0  0  0  0  0  0  0  0  0  0  0
    4.4925    0.7733    0.0067 C   0  0  0  0  0  0  0  0  0  0  0  0
    3.9506    1.7121   -0.8478 C   0  0  0  0  0  0  0  0  0  0  0  0
    4.5788    1.5195   -2.1026 C   0  0  0  0  0  0  0  0  0  0  0  0
    5.4587    0.4768   -1.9339 C   0  0  0  0  0  0  0  0  0  0  0  0
    5.4011    0.0045   -0.6609 O   0  0  0  0  0  0  0  0  0  0  0  0
    0.4111   -1.5837    2.7806 H   0  0  0  0  0  0  0  0  0  0  0  0
    1.7706   -2.7102    2.9444 H   0  0  0  0  0  0  0  0  0  0  0  0
   -1.6762    5.2821   -0.8646 H   0  0  0  0  0  0  0  0  0  0  0  0
   -0.4687    6.2530    1.0733 H   0  0  0  0  0  0  0  0  0  0  0  0
    0.8635    4.8022    2.5693 H   0  0  0  0  0  0  0  0  0  0  0  0
    1.0238    2.3686    2.1352 H   0  0  0  0  0  0  0  0  0  0  0  0
    0.0236   -3.3376   -1.7056 H   0  0  0  0  0  0  0  0  0  0  0  0
   -1.2969   -2.7235   -2.6660 H   0  0  0  0  0  0  0  0  0  0  0  0
   -2.1508   -4.4954   -1.2402 H   0  0  0  0  0  0  0  0  0  0  0  0
   -1.4700   -3.7904    0.2031 H   0  0  0  0  0  0  0  0  0  0  0  0
   -2.7341   -2.2407    1.5197 H   0  0  0  0  0  0  0  0  0  0  0  0
   -4.8118   -0.9655    1.8784 H   0  0  0  0  0  0  0  0  0  0  0  0
   -6.4816   -0.7723    0.0594 H   0  0  0  0  0  0  0  0  0  0  0  0
   -6.0666   -1.8571   -2.1299 H   0  0  0  0  0  0  0  0  0  0  0  0
   -3.9934   -3.1274   -2.5149 H   0  0  0  0  0  0  0  0  0  0  0  0
    3.3400   -1.3415    0.7630 H   0  0  0  0  0  0  0  0  0  0  0  0
    3.8972    1.3095    1.9876 H   0  0  0  0  0  0  0  0  0  0  0  0
    5.1870    0.0872    1.9072 H   0  0  0  0  0  0  0  0  0  0  0  0
    3.1929    2.4398   -0.5959 H   0  0  0  0  0  0  0  0  0  0  0  0
    4.4106    2.0701   -3.0126 H   0  0  0  0  0  0  0  0  0  0  0  0
    6.1560   -0.0291   -2.5883 H   0  0  0  0  0  0  0  0  0  0  0  0
  1  2  2  0
  2  3  1  0
  3  4  1  0
  4  5  1  0
  5  6  2  0
  6  7  1  0
  7  8  2  0
  8  9  1  0
  9 10  1  0
 10 11  2  0
 11 12  1  0
 12 13  2  0
 13 14  1  0
 14 15  2  0
  8 16  1  0
 16 17  2  0
 16 18  1  0
 18 19  1  0
 19 20  1  0
 20 21  1  0
 21 22  2  0
 22 23  1  0
 23 24  2  0
 24 25  1  0
 25 26  2  0
  2 27  1  0
 27 28  1  0
 28 29  1  0
 29 30  2  0
 30 31  1  0
 31 32  2  0
 32 33  1  0
 18  5  1  0
 26 21  1  0
 33 29  1  0
 15  7  1  0
 15 10  1  0
  3 34  1  0
  3 35  1  0
 11 36  1  0
 12 37  1  0
 13 38  1  0
 14 39  1  0
 19 40  1  0
 19 41  1  0
 20 42  1  0
 20 43  1  0
 22 44  1  0
 23 45  1  0
 24 46  1  0
 25 47  1  0
 26 48  1  0
 27 49  1  0
 28 50  1  0
 28 51  1  0
 30 52  1  0
 31 53  1  0
 32 54  1  0
M  END
$$$$
