
     RDKit          3D

 41 42  0  0  0  0  0  0  0  0999 V2000
   -2.5237   -1.3071   -2.3631 C   0  0  0  0  0  0  0  0  0  0  0  0
   -3.1622   -0.2365   -1.4896 C   0  0  0  0  0  0  0  0  0  0  0  0
   -2.6527   -0.3104   -0.1151 N   0  0  0  0  0  0  0  0  0  0  0  0
   -3.4563   -1.1089    0.8211 C   0  0  0  0  0  0  0  0  0  0  0  0
   -4.4602   -0.2345    1.5584 C   0  0  0  0  0  0  0  0  0  0  0  0
   -1.4907    0.3481    0.2807 C   0  0  0  0  0  0  0  0  0  0  0  0
   -0.6800    1.0514   -0.6264 C   0  0  0  0  0  0  0  0  0  0  0  0
    0.4816    1.7342   -0.2348 C   0  0  0  0  0  0  0  0  0  0  0  0
    0.8933    1.7241    1.0956 C   0  0  0  0  0  0  0  0  0  0  0  0
    2.0819    2.4490    1.5546 C   0  0  0  0  0  0  0  0  0  0  0  0
    3.3149    2.4087    1.0228 C   0  0  0  0  0  0  0  0  0  0  0  0
    3.7361    1.5907   -0.1412 C   0  0  0  0  0  0  0  0  0  0  0  0
    4.2237    2.1542   -1.1178 O   0  0  0  0  0  0  0  0  0  0  0  0
    3.6053    0.1152   -0.1098 C   0  0  0  0  0  0  0  0  0  0  0  0
    3.6919   -0.6024   -1.3049 C   0  0  0  0  0  0  0  0  0  0  0  0
    3.5614   -1.9853   -1.2862 C   0  0  0  0  0  0  0  0  0  0  0  0
    3.3743   -2.6131   -0.0644 C   0  0  0  0  0  0  0  0  0  0  0  0
    3.3126   -1.9579    1.1135 N   0  0  0  0  0  0  0  0  0  0  0  0
    3.4268   -0.6066    1.0630 C   0  0  0  0  0  0  0  0  0  0  0  0
    0.1088    1.0420    2.0210 C   0  0  0  0  0  0  0  0  0  0  0  0
   -1.0507    0.3639    1.6149 C   0  0  0  0  0  0  0  0  0  0  0  0
   -2.9346   -1.2623   -3.3761 H   0  0  0  0  0  0  0  0  0  0  0  0
   -1.4390   -1.1754   -2.4340 H   0  0  0  0  0  0  0  0  0  0  0  0
   -2.7106   -2.3099   -1.9597 H   0  0  0  0  0  0  0  0  0  0  0  0
   -3.0182    0.7587   -1.9235 H   0  0  0  0  0  0  0  0  0  0  0  0
   -4.2497   -0.3875   -1.4913 H   0  0  0  0  0  0  0  0  0  0  0  0
   -4.0097   -1.8799    0.2685 H   0  0  0  0  0  0  0  0  0  0  0  0
   -2.8277   -1.6672    1.5251 H   0  0  0  0  0  0  0  0  0  0  0  0
   -3.9620    0.5312    2.1658 H   0  0  0  0  0  0  0  0  0  0  0  0
   -5.0813   -0.8470    2.2227 H   0  0  0  0  0  0  0  0  0  0  0  0
   -5.1255    0.2815    0.8536 H   0  0  0  0  0  0  0  0  0  0  0  0
   -0.9283    1.0939   -1.6823 H   0  0  0  0  0  0  0  0  0  0  0  0
    1.0473    2.2773   -0.9905 H   0  0  0  0  0  0  0  0  0  0  0  0
    1.9107    3.0996    2.4118 H   0  0  0  0  0  0  0  0  0  0  0  0
    4.0978    3.0611    1.4117 H   0  0  0  0  0  0  0  0  0  0  0  0
    3.8518   -0.0863   -2.2476 H   0  0  0  0  0  0  0  0  0  0  0  0
    3.6133   -2.5620   -2.2022 H   0  0  0  0  0  0  0  0  0  0  0  0
    3.2776   -3.6921    0.0020 H   0  0  0  0  0  0  0  0  0  0  0  0
    3.3745   -0.1273    2.0361 H   0  0  0  0  0  0  0  0  0  0  0  0
    0.3857    1.0203    3.0730 H   0  0  0  0  0  0  0  0  0  0  0  0
   -1.6085   -0.1457    2.3963 H   0  0  0  0  0  0  0  0  0  0  0  0
  1  2  1  0
  2  3  1  0
  3  4  1  0
  4  5  1  0
  3  6  1  0
  6  7  2  0
  7  8  1  0
  8  9  2  0
  9 10  1  0
 10 11  2  3
 11 12  1  0
 12 13  2  0
 12 14  1  0
 14 15  2  0
 15 16  1  0
 16 17  2  0
 17 18  1  0
 18 19  2  0
  9 20  1  0
 20 21  2  0
 21  6  1  0
 19 14  1  0
  1 22  1  0
  1 23  1  0
  1 24  1  0
  2 25  1  0
  2 26  1  0
  4 27  1  0
  4 28  1  0
  5 29  1  0
  5 30  1  0
  5 31  1  0
  7 32  1  0
  8 33  1  0
 10 34  1  0
 11 35  1  0
 15 36  1  0
 16 37  1  0
 17 38  1  0
 19 39  1  0
 20 40  1  0
 21 41  1  0
M  END
$$$$
