
     RDKit          3D

 31 31  0  0  0  0  0  0  0  0999 V2000
    5.4161   -0.0462    1.1027 C   0  0  0  0  0  0  0  0  0  0  0  0
    4.2733    0.5430    0.5007 O   0  0  0  0  0  0  0  0  0  0  0  0
    3.0668   -0.0300    0.9986 C   0  0  0  0  0  0  0  0  0  0  0  0
    1.9509    0.6005    0.3667 O   0  0  0  0  0  0  0  0  0  0  0  0
    0.7515    0.0358    0.7284 C   0  0  0  0  0  0  0  0  0  0  0  0
   -0.3635    0.2022   -0.0009 C   0  0  0  0  0  0  0  0  0  0  0  0
   -0.3062    0.9562   -1.1518 N   0  0  0  0  0  0  0  0  0  0  0  0
   -1.3233    1.2413   -2.0415 C   0  0  0  0  0  0  0  0  0  0  0  0
   -0.8602    2.1100   -3.1840 C   0  0  0  0  0  0  0  0  0  0  0  0
   -2.4814    0.8437   -1.9847 O   0  0  0  0  0  0  0  0  0  0  0  0
   -1.6025   -0.4313    0.4690 C   0  0  0  0  0  0  0  0  0  0  0  0
   -2.4411    0.2379    1.3704 C   0  0  0  0  0  0  0  0  0  0  0  0
   -3.5952   -0.3826    1.8527 C   0  0  0  0  0  0  0  0  0  0  0  0
   -3.9164   -1.6756    1.4410 C   0  0  0  0  0  0  0  0  0  0  0  0
   -3.0870   -2.3491    0.5449 C   0  0  0  0  0  0  0  0  0  0  0  0
   -1.9321   -1.7307    0.0615 C   0  0  0  0  0  0  0  0  0  0  0  0
    5.4564   -1.1176    0.8837 H   0  0  0  0  0  0  0  0  0  0  0  0
    5.4075    0.1171    2.1847 H   0  0  0  0  0  0  0  0  0  0  0  0
    6.3086    0.4283    0.6859 H   0  0  0  0  0  0  0  0  0  0  0  0
    3.0114    0.1319    2.0822 H   0  0  0  0  0  0  0  0  0  0  0  0
    3.0601   -1.1040    0.7732 H   0  0  0  0  0  0  0  0  0  0  0  0
    0.7682   -0.5340    1.6493 H   0  0  0  0  0  0  0  0  0  0  0  0
    0.6135    1.3411   -1.3479 H   0  0  0  0  0  0  0  0  0  0  0  0
   -0.4700    1.4758   -3.9843 H   0  0  0  0  0  0  0  0  0  0  0  0
   -1.7053    2.6939   -3.5600 H   0  0  0  0  0  0  0  0  0  0  0  0
   -0.0845    2.8094   -2.8594 H   0  0  0  0  0  0  0  0  0  0  0  0
   -2.2045    1.2499    1.6890 H   0  0  0  0  0  0  0  0  0  0  0  0
   -4.2481    0.1470    2.5412 H   0  0  0  0  0  0  0  0  0  0  0  0
   -4.8201   -2.1539    1.8090 H   0  0  0  0  0  0  0  0  0  0  0  0
   -3.3445   -3.3513    0.2135 H   0  0  0  0  0  0  0  0  0  0  0  0
   -1.2986   -2.2588   -0.6465 H   0  0  0  0  0  0  0  0  0  0  0  0
  1  2  1  0
  2  3  1  0
  3  4  1  0
  4  5  1  0
  5  6  2  3
  6  7  1  0
  7  8  1  0
  8  9  1  0
  8 10  2  0
  6 11  1  0
 11 12  2  0
 12 13  1  0
 13 14  2  0
 14 15  1  0
 15 16  2  0
 16 11  1  0
  1 17  1  0
  1 18  1  0
  1 19  1  0
  3 20  1  0
  3 21  1  0
  5 22  1  0
  7 23  1  0
  9 24  1  0
  9 25  1  0
  9 26  1  0
 12 27  1  0
 13 28  1  0
 14 29  1  0
 15 30  1  0
 16 31  1  0
M  END
$$$$
