
     RDKit          3D

 41 44  0  0  0  0  0  0  0  0999 V2000
    0.0649   -2.0845    0.3367 O   0  0  0  0  0  0  0  0  0  0  0  0
    0.2987   -1.2058   -0.4911 C   0  0  0  0  0  0  0  0  0  0  0  0
   -0.7812   -0.7467   -1.4801 C   0  0  0  0  0  0  0  0  0  0  0  0
   -1.6948    0.1928   -0.8295 N   0  0  0  0  0  0  0  0  0  0  0  0
   -1.2050    1.4763   -0.5937 C   0  0  0  0  0  0  0  0  0  0  0  0
   -0.1263    1.8780   -1.0489 O   0  0  0  0  0  0  0  0  0  0  0  0
   -2.0325    2.3543    0.3187 C   0  0  0  0  0  0  0  0  0  0  0  0
   -3.0249    3.1837   -0.4629 C   0  0  0  0  0  0  0  0  0  0  0  0
   -3.9816    2.2703   -1.7166 S   0  0  0  0  0  0  0  0  0  0  0  0
   -4.1456    0.6648   -0.9302 C   0  0  0  0  0  0  0  0  0  0  0  0
   -5.4626    0.2022   -0.7577 C   0  0  0  0  0  0  0  0  0  0  0  0
   -5.7166   -1.0858   -0.2895 C   0  0  0  0  0  0  0  0  0  0  0  0
   -4.6572   -1.9350   -0.0043 C   0  0  0  0  0  0  0  0  0  0  0  0
   -3.3418   -1.4951   -0.1832 C   0  0  0  0  0  0  0  0  0  0  0  0
   -3.0609   -0.1942   -0.6402 C   0  0  0  0  0  0  0  0  0  0  0  0
    1.4752   -0.4863   -0.6202 N   0  0  0  0  0  0  0  0  0  0  0  0
    2.6783   -0.6524    0.0930 C   0  0  0  0  0  0  0  0  0  0  0  0
    2.8336   -1.5406    1.1751 C   0  0  0  0  0  0  0  0  0  0  0  0
    4.0585   -1.6510    1.8470 C   0  0  0  0  0  0  0  0  0  0  0  0
    5.1096   -0.8805    1.4004 C   0  0  0  0  0  0  0  0  0  0  0  0
    4.9720   -0.0250    0.3344 C   0  0  0  0  0  0  0  0  0  0  0  0
    3.7708    0.1228   -0.3278 C   0  0  0  0  0  0  0  0  0  0  0  0
    6.1298    0.6241    0.0329 O   0  0  0  0  0  0  0  0  0  0  0  0
    7.0220    0.0497    1.0101 C   0  0  0  0  0  0  0  0  0  0  0  0
    6.3636   -0.8590    1.9214 O   0  0  0  0  0  0  0  0  0  0  0  0
   -1.3023   -1.6329   -1.8625 H   0  0  0  0  0  0  0  0  0  0  0  0
   -0.3247   -0.2670   -2.3547 H   0  0  0  0  0  0  0  0  0  0  0  0
   -1.3487    3.0208    0.8631 H   0  0  0  0  0  0  0  0  0  0  0  0
   -2.5295    1.7540    1.0890 H   0  0  0  0  0  0  0  0  0  0  0  0
   -2.4934    3.9763   -0.9965 H   0  0  0  0  0  0  0  0  0  0  0  0
   -3.7255    3.6566    0.2334 H   0  0  0  0  0  0  0  0  0  0  0  0
   -6.3034    0.8426   -1.0106 H   0  0  0  0  0  0  0  0  0  0  0  0
   -6.7415   -1.4275   -0.1610 H   0  0  0  0  0  0  0  0  0  0  0  0
   -4.8459   -2.9450    0.3552 H   0  0  0  0  0  0  0  0  0  0  0  0
   -2.5418   -2.1844    0.0739 H   0  0  0  0  0  0  0  0  0  0  0  0
    1.4389    0.3193   -1.2424 H   0  0  0  0  0  0  0  0  0  0  0  0
    2.0038   -2.1420    1.5375 H   0  0  0  0  0  0  0  0  0  0  0  0
    4.1747   -2.3251    2.6888 H   0  0  0  0  0  0  0  0  0  0  0  0
    3.6954    0.8144   -1.1556 H   0  0  0  0  0  0  0  0  0  0  0  0
    7.8142   -0.5010    0.4822 H   0  0  0  0  0  0  0  0  0  0  0  0
    7.4838    0.8638    1.5874 H   0  0  0  0  0  0  0  0  0  0  0  0
  1  2  2  0
  2  3  1  0
  3  4  1  0
  4  5  1  0
  5  6  2  0
  5  7  1  0
  7  8  1  0
  8  9  1  0
  9 10  1  0
 10 11  2  0
 11 12  1  0
 12 13  2  0
 13 14  1  0
 14 15  2  0
  2 16  1  0
 16 17  1  0
 17 18  2  0
 18 19  1  0
 19 20  2  0
 20 21  1  0
 21 22  2  0
 21 23  1  0
 23 24  1  0
 24 25  1  0
 15  4  1  0
 22 17  1  0
 15 10  1  0
 25 20  1  0
  3 26  1  0
  3 27  1  0
  7 28  1  0
  7 29  1  0
  8 30  1  0
  8 31  1  0
 11 32  1  0
 12 33  1  0
 13 34  1  0
 14 35  1  0
 16 36  1  0
 18 37  1  0
 19 38  1  0
 22 39  1  0
 24 40  1  0
 24 41  1  0
M  END
$$$$
