
     RDKit          3D

 44 46  0  0  0  0  0  0  0  0999 V2000
    5.1760    0.8196    3.6588 C   0  0  0  0  0  0  0  0  0  0  0  0
    4.6042    0.2028    2.4161 C   0  0  0  0  0  0  0  0  0  0  0  0
    4.1980    1.0102    1.3463 C   0  0  0  0  0  0  0  0  0  0  0  0
    3.6952    0.4369    0.1743 C   0  0  0  0  0  0  0  0  0  0  0  0
    3.5970   -0.9550    0.0608 C   0  0  0  0  0  0  0  0  0  0  0  0
    3.0683   -1.6128   -1.1668 C   0  0  0  0  0  0  0  0  0  0  0  0
    3.3812   -2.7660   -1.4395 O   0  0  0  0  0  0  0  0  0  0  0  0
    2.1871   -0.8722   -1.9287 N   0  0  0  0  0  0  0  0  0  0  0  0
    1.4747   -1.5046   -3.0313 C   0  0  0  0  0  0  0  0  0  0  0  0
    0.1633   -2.1769   -2.6281 C   0  0  0  0  0  0  0  0  0  0  0  0
   -0.5397   -2.8090   -3.4089 O   0  0  0  0  0  0  0  0  0  0  0  0
   -0.1503   -1.9309   -1.3268 O   0  0  0  0  0  0  0  0  0  0  0  0
   -1.4048   -2.4713   -0.8861 C   0  0  0  0  0  0  0  0  0  0  0  0
   -2.5439   -1.5498   -1.1873 C   0  0  0  0  0  0  0  0  0  0  0  0
   -3.4366   -1.6637   -2.2335 C   0  0  0  0  0  0  0  0  0  0  0  0
   -4.5605   -0.3777   -2.1905 S   0  0  0  0  0  0  0  0  0  0  0  0
   -3.7888    0.2632   -0.7861 C   0  0  0  0  0  0  0  0  0  0  0  0
   -4.2618    1.4941   -0.1166 C   0  0  0  0  0  0  0  0  0  0  0  0
   -5.3011    2.2996   -0.6118 C   0  0  0  0  0  0  0  0  0  0  0  0
   -5.7041    3.4556    0.0669 C   0  0  0  0  0  0  0  0  0  0  0  0
   -5.0755    3.8279    1.2518 C   0  0  0  0  0  0  0  0  0  0  0  0
   -4.0428    3.0468    1.7604 C   0  0  0  0  0  0  0  0  0  0  0  0
   -3.6412    1.8928    1.0814 C   0  0  0  0  0  0  0  0  0  0  0  0
   -2.7533   -0.4461   -0.3715 N   0  0  0  0  0  0  0  0  0  0  0  0
    4.0307   -1.7650    1.1163 C   0  0  0  0  0  0  0  0  0  0  0  0
    4.5318   -1.1891    2.2863 C   0  0  0  0  0  0  0  0  0  0  0  0
    6.2588    0.9383    3.5534 H   0  0  0  0  0  0  0  0  0  0  0  0
    4.7287    1.8009    3.8488 H   0  0  0  0  0  0  0  0  0  0  0  0
    4.9714    0.1947    4.5345 H   0  0  0  0  0  0  0  0  0  0  0  0
    4.2783    2.0931    1.4169 H   0  0  0  0  0  0  0  0  0  0  0  0
    3.4134    1.0893   -0.6469 H   0  0  0  0  0  0  0  0  0  0  0  0
    1.7151   -0.1014   -1.4730 H   0  0  0  0  0  0  0  0  0  0  0  0
    1.2373   -0.7107   -3.7455 H   0  0  0  0  0  0  0  0  0  0  0  0
    2.1173   -2.2525   -3.5053 H   0  0  0  0  0  0  0  0  0  0  0  0
   -1.3285   -2.5990    0.1997 H   0  0  0  0  0  0  0  0  0  0  0  0
   -1.5727   -3.4731   -1.3005 H   0  0  0  0  0  0  0  0  0  0  0  0
   -3.4704   -2.4206   -3.0053 H   0  0  0  0  0  0  0  0  0  0  0  0
   -5.8190    2.0505   -1.5343 H   0  0  0  0  0  0  0  0  0  0  0  0
   -6.5111    4.0646   -0.3335 H   0  0  0  0  0  0  0  0  0  0  0  0
   -5.3902    4.7255    1.7778 H   0  0  0  0  0  0  0  0  0  0  0  0
   -3.5474    3.3310    2.6852 H   0  0  0  0  0  0  0  0  0  0  0  0
   -2.8310    1.2953    1.4977 H   0  0  0  0  0  0  0  0  0  0  0  0
    3.9799   -2.8487    1.0301 H   0  0  0  0  0  0  0  0  0  0  0  0
    4.8672   -1.8361    3.0942 H   0  0  0  0  0  0  0  0  0  0  0  0
  1  2  1  0
  2  3  2  0
  3  4  1  0
  4  5  2  0
  5  6  1  0
  6  7  2  0
  6  8  1  0
  8  9  1  0
  9 10  1  0
 10 11  2  0
 10 12  1  0
 12 13  1  0
 13 14  1  0
 14 15  2  0
 15 16  1  0
 16 17  1  0
 17 18  1  0
 18 19  2  0
 19 20  1  0
 20 21  2  0
 21 22  1  0
 22 23  2  0
 17 24  2  0
  5 25  1  0
 25 26  2  0
 26  2  1  0
 24 14  1  0
 23 18  1  0
  1 27  1  0
  1 28  1  0
  1 29  1  0
  3 30  1  0
  4 31  1  0
  8 32  1  0
  9 33  1  0
  9 34  1  0
 13 35  1  0
 13 36  1  0
 15 37  1  0
 19 38  1  0
 20 39  1  0
 21 40  1  0
 22 41  1  0
 23 42  1  0
 25 43  1  0
 26 44  1  0
M  END
$$$$
