
     RDKit          3D

 49 50  0  0  0  0  0  0  0  0999 V2000
    6.9587    0.1566   -0.4139 C   0  0  0  0  0  0  0  0  0  0  0  0
    6.0809   -1.0187   -0.0270 C   0  0  0  0  0  0  0  0  0  0  0  0
    4.7469   -0.8197   -0.5126 O   0  0  0  0  0  0  0  0  0  0  0  0
    3.9124   -0.1066    0.2999 C   0  0  0  0  0  0  0  0  0  0  0  0
    4.2531    0.3471    1.3873 O   0  0  0  0  0  0  0  0  0  0  0  0
    2.5637    0.0548   -0.2659 C   0  0  0  0  0  0  0  0  0  0  0  0
    2.1017   -0.2357   -1.5999 C   0  0  0  0  0  0  0  0  0  0  0  0
    2.9255   -0.7683   -2.7254 C   0  0  0  0  0  0  0  0  0  0  0  0
    0.7500    0.0773   -1.6527 C   0  0  0  0  0  0  0  0  0  0  0  0
   -0.2145   -0.0562   -2.7853 C   0  0  0  0  0  0  0  0  0  0  0  0
    0.3860    0.5942   -0.4244 N   0  0  0  0  0  0  0  0  0  0  0  0
   -0.9315    1.1647   -0.1112 C   0  0  0  0  0  0  0  0  0  0  0  0
   -1.9579    0.1712    0.3949 C   0  0  0  0  0  0  0  0  0  0  0  0
   -1.6422   -1.1509    0.7419 C   0  0  0  0  0  0  0  0  0  0  0  0
   -2.6237   -2.0151    1.2252 C   0  0  0  0  0  0  0  0  0  0  0  0
   -3.9358   -1.5714    1.3912 C   0  0  0  0  0  0  0  0  0  0  0  0
   -4.2841   -0.2573    1.0697 C   0  0  0  0  0  0  0  0  0  0  0  0
   -5.5372    0.2695    1.2427 O   0  0  0  0  0  0  0  0  0  0  0  0
   -6.4994   -0.5269    1.9209 C   0  0  0  0  0  0  0  0  0  0  0  0
   -3.2946    0.5998    0.5455 C   0  0  0  0  0  0  0  0  0  0  0  0
   -3.5436    1.9157    0.2212 O   0  0  0  0  0  0  0  0  0  0  0  0
   -4.6042    2.0733   -0.7207 C   0  0  0  0  0  0  0  0  0  0  0  0
    1.4644    0.5471    0.4378 C   0  0  0  0  0  0  0  0  0  0  0  0
    1.3811    0.9781    1.8679 C   0  0  0  0  0  0  0  0  0  0  0  0
    6.6014    1.0828    0.0468 H   0  0  0  0  0  0  0  0  0  0  0  0
    7.9931   -0.0124   -0.1017 H   0  0  0  0  0  0  0  0  0  0  0  0
    6.9372    0.3115   -1.4976 H   0  0  0  0  0  0  0  0  0  0  0  0
    6.4599   -1.9304   -0.5004 H   0  0  0  0  0  0  0  0  0  0  0  0
    6.0927   -1.1917    1.0552 H   0  0  0  0  0  0  0  0  0  0  0  0
    2.3926   -0.7276   -3.6793 H   0  0  0  0  0  0  0  0  0  0  0  0
    3.8393   -0.1783   -2.8479 H   0  0  0  0  0  0  0  0  0  0  0  0
    3.1978   -1.8114   -2.5374 H   0  0  0  0  0  0  0  0  0  0  0  0
    0.1419   -0.7719   -3.5318 H   0  0  0  0  0  0  0  0  0  0  0  0
   -0.3541    0.9104   -3.2793 H   0  0  0  0  0  0  0  0  0  0  0  0
   -1.1880   -0.4187   -2.4424 H   0  0  0  0  0  0  0  0  0  0  0  0
   -1.2871    1.6433   -1.0315 H   0  0  0  0  0  0  0  0  0  0  0  0
   -0.7798    1.9609    0.6258 H   0  0  0  0  0  0  0  0  0  0  0  0
   -0.6275   -1.5321    0.6423 H   0  0  0  0  0  0  0  0  0  0  0  0
   -2.3600   -3.0379    1.4846 H   0  0  0  0  0  0  0  0  0  0  0  0
   -4.6602   -2.2780    1.7819 H   0  0  0  0  0  0  0  0  0  0  0  0
   -7.4081    0.0721    2.0337 H   0  0  0  0  0  0  0  0  0  0  0  0
   -6.7581   -1.4141    1.3343 H   0  0  0  0  0  0  0  0  0  0  0  0
   -6.1549   -0.7999    2.9239 H   0  0  0  0  0  0  0  0  0  0  0  0
   -4.3617    2.9359   -1.3493 H   0  0  0  0  0  0  0  0  0  0  0  0
   -4.7224    1.2053   -1.3798 H   0  0  0  0  0  0  0  0  0  0  0  0
   -5.5404    2.2969   -0.2015 H   0  0  0  0  0  0  0  0  0  0  0  0
    0.3642    0.9166    2.2649 H   0  0  0  0  0  0  0  0  0  0  0  0
    1.7311    2.0100    1.9702 H   0  0  0  0  0  0  0  0  0  0  0  0
    1.9953    0.3357    2.5061 H   0  0  0  0  0  0  0  0  0  0  0  0
  1  2  1  0
  2  3  1  0
  3  4  1  0
  4  5  2  0
  4  6  1  0
  6  7  1  0
  7  8  1  0
  7  9  2  0
  9 10  1  0
  9 11  1  0
 11 12  1  0
 12 13  1  0
 13 14  2  0
 14 15  1  0
 15 16  2  0
 16 17  1  0
 17 18  1  0
 18 19  1  0
 17 20  2  0
 20 21  1  0
 21 22  1  0
 11 23  1  0
 23 24  1  0
 23  6  2  0
 20 13  1  0
  1 25  1  0
  1 26  1  0
  1 27  1  0
  2 28  1  0
  2 29  1  0
  8 30  1  0
  8 31  1  0
  8 32  1  0
 10 33  1  0
 10 34  1  0
 10 35  1  0
 12 36  1  0
 12 37  1  0
 14 38  1  0
 15 39  1  0
 16 40  1  0
 19 41  1  0
 19 42  1  0
 19 43  1  0
 22 44  1  0
 22 45  1  0
 22 46  1  0
 24 47  1  0
 24 48  1  0
 24 49  1  0
M  END
$$$$
