
     RDKit          3D

 38 38  0  0  0  0  0  0  0  0999 V2000
    4.1501    1.0835    3.7432 C   0  0  0  0  0  0  0  0  0  0  0  0
    3.0541    1.7265    3.1032 O   0  0  0  0  0  0  0  0  0  0  0  0
    3.4666    2.7176    2.1528 C   0  0  0  0  0  0  0  0  0  0  0  0
    3.8280    2.0819    0.8101 C   0  0  0  0  0  0  0  0  0  0  0  0
    2.7371    1.2616    0.3121 N   0  0  0  0  0  0  0  0  0  0  0  0
    2.7398    0.7860   -0.9795 C   0  0  0  0  0  0  0  0  0  0  0  0
    3.5780    1.1077   -1.8135 O   0  0  0  0  0  0  0  0  0  0  0  0
    1.6682   -0.2062   -1.2910 C   0  0  0  0  0  0  0  0  0  0  0  0
    2.0754   -1.3502   -2.0278 C   0  0  0  0  0  0  0  0  0  0  0  0
    2.3948   -2.3066   -2.6045 N   0  0  0  0  0  0  0  0  0  0  0  0
    0.4052    0.0901   -0.9183 C   0  0  0  0  0  0  0  0  0  0  0  0
   -0.8560   -0.6466   -1.0761 C   0  0  0  0  0  0  0  0  0  0  0  0
   -0.8417   -2.0534   -1.6230 C   0  0  0  0  0  0  0  0  0  0  0  0
   -1.9962   -0.0311   -0.6928 C   0  0  0  0  0  0  0  0  0  0  0  0
   -3.3451   -0.5986   -0.7796 C   0  0  0  0  0  0  0  0  0  0  0  0
   -4.0328   -0.6100   -1.9981 C   0  0  0  0  0  0  0  0  0  0  0  0
   -5.3178   -1.1503   -2.0731 C   0  0  0  0  0  0  0  0  0  0  0  0
   -5.9202   -1.6789   -0.9319 C   0  0  0  0  0  0  0  0  0  0  0  0
   -5.2394   -1.6681    0.2852 C   0  0  0  0  0  0  0  0  0  0  0  0
   -3.9540   -1.1283    0.3625 C   0  0  0  0  0  0  0  0  0  0  0  0
    4.7592    0.5350    3.0200 H   0  0  0  0  0  0  0  0  0  0  0  0
    3.7504    0.3693    4.4682 H   0  0  0  0  0  0  0  0  0  0  0  0
    4.7640    1.8142    4.2783 H   0  0  0  0  0  0  0  0  0  0  0  0
    2.6126    3.3899    2.0145 H   0  0  0  0  0  0  0  0  0  0  0  0
    4.2964    3.3138    2.5484 H   0  0  0  0  0  0  0  0  0  0  0  0
    4.6996    1.4264    0.9051 H   0  0  0  0  0  0  0  0  0  0  0  0
    4.0646    2.8544    0.0707 H   0  0  0  0  0  0  0  0  0  0  0  0
    2.1781    0.7937    1.0188 H   0  0  0  0  0  0  0  0  0  0  0  0
    0.2672    1.0560   -0.4247 H   0  0  0  0  0  0  0  0  0  0  0  0
   -1.8160   -2.5482   -1.5705 H   0  0  0  0  0  0  0  0  0  0  0  0
   -0.1560   -2.6846   -1.0480 H   0  0  0  0  0  0  0  0  0  0  0  0
   -0.5459   -2.0536   -2.6769 H   0  0  0  0  0  0  0  0  0  0  0  0
   -1.9870    0.9773   -0.2825 H   0  0  0  0  0  0  0  0  0  0  0  0
   -3.5720   -0.2008   -2.8941 H   0  0  0  0  0  0  0  0  0  0  0  0
   -5.8481   -1.1595   -3.0219 H   0  0  0  0  0  0  0  0  0  0  0  0
   -6.9205   -2.1003   -0.9914 H   0  0  0  0  0  0  0  0  0  0  0  0
   -5.7090   -2.0813    1.1740 H   0  0  0  0  0  0  0  0  0  0  0  0
   -3.4316   -1.1283    1.3160 H   0  0  0  0  0  0  0  0  0  0  0  0
  1  2  1  0
  2  3  1  0
  3  4  1  0
  4  5  1  0
  5  6  1  0
  6  7  2  0
  6  8  1  0
  8  9  1  0
  9 10  3  0
  8 11  2  3
 11 12  1  0
 12 13  1  0
 12 14  2  3
 14 15  1  0
 15 16  2  0
 16 17  1  0
 17 18  2  0
 18 19  1  0
 19 20  2  0
 20 15  1  0
  1 21  1  0
  1 22  1  0
  1 23  1  0
  3 24  1  0
  3 25  1  0
  4 26  1  0
  4 27  1  0
  5 28  1  0
 11 29  1  0
 13 30  1  0
 13 31  1  0
 13 32  1  0
 14 33  1  0
 16 34  1  0
 17 35  1  0
 18 36  1  0
 19 37  1  0
 20 38  1  0
M  END
$$$$
