
     RDKit          3D

 46 49  0  0  0  0  0  0  0  0999 V2000
   -5.8107    0.9338   -2.4453 C   0  0  0  0  0  0  0  0  0  0  0  0
   -4.8330    1.8643   -1.7493 C   0  0  0  0  0  0  0  0  0  0  0  0
   -3.5510    1.2481   -1.6227 O   0  0  0  0  0  0  0  0  0  0  0  0
   -3.2832    0.5076   -0.4993 C   0  0  0  0  0  0  0  0  0  0  0  0
   -4.1930    0.1622    0.4959 C   0  0  0  0  0  0  0  0  0  0  0  0
   -3.7771   -0.6160    1.5770 C   0  0  0  0  0  0  0  0  0  0  0  0
   -2.4506   -1.0471    1.6677 C   0  0  0  0  0  0  0  0  0  0  0  0
   -1.5014   -0.7117    0.6838 C   0  0  0  0  0  0  0  0  0  0  0  0
   -0.1136   -1.1707    0.8145 C   0  0  0  0  0  0  0  0  0  0  0  0
    0.0713   -2.4608    1.1848 N   0  0  0  0  0  0  0  0  0  0  0  0
    1.3591   -2.8622    1.3301 C   0  0  0  0  0  0  0  0  0  0  0  0
    1.5820   -4.2799    1.7280 C   0  0  0  0  0  0  0  0  0  0  0  0
    0.4512   -5.0367    1.8781 N   0  0  0  0  0  0  0  0  0  0  0  0
    2.7005   -4.7454    1.9067 O   0  0  0  0  0  0  0  0  0  0  0  0
    2.4082   -2.0155    1.1292 C   0  0  0  0  0  0  0  0  0  0  0  0
    3.7806   -2.1774    1.2312 N   0  0  0  0  0  0  0  0  0  0  0  0
    4.3985   -0.9568    0.9279 C   0  0  0  0  0  0  0  0  0  0  0  0
    5.6084   -0.8018    0.9322 O   0  0  0  0  0  0  0  0  0  0  0  0
    3.3507   -0.0340    0.6267 N   0  0  0  0  0  0  0  0  0  0  0  0
    3.4901    1.3324    0.2591 C   0  0  0  0  0  0  0  0  0  0  0  0
    2.4220    2.0991   -0.2381 C   0  0  0  0  0  0  0  0  0  0  0  0
    2.5813    3.4449   -0.5949 C   0  0  0  0  0  0  0  0  0  0  0  0
    3.8200    4.0593   -0.4649 C   0  0  0  0  0  0  0  0  0  0  0  0
    4.8924    3.3209    0.0181 C   0  0  0  0  0  0  0  0  0  0  0  0
    6.4323    4.0745    0.1849 Cl  0  0  0  0  0  0  0  0  0  0  0  0
    4.7339    1.9769    0.3732 C   0  0  0  0  0  0  0  0  0  0  0  0
    2.1186   -0.7231    0.7655 C   0  0  0  0  0  0  0  0  0  0  0  0
    0.8717   -0.2682    0.6246 N   0  0  0  0  0  0  0  0  0  0  0  0
   -1.9520    0.0603   -0.3986 C   0  0  0  0  0  0  0  0  0  0  0  0
   -1.0919    0.3787   -1.4247 O   0  0  0  0  0  0  0  0  0  0  0  0
   -5.9841    0.0249   -1.8617 H   0  0  0  0  0  0  0  0  0  0  0  0
   -5.4126    0.6161   -3.4148 H   0  0  0  0  0  0  0  0  0  0  0  0
   -6.7708    1.4325   -2.6064 H   0  0  0  0  0  0  0  0  0  0  0  0
   -5.2168    2.2391   -0.7942 H   0  0  0  0  0  0  0  0  0  0  0  0
   -4.6887    2.7481   -2.3812 H   0  0  0  0  0  0  0  0  0  0  0  0
   -5.2331    0.4664    0.4601 H   0  0  0  0  0  0  0  0  0  0  0  0
   -4.4879   -0.8893    2.3538 H   0  0  0  0  0  0  0  0  0  0  0  0
   -2.1524   -1.6482    2.5258 H   0  0  0  0  0  0  0  0  0  0  0  0
    0.5374   -6.0183    2.1013 H   0  0  0  0  0  0  0  0  0  0  0  0
   -0.4593   -4.6420    1.6703 H   0  0  0  0  0  0  0  0  0  0  0  0
    4.2616   -3.0319    1.4870 H   0  0  0  0  0  0  0  0  0  0  0  0
    1.4337    1.6770   -0.3925 H   0  0  0  0  0  0  0  0  0  0  0  0
    1.7318    4.0043   -0.9792 H   0  0  0  0  0  0  0  0  0  0  0  0
    3.9431    5.1023   -0.7416 H   0  0  0  0  0  0  0  0  0  0  0  0
    5.6066    1.4569    0.7564 H   0  0  0  0  0  0  0  0  0  0  0  0
   -1.6236    0.9064   -2.0523 H   0  0  0  0  0  0  0  0  0  0  0  0
  1  2  1  0
  2  3  1  0
  3  4  1  0
  4  5  2  0
  5  6  1  0
  6  7  2  0
  7  8  1  0
  8  9  1  0
  9 10  2  0
 10 11  1  0
 11 12  1  0
 12 13  1  0
 12 14  2  0
 11 15  2  0
 15 16  1  0
 16 17  1  0
 17 18  2  0
 17 19  1  0
 19 20  1  0
 20 21  2  0
 21 22  1  0
 22 23  2  0
 23 24  1  0
 24 25  1  0
 24 26  2  0
 19 27  1  0
 27 28  2  0
  8 29  2  0
 29 30  1  0
 29  4  1  0
 28  9  1  0
 27 15  1  0
 26 20  1  0
  1 31  1  0
  1 32  1  0
  1 33  1  0
  2 34  1  0
  2 35  1  0
  5 36  1  0
  6 37  1  0
  7 38  1  0
 13 39  1  0
 13 40  1  0
 16 41  1  0
 21 42  1  0
 22 43  1  0
 23 44  1  0
 26 45  1  0
 30 46  1  0
M  END
$$$$
