
     RDKit          3D

 46 48  0  0  0  0  0  0  0  0999 V2000
    1.5470    2.3432    0.7140 O   0  0  0  0  0  0  0  0  0  0  0  0
    1.3701    1.1684    1.0333 C   0  0  0  0  0  0  0  0  0  0  0  0
    0.0245    0.4450    1.0250 C   0  0  0  0  0  0  0  0  0  0  0  0
   -1.0139    1.3119    0.5954 O   0  0  0  0  0  0  0  0  0  0  0  0
   -2.2766    0.7932    0.5365 C   0  0  0  0  0  0  0  0  0  0  0  0
   -2.6476   -0.5110    0.8570 C   0  0  0  0  0  0  0  0  0  0  0  0
   -3.9874   -0.9080    0.7483 C   0  0  0  0  0  0  0  0  0  0  0  0
   -4.9820   -0.0141    0.3203 C   0  0  0  0  0  0  0  0  0  0  0  0
   -6.3877   -0.4367    0.2095 C   0  0  0  0  0  0  0  0  0  0  0  0
   -6.7473   -1.5658   -0.5455 C   0  0  0  0  0  0  0  0  0  0  0  0
   -8.0818   -1.9672   -0.6514 C   0  0  0  0  0  0  0  0  0  0  0  0
   -9.0805   -1.2458   -0.0024 C   0  0  0  0  0  0  0  0  0  0  0  0
   -8.7461   -0.1237    0.7512 C   0  0  0  0  0  0  0  0  0  0  0  0
   -7.4112    0.2770    0.8552 C   0  0  0  0  0  0  0  0  0  0  0  0
   -4.5917    1.2947    0.0027 C   0  0  0  0  0  0  0  0  0  0  0  0
   -3.2549    1.6913    0.1094 C   0  0  0  0  0  0  0  0  0  0  0  0
    2.4203    0.3623    1.4547 N   0  0  0  0  0  0  0  0  0  0  0  0
    3.7253    0.8782    1.2273 N   0  0  0  0  0  0  0  0  0  0  0  0
    4.5647    0.0623    0.4783 C   0  0  0  0  0  0  0  0  0  0  0  0
    4.2497   -1.0914    0.2016 O   0  0  0  0  0  0  0  0  0  0  0  0
    5.7325    0.7073    0.1488 N   0  0  0  0  0  0  0  0  0  0  0  0
    6.8017    0.2162   -0.6280 C   0  0  0  0  0  0  0  0  0  0  0  0
    6.7953   -1.0149   -1.2871 C   0  0  0  0  0  0  0  0  0  0  0  0
    7.9070   -1.4110   -2.0395 C   0  0  0  0  0  0  0  0  0  0  0  0
    9.0172   -0.5771   -2.1323 C   0  0  0  0  0  0  0  0  0  0  0  0
   10.0751   -0.9665   -2.8548 F   0  0  0  0  0  0  0  0  0  0  0  0
    9.0438    0.6504   -1.4891 C   0  0  0  0  0  0  0  0  0  0  0  0
    7.9357    1.0352   -0.7447 C   0  0  0  0  0  0  0  0  0  0  0  0
    7.9552    2.2239   -0.1200 F   0  0  0  0  0  0  0  0  0  0  0  0
    0.1144   -0.4057    0.3387 H   0  0  0  0  0  0  0  0  0  0  0  0
   -0.1687    0.0998    2.0478 H   0  0  0  0  0  0  0  0  0  0  0  0
   -1.9289   -1.2482    1.1971 H   0  0  0  0  0  0  0  0  0  0  0  0
   -4.2549   -1.9289    1.0154 H   0  0  0  0  0  0  0  0  0  0  0  0
   -5.9845   -2.1366   -1.0712 H   0  0  0  0  0  0  0  0  0  0  0  0
   -8.3396   -2.8411   -1.2440 H   0  0  0  0  0  0  0  0  0  0  0  0
  -10.1185   -1.5571   -0.0847 H   0  0  0  0  0  0  0  0  0  0  0  0
   -9.5225    0.4410    1.2608 H   0  0  0  0  0  0  0  0  0  0  0  0
   -7.1710    1.1510    1.4576 H   0  0  0  0  0  0  0  0  0  0  0  0
   -5.3271    2.0177   -0.3442 H   0  0  0  0  0  0  0  0  0  0  0  0
   -2.9754    2.7110   -0.1460 H   0  0  0  0  0  0  0  0  0  0  0  0
    2.3550   -0.6496    1.3309 H   0  0  0  0  0  0  0  0  0  0  0  0
    3.7137    1.8680    0.9778 H   0  0  0  0  0  0  0  0  0  0  0  0
    5.8881    1.6097    0.5826 H   0  0  0  0  0  0  0  0  0  0  0  0
    5.9438   -1.6867   -1.2388 H   0  0  0  0  0  0  0  0  0  0  0  0
    7.9097   -2.3677   -2.5541 H   0  0  0  0  0  0  0  0  0  0  0  0
    9.9101    1.2959   -1.5662 H   0  0  0  0  0  0  0  0  0  0  0  0
  1  2  2  0
  2  3  1  0
  3  4  1  0
  4  5  1  0
  5  6  2  0
  6  7  1  0
  7  8  2  0
  8  9  1  0
  9 10  2  0
 10 11  1  0
 11 12  2  0
 12 13  1  0
 13 14  2  0
  8 15  1  0
 15 16  2  0
  2 17  1  0
 17 18  1  0
 18 19  1  0
 19 20  2  0
 19 21  1  0
 21 22  1  0
 22 23  2  0
 23 24  1  0
 24 25  2  0
 25 26  1  0
 25 27  1  0
 27 28  2  0
 28 29  1  0
 16  5  1  0
 28 22  1  0
 14  9  1  0
  3 30  1  0
  3 31  1  0
  6 32  1  0
  7 33  1  0
 10 34  1  0
 11 35  1  0
 12 36  1  0
 13 37  1  0
 14 38  1  0
 15 39  1  0
 16 40  1  0
 17 41  1  0
 18 42  1  0
 21 43  1  0
 23 44  1  0
 24 45  1  0
 27 46  1  0
M  END
$$$$
