
     RDKit          3D

 38 39  0  0  0  0  0  0  0  0999 V2000
   -3.8880    2.8664    0.0020 C   0  0  0  0  0  0  0  0  0  0  0  0
   -3.9168    1.8474    0.8711 C   0  0  0  0  0  0  0  0  0  0  0  0
   -2.8824    1.6092    1.9347 C   0  0  0  0  0  0  0  0  0  0  0  0
   -2.2129    0.2631    1.7921 C   0  0  0  0  0  0  0  0  0  0  0  0
   -2.6129   -0.8206    2.5791 C   0  0  0  0  0  0  0  0  0  0  0  0
   -2.0012   -2.0617    2.4211 C   0  0  0  0  0  0  0  0  0  0  0  0
   -0.9918   -2.2306    1.4725 C   0  0  0  0  0  0  0  0  0  0  0  0
   -0.4818   -3.4984    1.3761 O   0  0  0  0  0  0  0  0  0  0  0  0
   -0.5406   -1.1661    0.6715 C   0  0  0  0  0  0  0  0  0  0  0  0
    0.5811   -1.2680   -0.2963 C   0  0  0  0  0  0  0  0  0  0  0  0
    1.6368   -0.3350   -0.2356 C   0  0  0  0  0  0  0  0  0  0  0  0
    2.7079   -0.3553   -1.1463 C   0  0  0  0  0  0  0  0  0  0  0  0
    3.8071    0.6763   -1.0503 C   0  0  0  0  0  0  0  0  0  0  0  0
    3.4111    1.9880   -1.6674 C   0  0  0  0  0  0  0  0  0  0  0  0
    3.3601    3.1508   -1.0040 C   0  0  0  0  0  0  0  0  0  0  0  0
    2.7241   -1.3274   -2.1510 C   0  0  0  0  0  0  0  0  0  0  0  0
    1.7023   -2.2717   -2.2302 C   0  0  0  0  0  0  0  0  0  0  0  0
    0.6512   -2.2385   -1.3102 C   0  0  0  0  0  0  0  0  0  0  0  0
   -0.3220   -3.2023   -1.3864 O   0  0  0  0  0  0  0  0  0  0  0  0
   -1.1875    0.0765    0.8469 C   0  0  0  0  0  0  0  0  0  0  0  0
   -3.0905    3.6026    0.0101 H   0  0  0  0  0  0  0  0  0  0  0  0
   -4.6684    2.9798   -0.7444 H   0  0  0  0  0  0  0  0  0  0  0  0
   -4.7380    1.1349    0.8209 H   0  0  0  0  0  0  0  0  0  0  0  0
   -2.1134    2.3922    1.9249 H   0  0  0  0  0  0  0  0  0  0  0  0
   -3.3665    1.6801    2.9168 H   0  0  0  0  0  0  0  0  0  0  0  0
   -3.4060   -0.7092    3.3142 H   0  0  0  0  0  0  0  0  0  0  0  0
   -2.3168   -2.9064    3.0271 H   0  0  0  0  0  0  0  0  0  0  0  0
   -0.2002   -3.6006    0.4461 H   0  0  0  0  0  0  0  0  0  0  0  0
    1.6298    0.4273    0.5436 H   0  0  0  0  0  0  0  0  0  0  0  0
    4.0888    0.8004    0.0032 H   0  0  0  0  0  0  0  0  0  0  0  0
    4.7074    0.3071   -1.5571 H   0  0  0  0  0  0  0  0  0  0  0  0
    3.1568    1.9740   -2.7253 H   0  0  0  0  0  0  0  0  0  0  0  0
    3.0663    4.0654   -1.5100 H   0  0  0  0  0  0  0  0  0  0  0  0
    3.6050    3.2183    0.0515 H   0  0  0  0  0  0  0  0  0  0  0  0
    3.5380   -1.3598   -2.8719 H   0  0  0  0  0  0  0  0  0  0  0  0
    1.7470   -3.0316   -3.0045 H   0  0  0  0  0  0  0  0  0  0  0  0
   -0.2915   -3.5995   -2.2743 H   0  0  0  0  0  0  0  0  0  0  0  0
   -0.8914    0.9233    0.2279 H   0  0  0  0  0  0  0  0  0  0  0  0
  1  2  2  0
  2  3  1  0
  3  4  1  0
  4  5  2  0
  5  6  1  0
  6  7  2  0
  7  8  1  0
  7  9  1  0
  9 10  1  0
 10 11  2  0
 11 12  1  0
 12 13  1  0
 13 14  1  0
 14 15  2  0
 12 16  2  0
 16 17  1  0
 17 18  2  0
 18 19  1  0
  9 20  2  0
 20  4  1  0
 18 10  1  0
  1 21  1  0
  1 22  1  0
  2 23  1  0
  3 24  1  0
  3 25  1  0
  5 26  1  0
  6 27  1  0
  8 28  1  0
 11 29  1  0
 13 30  1  0
 13 31  1  0
 14 32  1  0
 15 33  1  0
 15 34  1  0
 16 35  1  0
 17 36  1  0
 19 37  1  0
 20 38  1  0
M  END
$$$$
