
     RDKit          3D

 50 53  0  0  0  0  0  0  0  0999 V2000
    5.9355   -3.2532    1.5404 C   0  0  0  0  0  0  0  0  0  0  0  0
    5.3343   -2.3388    2.4484 O   0  0  0  0  0  0  0  0  0  0  0  0
    4.2849   -1.5998    1.9779 C   0  0  0  0  0  0  0  0  0  0  0  0
    3.7981   -0.6444    2.8690 C   0  0  0  0  0  0  0  0  0  0  0  0
    2.7401    0.1967    2.5073 C   0  0  0  0  0  0  0  0  0  0  0  0
    2.1223    0.0914    1.2481 C   0  0  0  0  0  0  0  0  0  0  0  0
    1.0174    0.9901    0.8941 C   0  0  0  0  0  0  0  0  0  0  0  0
    1.1875    2.3069    1.1672 N   0  0  0  0  0  0  0  0  0  0  0  0
    0.1575    3.1291    0.8384 C   0  0  0  0  0  0  0  0  0  0  0  0
    0.3455    4.5823    1.1030 C   0  0  0  0  0  0  0  0  0  0  0  0
    1.5640    4.9364    1.6173 N   0  0  0  0  0  0  0  0  0  0  0  0
   -0.5273    5.4115    0.8761 O   0  0  0  0  0  0  0  0  0  0  0  0
   -0.9946    2.6573    0.2871 C   0  0  0  0  0  0  0  0  0  0  0  0
   -2.1622    3.2703   -0.1466 N   0  0  0  0  0  0  0  0  0  0  0  0
   -3.0339    2.2785   -0.6326 C   0  0  0  0  0  0  0  0  0  0  0  0
   -4.1715    2.5120   -1.0071 O   0  0  0  0  0  0  0  0  0  0  0  0
   -2.3387    1.0440   -0.4978 N   0  0  0  0  0  0  0  0  0  0  0  0
   -2.7819   -0.2431   -0.8735 C   0  0  0  0  0  0  0  0  0  0  0  0
   -2.4663   -1.3609   -0.0808 C   0  0  0  0  0  0  0  0  0  0  0  0
   -2.9244   -2.6398   -0.4112 C   0  0  0  0  0  0  0  0  0  0  0  0
   -3.6940   -2.8290   -1.5523 C   0  0  0  0  0  0  0  0  0  0  0  0
   -4.0025   -1.7404   -2.3658 C   0  0  0  0  0  0  0  0  0  0  0  0
   -3.5641   -0.4515   -2.0255 C   0  0  0  0  0  0  0  0  0  0  0  0
   -3.7417    0.5873   -2.9066 O   0  0  0  0  0  0  0  0  0  0  0  0
   -5.0980    0.7490   -3.3229 C   0  0  0  0  0  0  0  0  0  0  0  0
   -1.0814    1.3009    0.0887 C   0  0  0  0  0  0  0  0  0  0  0  0
   -0.1021    0.4385    0.3799 N   0  0  0  0  0  0  0  0  0  0  0  0
    2.6108   -0.8959    0.3735 C   0  0  0  0  0  0  0  0  0  0  0  0
    2.1009   -0.9977   -0.8999 O   0  0  0  0  0  0  0  0  0  0  0  0
    1.3033   -2.1760   -1.0333 C   0  0  0  0  0  0  0  0  0  0  0  0
    3.6922   -1.7202    0.7235 C   0  0  0  0  0  0  0  0  0  0  0  0
    6.3510   -2.7294    0.6736 H   0  0  0  0  0  0  0  0  0  0  0  0
    5.2279   -4.0301    1.2336 H   0  0  0  0  0  0  0  0  0  0  0  0
    6.7625   -3.7437    2.0618 H   0  0  0  0  0  0  0  0  0  0  0  0
    4.2550   -0.5421    3.8506 H   0  0  0  0  0  0  0  0  0  0  0  0
    2.3948    0.9405    3.2228 H   0  0  0  0  0  0  0  0  0  0  0  0
    2.2864    4.2377    1.7498 H   0  0  0  0  0  0  0  0  0  0  0  0
    1.7693    5.9124    1.7810 H   0  0  0  0  0  0  0  0  0  0  0  0
   -2.3715    4.2597   -0.0931 H   0  0  0  0  0  0  0  0  0  0  0  0
   -1.8873   -1.2501    0.8323 H   0  0  0  0  0  0  0  0  0  0  0  0
   -2.6777   -3.4846    0.2269 H   0  0  0  0  0  0  0  0  0  0  0  0
   -4.0390   -3.8240   -1.8204 H   0  0  0  0  0  0  0  0  0  0  0  0
   -4.5547   -1.9141   -3.2846 H   0  0  0  0  0  0  0  0  0  0  0  0
   -5.3287    0.0660   -4.1477 H   0  0  0  0  0  0  0  0  0  0  0  0
   -5.2143    1.7716   -3.6951 H   0  0  0  0  0  0  0  0  0  0  0  0
   -5.8005    0.6085   -2.4929 H   0  0  0  0  0  0  0  0  0  0  0  0
    0.7117   -2.0802   -1.9492 H   0  0  0  0  0  0  0  0  0  0  0  0
    0.6099   -2.2980   -0.1931 H   0  0  0  0  0  0  0  0  0  0  0  0
    1.9391   -3.0629   -1.1290 H   0  0  0  0  0  0  0  0  0  0  0  0
    4.0567   -2.4289   -0.0112 H   0  0  0  0  0  0  0  0  0  0  0  0
  1  2  1  0
  2  3  1  0
  3  4  2  0
  4  5  1  0
  5  6  2  0
  6  7  1  0
  7  8  2  0
  8  9  1  0
  9 10  1  0
 10 11  1  0
 10 12  2  0
  9 13  2  0
 13 14  1  0
 14 15  1  0
 15 16  2  0
 15 17  1  0
 17 18  1  0
 18 19  2  0
 19 20  1  0
 20 21  2  0
 21 22  1  0
 22 23  2  0
 23 24  1  0
 24 25  1  0
 17 26  1  0
 26 27  2  0
  6 28  1  0
 28 29  1  0
 29 30  1  0
 28 31  2  0
 31  3  1  0
 27  7  1  0
 26 13  1  0
 23 18  1  0
  1 32  1  0
  1 33  1  0
  1 34  1  0
  4 35  1  0
  5 36  1  0
 11 37  1  0
 11 38  1  0
 14 39  1  0
 19 40  1  0
 20 41  1  0
 21 42  1  0
 22 43  1  0
 25 44  1  0
 25 45  1  0
 25 46  1  0
 30 47  1  0
 30 48  1  0
 30 49  1  0
 31 50  1  0
M  END
$$$$
