
     RDKit          3D

 30 31  0  0  0  0  0  0  0  0999 V2000
    4.4424   -3.1594   -2.2051 C   0  0  0  0  0  0  0  0  0  0  0  0
    3.7926   -1.9570   -2.5986 O   0  0  0  0  0  0  0  0  0  0  0  0
    2.8779   -1.4349   -1.7270 C   0  0  0  0  0  0  0  0  0  0  0  0
    2.4899   -1.9946   -0.5102 C   0  0  0  0  0  0  0  0  0  0  0  0
    1.5358   -1.3521    0.2890 C   0  0  0  0  0  0  0  0  0  0  0  0
    0.9558   -0.1429   -0.1194 C   0  0  0  0  0  0  0  0  0  0  0  0
   -0.0524    0.5288    0.7309 C   0  0  0  0  0  0  0  0  0  0  0  0
    0.3481    0.9403    2.0429 C   0  0  0  0  0  0  0  0  0  0  0  0
    0.7463    1.2269    3.0963 N   0  0  0  0  0  0  0  0  0  0  0  0
   -1.2969    0.6760    0.2291 C   0  0  0  0  0  0  0  0  0  0  0  0
   -2.4733    1.2963    0.8587 C   0  0  0  0  0  0  0  0  0  0  0  0
   -3.7139    1.2431    0.2278 C   0  0  0  0  0  0  0  0  0  0  0  0
   -4.8107    1.8455    0.8416 C   0  0  0  0  0  0  0  0  0  0  0  0
   -4.6406    2.4841    2.0627 C   0  0  0  0  0  0  0  0  0  0  0  0
   -3.3745    2.4938    2.6188 C   0  0  0  0  0  0  0  0  0  0  0  0
   -2.2974    1.9180    2.0410 N   0  0  0  0  0  0  0  0  0  0  0  0
    1.3536    0.4164   -1.3409 C   0  0  0  0  0  0  0  0  0  0  0  0
    2.3050   -0.2287   -2.1359 C   0  0  0  0  0  0  0  0  0  0  0  0
    3.7250   -3.9807   -2.1066 H   0  0  0  0  0  0  0  0  0  0  0  0
    5.1513   -3.4296   -2.9937 H   0  0  0  0  0  0  0  0  0  0  0  0
    5.0112   -3.0172   -1.2803 H   0  0  0  0  0  0  0  0  0  0  0  0
    2.9088   -2.9286   -0.1502 H   0  0  0  0  0  0  0  0  0  0  0  0
    1.2508   -1.8100    1.2349 H   0  0  0  0  0  0  0  0  0  0  0  0
   -1.4969    0.2909   -0.7694 H   0  0  0  0  0  0  0  0  0  0  0  0
   -3.8408    0.7417   -0.7260 H   0  0  0  0  0  0  0  0  0  0  0  0
   -5.7887    1.8152    0.3697 H   0  0  0  0  0  0  0  0  0  0  0  0
   -5.4717    2.9622    2.5687 H   0  0  0  0  0  0  0  0  0  0  0  0
   -3.1817    2.9781    3.5721 H   0  0  0  0  0  0  0  0  0  0  0  0
    0.9373    1.3621   -1.6812 H   0  0  0  0  0  0  0  0  0  0  0  0
    2.6080    0.2165   -3.0809 H   0  0  0  0  0  0  0  0  0  0  0  0
  1  2  1  0
  2  3  1  0
  3  4  2  0
  4  5  1  0
  5  6  2  0
  6  7  1  0
  7  8  1  0
  8  9  3  0
  7 10  2  3
 10 11  1  0
 11 12  2  0
 12 13  1  0
 13 14  2  0
 14 15  1  0
 15 16  2  0
  6 17  1  0
 17 18  2  0
 18  3  1  0
 16 11  1  0
  1 19  1  0
  1 20  1  0
  1 21  1  0
  4 22  1  0
  5 23  1  0
 10 24  1  0
 12 25  1  0
 13 26  1  0
 14 27  1  0
 15 28  1  0
 17 29  1  0
 18 30  1  0
M  END
$$$$
