
     RDKit          3D

 54 57  0  0  0  0  0  0  0  0999 V2000
   -4.9887    4.4395   -1.7990 C   0  0  0  0  0  0  0  0  0  0  0  0
   -4.1064    3.2692   -1.4818 C   0  0  0  0  0  0  0  0  0  0  0  0
   -3.3735    2.6396   -2.4890 C   0  0  0  0  0  0  0  0  0  0  0  0
   -2.5047    1.5643   -2.2117 C   0  0  0  0  0  0  0  0  0  0  0  0
   -1.6870    1.0543   -3.3681 C   0  0  0  0  0  0  0  0  0  0  0  0
   -2.4166    1.0739   -0.8922 C   0  0  0  0  0  0  0  0  0  0  0  0
   -1.6141   -0.0305   -0.5190 N   0  0  0  0  0  0  0  0  0  0  0  0
   -1.4162   -1.1996   -1.2350 C   0  0  0  0  0  0  0  0  0  0  0  0
   -1.9926   -1.5265   -2.2695 O   0  0  0  0  0  0  0  0  0  0  0  0
   -0.4822   -2.1869   -0.5289 C   0  0  0  0  0  0  0  0  0  0  0  0
    0.7923   -1.5747   -0.1362 N   0  0  0  0  0  0  0  0  0  0  0  0
    0.8621   -1.0037    1.1283 C   0  0  0  0  0  0  0  0  0  0  0  0
   -0.1584   -0.8960    1.8159 O   0  0  0  0  0  0  0  0  0  0  0  0
    2.0932   -0.5273    1.5397 N   0  0  0  0  0  0  0  0  0  0  0  0
    2.2111   -0.0297    2.9028 C   0  0  0  0  0  0  0  0  0  0  0  0
    2.6721   -1.1331    3.7915 C   0  0  0  0  0  0  0  0  0  0  0  0
    3.9182   -1.6372    4.1055 C   0  0  0  0  0  0  0  0  0  0  0  0
    3.7021   -2.7001    5.0143 C   0  0  0  0  0  0  0  0  0  0  0  0
    2.3417   -2.7764    5.1978 C   0  0  0  0  0  0  0  0  0  0  0  0
    1.7080   -1.8294    4.4600 O   0  0  0  0  0  0  0  0  0  0  0  0
    3.2275   -0.4790    0.7437 C   0  0  0  0  0  0  0  0  0  0  0  0
    4.3130   -0.0431    1.1225 O   0  0  0  0  0  0  0  0  0  0  0  0
    3.0910   -0.9703   -0.6364 C   0  0  0  0  0  0  0  0  0  0  0  0
    4.1878   -0.8884   -1.5085 C   0  0  0  0  0  0  0  0  0  0  0  0
    4.0707   -1.3377   -2.8202 C   0  0  0  0  0  0  0  0  0  0  0  0
    2.8600   -1.8628   -3.2579 C   0  0  0  0  0  0  0  0  0  0  0  0
    1.7694   -1.9463   -2.3844 C   0  0  0  0  0  0  0  0  0  0  0  0
    1.8738   -1.5072   -1.0547 C   0  0  0  0  0  0  0  0  0  0  0  0
   -3.1110    1.7475    0.1433 C   0  0  0  0  0  0  0  0  0  0  0  0
   -3.0149    1.3249    1.5879 C   0  0  0  0  0  0  0  0  0  0  0  0
   -3.9451    2.8362   -0.1665 C   0  0  0  0  0  0  0  0  0  0  0  0
   -5.4185    4.3438   -2.8017 H   0  0  0  0  0  0  0  0  0  0  0  0
   -4.4120    5.3682   -1.7477 H   0  0  0  0  0  0  0  0  0  0  0  0
   -5.8240    4.5019   -1.0936 H   0  0  0  0  0  0  0  0  0  0  0  0
   -3.4592    3.0042   -3.5119 H   0  0  0  0  0  0  0  0  0  0  0  0
   -2.2405    0.2930   -3.9246 H   0  0  0  0  0  0  0  0  0  0  0  0
   -0.7201    0.6608   -3.0418 H   0  0  0  0  0  0  0  0  0  0  0  0
   -1.4527    1.8710   -4.0612 H   0  0  0  0  0  0  0  0  0  0  0  0
   -1.4116   -0.1240    0.4746 H   0  0  0  0  0  0  0  0  0  0  0  0
   -0.3084   -3.0645   -1.1594 H   0  0  0  0  0  0  0  0  0  0  0  0
   -1.0091   -2.5605    0.3581 H   0  0  0  0  0  0  0  0  0  0  0  0
    1.2520    0.3646    3.2564 H   0  0  0  0  0  0  0  0  0  0  0  0
    2.9285    0.7983    2.9398 H   0  0  0  0  0  0  0  0  0  0  0  0
    4.8624   -1.2794    3.7159 H   0  0  0  0  0  0  0  0  0  0  0  0
    4.4450   -3.3336    5.4779 H   0  0  0  0  0  0  0  0  0  0  0  0
    1.6994   -3.4148    5.7884 H   0  0  0  0  0  0  0  0  0  0  0  0
    5.1332   -0.4708   -1.1669 H   0  0  0  0  0  0  0  0  0  0  0  0
    4.9178   -1.2724   -3.4986 H   0  0  0  0  0  0  0  0  0  0  0  0
    2.7570   -2.2061   -4.2854 H   0  0  0  0  0  0  0  0  0  0  0  0
    0.8453   -2.3468   -2.7927 H   0  0  0  0  0  0  0  0  0  0  0  0
   -3.6780    1.9166    2.2281 H   0  0  0  0  0  0  0  0  0  0  0  0
   -1.9935    1.4653    1.9559 H   0  0  0  0  0  0  0  0  0  0  0  0
   -3.3094    0.2763    1.7004 H   0  0  0  0  0  0  0  0  0  0  0  0
   -4.4861    3.3454    0.6293 H   0  0  0  0  0  0  0  0  0  0  0  0
  1  2  1  0
  2  3  2  0
  3  4  1  0
  4  5  1  0
  4  6  2  0
  6  7  1  0
  7  8  1  0
  8  9  2  0
  8 10  1  0
 10 11  1  0
 11 12  1  0
 12 13  2  0
 12 14  1  0
 14 15  1  0
 15 16  1  0
 16 17  2  0
 17 18  1  0
 18 19  2  0
 19 20  1  0
 14 21  1  0
 21 22  2  0
 21 23  1  0
 23 24  2  0
 24 25  1  0
 25 26  2  0
 26 27  1  0
 27 28  2  0
  6 29  1  0
 29 30  1  0
 29 31  2  0
 31  2  1  0
 28 11  1  0
 20 16  1  0
 28 23  1  0
  1 32  1  0
  1 33  1  0
  1 34  1  0
  3 35  1  0
  5 36  1  0
  5 37  1  0
  5 38  1  0
  7 39  1  0
 10 40  1  0
 10 41  1  0
 15 42  1  0
 15 43  1  0
 17 44  1  0
 18 45  1  0
 19 46  1  0
 24 47  1  0
 25 48  1  0
 26 49  1  0
 27 50  1  0
 30 51  1  0
 30 52  1  0
 30 53  1  0
 31 54  1  0
M  END
$$$$
