
     RDKit          3D

 31 32  0  0  0  0  0  0  0  0999 V2000
    2.5822    1.5526    0.9413 C   0  0  0  0  0  0  0  0  0  0  0  0
    2.2423    1.1021   -0.4718 C   0  0  0  0  0  0  0  0  0  0  0  0
    2.4437   -0.3343   -0.6449 N   0  0  0  0  0  0  0  0  0  0  0  0
    1.6481   -1.3602   -0.2254 C   0  0  0  0  0  0  0  0  0  0  0  0
    0.3156   -1.1944    0.3153 C   0  0  0  0  0  0  0  0  0  0  0  0
   -0.1241   -1.9065    1.4164 C   0  0  0  0  0  0  0  0  0  0  0  0
   -1.7243   -1.5231    1.8673 S   0  0  0  0  0  0  0  0  0  0  0  0
   -1.8999   -0.4327    0.5596 C   0  0  0  0  0  0  0  0  0  0  0  0
   -3.2094    0.2923    0.3510 C   0  0  0  0  0  0  0  0  0  0  0  0
   -3.0129    1.8077    0.4287 C   0  0  0  0  0  0  0  0  0  0  0  0
   -3.8471   -0.1030   -0.9821 C   0  0  0  0  0  0  0  0  0  0  0  0
   -0.7407   -0.3667   -0.1917 C   0  0  0  0  0  0  0  0  0  0  0  0
    2.1835   -2.5449   -0.3231 N   0  0  0  0  0  0  0  0  0  0  0  0
    3.4162   -2.3086   -0.8549 N   0  0  0  0  0  0  0  0  0  0  0  0
    3.6121   -0.9483   -1.0336 C   0  0  0  0  0  0  0  0  0  0  0  0
    5.0286   -0.2975   -1.5963 S   0  0  0  0  0  0  0  0  0  0  0  0
    3.6240    1.3253    1.1892 H   0  0  0  0  0  0  0  0  0  0  0  0
    1.9479    1.0528    1.6803 H   0  0  0  0  0  0  0  0  0  0  0  0
    2.4347    2.6323    1.0409 H   0  0  0  0  0  0  0  0  0  0  0  0
    2.8678    1.6455   -1.1867 H   0  0  0  0  0  0  0  0  0  0  0  0
    1.2063    1.3592   -0.6954 H   0  0  0  0  0  0  0  0  0  0  0  0
    0.4347   -2.6333    1.9920 H   0  0  0  0  0  0  0  0  0  0  0  0
   -3.9134    0.0133    1.1463 H   0  0  0  0  0  0  0  0  0  0  0  0
   -2.5683    2.0964    1.3877 H   0  0  0  0  0  0  0  0  0  0  0  0
   -3.9726    2.3271    0.3338 H   0  0  0  0  0  0  0  0  0  0  0  0
   -2.3541    2.1732   -0.3670 H   0  0  0  0  0  0  0  0  0  0  0  0
   -3.2207    0.1862   -1.8334 H   0  0  0  0  0  0  0  0  0  0  0  0
   -4.0025   -1.1863   -1.0362 H   0  0  0  0  0  0  0  0  0  0  0  0
   -4.8215    0.3822   -1.1034 H   0  0  0  0  0  0  0  0  0  0  0  0
   -0.6641    0.2407   -1.0854 H   0  0  0  0  0  0  0  0  0  0  0  0
    4.0879   -3.0492   -1.0185 H   0  0  0  0  0  0  0  0  0  0  0  0
  1  2  1  0
  2  3  1  0
  3  4  1  0
  4  5  1  0
  5  6  2  0
  6  7  1  0
  7  8  1  0
  8  9  1  0
  9 10  1  0
  9 11  1  0
  8 12  2  0
  4 13  2  0
 13 14  1  0
 14 15  1  0
 15 16  2  0
 15  3  1  0
 12  5  1  0
  1 17  1  0
  1 18  1  0
  1 19  1  0
  2 20  1  0
  2 21  1  0
  6 22  1  0
  9 23  1  0
 10 24  1  0
 10 25  1  0
 10 26  1  0
 11 27  1  0
 11 28  1  0
 11 29  1  0
 12 30  1  0
 14 31  1  0
M  END
$$$$
