
     RDKit          3D

 26 27  0  0  0  0  0  0  0  0999 V2000
   -0.7021    0.9087   -1.8156 O   0  0  0  0  0  0  0  0  0  0  0  0
   -1.0597   -0.0100   -1.0782 C   0  0  0  0  0  0  0  0  0  0  0  0
   -0.1234   -1.1564   -0.6752 C   0  0  0  0  0  0  0  0  0  0  0  0
    1.1715   -1.0770   -1.2721 O   0  0  0  0  0  0  0  0  0  0  0  0
    2.0920   -0.5514   -0.4037 C   0  0  0  0  0  0  0  0  0  0  0  0
    2.4001    0.8044   -0.5249 C   0  0  0  0  0  0  0  0  0  0  0  0
    3.3543    1.3786    0.3156 C   0  0  0  0  0  0  0  0  0  0  0  0
    4.0120    0.5951    1.2648 C   0  0  0  0  0  0  0  0  0  0  0  0
    3.7224   -0.7673    1.3699 C   0  0  0  0  0  0  0  0  0  0  0  0
    2.7678   -1.3447    0.5302 C   0  0  0  0  0  0  0  0  0  0  0  0
    2.4517   -3.0352    0.6764 Cl  0  0  0  0  0  0  0  0  0  0  0  0
   -2.4105   -0.0509   -0.5421 C   0  0  0  0  0  0  0  0  0  0  0  0
   -3.0401   -0.9568    0.2953 C   0  0  0  0  0  0  0  0  0  0  0  0
   -4.3689   -0.5103    0.5012 C   0  0  0  0  0  0  0  0  0  0  0  0
   -4.5241    0.6546   -0.2127 C   0  0  0  0  0  0  0  0  0  0  0  0
   -3.3384    0.9245   -0.8400 N   0  0  0  0  0  0  0  0  0  0  0  0
   -0.5715   -2.0906   -1.0327 H   0  0  0  0  0  0  0  0  0  0  0  0
   -0.0755   -1.2039    0.4209 H   0  0  0  0  0  0  0  0  0  0  0  0
    1.8991    1.4121   -1.2752 H   0  0  0  0  0  0  0  0  0  0  0  0
    3.5896    2.4364    0.2238 H   0  0  0  0  0  0  0  0  0  0  0  0
    4.7586    1.0437    1.9159 H   0  0  0  0  0  0  0  0  0  0  0  0
    4.2496   -1.3731    2.1022 H   0  0  0  0  0  0  0  0  0  0  0  0
   -2.6018   -1.8507    0.7215 H   0  0  0  0  0  0  0  0  0  0  0  0
   -5.1303   -0.9883    1.1049 H   0  0  0  0  0  0  0  0  0  0  0  0
   -5.3746    1.3133   -0.3293 H   0  0  0  0  0  0  0  0  0  0  0  0
   -3.1477    1.7184   -1.4410 H   0  0  0  0  0  0  0  0  0  0  0  0
  1  2  2  0
  2  3  1  0
  3  4  1  0
  4  5  1  0
  5  6  2  0
  6  7  1  0
  7  8  2  0
  8  9  1  0
  9 10  2  0
 10 11  1  0
  2 12  1  0
 12 13  2  0
 13 14  1  0
 14 15  2  0
 15 16  1  0
 10  5  1  0
 16 12  1  0
  3 17  1  0
  3 18  1  0
  6 19  1  0
  7 20  1  0
  8 21  1  0
  9 22  1  0
 13 23  1  0
 14 24  1  0
 15 25  1  0
 16 26  1  0
M  END
$$$$
