
     RDKit          3D

 40 41  0  0  0  0  0  0  0  0999 V2000
   -6.9325    3.2067   -0.2798 C   0  0  0  0  0  0  0  0  0  0  0  0
   -5.7429    2.8101   -0.9512 O   0  0  0  0  0  0  0  0  0  0  0  0
   -4.6934    2.4139   -0.1704 C   0  0  0  0  0  0  0  0  0  0  0  0
   -4.6816    2.3568    1.2231 C   0  0  0  0  0  0  0  0  0  0  0  0
   -3.5322    1.9296    1.8990 C   0  0  0  0  0  0  0  0  0  0  0  0
   -2.3856    1.5527    1.1876 C   0  0  0  0  0  0  0  0  0  0  0  0
   -1.1948    1.1075    1.9594 C   0  0  0  0  0  0  0  0  0  0  0  0
   -1.1100    1.1823    3.1742 O   0  0  0  0  0  0  0  0  0  0  0  0
   -0.2464    0.5999    1.1329 O   0  0  0  0  0  0  0  0  0  0  0  0
    0.9318    0.1667    1.8219 C   0  0  0  0  0  0  0  0  0  0  0  0
    1.9095   -0.4862    0.8496 C   0  0  0  0  0  0  0  0  0  0  0  0
    3.1160   -0.5816    1.0715 O   0  0  0  0  0  0  0  0  0  0  0  0
    1.3291   -1.0208   -0.2831 N   0  0  0  0  0  0  0  0  0  0  0  0
    2.1522   -1.5260   -1.3660 C   0  0  0  0  0  0  0  0  0  0  0  0
    2.9265   -2.7999   -0.9932 C   0  0  0  0  0  0  0  0  0  0  0  0
    4.2625   -2.8009   -1.5520 N   0  0  0  0  0  0  0  0  0  0  0  0
    5.3962   -2.3759   -0.9008 C   0  0  0  0  0  0  0  0  0  0  0  0
    5.3627   -1.8838    0.3697 O   0  0  0  0  0  0  0  0  0  0  0  0
    6.5193   -2.4872   -1.6163 C   0  0  0  0  0  0  0  0  0  0  0  0
    6.2059   -3.1174   -3.2030 S   0  0  0  0  0  0  0  0  0  0  0  0
    4.4721   -3.2231   -2.8581 C   0  0  0  0  0  0  0  0  0  0  0  0
    3.6353   -3.5945   -3.6652 O   0  0  0  0  0  0  0  0  0  0  0  0
   -2.3969    1.6153   -0.2101 C   0  0  0  0  0  0  0  0  0  0  0  0
   -3.5476    2.0428   -0.8797 C   0  0  0  0  0  0  0  0  0  0  0  0
   -6.7539    4.0795    0.3570 H   0  0  0  0  0  0  0  0  0  0  0  0
   -7.3561    2.3769    0.2955 H   0  0  0  0  0  0  0  0  0  0  0  0
   -7.6656    3.4934   -1.0399 H   0  0  0  0  0  0  0  0  0  0  0  0
   -5.5464    2.6376    1.8157 H   0  0  0  0  0  0  0  0  0  0  0  0
   -3.5386    1.8926    2.9874 H   0  0  0  0  0  0  0  0  0  0  0  0
    0.6790   -0.5759    2.5868 H   0  0  0  0  0  0  0  0  0  0  0  0
    1.4290    1.0346    2.2686 H   0  0  0  0  0  0  0  0  0  0  0  0
    0.3805   -0.7213   -0.4865 H   0  0  0  0  0  0  0  0  0  0  0  0
    1.4905   -1.7237   -2.2161 H   0  0  0  0  0  0  0  0  0  0  0  0
    2.8330   -0.7169   -1.6569 H   0  0  0  0  0  0  0  0  0  0  0  0
    2.3824   -3.6652   -1.3932 H   0  0  0  0  0  0  0  0  0  0  0  0
    2.9878   -2.9654    0.0879 H   0  0  0  0  0  0  0  0  0  0  0  0
    4.4933   -1.4617    0.5405 H   0  0  0  0  0  0  0  0  0  0  0  0
    7.5049   -2.2089   -1.2716 H   0  0  0  0  0  0  0  0  0  0  0  0
   -1.5228    1.3457   -0.7955 H   0  0  0  0  0  0  0  0  0  0  0  0
   -3.5521    2.0913   -1.9667 H   0  0  0  0  0  0  0  0  0  0  0  0
  1  2  1  0
  2  3  1  0
  3  4  2  0
  4  5  1  0
  5  6  2  0
  6  7  1  0
  7  8  2  0
  7  9  1  0
  9 10  1  0
 10 11  1  0
 11 12  2  0
 11 13  1  0
 13 14  1  0
 14 15  1  0
 15 16  1  0
 16 17  1  0
 17 18  1  0
 17 19  2  0
 19 20  1  0
 20 21  1  0
 21 22  2  0
  6 23  1  0
 23 24  2  0
 24  3  1  0
 21 16  1  0
  1 25  1  0
  1 26  1  0
  1 27  1  0
  4 28  1  0
  5 29  1  0
 10 30  1  0
 10 31  1  0
 13 32  1  0
 14 33  1  0
 14 34  1  0
 15 35  1  0
 15 36  1  0
 18 37  1  0
 19 38  1  0
 23 39  1  0
 24 40  1  0
M  END
$$$$
