
     RDKit          3D

 34 37  0  0  0  0  0  0  0  0999 V2000
   -2.5581   -2.1521    1.6055 C   0  0  0  0  0  0  0  0  0  0  0  0
   -2.5945   -0.7348    1.4760 O   0  0  0  0  0  0  0  0  0  0  0  0
   -3.3351   -0.2402    0.4306 C   0  0  0  0  0  0  0  0  0  0  0  0
   -4.3763   -0.9371   -0.1917 C   0  0  0  0  0  0  0  0  0  0  0  0
   -5.0950   -0.3478   -1.2359 C   0  0  0  0  0  0  0  0  0  0  0  0
   -4.7798    0.9422   -1.6539 C   0  0  0  0  0  0  0  0  0  0  0  0
   -5.7582    1.7365   -3.0630 Br  0  0  0  0  0  0  0  0  0  0  0  0
   -3.7529    1.6546   -1.0384 C   0  0  0  0  0  0  0  0  0  0  0  0
   -3.0237    1.0669    0.0042 C   0  0  0  0  0  0  0  0  0  0  0  0
   -1.9520    1.8527    0.6306 C   0  0  0  0  0  0  0  0  0  0  0  0
   -0.6408    1.5902    0.5290 C   0  0  0  0  0  0  0  0  0  0  0  0
    0.5613    2.5609    1.3809 S   0  0  0  0  0  0  0  0  0  0  0  0
    1.8009    1.5464    0.7750 C   0  0  0  0  0  0  0  0  0  0  0  0
    3.0954    1.4961    0.8934 N   0  0  0  0  0  0  0  0  0  0  0  0
    3.4040    0.4056    0.0945 C   0  0  0  0  0  0  0  0  0  0  0  0
    4.8740   -0.0896   -0.1070 C   0  0  0  0  0  0  0  0  0  0  0  0
    5.2665   -1.1626   -0.8848 C   0  0  0  0  0  0  0  0  0  0  0  0
    6.6759   -1.2493   -0.7798 C   0  0  0  0  0  0  0  0  0  0  0  0
    7.0582   -0.2260    0.0543 C   0  0  0  0  0  0  0  0  0  0  0  0
    5.9761    0.4817    0.4671 O   0  0  0  0  0  0  0  0  0  0  0  0
    2.3473   -0.1935   -0.4950 N   0  0  0  0  0  0  0  0  0  0  0  0
    1.3411    0.5687   -0.0287 N   0  0  0  0  0  0  0  0  0  0  0  0
   -0.0138    0.4838   -0.2706 C   0  0  0  0  0  0  0  0  0  0  0  0
   -0.5056   -0.3428   -1.0157 O   0  0  0  0  0  0  0  0  0  0  0  0
   -1.7725   -2.4002    2.3257 H   0  0  0  0  0  0  0  0  0  0  0  0
   -3.5052   -2.5297    2.0036 H   0  0  0  0  0  0  0  0  0  0  0  0
   -2.3053   -2.6375    0.6566 H   0  0  0  0  0  0  0  0  0  0  0  0
   -4.6588   -1.9374    0.1200 H   0  0  0  0  0  0  0  0  0  0  0  0
   -5.8989   -0.9035   -1.7121 H   0  0  0  0  0  0  0  0  0  0  0  0
   -3.5165    2.6618   -1.3724 H   0  0  0  0  0  0  0  0  0  0  0  0
   -2.3056    2.6869    1.2329 H   0  0  0  0  0  0  0  0  0  0  0  0
    4.6059   -1.8002   -1.4567 H   0  0  0  0  0  0  0  0  0  0  0  0
    7.3310   -1.9672   -1.2529 H   0  0  0  0  0  0  0  0  0  0  0  0
    8.0111    0.1163    0.4336 H   0  0  0  0  0  0  0  0  0  0  0  0
  1  2  1  0
  2  3  1  0
  3  4  2  0
  4  5  1  0
  5  6  2  0
  6  7  1  0
  6  8  1  0
  8  9  2  0
  9 10  1  0
 10 11  2  3
 11 12  1  0
 12 13  1  0
 13 14  2  0
 14 15  1  0
 15 16  1  0
 16 17  2  0
 17 18  1  0
 18 19  2  0
 19 20  1  0
 15 21  2  0
 21 22  1  0
 22 23  1  0
 23 24  2  0
  9  3  1  0
 23 11  1  0
 22 13  1  0
 20 16  1  0
  1 25  1  0
  1 26  1  0
  1 27  1  0
  4 28  1  0
  5 29  1  0
  8 30  1  0
 10 31  1  0
 17 32  1  0
 18 33  1  0
 19 34  1  0
M  END
$$$$
