
     RDKit          3D

 33 34  0  0  0  0  0  0  0  0999 V2000
   -5.1788    1.2238   -1.7128 C   0  0  0  0  0  0  0  0  0  0  0  0
   -4.1075    0.3832   -1.0840 C   0  0  0  0  0  0  0  0  0  0  0  0
   -4.4298   -0.8421   -0.4938 C   0  0  0  0  0  0  0  0  0  0  0  0
   -3.4351   -1.6217    0.0970 C   0  0  0  0  0  0  0  0  0  0  0  0
   -2.1107   -1.1825    0.1156 C   0  0  0  0  0  0  0  0  0  0  0  0
   -1.2199   -2.0608    0.6610 O   0  0  0  0  0  0  0  0  0  0  0  0
   -1.7759    0.0650   -0.4163 C   0  0  0  0  0  0  0  0  0  0  0  0
   -0.4178    0.6735   -0.3634 C   0  0  0  0  0  0  0  0  0  0  0  0
   -0.0545    1.4242   -1.2698 O   0  0  0  0  0  0  0  0  0  0  0  0
    0.4898    0.3961    0.8068 C   0  0  0  0  0  0  0  0  0  0  0  0
    1.5570   -0.5969    0.4330 C   0  0  0  0  0  0  0  0  0  0  0  0
    1.2771   -1.6704   -0.1039 O   0  0  0  0  0  0  0  0  0  0  0  0
    2.9744   -0.2432    0.6569 C   0  0  0  0  0  0  0  0  0  0  0  0
    3.8223   -0.2999   -0.4597 C   0  0  0  0  0  0  0  0  0  0  0  0
    5.1725    0.0260   -0.3313 C   0  0  0  0  0  0  0  0  0  0  0  0
    5.6811    0.3997    0.9117 C   0  0  0  0  0  0  0  0  0  0  0  0
    4.8412    0.4413    2.0296 C   0  0  0  0  0  0  0  0  0  0  0  0
    3.4865    0.1151    1.9078 C   0  0  0  0  0  0  0  0  0  0  0  0
    2.5277    0.1276    3.3423 Cl  0  0  0  0  0  0  0  0  0  0  0  0
   -2.7811    0.8339   -1.0299 C   0  0  0  0  0  0  0  0  0  0  0  0
   -4.7520    1.9595   -2.4032 H   0  0  0  0  0  0  0  0  0  0  0  0
   -5.8691    0.5983   -2.2875 H   0  0  0  0  0  0  0  0  0  0  0  0
   -5.7399    1.7568   -0.9378 H   0  0  0  0  0  0  0  0  0  0  0  0
   -5.4550   -1.2052   -0.5021 H   0  0  0  0  0  0  0  0  0  0  0  0
   -3.6908   -2.5849    0.5309 H   0  0  0  0  0  0  0  0  0  0  0  0
   -0.3904   -2.0721    0.1329 H   0  0  0  0  0  0  0  0  0  0  0  0
   -0.0705    0.0307    1.6717 H   0  0  0  0  0  0  0  0  0  0  0  0
    0.9299    1.3558    1.1004 H   0  0  0  0  0  0  0  0  0  0  0  0
    3.4295   -0.5910   -1.4329 H   0  0  0  0  0  0  0  0  0  0  0  0
    5.8268   -0.0118   -1.1993 H   0  0  0  0  0  0  0  0  0  0  0  0
    6.7349    0.6512    1.0131 H   0  0  0  0  0  0  0  0  0  0  0  0
    5.2552    0.7194    2.9966 H   0  0  0  0  0  0  0  0  0  0  0  0
   -2.5270    1.8016   -1.4629 H   0  0  0  0  0  0  0  0  0  0  0  0
  1  2  1  0
  2  3  2  0
  3  4  1  0
  4  5  2  0
  5  6  1  0
  5  7  1  0
  7  8  1  0
  8  9  2  0
  8 10  1  0
 10 11  1  0
 11 12  2  0
 11 13  1  0
 13 14  2  0
 14 15  1  0
 15 16  2  0
 16 17  1  0
 17 18  2  0
 18 19  1  0
  7 20  2  0
 20  2  1  0
 18 13  1  0
  1 21  1  0
  1 22  1  0
  1 23  1  0
  3 24  1  0
  4 25  1  0
  6 26  1  0
 10 27  1  0
 10 28  1  0
 14 29  1  0
 15 30  1  0
 16 31  1  0
 17 32  1  0
 20 33  1  0
M  END
$$$$
