
     RDKit          3D

 48 52  0  0  0  0  0  0  0  0999 V2000
   -4.8908   -0.6909    0.1376 C   0  0  0  0  0  0  0  0  0  0  0  0
   -3.4500   -0.6130    0.0497 N   0  0  0  0  0  0  0  0  0  0  0  0
   -2.7553    0.4929   -0.3475 C   0  0  0  0  0  0  0  0  0  0  0  0
   -1.3974    0.2065   -0.3235 C   0  0  0  0  0  0  0  0  0  0  0  0
   -0.3164    1.1965   -0.7072 C   0  0  0  0  0  0  0  0  0  0  0  0
   -0.1577    1.1130   -2.2233 C   0  0  0  0  0  0  0  0  0  0  0  0
    0.1314   -0.0825   -2.8923 C   0  0  0  0  0  0  0  0  0  0  0  0
    0.2613   -0.0814   -4.2795 C   0  0  0  0  0  0  0  0  0  0  0  0
    0.1031    1.1071   -4.9772 C   0  0  0  0  0  0  0  0  0  0  0  0
   -0.1798    2.2518   -4.2553 C   0  0  0  0  0  0  0  0  0  0  0  0
   -0.3117    2.2823   -2.9113 N   0  0  0  0  0  0  0  0  0  0  0  0
    1.0287    1.0537   -0.0272 C   0  0  0  0  0  0  0  0  0  0  0  0
    2.2932    0.9357   -0.5867 C   0  0  0  0  0  0  0  0  0  0  0  0
    3.2215    0.8688    0.4156 N   0  0  0  0  0  0  0  0  0  0  0  0
    4.6465    0.7405    0.2083 C   0  0  0  0  0  0  0  0  0  0  0  0
    2.6085    0.9631    1.6432 C   0  0  0  0  0  0  0  0  0  0  0  0
    3.1427    0.9533    2.9422 C   0  0  0  0  0  0  0  0  0  0  0  0
    2.2604    1.0795    4.0182 C   0  0  0  0  0  0  0  0  0  0  0  0
    0.8927    1.2130    3.8070 C   0  0  0  0  0  0  0  0  0  0  0  0
    0.3721    1.2229    2.5088 C   0  0  0  0  0  0  0  0  0  0  0  0
    1.2382    1.0924    1.4005 C   0  0  0  0  0  0  0  0  0  0  0  0
   -1.2870   -1.1565    0.1344 C   0  0  0  0  0  0  0  0  0  0  0  0
   -0.2068   -2.0339    0.3832 C   0  0  0  0  0  0  0  0  0  0  0  0
   -0.4458   -3.3372    0.8326 C   0  0  0  0  0  0  0  0  0  0  0  0
   -1.7445   -3.7857    1.0369 C   0  0  0  0  0  0  0  0  0  0  0  0
   -2.8349   -2.9462    0.8008 C   0  0  0  0  0  0  0  0  0  0  0  0
   -2.5834   -1.6384    0.3525 C   0  0  0  0  0  0  0  0  0  0  0  0
   -5.3295    0.2642   -0.1625 H   0  0  0  0  0  0  0  0  0  0  0  0
   -5.1628   -0.9130    1.1727 H   0  0  0  0  0  0  0  0  0  0  0  0
   -5.2362   -1.4823   -0.5326 H   0  0  0  0  0  0  0  0  0  0  0  0
   -3.2661    1.4047   -0.6317 H   0  0  0  0  0  0  0  0  0  0  0  0
   -0.6835    2.2045   -0.4623 H   0  0  0  0  0  0  0  0  0  0  0  0
    0.2579   -1.0105   -2.3448 H   0  0  0  0  0  0  0  0  0  0  0  0
    0.4822   -1.0048   -4.8067 H   0  0  0  0  0  0  0  0  0  0  0  0
    0.1964    1.1410   -6.0563 H   0  0  0  0  0  0  0  0  0  0  0  0
   -0.3131    3.2080   -4.7529 H   0  0  0  0  0  0  0  0  0  0  0  0
    2.6032    0.9083   -1.6239 H   0  0  0  0  0  0  0  0  0  0  0  0
    4.9863   -0.1751    0.6991 H   0  0  0  0  0  0  0  0  0  0  0  0
    5.1391    1.6166    0.6378 H   0  0  0  0  0  0  0  0  0  0  0  0
    4.8588    0.6852   -0.8625 H   0  0  0  0  0  0  0  0  0  0  0  0
    4.2089    0.8531    3.1157 H   0  0  0  0  0  0  0  0  0  0  0  0
    2.6494    1.0736    5.0335 H   0  0  0  0  0  0  0  0  0  0  0  0
    0.2189    1.3076    4.6545 H   0  0  0  0  0  0  0  0  0  0  0  0
   -0.6998    1.3201    2.3605 H   0  0  0  0  0  0  0  0  0  0  0  0
    0.8181   -1.7066    0.2369 H   0  0  0  0  0  0  0  0  0  0  0  0
    0.3944   -3.9986    1.0267 H   0  0  0  0  0  0  0  0  0  0  0  0
   -1.9149   -4.8004    1.3882 H   0  0  0  0  0  0  0  0  0  0  0  0
   -3.8464   -3.3029    0.9654 H   0  0  0  0  0  0  0  0  0  0  0  0
  1  2  1  0
  2  3  1  0
  3  4  2  0
  4  5  1  0
  5  6  1  0
  6  7  2  0
  7  8  1  0
  8  9  2  0
  9 10  1  0
 10 11  2  0
  5 12  1  0
 12 13  2  0
 13 14  1  0
 14 15  1  0
 14 16  1  0
 16 17  2  0
 17 18  1  0
 18 19  2  0
 19 20  1  0
 20 21  2  0
  4 22  1  0
 22 23  2  0
 23 24  1  0
 24 25  2  0
 25 26  1  0
 26 27  2  0
 27  2  1  0
 11  6  1  0
 21 12  1  0
 27 22  1  0
 21 16  1  0
  1 28  1  0
  1 29  1  0
  1 30  1  0
  3 31  1  0
  5 32  1  0
  7 33  1  0
  8 34  1  0
  9 35  1  0
 10 36  1  0
 13 37  1  0
 15 38  1  0
 15 39  1  0
 15 40  1  0
 17 41  1  0
 18 42  1  0
 19 43  1  0
 20 44  1  0
 23 45  1  0
 24 46  1  0
 25 47  1  0
 26 48  1  0
M  END
$$$$
