
     RDKit          3D

 56 61  0  0  0  0  0  0  0  0999 V2000
    7.5532    1.2982   -3.2580 C   0  0  0  0  0  0  0  0  0  0  0  0
    8.0917    1.3284   -1.9402 O   0  0  0  0  0  0  0  0  0  0  0  0
    7.2774    0.8909   -0.9301 C   0  0  0  0  0  0  0  0  0  0  0  0
    7.9020    0.7635    0.3104 C   0  0  0  0  0  0  0  0  0  0  0  0
    7.1810    0.3226    1.4177 C   0  0  0  0  0  0  0  0  0  0  0  0
    5.8192    0.0114    1.2910 C   0  0  0  0  0  0  0  0  0  0  0  0
    5.0819   -0.4427    2.3958 C   0  0  0  0  0  0  0  0  0  0  0  0
    3.7278   -0.7384    2.1931 C   0  0  0  0  0  0  0  0  0  0  0  0
    2.6516   -1.2147    2.9790 C   0  0  0  0  0  0  0  0  0  0  0  0
    1.5421   -1.2930    2.1494 C   0  0  0  0  0  0  0  0  0  0  0  0
    0.1834   -1.7130    2.4725 C   0  0  0  0  0  0  0  0  0  0  0  0
   -0.1043   -2.0014    3.6357 O   0  0  0  0  0  0  0  0  0  0  0  0
   -0.7970   -1.7795    1.4783 N   0  0  0  0  0  0  0  0  0  0  0  0
   -0.5812   -1.5535    0.0450 C   0  0  0  0  0  0  0  0  0  0  0  0
   -1.7999   -1.9408   -0.8163 C   0  0  0  0  0  0  0  0  0  0  0  0
   -3.0849   -1.3486   -0.3910 N   0  0  0  0  0  0  0  0  0  0  0  0
   -3.3285   -0.0660   -1.0685 C   0  0  0  0  0  0  0  0  0  0  0  0
   -4.7187    0.4890   -0.8343 C   0  0  0  0  0  0  0  0  0  0  0  0
   -5.8588   -0.2472   -1.2315 C   0  0  0  0  0  0  0  0  0  0  0  0
   -7.1492    0.2613   -1.0457 C   0  0  0  0  0  0  0  0  0  0  0  0
   -7.2697    1.5007   -0.4630 C   0  0  0  0  0  0  0  0  0  0  0  0
   -6.1693    2.2228   -0.0690 C   0  0  0  0  0  0  0  0  0  0  0  0
   -4.8850    1.7485   -0.2394 C   0  0  0  0  0  0  0  0  0  0  0  0
   -6.5050    3.4160    0.4863 O   0  0  0  0  0  0  0  0  0  0  0  0
   -7.9418    3.3764    0.3626 C   0  0  0  0  0  0  0  0  0  0  0  0
   -8.4360    2.1506   -0.2109 O   0  0  0  0  0  0  0  0  0  0  0  0
   -3.1700   -1.2074    1.0827 C   0  0  0  0  0  0  0  0  0  0  0  0
   -2.1779   -2.0885    1.8621 C   0  0  0  0  0  0  0  0  0  0  0  0
    1.8930   -0.8694    0.8987 O   0  0  0  0  0  0  0  0  0  0  0  0
    3.2135   -0.5486    0.9180 C   0  0  0  0  0  0  0  0  0  0  0  0
    3.8724   -0.1177   -0.1686 N   0  0  0  0  0  0  0  0  0  0  0  0
    5.1689    0.1501    0.0377 C   0  0  0  0  0  0  0  0  0  0  0  0
    5.9186    0.5857   -1.0462 C   0  0  0  0  0  0  0  0  0  0  0  0
    7.2202    0.2890   -3.5281 H   0  0  0  0  0  0  0  0  0  0  0  0
    8.3512    1.5822   -3.9499 H   0  0  0  0  0  0  0  0  0  0  0  0
    6.7424    2.0253   -3.3677 H   0  0  0  0  0  0  0  0  0  0  0  0
    8.9587    1.0033    0.4129 H   0  0  0  0  0  0  0  0  0  0  0  0
    7.6923    0.2236    2.3768 H   0  0  0  0  0  0  0  0  0  0  0  0
    5.5381   -0.5710    3.3738 H   0  0  0  0  0  0  0  0  0  0  0  0
    2.6638   -1.4781    4.0282 H   0  0  0  0  0  0  0  0  0  0  0  0
   -0.3560   -0.4899   -0.0929 H   0  0  0  0  0  0  0  0  0  0  0  0
    0.2779   -2.1483   -0.2793 H   0  0  0  0  0  0  0  0  0  0  0  0
   -1.5898   -1.7240   -1.8703 H   0  0  0  0  0  0  0  0  0  0  0  0
   -1.9208   -3.0329   -0.7673 H   0  0  0  0  0  0  0  0  0  0  0  0
   -2.5691    0.6712   -0.7792 H   0  0  0  0  0  0  0  0  0  0  0  0
   -3.2291   -0.1950   -2.1535 H   0  0  0  0  0  0  0  0  0  0  0  0
   -5.7316   -1.2296   -1.6831 H   0  0  0  0  0  0  0  0  0  0  0  0
   -8.0244   -0.3005   -1.3490 H   0  0  0  0  0  0  0  0  0  0  0  0
   -4.0372    2.3421    0.0816 H   0  0  0  0  0  0  0  0  0  0  0  0
   -8.3825    3.5013    1.3565 H   0  0  0  0  0  0  0  0  0  0  0  0
   -8.2600    4.2108   -0.2720 H   0  0  0  0  0  0  0  0  0  0  0  0
   -4.1909   -1.4520    1.3991 H   0  0  0  0  0  0  0  0  0  0  0  0
   -2.9756   -0.1685    1.3832 H   0  0  0  0  0  0  0  0  0  0  0  0
   -2.3289   -1.9395    2.9351 H   0  0  0  0  0  0  0  0  0  0  0  0
   -2.3507   -3.1489    1.6512 H   0  0  0  0  0  0  0  0  0  0  0  0
    5.4015    0.6840   -1.9941 H   0  0  0  0  0  0  0  0  0  0  0  0
  1  2  1  0
  2  3  1  0
  3  4  2  0
  4  5  1  0
  5  6  2  0
  6  7  1  0
  7  8  2  0
  8  9  1  0
  9 10  2  0
 10 11  1  0
 11 12  2  0
 11 13  1  0
 13 14  1  0
 14 15  1  0
 15 16  1  0
 16 17  1  0
 17 18  1  0
 18 19  2  0
 19 20  1  0
 20 21  2  0
 21 22  1  0
 22 23  2  0
 22 24  1  0
 24 25  1  0
 25 26  1  0
 16 27  1  0
 27 28  1  0
 10 29  1  0
 29 30  1  0
 30 31  2  0
 31 32  1  0
 32 33  2  0
 33  3  1  0
 32  6  1  0
 30  8  1  0
 28 13  1  0
 23 18  1  0
 26 21  1  0
  1 34  1  0
  1 35  1  0
  1 36  1  0
  4 37  1  0
  5 38  1  0
  7 39  1  0
  9 40  1  0
 14 41  1  0
 14 42  1  0
 15 43  1  0
 15 44  1  0
 17 45  1  0
 17 46  1  0
 19 47  1  0
 20 48  1  0
 23 49  1  0
 25 50  1  0
 25 51  1  0
 27 52  1  0
 27 53  1  0
 28 54  1  0
 28 55  1  0
 33 56  1  0
M  END
$$$$
