
     RDKit          3D

 65 66  0  0  0  0  0  0  0  0999 V2000
   -4.2184    3.0828    5.8479 C   0  0  0  0  0  0  0  0  0  0  0  0
   -4.6175    2.9564    4.4889 O   0  0  0  0  0  0  0  0  0  0  0  0
   -3.8039    2.2246    3.6700 C   0  0  0  0  0  0  0  0  0  0  0  0
   -2.6606    1.5277    4.0562 C   0  0  0  0  0  0  0  0  0  0  0  0
   -1.9194    0.8127    3.1085 C   0  0  0  0  0  0  0  0  0  0  0  0
   -2.3080    0.7783    1.7576 C   0  0  0  0  0  0  0  0  0  0  0  0
   -1.4518   -0.0013    0.7633 C   0  0  0  0  0  0  0  0  0  0  0  0
   -2.2349   -0.4832   -0.4979 C   0  0  0  0  0  0  0  0  0  0  0  0
   -2.0565   -0.0070   -1.6187 O   0  0  0  0  0  0  0  0  0  0  0  0
   -3.1725   -1.4685   -0.2377 N   0  0  0  0  0  0  0  0  0  0  0  0
   -4.0572   -2.0823   -1.2392 C   0  0  0  0  0  0  0  0  0  0  0  0
   -4.9343   -3.1267   -0.5232 C   0  0  0  0  0  0  0  0  0  0  0  0
   -3.2434   -2.7955   -2.3306 C   0  0  0  0  0  0  0  0  0  0  0  0
   -4.9809   -1.0278   -1.8703 C   0  0  0  0  0  0  0  0  0  0  0  0
   -0.1895    0.6814    0.3963 N   0  0  0  0  0  0  0  0  0  0  0  0
   -0.1587    2.1498    0.2247 C   0  0  0  0  0  0  0  0  0  0  0  0
   -0.8565    2.6686   -1.0357 C   0  0  0  0  0  0  0  0  0  0  0  0
   -0.3711    2.0134   -2.2003 O   0  0  0  0  0  0  0  0  0  0  0  0
    0.8533   -0.1569    0.0013 C   0  0  0  0  0  0  0  0  0  0  0  0
    0.7302   -1.3849    0.0162 O   0  0  0  0  0  0  0  0  0  0  0  0
    2.1669    0.4850   -0.4086 C   0  0  0  0  0  0  0  0  0  0  0  0
    3.2023   -0.5664   -0.7953 C   0  0  0  0  0  0  0  0  0  0  0  0
    4.5792    0.0347   -1.0074 C   0  0  0  0  0  0  0  0  0  0  0  0
    4.8045    1.2225   -0.8139 O   0  0  0  0  0  0  0  0  0  0  0  0
    5.4844   -0.9315   -1.4061 N   0  0  0  0  0  0  0  0  0  0  0  0
    6.8282   -0.7063   -1.6364 C   0  0  0  0  0  0  0  0  0  0  0  0
    7.7358   -1.7280   -2.0127 C   0  0  0  0  0  0  0  0  0  0  0  0
    8.9486   -1.0958   -2.1233 C   0  0  0  0  0  0  0  0  0  0  0  0
   10.3125   -1.5304   -2.4694 C   0  0  0  0  0  0  0  0  0  0  0  0
    8.7839    0.2234   -1.8467 O   0  0  0  0  0  0  0  0  0  0  0  0
    7.4603    0.4663   -1.5379 N   0  0  0  0  0  0  0  0  0  0  0  0
   -3.4559    1.4893    1.3792 C   0  0  0  0  0  0  0  0  0  0  0  0
   -4.1950    2.1997    2.3294 C   0  0  0  0  0  0  0  0  0  0  0  0
   -4.9599    3.7072    6.3547 H   0  0  0  0  0  0  0  0  0  0  0  0
   -4.2041    2.1097    6.3502 H   0  0  0  0  0  0  0  0  0  0  0  0
   -3.2488    3.5849    5.9276 H   0  0  0  0  0  0  0  0  0  0  0  0
   -2.3154    1.5191    5.0850 H   0  0  0  0  0  0  0  0  0  0  0  0
   -1.0237    0.2812    3.4316 H   0  0  0  0  0  0  0  0  0  0  0  0
   -1.1742   -0.9332    1.2800 H   0  0  0  0  0  0  0  0  0  0  0  0
   -3.2167   -1.8303    0.7081 H   0  0  0  0  0  0  0  0  0  0  0  0
   -4.3204   -3.9093   -0.0621 H   0  0  0  0  0  0  0  0  0  0  0  0
   -5.6285   -3.6108   -1.2194 H   0  0  0  0  0  0  0  0  0  0  0  0
   -5.5274   -2.6661    0.2757 H   0  0  0  0  0  0  0  0  0  0  0  0
   -3.9007   -3.3296   -3.0262 H   0  0  0  0  0  0  0  0  0  0  0  0
   -2.6489   -2.0909   -2.9201 H   0  0  0  0  0  0  0  0  0  0  0  0
   -2.5501   -3.5237   -1.8922 H   0  0  0  0  0  0  0  0  0  0  0  0
   -5.7055   -1.4927   -2.5482 H   0  0  0  0  0  0  0  0  0  0  0  0
   -4.4209   -0.2877   -2.4501 H   0  0  0  0  0  0  0  0  0  0  0  0
   -5.5411   -0.4835   -1.1011 H   0  0  0  0  0  0  0  0  0  0  0  0
   -0.5840    2.6233    1.1146 H   0  0  0  0  0  0  0  0  0  0  0  0
    0.8823    2.4824    0.1929 H   0  0  0  0  0  0  0  0  0  0  0  0
   -1.9413    2.5409   -0.9840 H   0  0  0  0  0  0  0  0  0  0  0  0
   -0.6625    3.7398   -1.1466 H   0  0  0  0  0  0  0  0  0  0  0  0
   -0.8624    1.1636   -2.2452 H   0  0  0  0  0  0  0  0  0  0  0  0
    2.0013    1.1538   -1.2598 H   0  0  0  0  0  0  0  0  0  0  0  0
    2.5373    1.0717    0.4413 H   0  0  0  0  0  0  0  0  0  0  0  0
    3.2894   -1.3212   -0.0030 H   0  0  0  0  0  0  0  0  0  0  0  0
    2.8899   -1.0765   -1.7151 H   0  0  0  0  0  0  0  0  0  0  0  0
    5.1618   -1.8806   -1.5262 H   0  0  0  0  0  0  0  0  0  0  0  0
    7.5386   -2.7762   -2.1738 H   0  0  0  0  0  0  0  0  0  0  0  0
   10.5150   -1.3454   -3.5298 H   0  0  0  0  0  0  0  0  0  0  0  0
   11.0580   -0.9913   -1.8757 H   0  0  0  0  0  0  0  0  0  0  0  0
   10.4407   -2.6009   -2.2780 H   0  0  0  0  0  0  0  0  0  0  0  0
   -3.7960    1.5053    0.3457 H   0  0  0  0  0  0  0  0  0  0  0  0
   -5.0858    2.7429    2.0211 H   0  0  0  0  0  0  0  0  0  0  0  0
  1  2  1  0
  2  3  1  0
  3  4  2  0
  4  5  1  0
  5  6  2  0
  6  7  1  0
  7  8  1  0
  8  9  2  0
  8 10  1  0
 10 11  1  0
 11 12  1  0
 11 13  1  0
 11 14  1  0
  7 15  1  0
 15 16  1  0
 16 17  1  0
 17 18  1  0
 15 19  1  0
 19 20  2  0
 19 21  1  0
 21 22  1  0
 22 23  1  0
 23 24  2  0
 23 25  1  0
 25 26  1  0
 26 27  1  0
 27 28  2  0
 28 29  1  0
 28 30  1  0
 30 31  1  0
  6 32  1  0
 32 33  2  0
 33  3  1  0
 31 26  2  0
  1 34  1  0
  1 35  1  0
  1 36  1  0
  4 37  1  0
  5 38  1  0
  7 39  1  0
 10 40  1  0
 12 41  1  0
 12 42  1  0
 12 43  1  0
 13 44  1  0
 13 45  1  0
 13 46  1  0
 14 47  1  0
 14 48  1  0
 14 49  1  0
 16 50  1  0
 16 51  1  0
 17 52  1  0
 17 53  1  0
 18 54  1  0
 21 55  1  0
 21 56  1  0
 22 57  1  0
 22 58  1  0
 25 59  1  0
 27 60  1  0
 29 61  1  0
 29 62  1  0
 29 63  1  0
 32 64  1  0
 33 65  1  0
M  END
$$$$
