
     RDKit          3D

 29 30  0  0  0  0  0  0  0  0999 V2000
   -3.4449   -0.6157   -0.4027 C   0  0  0  0  0  0  0  0  0  0  0  0
   -2.2051   -0.1469    0.3049 C   0  0  0  0  0  0  0  0  0  0  0  0
   -1.0276   -0.8012    0.3641 C   0  0  0  0  0  0  0  0  0  0  0  0
   -0.7899   -2.1729   -0.2112 C   0  0  0  0  0  0  0  0  0  0  0  0
    0.1771   -0.1896    1.0554 C   0  0  0  0  0  0  0  0  0  0  0  0
    1.3270    0.1106    0.1067 C   0  0  0  0  0  0  0  0  0  0  0  0
    1.2013    1.0767   -0.9059 C   0  0  0  0  0  0  0  0  0  0  0  0
    2.2621    1.3426   -1.7731 C   0  0  0  0  0  0  0  0  0  0  0  0
    3.4617    0.6470   -1.6410 C   0  0  0  0  0  0  0  0  0  0  0  0
    3.6026   -0.3143   -0.6423 C   0  0  0  0  0  0  0  0  0  0  0  0
    2.5429   -0.5817    0.2269 C   0  0  0  0  0  0  0  0  0  0  0  0
   -0.1769    1.0015    1.7991 N   0  0  0  0  0  0  0  0  0  0  0  0
   -1.3452    1.6682    1.6639 C   0  0  0  0  0  0  0  0  0  0  0  0
   -1.5894    3.1391    2.3971 S   0  0  0  0  0  0  0  0  0  0  0  0
   -2.3157    1.0782    0.9195 N   0  0  0  0  0  0  0  0  0  0  0  0
   -3.8958    0.2071   -0.9694 H   0  0  0  0  0  0  0  0  0  0  0  0
   -3.2523   -1.4148   -1.1227 H   0  0  0  0  0  0  0  0  0  0  0  0
   -4.1814   -0.9739    0.3238 H   0  0  0  0  0  0  0  0  0  0  0  0
   -0.2066   -2.1061   -1.1349 H   0  0  0  0  0  0  0  0  0  0  0  0
   -0.2365   -2.7931    0.5025 H   0  0  0  0  0  0  0  0  0  0  0  0
   -1.7145   -2.7127   -0.4300 H   0  0  0  0  0  0  0  0  0  0  0  0
    0.5223   -0.8935    1.8239 H   0  0  0  0  0  0  0  0  0  0  0  0
    0.2704    1.6291   -1.0204 H   0  0  0  0  0  0  0  0  0  0  0  0
    2.1509    2.0942   -2.5503 H   0  0  0  0  0  0  0  0  0  0  0  0
    4.2875    0.8555   -2.3162 H   0  0  0  0  0  0  0  0  0  0  0  0
    4.5395   -0.8558   -0.5397 H   0  0  0  0  0  0  0  0  0  0  0  0
    2.6743   -1.3361    0.9995 H   0  0  0  0  0  0  0  0  0  0  0  0
    0.5560    1.4748    2.3099 H   0  0  0  0  0  0  0  0  0  0  0  0
   -3.1937    1.5833    0.8623 H   0  0  0  0  0  0  0  0  0  0  0  0
  1  2  1  0
  2  3  2  0
  3  4  1  0
  3  5  1  0
  5  6  1  0
  6  7  2  0
  7  8  1  0
  8  9  2  0
  9 10  1  0
 10 11  2  0
  5 12  1  0
 12 13  1  0
 13 14  2  0
 13 15  1  0
 15  2  1  0
 11  6  1  0
  1 16  1  0
  1 17  1  0
  1 18  1  0
  4 19  1  0
  4 20  1  0
  4 21  1  0
  5 22  1  0
  7 23  1  0
  8 24  1  0
  9 25  1  0
 10 26  1  0
 11 27  1  0
 12 28  1  0
 15 29  1  0
M  END
$$$$
