
     RDKit          3D

 44 46  0  0  0  0  0  0  0  0999 V2000
   -3.5620    2.7961   -2.3915 C   0  0  0  0  0  0  0  0  0  0  0  0
   -4.3927    1.7732   -1.6125 C   0  0  0  0  0  0  0  0  0  0  0  0
   -5.3090    2.4689   -0.6030 C   0  0  0  0  0  0  0  0  0  0  0  0
   -3.5111    0.7329   -0.9419 C   0  0  0  0  0  0  0  0  0  0  0  0
   -3.6378   -0.6198   -1.2991 C   0  0  0  0  0  0  0  0  0  0  0  0
   -2.8395   -1.5946   -0.6978 C   0  0  0  0  0  0  0  0  0  0  0  0
   -1.9001   -1.2171    0.2634 C   0  0  0  0  0  0  0  0  0  0  0  0
   -0.8915   -2.4591    1.0285 S   0  0  0  0  0  6  0  0  0  0  0  0
   -1.7163   -3.6373    1.1999 O   0  0  0  0  0  0  0  0  0  0  0  0
   -0.1889   -1.8720    2.1489 O   0  0  0  0  0  0  0  0  0  0  0  0
    0.2172   -2.8421   -0.1923 N   0  0  0  0  0  0  0  0  0  0  0  0
    1.3534   -2.0008   -0.3454 C   0  0  0  0  0  0  0  0  0  0  0  0
    1.2578   -0.8407   -1.1107 C   0  0  0  0  0  0  0  0  0  0  0  0
    2.3596    0.0049   -1.2232 C   0  0  0  0  0  0  0  0  0  0  0  0
    3.5452   -0.3067   -0.5598 C   0  0  0  0  0  0  0  0  0  0  0  0
    4.5699    0.5870   -0.7127 O   0  0  0  0  0  0  0  0  0  0  0  0
    3.6563   -1.4718    0.2137 C   0  0  0  0  0  0  0  0  0  0  0  0
    5.1716   -1.9904    1.0064 S   0  0  0  0  0  0  0  0  0  0  0  0
    5.3966   -0.7595    2.2153 C   0  0  0  0  0  0  0  0  0  0  0  0
    5.3957   -1.0123    3.5573 N   0  0  0  0  0  0  0  0  0  0  0  0
    5.6135    0.1702    4.0817 C   0  0  0  0  0  0  0  0  0  0  0  0
    5.7552    1.0875    3.0895 N   0  0  0  0  0  0  0  0  0  0  0  0
    5.6360    0.5151    1.8775 N   0  0  0  0  0  0  0  0  0  0  0  0
    2.5422   -2.3168    0.3163 C   0  0  0  0  0  0  0  0  0  0  0  0
   -1.7682    0.1193    0.6442 C   0  0  0  0  0  0  0  0  0  0  0  0
   -2.5692    1.0889    0.0380 C   0  0  0  0  0  0  0  0  0  0  0  0
   -2.9139    2.2992   -3.1219 H   0  0  0  0  0  0  0  0  0  0  0  0
   -2.9241    3.3942   -1.7318 H   0  0  0  0  0  0  0  0  0  0  0  0
   -4.2147    3.4861   -2.9372 H   0  0  0  0  0  0  0  0  0  0  0  0
   -5.0408    1.2652   -2.3391 H   0  0  0  0  0  0  0  0  0  0  0  0
   -4.7425    3.0526    0.1307 H   0  0  0  0  0  0  0  0  0  0  0  0
   -5.9948    3.1534   -1.1140 H   0  0  0  0  0  0  0  0  0  0  0  0
   -5.9127    1.7379   -0.0536 H   0  0  0  0  0  0  0  0  0  0  0  0
   -4.3654   -0.9252   -2.0487 H   0  0  0  0  0  0  0  0  0  0  0  0
   -2.9547   -2.6384   -0.9811 H   0  0  0  0  0  0  0  0  0  0  0  0
    0.3676   -3.8499   -0.2310 H   0  0  0  0  0  0  0  0  0  0  0  0
    0.3391   -0.5922   -1.6345 H   0  0  0  0  0  0  0  0  0  0  0  0
    2.2961    0.9091   -1.8225 H   0  0  0  0  0  0  0  0  0  0  0  0
    5.1678    0.4856    0.0599 H   0  0  0  0  0  0  0  0  0  0  0  0
    5.6780    0.4122    5.1330 H   0  0  0  0  0  0  0  0  0  0  0  0
    5.9321    2.0840    3.1590 H   0  0  0  0  0  0  0  0  0  0  0  0
    2.5988   -3.2187    0.9210 H   0  0  0  0  0  0  0  0  0  0  0  0
   -1.0462    0.4144    1.4025 H   0  0  0  0  0  0  0  0  0  0  0  0
   -2.4536    2.1277    0.3405 H   0  0  0  0  0  0  0  0  0  0  0  0
  1  2  1  0
  2  3  1  0
  2  4  1  0
  4  5  2  0
  5  6  1  0
  6  7  2  0
  7  8  1  0
  8  9  2  0
  8 10  2  0
  8 11  1  0
 11 12  1  0
 12 13  2  0
 13 14  1  0
 14 15  2  0
 15 16  1  0
 15 17  1  0
 17 18  1  0
 18 19  1  0
 19 20  1  0
 20 21  2  0
 21 22  1  0
 22 23  1  0
 17 24  2  0
  7 25  1  0
 25 26  2  0
 26  4  1  0
 24 12  1  0
 23 19  2  0
  1 27  1  0
  1 28  1  0
  1 29  1  0
  2 30  1  0
  3 31  1  0
  3 32  1  0
  3 33  1  0
  5 34  1  0
  6 35  1  0
 11 36  1  0
 13 37  1  0
 14 38  1  0
 16 39  1  0
 21 40  1  0
 22 41  1  0
 24 42  1  0
 25 43  1  0
 26 44  1  0
M  END
$$$$
