
     RDKit          3D

 24 24  0  0  0  0  0  0  0  0999 V2000
   -4.7141   -0.6705   -0.6298 C   0  0  0  0  0  0  0  0  0  0  0  0
   -3.4701   -0.4798    0.0932 N   0  0  0  0  0  0  0  0  0  0  0  0
   -2.1955   -0.6263   -0.4512 C   0  0  0  0  0  0  0  0  0  0  0  0
   -1.9096   -1.1592   -2.0095 S   0  0  0  0  0  0  0  0  0  0  0  0
   -1.2563   -0.3271    0.5282 N   0  0  0  0  0  0  0  0  0  0  0  0
    0.1286   -0.0636    0.4450 C   0  0  0  0  0  0  0  0  0  0  0  0
    0.8744   -0.2043    1.6224 C   0  0  0  0  0  0  0  0  0  0  0  0
    2.2477    0.0607    1.6395 C   0  0  0  0  0  0  0  0  0  0  0  0
    2.9010    0.4786    0.4778 C   0  0  0  0  0  0  0  0  0  0  0  0
    4.3666    0.7944    0.4966 C   0  0  0  0  0  0  0  0  0  0  0  0
    2.1506    0.6594   -0.6875 C   0  0  0  0  0  0  0  0  0  0  0  0
    0.7758    0.3928   -0.7022 C   0  0  0  0  0  0  0  0  0  0  0  0
   -4.7327   -1.6585   -1.0965 H   0  0  0  0  0  0  0  0  0  0  0  0
   -5.5384   -0.5895    0.0831 H   0  0  0  0  0  0  0  0  0  0  0  0
   -4.8100    0.1076   -1.3918 H   0  0  0  0  0  0  0  0  0  0  0  0
   -3.5210    0.1721    0.8643 H   0  0  0  0  0  0  0  0  0  0  0  0
   -1.5954   -0.5100    1.4633 H   0  0  0  0  0  0  0  0  0  0  0  0
    0.4018   -0.5357    2.5432 H   0  0  0  0  0  0  0  0  0  0  0  0
    2.8023   -0.0642    2.5667 H   0  0  0  0  0  0  0  0  0  0  0  0
    4.5196    1.8464    0.7564 H   0  0  0  0  0  0  0  0  0  0  0  0
    4.8914    0.1694    1.2267 H   0  0  0  0  0  0  0  0  0  0  0  0
    4.8202    0.6013   -0.4812 H   0  0  0  0  0  0  0  0  0  0  0  0
    2.6268    1.0170   -1.5981 H   0  0  0  0  0  0  0  0  0  0  0  0
    0.2364    0.5890   -1.6220 H   0  0  0  0  0  0  0  0  0  0  0  0
  1  2  1  0
  2  3  1  0
  3  4  2  0
  3  5  1  0
  5  6  1  0
  6  7  2  0
  7  8  1  0
  8  9  2  0
  9 10  1  0
  9 11  1  0
 11 12  2  0
 12  6  1  0
  1 13  1  0
  1 14  1  0
  1 15  1  0
  2 16  1  0
  5 17  1  0
  7 18  1  0
  8 19  1  0
 10 20  1  0
 10 21  1  0
 10 22  1  0
 11 23  1  0
 12 24  1  0
M  END
$$$$
