
     RDKit          3D

 64 69  0  0  0  0  0  0  0  0999 V2000
    6.1674    3.2183   -0.3331 F   0  0  0  0  0  0  0  0  0  0  0  0
    7.1406    2.5018    0.2998 C   0  0  0  0  0  0  0  0  0  0  0  0
    7.2345    3.0278    1.5536 F   0  0  0  0  0  0  0  0  0  0  0  0
    8.3051    2.8389   -0.3278 F   0  0  0  0  0  0  0  0  0  0  0  0
    6.8686    1.0130    0.3124 C   0  0  0  0  0  0  0  0  0  0  0  0
    7.8826    0.1347   -0.1215 C   0  0  0  0  0  0  0  0  0  0  0  0
    7.6870   -1.2472   -0.1278 C   0  0  0  0  0  0  0  0  0  0  0  0
    6.4759   -1.7762    0.3033 C   0  0  0  0  0  0  0  0  0  0  0  0
    5.4630   -0.9253    0.7436 C   0  0  0  0  0  0  0  0  0  0  0  0
    5.6403    0.4716    0.7601 C   0  0  0  0  0  0  0  0  0  0  0  0
    4.4879    1.3366    1.2426 C   0  0  0  0  0  0  0  0  0  0  0  0
    3.4397    1.6376    0.1502 C   0  0  0  0  0  0  0  0  0  0  0  0
    2.6319    0.4678   -0.2289 N   0  0  0  0  0  0  0  0  0  0  0  0
    1.6008    0.1015    0.7648 C   0  0  0  0  0  0  0  0  0  0  0  0
    0.1454    0.4669    0.3900 C   0  0  0  0  0  0  0  0  0  0  0  0
   -0.2436   -0.0814   -0.9187 N   0  0  0  0  0  0  0  0  0  0  0  0
   -1.4224   -0.8060   -1.0881 C   0  0  0  0  0  0  0  0  0  0  0  0
   -1.3881   -1.8623   -1.8648 N   0  0  0  0  0  0  0  0  0  0  0  0
   -2.5287   -2.6661   -2.0477 C   0  0  0  0  0  0  0  0  0  0  0  0
   -2.4225   -3.7908   -2.8690 C   0  0  0  0  0  0  0  0  0  0  0  0
   -3.5204   -4.6300   -3.0776 C   0  0  0  0  0  0  0  0  0  0  0  0
   -4.7413   -4.3499   -2.4625 C   0  0  0  0  0  0  0  0  0  0  0  0
   -4.8693   -3.2323   -1.6353 C   0  0  0  0  0  0  0  0  0  0  0  0
   -3.7606   -2.4027   -1.4351 C   0  0  0  0  0  0  0  0  0  0  0  0
   -3.8022   -1.2531   -0.6287 N   0  0  0  0  0  0  0  0  0  0  0  0
   -4.8562   -0.7266    0.0813 C   0  0  0  0  0  0  0  0  0  0  0  0
   -4.4442    0.4557    0.6655 C   0  0  0  0  0  0  0  0  0  0  0  0
   -5.3054    1.3097    1.4693 C   0  0  0  0  0  0  0  0  0  0  0  0
   -6.2292    0.7590    2.3693 C   0  0  0  0  0  0  0  0  0  0  0  0
   -7.0380    1.5873    3.1516 C   0  0  0  0  0  0  0  0  0  0  0  0
   -6.9326    2.9733    3.0397 C   0  0  0  0  0  0  0  0  0  0  0  0
   -6.0186    3.5321    2.1475 C   0  0  0  0  0  0  0  0  0  0  0  0
   -5.2068    2.7045    1.3671 C   0  0  0  0  0  0  0  0  0  0  0  0
   -3.0861    0.6408    0.2871 C   0  0  0  0  0  0  0  0  0  0  0  0
   -2.6917   -0.4527   -0.4651 C   0  0  0  0  0  0  0  0  0  0  0  0
    0.8782   -0.3298   -1.8448 C   0  0  0  0  0  0  0  0  0  0  0  0
    2.0432    0.6399   -1.5725 C   0  0  0  0  0  0  0  0  0  0  0  0
    8.8391    0.5282   -0.4664 H   0  0  0  0  0  0  0  0  0  0  0  0
    8.4783   -1.9086   -0.4722 H   0  0  0  0  0  0  0  0  0  0  0  0
    6.3164   -2.8516    0.2928 H   0  0  0  0  0  0  0  0  0  0  0  0
    4.5164   -1.3581    1.0671 H   0  0  0  0  0  0  0  0  0  0  0  0
    4.8751    2.2871    1.6302 H   0  0  0  0  0  0  0  0  0  0  0  0
    4.0239    0.8577    2.1137 H   0  0  0  0  0  0  0  0  0  0  0  0
    3.9751    2.0152   -0.7311 H   0  0  0  0  0  0  0  0  0  0  0  0
    2.7836    2.4497    0.4893 H   0  0  0  0  0  0  0  0  0  0  0  0
    1.6509   -0.9890    0.8794 H   0  0  0  0  0  0  0  0  0  0  0  0
    1.8246    0.5108    1.7555 H   0  0  0  0  0  0  0  0  0  0  0  0
    0.0359    1.5571    0.3625 H   0  0  0  0  0  0  0  0  0  0  0  0
   -0.5018    0.0849    1.1872 H   0  0  0  0  0  0  0  0  0  0  0  0
   -1.4719   -4.0120   -3.3475 H   0  0  0  0  0  0  0  0  0  0  0  0
   -3.4190   -5.5006   -3.7201 H   0  0  0  0  0  0  0  0  0  0  0  0
   -5.5944   -5.0041   -2.6300 H   0  0  0  0  0  0  0  0  0  0  0  0
   -5.8301   -3.0345   -1.1707 H   0  0  0  0  0  0  0  0  0  0  0  0
   -5.8218   -1.2116    0.0976 H   0  0  0  0  0  0  0  0  0  0  0  0
   -6.3157   -0.3197    2.4826 H   0  0  0  0  0  0  0  0  0  0  0  0
   -7.7472    1.1493    3.8497 H   0  0  0  0  0  0  0  0  0  0  0  0
   -7.5614    3.6177    3.6484 H   0  0  0  0  0  0  0  0  0  0  0  0
   -5.9374    4.6126    2.0577 H   0  0  0  0  0  0  0  0  0  0  0  0
   -4.5063    3.1591    0.6702 H   0  0  0  0  0  0  0  0  0  0  0  0
   -2.4613    1.4828    0.5526 H   0  0  0  0  0  0  0  0  0  0  0  0
    1.2296   -1.3649   -1.7487 H   0  0  0  0  0  0  0  0  0  0  0  0
    0.5343   -0.1848   -2.8761 H   0  0  0  0  0  0  0  0  0  0  0  0
    2.8254    0.4748   -2.3213 H   0  0  0  0  0  0  0  0  0  0  0  0
    1.6756    1.6662   -1.7023 H   0  0  0  0  0  0  0  0  0  0  0  0
  1  2  1  0
  2  3  1  0
  2  4  1  0
  2  5  1  0
  5  6  2  0
  6  7  1  0
  7  8  2  0
  8  9  1  0
  9 10  2  0
 10 11  1  0
 11 12  1  0
 12 13  1  0
 13 14  1  0
 14 15  1  0
 15 16  1  0
 16 17  1  0
 17 18  2  0
 18 19  1  0
 19 20  2  0
 20 21  1  0
 21 22  2  0
 22 23  1  0
 23 24  2  0
 24 25  1  0
 25 26  1  0
 26 27  2  0
 27 28  1  0
 28 29  2  0
 29 30  1  0
 30 31  2  0
 31 32  1  0
 32 33  2  0
 27 34  1  0
 34 35  2  0
 16 36  1  0
 36 37  1  0
 10  5  1  0
 37 13  1  0
 35 17  1  0
 24 19  1  0
 35 25  1  0
 33 28  1  0
  6 38  1  0
  7 39  1  0
  8 40  1  0
  9 41  1  0
 11 42  1  0
 11 43  1  0
 12 44  1  0
 12 45  1  0
 14 46  1  0
 14 47  1  0
 15 48  1  0
 15 49  1  0
 20 50  1  0
 21 51  1  0
 22 52  1  0
 23 53  1  0
 26 54  1  0
 29 55  1  0
 30 56  1  0
 31 57  1  0
 32 58  1  0
 33 59  1  0
 34 60  1  0
 36 61  1  0
 36 62  1  0
 37 63  1  0
 37 64  1  0
M  END
$$$$
