
     RDKit          3D

 57 59  0  0  0  0  0  0  0  0999 V2000
    4.2292    2.5990    3.1824 C   0  0  0  0  0  0  0  0  0  0  0  0
    4.2161    1.3464    2.3126 C   0  0  0  0  0  0  0  0  0  0  0  0
    5.6045    1.3674    1.1033 S   0  0  0  0  0  0  0  0  0  0  0  0
    7.0086    1.1685    2.2454 C   0  0  0  0  0  0  0  0  0  0  0  0
    8.2746    0.8267    1.5017 C   0  0  0  0  0  0  0  0  0  0  0  0
    8.6463   -0.5113    1.3015 C   0  0  0  0  0  0  0  0  0  0  0  0
    9.8157   -0.8255    0.6065 C   0  0  0  0  0  0  0  0  0  0  0  0
   10.6216    0.1922    0.0995 C   0  0  0  0  0  0  0  0  0  0  0  0
   10.2579    1.5249    0.2829 C   0  0  0  0  0  0  0  0  0  0  0  0
    9.0895    1.8417    0.9780 C   0  0  0  0  0  0  0  0  0  0  0  0
    2.8723    1.1978    1.5756 C   0  0  0  0  0  0  0  0  0  0  0  0
    1.8855    1.8709    1.8694 O   0  0  0  0  0  0  0  0  0  0  0  0
    2.8890    0.1637    0.6352 N   0  0  0  0  0  0  0  0  0  0  0  0
    1.8604   -0.1226   -0.2276 N   0  0  0  0  0  0  0  0  0  0  0  0
    0.6523   -0.0797    0.2400 C   0  0  0  0  0  0  0  0  0  0  0  0
   -0.5219   -0.3383   -0.6185 C   0  0  0  0  0  0  0  0  0  0  0  0
   -1.7964   -0.2965   -0.0476 C   0  0  0  0  0  0  0  0  0  0  0  0
   -2.9259   -0.5471   -0.8358 C   0  0  0  0  0  0  0  0  0  0  0  0
   -2.7829   -0.8446   -2.1922 C   0  0  0  0  0  0  0  0  0  0  0  0
   -3.8013   -1.1024   -3.0667 O   0  0  0  0  0  0  0  0  0  0  0  0
   -5.0385   -1.5331   -2.5247 C   0  0  0  0  0  0  0  0  0  0  0  0
   -6.0266   -0.4270   -2.1312 C   0  0  0  0  0  0  0  0  0  0  0  0
   -5.7975    0.7733   -2.2402 O   0  0  0  0  0  0  0  0  0  0  0  0
   -7.2177   -0.9112   -1.6308 N   0  0  0  0  0  0  0  0  0  0  0  0
   -8.2096   -0.0063   -1.0984 C   0  0  0  0  0  0  0  0  0  0  0  0
   -9.4505   -0.7702   -0.8266 C   0  0  0  0  0  0  0  0  0  0  0  0
  -10.7571   -0.6384   -1.2488 C   0  0  0  0  0  0  0  0  0  0  0  0
  -11.4835   -1.6879   -0.6362 C   0  0  0  0  0  0  0  0  0  0  0  0
  -10.5764   -2.3934    0.1186 C   0  0  0  0  0  0  0  0  0  0  0  0
   -9.3382   -1.8474    0.0081 O   0  0  0  0  0  0  0  0  0  0  0  0
   -1.5053   -0.8624   -2.7599 C   0  0  0  0  0  0  0  0  0  0  0  0
   -0.3742   -0.6162   -1.9782 C   0  0  0  0  0  0  0  0  0  0  0  0
    3.3889    2.5877    3.8865 H   0  0  0  0  0  0  0  0  0  0  0  0
    4.1322    3.5098    2.5804 H   0  0  0  0  0  0  0  0  0  0  0  0
    5.1420    2.6732    3.7809 H   0  0  0  0  0  0  0  0  0  0  0  0
    4.3226    0.4585    2.9467 H   0  0  0  0  0  0  0  0  0  0  0  0
    7.1581    2.0946    2.8104 H   0  0  0  0  0  0  0  0  0  0  0  0
    6.7845    0.3770    2.9694 H   0  0  0  0  0  0  0  0  0  0  0  0
    8.0247   -1.3186    1.6821 H   0  0  0  0  0  0  0  0  0  0  0  0
   10.0955   -1.8650    0.4558 H   0  0  0  0  0  0  0  0  0  0  0  0
   11.5299   -0.0534   -0.4447 H   0  0  0  0  0  0  0  0  0  0  0  0
   10.8812    2.3187   -0.1206 H   0  0  0  0  0  0  0  0  0  0  0  0
    8.8136    2.8868    1.1027 H   0  0  0  0  0  0  0  0  0  0  0  0
    3.8082   -0.0292    0.2363 H   0  0  0  0  0  0  0  0  0  0  0  0
    0.4350    0.1179    1.3038 H   0  0  0  0  0  0  0  0  0  0  0  0
   -1.9252   -0.0571    1.0051 H   0  0  0  0  0  0  0  0  0  0  0  0
   -3.9007   -0.4738   -0.3661 H   0  0  0  0  0  0  0  0  0  0  0  0
   -4.8912   -2.2184   -1.6802 H   0  0  0  0  0  0  0  0  0  0  0  0
   -5.5288   -2.1178   -3.3126 H   0  0  0  0  0  0  0  0  0  0  0  0
   -7.2870   -1.8809   -1.3470 H   0  0  0  0  0  0  0  0  0  0  0  0
   -8.3853    0.8003   -1.8179 H   0  0  0  0  0  0  0  0  0  0  0  0
   -7.8157    0.4330   -0.1761 H   0  0  0  0  0  0  0  0  0  0  0  0
  -11.1367    0.1225   -1.9171 H   0  0  0  0  0  0  0  0  0  0  0  0
  -12.5383   -1.9040   -0.7317 H   0  0  0  0  0  0  0  0  0  0  0  0
  -10.6497   -3.2625    0.7578 H   0  0  0  0  0  0  0  0  0  0  0  0
   -1.3891   -1.0727   -3.8203 H   0  0  0  0  0  0  0  0  0  0  0  0
    0.6116   -0.6377   -2.4361 H   0  0  0  0  0  0  0  0  0  0  0  0
  1  2  1  0
  2  3  1  0
  3  4  1  0
  4  5  1  0
  5  6  2  0
  6  7  1  0
  7  8  2  0
  8  9  1  0
  9 10  2  0
  2 11  1  0
 11 12  2  0
 11 13  1  0
 13 14  1  0
 14 15  2  3
 15 16  1  0
 16 17  2  0
 17 18  1  0
 18 19  2  0
 19 20  1  0
 20 21  1  0
 21 22  1  0
 22 23  2  0
 22 24  1  0
 24 25  1  0
 25 26  1  0
 26 27  2  0
 27 28  1  0
 28 29  2  0
 29 30  1  0
 19 31  1  0
 31 32  2  0
 10  5  1  0
 32 16  1  0
 30 26  1  0
  1 33  1  0
  1 34  1  0
  1 35  1  0
  2 36  1  0
  4 37  1  0
  4 38  1  0
  6 39  1  0
  7 40  1  0
  8 41  1  0
  9 42  1  0
 10 43  1  0
 13 44  1  0
 15 45  1  0
 17 46  1  0
 18 47  1  0
 21 48  1  0
 21 49  1  0
 24 50  1  0
 25 51  1  0
 25 52  1  0
 27 53  1  0
 28 54  1  0
 29 55  1  0
 31 56  1  0
 32 57  1  0
M  END
$$$$
