
     RDKit          3D

 67 72  0  0  0  0  0  0  0  0999 V2000
    3.3923   -0.9871   -1.7110 O   0  0  0  0  0  0  0  0  0  0  0  0
    2.8611   -0.9774   -0.5949 C   0  0  0  0  0  0  0  0  0  0  0  0
    3.6740   -1.3104    0.6684 C   0  0  0  0  0  0  0  0  0  0  0  0
    5.1714   -0.9780    0.5091 C   0  0  0  0  0  0  0  0  0  0  0  0
    5.5123    0.4912    0.3616 C   0  0  0  0  0  0  0  0  0  0  0  0
    5.6385    1.3161    1.4884 C   0  0  0  0  0  0  0  0  0  0  0  0
    5.9559    2.6684    1.3464 C   0  0  0  0  0  0  0  0  0  0  0  0
    6.1515    3.2111    0.0784 C   0  0  0  0  0  0  0  0  0  0  0  0
    6.0291    2.4023   -1.0494 C   0  0  0  0  0  0  0  0  0  0  0  0
    5.7124    1.0503   -0.9088 C   0  0  0  0  0  0  0  0  0  0  0  0
    3.1318   -0.7024    1.8745 N   0  0  0  0  0  0  0  0  0  0  0  0
    1.7531   -0.8041    2.0077 C   0  0  0  0  0  0  0  0  0  0  0  0
    1.3437   -0.8816    3.2833 N   0  0  0  0  0  0  0  0  0  0  0  0
    0.0280   -0.8588    3.4736 C   0  0  0  0  0  0  0  0  0  0  0  0
   -0.8943   -0.7180    2.5203 N   0  0  0  0  0  0  0  0  0  0  0  0
   -0.4624   -0.6185    1.2410 C   0  0  0  0  0  0  0  0  0  0  0  0
   -1.4469   -0.2574    0.2930 N   0  0  0  0  0  0  0  0  0  0  0  0
   -1.4665    1.2336    0.1851 C   0  0  0  0  0  0  0  0  0  0  0  0
   -2.7883    1.7524   -0.4269 C   0  0  0  0  0  0  0  0  0  0  0  0
   -3.9458    1.3592    0.3964 N   0  0  0  0  0  0  0  0  0  0  0  0
   -5.1320    2.0708    0.3711 C   0  0  0  0  0  0  0  0  0  0  0  0
   -5.4703    2.9081   -0.7043 C   0  0  0  0  0  0  0  0  0  0  0  0
   -6.6709    3.6286   -0.7370 C   0  0  0  0  0  0  0  0  0  0  0  0
   -7.5698    3.5335    0.3168 C   0  0  0  0  0  0  0  0  0  0  0  0
   -7.2681    2.7131    1.3965 C   0  0  0  0  0  0  0  0  0  0  0  0
   -6.0660    1.9944    1.4179 C   0  0  0  0  0  0  0  0  0  0  0  0
   -3.7697    0.1607    1.2400 C   0  0  0  0  0  0  0  0  0  0  0  0
   -2.7888   -0.8351    0.5820 C   0  0  0  0  0  0  0  0  0  0  0  0
    0.8974   -0.7439    0.8999 C   0  0  0  0  0  0  0  0  0  0  0  0
    1.4736   -0.8148   -0.4269 N   0  0  0  0  0  0  0  0  0  0  0  0
    0.6792   -0.9313   -1.6455 C   0  0  0  0  0  0  0  0  0  0  0  0
    0.4881   -2.3733   -2.0883 C   0  0  0  0  0  0  0  0  0  0  0  0
    1.2758   -2.9064   -3.1220 C   0  0  0  0  0  0  0  0  0  0  0  0
    1.1149   -4.2318   -3.5333 C   0  0  0  0  0  0  0  0  0  0  0  0
    0.1632   -5.0365   -2.9135 C   0  0  0  0  0  0  0  0  0  0  0  0
   -0.0386   -6.6687   -3.4177 Cl  0  0  0  0  0  0  0  0  0  0  0  0
   -0.6249   -4.5277   -1.8845 C   0  0  0  0  0  0  0  0  0  0  0  0
   -0.4605   -3.2021   -1.4733 C   0  0  0  0  0  0  0  0  0  0  0  0
    3.5996   -2.4021    0.7782 H   0  0  0  0  0  0  0  0  0  0  0  0
    5.5792   -1.5226   -0.3530 H   0  0  0  0  0  0  0  0  0  0  0  0
    5.7206   -1.3666    1.3778 H   0  0  0  0  0  0  0  0  0  0  0  0
    5.4866    0.9129    2.4867 H   0  0  0  0  0  0  0  0  0  0  0  0
    6.0495    3.2988    2.2268 H   0  0  0  0  0  0  0  0  0  0  0  0
    6.3982    4.2634   -0.0309 H   0  0  0  0  0  0  0  0  0  0  0  0
    6.1797    2.8224   -2.0401 H   0  0  0  0  0  0  0  0  0  0  0  0
    5.6180    0.4352   -1.8026 H   0  0  0  0  0  0  0  0  0  0  0  0
    3.5674   -0.9525    2.7560 H   0  0  0  0  0  0  0  0  0  0  0  0
   -0.3264   -0.9421    4.4949 H   0  0  0  0  0  0  0  0  0  0  0  0
   -1.3416    1.7009    1.1730 H   0  0  0  0  0  0  0  0  0  0  0  0
   -0.6310    1.5666   -0.4414 H   0  0  0  0  0  0  0  0  0  0  0  0
   -2.7148    2.8445   -0.4951 H   0  0  0  0  0  0  0  0  0  0  0  0
   -2.9104    1.3505   -1.4399 H   0  0  0  0  0  0  0  0  0  0  0  0
   -4.8107    2.9973   -1.5618 H   0  0  0  0  0  0  0  0  0  0  0  0
   -6.8981    4.2618   -1.5904 H   0  0  0  0  0  0  0  0  0  0  0  0
   -8.5003    4.0928    0.2959 H   0  0  0  0  0  0  0  0  0  0  0  0
   -7.9610    2.6337    2.2296 H   0  0  0  0  0  0  0  0  0  0  0  0
   -5.8629    1.3851    2.2943 H   0  0  0  0  0  0  0  0  0  0  0  0
   -3.4078    0.4651    2.2286 H   0  0  0  0  0  0  0  0  0  0  0  0
   -4.7217   -0.3668    1.3727 H   0  0  0  0  0  0  0  0  0  0  0  0
   -3.2103   -1.1380   -0.3857 H   0  0  0  0  0  0  0  0  0  0  0  0
   -2.7251   -1.7587    1.1721 H   0  0  0  0  0  0  0  0  0  0  0  0
    1.2037   -0.3899   -2.4453 H   0  0  0  0  0  0  0  0  0  0  0  0
   -0.2811   -0.4271   -1.6058 H   0  0  0  0  0  0  0  0  0  0  0  0
    2.0306   -2.2897   -3.6086 H   0  0  0  0  0  0  0  0  0  0  0  0
    1.7366   -4.6262   -4.3324 H   0  0  0  0  0  0  0  0  0  0  0  0
   -1.3675   -5.1547   -1.3986 H   0  0  0  0  0  0  0  0  0  0  0  0
   -1.0825   -2.8221   -0.6693 H   0  0  0  0  0  0  0  0  0  0  0  0
  1  2  2  0
  2  3  1  0
  3  4  1  0
  4  5  1  0
  5  6  2  0
  6  7  1  0
  7  8  2  0
  8  9  1  0
  9 10  2  0
  3 11  1  0
 11 12  1  0
 12 13  2  0
 13 14  1  0
 14 15  2  0
 15 16  1  0
 16 17  1  0
 17 18  1  0
 18 19  1  0
 19 20  1  0
 20 21  1  0
 21 22  2  0
 22 23  1  0
 23 24  2  0
 24 25  1  0
 25 26  2  0
 20 27  1  0
 27 28  1  0
 16 29  2  0
 29 30  1  0
 30 31  1  0
 31 32  1  0
 32 33  2  0
 33 34  1  0
 34 35  2  0
 35 36  1  0
 35 37  1  0
 37 38  2  0
 30  2  1  0
 38 32  1  0
 10  5  1  0
 29 12  1  0
 28 17  1  0
 26 21  1  0
  3 39  1  0
  4 40  1  0
  4 41  1  0
  6 42  1  0
  7 43  1  0
  8 44  1  0
  9 45  1  0
 10 46  1  0
 11 47  1  0
 14 48  1  0
 18 49  1  0
 18 50  1  0
 19 51  1  0
 19 52  1  0
 22 53  1  0
 23 54  1  0
 24 55  1  0
 25 56  1  0
 26 57  1  0
 27 58  1  0
 27 59  1  0
 28 60  1  0
 28 61  1  0
 31 62  1  0
 31 63  1  0
 33 64  1  0
 34 65  1  0
 37 66  1  0
 38 67  1  0
M  END
$$$$
