
     RDKit          3D

 38 40  0  0  0  0  0  0  0  0999 V2000
   -3.7476    2.1239    3.3374 C   0  0  0  0  0  0  0  0  0  0  0  0
   -2.8905    1.0690    2.6992 C   0  0  0  0  0  0  0  0  0  0  0  0
   -1.5786    1.3645    2.3029 C   0  0  0  0  0  0  0  0  0  0  0  0
   -0.7684    0.3748    1.7431 C   0  0  0  0  0  0  0  0  0  0  0  0
   -1.2756   -0.9162    1.5769 C   0  0  0  0  0  0  0  0  0  0  0  0
   -0.2454   -2.1817    0.8814 S   0  0  0  0  0  6  0  0  0  0  0  0
   -0.6617   -3.4466    1.4517 O   0  0  0  0  0  0  0  0  0  0  0  0
    1.1363   -1.7599    0.9575 O   0  0  0  0  0  0  0  0  0  0  0  0
   -0.7434   -2.2170   -0.7363 N   0  0  0  0  0  0  0  0  0  0  0  0
   -0.2974   -1.1743   -1.5930 C   0  0  0  0  0  0  0  0  0  0  0  0
   -1.1260   -0.0747   -1.8104 C   0  0  0  0  0  0  0  0  0  0  0  0
   -0.6948    0.9716   -2.6268 C   0  0  0  0  0  0  0  0  0  0  0  0
    0.5721    0.9161   -3.2110 C   0  0  0  0  0  0  0  0  0  0  0  0
    0.9875    1.9447   -4.0124 O   0  0  0  0  0  0  0  0  0  0  0  0
    1.4186   -0.1785   -2.9837 C   0  0  0  0  0  0  0  0  0  0  0  0
    3.0617   -0.2628   -3.6832 S   0  0  0  0  0  0  0  0  0  0  0  0
    4.0353   -0.1312   -2.2405 C   0  0  0  0  0  0  0  0  0  0  0  0
    3.7166    0.6731   -1.1754 N   0  0  0  0  0  0  0  0  0  0  0  0
    4.6674    0.4103   -0.3113 C   0  0  0  0  0  0  0  0  0  0  0  0
    5.5239   -0.4999   -0.8436 N   0  0  0  0  0  0  0  0  0  0  0  0
    5.1497   -0.8558   -2.0816 N   0  0  0  0  0  0  0  0  0  0  0  0
    0.9657   -1.2333   -2.1779 C   0  0  0  0  0  0  0  0  0  0  0  0
   -2.5716   -1.2325    1.9915 C   0  0  0  0  0  0  0  0  0  0  0  0
   -3.3747   -0.2385    2.5530 C   0  0  0  0  0  0  0  0  0  0  0  0
   -4.8032    1.9673    3.0901 H   0  0  0  0  0  0  0  0  0  0  0  0
   -3.4743    3.1228    2.9784 H   0  0  0  0  0  0  0  0  0  0  0  0
   -3.6287    2.0949    4.4257 H   0  0  0  0  0  0  0  0  0  0  0  0
   -1.1776    2.3684    2.4323 H   0  0  0  0  0  0  0  0  0  0  0  0
    0.2482    0.6179    1.4380 H   0  0  0  0  0  0  0  0  0  0  0  0
   -0.7074   -3.1690   -1.1000 H   0  0  0  0  0  0  0  0  0  0  0  0
   -2.1113   -0.0286   -1.3532 H   0  0  0  0  0  0  0  0  0  0  0  0
   -1.3550    1.8174   -2.7942 H   0  0  0  0  0  0  0  0  0  0  0  0
    0.3366    2.6636   -3.9778 H   0  0  0  0  0  0  0  0  0  0  0  0
    4.7831    0.8325    0.6764 H   0  0  0  0  0  0  0  0  0  0  0  0
    6.3554   -0.9133   -0.4368 H   0  0  0  0  0  0  0  0  0  0  0  0
    1.6135   -2.0857   -1.9843 H   0  0  0  0  0  0  0  0  0  0  0  0
   -2.9577   -2.2435    1.8869 H   0  0  0  0  0  0  0  0  0  0  0  0
   -4.3807   -0.4900    2.8835 H   0  0  0  0  0  0  0  0  0  0  0  0
  1  2  1  0
  2  3  2  0
  3  4  1  0
  4  5  2  0
  5  6  1  0
  6  7  2  0
  6  8  2  0
  6  9  1  0
  9 10  1  0
 10 11  2  0
 11 12  1  0
 12 13  2  0
 13 14  1  0
 13 15  1  0
 15 16  1  0
 16 17  1  0
 17 18  1  0
 18 19  2  0
 19 20  1  0
 20 21  1  0
 15 22  2  0
  5 23  1  0
 23 24  2  0
 24  2  1  0
 22 10  1  0
 21 17  2  0
  1 25  1  0
  1 26  1  0
  1 27  1  0
  3 28  1  0
  4 29  1  0
  9 30  1  0
 11 31  1  0
 12 32  1  0
 14 33  1  0
 19 34  1  0
 20 35  1  0
 22 36  1  0
 23 37  1  0
 24 38  1  0
M  END
$$$$
