
     RDKit          3D

 59 62  0  0  0  0  0  0  0  0999 V2000
   -9.4107    0.8938    2.8847 C   0  0  0  0  0  0  0  0  0  0  0  0
   -8.3555    0.9971    1.8227 C   0  0  0  0  0  0  0  0  0  0  0  0
   -7.9153   -0.1562    1.1561 C   0  0  0  0  0  0  0  0  0  0  0  0
   -6.9302   -0.0710    0.1712 C   0  0  0  0  0  0  0  0  0  0  0  0
   -6.3787    1.1764   -0.1367 C   0  0  0  0  0  0  0  0  0  0  0  0
   -5.3536    1.2792   -1.1893 C   0  0  0  0  0  0  0  0  0  0  0  0
   -5.7321    1.4555   -2.3417 O   0  0  0  0  0  0  0  0  0  0  0  0
   -4.0248    1.1792   -0.8108 N   0  0  0  0  0  0  0  0  0  0  0  0
   -2.9902    1.2650   -1.8402 C   0  0  0  0  0  0  0  0  0  0  0  0
   -1.8228    0.2977   -1.5908 C   0  0  0  0  0  0  0  0  0  0  0  0
   -1.2244    0.4798   -0.2479 N   0  0  0  0  0  0  0  0  0  0  0  0
    0.1617    0.4423   -0.1130 C   0  0  0  0  0  0  0  0  0  0  0  0
    0.9645   -0.3184   -0.9794 C   0  0  0  0  0  0  0  0  0  0  0  0
    2.3668   -0.3266   -0.8978 C   0  0  0  0  0  0  0  0  0  0  0  0
    3.0179    0.4114    0.0816 C   0  0  0  0  0  0  0  0  0  0  0  0
    4.4182    0.5005    0.2105 N   0  0  0  0  0  0  0  0  0  0  0  0
    5.3786   -0.0279   -0.6382 C   0  0  0  0  0  0  0  0  0  0  0  0
    5.1693   -0.7117   -1.6361 O   0  0  0  0  0  0  0  0  0  0  0  0
    6.7939    0.3484   -0.2296 C   0  0  0  0  0  0  0  0  0  0  0  0
    7.4094   -0.7820    1.0620 S   0  0  0  0  0  0  0  0  0  0  0  0
    8.0607   -2.0752    0.0142 C   0  0  0  0  0  0  0  0  0  0  0  0
    9.4262   -2.0969   -0.2928 C   0  0  0  0  0  0  0  0  0  0  0  0
    9.9429   -3.0839   -1.1376 C   0  0  0  0  0  0  0  0  0  0  0  0
    9.0957   -4.0547   -1.6691 C   0  0  0  0  0  0  0  0  0  0  0  0
    9.7294   -5.2595   -2.7257 Cl  0  0  0  0  0  0  0  0  0  0  0  0
    7.7379   -4.0508   -1.3558 C   0  0  0  0  0  0  0  0  0  0  0  0
    7.2205   -3.0631   -0.5101 C   0  0  0  0  0  0  0  0  0  0  0  0
    2.2421    1.1286    0.9928 C   0  0  0  0  0  0  0  0  0  0  0  0
    0.8416    1.1417    0.8939 C   0  0  0  0  0  0  0  0  0  0  0  0
   -2.0579    1.1605    0.7593 C   0  0  0  0  0  0  0  0  0  0  0  0
   -3.5592    0.8825    0.5515 C   0  0  0  0  0  0  0  0  0  0  0  0
   -6.8040    2.3299    0.5165 C   0  0  0  0  0  0  0  0  0  0  0  0
   -7.7869    2.2381    1.5022 C   0  0  0  0  0  0  0  0  0  0  0  0
   -8.9915    0.4345    3.7870 H   0  0  0  0  0  0  0  0  0  0  0  0
   -9.8053    1.8817    3.1512 H   0  0  0  0  0  0  0  0  0  0  0  0
  -10.2527    0.2915    2.5302 H   0  0  0  0  0  0  0  0  0  0  0  0
   -8.3498   -1.1258    1.3943 H   0  0  0  0  0  0  0  0  0  0  0  0
   -6.6053   -0.9616   -0.3578 H   0  0  0  0  0  0  0  0  0  0  0  0
   -3.4146    1.0801   -2.8295 H   0  0  0  0  0  0  0  0  0  0  0  0
   -2.6256    2.2967   -1.8289 H   0  0  0  0  0  0  0  0  0  0  0  0
   -2.1800   -0.7353   -1.6688 H   0  0  0  0  0  0  0  0  0  0  0  0
   -1.0933    0.4656   -2.3919 H   0  0  0  0  0  0  0  0  0  0  0  0
    0.5119   -0.9385   -1.7506 H   0  0  0  0  0  0  0  0  0  0  0  0
    2.9122   -0.9245   -1.6230 H   0  0  0  0  0  0  0  0  0  0  0  0
    4.7553    1.0292    1.0051 H   0  0  0  0  0  0  0  0  0  0  0  0
    7.4426    0.3445   -1.1110 H   0  0  0  0  0  0  0  0  0  0  0  0
    6.7984    1.3691    0.1642 H   0  0  0  0  0  0  0  0  0  0  0  0
   10.0993   -1.3446    0.1172 H   0  0  0  0  0  0  0  0  0  0  0  0
   11.0083   -3.0896   -1.3791 H   0  0  0  0  0  0  0  0  0  0  0  0
    7.0710   -4.8039   -1.7710 H   0  0  0  0  0  0  0  0  0  0  0  0
    6.1552   -3.0665   -0.2813 H   0  0  0  0  0  0  0  0  0  0  0  0
    2.7072    1.7174    1.7779 H   0  0  0  0  0  0  0  0  0  0  0  0
    0.3051    1.7531    1.6126 H   0  0  0  0  0  0  0  0  0  0  0  0
   -1.7909    0.8202    1.7672 H   0  0  0  0  0  0  0  0  0  0  0  0
   -1.8836    2.2429    0.7034 H   0  0  0  0  0  0  0  0  0  0  0  0
   -4.1360    1.4737    1.2712 H   0  0  0  0  0  0  0  0  0  0  0  0
   -3.7723   -0.1766    0.7383 H   0  0  0  0  0  0  0  0  0  0  0  0
   -6.3796    3.2962    0.2530 H   0  0  0  0  0  0  0  0  0  0  0  0
   -8.1168    3.1408    2.0084 H   0  0  0  0  0  0  0  0  0  0  0  0
  1  2  1  0
  2  3  2  0
  3  4  1  0
  4  5  2  0
  5  6  1  0
  6  7  2  0
  6  8  1  0
  8  9  1  0
  9 10  1  0
 10 11  1  0
 11 12  1  0
 12 13  2  0
 13 14  1  0
 14 15  2  0
 15 16  1  0
 16 17  1  0
 17 18  2  0
 17 19  1  0
 19 20  1  0
 20 21  1  0
 21 22  2  0
 22 23  1  0
 23 24  2  0
 24 25  1  0
 24 26  1  0
 26 27  2  0
 15 28  1  0
 28 29  2  0
 11 30  1  0
 30 31  1  0
  5 32  1  0
 32 33  2  0
 33  2  1  0
 31  8  1  0
 29 12  1  0
 27 21  1  0
  1 34  1  0
  1 35  1  0
  1 36  1  0
  3 37  1  0
  4 38  1  0
  9 39  1  0
  9 40  1  0
 10 41  1  0
 10 42  1  0
 13 43  1  0
 14 44  1  0
 16 45  1  0
 19 46  1  0
 19 47  1  0
 22 48  1  0
 23 49  1  0
 26 50  1  0
 27 51  1  0
 28 52  1  0
 29 53  1  0
 30 54  1  0
 30 55  1  0
 31 56  1  0
 31 57  1  0
 32 58  1  0
 33 59  1  0
M  END
$$$$
