
     RDKit          3D

 27 27  0  0  0  0  0  0  0  0999 V2000
   -5.4711   -1.3576    0.2859 C   0  0  0  0  0  0  0  0  0  0  0  0
   -4.2086   -1.2957   -0.1581 C   0  0  0  0  0  0  0  0  0  0  0  0
   -3.6505   -0.1806   -0.9825 C   0  0  0  0  0  0  0  0  0  0  0  0
   -2.6851    0.5117   -0.1768 N   0  0  0  0  0  0  0  0  0  0  0  0
   -1.3278    0.3388   -0.3125 C   0  0  0  0  0  0  0  0  0  0  0  0
   -0.7672   -0.3495   -1.1542 O   0  0  0  0  0  0  0  0  0  0  0  0
   -0.5015    1.1120    0.7344 C   0  0  0  0  0  0  0  0  0  0  0  0
   -1.0797    1.7834    1.5796 O   0  0  0  0  0  0  0  0  0  0  0  0
    0.8548    0.9292    0.5650 N   0  0  0  0  0  0  0  0  0  0  0  0
    1.7571    1.5286    1.3916 N   0  0  0  0  0  0  0  0  0  0  0  0
    3.0248    1.3157    1.1821 C   0  0  0  0  0  0  0  0  0  0  0  0
    3.6515    0.5068    0.1648 C   0  0  0  0  0  0  0  0  0  0  0  0
    4.9875    0.2570   -0.0889 C   0  0  0  0  0  0  0  0  0  0  0  0
    5.0366   -0.6079   -1.2096 C   0  0  0  0  0  0  0  0  0  0  0  0
    3.7316   -0.8353   -1.5739 C   0  0  0  0  0  0  0  0  0  0  0  0
    2.8866   -0.1661   -0.7496 O   0  0  0  0  0  0  0  0  0  0  0  0
   -5.8097   -2.2040    0.8760 H   0  0  0  0  0  0  0  0  0  0  0  0
   -6.1910   -0.5721    0.0775 H   0  0  0  0  0  0  0  0  0  0  0  0
   -3.5279   -2.1128    0.0732 H   0  0  0  0  0  0  0  0  0  0  0  0
   -4.4215    0.5421   -1.2677 H   0  0  0  0  0  0  0  0  0  0  0  0
   -3.1886   -0.5762   -1.8923 H   0  0  0  0  0  0  0  0  0  0  0  0
   -2.9943    1.0637    0.6191 H   0  0  0  0  0  0  0  0  0  0  0  0
    1.1767    0.3279   -0.1971 H   0  0  0  0  0  0  0  0  0  0  0  0
    3.7168    1.8222    1.8768 H   0  0  0  0  0  0  0  0  0  0  0  0
    5.8263    0.6518    0.4681 H   0  0  0  0  0  0  0  0  0  0  0  0
    5.9137   -1.0158   -1.6929 H   0  0  0  0  0  0  0  0  0  0  0  0
    3.2604   -1.4173   -2.3547 H   0  0  0  0  0  0  0  0  0  0  0  0
  1  2  2  0
  2  3  1  0
  3  4  1  0
  4  5  1  0
  5  6  2  0
  5  7  1  0
  7  8  2  0
  7  9  1  0
  9 10  1  0
 10 11  2  3
 11 12  1  0
 12 13  2  0
 13 14  1  0
 14 15  2  0
 15 16  1  0
 16 12  1  0
  1 17  1  0
  1 18  1  0
  2 19  1  0
  3 20  1  0
  3 21  1  0
  4 22  1  0
  9 23  1  0
 11 24  1  0
 13 25  1  0
 14 26  1  0
 15 27  1  0
M  END
$$$$
