
     RDKit          3D

 49 52  0  0  0  0  0  0  0  0999 V2000
   -2.6865    0.8932   -1.5105 C   0  0  0  0  0  0  0  0  0  0  0  0
   -3.4906    0.1620   -0.4540 C   0  0  0  0  0  0  0  0  0  0  0  0
   -3.1731   -0.9903    0.0647 N   0  0  0  0  0  0  0  0  0  0  0  0
   -1.9551   -1.5404   -0.2415 N   0  0  0  0  0  0  0  0  0  0  0  0
   -0.7653   -0.9578    0.2050 C   0  0  0  0  0  0  0  0  0  0  0  0
   -0.6505    0.1989    0.6064 O   0  0  0  0  0  0  0  0  0  0  0  0
    0.3639   -1.8843    0.1629 C   0  0  0  0  0  0  0  0  0  0  0  0
    0.2161   -3.2043   -0.1586 N   0  0  0  0  0  0  0  0  0  0  0  0
    1.4089   -3.7711   -0.1436 N   0  0  0  0  0  0  0  0  0  0  0  0
    2.3472   -2.8404    0.1921 N   0  0  0  0  0  0  0  0  0  0  0  0
    3.7214   -3.1817    0.2858 C   0  0  0  0  0  0  0  0  0  0  0  0
    4.6271   -2.3103    0.7396 N   0  0  0  0  0  0  0  0  0  0  0  0
    5.8278   -3.0198    0.7103 O   0  0  0  0  0  0  0  0  0  0  0  0
    5.6336   -4.3216    0.2478 N   0  0  0  0  0  0  0  0  0  0  0  0
    4.3304   -4.4175   -0.0228 C   0  0  0  0  0  0  0  0  0  0  0  0
    3.7325   -5.5251   -0.5159 N   0  0  0  0  0  0  0  0  0  0  0  0
    1.7028   -1.6250    0.4071 C   0  0  0  0  0  0  0  0  0  0  0  0
    2.3794   -0.3459    0.7262 C   0  0  0  0  0  0  0  0  0  0  0  0
    2.8910    0.1171   -0.5236 O   0  0  0  0  0  0  0  0  0  0  0  0
    3.1906    1.4525   -0.4797 C   0  0  0  0  0  0  0  0  0  0  0  0
    2.1760    2.4146   -0.4815 C   0  0  0  0  0  0  0  0  0  0  0  0
    2.5141    3.7711   -0.5008 C   0  0  0  0  0  0  0  0  0  0  0  0
    3.8566    4.1451   -0.5349 C   0  0  0  0  0  0  0  0  0  0  0  0
    4.1799    5.4478   -0.5621 F   0  0  0  0  0  0  0  0  0  0  0  0
    4.8689    3.1878   -0.5516 C   0  0  0  0  0  0  0  0  0  0  0  0
    4.5341    1.8308   -0.5327 C   0  0  0  0  0  0  0  0  0  0  0  0
   -4.7648    0.8008   -0.0132 C   0  0  0  0  0  0  0  0  0  0  0  0
   -4.8574    2.1923    0.1305 C   0  0  0  0  0  0  0  0  0  0  0  0
   -6.0578    2.7733    0.5501 C   0  0  0  0  0  0  0  0  0  0  0  0
   -7.1564    1.9661    0.8288 C   0  0  0  0  0  0  0  0  0  0  0  0
   -8.6316    2.6861    1.3423 Cl  0  0  0  0  0  0  0  0  0  0  0  0
   -7.0682    0.5785    0.6956 C   0  0  0  0  0  0  0  0  0  0  0  0
   -5.8681   -0.0046    0.2811 C   0  0  0  0  0  0  0  0  0  0  0  0
   -3.3327    1.5245   -2.1255 H   0  0  0  0  0  0  0  0  0  0  0  0
   -2.2013    0.1831   -2.1822 H   0  0  0  0  0  0  0  0  0  0  0  0
   -1.9355    1.5240   -1.0432 H   0  0  0  0  0  0  0  0  0  0  0  0
   -1.9503   -2.5609   -0.2174 H   0  0  0  0  0  0  0  0  0  0  0  0
    2.7184   -5.6056   -0.5404 H   0  0  0  0  0  0  0  0  0  0  0  0
    4.2260   -6.4085   -0.4767 H   0  0  0  0  0  0  0  0  0  0  0  0
    3.1913   -0.4677    1.4486 H   0  0  0  0  0  0  0  0  0  0  0  0
    1.6744    0.3625    1.1745 H   0  0  0  0  0  0  0  0  0  0  0  0
    1.1296    2.1137   -0.4779 H   0  0  0  0  0  0  0  0  0  0  0  0
    1.7422    4.5350   -0.5010 H   0  0  0  0  0  0  0  0  0  0  0  0
    5.9083    3.5047   -0.5899 H   0  0  0  0  0  0  0  0  0  0  0  0
    5.3145    1.0738   -0.5613 H   0  0  0  0  0  0  0  0  0  0  0  0
   -4.0009    2.8303   -0.0588 H   0  0  0  0  0  0  0  0  0  0  0  0
   -6.1283    3.8502    0.6615 H   0  0  0  0  0  0  0  0  0  0  0  0
   -7.9288   -0.0532    0.9093 H   0  0  0  0  0  0  0  0  0  0  0  0
   -5.8036   -1.0836    0.1751 H   0  0  0  0  0  0  0  0  0  0  0  0
  1  2  1  0
  2  3  2  3
  3  4  1  0
  4  5  1  0
  5  6  2  0
  5  7  1  0
  7  8  1  0
  8  9  2  0
  9 10  1  0
 10 11  1  0
 11 12  2  0
 12 13  1  0
 13 14  1  0
 14 15  2  0
 15 16  1  0
 10 17  1  0
 17 18  1  0
 18 19  1  0
 19 20  1  0
 20 21  2  0
 21 22  1  0
 22 23  2  0
 23 24  1  0
 23 25  1  0
 25 26  2  0
  2 27  1  0
 27 28  2  0
 28 29  1  0
 29 30  2  0
 30 31  1  0
 30 32  1  0
 32 33  2  0
 17  7  2  0
 26 20  1  0
 33 27  1  0
 15 11  1  0
  1 34  1  0
  1 35  1  0
  1 36  1  0
  4 37  1  0
 16 38  1  0
 16 39  1  0
 18 40  1  0
 18 41  1  0
 21 42  1  0
 22 43  1  0
 25 44  1  0
 26 45  1  0
 28 46  1  0
 29 47  1  0
 32 48  1  0
 33 49  1  0
M  END
$$$$
