
     RDKit          3D

 60 62  0  0  0  0  0  0  0  0999 V2000
   -8.6783    0.2214    2.1575 C   0  0  0  0  0  0  0  0  0  0  0  0
   -8.1297    0.4406    0.7559 C   0  0  0  0  0  0  0  0  0  0  0  0
   -6.6410    0.2092    0.6914 C   0  0  0  0  0  0  0  0  0  0  0  0
   -6.1219   -1.0899    0.5982 C   0  0  0  0  0  0  0  0  0  0  0  0
   -4.7405   -1.3015    0.5437 C   0  0  0  0  0  0  0  0  0  0  0  0
   -3.8558   -0.2207    0.5812 C   0  0  0  0  0  0  0  0  0  0  0  0
   -2.4548   -0.3543    0.5405 N   0  0  0  0  0  0  0  0  0  0  0  0
   -1.7275   -1.5064    0.2869 C   0  0  0  0  0  0  0  0  0  0  0  0
   -2.1887   -2.5818   -0.0920 O   0  0  0  0  0  0  0  0  0  0  0  0
   -0.1987   -1.3050    0.4478 C   0  0  0  0  0  0  0  0  0  0  0  0
    0.3876   -1.3488   -0.9146 N   0  0  0  0  0  0  0  0  0  0  0  0
    0.3803    0.0764   -1.8078 S   0  0  0  0  0  6  0  0  0  0  0  0
   -0.5781    0.9854   -1.2140 O   0  0  0  0  0  0  0  0  0  0  0  0
    0.3300   -0.3148   -3.1993 O   0  0  0  0  0  0  0  0  0  0  0  0
    2.0141    0.6963   -1.5030 C   0  0  0  0  0  0  0  0  0  0  0  0
    2.1865    1.9122   -0.8218 C   0  0  0  0  0  0  0  0  0  0  0  0
    3.4740    2.4203   -0.6108 C   0  0  0  0  0  0  0  0  0  0  0  0
    4.5608    1.6992   -1.0865 C   0  0  0  0  0  0  0  0  0  0  0  0
    4.3784    0.4903   -1.7625 C   0  0  0  0  0  0  0  0  0  0  0  0
    3.1113   -0.0277   -1.9854 C   0  0  0  0  0  0  0  0  0  0  0  0
    5.6850   -0.1039   -2.1849 C   0  0  0  0  0  0  0  0  0  0  0  0
    6.6942    0.9243   -1.6599 C   0  0  0  0  0  0  0  0  0  0  0  0
    5.9334    2.0090   -1.0125 N   0  0  0  0  0  0  0  0  0  0  0  0
    6.4803    3.1357   -0.4232 C   0  0  0  0  0  0  0  0  0  0  0  0
    7.9820    3.2579   -0.5374 C   0  0  0  0  0  0  0  0  0  0  0  0
    5.8452    4.0120    0.1579 O   0  0  0  0  0  0  0  0  0  0  0  0
    0.4904   -2.3565    1.3509 C   0  0  0  0  0  0  0  0  0  0  0  0
   -0.0254   -2.2555    2.7858 C   0  0  0  0  0  0  0  0  0  0  0  0
    0.3988   -3.8050    0.8732 C   0  0  0  0  0  0  0  0  0  0  0  0
   -4.3715    1.0748    0.6915 C   0  0  0  0  0  0  0  0  0  0  0  0
   -5.7513    1.2910    0.7448 C   0  0  0  0  0  0  0  0  0  0  0  0
   -8.1722    0.8543    2.8942 H   0  0  0  0  0  0  0  0  0  0  0  0
   -9.7477    0.4522    2.1799 H   0  0  0  0  0  0  0  0  0  0  0  0
   -8.5558   -0.8196    2.4734 H   0  0  0  0  0  0  0  0  0  0  0  0
   -8.3630    1.4640    0.4295 H   0  0  0  0  0  0  0  0  0  0  0  0
   -8.6410   -0.2285    0.0472 H   0  0  0  0  0  0  0  0  0  0  0  0
   -6.7882   -1.9454    0.5535 H   0  0  0  0  0  0  0  0  0  0  0  0
   -4.3864   -2.3252    0.4775 H   0  0  0  0  0  0  0  0  0  0  0  0
   -1.9324    0.5194    0.5078 H   0  0  0  0  0  0  0  0  0  0  0  0
    0.0078   -0.3235    0.9001 H   0  0  0  0  0  0  0  0  0  0  0  0
    0.0683   -2.1391   -1.4864 H   0  0  0  0  0  0  0  0  0  0  0  0
    1.3278    2.4799   -0.4685 H   0  0  0  0  0  0  0  0  0  0  0  0
    3.5986    3.3642   -0.0908 H   0  0  0  0  0  0  0  0  0  0  0  0
    2.9723   -0.9584   -2.5260 H   0  0  0  0  0  0  0  0  0  0  0  0
    5.8404   -1.0808   -1.7190 H   0  0  0  0  0  0  0  0  0  0  0  0
    5.7427   -0.1998   -3.2733 H   0  0  0  0  0  0  0  0  0  0  0  0
    7.3090    1.3367   -2.4668 H   0  0  0  0  0  0  0  0  0  0  0  0
    7.3664    0.4781   -0.9156 H   0  0  0  0  0  0  0  0  0  0  0  0
    8.3083    4.1800   -0.0469 H   0  0  0  0  0  0  0  0  0  0  0  0
    8.4764    2.4166   -0.0428 H   0  0  0  0  0  0  0  0  0  0  0  0
    8.2771    3.3070   -1.5908 H   0  0  0  0  0  0  0  0  0  0  0  0
    1.5590   -2.1094    1.3768 H   0  0  0  0  0  0  0  0  0  0  0  0
    0.5483   -2.9113    3.4507 H   0  0  0  0  0  0  0  0  0  0  0  0
   -1.0781   -2.5439    2.8553 H   0  0  0  0  0  0  0  0  0  0  0  0
    0.0720   -1.2337    3.1592 H   0  0  0  0  0  0  0  0  0  0  0  0
    0.9846   -4.4580    1.5345 H   0  0  0  0  0  0  0  0  0  0  0  0
    0.7985   -3.9245   -0.1366 H   0  0  0  0  0  0  0  0  0  0  0  0
   -0.6261   -4.1783    0.8868 H   0  0  0  0  0  0  0  0  0  0  0  0
   -3.7077    1.9347    0.7318 H   0  0  0  0  0  0  0  0  0  0  0  0
   -6.1279    2.3087    0.8233 H   0  0  0  0  0  0  0  0  0  0  0  0
  1  2  1  0
  2  3  1  0
  3  4  2  0
  4  5  1  0
  5  6  2  0
  6  7  1  0
  7  8  1  0
  8  9  2  0
  8 10  1  0
 10 11  1  0
 11 12  1  0
 12 13  2  0
 12 14  2  0
 12 15  1  0
 15 16  2  0
 16 17  1  0
 17 18  2  0
 18 19  1  0
 19 20  2  0
 19 21  1  0
 21 22  1  0
 22 23  1  0
 23 24  1  0
 24 25  1  0
 24 26  2  0
 10 27  1  0
 27 28  1  0
 27 29  1  0
  6 30  1  0
 30 31  2  0
 31  3  1  0
 20 15  1  0
 23 18  1  0
  1 32  1  0
  1 33  1  0
  1 34  1  0
  2 35  1  0
  2 36  1  0
  4 37  1  0
  5 38  1  0
  7 39  1  0
 10 40  1  0
 11 41  1  0
 16 42  1  0
 17 43  1  0
 20 44  1  0
 21 45  1  0
 21 46  1  0
 22 47  1  0
 22 48  1  0
 25 49  1  0
 25 50  1  0
 25 51  1  0
 27 52  1  0
 28 53  1  0
 28 54  1  0
 28 55  1  0
 29 56  1  0
 29 57  1  0
 29 58  1  0
 30 59  1  0
 31 60  1  0
M  END
$$$$
