
     RDKit          3D

 40 42  0  0  0  0  0  0  0  0999 V2000
   -6.6816    1.7708    0.7542 C   0  0  0  0  0  0  0  0  0  0  0  0
   -6.0709    0.1550    1.1771 S   0  0  0  0  0  6  0  0  0  0  0  0
   -4.9278    0.3074    2.0486 O   0  0  0  0  0  0  0  0  0  0  0  0
   -7.2075   -0.6618    1.5454 O   0  0  0  0  0  0  0  0  0  0  0  0
   -5.5881   -0.4039   -0.3499 N   0  0  0  0  0  0  0  0  0  0  0  0
   -4.1917   -0.6135   -0.5512 C   0  0  0  0  0  0  0  0  0  0  0  0
   -3.3354    0.4755   -0.7217 C   0  0  0  0  0  0  0  0  0  0  0  0
   -1.9618    0.2672   -0.8750 C   0  0  0  0  0  0  0  0  0  0  0  0
   -1.4460   -1.0351   -0.8444 C   0  0  0  0  0  0  0  0  0  0  0  0
    0.0104   -1.2997   -1.0043 C   0  0  0  0  0  0  0  0  0  0  0  0
    0.3503   -2.2815   -1.6522 O   0  0  0  0  0  0  0  0  0  0  0  0
    0.8339   -0.3988   -0.3550 N   0  0  0  0  0  0  0  0  0  0  0  0
    2.2446   -0.3698   -0.3619 C   0  0  0  0  0  0  0  0  0  0  0  0
    3.0388   -1.2283   -1.1267 C   0  0  0  0  0  0  0  0  0  0  0  0
    4.4345   -1.1281   -1.0902 C   0  0  0  0  0  0  0  0  0  0  0  0
    5.0438   -0.1650   -0.2929 C   0  0  0  0  0  0  0  0  0  0  0  0
    4.2592    0.6813    0.4928 C   0  0  0  0  0  0  0  0  0  0  0  0
    2.8674    0.5905    0.4465 C   0  0  0  0  0  0  0  0  0  0  0  0
    4.7863    1.6336    1.3287 O   0  0  0  0  0  0  0  0  0  0  0  0
    6.1824    1.4076    1.5582 C   0  0  0  0  0  0  0  0  0  0  0  0
    6.8993    1.1073    0.2522 C   0  0  0  0  0  0  0  0  0  0  0  0
    6.4130   -0.1103   -0.3235 O   0  0  0  0  0  0  0  0  0  0  0  0
   -2.3111   -2.1245   -0.6856 C   0  0  0  0  0  0  0  0  0  0  0  0
   -3.6827   -1.9127   -0.5272 C   0  0  0  0  0  0  0  0  0  0  0  0
   -7.0836    2.2261    1.6620 H   0  0  0  0  0  0  0  0  0  0  0  0
   -7.4735    1.6683    0.0099 H   0  0  0  0  0  0  0  0  0  0  0  0
   -5.8580    2.3754    0.3713 H   0  0  0  0  0  0  0  0  0  0  0  0
   -6.1804   -1.1978   -0.6047 H   0  0  0  0  0  0  0  0  0  0  0  0
   -3.7281    1.4875   -0.7453 H   0  0  0  0  0  0  0  0  0  0  0  0
   -1.3132    1.1233   -1.0403 H   0  0  0  0  0  0  0  0  0  0  0  0
    0.3860    0.2758    0.2524 H   0  0  0  0  0  0  0  0  0  0  0  0
    2.6033   -1.9860   -1.7710 H   0  0  0  0  0  0  0  0  0  0  0  0
    5.0399   -1.7974   -1.6953 H   0  0  0  0  0  0  0  0  0  0  0  0
    2.2827    1.2699    1.0598 H   0  0  0  0  0  0  0  0  0  0  0  0
    6.5935    2.3126    2.0163 H   0  0  0  0  0  0  0  0  0  0  0  0
    6.2891    0.5832    2.2742 H   0  0  0  0  0  0  0  0  0  0  0  0
    7.9725    0.9852    0.4289 H   0  0  0  0  0  0  0  0  0  0  0  0
    6.7625    1.9163   -0.4761 H   0  0  0  0  0  0  0  0  0  0  0  0
   -1.9147   -3.1383   -0.6735 H   0  0  0  0  0  0  0  0  0  0  0  0
   -4.3373   -2.7672   -0.3793 H   0  0  0  0  0  0  0  0  0  0  0  0
  1  2  1  0
  2  3  2  0
  2  4  2  0
  2  5  1  0
  5  6  1  0
  6  7  2  0
  7  8  1  0
  8  9  2  0
  9 10  1  0
 10 11  2  0
 10 12  1  0
 12 13  1  0
 13 14  2  0
 14 15  1  0
 15 16  2  0
 16 17  1  0
 17 18  2  0
 17 19  1  0
 19 20  1  0
 20 21  1  0
 21 22  1  0
  9 23  1  0
 23 24  2  0
 24  6  1  0
 18 13  1  0
 22 16  1  0
  1 25  1  0
  1 26  1  0
  1 27  1  0
  5 28  1  0
  7 29  1  0
  8 30  1  0
 12 31  1  0
 14 32  1  0
 15 33  1  0
 18 34  1  0
 20 35  1  0
 20 36  1  0
 21 37  1  0
 21 38  1  0
 23 39  1  0
 24 40  1  0
M  END
$$$$
