
     RDKit          3D

 39 40  0  0  0  0  0  0  0  0999 V2000
   -0.2454   -0.7782   -2.4208 O   0  0  0  0  0  0  0  0  0  0  0  0
   -0.7809   -1.3435   -1.4691 C   0  0  0  0  0  0  0  0  0  0  0  0
   -2.0957   -0.8969   -0.9280 C   0  0  0  0  0  0  0  0  0  0  0  0
   -2.7726    0.0891   -1.5349 C   0  0  0  0  0  0  0  0  0  0  0  0
   -4.0639    0.6097   -1.0657 C   0  0  0  0  0  0  0  0  0  0  0  0
   -5.0484   -0.2142   -0.5030 C   0  0  0  0  0  0  0  0  0  0  0  0
   -6.2732    0.3211   -0.0957 C   0  0  0  0  0  0  0  0  0  0  0  0
   -6.5216    1.6778   -0.2586 C   0  0  0  0  0  0  0  0  0  0  0  0
   -7.7295    2.1566    0.1528 O   0  0  0  0  0  0  0  0  0  0  0  0
   -5.5664    2.5114   -0.8282 C   0  0  0  0  0  0  0  0  0  0  0  0
   -4.3417    1.9739   -1.2359 C   0  0  0  0  0  0  0  0  0  0  0  0
   -0.1154   -2.5000   -0.7798 C   0  0  0  0  0  0  0  0  0  0  0  0
    0.6660   -2.0625    0.4259 C   0  0  0  0  0  0  0  0  0  0  0  0
    0.2240   -2.2234    1.5619 O   0  0  0  0  0  0  0  0  0  0  0  0
    1.9849   -1.4122    0.1806 C   0  0  0  0  0  0  0  0  0  0  0  0
    2.7680   -1.0671    1.2132 C   0  0  0  0  0  0  0  0  0  0  0  0
    4.0723   -0.4038    1.0763 C   0  0  0  0  0  0  0  0  0  0  0  0
    4.4793    0.4907    2.0761 C   0  0  0  0  0  0  0  0  0  0  0  0
    5.7213    1.1257    2.0009 C   0  0  0  0  0  0  0  0  0  0  0  0
    6.5662    0.8603    0.9316 C   0  0  0  0  0  0  0  0  0  0  0  0
    7.7687    1.5008    0.8971 O   0  0  0  0  0  0  0  0  0  0  0  0
    6.1918   -0.0350   -0.0638 C   0  0  0  0  0  0  0  0  0  0  0  0
    4.9476   -0.6697    0.0130 C   0  0  0  0  0  0  0  0  0  0  0  0
   -2.4533   -1.3885   -0.0304 H   0  0  0  0  0  0  0  0  0  0  0  0
   -2.3594    0.5740   -2.4183 H   0  0  0  0  0  0  0  0  0  0  0  0
   -4.8844   -1.2818   -0.3838 H   0  0  0  0  0  0  0  0  0  0  0  0
   -7.0321   -0.3209    0.3425 H   0  0  0  0  0  0  0  0  0  0  0  0
   -7.7583    3.1125   -0.0164 H   0  0  0  0  0  0  0  0  0  0  0  0
   -5.7520    3.5719   -0.9648 H   0  0  0  0  0  0  0  0  0  0  0  0
   -3.6002    2.6342   -1.6815 H   0  0  0  0  0  0  0  0  0  0  0  0
    0.5456   -3.0144   -1.4865 H   0  0  0  0  0  0  0  0  0  0  0  0
   -0.8654   -3.2404   -0.4796 H   0  0  0  0  0  0  0  0  0  0  0  0
    2.2559   -1.2233   -0.8519 H   0  0  0  0  0  0  0  0  0  0  0  0
    2.4372   -1.2520    2.2347 H   0  0  0  0  0  0  0  0  0  0  0  0
    3.8295    0.7094    2.9208 H   0  0  0  0  0  0  0  0  0  0  0  0
    6.0265    1.8233    2.7756 H   0  0  0  0  0  0  0  0  0  0  0  0
    8.2456    1.2237    0.0979 H   0  0  0  0  0  0  0  0  0  0  0  0
    6.8494   -0.2562   -0.8985 H   0  0  0  0  0  0  0  0  0  0  0  0
    4.6799   -1.3816   -0.7635 H   0  0  0  0  0  0  0  0  0  0  0  0
  1  2  2  0
  2  3  1  0
  3  4  2  3
  4  5  1  0
  5  6  2  0
  6  7  1  0
  7  8  2  0
  8  9  1  0
  8 10  1  0
 10 11  2  0
  2 12  1  0
 12 13  1  0
 13 14  2  0
 13 15  1  0
 15 16  2  3
 16 17  1  0
 17 18  2  0
 18 19  1  0
 19 20  2  0
 20 21  1  0
 20 22  1  0
 22 23  2  0
 11  5  1  0
 23 17  1  0
  3 24  1  0
  4 25  1  0
  6 26  1  0
  7 27  1  0
  9 28  1  0
 10 29  1  0
 11 30  1  0
 12 31  1  0
 12 32  1  0
 15 33  1  0
 16 34  1  0
 18 35  1  0
 19 36  1  0
 21 37  1  0
 22 38  1  0
 23 39  1  0
M  END
$$$$
