
     RDKit          3D

 38 38  0  0  0  0  0  0  0  0999 V2000
    4.8510    0.0969    2.7737 C   0  0  0  0  0  0  0  0  0  0  0  0
    4.3487    1.0629    1.8592 O   0  0  0  0  0  0  0  0  0  0  0  0
    3.1817    1.7149    2.3758 C   0  0  0  0  0  0  0  0  0  0  0  0
    2.6789    2.7181    1.3365 C   0  0  0  0  0  0  0  0  0  0  0  0
    2.2412    2.0598    0.1144 N   0  0  0  0  0  0  0  0  0  0  0  0
    0.9992    1.4703    0.0288 C   0  0  0  0  0  0  0  0  0  0  0  0
    0.1735    1.5724    0.9335 O   0  0  0  0  0  0  0  0  0  0  0  0
    0.7185    0.6813   -1.2233 C   0  0  0  0  0  0  0  0  0  0  0  0
    1.6458    0.7547   -2.2942 C   0  0  0  0  0  0  0  0  0  0  0  0
    2.4362    0.8325   -3.1414 N   0  0  0  0  0  0  0  0  0  0  0  0
   -0.4219   -0.0430   -1.2431 C   0  0  0  0  0  0  0  0  0  0  0  0
   -1.0105   -0.9118   -2.2728 C   0  0  0  0  0  0  0  0  0  0  0  0
   -0.2811   -1.1552   -3.5712 C   0  0  0  0  0  0  0  0  0  0  0  0
   -2.2013   -1.5283   -2.0999 C   0  0  0  0  0  0  0  0  0  0  0  0
   -3.0819   -1.4371   -0.9307 C   0  0  0  0  0  0  0  0  0  0  0  0
   -3.9400   -0.3435   -0.7725 C   0  0  0  0  0  0  0  0  0  0  0  0
   -4.7725   -0.2617    0.3450 C   0  0  0  0  0  0  0  0  0  0  0  0
   -4.7521   -1.2720    1.3059 C   0  0  0  0  0  0  0  0  0  0  0  0
   -3.8999   -2.3650    1.1515 C   0  0  0  0  0  0  0  0  0  0  0  0
   -3.0659   -2.4486    0.0350 C   0  0  0  0  0  0  0  0  0  0  0  0
    5.7401   -0.3631    2.3343 H   0  0  0  0  0  0  0  0  0  0  0  0
    5.1336    0.5733    3.7174 H   0  0  0  0  0  0  0  0  0  0  0  0
    4.1058   -0.6840    2.9531 H   0  0  0  0  0  0  0  0  0  0  0  0
    3.4455    2.2451    3.2976 H   0  0  0  0  0  0  0  0  0  0  0  0
    2.4127    0.9667    2.5989 H   0  0  0  0  0  0  0  0  0  0  0  0
    3.4832    3.4027    1.0478 H   0  0  0  0  0  0  0  0  0  0  0  0
    1.8478    3.3008    1.7469 H   0  0  0  0  0  0  0  0  0  0  0  0
    2.9800    1.8183   -0.5364 H   0  0  0  0  0  0  0  0  0  0  0  0
   -1.0292    0.0113   -0.3360 H   0  0  0  0  0  0  0  0  0  0  0  0
    0.6993   -1.6072   -3.3893 H   0  0  0  0  0  0  0  0  0  0  0  0
   -0.8236   -1.8460   -4.2274 H   0  0  0  0  0  0  0  0  0  0  0  0
   -0.1631   -0.2228   -4.1324 H   0  0  0  0  0  0  0  0  0  0  0  0
   -2.6005   -2.1759   -2.8794 H   0  0  0  0  0  0  0  0  0  0  0  0
   -3.9611    0.4512   -1.5142 H   0  0  0  0  0  0  0  0  0  0  0  0
   -5.4341    0.5918    0.4672 H   0  0  0  0  0  0  0  0  0  0  0  0
   -5.3988   -1.2059    2.1771 H   0  0  0  0  0  0  0  0  0  0  0  0
   -3.8827   -3.1509    1.9020 H   0  0  0  0  0  0  0  0  0  0  0  0
   -2.4021   -3.3028   -0.0733 H   0  0  0  0  0  0  0  0  0  0  0  0
  1  2  1  0
  2  3  1  0
  3  4  1  0
  4  5  1  0
  5  6  1  0
  6  7  2  0
  6  8  1  0
  8  9  1  0
  9 10  3  0
  8 11  2  3
 11 12  1  0
 12 13  1  0
 12 14  2  3
 14 15  1  0
 15 16  2  0
 16 17  1  0
 17 18  2  0
 18 19  1  0
 19 20  2  0
 20 15  1  0
  1 21  1  0
  1 22  1  0
  1 23  1  0
  3 24  1  0
  3 25  1  0
  4 26  1  0
  4 27  1  0
  5 28  1  0
 11 29  1  0
 13 30  1  0
 13 31  1  0
 13 32  1  0
 14 33  1  0
 16 34  1  0
 17 35  1  0
 18 36  1  0
 19 37  1  0
 20 38  1  0
M  END
$$$$
