
     RDKit          3D

 40 42  0  0  0  0  0  0  0  0999 V2000
    5.1771   -0.6160    1.1959 N   0  0  0  0  0  0  0  0  0  0  0  0
    3.7850   -0.2391    1.4073 C   0  0  0  0  0  0  0  0  0  0  0  0
    3.0194   -0.3041    0.0878 C   0  0  0  0  0  0  0  0  0  0  0  0
    1.5514    0.0801    0.2819 C   0  0  0  0  0  0  0  0  0  0  0  0
    0.7764   -0.0068   -1.0418 C   0  0  0  0  0  0  0  0  0  0  0  0
   -0.6507    0.3777   -0.8742 N   0  0  0  0  0  0  0  0  0  0  0  0
   -0.8560    1.7799   -0.7356 C   0  0  0  0  0  0  0  0  0  0  0  0
   -0.3490    2.6686   -1.7050 C   0  0  0  0  0  0  0  0  0  0  0  0
   -0.5427    4.0491   -1.6078 C   0  0  0  0  0  0  0  0  0  0  0  0
   -1.2603    4.5737   -0.5414 C   0  0  0  0  0  0  0  0  0  0  0  0
   -1.7926    3.7151    0.4179 C   0  0  0  0  0  0  0  0  0  0  0  0
   -1.6068    2.3257    0.3227 C   0  0  0  0  0  0  0  0  0  0  0  0
   -2.3155    1.3255    1.6153 S   0  0  0  0  0  0  0  0  0  0  0  0
   -2.2540   -0.2988    0.8882 C   0  0  0  0  0  0  0  0  0  0  0  0
   -3.0316   -1.2979    1.4953 C   0  0  0  0  0  0  0  0  0  0  0  0
   -3.0326   -2.6024    1.0025 C   0  0  0  0  0  0  0  0  0  0  0  0
   -2.2546   -2.9312   -0.1102 C   0  0  0  0  0  0  0  0  0  0  0  0
   -2.2800   -4.3245   -0.6867 C   0  0  0  0  0  0  0  0  0  0  0  0
   -3.2219   -4.4666   -1.6587 F   0  0  0  0  0  0  0  0  0  0  0  0
   -2.5522   -5.2833    0.2421 F   0  0  0  0  0  0  0  0  0  0  0  0
   -1.0961   -4.6865   -1.2559 F   0  0  0  0  0  0  0  0  0  0  0  0
   -1.4806   -1.9256   -0.7153 C   0  0  0  0  0  0  0  0  0  0  0  0
   -1.4435   -0.6059   -0.2199 C   0  0  0  0  0  0  0  0  0  0  0  0
    5.6271    0.0594    0.5791 H   0  0  0  0  0  0  0  0  0  0  0  0
    5.6784   -0.5671    2.0826 H   0  0  0  0  0  0  0  0  0  0  0  0
    3.7405    0.7722    1.8258 H   0  0  0  0  0  0  0  0  0  0  0  0
    3.3366   -0.9226    2.1363 H   0  0  0  0  0  0  0  0  0  0  0  0
    3.4795    0.3714   -0.6444 H   0  0  0  0  0  0  0  0  0  0  0  0
    3.0799   -1.3188   -0.3259 H   0  0  0  0  0  0  0  0  0  0  0  0
    1.0976   -0.5836    1.0276 H   0  0  0  0  0  0  0  0  0  0  0  0
    1.4942    1.0975    0.6872 H   0  0  0  0  0  0  0  0  0  0  0  0
    0.8684   -1.0205   -1.4484 H   0  0  0  0  0  0  0  0  0  0  0  0
    1.2710    0.6210   -1.7917 H   0  0  0  0  0  0  0  0  0  0  0  0
    0.1776    2.2890   -2.5766 H   0  0  0  0  0  0  0  0  0  0  0  0
   -0.1424    4.7087   -2.3734 H   0  0  0  0  0  0  0  0  0  0  0  0
   -1.4164    5.6461   -0.4599 H   0  0  0  0  0  0  0  0  0  0  0  0
   -2.3595    4.1370    1.2449 H   0  0  0  0  0  0  0  0  0  0  0  0
   -3.6485   -1.0616    2.3604 H   0  0  0  0  0  0  0  0  0  0  0  0
   -3.6507   -3.3565    1.4873 H   0  0  0  0  0  0  0  0  0  0  0  0
   -0.9220   -2.1780   -1.6154 H   0  0  0  0  0  0  0  0  0  0  0  0
  1  2  1  0
  2  3  1  0
  3  4  1  0
  4  5  1  0
  5  6  1  0
  6  7  1  0
  7  8  2  0
  8  9  1  0
  9 10  2  0
 10 11  1  0
 11 12  2  0
 12 13  1  0
 13 14  1  0
 14 15  2  0
 15 16  1  0
 16 17  2  0
 17 18  1  0
 18 19  1  0
 18 20  1  0
 18 21  1  0
 17 22  1  0
 22 23  2  0
 23  6  1  0
 12  7  1  0
 23 14  1  0
  1 24  1  0
  1 25  1  0
  2 26  1  0
  2 27  1  0
  3 28  1  0
  3 29  1  0
  4 30  1  0
  4 31  1  0
  5 32  1  0
  5 33  1  0
  8 34  1  0
  9 35  1  0
 10 36  1  0
 11 37  1  0
 15 38  1  0
 16 39  1  0
 22 40  1  0
M  END
$$$$
