
     RDKit          3D

 47 50  0  0  0  0  0  0  0  0999 V2000
   -7.2320   -2.3868    2.4941 C   0  0  0  0  0  0  0  0  0  0  0  0
   -6.2436   -1.7234    1.7029 O   0  0  0  0  0  0  0  0  0  0  0  0
   -6.5579   -1.6375    0.3868 C   0  0  0  0  0  0  0  0  0  0  0  0
   -7.5722   -2.0696   -0.1365 O   0  0  0  0  0  0  0  0  0  0  0  0
   -5.4824   -0.9338   -0.3653 C   0  0  0  0  0  0  0  0  0  0  0  0
   -5.5914   -0.8665   -1.7570 C   0  0  0  0  0  0  0  0  0  0  0  0
   -4.6101   -0.2183   -2.5052 C   0  0  0  0  0  0  0  0  0  0  0  0
   -3.5181    0.3848   -1.8709 C   0  0  0  0  0  0  0  0  0  0  0  0
   -3.3990    0.3504   -0.4762 C   0  0  0  0  0  0  0  0  0  0  0  0
   -2.3142    0.9573    0.2195 N   0  0  0  0  0  0  0  0  0  0  0  0
   -2.0972    0.6541    1.5310 N   0  0  0  0  0  0  0  0  0  0  0  0
   -1.0023    1.2967    1.8985 N   0  0  0  0  0  0  0  0  0  0  0  0
   -0.5160    2.0583    0.8793 N   0  0  0  0  0  0  0  0  0  0  0  0
   -1.3291    1.8727   -0.1394 C   0  0  0  0  0  0  0  0  0  0  0  0
   -1.2270    2.7796   -1.6110 S   0  0  0  0  0  0  0  0  0  0  0  0
    0.3584    3.6407   -1.4003 C   0  0  0  0  0  0  0  0  0  0  0  0
    1.5182    2.6977   -1.6829 C   0  0  0  0  0  0  0  0  0  0  0  0
    1.8855    2.5021   -2.8383 O   0  0  0  0  0  0  0  0  0  0  0  0
    2.0419    2.1343   -0.5416 N   0  0  0  0  0  0  0  0  0  0  0  0
    3.1158    1.2883   -0.4511 C   0  0  0  0  0  0  0  0  0  0  0  0
    3.4533    0.7476    0.6993 N   0  0  0  0  0  0  0  0  0  0  0  0
    4.5675   -0.0455    0.5195 C   0  0  0  0  0  0  0  0  0  0  0  0
    5.0529   -0.0907   -0.7698 C   0  0  0  0  0  0  0  0  0  0  0  0
    4.1074    0.8908   -1.7840 S   0  0  0  0  0  0  0  0  0  0  0  0
    6.2477   -0.8589   -1.2150 C   0  0  0  0  0  0  0  0  0  0  0  0
    6.6166   -1.9137   -0.1552 C   0  0  0  0  0  0  0  0  0  0  0  0
    6.5699   -1.3406    1.2722 C   0  0  0  0  0  0  0  0  0  0  0  0
    5.1682   -0.8202    1.6424 C   0  0  0  0  0  0  0  0  0  0  0  0
   -4.3831   -0.3327    0.2697 C   0  0  0  0  0  0  0  0  0  0  0  0
   -7.4147   -3.4003    2.1213 H   0  0  0  0  0  0  0  0  0  0  0  0
   -6.8529   -2.4579    3.5170 H   0  0  0  0  0  0  0  0  0  0  0  0
   -8.1586   -1.8052    2.5065 H   0  0  0  0  0  0  0  0  0  0  0  0
   -6.4382   -1.3266   -2.2663 H   0  0  0  0  0  0  0  0  0  0  0  0
   -4.6919   -0.1883   -3.5889 H   0  0  0  0  0  0  0  0  0  0  0  0
   -2.7736    0.8331   -2.5181 H   0  0  0  0  0  0  0  0  0  0  0  0
    0.4105    4.4600   -2.1256 H   0  0  0  0  0  0  0  0  0  0  0  0
    0.4438    4.0964   -0.4083 H   0  0  0  0  0  0  0  0  0  0  0  0
    1.5542    2.2425    0.3428 H   0  0  0  0  0  0  0  0  0  0  0  0
    7.0893   -0.1682   -1.3488 H   0  0  0  0  0  0  0  0  0  0  0  0
    6.0656   -1.3518   -2.1759 H   0  0  0  0  0  0  0  0  0  0  0  0
    7.6152   -2.3096   -0.3653 H   0  0  0  0  0  0  0  0  0  0  0  0
    5.9188   -2.7583   -0.2206 H   0  0  0  0  0  0  0  0  0  0  0  0
    6.8754   -2.1077    1.9934 H   0  0  0  0  0  0  0  0  0  0  0  0
    7.2959   -0.5215    1.3485 H   0  0  0  0  0  0  0  0  0  0  0  0
    4.5142   -1.6701    1.8701 H   0  0  0  0  0  0  0  0  0  0  0  0
    5.2304   -0.2003    2.5434 H   0  0  0  0  0  0  0  0  0  0  0  0
   -4.3111   -0.3835    1.3550 H   0  0  0  0  0  0  0  0  0  0  0  0
  1  2  1  0
  2  3  1  0
  3  4  2  0
  3  5  1  0
  5  6  2  0
  6  7  1  0
  7  8  2  0
  8  9  1  0
  9 10  1  0
 10 11  1  0
 11 12  2  0
 12 13  1  0
 13 14  2  0
 14 15  1  0
 15 16  1  0
 16 17  1  0
 17 18  2  0
 17 19  1  0
 19 20  1  0
 20 21  2  0
 21 22  1  0
 22 23  2  0
 23 24  1  0
 23 25  1  0
 25 26  1  0
 26 27  1  0
 27 28  1  0
  9 29  2  0
 29  5  1  0
 14 10  1  0
 24 20  1  0
 28 22  1  0
  1 30  1  0
  1 31  1  0
  1 32  1  0
  6 33  1  0
  7 34  1  0
  8 35  1  0
 16 36  1  0
 16 37  1  0
 19 38  1  0
 25 39  1  0
 25 40  1  0
 26 41  1  0
 26 42  1  0
 27 43  1  0
 27 44  1  0
 28 45  1  0
 28 46  1  0
 29 47  1  0
M  END
$$$$
