
     RDKit          3D

 29 30  0  0  0  0  0  0  0  0999 V2000
   -3.2601   -0.4968    1.2383 C   0  0  0  0  0  0  0  0  0  0  0  0
   -2.2162   -0.1227    0.2245 C   0  0  0  0  0  0  0  0  0  0  0  0
   -1.0852   -0.8067   -0.0422 C   0  0  0  0  0  0  0  0  0  0  0  0
   -0.7236   -2.1261    0.5882 C   0  0  0  0  0  0  0  0  0  0  0  0
   -0.0715   -0.2880   -1.0455 C   0  0  0  0  0  0  0  0  0  0  0  0
    1.2668    0.0698   -0.4183 C   0  0  0  0  0  0  0  0  0  0  0  0
    1.3798    1.1259    0.5017 C   0  0  0  0  0  0  0  0  0  0  0  0
    2.6125    1.4442    1.0736 C   0  0  0  0  0  0  0  0  0  0  0  0
    3.7481    0.7119    0.7350 C   0  0  0  0  0  0  0  0  0  0  0  0
    3.6530   -0.3385   -0.1755 C   0  0  0  0  0  0  0  0  0  0  0  0
    2.4209   -0.6586   -0.7494 C   0  0  0  0  0  0  0  0  0  0  0  0
   -0.5854    0.8391   -1.7957 N   0  0  0  0  0  0  0  0  0  0  0  0
   -1.6899    1.5421   -1.4585 C   0  0  0  0  0  0  0  0  0  0  0  0
   -2.0940    2.9462   -2.2498 S   0  0  0  0  0  0  0  0  0  0  0  0
   -2.4635    1.0443   -0.4596 N   0  0  0  0  0  0  0  0  0  0  0  0
   -3.5667    0.3839    1.8143 H   0  0  0  0  0  0  0  0  0  0  0  0
   -4.1450   -0.9019    0.7368 H   0  0  0  0  0  0  0  0  0  0  0  0
   -2.9080   -1.2320    1.9660 H   0  0  0  0  0  0  0  0  0  0  0  0
    0.0571   -1.9898    1.3430 H   0  0  0  0  0  0  0  0  0  0  0  0
   -1.5738   -2.6224    1.0626 H   0  0  0  0  0  0  0  0  0  0  0  0
   -0.3509   -2.8208   -0.1726 H   0  0  0  0  0  0  0  0  0  0  0  0
    0.0858   -1.0661   -1.8038 H   0  0  0  0  0  0  0  0  0  0  0  0
    0.5013    1.7077    0.7749 H   0  0  0  0  0  0  0  0  0  0  0  0
    2.6849    2.2652    1.7821 H   0  0  0  0  0  0  0  0  0  0  0  0
    4.7077    0.9613    1.1801 H   0  0  0  0  0  0  0  0  0  0  0  0
    4.5401   -0.9086   -0.4396 H   0  0  0  0  0  0  0  0  0  0  0  0
    2.3692   -1.4824   -1.4580 H   0  0  0  0  0  0  0  0  0  0  0  0
    0.0106    1.2472   -2.5028 H   0  0  0  0  0  0  0  0  0  0  0  0
   -3.3037    1.5727   -0.2497 H   0  0  0  0  0  0  0  0  0  0  0  0
  1  2  1  0
  2  3  2  0
  3  4  1  0
  3  5  1  0
  5  6  1  0
  6  7  2  0
  7  8  1  0
  8  9  2  0
  9 10  1  0
 10 11  2  0
  5 12  1  0
 12 13  1  0
 13 14  2  0
 13 15  1  0
 15  2  1  0
 11  6  1  0
  1 16  1  0
  1 17  1  0
  1 18  1  0
  4 19  1  0
  4 20  1  0
  4 21  1  0
  5 22  1  0
  7 23  1  0
  8 24  1  0
  9 25  1  0
 10 26  1  0
 11 27  1  0
 12 28  1  0
 15 29  1  0
M  END
$$$$
