
     RDKit          3D

 60 65  0  0  0  0  0  0  0  0999 V2000
    1.9738    1.1159    3.8636 O   0  0  0  0  0  0  0  0  0  0  0  0
    2.2724    0.5172    2.8366 C   0  0  0  0  0  0  0  0  0  0  0  0
    1.4197    0.4649    1.7403 N   0  0  0  0  0  0  0  0  0  0  0  0
    1.7025   -0.2118    0.5590 C   0  0  0  0  0  0  0  0  0  0  0  0
    0.6388   -0.1608   -0.5265 C   0  0  0  0  0  0  0  0  0  0  0  0
   -0.6660   -0.8134   -0.0579 C   0  0  0  0  0  0  0  0  0  0  0  0
   -1.7382   -0.7181   -1.1393 C   0  0  0  0  0  0  0  0  0  0  0  0
   -1.9477    0.7169   -1.4831 N   0  0  0  0  0  0  0  0  0  0  0  0
   -3.3343    1.0188   -2.4553 S   0  0  0  0  0  6  0  0  0  0  0  0
   -3.2961    0.0718   -3.5499 O   0  0  0  0  0  0  0  0  0  0  0  0
   -3.4223    2.4432   -2.6906 O   0  0  0  0  0  0  0  0  0  0  0  0
   -4.6698    0.5841   -1.3730 C   0  0  0  0  0  0  0  0  0  0  0  0
   -5.5585   -0.4364   -1.7255 C   0  0  0  0  0  0  0  0  0  0  0  0
   -6.5928   -0.7749   -0.8513 C   0  0  0  0  0  0  0  0  0  0  0  0
   -6.7300   -0.0969    0.3605 C   0  0  0  0  0  0  0  0  0  0  0  0
   -5.8539    0.9450    0.6895 C   0  0  0  0  0  0  0  0  0  0  0  0
   -4.8129    1.2822   -0.1701 C   0  0  0  0  0  0  0  0  0  0  0  0
   -5.9540    1.6712    1.8481 O   0  0  0  0  0  0  0  0  0  0  0  0
   -7.2367    1.4954    2.4618 C   0  0  0  0  0  0  0  0  0  0  0  0
   -7.6115    0.0231    2.5020 C   0  0  0  0  0  0  0  0  0  0  0  0
   -7.7552   -0.5013    1.1766 O   0  0  0  0  0  0  0  0  0  0  0  0
   -0.7102    1.3225   -2.0527 C   0  0  0  0  0  0  0  0  0  0  0  0
    0.3935    1.2755   -0.9998 C   0  0  0  0  0  0  0  0  0  0  0  0
    2.8059   -0.8744    0.3414 N   0  0  0  0  0  0  0  0  0  0  0  0
    3.6624   -0.8280    1.3920 C   0  0  0  0  0  0  0  0  0  0  0  0
    3.4942   -0.2026    2.6040 C   0  0  0  0  0  0  0  0  0  0  0  0
    4.5790   -0.3995    3.4010 N   0  0  0  0  0  0  0  0  0  0  0  0
    5.4468   -1.1411    2.7122 N   0  0  0  0  0  0  0  0  0  0  0  0
    4.9054   -1.3841    1.4925 N   0  0  0  0  0  0  0  0  0  0  0  0
    5.6108   -2.1826    0.5127 C   0  0  0  0  0  0  0  0  0  0  0  0
    6.3716   -1.3155   -0.4612 C   0  0  0  0  0  0  0  0  0  0  0  0
    5.8198   -0.9980   -1.7135 C   0  0  0  0  0  0  0  0  0  0  0  0
    6.5197   -0.1862   -2.6071 C   0  0  0  0  0  0  0  0  0  0  0  0
    7.7661    0.3133   -2.2490 C   0  0  0  0  0  0  0  0  0  0  0  0
    8.4350    1.0933   -3.1081 F   0  0  0  0  0  0  0  0  0  0  0  0
    8.3259    0.0194   -1.0120 C   0  0  0  0  0  0  0  0  0  0  0  0
    7.6293   -0.7929   -0.1161 C   0  0  0  0  0  0  0  0  0  0  0  0
    0.5514    0.9648    1.8644 H   0  0  0  0  0  0  0  0  0  0  0  0
    1.0193   -0.7386   -1.3808 H   0  0  0  0  0  0  0  0  0  0  0  0
   -1.0338   -0.3287    0.8552 H   0  0  0  0  0  0  0  0  0  0  0  0
   -0.4882   -1.8652    0.1966 H   0  0  0  0  0  0  0  0  0  0  0  0
   -2.6592   -1.1600   -0.7485 H   0  0  0  0  0  0  0  0  0  0  0  0
   -1.4354   -1.2831   -2.0285 H   0  0  0  0  0  0  0  0  0  0  0  0
   -5.4543   -0.9686   -2.6685 H   0  0  0  0  0  0  0  0  0  0  0  0
   -7.2875   -1.5702   -1.1092 H   0  0  0  0  0  0  0  0  0  0  0  0
   -4.1303    2.0876    0.0889 H   0  0  0  0  0  0  0  0  0  0  0  0
   -7.1766    1.8990    3.4774 H   0  0  0  0  0  0  0  0  0  0  0  0
   -7.9752    2.0836    1.9028 H   0  0  0  0  0  0  0  0  0  0  0  0
   -8.5682   -0.1102    3.0167 H   0  0  0  0  0  0  0  0  0  0  0  0
   -6.8536   -0.5693    3.0295 H   0  0  0  0  0  0  0  0  0  0  0  0
   -0.4058    0.7835   -2.9573 H   0  0  0  0  0  0  0  0  0  0  0  0
   -0.8856    2.3703   -2.3170 H   0  0  0  0  0  0  0  0  0  0  0  0
    0.1088    1.9157   -0.1554 H   0  0  0  0  0  0  0  0  0  0  0  0
    1.3180    1.6967   -1.4127 H   0  0  0  0  0  0  0  0  0  0  0  0
    6.2919   -2.8582    1.0433 H   0  0  0  0  0  0  0  0  0  0  0  0
    4.8766   -2.8109   -0.0045 H   0  0  0  0  0  0  0  0  0  0  0  0
    4.8387   -1.3753   -1.9964 H   0  0  0  0  0  0  0  0  0  0  0  0
    6.1010    0.0630   -3.5768 H   0  0  0  0  0  0  0  0  0  0  0  0
    9.2971    0.4276   -0.7506 H   0  0  0  0  0  0  0  0  0  0  0  0
    8.0686   -1.0086    0.8570 H   0  0  0  0  0  0  0  0  0  0  0  0
  1  2  2  0
  2  3  1  0
  3  4  1  0
  4  5  1  0
  5  6  1  0
  6  7  1  0
  7  8  1  0
  8  9  1  0
  9 10  2  0
  9 11  2  0
  9 12  1  0
 12 13  2  0
 13 14  1  0
 14 15  2  0
 15 16  1  0
 16 17  2  0
 16 18  1  0
 18 19  1  0
 19 20  1  0
 20 21  1  0
  8 22  1  0
 22 23  1  0
  4 24  2  0
 24 25  1  0
 25 26  2  0
 26 27  1  0
 27 28  2  0
 28 29  1  0
 29 30  1  0
 30 31  1  0
 31 32  2  0
 32 33  1  0
 33 34  2  0
 34 35  1  0
 34 36  1  0
 36 37  2  0
 26  2  1  0
 37 31  1  0
 23  5  1  0
 29 25  1  0
 17 12  1  0
 21 15  1  0
  3 38  1  0
  5 39  1  0
  6 40  1  0
  6 41  1  0
  7 42  1  0
  7 43  1  0
 13 44  1  0
 14 45  1  0
 17 46  1  0
 19 47  1  0
 19 48  1  0
 20 49  1  0
 20 50  1  0
 22 51  1  0
 22 52  1  0
 23 53  1  0
 23 54  1  0
 30 55  1  0
 30 56  1  0
 32 57  1  0
 33 58  1  0
 36 59  1  0
 37 60  1  0
M  END
$$$$
