
     RDKit          3D

 38 38  0  0  0  0  0  0  0  0999 V2000
    5.4229   -0.1351   -3.6811 C   0  0  0  0  0  0  0  0  0  0  0  0
    4.3904   -0.7355   -2.7484 C   0  0  0  0  0  0  0  0  0  0  0  0
    3.6993    0.3348   -2.0916 O   0  0  0  0  0  0  0  0  0  0  0  0
    2.7240   -0.0779   -1.2321 C   0  0  0  0  0  0  0  0  0  0  0  0
    2.3991   -1.2426   -1.0459 O   0  0  0  0  0  0  0  0  0  0  0  0
    2.0536    1.1091   -0.6067 C   0  0  0  0  0  0  0  0  0  0  0  0
    1.4140    0.7527    0.7100 C   0  0  0  0  0  0  0  0  0  0  0  0
    2.0748    0.6748    1.7456 O   0  0  0  0  0  0  0  0  0  0  0  0
   -0.0335    0.4156    0.7535 C   0  0  0  0  0  0  0  0  0  0  0  0
   -0.9782    1.1278    0.0046 C   0  0  0  0  0  0  0  0  0  0  0  0
   -2.3287    0.7795    0.0788 C   0  0  0  0  0  0  0  0  0  0  0  0
   -3.3367    1.4120   -0.6028 O   0  0  0  0  0  0  0  0  0  0  0  0
   -2.9661    2.3111   -1.6395 C   0  0  0  0  0  0  0  0  0  0  0  0
   -2.7186   -0.2710    0.9299 C   0  0  0  0  0  0  0  0  0  0  0  0
   -4.0454   -0.6408    0.9651 O   0  0  0  0  0  0  0  0  0  0  0  0
   -4.7067    0.0280    2.0370 C   0  0  0  0  0  0  0  0  0  0  0  0
   -1.7759   -0.9947    1.6812 C   0  0  0  0  0  0  0  0  0  0  0  0
   -2.2658   -2.0118    2.4582 O   0  0  0  0  0  0  0  0  0  0  0  0
   -1.3196   -2.8360    3.1282 C   0  0  0  0  0  0  0  0  0  0  0  0
   -0.4322   -0.6316    1.5975 C   0  0  0  0  0  0  0  0  0  0  0  0
    5.9740   -0.9200   -4.2064 H   0  0  0  0  0  0  0  0  0  0  0  0
    6.1328    0.4845   -3.1222 H   0  0  0  0  0  0  0  0  0  0  0  0
    4.9429    0.5165   -4.4196 H   0  0  0  0  0  0  0  0  0  0  0  0
    3.6793   -1.3399   -3.3252 H   0  0  0  0  0  0  0  0  0  0  0  0
    4.8904   -1.3629   -2.0009 H   0  0  0  0  0  0  0  0  0  0  0  0
    2.7902    1.8978   -0.4063 H   0  0  0  0  0  0  0  0  0  0  0  0
    1.3320    1.5088   -1.3256 H   0  0  0  0  0  0  0  0  0  0  0  0
   -0.6607    1.9665   -0.6036 H   0  0  0  0  0  0  0  0  0  0  0  0
   -2.3231    1.8242   -2.3800 H   0  0  0  0  0  0  0  0  0  0  0  0
   -2.4874    3.2050   -1.2286 H   0  0  0  0  0  0  0  0  0  0  0  0
   -3.8798    2.6299   -2.1490 H   0  0  0  0  0  0  0  0  0  0  0  0
   -5.7698   -0.2188    1.9774 H   0  0  0  0  0  0  0  0  0  0  0  0
   -4.6095    1.1160    1.9575 H   0  0  0  0  0  0  0  0  0  0  0  0
   -4.3354   -0.3155    3.0081 H   0  0  0  0  0  0  0  0  0  0  0  0
   -0.7634   -2.2655    3.8801 H   0  0  0  0  0  0  0  0  0  0  0  0
   -0.6428   -3.3224    2.4173 H   0  0  0  0  0  0  0  0  0  0  0  0
   -1.8724   -3.6224    3.6506 H   0  0  0  0  0  0  0  0  0  0  0  0
    0.3319   -1.1502    2.1697 H   0  0  0  0  0  0  0  0  0  0  0  0
  1  2  1  0
  2  3  1  0
  3  4  1  0
  4  5  2  0
  4  6  1  0
  6  7  1  0
  7  8  2  0
  7  9  1  0
  9 10  2  0
 10 11  1  0
 11 12  1  0
 12 13  1  0
 11 14  2  0
 14 15  1  0
 15 16  1  0
 14 17  1  0
 17 18  1  0
 18 19  1  0
 17 20  2  0
 20  9  1  0
  1 21  1  0
  1 22  1  0
  1 23  1  0
  2 24  1  0
  2 25  1  0
  6 26  1  0
  6 27  1  0
 10 28  1  0
 13 29  1  0
 13 30  1  0
 13 31  1  0
 16 32  1  0
 16 33  1  0
 16 34  1  0
 19 35  1  0
 19 36  1  0
 19 37  1  0
 20 38  1  0
M  END
$$$$
