
     RDKit          3D

 46 49  0  0  0  0  0  0  0  0999 V2000
    1.6783   -0.4244   -1.4416 O   0  0  0  0  0  0  0  0  0  0  0  0
    1.4432   -0.4809   -0.2388 C   0  0  0  0  0  0  0  0  0  0  0  0
    0.9418   -1.7504    0.4251 C   0  0  0  0  0  0  0  0  0  0  0  0
   -0.0195   -2.4967   -0.3754 N   0  0  0  0  0  0  0  0  0  0  0  0
   -1.2139   -2.0256   -0.8935 C   0  0  0  0  0  0  0  0  0  0  0  0
   -1.6547   -0.5942   -0.8719 C   0  0  0  0  0  0  0  0  0  0  0  0
   -1.6046   -0.1470    0.4836 O   0  0  0  0  0  0  0  0  0  0  0  0
   -1.7809    1.1924    0.7018 C   0  0  0  0  0  0  0  0  0  0  0  0
   -1.7616    1.5686    2.0479 C   0  0  0  0  0  0  0  0  0  0  0  0
   -1.8856    2.9098    2.4141 C   0  0  0  0  0  0  0  0  0  0  0  0
   -2.0302    3.8864    1.4325 C   0  0  0  0  0  0  0  0  0  0  0  0
   -2.0609    3.5183    0.0889 C   0  0  0  0  0  0  0  0  0  0  0  0
   -1.9418    2.1738   -0.2775 C   0  0  0  0  0  0  0  0  0  0  0  0
   -1.8919   -3.0061   -1.4613 N   0  0  0  0  0  0  0  0  0  0  0  0
   -1.1267   -4.1318   -1.3160 C   0  0  0  0  0  0  0  0  0  0  0  0
   -1.3884   -5.4427   -1.7413 C   0  0  0  0  0  0  0  0  0  0  0  0
   -0.4465   -6.4415   -1.4718 C   0  0  0  0  0  0  0  0  0  0  0  0
    0.7331   -6.1400   -0.7913 C   0  0  0  0  0  0  0  0  0  0  0  0
    1.0103   -4.8373   -0.3586 C   0  0  0  0  0  0  0  0  0  0  0  0
    0.0558   -3.8495   -0.6394 C   0  0  0  0  0  0  0  0  0  0  0  0
    1.6001    0.5645    0.6572 N   0  0  0  0  0  0  0  0  0  0  0  0
    1.8423    1.9303    0.3694 C   0  0  0  0  0  0  0  0  0  0  0  0
    1.9286    2.4391   -0.9297 C   0  0  0  0  0  0  0  0  0  0  0  0
    2.1039    3.8129   -1.1462 C   0  0  0  0  0  0  0  0  0  0  0  0
    2.1749    4.3650   -2.7828 Cl  0  0  0  0  0  0  0  0  0  0  0  0
    2.2037    4.6896   -0.0607 C   0  0  0  0  0  0  0  0  0  0  0  0
    2.4111    6.3930   -0.2589 Cl  0  0  0  0  0  0  0  0  0  0  0  0
    2.1326    4.1940    1.2407 C   0  0  0  0  0  0  0  0  0  0  0  0
    1.9523    2.8262    1.4508 C   0  0  0  0  0  0  0  0  0  0  0  0
    1.8678    2.2598    3.0859 Cl  0  0  0  0  0  0  0  0  0  0  0  0
    0.4519   -1.5419    1.3821 H   0  0  0  0  0  0  0  0  0  0  0  0
    1.8133   -2.3809    0.6221 H   0  0  0  0  0  0  0  0  0  0  0  0
   -2.6833   -0.5189   -1.2436 H   0  0  0  0  0  0  0  0  0  0  0  0
   -0.9881   -0.0163   -1.5207 H   0  0  0  0  0  0  0  0  0  0  0  0
   -1.6519    0.8114    2.8203 H   0  0  0  0  0  0  0  0  0  0  0  0
   -1.8716    3.1898    3.4643 H   0  0  0  0  0  0  0  0  0  0  0  0
   -2.1298    4.9319    1.7133 H   0  0  0  0  0  0  0  0  0  0  0  0
   -2.1838    4.2793   -0.6785 H   0  0  0  0  0  0  0  0  0  0  0  0
   -1.9766    1.9362   -1.3357 H   0  0  0  0  0  0  0  0  0  0  0  0
   -2.3083   -5.6664   -2.2698 H   0  0  0  0  0  0  0  0  0  0  0  0
   -0.6385   -7.4605   -1.7988 H   0  0  0  0  0  0  0  0  0  0  0  0
    1.4531   -6.9320   -0.5950 H   0  0  0  0  0  0  0  0  0  0  0  0
    1.9345   -4.6193    0.1645 H   0  0  0  0  0  0  0  0  0  0  0  0
    1.4521    0.3695    1.6442 H   0  0  0  0  0  0  0  0  0  0  0  0
    1.8439    1.7921   -1.7976 H   0  0  0  0  0  0  0  0  0  0  0  0
    2.2107    4.8707    2.0879 H   0  0  0  0  0  0  0  0  0  0  0  0
  1  2  2  0
  2  3  1  0
  3  4  1  0
  4  5  1  0
  5  6  1  0
  6  7  1  0
  7  8  1  0
  8  9  2  0
  9 10  1  0
 10 11  2  0
 11 12  1  0
 12 13  2  0
  5 14  2  0
 14 15  1  0
 15 16  2  0
 16 17  1  0
 17 18  2  0
 18 19  1  0
 19 20  2  0
  2 21  1  0
 21 22  1  0
 22 23  2  0
 23 24  1  0
 24 25  1  0
 24 26  2  0
 26 27  1  0
 26 28  1  0
 28 29  2  0
 29 30  1  0
 20  4  1  0
 29 22  1  0
 13  8  1  0
 20 15  1  0
  3 31  1  0
  3 32  1  0
  6 33  1  0
  6 34  1  0
  9 35  1  0
 10 36  1  0
 11 37  1  0
 12 38  1  0
 13 39  1  0
 16 40  1  0
 17 41  1  0
 18 42  1  0
 19 43  1  0
 21 44  1  0
 23 45  1  0
 28 46  1  0
M  END
$$$$
