
     RDKit          3D

 51 55  0  0  0  0  0  0  0  0999 V2000
    6.9940   -0.3231    0.3018 C   0  0  0  0  0  0  0  0  0  0  0  0
    6.8737    1.0142   -0.0708 C   0  0  0  0  0  0  0  0  0  0  0  0
    5.7159    1.4609   -0.7103 C   0  0  0  0  0  0  0  0  0  0  0  0
    4.6679    0.5719   -0.9870 C   0  0  0  0  0  0  0  0  0  0  0  0
    3.4123    1.0572   -1.6735 C   0  0  0  0  0  0  0  0  0  0  0  0
    2.2830    1.4445   -0.6993 C   0  0  0  0  0  0  0  0  0  0  0  0
    1.6525    0.3101    0.0041 N   0  0  0  0  0  0  0  0  0  0  0  0
    0.8060   -0.5040   -0.8984 C   0  0  0  0  0  0  0  0  0  0  0  0
    0.0912   -1.6578   -0.1556 C   0  0  0  0  0  0  0  0  0  0  0  0
   -0.7361   -1.1383    0.9508 N   0  0  0  0  0  0  0  0  0  0  0  0
   -2.0362   -0.7227    0.6665 C   0  0  0  0  0  0  0  0  0  0  0  0
   -2.3727    0.5254    0.8748 N   0  0  0  0  0  0  0  0  0  0  0  0
   -3.6687    0.9820    0.5644 C   0  0  0  0  0  0  0  0  0  0  0  0
   -3.9694    2.3265    0.7905 C   0  0  0  0  0  0  0  0  0  0  0  0
   -5.2361    2.8347    0.4901 C   0  0  0  0  0  0  0  0  0  0  0  0
   -6.2182    1.9983   -0.0422 C   0  0  0  0  0  0  0  0  0  0  0  0
   -5.9403    0.6511   -0.2760 C   0  0  0  0  0  0  0  0  0  0  0  0
   -4.6684    0.1575    0.0290 C   0  0  0  0  0  0  0  0  0  0  0  0
   -4.3075   -1.1857   -0.1625 N   0  0  0  0  0  0  0  0  0  0  0  0
   -5.0567   -2.2356   -0.6389 C   0  0  0  0  0  0  0  0  0  0  0  0
   -4.2857   -3.3766   -0.5788 C   0  0  0  0  0  0  0  0  0  0  0  0
   -3.0236   -3.0023   -0.0624 C   0  0  0  0  0  0  0  0  0  0  0  0
   -3.0456   -1.6358    0.1537 C   0  0  0  0  0  0  0  0  0  0  0  0
    0.0832   -0.3235    1.8723 C   0  0  0  0  0  0  0  0  0  0  0  0
    0.8177    0.8113    1.1253 C   0  0  0  0  0  0  0  0  0  0  0  0
    4.7983   -0.7690   -0.6028 C   0  0  0  0  0  0  0  0  0  0  0  0
    5.9559   -1.2142    0.0374 C   0  0  0  0  0  0  0  0  0  0  0  0
    7.8942   -0.6700    0.8016 H   0  0  0  0  0  0  0  0  0  0  0  0
    7.6811    1.7108    0.1384 H   0  0  0  0  0  0  0  0  0  0  0  0
    5.6371    2.5085   -0.9909 H   0  0  0  0  0  0  0  0  0  0  0  0
    3.6640    1.9416   -2.2741 H   0  0  0  0  0  0  0  0  0  0  0  0
    3.0791    0.3095   -2.4023 H   0  0  0  0  0  0  0  0  0  0  0  0
    2.7080    2.1361    0.0408 H   0  0  0  0  0  0  0  0  0  0  0  0
    1.5203    2.0109   -1.2501 H   0  0  0  0  0  0  0  0  0  0  0  0
    0.0542    0.1280   -1.3896 H   0  0  0  0  0  0  0  0  0  0  0  0
    1.4213   -0.9546   -1.6839 H   0  0  0  0  0  0  0  0  0  0  0  0
    0.8359   -2.3519    0.2537 H   0  0  0  0  0  0  0  0  0  0  0  0
   -0.5037   -2.2275   -0.8759 H   0  0  0  0  0  0  0  0  0  0  0  0
   -3.2066    2.9806    1.2042 H   0  0  0  0  0  0  0  0  0  0  0  0
   -5.4544    3.8838    0.6729 H   0  0  0  0  0  0  0  0  0  0  0  0
   -7.2027    2.3981   -0.2730 H   0  0  0  0  0  0  0  0  0  0  0  0
   -6.7205    0.0194   -0.6871 H   0  0  0  0  0  0  0  0  0  0  0  0
   -6.0780   -2.1051   -0.9655 H   0  0  0  0  0  0  0  0  0  0  0  0
   -4.6038   -4.3710   -0.8645 H   0  0  0  0  0  0  0  0  0  0  0  0
   -2.1858   -3.6582    0.1349 H   0  0  0  0  0  0  0  0  0  0  0  0
   -0.5320    0.0884    2.6813 H   0  0  0  0  0  0  0  0  0  0  0  0
    0.8208   -0.9791    2.3528 H   0  0  0  0  0  0  0  0  0  0  0  0
    1.4594    1.3285    1.8489 H   0  0  0  0  0  0  0  0  0  0  0  0
    0.0904    1.5441    0.7540 H   0  0  0  0  0  0  0  0  0  0  0  0
    3.9909   -1.4720   -0.7923 H   0  0  0  0  0  0  0  0  0  0  0  0
    6.0445   -2.2558    0.3336 H   0  0  0  0  0  0  0  0  0  0  0  0
  1  2  2  0
  2  3  1  0
  3  4  2  0
  4  5  1  0
  5  6  1  0
  6  7  1  0
  7  8  1  0
  8  9  1  0
  9 10  1  0
 10 11  1  0
 11 12  2  0
 12 13  1  0
 13 14  2  0
 14 15  1  0
 15 16  2  0
 16 17  1  0
 17 18  2  0
 18 19  1  0
 19 20  1  0
 20 21  2  0
 21 22  1  0
 22 23  2  0
 10 24  1  0
 24 25  1  0
  4 26  1  0
 26 27  2  0
 27  1  1  0
 25  7  1  0
 23 11  1  0
 18 13  1  0
 23 19  1  0
  1 28  1  0
  2 29  1  0
  3 30  1  0
  5 31  1  0
  5 32  1  0
  6 33  1  0
  6 34  1  0
  8 35  1  0
  8 36  1  0
  9 37  1  0
  9 38  1  0
 14 39  1  0
 15 40  1  0
 16 41  1  0
 17 42  1  0
 20 43  1  0
 21 44  1  0
 22 45  1  0
 24 46  1  0
 24 47  1  0
 25 48  1  0
 25 49  1  0
 26 50  1  0
 27 51  1  0
M  END
$$$$
