
     RDKit          3D

 38 39  0  0  0  0  0  0  0  0999 V2000
   -0.4222   -1.5733   -1.2006 O   0  0  0  0  0  0  0  0  0  0  0  0
    0.2618   -0.6305   -1.5930 C   0  0  0  0  0  0  0  0  0  0  0  0
   -0.3246    0.7523   -1.8821 C   0  0  0  0  0  0  0  0  0  0  0  0
   -1.6289    0.9056   -1.3131 O   0  0  0  0  0  0  0  0  0  0  0  0
   -1.6202    1.1038    0.0315 C   0  0  0  0  0  0  0  0  0  0  0  0
   -0.6220    1.2256    0.7237 O   0  0  0  0  0  0  0  0  0  0  0  0
   -3.0076    1.1944    0.5596 C   0  0  0  0  0  0  0  0  0  0  0  0
   -3.1586    1.7220    1.8533 C   0  0  0  0  0  0  0  0  0  0  0  0
   -4.4262    1.8474    2.4261 C   0  0  0  0  0  0  0  0  0  0  0  0
   -5.5459    1.4420    1.7113 C   0  0  0  0  0  0  0  0  0  0  0  0
   -6.7641    1.5811    2.3069 O   0  0  0  0  0  0  0  0  0  0  0  0
   -5.4206    0.9097    0.4328 C   0  0  0  0  0  0  0  0  0  0  0  0
   -4.1529    0.7835   -0.1404 C   0  0  0  0  0  0  0  0  0  0  0  0
   -4.1350    0.2309   -1.3930 O   0  0  0  0  0  0  0  0  0  0  0  0
    1.6182   -0.7284   -1.8338 N   0  0  0  0  0  0  0  0  0  0  0  0
    2.3620   -1.8882   -1.3691 C   0  0  0  0  0  0  0  0  0  0  0  0
    2.7614   -1.7698    0.1121 C   0  0  0  0  0  0  0  0  0  0  0  0
    3.9762   -0.9823    0.3273 N   0  0  0  0  0  0  0  0  0  0  0  0
    5.0689   -1.4585    1.0159 C   0  0  0  0  0  0  0  0  0  0  0  0
    5.0673   -2.7459    1.4627 O   0  0  0  0  0  0  0  0  0  0  0  0
    6.0585   -0.5732    1.1785 C   0  0  0  0  0  0  0  0  0  0  0  0
    5.6610    0.9562    0.4633 S   0  0  0  0  0  0  0  0  0  0  0  0
    4.0827    0.3447   -0.0679 C   0  0  0  0  0  0  0  0  0  0  0  0
    3.2843    1.0191   -0.7000 O   0  0  0  0  0  0  0  0  0  0  0  0
   -0.4293    0.8491   -2.9677 H   0  0  0  0  0  0  0  0  0  0  0  0
    0.3472    1.5471   -1.5379 H   0  0  0  0  0  0  0  0  0  0  0  0
   -2.2870    2.0403    2.4229 H   0  0  0  0  0  0  0  0  0  0  0  0
   -4.5374    2.2578    3.4262 H   0  0  0  0  0  0  0  0  0  0  0  0
   -7.4459    1.2455    1.7009 H   0  0  0  0  0  0  0  0  0  0  0  0
   -6.2899    0.5840   -0.1301 H   0  0  0  0  0  0  0  0  0  0  0  0
   -3.2051    0.1557   -1.6848 H   0  0  0  0  0  0  0  0  0  0  0  0
    2.1376    0.1512   -1.8286 H   0  0  0  0  0  0  0  0  0  0  0  0
    1.7352   -2.7760   -1.5065 H   0  0  0  0  0  0  0  0  0  0  0  0
    3.2454   -1.9905   -2.0079 H   0  0  0  0  0  0  0  0  0  0  0  0
    1.9598   -1.2981    0.6930 H   0  0  0  0  0  0  0  0  0  0  0  0
    2.9050   -2.7805    0.5076 H   0  0  0  0  0  0  0  0  0  0  0  0
    5.8955   -2.9061    1.9466 H   0  0  0  0  0  0  0  0  0  0  0  0
    6.9956   -0.7478    1.6862 H   0  0  0  0  0  0  0  0  0  0  0  0
  1  2  2  0
  2  3  1  0
  3  4  1  0
  4  5  1  0
  5  6  2  0
  5  7  1  0
  7  8  2  0
  8  9  1  0
  9 10  2  0
 10 11  1  0
 10 12  1  0
 12 13  2  0
 13 14  1  0
  2 15  1  0
 15 16  1  0
 16 17  1  0
 17 18  1  0
 18 19  1  0
 19 20  1  0
 19 21  2  0
 21 22  1  0
 22 23  1  0
 23 24  2  0
 13  7  1  0
 23 18  1  0
  3 25  1  0
  3 26  1  0
  8 27  1  0
  9 28  1  0
 11 29  1  0
 12 30  1  0
 14 31  1  0
 15 32  1  0
 16 33  1  0
 16 34  1  0
 17 35  1  0
 17 36  1  0
 20 37  1  0
 21 38  1  0
M  END
$$$$
