
     RDKit          3D

 43 45  0  0  0  0  0  0  0  0999 V2000
   -0.0411    3.9592   -1.2928 C   0  0  0  0  0  0  0  0  0  0  0  0
   -1.2915    3.1475   -1.4570 C   0  0  0  0  0  0  0  0  0  0  0  0
   -1.7027    2.7304   -2.5322 O   0  0  0  0  0  0  0  0  0  0  0  0
   -1.8799    2.9828   -0.2084 O   0  0  0  0  0  0  0  0  0  0  0  0
   -2.9950    2.1393   -0.2432 C   0  0  0  0  0  0  0  0  0  0  0  0
   -4.2597    2.7253   -0.3130 C   0  0  0  0  0  0  0  0  0  0  0  0
   -5.3899    1.9096   -0.3150 C   0  0  0  0  0  0  0  0  0  0  0  0
   -5.2508    0.5223   -0.2363 C   0  0  0  0  0  0  0  0  0  0  0  0
   -3.9805   -0.0560   -0.1492 C   0  0  0  0  0  0  0  0  0  0  0  0
   -2.8365    0.7496   -0.1425 C   0  0  0  0  0  0  0  0  0  0  0  0
   -1.5104    0.1375   -0.0383 C   0  0  0  0  0  0  0  0  0  0  0  0
   -0.9195   -0.4358   -1.0986 C   0  0  0  0  0  0  0  0  0  0  0  0
    0.4247   -1.0268   -1.0643 C   0  0  0  0  0  0  0  0  0  0  0  0
    0.9431   -1.6409   -2.1942 C   0  0  0  0  0  0  0  0  0  0  0  0
    2.2217   -2.1860   -2.1298 C   0  0  0  0  0  0  0  0  0  0  0  0
    2.9552   -2.1057   -0.9410 C   0  0  0  0  0  0  0  0  0  0  0  0
    4.2562   -2.6374   -0.8422 C   0  0  0  0  0  0  0  0  0  0  0  0
    4.9802   -2.5356    0.3464 C   0  0  0  0  0  0  0  0  0  0  0  0
    4.4083   -1.9093    1.4465 C   0  0  0  0  0  0  0  0  0  0  0  0
    3.1088   -1.4063    1.3408 C   0  0  0  0  0  0  0  0  0  0  0  0
    2.5698   -0.7588    2.4622 O   0  0  0  0  0  0  0  0  0  0  0  0
    1.6795   -1.5740    3.1478 C   0  0  0  0  0  0  0  0  0  0  0  0
    0.9563   -0.7455    4.1673 C   0  0  0  0  0  0  0  0  0  0  0  0
    1.5216   -2.7801    3.0056 O   0  0  0  0  0  0  0  0  0  0  0  0
    2.3560   -1.4680    0.1635 C   0  0  0  0  0  0  0  0  0  0  0  0
    1.1161   -0.9313    0.0947 N   0  0  0  0  0  0  0  0  0  0  0  0
    0.6389    3.4564   -0.6003 H   0  0  0  0  0  0  0  0  0  0  0  0
    0.4591    4.0532   -2.2613 H   0  0  0  0  0  0  0  0  0  0  0  0
   -0.2930    4.9586   -0.9300 H   0  0  0  0  0  0  0  0  0  0  0  0
   -4.3639    3.8040   -0.3732 H   0  0  0  0  0  0  0  0  0  0  0  0
   -6.3800    2.3532   -0.3796 H   0  0  0  0  0  0  0  0  0  0  0  0
   -6.1337   -0.1124   -0.2409 H   0  0  0  0  0  0  0  0  0  0  0  0
   -3.8901   -1.1381   -0.0813 H   0  0  0  0  0  0  0  0  0  0  0  0
   -1.0218    0.2044    0.9295 H   0  0  0  0  0  0  0  0  0  0  0  0
   -1.4341   -0.4632   -2.0561 H   0  0  0  0  0  0  0  0  0  0  0  0
    0.3725   -1.6998   -3.1149 H   0  0  0  0  0  0  0  0  0  0  0  0
    2.6383   -2.6704   -3.0092 H   0  0  0  0  0  0  0  0  0  0  0  0
    4.7139   -3.1321   -1.6969 H   0  0  0  0  0  0  0  0  0  0  0  0
    5.9846   -2.9460    0.4114 H   0  0  0  0  0  0  0  0  0  0  0  0
    4.9569   -1.8233    2.3795 H   0  0  0  0  0  0  0  0  0  0  0  0
    1.6596   -0.3955    4.9269 H   0  0  0  0  0  0  0  0  0  0  0  0
    0.1864   -1.3548    4.6499 H   0  0  0  0  0  0  0  0  0  0  0  0
    0.4660    0.1000    3.6775 H   0  0  0  0  0  0  0  0  0  0  0  0
  1  2  1  0
  2  3  2  0
  2  4  1  0
  4  5  1  0
  5  6  2  0
  6  7  1  0
  7  8  2  0
  8  9  1  0
  9 10  2  0
 10 11  1  0
 11 12  2  0
 12 13  1  0
 13 14  2  0
 14 15  1  0
 15 16  2  0
 16 17  1  0
 17 18  2  0
 18 19  1  0
 19 20  2  0
 20 21  1  0
 21 22  1  0
 22 23  1  0
 22 24  2  0
 20 25  1  0
 25 26  2  0
 10  5  1  0
 26 13  1  0
 25 16  1  0
  1 27  1  0
  1 28  1  0
  1 29  1  0
  6 30  1  0
  7 31  1  0
  8 32  1  0
  9 33  1  0
 11 34  1  0
 12 35  1  0
 14 36  1  0
 15 37  1  0
 17 38  1  0
 18 39  1  0
 19 40  1  0
 23 41  1  0
 23 42  1  0
 23 43  1  0
M  END
$$$$
