
     RDKit          3D

 64 67  0  0  0  0  0  0  0  0999 V2000
    7.3077    3.1915    3.4825 C   0  0  0  0  0  0  0  0  0  0  0  0
    5.9785    2.7746    3.7694 O   0  0  0  0  0  0  0  0  0  0  0  0
    5.5023    1.7092    3.0553 C   0  0  0  0  0  0  0  0  0  0  0  0
    4.2792    1.2070    3.4994 C   0  0  0  0  0  0  0  0  0  0  0  0
    3.6778    0.1229    2.8545 C   0  0  0  0  0  0  0  0  0  0  0  0
    4.2988   -0.4816    1.7563 C   0  0  0  0  0  0  0  0  0  0  0  0
    3.6317   -1.5712    1.1688 N   0  0  0  0  0  0  0  0  0  0  0  0
    4.0137   -2.3243    0.0704 C   0  0  0  0  0  0  0  0  0  0  0  0
    5.0246   -2.1706   -0.6105 O   0  0  0  0  0  0  0  0  0  0  0  0
    2.9934   -3.4264   -0.2603 C   0  0  0  0  0  0  0  0  0  0  0  0
    1.7704   -2.8755   -0.8513 N   0  0  0  0  0  0  0  0  0  0  0  0
    1.7643   -2.7132   -2.2993 C   0  0  0  0  0  0  0  0  0  0  0  0
    0.8285   -2.3500    0.0129 C   0  0  0  0  0  0  0  0  0  0  0  0
    0.9730   -2.3422    1.2354 O   0  0  0  0  0  0  0  0  0  0  0  0
   -0.3760   -1.7417   -0.5729 C   0  0  0  0  0  0  0  0  0  0  0  0
   -0.4295   -0.4055   -0.6719 C   0  0  0  0  0  0  0  0  0  0  0  0
   -1.5651    0.3155   -1.1398 C   0  0  0  0  0  0  0  0  0  0  0  0
   -1.5027    1.3324   -2.0616 C   0  0  0  0  0  0  0  0  0  0  0  0
   -2.7972    1.7556   -2.2760 N   0  0  0  0  0  0  0  0  0  0  0  0
   -3.2502    2.7735   -3.1646 C   0  0  0  0  0  0  0  0  0  0  0  0
   -4.6200    3.0749   -3.2256 C   0  0  0  0  0  0  0  0  0  0  0  0
   -5.0858    4.0657   -4.0926 C   0  0  0  0  0  0  0  0  0  0  0  0
   -4.1917    4.7609   -4.9047 C   0  0  0  0  0  0  0  0  0  0  0  0
   -2.8300    4.4696   -4.8498 C   0  0  0  0  0  0  0  0  0  0  0  0
   -2.3556    3.4788   -3.9835 C   0  0  0  0  0  0  0  0  0  0  0  0
   -3.6800    1.0559   -1.5172 N   0  0  0  0  0  0  0  0  0  0  0  0
   -2.9425    0.1956   -0.7999 C   0  0  0  0  0  0  0  0  0  0  0  0
   -3.5765   -0.6896    0.1782 C   0  0  0  0  0  0  0  0  0  0  0  0
   -4.7454   -1.3854   -0.1545 C   0  0  0  0  0  0  0  0  0  0  0  0
   -5.3416   -2.2495    0.7691 C   0  0  0  0  0  0  0  0  0  0  0  0
   -4.7910   -2.4194    2.0455 C   0  0  0  0  0  0  0  0  0  0  0  0
   -5.4103   -3.3749    3.0222 C   0  0  0  0  0  0  0  0  0  0  0  0
   -3.6240   -1.7227    2.3791 C   0  0  0  0  0  0  0  0  0  0  0  0
   -3.0276   -0.8570    1.4573 C   0  0  0  0  0  0  0  0  0  0  0  0
    5.5211    0.0231    1.3104 C   0  0  0  0  0  0  0  0  0  0  0  0
    6.1160    1.1200    1.9518 C   0  0  0  0  0  0  0  0  0  0  0  0
    8.0199    2.3714    3.6299 H   0  0  0  0  0  0  0  0  0  0  0  0
    7.5670    3.9881    4.1870 H   0  0  0  0  0  0  0  0  0  0  0  0
    7.3833    3.6037    2.4696 H   0  0  0  0  0  0  0  0  0  0  0  0
    3.7876    1.6616    4.3551 H   0  0  0  0  0  0  0  0  0  0  0  0
    2.7253   -0.2450    3.2306 H   0  0  0  0  0  0  0  0  0  0  0  0
    2.7054   -1.7922    1.5502 H   0  0  0  0  0  0  0  0  0  0  0  0
    3.4442   -4.1482   -0.9497 H   0  0  0  0  0  0  0  0  0  0  0  0
    2.7508   -3.9672    0.6631 H   0  0  0  0  0  0  0  0  0  0  0  0
    1.9898   -3.6804   -2.7591 H   0  0  0  0  0  0  0  0  0  0  0  0
    0.8001   -2.3695   -2.6799 H   0  0  0  0  0  0  0  0  0  0  0  0
    2.5354   -1.9897   -2.5776 H   0  0  0  0  0  0  0  0  0  0  0  0
   -1.1836   -2.4060   -0.8485 H   0  0  0  0  0  0  0  0  0  0  0  0
    0.4376    0.1803   -0.3768 H   0  0  0  0  0  0  0  0  0  0  0  0
   -0.6620    1.7633   -2.5847 H   0  0  0  0  0  0  0  0  0  0  0  0
   -5.3382    2.5474   -2.5987 H   0  0  0  0  0  0  0  0  0  0  0  0
   -6.1480    4.2945   -4.1313 H   0  0  0  0  0  0  0  0  0  0  0  0
   -4.5563    5.5323   -5.5776 H   0  0  0  0  0  0  0  0  0  0  0  0
   -2.1375    5.0165   -5.4865 H   0  0  0  0  0  0  0  0  0  0  0  0
   -1.2875    3.2835   -3.9750 H   0  0  0  0  0  0  0  0  0  0  0  0
   -5.1946   -1.2587   -1.1377 H   0  0  0  0  0  0  0  0  0  0  0  0
   -6.2428   -2.7891    0.4824 H   0  0  0  0  0  0  0  0  0  0  0  0
   -5.2031   -3.0728    4.0551 H   0  0  0  0  0  0  0  0  0  0  0  0
   -6.4995   -3.4005    2.9056 H   0  0  0  0  0  0  0  0  0  0  0  0
   -5.0084   -4.3802    2.8640 H   0  0  0  0  0  0  0  0  0  0  0  0
   -3.1726   -1.8464    3.3613 H   0  0  0  0  0  0  0  0  0  0  0  0
   -2.1350   -0.3104    1.7521 H   0  0  0  0  0  0  0  0  0  0  0  0
    6.0331   -0.4039    0.4539 H   0  0  0  0  0  0  0  0  0  0  0  0
    7.0516    1.4915    1.5508 H   0  0  0  0  0  0  0  0  0  0  0  0
  1  2  1  0
  2  3  1  0
  3  4  2  0
  4  5  1  0
  5  6  2  0
  6  7  1  0
  7  8  1  0
  8  9  2  0
  8 10  1  0
 10 11  1  0
 11 12  1  0
 11 13  1  0
 13 14  2  0
 13 15  1  0
 15 16  2  3
 16 17  1  0
 17 18  2  0
 18 19  1  0
 19 20  1  0
 20 21  2  0
 21 22  1  0
 22 23  2  0
 23 24  1  0
 24 25  2  0
 19 26  1  0
 26 27  2  0
 27 28  1  0
 28 29  2  0
 29 30  1  0
 30 31  2  0
 31 32  1  0
 31 33  1  0
 33 34  2  0
  6 35  1  0
 35 36  2  0
 36  3  1  0
 27 17  1  0
 34 28  1  0
 25 20  1  0
  1 37  1  0
  1 38  1  0
  1 39  1  0
  4 40  1  0
  5 41  1  0
  7 42  1  0
 10 43  1  0
 10 44  1  0
 12 45  1  0
 12 46  1  0
 12 47  1  0
 15 48  1  0
 16 49  1  0
 18 50  1  0
 21 51  1  0
 22 52  1  0
 23 53  1  0
 24 54  1  0
 25 55  1  0
 29 56  1  0
 30 57  1  0
 32 58  1  0
 32 59  1  0
 32 60  1  0
 33 61  1  0
 34 62  1  0
 35 63  1  0
 36 64  1  0
M  END
$$$$
