
     RDKit          3D

 65 68  0  0  0  0  0  0  0  0999 V2000
    5.3824    2.5771    5.8790 C   0  0  0  0  0  0  0  0  0  0  0  0
    5.2569    1.3922    5.0133 C   0  0  0  0  0  0  0  0  0  0  0  0
    4.4783    1.0825    3.9271 C   0  0  0  0  0  0  0  0  0  0  0  0
    4.8566   -0.2330    3.5807 C   0  0  0  0  0  0  0  0  0  0  0  0
    4.3860   -1.0420    2.5704 N   0  0  0  0  0  0  0  0  0  0  0  0
    3.4388   -0.6769    1.6423 C   0  0  0  0  0  0  0  0  0  0  0  0
    2.9260    0.4338    1.5422 O   0  0  0  0  0  0  0  0  0  0  0  0
    3.1285   -1.7960    0.6621 C   0  0  0  0  0  0  0  0  0  0  0  0
    1.8156   -1.5401   -0.0777 C   0  0  0  0  0  0  0  0  0  0  0  0
    0.6092   -1.7953    0.8170 C   0  0  0  0  0  0  0  0  0  0  0  0
    0.7637   -2.3374    1.9140 O   0  0  0  0  0  0  0  0  0  0  0  0
   -0.6491   -1.4593    0.3247 N   0  0  0  0  0  0  0  0  0  0  0  0
   -1.7802   -1.5752    1.2538 C   0  0  0  0  0  0  0  0  0  0  0  0
   -2.4770   -2.8986    1.0832 C   0  0  0  0  0  0  0  0  0  0  0  0
   -1.9386   -4.1727    1.0593 C   0  0  0  0  0  0  0  0  0  0  0  0
   -2.9276   -5.1838    0.8892 C   0  0  0  0  0  0  0  0  0  0  0  0
   -4.1947   -4.6539    0.8084 C   0  0  0  0  0  0  0  0  0  0  0  0
   -4.1880   -2.9509    0.9466 S   0  0  0  0  0  0  0  0  0  0  0  0
   -0.8533   -0.6991   -0.9274 C   0  0  0  0  0  0  0  0  0  0  0  0
   -0.8067    0.8351   -0.6655 C   0  0  0  0  0  0  0  0  0  0  0  0
   -1.0310    1.3447    0.4306 O   0  0  0  0  0  0  0  0  0  0  0  0
   -0.5075    1.5905   -1.7913 N   0  0  0  0  0  0  0  0  0  0  0  0
   -0.5002    3.0368   -1.7325 C   0  0  0  0  0  0  0  0  0  0  0  0
   -1.9069    3.6474   -1.7444 C   0  0  0  0  0  0  0  0  0  0  0  0
   -1.8204    4.8954   -2.6254 C   0  0  0  0  0  0  0  0  0  0  0  0
   -0.3420    5.0812   -2.9377 C   0  0  0  0  0  0  0  0  0  0  0  0
    0.2027    3.6637   -2.9323 C   0  0  0  0  0  0  0  0  0  0  0  0
   -2.0742   -1.1404   -1.7299 C   0  0  0  0  0  0  0  0  0  0  0  0
   -3.2733   -0.4089   -1.7487 C   0  0  0  0  0  0  0  0  0  0  0  0
   -4.3620   -0.8454   -2.5061 C   0  0  0  0  0  0  0  0  0  0  0  0
   -4.2736   -2.0220   -3.2456 C   0  0  0  0  0  0  0  0  0  0  0  0
   -3.0986   -2.7688   -3.2246 C   0  0  0  0  0  0  0  0  0  0  0  0
   -2.0075   -2.3337   -2.4711 C   0  0  0  0  0  0  0  0  0  0  0  0
    5.8137   -0.6859    4.3992 N   0  0  0  0  0  0  0  0  0  0  0  0
    6.0706    0.3393    5.2909 O   0  0  0  0  0  0  0  0  0  0  0  0
    6.0249    3.3281    5.4084 H   0  0  0  0  0  0  0  0  0  0  0  0
    5.8144    2.3154    6.8498 H   0  0  0  0  0  0  0  0  0  0  0  0
    4.4012    3.0287    6.0593 H   0  0  0  0  0  0  0  0  0  0  0  0
    3.7366    1.7145    3.4623 H   0  0  0  0  0  0  0  0  0  0  0  0
    4.7935   -1.9671    2.5598 H   0  0  0  0  0  0  0  0  0  0  0  0
    3.9509   -1.8244   -0.0629 H   0  0  0  0  0  0  0  0  0  0  0  0
    3.1101   -2.7594    1.1841 H   0  0  0  0  0  0  0  0  0  0  0  0
    1.7487   -2.2328   -0.9243 H   0  0  0  0  0  0  0  0  0  0  0  0
    1.7963   -0.5141   -0.4567 H   0  0  0  0  0  0  0  0  0  0  0  0
   -1.4256   -1.5004    2.2892 H   0  0  0  0  0  0  0  0  0  0  0  0
   -2.4633   -0.7320    1.1049 H   0  0  0  0  0  0  0  0  0  0  0  0
   -0.8783   -4.3685    1.1595 H   0  0  0  0  0  0  0  0  0  0  0  0
   -2.7197   -6.2450    0.8364 H   0  0  0  0  0  0  0  0  0  0  0  0
   -5.1283   -5.1844    0.6835 H   0  0  0  0  0  0  0  0  0  0  0  0
    0.0013   -0.8927   -1.5857 H   0  0  0  0  0  0  0  0  0  0  0  0
   -0.6301    1.1522   -2.6972 H   0  0  0  0  0  0  0  0  0  0  0  0
    0.0124    3.3418   -0.8106 H   0  0  0  0  0  0  0  0  0  0  0  0
   -2.6577    2.9576   -2.1456 H   0  0  0  0  0  0  0  0  0  0  0  0
   -2.2196    3.9063   -0.7268 H   0  0  0  0  0  0  0  0  0  0  0  0
   -2.2481    5.7757   -2.1360 H   0  0  0  0  0  0  0  0  0  0  0  0
   -2.3804    4.7279   -3.5531 H   0  0  0  0  0  0  0  0  0  0  0  0
    0.1382    5.6734   -2.1501 H   0  0  0  0  0  0  0  0  0  0  0  0
   -0.1792    5.5886   -3.8926 H   0  0  0  0  0  0  0  0  0  0  0  0
    1.2926    3.6359   -2.8354 H   0  0  0  0  0  0  0  0  0  0  0  0
   -0.0657    3.1501   -3.8641 H   0  0  0  0  0  0  0  0  0  0  0  0
   -3.3868    0.5023   -1.1635 H   0  0  0  0  0  0  0  0  0  0  0  0
   -5.2866   -0.2723   -2.5073 H   0  0  0  0  0  0  0  0  0  0  0  0
   -5.1266   -2.3647   -3.8248 H   0  0  0  0  0  0  0  0  0  0  0  0
   -3.0358   -3.6975   -3.7853 H   0  0  0  0  0  0  0  0  0  0  0  0
   -1.1061   -2.9435   -2.4508 H   0  0  0  0  0  0  0  0  0  0  0  0
  1  2  1  0
  2  3  2  0
  3  4  1  0
  4  5  1  0
  5  6  1  0
  6  7  2  0
  6  8  1  0
  8  9  1  0
  9 10  1  0
 10 11  2  0
 10 12  1  0
 12 13  1  0
 13 14  1  0
 14 15  2  0
 15 16  1  0
 16 17  2  0
 17 18  1  0
 12 19  1  0
 19 20  1  0
 20 21  2  0
 20 22  1  0
 22 23  1  0
 23 24  1  0
 24 25  1  0
 25 26  1  0
 26 27  1  0
 19 28  1  0
 28 29  2  0
 29 30  1  0
 30 31  2  0
 31 32  1  0
 32 33  2  0
  4 34  2  0
 34 35  1  0
 35  2  1  0
 18 14  1  0
 27 23  1  0
 33 28  1  0
  1 36  1  0
  1 37  1  0
  1 38  1  0
  3 39  1  0
  5 40  1  0
  8 41  1  0
  8 42  1  0
  9 43  1  0
  9 44  1  0
 13 45  1  0
 13 46  1  0
 15 47  1  0
 16 48  1  0
 17 49  1  0
 19 50  1  0
 22 51  1  0
 23 52  1  0
 24 53  1  0
 24 54  1  0
 25 55  1  0
 25 56  1  0
 26 57  1  0
 26 58  1  0
 27 59  1  0
 27 60  1  0
 29 61  1  0
 30 62  1  0
 31 63  1  0
 32 64  1  0
 33 65  1  0
M  END
$$$$
