
     RDKit          3D

 40 42  0  0  0  0  0  0  0  0999 V2000
   -4.9103   -1.6168    1.6975 C   0  0  0  0  0  0  0  0  0  0  0  0
   -4.3646   -0.2931    1.1192 C   0  0  0  0  0  0  0  0  0  0  0  0
   -4.0947    0.6647    2.2941 C   0  0  0  0  0  0  0  0  0  0  0  0
   -5.4467    0.3041    0.2005 C   0  0  0  0  0  0  0  0  0  0  0  0
   -3.0827   -0.5589    0.3437 C   0  0  0  0  0  0  0  0  0  0  0  0
   -2.5011   -1.7387    0.2340 N   0  0  0  0  0  0  0  0  0  0  0  0
   -1.3479   -1.6911   -0.5208 N   0  0  0  0  0  0  0  0  0  0  0  0
   -1.0913   -0.4802   -0.9594 C   0  0  0  0  0  0  0  0  0  0  0  0
    0.0060   -0.2015   -1.7305 N   0  0  0  0  0  0  0  0  0  0  0  0
    0.3937    1.0240   -2.2221 C   0  0  0  0  0  0  0  0  0  0  0  0
   -0.1902    2.0954   -2.0908 O   0  0  0  0  0  0  0  0  0  0  0  0
    1.6836    0.9398   -3.0473 C   0  0  0  0  0  0  0  0  0  0  0  0
    2.5104   -0.1773   -2.7434 O   0  0  0  0  0  0  0  0  0  0  0  0
    3.3294   -0.0917   -1.6486 C   0  0  0  0  0  0  0  0  0  0  0  0
    4.1860   -1.1998   -1.4832 C   0  0  0  0  0  0  0  0  0  0  0  0
    5.0729   -1.2749   -0.4048 C   0  0  0  0  0  0  0  0  0  0  0  0
    5.0756   -0.2288    0.4888 C   0  0  0  0  0  0  0  0  0  0  0  0
    4.2412    0.8525    0.3339 C   0  0  0  0  0  0  0  0  0  0  0  0
    3.3556    0.9537   -0.7214 C   0  0  0  0  0  0  0  0  0  0  0  0
    4.3979    1.7723    1.3245 O   0  0  0  0  0  0  0  0  0  0  0  0
    5.4218    1.1420    2.1225 C   0  0  0  0  0  0  0  0  0  0  0  0
    5.8610   -0.1261    1.5930 O   0  0  0  0  0  0  0  0  0  0  0  0
   -2.2304    0.6906   -0.4886 S   0  0  0  0  0  0  0  0  0  0  0  0
   -4.1888   -2.0841    2.3784 H   0  0  0  0  0  0  0  0  0  0  0  0
   -5.1304   -2.3397    0.9028 H   0  0  0  0  0  0  0  0  0  0  0  0
   -5.8365   -1.4526    2.2605 H   0  0  0  0  0  0  0  0  0  0  0  0
   -4.9983    0.8137    2.8969 H   0  0  0  0  0  0  0  0  0  0  0  0
   -3.3126    0.2722    2.9550 H   0  0  0  0  0  0  0  0  0  0  0  0
   -3.7686    1.6525    1.9493 H   0  0  0  0  0  0  0  0  0  0  0  0
   -5.1617    1.2918   -0.1795 H   0  0  0  0  0  0  0  0  0  0  0  0
   -6.3951    0.4268    0.7362 H   0  0  0  0  0  0  0  0  0  0  0  0
   -5.6334   -0.3414   -0.6661 H   0  0  0  0  0  0  0  0  0  0  0  0
    0.6094   -0.9987   -1.8982 H   0  0  0  0  0  0  0  0  0  0  0  0
    1.3739    0.8290   -4.0930 H   0  0  0  0  0  0  0  0  0  0  0  0
    2.2396    1.8824   -2.9829 H   0  0  0  0  0  0  0  0  0  0  0  0
    4.1595   -2.0121   -2.2070 H   0  0  0  0  0  0  0  0  0  0  0  0
    5.7329   -2.1249   -0.2756 H   0  0  0  0  0  0  0  0  0  0  0  0
    2.7205    1.8283   -0.7828 H   0  0  0  0  0  0  0  0  0  0  0  0
    5.0300    0.9831    3.1338 H   0  0  0  0  0  0  0  0  0  0  0  0
    6.2845    1.8154    2.1813 H   0  0  0  0  0  0  0  0  0  0  0  0
  1  2  1  0
  2  3  1  0
  2  4  1  0
  2  5  1  0
  5  6  2  0
  6  7  1  0
  7  8  2  0
  8  9  1  0
  9 10  1  0
 10 11  2  0
 10 12  1  0
 12 13  1  0
 13 14  1  0
 14 15  2  0
 15 16  1  0
 16 17  2  0
 17 18  1  0
 18 19  2  0
 18 20  1  0
 20 21  1  0
 21 22  1  0
  8 23  1  0
 23  5  1  0
 19 14  1  0
 22 17  1  0
  1 24  1  0
  1 25  1  0
  1 26  1  0
  3 27  1  0
  3 28  1  0
  3 29  1  0
  4 30  1  0
  4 31  1  0
  4 32  1  0
  9 33  1  0
 12 34  1  0
 12 35  1  0
 15 36  1  0
 16 37  1  0
 19 38  1  0
 21 39  1  0
 21 40  1  0
M  END
$$$$
