
     RDKit          3D

 57 60  0  0  0  0  0  0  0  0999 V2000
   -3.8135    1.9709    0.3731 C   0  0  0  0  0  0  0  0  0  0  0  0
   -2.4739    2.3689    0.9754 C   0  0  0  0  0  0  0  0  0  0  0  0
   -1.3627    2.5979   -0.0568 C   0  0  0  0  0  0  0  0  0  0  0  0
   -0.9462    1.2431   -1.2208 S   0  0  0  0  0  0  0  0  0  0  0  0
   -1.1733   -0.2107   -0.2655 C   0  0  0  0  0  0  0  0  0  0  0  0
   -0.6213   -0.1961    0.9116 N   0  0  0  0  0  0  0  0  0  0  0  0
   -0.8509   -1.3369    1.6797 C   0  0  0  0  0  0  0  0  0  0  0  0
   -0.3875   -1.5086    3.0024 C   0  0  0  0  0  0  0  0  0  0  0  0
   -0.7848   -2.7308    3.5094 C   0  0  0  0  0  0  0  0  0  0  0  0
   -1.7086   -3.6311    2.3716 S   0  0  0  0  0  0  0  0  0  0  0  0
   -1.5906   -2.3862    1.2262 C   0  0  0  0  0  0  0  0  0  0  0  0
   -2.1987   -2.4041   -0.0698 C   0  0  0  0  0  0  0  0  0  0  0  0
   -2.9234   -3.3129   -0.4698 O   0  0  0  0  0  0  0  0  0  0  0  0
   -1.9125   -1.2548   -0.8256 N   0  0  0  0  0  0  0  0  0  0  0  0
   -2.4577   -1.2514   -2.1892 C   0  0  0  0  0  0  0  0  0  0  0  0
   -1.5794   -2.0050   -3.1703 C   0  0  0  0  0  0  0  0  0  0  0  0
   -0.5004   -1.3793   -3.8116 C   0  0  0  0  0  0  0  0  0  0  0  0
    0.3067   -2.0906   -4.7063 C   0  0  0  0  0  0  0  0  0  0  0  0
    0.0454   -3.4387   -4.9771 C   0  0  0  0  0  0  0  0  0  0  0  0
    0.9279   -4.1490   -5.9317 C   0  0  0  0  0  0  0  0  0  0  0  0
    1.9187   -3.6848   -6.4638 O   0  0  0  0  0  0  0  0  0  0  0  0
    0.5259   -5.4067   -6.1833 O   0  0  0  0  0  0  0  0  0  0  0  0
   -1.0278   -4.0723   -4.3440 C   0  0  0  0  0  0  0  0  0  0  0  0
   -1.8309   -3.3594   -3.4477 C   0  0  0  0  0  0  0  0  0  0  0  0
   -0.0973    3.1702    0.5989 C   0  0  0  0  0  0  0  0  0  0  0  0
    0.1725    4.3623    0.4611 O   0  0  0  0  0  0  0  0  0  0  0  0
    0.6313    2.2675    1.3478 N   0  0  0  0  0  0  0  0  0  0  0  0
    1.8049    2.5101    2.0913 C   0  0  0  0  0  0  0  0  0  0  0  0
    2.4743    1.3944    2.6060 C   0  0  0  0  0  0  0  0  0  0  0  0
    3.6429    1.5445    3.3641 C   0  0  0  0  0  0  0  0  0  0  0  0
    4.1639    2.8162    3.6244 C   0  0  0  0  0  0  0  0  0  0  0  0
    5.4247    2.9491    4.4304 C   0  0  0  0  0  0  0  0  0  0  0  0
    3.4882    3.9324    3.1081 C   0  0  0  0  0  0  0  0  0  0  0  0
    4.0649    5.5388    3.3883 Cl  0  0  0  0  0  0  0  0  0  0  0  0
    2.3212    3.7797    2.3476 C   0  0  0  0  0  0  0  0  0  0  0  0
   -4.5833    1.9444    1.1514 H   0  0  0  0  0  0  0  0  0  0  0  0
   -4.1295    2.6919   -0.3854 H   0  0  0  0  0  0  0  0  0  0  0  0
   -3.7788    0.9806   -0.0848 H   0  0  0  0  0  0  0  0  0  0  0  0
   -2.6222    3.3080    1.5271 H   0  0  0  0  0  0  0  0  0  0  0  0
   -2.1798    1.6401    1.7367 H   0  0  0  0  0  0  0  0  0  0  0  0
   -1.7160    3.3957   -0.7243 H   0  0  0  0  0  0  0  0  0  0  0  0
    0.1914   -0.7901    3.5656 H   0  0  0  0  0  0  0  0  0  0  0  0
   -0.5841   -3.1429    4.4888 H   0  0  0  0  0  0  0  0  0  0  0  0
   -3.4564   -1.7092   -2.1774 H   0  0  0  0  0  0  0  0  0  0  0  0
   -2.6285   -0.2374   -2.5603 H   0  0  0  0  0  0  0  0  0  0  0  0
   -0.2721   -0.3300   -3.6358 H   0  0  0  0  0  0  0  0  0  0  0  0
    1.1400   -1.5849   -5.1932 H   0  0  0  0  0  0  0  0  0  0  0  0
    1.1902   -5.7431   -6.8207 H   0  0  0  0  0  0  0  0  0  0  0  0
   -1.2485   -5.1211   -4.5367 H   0  0  0  0  0  0  0  0  0  0  0  0
   -2.6596   -3.8798   -2.9662 H   0  0  0  0  0  0  0  0  0  0  0  0
    0.3350    1.2933    1.2859 H   0  0  0  0  0  0  0  0  0  0  0  0
    2.1120    0.3896    2.4072 H   0  0  0  0  0  0  0  0  0  0  0  0
    4.1425    0.6545    3.7415 H   0  0  0  0  0  0  0  0  0  0  0  0
    5.2465    3.5570    5.3234 H   0  0  0  0  0  0  0  0  0  0  0  0
    6.2159    3.4017    3.8269 H   0  0  0  0  0  0  0  0  0  0  0  0
    5.7875    1.9730    4.7692 H   0  0  0  0  0  0  0  0  0  0  0  0
    1.8258    4.6723    1.9771 H   0  0  0  0  0  0  0  0  0  0  0  0
  1  2  1  0
  2  3  1  0
  3  4  1  0
  4  5  1  0
  5  6  2  0
  6  7  1  0
  7  8  1  0
  8  9  2  0
  9 10  1  0
 10 11  1  0
 11 12  1  0
 12 13  2  0
 12 14  1  0
 14 15  1  0
 15 16  1  0
 16 17  2  0
 17 18  1  0
 18 19  2  0
 19 20  1  0
 20 21  2  0
 20 22  1  0
 19 23  1  0
 23 24  2  0
  3 25  1  0
 25 26  2  0
 25 27  1  0
 27 28  1  0
 28 29  2  0
 29 30  1  0
 30 31  2  0
 31 32  1  0
 31 33  1  0
 33 34  1  0
 33 35  2  0
 14  5  1  0
 24 16  1  0
 35 28  1  0
 11  7  2  0
  1 36  1  0
  1 37  1  0
  1 38  1  0
  2 39  1  0
  2 40  1  0
  3 41  1  0
  8 42  1  0
  9 43  1  0
 15 44  1  0
 15 45  1  0
 17 46  1  0
 18 47  1  0
 22 48  1  0
 23 49  1  0
 24 50  1  0
 27 51  1  0
 29 52  1  0
 30 53  1  0
 32 54  1  0
 32 55  1  0
 32 56  1  0
 35 57  1  0
M  END
$$$$
