
     RDKit          3D

 51 55  0  0  0  0  0  0  0  0999 V2000
    8.1329   -0.1605   -0.2280 C   0  0  0  0  0  0  0  0  0  0  0  0
    7.5432   -0.1228    1.0340 C   0  0  0  0  0  0  0  0  0  0  0  0
    6.1720   -0.3425    1.1720 C   0  0  0  0  0  0  0  0  0  0  0  0
    5.3789   -0.6062    0.0474 C   0  0  0  0  0  0  0  0  0  0  0  0
    3.8914   -0.8224    0.1945 C   0  0  0  0  0  0  0  0  0  0  0  0
    3.1118    0.4956    0.0482 C   0  0  0  0  0  0  0  0  0  0  0  0
    1.6665    0.3296    0.2589 N   0  0  0  0  0  0  0  0  0  0  0  0
    1.0257   -0.5270   -0.7641 C   0  0  0  0  0  0  0  0  0  0  0  0
   -0.4183   -0.1314   -1.1618 C   0  0  0  0  0  0  0  0  0  0  0  0
   -1.1680    0.3410    0.0039 N   0  0  0  0  0  0  0  0  0  0  0  0
   -2.5524    0.2219    0.0423 C   0  0  0  0  0  0  0  0  0  0  0  0
   -3.2755    1.2964    0.2391 N   0  0  0  0  0  0  0  0  0  0  0  0
   -4.6823    1.2256    0.2447 C   0  0  0  0  0  0  0  0  0  0  0  0
   -5.4045    2.4046    0.4399 C   0  0  0  0  0  0  0  0  0  0  0  0
   -6.8020    2.3938    0.4422 C   0  0  0  0  0  0  0  0  0  0  0  0
   -7.4932    1.1973    0.2479 C   0  0  0  0  0  0  0  0  0  0  0  0
   -6.7923    0.0068    0.0515 C   0  0  0  0  0  0  0  0  0  0  0  0
   -5.3945    0.0339    0.0510 C   0  0  0  0  0  0  0  0  0  0  0  0
   -4.6111   -1.1182   -0.1235 N   0  0  0  0  0  0  0  0  0  0  0  0
   -5.0023   -2.4243   -0.3012 C   0  0  0  0  0  0  0  0  0  0  0  0
   -3.8713   -3.2107   -0.3411 C   0  0  0  0  0  0  0  0  0  0  0  0
   -2.7584   -2.3499   -0.2002 C   0  0  0  0  0  0  0  0  0  0  0  0
   -3.2356   -1.0537   -0.1117 C   0  0  0  0  0  0  0  0  0  0  0  0
   -0.5292    1.4791    0.6953 C   0  0  0  0  0  0  0  0  0  0  0  0
    0.9753    1.6252    0.3576 C   0  0  0  0  0  0  0  0  0  0  0  0
    5.9806   -0.6373   -1.2178 C   0  0  0  0  0  0  0  0  0  0  0  0
    7.3521   -0.4170   -1.3535 C   0  0  0  0  0  0  0  0  0  0  0  0
    9.2009    0.0104   -0.3343 H   0  0  0  0  0  0  0  0  0  0  0  0
    8.1511    0.0779    1.9121 H   0  0  0  0  0  0  0  0  0  0  0  0
    5.7248   -0.3072    2.1631 H   0  0  0  0  0  0  0  0  0  0  0  0
    3.5670   -1.5568   -0.5529 H   0  0  0  0  0  0  0  0  0  0  0  0
    3.6846   -1.2756    1.1727 H   0  0  0  0  0  0  0  0  0  0  0  0
    3.4996    1.1998    0.7964 H   0  0  0  0  0  0  0  0  0  0  0  0
    3.3078    0.9477   -0.9334 H   0  0  0  0  0  0  0  0  0  0  0  0
    1.0083   -1.5491   -0.3669 H   0  0  0  0  0  0  0  0  0  0  0  0
    1.6161   -0.5544   -1.6890 H   0  0  0  0  0  0  0  0  0  0  0  0
   -0.3878    0.6723   -1.9093 H   0  0  0  0  0  0  0  0  0  0  0  0
   -0.8957   -0.9851   -1.6517 H   0  0  0  0  0  0  0  0  0  0  0  0
   -4.8686    3.3380    0.5901 H   0  0  0  0  0  0  0  0  0  0  0  0
   -7.3489    3.3205    0.5961 H   0  0  0  0  0  0  0  0  0  0  0  0
   -8.5805    1.1936    0.2518 H   0  0  0  0  0  0  0  0  0  0  0  0
   -7.3510   -0.9115   -0.0936 H   0  0  0  0  0  0  0  0  0  0  0  0
   -6.0437   -2.7038   -0.3630 H   0  0  0  0  0  0  0  0  0  0  0  0
   -3.8528   -4.2880   -0.4449 H   0  0  0  0  0  0  0  0  0  0  0  0
   -1.7180   -2.6437   -0.1618 H   0  0  0  0  0  0  0  0  0  0  0  0
   -1.0246    2.4229    0.4380 H   0  0  0  0  0  0  0  0  0  0  0  0
   -0.6407    1.3238    1.7752 H   0  0  0  0  0  0  0  0  0  0  0  0
    1.0814    2.1769   -0.5864 H   0  0  0  0  0  0  0  0  0  0  0  0
    1.4347    2.2449    1.1376 H   0  0  0  0  0  0  0  0  0  0  0  0
    5.3844   -0.8347   -2.1055 H   0  0  0  0  0  0  0  0  0  0  0  0
    7.8120   -0.4456   -2.3376 H   0  0  0  0  0  0  0  0  0  0  0  0
  1  2  2  0
  2  3  1  0
  3  4  2  0
  4  5  1  0
  5  6  1  0
  6  7  1  0
  7  8  1  0
  8  9  1  0
  9 10  1  0
 10 11  1  0
 11 12  2  0
 12 13  1  0
 13 14  2  0
 14 15  1  0
 15 16  2  0
 16 17  1  0
 17 18  2  0
 18 19  1  0
 19 20  1  0
 20 21  2  0
 21 22  1  0
 22 23  2  0
 10 24  1  0
 24 25  1  0
  4 26  1  0
 26 27  2  0
 27  1  1  0
 25  7  1  0
 23 11  1  0
 18 13  1  0
 23 19  1  0
  1 28  1  0
  2 29  1  0
  3 30  1  0
  5 31  1  0
  5 32  1  0
  6 33  1  0
  6 34  1  0
  8 35  1  0
  8 36  1  0
  9 37  1  0
  9 38  1  0
 14 39  1  0
 15 40  1  0
 16 41  1  0
 17 42  1  0
 20 43  1  0
 21 44  1  0
 22 45  1  0
 24 46  1  0
 24 47  1  0
 25 48  1  0
 25 49  1  0
 26 50  1  0
 27 51  1  0
M  END
$$$$
