
     RDKit          3D

 60 62  0  0  0  0  0  0  0  0999 V2000
   -2.1963    2.6559    4.2871 C   0  0  0  0  0  0  0  0  0  0  0  0
   -2.0977    2.4798    2.8003 C   0  0  0  0  0  0  0  0  0  0  0  0
   -1.6506    3.5308    1.9992 C   0  0  0  0  0  0  0  0  0  0  0  0
   -1.5924    3.3810    0.6145 C   0  0  0  0  0  0  0  0  0  0  0  0
   -1.9852    2.1754    0.0088 C   0  0  0  0  0  0  0  0  0  0  0  0
   -1.9439    2.1368   -1.7781 S   0  0  0  0  0  6  0  0  0  0  0  0
   -2.7807    1.0691   -2.2759 O   0  0  0  0  0  0  0  0  0  0  0  0
   -2.1476    3.4957   -2.2404 O   0  0  0  0  0  0  0  0  0  0  0  0
   -0.3145    1.8025   -2.1008 N   0  0  0  0  0  0  0  0  0  0  0  0
    0.0743    0.4355   -2.2570 C   0  0  0  0  0  0  0  0  0  0  0  0
    0.6226   -0.1949   -1.1330 C   0  0  0  0  0  0  0  0  0  0  0  0
    1.0178   -1.5373   -1.1763 C   0  0  0  0  0  0  0  0  0  0  0  0
    1.6049   -2.2452    0.0498 C   0  0  0  0  0  0  0  0  0  0  0  0
    2.1922   -1.3266    1.0985 C   0  0  0  0  0  0  0  0  0  0  0  0
    3.3623   -0.9693    1.1214 O   0  0  0  0  0  0  0  0  0  0  0  0
    1.2472   -0.9526    2.0051 O   0  0  0  0  0  0  0  0  0  0  0  0
    1.7031   -0.1132    3.0859 C   0  0  0  0  0  0  0  0  0  0  0  0
    0.7214   -0.2940    4.2382 C   0  0  0  0  0  0  0  0  0  0  0  0
    1.7450    1.3398    2.6283 C   0  0  0  0  0  0  0  0  0  0  0  0
    2.6586   -3.3019   -0.2459 C   0  0  0  0  0  0  0  0  0  0  0  0
    2.5500   -4.4334    0.2520 O   0  0  0  0  0  0  0  0  0  0  0  0
    3.8654   -2.8861   -1.0739 C   0  0  0  0  0  0  0  0  0  0  0  0
    5.0218   -2.9421   -0.3538 F   0  0  0  0  0  0  0  0  0  0  0  0
    3.7927   -1.6227   -1.5770 F   0  0  0  0  0  0  0  0  0  0  0  0
    4.0588   -3.7045   -2.1487 F   0  0  0  0  0  0  0  0  0  0  0  0
    0.7794   -2.2330   -2.3752 C   0  0  0  0  0  0  0  0  0  0  0  0
    1.0615   -3.5743   -2.3575 O   0  0  0  0  0  0  0  0  0  0  0  0
    0.2762   -1.6143   -3.5497 C   0  0  0  0  0  0  0  0  0  0  0  0
    0.1417   -2.2906   -4.7876 C   0  0  0  0  0  0  0  0  0  0  0  0
   -0.3638   -1.6557   -5.9228 C   0  0  0  0  0  0  0  0  0  0  0  0
   -0.7435   -0.3261   -5.8537 C   0  0  0  0  0  0  0  0  0  0  0  0
   -0.6046    0.3678   -4.6530 C   0  0  0  0  0  0  0  0  0  0  0  0
   -0.0910   -0.2499   -3.4859 C   0  0  0  0  0  0  0  0  0  0  0  0
   -2.4533    1.1071    0.7960 C   0  0  0  0  0  0  0  0  0  0  0  0
   -2.9528   -0.1958    0.2372 C   0  0  0  0  0  0  0  0  0  0  0  0
   -2.5055    1.2843    2.1924 C   0  0  0  0  0  0  0  0  0  0  0  0
   -1.3118    3.1746    4.6719 H   0  0  0  0  0  0  0  0  0  0  0  0
   -3.0902    3.2356    4.5356 H   0  0  0  0  0  0  0  0  0  0  0  0
   -2.2575    1.6895    4.7989 H   0  0  0  0  0  0  0  0  0  0  0  0
   -1.3541    4.4777    2.4465 H   0  0  0  0  0  0  0  0  0  0  0  0
   -1.2543    4.2200    0.0100 H   0  0  0  0  0  0  0  0  0  0  0  0
    0.0534    2.4626   -2.7853 H   0  0  0  0  0  0  0  0  0  0  0  0
    0.7331    0.3952   -0.2257 H   0  0  0  0  0  0  0  0  0  0  0  0
    0.7671   -2.7828    0.5180 H   0  0  0  0  0  0  0  0  0  0  0  0
    2.6957   -0.4338    3.4264 H   0  0  0  0  0  0  0  0  0  0  0  0
    0.7028   -1.3412    4.5599 H   0  0  0  0  0  0  0  0  0  0  0  0
    0.9941    0.3294    5.0962 H   0  0  0  0  0  0  0  0  0  0  0  0
   -0.2992   -0.0447    3.9293 H   0  0  0  0  0  0  0  0  0  0  0  0
    0.7855    1.6406    2.1998 H   0  0  0  0  0  0  0  0  0  0  0  0
    2.4925    1.4796    1.8406 H   0  0  0  0  0  0  0  0  0  0  0  0
    1.9912    2.0117    3.4565 H   0  0  0  0  0  0  0  0  0  0  0  0
    0.4760   -4.0298   -2.9877 H   0  0  0  0  0  0  0  0  0  0  0  0
    0.4549   -3.3253   -4.9006 H   0  0  0  0  0  0  0  0  0  0  0  0
   -0.4554   -2.2016   -6.8582 H   0  0  0  0  0  0  0  0  0  0  0  0
   -1.1461    0.1763   -6.7297 H   0  0  0  0  0  0  0  0  0  0  0  0
   -0.9191    1.4086   -4.6388 H   0  0  0  0  0  0  0  0  0  0  0  0
   -3.9170   -0.0492   -0.2591 H   0  0  0  0  0  0  0  0  0  0  0  0
   -2.2303   -0.6314   -0.4601 H   0  0  0  0  0  0  0  0  0  0  0  0
   -3.1030   -0.9375    1.0291 H   0  0  0  0  0  0  0  0  0  0  0  0
   -2.8819    0.4779    2.8212 H   0  0  0  0  0  0  0  0  0  0  0  0
  1  2  1  0
  2  3  2  0
  3  4  1  0
  4  5  2  0
  5  6  1  0
  6  7  2  0
  6  8  2  0
  6  9  1  0
  9 10  1  0
 10 11  2  0
 11 12  1  0
 12 13  1  0
 13 14  1  0
 14 15  2  0
 14 16  1  0
 16 17  1  0
 17 18  1  0
 17 19  1  0
 13 20  1  0
 20 21  2  0
 20 22  1  0
 22 23  1  0
 22 24  1  0
 22 25  1  0
 12 26  2  0
 26 27  1  0
 26 28  1  0
 28 29  2  0
 29 30  1  0
 30 31  2  0
 31 32  1  0
 32 33  2  0
  5 34  1  0
 34 35  1  0
 34 36  2  0
 36  2  1  0
 33 10  1  0
 33 28  1  0
  1 37  1  0
  1 38  1  0
  1 39  1  0
  3 40  1  0
  4 41  1  0
  9 42  1  0
 11 43  1  0
 13 44  1  0
 17 45  1  0
 18 46  1  0
 18 47  1  0
 18 48  1  0
 19 49  1  0
 19 50  1  0
 19 51  1  0
 27 52  1  0
 29 53  1  0
 30 54  1  0
 31 55  1  0
 32 56  1  0
 35 57  1  0
 35 58  1  0
 35 59  1  0
 36 60  1  0
M  END
$$$$
