
     RDKit          3D

 52 54  0  0  0  0  0  0  0  0999 V2000
    7.4872   -3.7908   -2.7807 C   0  0  0  0  0  0  0  0  0  0  0  0
    6.2199   -3.3190   -2.1318 C   0  0  0  0  0  0  0  0  0  0  0  0
    4.9947   -3.9169   -2.4461 C   0  0  0  0  0  0  0  0  0  0  0  0
    3.8200   -3.4969   -1.8176 C   0  0  0  0  0  0  0  0  0  0  0  0
    3.8529   -2.4839   -0.8503 C   0  0  0  0  0  0  0  0  0  0  0  0
    2.5827   -2.0147   -0.1965 C   0  0  0  0  0  0  0  0  0  0  0  0
    1.9397   -1.0049   -0.9929 N   0  0  0  0  0  0  0  0  0  0  0  0
    0.6680   -0.5701   -0.7143 C   0  0  0  0  0  0  0  0  0  0  0  0
   -0.0990   -1.0526    0.1081 O   0  0  0  0  0  0  0  0  0  0  0  0
    0.2386    0.6613   -1.5421 C   0  0  0  0  0  0  0  0  0  0  0  0
    1.0729    1.2940   -2.1728 O   0  0  0  0  0  0  0  0  0  0  0  0
   -1.1082    0.9284   -1.4615 N   0  0  0  0  0  0  0  0  0  0  0  0
   -1.6476    2.2355   -1.8121 C   0  0  0  0  0  0  0  0  0  0  0  0
   -1.7929    3.1505   -0.5776 C   0  0  0  0  0  0  0  0  0  0  0  0
   -0.4992    3.4694   -0.0364 O   0  0  0  0  0  0  0  0  0  0  0  0
   -0.7198    3.6862    1.3578 C   0  0  0  0  0  0  0  0  0  0  0  0
   -1.7162    2.6125    1.7311 C   0  0  0  0  0  0  0  0  0  0  0  0
   -2.5292    2.4470    0.5082 N   0  0  0  0  0  0  0  0  0  0  0  0
   -4.1589    2.8751    0.5899 S   0  0  0  0  0  6  0  0  0  0  0  0
   -4.7487    2.6219   -0.7055 O   0  0  0  0  0  0  0  0  0  0  0  0
   -4.2251    4.1828    1.2068 O   0  0  0  0  0  0  0  0  0  0  0  0
   -4.8170    1.6765    1.7200 C   0  0  0  0  0  0  0  0  0  0  0  0
   -5.4056    2.0909    2.9182 C   0  0  0  0  0  0  0  0  0  0  0  0
   -5.9166    1.1339    3.7973 C   0  0  0  0  0  0  0  0  0  0  0  0
   -5.8350   -0.2214    3.4716 C   0  0  0  0  0  0  0  0  0  0  0  0
   -6.5287   -1.5126    4.6661 Br  0  0  0  0  0  0  0  0  0  0  0  0
   -5.2500   -0.6327    2.2732 C   0  0  0  0  0  0  0  0  0  0  0  0
   -4.7400    0.3195    1.3893 C   0  0  0  0  0  0  0  0  0  0  0  0
    5.0810   -1.8869   -0.5362 C   0  0  0  0  0  0  0  0  0  0  0  0
    6.2553   -2.3072   -1.1653 C   0  0  0  0  0  0  0  0  0  0  0  0
    7.2859   -4.2389   -3.7596 H   0  0  0  0  0  0  0  0  0  0  0  0
    7.9766   -4.5373   -2.1473 H   0  0  0  0  0  0  0  0  0  0  0  0
    8.1760   -2.9542   -2.9438 H   0  0  0  0  0  0  0  0  0  0  0  0
    4.9451   -4.7124   -3.1867 H   0  0  0  0  0  0  0  0  0  0  0  0
    2.8760   -3.9646   -2.0891 H   0  0  0  0  0  0  0  0  0  0  0  0
    2.7901   -1.5875    0.7923 H   0  0  0  0  0  0  0  0  0  0  0  0
    1.8912   -2.8517   -0.0388 H   0  0  0  0  0  0  0  0  0  0  0  0
    2.4970   -0.4124   -1.6034 H   0  0  0  0  0  0  0  0  0  0  0  0
   -1.6144    0.3909   -0.7627 H   0  0  0  0  0  0  0  0  0  0  0  0
   -0.9914    2.7073   -2.5509 H   0  0  0  0  0  0  0  0  0  0  0  0
   -2.6243    2.0553   -2.2697 H   0  0  0  0  0  0  0  0  0  0  0  0
   -2.2705    4.0962   -0.8599 H   0  0  0  0  0  0  0  0  0  0  0  0
    0.2210    3.6025    1.9077 H   0  0  0  0  0  0  0  0  0  0  0  0
   -1.1311    4.6921    1.4979 H   0  0  0  0  0  0  0  0  0  0  0  0
   -2.2857    2.8766    2.6254 H   0  0  0  0  0  0  0  0  0  0  0  0
   -1.2086    1.6597    1.9197 H   0  0  0  0  0  0  0  0  0  0  0  0
   -5.4776    3.1463    3.1710 H   0  0  0  0  0  0  0  0  0  0  0  0
   -6.3800    1.4523    4.7276 H   0  0  0  0  0  0  0  0  0  0  0  0
   -5.1910   -1.6883    2.0183 H   0  0  0  0  0  0  0  0  0  0  0  0
   -4.2919    0.0018    0.4501 H   0  0  0  0  0  0  0  0  0  0  0  0
    5.1329   -1.0892    0.2025 H   0  0  0  0  0  0  0  0  0  0  0  0
    7.1993   -1.8372   -0.8985 H   0  0  0  0  0  0  0  0  0  0  0  0
  1  2  1  0
  2  3  2  0
  3  4  1  0
  4  5  2  0
  5  6  1  0
  6  7  1  0
  7  8  1  0
  8  9  2  0
  8 10  1  0
 10 11  2  0
 10 12  1  0
 12 13  1  0
 13 14  1  0
 14 15  1  0
 15 16  1  0
 16 17  1  0
 17 18  1  0
 18 19  1  0
 19 20  2  0
 19 21  2  0
 19 22  1  0
 22 23  2  0
 23 24  1  0
 24 25  2  0
 25 26  1  0
 25 27  1  0
 27 28  2  0
  5 29  1  0
 29 30  2  0
 30  2  1  0
 18 14  1  0
 28 22  1  0
  1 31  1  0
  1 32  1  0
  1 33  1  0
  3 34  1  0
  4 35  1  0
  6 36  1  0
  6 37  1  0
  7 38  1  0
 12 39  1  0
 13 40  1  0
 13 41  1  0
 14 42  1  0
 16 43  1  0
 16 44  1  0
 17 45  1  0
 17 46  1  0
 23 47  1  0
 24 48  1  0
 27 49  1  0
 28 50  1  0
 29 51  1  0
 30 52  1  0
M  END
$$$$
