
     RDKit          3D

 40 42  0  0  0  0  0  0  0  0999 V2000
    2.4437    5.3081    0.1282 C   0  0  0  0  0  0  0  0  0  0  0  0
    2.0268    3.8487    0.1868 C   0  0  0  0  0  0  0  0  0  0  0  0
    0.2514    3.6986   -0.1963 S   0  0  0  0  0  0  0  0  0  0  0  0
    0.0279    1.9305   -0.0462 C   0  0  0  0  0  0  0  0  0  0  0  0
   -1.2356    1.4108   -0.2282 C   0  0  0  0  0  0  0  0  0  0  0  0
   -1.3856    0.0437   -0.1150 C   0  0  0  0  0  0  0  0  0  0  0  0
   -2.6310   -0.5569   -0.2660 N   0  0  0  0  0  0  0  0  0  0  0  0
   -2.7034   -1.9993    0.0231 C   0  0  0  0  0  0  0  0  0  0  0  0
   -4.1589   -2.4725   -0.1135 C   0  0  0  0  0  0  0  0  0  0  0  0
   -4.7154   -2.2777   -1.4237 O   0  0  0  0  0  0  0  0  0  0  0  0
   -4.0466   -1.2591   -2.1792 C   0  0  0  0  0  0  0  0  0  0  0  0
   -3.5426   -0.0836   -1.3238 C   0  0  0  0  0  0  0  0  0  0  0  0
   -0.3305   -0.7285    0.1930 N   0  0  0  0  0  0  0  0  0  0  0  0
    0.8721   -0.1445    0.3531 C   0  0  0  0  0  0  0  0  0  0  0  0
    2.0228   -1.0137    0.6769 C   0  0  0  0  0  0  0  0  0  0  0  0
    3.3161   -0.4860    0.8618 C   0  0  0  0  0  0  0  0  0  0  0  0
    4.4063   -1.3075    1.1680 C   0  0  0  0  0  0  0  0  0  0  0  0
    4.2287   -2.6814    1.2970 C   0  0  0  0  0  0  0  0  0  0  0  0
    2.9639   -3.2333    1.1204 C   0  0  0  0  0  0  0  0  0  0  0  0
    1.8764   -2.4083    0.8144 C   0  0  0  0  0  0  0  0  0  0  0  0
    1.0951    1.1727    0.2361 N   0  0  0  0  0  0  0  0  0  0  0  0
    2.2832    5.7328   -0.8686 H   0  0  0  0  0  0  0  0  0  0  0  0
    3.5105    5.3995    0.3584 H   0  0  0  0  0  0  0  0  0  0  0  0
    1.8951    5.9131    0.8582 H   0  0  0  0  0  0  0  0  0  0  0  0
    2.2223    3.4534    1.1889 H   0  0  0  0  0  0  0  0  0  0  0  0
    2.6104    3.2735   -0.5391 H   0  0  0  0  0  0  0  0  0  0  0  0
   -2.0784    2.0589   -0.4265 H   0  0  0  0  0  0  0  0  0  0  0  0
   -2.3608   -2.2032    1.0445 H   0  0  0  0  0  0  0  0  0  0  0  0
   -2.0720   -2.5573   -0.6801 H   0  0  0  0  0  0  0  0  0  0  0  0
   -4.8000   -1.9365    0.5962 H   0  0  0  0  0  0  0  0  0  0  0  0
   -4.2332   -3.5395    0.1192 H   0  0  0  0  0  0  0  0  0  0  0  0
   -4.7505   -0.8965   -2.9351 H   0  0  0  0  0  0  0  0  0  0  0  0
   -3.2120   -1.7294   -2.7128 H   0  0  0  0  0  0  0  0  0  0  0  0
   -4.3947    0.4052   -0.8375 H   0  0  0  0  0  0  0  0  0  0  0  0
   -3.0691    0.6437   -1.9930 H   0  0  0  0  0  0  0  0  0  0  0  0
    3.4849    0.5855    0.7672 H   0  0  0  0  0  0  0  0  0  0  0  0
    5.3920   -0.8703    1.3050 H   0  0  0  0  0  0  0  0  0  0  0  0
    5.0745   -3.3209    1.5349 H   0  0  0  0  0  0  0  0  0  0  0  0
    2.8184   -4.3058    1.2200 H   0  0  0  0  0  0  0  0  0  0  0  0
    0.8977   -2.8671    0.6817 H   0  0  0  0  0  0  0  0  0  0  0  0
  1  2  1  0
  2  3  1  0
  3  4  1  0
  4  5  2  0
  5  6  1  0
  6  7  1  0
  7  8  1  0
  8  9  1  0
  9 10  1  0
 10 11  1  0
 11 12  1  0
  6 13  2  0
 13 14  1  0
 14 15  1  0
 15 16  2  0
 16 17  1  0
 17 18  2  0
 18 19  1  0
 19 20  2  0
 14 21  2  0
 21  4  1  0
 12  7  1  0
 20 15  1  0
  1 22  1  0
  1 23  1  0
  1 24  1  0
  2 25  1  0
  2 26  1  0
  5 27  1  0
  8 28  1  0
  8 29  1  0
  9 30  1  0
  9 31  1  0
 11 32  1  0
 11 33  1  0
 12 34  1  0
 12 35  1  0
 16 36  1  0
 17 37  1  0
 18 38  1  0
 19 39  1  0
 20 40  1  0
M  END
$$$$
