
     RDKit          3D

 46 48  0  0  0  0  0  0  0  0999 V2000
   -1.1373    1.4643   -2.8467 C   0  0  0  0  0  0  0  0  0  0  0  0
    0.3442    1.2013   -2.9983 C   0  0  0  0  0  0  0  0  0  0  0  0
    1.0886    2.2044   -3.8153 C   0  0  0  0  0  0  0  0  0  0  0  0
    2.1972    2.8532   -3.4272 C   0  0  0  0  0  0  0  0  0  0  0  0
    2.8970    2.7653   -2.1380 C   0  0  0  0  0  0  0  0  0  0  0  0
    4.2960    2.6740   -2.1312 C   0  0  0  0  0  0  0  0  0  0  0  0
    5.0023    2.6400   -0.9252 C   0  0  0  0  0  0  0  0  0  0  0  0
    4.3176    2.7061    0.2865 C   0  0  0  0  0  0  0  0  0  0  0  0
    2.9277    2.8076    0.2918 C   0  0  0  0  0  0  0  0  0  0  0  0
    2.2226    2.8480   -0.9143 C   0  0  0  0  0  0  0  0  0  0  0  0
    0.9811    0.1620   -2.5363 N   0  0  0  0  0  0  0  0  0  0  0  0
    0.3234   -0.7251   -1.7273 N   0  0  0  0  0  0  0  0  0  0  0  0
   -0.1620   -0.3568   -0.4786 C   0  0  0  0  0  0  0  0  0  0  0  0
   -0.3150    0.7782   -0.0475 O   0  0  0  0  0  0  0  0  0  0  0  0
   -0.4778   -1.5197    0.3939 C   0  0  0  0  0  0  0  0  0  0  0  0
   -1.2709   -2.7014   -0.1014 C   0  0  0  0  0  0  0  0  0  0  0  0
   -1.9069   -1.7516    0.8964 C   0  0  0  0  0  0  0  0  0  0  0  0
   -3.0220   -0.8617    0.3960 C   0  0  0  0  0  0  0  0  0  0  0  0
   -2.0748   -2.2125    2.3382 C   0  0  0  0  0  0  0  0  0  0  0  0
   -1.5730   -1.4503    3.4084 C   0  0  0  0  0  0  0  0  0  0  0  0
   -1.7241   -1.8666    4.7334 C   0  0  0  0  0  0  0  0  0  0  0  0
   -2.3915   -3.0544    5.0177 C   0  0  0  0  0  0  0  0  0  0  0  0
   -2.9107   -3.8215    3.9778 C   0  0  0  0  0  0  0  0  0  0  0  0
   -2.7550   -3.4014    2.6540 C   0  0  0  0  0  0  0  0  0  0  0  0
   -1.7018    0.5296   -2.7939 H   0  0  0  0  0  0  0  0  0  0  0  0
   -1.3160    2.0603   -1.9474 H   0  0  0  0  0  0  0  0  0  0  0  0
   -1.5117    2.0282   -3.7067 H   0  0  0  0  0  0  0  0  0  0  0  0
    0.6680    2.3958   -4.7964 H   0  0  0  0  0  0  0  0  0  0  0  0
    2.6593    3.5380   -4.1360 H   0  0  0  0  0  0  0  0  0  0  0  0
    4.8472    2.6181   -3.0671 H   0  0  0  0  0  0  0  0  0  0  0  0
    6.0853    2.5576   -0.9329 H   0  0  0  0  0  0  0  0  0  0  0  0
    4.8637    2.6760    1.2253 H   0  0  0  0  0  0  0  0  0  0  0  0
    2.3840    2.8556    1.2317 H   0  0  0  0  0  0  0  0  0  0  0  0
    1.1397    2.9377   -0.8790 H   0  0  0  0  0  0  0  0  0  0  0  0
    0.7309   -1.6552   -1.7572 H   0  0  0  0  0  0  0  0  0  0  0  0
    0.3249   -1.7339    1.0948 H   0  0  0  0  0  0  0  0  0  0  0  0
   -0.9600   -3.6835    0.2365 H   0  0  0  0  0  0  0  0  0  0  0  0
   -1.6466   -2.6977   -1.1194 H   0  0  0  0  0  0  0  0  0  0  0  0
   -3.0276    0.0864    0.9431 H   0  0  0  0  0  0  0  0  0  0  0  0
   -3.9941   -1.3481    0.5375 H   0  0  0  0  0  0  0  0  0  0  0  0
   -2.9236   -0.6352   -0.6709 H   0  0  0  0  0  0  0  0  0  0  0  0
   -1.0557   -0.5141    3.2031 H   0  0  0  0  0  0  0  0  0  0  0  0
   -1.3211   -1.2615    5.5402 H   0  0  0  0  0  0  0  0  0  0  0  0
   -2.5104   -3.3792    6.0487 H   0  0  0  0  0  0  0  0  0  0  0  0
   -3.4384   -4.7464    4.1946 H   0  0  0  0  0  0  0  0  0  0  0  0
   -3.1726   -4.0099    1.8539 H   0  0  0  0  0  0  0  0  0  0  0  0
  1  2  1  0
  2  3  1  0
  3  4  2  3
  4  5  1  0
  5  6  2  0
  6  7  1  0
  7  8  2  0
  8  9  1  0
  9 10  2  0
  2 11  2  3
 11 12  1  0
 12 13  1  0
 13 14  2  0
 13 15  1  0
 15 16  1  0
 16 17  1  0
 17 18  1  0
 17 19  1  0
 19 20  2  0
 20 21  1  0
 21 22  2  0
 22 23  1  0
 23 24  2  0
 10  5  1  0
 17 15  1  0
 24 19  1  0
  1 25  1  0
  1 26  1  0
  1 27  1  0
  3 28  1  0
  4 29  1  0
  6 30  1  0
  7 31  1  0
  8 32  1  0
  9 33  1  0
 10 34  1  0
 12 35  1  0
 15 36  1  0
 16 37  1  0
 16 38  1  0
 18 39  1  0
 18 40  1  0
 18 41  1  0
 20 42  1  0
 21 43  1  0
 22 44  1  0
 23 45  1  0
 24 46  1  0
M  END
$$$$
