
     RDKit          3D

 57 59  0  0  0  0  0  0  0  0999 V2000
   -7.9444   -1.0514   -0.3927 C   0  0  0  0  0  0  0  0  0  0  0  0
   -6.9783   -1.3019   -1.4047 O   0  0  0  0  0  0  0  0  0  0  0  0
   -5.7431   -0.7295   -1.2417 C   0  0  0  0  0  0  0  0  0  0  0  0
   -5.5117    0.4029   -0.4524 C   0  0  0  0  0  0  0  0  0  0  0  0
   -4.2259    0.9381   -0.3388 C   0  0  0  0  0  0  0  0  0  0  0  0
   -3.1672    0.3202   -1.0066 C   0  0  0  0  0  0  0  0  0  0  0  0
   -1.5146    0.9761   -0.8568 S   0  0  0  0  0  6  0  0  0  0  0  0
   -0.7459    0.4340   -1.9565 O   0  0  0  0  0  0  0  0  0  0  0  0
   -1.6482    2.3991   -0.6486 O   0  0  0  0  0  0  0  0  0  0  0  0
   -0.9357    0.2830    0.5492 N   0  0  0  0  0  0  0  0  0  0  0  0
   -0.8831   -1.1679    0.6989 C   0  0  0  0  0  0  0  0  0  0  0  0
   -0.6429   -1.3256    2.1832 C   0  0  0  0  0  0  0  0  0  0  0  0
   -1.3161   -0.2143    2.7897 O   0  0  0  0  0  0  0  0  0  0  0  0
   -1.3061    0.8719    1.8370 C   0  0  0  0  0  0  0  0  0  0  0  0
   -0.2899    1.9524    2.3010 C   0  0  0  0  0  0  0  0  0  0  0  0
    1.0857    1.4769    2.3191 N   0  0  0  0  0  0  0  0  0  0  0  0
    1.8385    1.4870    1.1644 C   0  0  0  0  0  0  0  0  0  0  0  0
    1.6683    2.2048    0.1902 O   0  0  0  0  0  0  0  0  0  0  0  0
    2.9455    0.4152    1.1434 C   0  0  0  0  0  0  0  0  0  0  0  0
    3.1451   -0.2738    2.1363 O   0  0  0  0  0  0  0  0  0  0  0  0
    3.5909    0.3229   -0.0670 N   0  0  0  0  0  0  0  0  0  0  0  0
    4.6947   -0.5731   -0.2912 C   0  0  0  0  0  0  0  0  0  0  0  0
    6.0117    0.1436   -0.1414 C   0  0  0  0  0  0  0  0  0  0  0  0
    6.5609    0.3591    1.1356 C   0  0  0  0  0  0  0  0  0  0  0  0
    7.7699    1.0395    1.2780 C   0  0  0  0  0  0  0  0  0  0  0  0
    8.4278    1.5067    0.1468 C   0  0  0  0  0  0  0  0  0  0  0  0
    9.5894    2.1553    0.2835 F   0  0  0  0  0  0  0  0  0  0  0  0
    7.8974    1.3116   -1.1251 C   0  0  0  0  0  0  0  0  0  0  0  0
    6.6875    0.6327   -1.2708 C   0  0  0  0  0  0  0  0  0  0  0  0
   -3.3936   -0.7786   -1.8424 C   0  0  0  0  0  0  0  0  0  0  0  0
   -4.6817   -1.3050   -1.9692 C   0  0  0  0  0  0  0  0  0  0  0  0
   -4.9922   -2.3924   -2.7456 O   0  0  0  0  0  0  0  0  0  0  0  0
   -4.0534   -2.7512   -3.7475 C   0  0  0  0  0  0  0  0  0  0  0  0
   -8.7987   -1.7112   -0.5729 H   0  0  0  0  0  0  0  0  0  0  0  0
   -7.5512   -1.2824    0.5955 H   0  0  0  0  0  0  0  0  0  0  0  0
   -8.3100   -0.0252   -0.4448 H   0  0  0  0  0  0  0  0  0  0  0  0
   -6.3181    0.8971    0.0737 H   0  0  0  0  0  0  0  0  0  0  0  0
   -4.0644    1.8284    0.2628 H   0  0  0  0  0  0  0  0  0  0  0  0
   -0.0861   -1.6205    0.1053 H   0  0  0  0  0  0  0  0  0  0  0  0
   -1.8417   -1.6279    0.4417 H   0  0  0  0  0  0  0  0  0  0  0  0
    0.4211   -1.2697    2.4330 H   0  0  0  0  0  0  0  0  0  0  0  0
   -1.0428   -2.2634    2.5782 H   0  0  0  0  0  0  0  0  0  0  0  0
   -2.3124    1.2931    1.8328 H   0  0  0  0  0  0  0  0  0  0  0  0
   -0.3495    2.8375    1.6568 H   0  0  0  0  0  0  0  0  0  0  0  0
   -0.5181    2.2496    3.3319 H   0  0  0  0  0  0  0  0  0  0  0  0
    1.3242    0.7412    2.9783 H   0  0  0  0  0  0  0  0  0  0  0  0
    3.3513    1.0245   -0.7636 H   0  0  0  0  0  0  0  0  0  0  0  0
    4.6471   -1.4243    0.4021 H   0  0  0  0  0  0  0  0  0  0  0  0
    4.5864   -0.9766   -1.3084 H   0  0  0  0  0  0  0  0  0  0  0  0
    6.0437   -0.0029    2.0240 H   0  0  0  0  0  0  0  0  0  0  0  0
    8.2029    1.2065    2.2636 H   0  0  0  0  0  0  0  0  0  0  0  0
    8.4296    1.6883   -1.9921 H   0  0  0  0  0  0  0  0  0  0  0  0
    6.2756    0.4859   -2.2701 H   0  0  0  0  0  0  0  0  0  0  0  0
   -2.5548   -1.2168   -2.3724 H   0  0  0  0  0  0  0  0  0  0  0  0
   -3.7832   -1.8941   -4.3677 H   0  0  0  0  0  0  0  0  0  0  0  0
   -3.1663   -3.2046   -3.2999 H   0  0  0  0  0  0  0  0  0  0  0  0
   -4.5239   -3.5011   -4.3911 H   0  0  0  0  0  0  0  0  0  0  0  0
  1  2  1  0
  2  3  1  0
  3  4  2  0
  4  5  1  0
  5  6  2  0
  6  7  1  0
  7  8  2  0
  7  9  2  0
  7 10  1  0
 10 11  1  0
 11 12  1  0
 12 13  1  0
 13 14  1  0
 14 15  1  0
 15 16  1  0
 16 17  1  0
 17 18  2  0
 17 19  1  0
 19 20  2  0
 19 21  1  0
 21 22  1  0
 22 23  1  0
 23 24  2  0
 24 25  1  0
 25 26  2  0
 26 27  1  0
 26 28  1  0
 28 29  2  0
  6 30  1  0
 30 31  2  0
 31 32  1  0
 32 33  1  0
 31  3  1  0
 14 10  1  0
 29 23  1  0
  1 34  1  0
  1 35  1  0
  1 36  1  0
  4 37  1  0
  5 38  1  0
 11 39  1  0
 11 40  1  0
 12 41  1  0
 12 42  1  0
 14 43  1  0
 15 44  1  0
 15 45  1  0
 16 46  1  0
 21 47  1  0
 22 48  1  0
 22 49  1  0
 24 50  1  0
 25 51  1  0
 28 52  1  0
 29 53  1  0
 30 54  1  0
 33 55  1  0
 33 56  1  0
 33 57  1  0
M  END
$$$$
