
     RDKit          3D

 53 58  0  0  0  0  0  0  0  0999 V2000
   -0.5172    1.7300   -0.6575 O   0  0  0  0  0  0  0  0  0  0  0  0
   -1.2812    1.0511    0.0366 C   0  0  0  0  0  0  0  0  0  0  0  0
   -0.6724    0.2836    1.2283 C   0  0  0  0  0  0  0  0  0  0  0  0
    0.7335   -0.0781    0.9527 N   0  0  0  0  0  4  0  0  0  0  0  0
    1.8652    0.3338    1.6541 C   0  0  0  0  0  0  0  0  0  0  0  0
    2.9967   -0.1746    1.0237 C   0  0  0  0  0  0  0  0  0  0  0  0
    4.4917    0.0688    1.4509 C   0  0  0  0  0  0  0  0  0  0  0  0
    4.7827    0.8650    2.5674 C   0  0  0  0  0  0  0  0  0  0  0  0
    6.1113    1.0896    2.9454 C   0  0  0  0  0  0  0  0  0  0  0  0
    7.1584    0.5228    2.2158 C   0  0  0  0  0  0  0  0  0  0  0  0
    8.7692    0.8447    2.7372 Cl  0  0  0  0  0  0  0  0  0  0  0  0
    6.8698   -0.2711    1.1009 C   0  0  0  0  0  0  0  0  0  0  0  0
    8.1024   -1.0080    0.1398 Cl  0  0  0  0  0  0  0  0  0  0  0  0
    5.5392   -0.4939    0.7195 C   0  0  0  0  0  0  0  0  0  0  0  0
    2.4745   -0.9036   -0.0309 N   0  0  0  0  0  0  0  0  0  0  0  0
    1.1502   -0.7857   -0.0924 C   0  0  0  0  0  0  0  0  0  0  0  0
    0.5504   -1.4728   -1.2576 C   0  0  0  0  0  0  0  0  0  0  0  0
    1.7251   -2.3363   -1.7579 C   0  0  0  0  0  0  0  0  0  0  0  0
    2.9955   -1.6876   -1.1425 C   0  0  0  0  0  0  0  0  0  0  0  0
   -2.6258    0.7781   -0.2735 N   0  0  0  0  0  0  0  0  0  0  0  0
   -3.5541    0.2249    0.6739 C   0  0  0  0  0  0  0  0  0  0  0  0
   -3.5528    0.6902    2.0027 C   0  0  0  0  0  0  0  0  0  0  0  0
   -4.4277    0.1607    2.9545 C   0  0  0  0  0  0  0  0  0  0  0  0
   -5.3314   -0.8303    2.5912 C   0  0  0  0  0  0  0  0  0  0  0  0
   -5.3782   -1.2727    1.2707 C   0  0  0  0  0  0  0  0  0  0  0  0
   -4.5094   -0.7384    0.3096 C   0  0  0  0  0  0  0  0  0  0  0  0
   -4.6278   -1.3392   -1.3552 S   0  0  0  0  0  0  0  0  0  0  0  0
   -4.0715    0.1297   -2.1931 C   0  0  0  0  0  0  0  0  0  0  0  0
   -4.5465    0.3574   -3.4937 C   0  0  0  0  0  0  0  0  0  0  0  0
   -4.1091    1.4596   -4.2216 C   0  0  0  0  0  0  0  0  0  0  0  0
   -3.1924    2.3357   -3.6551 C   0  0  0  0  0  0  0  0  0  0  0  0
   -2.7081    2.1073   -2.3635 C   0  0  0  0  0  0  0  0  0  0  0  0
   -3.1340    1.0023   -1.6065 C   0  0  0  0  0  0  0  0  0  0  0  0
   -0.6988    0.9191    2.1166 H   0  0  0  0  0  0  0  0  0  0  0  0
   -1.1915   -0.6587    1.4175 H   0  0  0  0  0  0  0  0  0  0  0  0
    1.7206    0.9616    2.5167 H   0  0  0  0  0  0  0  0  0  0  0  0
    4.0051    1.3346    3.1623 H   0  0  0  0  0  0  0  0  0  0  0  0
    6.3272    1.7147    3.8132 H   0  0  0  0  0  0  0  0  0  0  0  0
    5.3560   -1.1065   -0.1563 H   0  0  0  0  0  0  0  0  0  0  0  0
    0.2721   -0.6968   -1.9734 H   0  0  0  0  0  0  0  0  0  0  0  0
   -0.3092   -2.0513   -0.9252 H   0  0  0  0  0  0  0  0  0  0  0  0
    1.7681   -2.4020   -2.8482 H   0  0  0  0  0  0  0  0  0  0  0  0
    1.6177   -3.3532   -1.3618 H   0  0  0  0  0  0  0  0  0  0  0  0
    3.4798   -1.0138   -1.8541 H   0  0  0  0  0  0  0  0  0  0  0  0
    3.6927   -2.4517   -0.7913 H   0  0  0  0  0  0  0  0  0  0  0  0
   -2.9220    1.5209    2.3101 H   0  0  0  0  0  0  0  0  0  0  0  0
   -4.4258    0.5400    3.9750 H   0  0  0  0  0  0  0  0  0  0  0  0
   -6.0215   -1.2396    3.3258 H   0  0  0  0  0  0  0  0  0  0  0  0
   -6.1103   -2.0300    0.9935 H   0  0  0  0  0  0  0  0  0  0  0  0
   -5.2641   -0.3233   -3.9494 H   0  0  0  0  0  0  0  0  0  0  0  0
   -4.4873    1.6367   -5.2252 H   0  0  0  0  0  0  0  0  0  0  0  0
   -2.8601    3.2085   -4.2125 H   0  0  0  0  0  0  0  0  0  0  0  0
   -2.0251    2.8478   -1.9536 H   0  0  0  0  0  0  0  0  0  0  0  0
  1  2  2  0
  2  3  1  0
  3  4  1  0
  4  5  1  0
  5  6  2  0
  6  7  1  0
  7  8  2  0
  8  9  1  0
  9 10  2  0
 10 11  1  0
 10 12  1  0
 12 13  1  0
 12 14  2  0
  6 15  1  0
 15 16  1  0
 16 17  1  0
 17 18  1  0
 18 19  1  0
  2 20  1  0
 20 21  1  0
 21 22  2  0
 22 23  1  0
 23 24  2  0
 24 25  1  0
 25 26  2  0
 26 27  1  0
 27 28  1  0
 28 29  2  0
 29 30  1  0
 30 31  2  0
 31 32  1  0
 32 33  2  0
 16  4  2  0
 33 20  1  0
 14  7  1  0
 19 15  1  0
 26 21  1  0
 33 28  1  0
  3 34  1  0
  3 35  1  0
  5 36  1  0
  8 37  1  0
  9 38  1  0
 14 39  1  0
 17 40  1  0
 17 41  1  0
 18 42  1  0
 18 43  1  0
 19 44  1  0
 19 45  1  0
 22 46  1  0
 23 47  1  0
 24 48  1  0
 25 49  1  0
 29 50  1  0
 30 51  1  0
 31 52  1  0
 32 53  1  0
M  CHG  1   4   1
M  END
$$$$
