
     RDKit          3D

 55 59  0  0  0  0  0  0  0  0999 V2000
    5.7682    3.3455    5.4809 C   0  0  0  0  0  0  0  0  0  0  0  0
    4.9270    2.4803    4.7195 O   0  0  0  0  0  0  0  0  0  0  0  0
    4.0273    3.0708    3.8689 C   0  0  0  0  0  0  0  0  0  0  0  0
    3.9183    4.4390    3.6039 C   0  0  0  0  0  0  0  0  0  0  0  0
    2.9421    4.9095    2.7185 C   0  0  0  0  0  0  0  0  0  0  0  0
    2.0812    4.0134    2.0849 C   0  0  0  0  0  0  0  0  0  0  0  0
    2.1963    2.6374    2.3202 C   0  0  0  0  0  0  0  0  0  0  0  0
    1.2994    1.7088    1.6417 C   0  0  0  0  0  0  0  0  0  0  0  0
   -0.0193    1.7755    1.6391 N   0  0  0  0  0  0  0  0  0  0  0  0
   -0.5141    0.6976    0.9444 N   0  0  0  0  0  0  0  0  0  0  0  0
    0.5118    0.0042    0.5171 C   0  0  0  0  0  0  0  0  0  0  0  0
    0.4495   -1.4889   -0.3453 S   0  0  0  0  0  0  0  0  0  0  0  0
   -1.2448   -2.0647    0.0476 C   0  0  0  0  0  0  0  0  0  0  0  0
   -2.3505   -1.2688   -0.6617 C   0  0  0  0  0  0  0  0  0  0  0  0
   -3.3508   -0.9437   -0.0090 O   0  0  0  0  0  0  0  0  0  0  0  0
   -2.3053   -0.9643   -2.1039 C   0  0  0  0  0  0  0  0  0  0  0  0
   -1.5482   -1.5881   -3.0814 C   0  0  0  0  0  0  0  0  0  0  0  0
   -1.8302   -1.0124   -4.2921 N   0  0  0  0  0  0  0  0  0  0  0  0
   -2.7704   -0.0225   -4.1421 C   0  0  0  0  0  0  0  0  0  0  0  0
   -3.3582    0.8155   -5.0996 C   0  0  0  0  0  0  0  0  0  0  0  0
   -4.3024    1.7468   -4.6567 C   0  0  0  0  0  0  0  0  0  0  0  0
   -4.6417    1.8351   -3.3101 C   0  0  0  0  0  0  0  0  0  0  0  0
   -4.0442    0.9884   -2.3686 C   0  0  0  0  0  0  0  0  0  0  0  0
   -3.0894    0.0344   -2.7853 C   0  0  0  0  0  0  0  0  0  0  0  0
   -1.4605   -3.5746   -0.0660 C   0  0  0  0  0  0  0  0  0  0  0  0
   -2.4798   -4.1584    0.7163 C   0  0  0  0  0  0  0  0  0  0  0  0
   -2.7374   -5.5294    0.6621 C   0  0  0  0  0  0  0  0  0  0  0  0
   -1.9872   -6.3442   -0.1810 C   0  0  0  0  0  0  0  0  0  0  0  0
   -0.9813   -5.7878   -0.9680 C   0  0  0  0  0  0  0  0  0  0  0  0
   -0.7208   -4.4152   -0.9130 C   0  0  0  0  0  0  0  0  0  0  0  0
    1.6776    0.6236    0.8794 N   0  0  0  0  0  0  0  0  0  0  0  0
    3.0214    0.2351    0.5344 C   0  0  0  0  0  0  0  0  0  0  0  0
    3.1629    2.1788    3.2269 C   0  0  0  0  0  0  0  0  0  0  0  0
    5.1742    4.0398    6.0918 H   0  0  0  0  0  0  0  0  0  0  0  0
    6.3581    2.7264    6.1706 H   0  0  0  0  0  0  0  0  0  0  0  0
    6.4694    3.8827    4.8258 H   0  0  0  0  0  0  0  0  0  0  0  0
    4.5705    5.1662    4.0747 H   0  0  0  0  0  0  0  0  0  0  0  0
    2.8486    5.9791    2.5246 H   0  0  0  0  0  0  0  0  0  0  0  0
    1.3196    4.3914    1.4041 H   0  0  0  0  0  0  0  0  0  0  0  0
   -1.3537   -1.8428    1.1191 H   0  0  0  0  0  0  0  0  0  0  0  0
   -0.8393   -2.4013   -3.0392 H   0  0  0  0  0  0  0  0  0  0  0  0
   -1.4218   -1.2821   -5.1759 H   0  0  0  0  0  0  0  0  0  0  0  0
   -3.0977    0.7483   -6.1508 H   0  0  0  0  0  0  0  0  0  0  0  0
   -4.7798    2.4114   -5.3745 H   0  0  0  0  0  0  0  0  0  0  0  0
   -5.3775    2.5655   -2.9812 H   0  0  0  0  0  0  0  0  0  0  0  0
   -4.3174    1.0669   -1.3194 H   0  0  0  0  0  0  0  0  0  0  0  0
   -3.0877   -3.5394    1.3796 H   0  0  0  0  0  0  0  0  0  0  0  0
   -3.5262   -5.9577    1.2776 H   0  0  0  0  0  0  0  0  0  0  0  0
   -2.1861   -7.4117   -0.2243 H   0  0  0  0  0  0  0  0  0  0  0  0
   -0.3937   -6.4238   -1.6268 H   0  0  0  0  0  0  0  0  0  0  0  0
    0.0774   -4.0272   -1.5425 H   0  0  0  0  0  0  0  0  0  0  0  0
    3.0404   -0.1754   -0.4788 H   0  0  0  0  0  0  0  0  0  0  0  0
    3.6814    1.1060    0.5595 H   0  0  0  0  0  0  0  0  0  0  0  0
    3.3547   -0.5175    1.2562 H   0  0  0  0  0  0  0  0  0  0  0  0
    3.2400    1.1182    3.4603 H   0  0  0  0  0  0  0  0  0  0  0  0
  1  2  1  0
  2  3  1  0
  3  4  2  0
  4  5  1  0
  5  6  2  0
  6  7  1  0
  7  8  1  0
  8  9  2  0
  9 10  1  0
 10 11  2  0
 11 12  1  0
 12 13  1  0
 13 14  1  0
 14 15  2  0
 14 16  1  0
 16 17  2  0
 17 18  1  0
 18 19  1  0
 19 20  2  0
 20 21  1  0
 21 22  2  0
 22 23  1  0
 23 24  2  0
 13 25  1  0
 25 26  2  0
 26 27  1  0
 27 28  2  0
 28 29  1  0
 29 30  2  0
 11 31  1  0
 31 32  1  0
  7 33  2  0
 33  3  1  0
 31  8  1  0
 24 16  1  0
 30 25  1  0
 24 19  1  0
  1 34  1  0
  1 35  1  0
  1 36  1  0
  4 37  1  0
  5 38  1  0
  6 39  1  0
 13 40  1  0
 17 41  1  0
 18 42  1  0
 20 43  1  0
 21 44  1  0
 22 45  1  0
 23 46  1  0
 26 47  1  0
 27 48  1  0
 28 49  1  0
 29 50  1  0
 30 51  1  0
 32 52  1  0
 32 53  1  0
 32 54  1  0
 33 55  1  0
M  END
$$$$
