
     RDKit          3D

 44 45  0  0  0  0  0  0  0  0999 V2000
   -7.1228   -0.7906    2.6348 C   0  0  0  0  0  0  0  0  0  0  0  0
   -7.1230   -0.7480    1.1134 C   0  0  0  0  0  0  0  0  0  0  0  0
   -6.4830    0.5260    0.5682 C   0  0  0  0  0  0  0  0  0  0  0  0
   -5.1201    0.6475    1.0034 O   0  0  0  0  0  0  0  0  0  0  0  0
   -4.1982    0.0039    0.2471 C   0  0  0  0  0  0  0  0  0  0  0  0
   -4.4215   -0.6540   -0.7571 O   0  0  0  0  0  0  0  0  0  0  0  0
   -2.8330    0.1959    0.8061 C   0  0  0  0  0  0  0  0  0  0  0  0
   -2.5919    0.9437    1.9627 C   0  0  0  0  0  0  0  0  0  0  0  0
   -1.2882    1.0852    2.4360 C   0  0  0  0  0  0  0  0  0  0  0  0
   -0.2215    0.4833    1.7606 C   0  0  0  0  0  0  0  0  0  0  0  0
   -0.4451   -0.2672    0.6054 C   0  0  0  0  0  0  0  0  0  0  0  0
    0.5731   -0.9049   -0.1354 N   0  0  0  0  0  0  0  0  0  0  0  0
    1.9363   -0.9188    0.1385 C   0  0  0  0  0  0  0  0  0  0  0  0
    2.4858   -0.3734    1.0892 O   0  0  0  0  0  0  0  0  0  0  0  0
    2.7215   -1.7084   -0.9248 C   0  0  0  0  0  0  0  0  0  0  0  0
    4.1237   -1.8014   -0.7424 O   0  0  0  0  0  0  0  0  0  0  0  0
    4.9016   -0.7421   -1.1158 C   0  0  0  0  0  0  0  0  0  0  0  0
    6.2783   -0.9870   -1.0490 C   0  0  0  0  0  0  0  0  0  0  0  0
    7.2015    0.0025   -1.3966 C   0  0  0  0  0  0  0  0  0  0  0  0
    6.7371    1.2544   -1.8119 C   0  0  0  0  0  0  0  0  0  0  0  0
    7.6958    2.3032   -2.1802 N   0  0  0  0  0  4  0  0  0  0  0  0
    7.2413    3.3889   -2.5689 O   0  0  0  0  0  0  0  0  0  0  0  0
    8.9034    2.0403   -2.0869 O   0  0  0  0  0  1  0  0  0  0  0  0
    5.3624    1.5142   -1.8769 C   0  0  0  0  0  0  0  0  0  0  0  0
    4.4479    0.5131   -1.5265 C   0  0  0  0  0  0  0  0  0  0  0  0
   -1.7569   -0.4059    0.1341 C   0  0  0  0  0  0  0  0  0  0  0  0
   -7.6563    0.0701    3.0507 H   0  0  0  0  0  0  0  0  0  0  0  0
   -6.1034   -0.7894    3.0333 H   0  0  0  0  0  0  0  0  0  0  0  0
   -7.6199   -1.7001    2.9866 H   0  0  0  0  0  0  0  0  0  0  0  0
   -8.1540   -0.8179    0.7496 H   0  0  0  0  0  0  0  0  0  0  0  0
   -6.5826   -1.6263    0.7432 H   0  0  0  0  0  0  0  0  0  0  0  0
   -7.0181    1.4052    0.9434 H   0  0  0  0  0  0  0  0  0  0  0  0
   -6.5478    0.5603   -0.5259 H   0  0  0  0  0  0  0  0  0  0  0  0
   -3.4045    1.4202    2.5055 H   0  0  0  0  0  0  0  0  0  0  0  0
   -1.0954    1.6656    3.3357 H   0  0  0  0  0  0  0  0  0  0  0  0
    0.7748    0.6227    2.1699 H   0  0  0  0  0  0  0  0  0  0  0  0
    0.2636   -1.4221   -0.9501 H   0  0  0  0  0  0  0  0  0  0  0  0
    2.4782   -1.3325   -1.9268 H   0  0  0  0  0  0  0  0  0  0  0  0
    2.3433   -2.7374   -0.8837 H   0  0  0  0  0  0  0  0  0  0  0  0
    6.6345   -1.9609   -0.7183 H   0  0  0  0  0  0  0  0  0  0  0  0
    8.2647   -0.2183   -1.3335 H   0  0  0  0  0  0  0  0  0  0  0  0
    4.9863    2.4873   -2.1871 H   0  0  0  0  0  0  0  0  0  0  0  0
    3.3919    0.7589   -1.5675 H   0  0  0  0  0  0  0  0  0  0  0  0
   -1.9594   -0.9860   -0.7642 H   0  0  0  0  0  0  0  0  0  0  0  0
  1  2  1  0
  2  3  1  0
  3  4  1  0
  4  5  1  0
  5  6  2  0
  5  7  1  0
  7  8  2  0
  8  9  1  0
  9 10  2  0
 10 11  1  0
 11 12  1  0
 12 13  1  0
 13 14  2  0
 13 15  1  0
 15 16  1  0
 16 17  1  0
 17 18  2  0
 18 19  1  0
 19 20  2  0
 20 21  1  0
 21 22  2  0
 21 23  1  0
 20 24  1  0
 24 25  2  0
 11 26  2  0
 26  7  1  0
 25 17  1  0
  1 27  1  0
  1 28  1  0
  1 29  1  0
  2 30  1  0
  2 31  1  0
  3 32  1  0
  3 33  1  0
  8 34  1  0
  9 35  1  0
 10 36  1  0
 12 37  1  0
 15 38  1  0
 15 39  1  0
 18 40  1  0
 19 41  1  0
 24 42  1  0
 25 43  1  0
 26 44  1  0
M  CHG  2  21   1  23  -1
M  END
$$$$
