
     RDKit          3D

 39 39  0  0  0  0  0  0  0  0999 V2000
   -3.6009    3.1470    2.3772 C   0  0  0  0  0  0  0  0  0  0  0  0
   -3.0689    1.9593    1.6356 C   0  0  0  0  0  0  0  0  0  0  0  0
   -3.0374    0.8214    2.0823 O   0  0  0  0  0  0  0  0  0  0  0  0
   -2.6217    2.3401    0.4069 O   0  0  0  0  0  0  0  0  0  0  0  0
   -2.1060    1.2828   -0.4206 C   0  0  0  0  0  0  0  0  0  0  0  0
   -0.6541    0.9848   -0.0518 C   0  0  0  0  0  0  0  0  0  0  0  0
   -0.0224   -0.0937   -0.9473 C   0  0  0  0  0  0  0  0  0  0  0  0
    1.4108   -0.2184   -0.5675 N   0  0  0  0  0  0  0  0  0  0  0  0
    2.4863    0.4627   -1.6629 S   0  0  0  0  0  6  0  0  0  0  0  0
    2.1430    1.8579   -1.8104 O   0  0  0  0  0  0  0  0  0  0  0  0
    2.5324   -0.4323   -2.7940 O   0  0  0  0  0  0  0  0  0  0  0  0
    3.8979    0.3610   -0.8773 O   0  0  0  0  0  0  0  0  0  0  0  0
    4.1252    1.2430    0.2217 C   0  0  0  0  0  0  0  0  0  0  0  0
    4.8599    0.5345    1.3677 C   0  0  0  0  0  0  0  0  0  0  0  0
    5.1086    1.6846    2.7197 Cl  0  0  0  0  0  0  0  0  0  0  0  0
    3.8966   -0.8520    1.9701 Cl  0  0  0  0  0  0  0  0  0  0  0  0
    6.4589   -0.0611    0.8272 Cl  0  0  0  0  0  0  0  0  0  0  0  0
   -0.6766   -1.4652   -0.8788 C   0  0  0  0  0  0  0  0  0  0  0  0
   -1.1826   -2.0029    0.3144 C   0  0  0  0  0  0  0  0  0  0  0  0
   -1.7420   -3.2826    0.3379 C   0  0  0  0  0  0  0  0  0  0  0  0
   -1.7879   -4.0487   -0.8241 C   0  0  0  0  0  0  0  0  0  0  0  0
   -1.2694   -3.5393   -2.0113 C   0  0  0  0  0  0  0  0  0  0  0  0
   -0.7126   -2.2595   -2.0381 C   0  0  0  0  0  0  0  0  0  0  0  0
   -4.4332    3.5882    1.8230 H   0  0  0  0  0  0  0  0  0  0  0  0
   -2.8036    3.8800    2.5235 H   0  0  0  0  0  0  0  0  0  0  0  0
   -3.9660    2.8281    3.3576 H   0  0  0  0  0  0  0  0  0  0  0  0
   -2.1623    1.6381   -1.4553 H   0  0  0  0  0  0  0  0  0  0  0  0
   -2.7531    0.4015   -0.3514 H   0  0  0  0  0  0  0  0  0  0  0  0
   -0.0818    1.9184   -0.1375 H   0  0  0  0  0  0  0  0  0  0  0  0
   -0.5739    0.7180    1.0087 H   0  0  0  0  0  0  0  0  0  0  0  0
   -0.1090    0.2581   -1.9843 H   0  0  0  0  0  0  0  0  0  0  0  0
    1.6673   -1.1982   -0.4215 H   0  0  0  0  0  0  0  0  0  0  0  0
    3.1751    1.6474    0.5950 H   0  0  0  0  0  0  0  0  0  0  0  0
    4.7124    2.0899   -0.1529 H   0  0  0  0  0  0  0  0  0  0  0  0
   -1.1546   -1.4380    1.2442 H   0  0  0  0  0  0  0  0  0  0  0  0
   -2.1406   -3.6811    1.2679 H   0  0  0  0  0  0  0  0  0  0  0  0
   -2.2222   -5.0448   -0.8020 H   0  0  0  0  0  0  0  0  0  0  0  0
   -1.2936   -4.1404   -2.9168 H   0  0  0  0  0  0  0  0  0  0  0  0
   -0.2983   -1.8887   -2.9749 H   0  0  0  0  0  0  0  0  0  0  0  0
  1  2  1  0
  2  3  2  0
  2  4  1  0
  4  5  1  0
  5  6  1  0
  6  7  1  0
  7  8  1  0
  8  9  1  0
  9 10  2  0
  9 11  2  0
  9 12  1  0
 12 13  1  0
 13 14  1  0
 14 15  1  0
 14 16  1  0
 14 17  1  0
  7 18  1  0
 18 19  2  0
 19 20  1  0
 20 21  2  0
 21 22  1  0
 22 23  2  0
 23 18  1  0
  1 24  1  0
  1 25  1  0
  1 26  1  0
  5 27  1  0
  5 28  1  0
  6 29  1  0
  6 30  1  0
  7 31  1  0
  8 32  1  0
 13 33  1  0
 13 34  1  0
 19 35  1  0
 20 36  1  0
 21 37  1  0
 22 38  1  0
 23 39  1  0
M  END
$$$$
