
     RDKit          3D

 51 54  0  0  0  0  0  0  0  0999 V2000
    5.8964   -0.8415   -1.5135 C   0  0  0  0  0  0  0  0  0  0  0  0
    5.4125    0.5020   -2.0373 C   0  0  0  0  0  0  0  0  0  0  0  0
    4.0213    0.8223   -1.5560 C   0  0  0  0  0  0  0  0  0  0  0  0
    3.8221    1.4899   -0.3460 C   0  0  0  0  0  0  0  0  0  0  0  0
    2.5275    1.7736    0.1074 C   0  0  0  0  0  0  0  0  0  0  0  0
    1.3921    1.3955   -0.6281 C   0  0  0  0  0  0  0  0  0  0  0  0
    0.0536    1.6852   -0.1464 N   0  0  0  0  0  0  0  0  0  0  0  0
   -0.1539    2.8772    0.5585 C   0  0  0  0  0  0  0  0  0  0  0  0
    0.6676    3.7838    0.6993 O   0  0  0  0  0  0  0  0  0  0  0  0
   -1.4853    3.0956    1.1455 C   0  0  0  0  0  0  0  0  0  0  0  0
   -1.6966    4.2075    1.9800 C   0  0  0  0  0  0  0  0  0  0  0  0
   -2.9487    4.4369    2.5409 C   0  0  0  0  0  0  0  0  0  0  0  0
   -3.9874    3.5558    2.2698 C   0  0  0  0  0  0  0  0  0  0  0  0
   -3.7751    2.4535    1.4342 C   0  0  0  0  0  0  0  0  0  0  0  0
   -2.5187    2.2129    0.8540 C   0  0  0  0  0  0  0  0  0  0  0  0
   -2.2628    1.1114    0.0013 N   0  0  0  0  0  0  0  0  0  0  0  0
   -3.3404    0.1892   -0.3749 C   0  0  0  0  0  0  0  0  0  0  0  0
   -3.4663   -0.9392    0.6486 C   0  0  0  0  0  0  0  0  0  0  0  0
   -4.2505   -0.8892    1.5924 O   0  0  0  0  0  0  0  0  0  0  0  0
   -2.5818   -1.9747    0.4489 N   0  0  0  0  0  0  0  0  0  0  0  0
   -2.4450   -3.0265    1.4273 C   0  0  0  0  0  0  0  0  0  0  0  0
   -1.4858   -4.0358    0.9205 C   0  0  0  0  0  0  0  0  0  0  0  0
   -0.1244   -4.0169    0.6894 C   0  0  0  0  0  0  0  0  0  0  0  0
    0.2151   -5.2994    0.1958 C   0  0  0  0  0  0  0  0  0  0  0  0
   -0.9564   -6.0179    0.1583 C   0  0  0  0  0  0  0  0  0  0  0  0
   -1.9940   -5.2600    0.5963 O   0  0  0  0  0  0  0  0  0  0  0  0
   -0.9751    0.7742   -0.4182 C   0  0  0  0  0  0  0  0  0  0  0  0
   -0.7999   -0.3268   -0.9561 O   0  0  0  0  0  0  0  0  0  0  0  0
    1.6101    0.7224   -1.8414 C   0  0  0  0  0  0  0  0  0  0  0  0
    2.9033    0.4365   -2.2982 C   0  0  0  0  0  0  0  0  0  0  0  0
    6.9075   -1.0481   -1.8784 H   0  0  0  0  0  0  0  0  0  0  0  0
    5.9216   -0.8556   -0.4185 H   0  0  0  0  0  0  0  0  0  0  0  0
    5.2429   -1.6558   -1.8445 H   0  0  0  0  0  0  0  0  0  0  0  0
    5.4332    0.5010   -3.1339 H   0  0  0  0  0  0  0  0  0  0  0  0
    6.1031    1.2936   -1.7217 H   0  0  0  0  0  0  0  0  0  0  0  0
    4.6723    1.7961    0.2600 H   0  0  0  0  0  0  0  0  0  0  0  0
    2.4344    2.2764    1.0673 H   0  0  0  0  0  0  0  0  0  0  0  0
   -0.8825    4.8978    2.1949 H   0  0  0  0  0  0  0  0  0  0  0  0
   -3.1100    5.2945    3.1893 H   0  0  0  0  0  0  0  0  0  0  0  0
   -4.9677    3.7171    2.7136 H   0  0  0  0  0  0  0  0  0  0  0  0
   -4.6204    1.7876    1.2840 H   0  0  0  0  0  0  0  0  0  0  0  0
   -3.1302   -0.2488   -1.3591 H   0  0  0  0  0  0  0  0  0  0  0  0
   -4.2975    0.7055   -0.4929 H   0  0  0  0  0  0  0  0  0  0  0  0
   -1.7975   -1.7970   -0.1795 H   0  0  0  0  0  0  0  0  0  0  0  0
   -3.4311   -3.4617    1.6211 H   0  0  0  0  0  0  0  0  0  0  0  0
   -2.0801   -2.5833    2.3603 H   0  0  0  0  0  0  0  0  0  0  0  0
    0.5374   -3.1769    0.8515 H   0  0  0  0  0  0  0  0  0  0  0  0
    1.1919   -5.6563   -0.0987 H   0  0  0  0  0  0  0  0  0  0  0  0
   -1.2082   -7.0262   -0.1396 H   0  0  0  0  0  0  0  0  0  0  0  0
    0.7817    0.4288   -2.4811 H   0  0  0  0  0  0  0  0  0  0  0  0
    3.0256   -0.0863   -3.2444 H   0  0  0  0  0  0  0  0  0  0  0  0
  1  2  1  0
  2  3  1  0
  3  4  2  0
  4  5  1  0
  5  6  2  0
  6  7  1  0
  7  8  1  0
  8  9  2  0
  8 10  1  0
 10 11  2  0
 11 12  1  0
 12 13  2  0
 13 14  1  0
 14 15  2  0
 15 16  1  0
 16 17  1  0
 17 18  1  0
 18 19  2  0
 18 20  1  0
 20 21  1  0
 21 22  1  0
 22 23  2  0
 23 24  1  0
 24 25  2  0
 25 26  1  0
 16 27  1  0
 27 28  2  0
  6 29  1  0
 29 30  2  0
 30  3  1  0
 27  7  1  0
 15 10  1  0
 26 22  1  0
  1 31  1  0
  1 32  1  0
  1 33  1  0
  2 34  1  0
  2 35  1  0
  4 36  1  0
  5 37  1  0
 11 38  1  0
 12 39  1  0
 13 40  1  0
 14 41  1  0
 17 42  1  0
 17 43  1  0
 20 44  1  0
 21 45  1  0
 21 46  1  0
 23 47  1  0
 24 48  1  0
 25 49  1  0
 29 50  1  0
 30 51  1  0
M  END
$$$$
