
     RDKit          3D

 49 52  0  0  0  0  0  0  0  0999 V2000
    4.8850   -1.3229   -1.3237 C   0  0  0  0  0  0  0  0  0  0  0  0
    5.3298   -1.5261    0.1015 C   0  0  0  0  0  0  0  0  0  0  0  0
    6.4676   -2.3221    0.3333 C   0  0  0  0  0  0  0  0  0  0  0  0
    6.9264   -2.5436    1.6289 C   0  0  0  0  0  0  0  0  0  0  0  0
    8.3181   -3.5189    1.8915 Cl  0  0  0  0  0  0  0  0  0  0  0  0
    6.2643   -1.9769    2.7087 C   0  0  0  0  0  0  0  0  0  0  0  0
    5.1311   -1.1860    2.4933 C   0  0  0  0  0  0  0  0  0  0  0  0
    4.6466   -0.9542    1.1994 C   0  0  0  0  0  0  0  0  0  0  0  0
    3.4990   -0.1664    0.9494 N   0  0  0  0  0  0  0  0  0  0  0  0
    2.6572    0.4413    1.8725 C   0  0  0  0  0  0  0  0  0  0  0  0
    2.7535    0.3924    3.0957 O   0  0  0  0  0  0  0  0  0  0  0  0
    1.5187    1.1988    1.2079 C   0  0  0  0  0  0  0  0  0  0  0  0
    0.1422    0.0473    0.9210 S   0  0  0  0  0  0  0  0  0  0  0  0
   -0.8685    1.0187   -0.0872 C   0  0  0  0  0  0  0  0  0  0  0  0
   -0.5072    2.1230   -0.6944 N   0  0  0  0  0  0  0  0  0  0  0  0
   -1.5836    2.5761   -1.4112 N   0  0  0  0  0  0  0  0  0  0  0  0
   -2.5874    1.7384   -1.2263 C   0  0  0  0  0  0  0  0  0  0  0  0
   -3.9510    1.8734   -1.8227 C   0  0  0  0  0  0  0  0  0  0  0  0
   -4.9300    2.5175   -0.8787 C   0  0  0  0  0  0  0  0  0  0  0  0
   -4.7977    3.7053   -0.1819 C   0  0  0  0  0  0  0  0  0  0  0  0
   -5.9404    3.9993    0.6154 C   0  0  0  0  0  0  0  0  0  0  0  0
   -6.9149    3.0344    0.4938 C   0  0  0  0  0  0  0  0  0  0  0  0
   -6.4522    1.7867   -0.5796 S   0  0  0  0  0  0  0  0  0  0  0  0
   -2.1705    0.7248   -0.3886 N   0  0  0  0  0  0  0  0  0  0  0  0
   -2.9648   -0.3814    0.1087 C   0  0  0  0  0  0  0  0  0  0  0  0
   -2.8030   -1.5769   -0.7543 C   0  0  0  0  0  0  0  0  0  0  0  0
   -2.0220   -2.7117   -0.6712 C   0  0  0  0  0  0  0  0  0  0  0  0
   -2.3295   -3.4924   -1.8117 C   0  0  0  0  0  0  0  0  0  0  0  0
   -3.2796   -2.7896   -2.5137 C   0  0  0  0  0  0  0  0  0  0  0  0
   -3.5766   -1.6277   -1.8778 O   0  0  0  0  0  0  0  0  0  0  0  0
    5.5649   -1.8079   -2.0333 H   0  0  0  0  0  0  0  0  0  0  0  0
    3.8891   -1.7519   -1.4757 H   0  0  0  0  0  0  0  0  0  0  0  0
    4.8695   -0.2555   -1.5689 H   0  0  0  0  0  0  0  0  0  0  0  0
    6.9999   -2.7717   -0.5022 H   0  0  0  0  0  0  0  0  0  0  0  0
    6.6172   -2.1411    3.7234 H   0  0  0  0  0  0  0  0  0  0  0  0
    4.6504   -0.7622    3.3692 H   0  0  0  0  0  0  0  0  0  0  0  0
    3.2257   -0.0719   -0.0208 H   0  0  0  0  0  0  0  0  0  0  0  0
    1.8731    1.6369    0.2690 H   0  0  0  0  0  0  0  0  0  0  0  0
    1.2021    2.0150    1.8650 H   0  0  0  0  0  0  0  0  0  0  0  0
   -3.8804    2.5001   -2.7210 H   0  0  0  0  0  0  0  0  0  0  0  0
   -4.3086    0.8972   -2.1666 H   0  0  0  0  0  0  0  0  0  0  0  0
   -3.9144    4.3327   -0.2386 H   0  0  0  0  0  0  0  0  0  0  0  0
   -6.0430    4.8763    1.2421 H   0  0  0  0  0  0  0  0  0  0  0  0
   -7.8815    3.0046    0.9791 H   0  0  0  0  0  0  0  0  0  0  0  0
   -4.0123   -0.0727    0.1489 H   0  0  0  0  0  0  0  0  0  0  0  0
   -2.6662   -0.5919    1.1406 H   0  0  0  0  0  0  0  0  0  0  0  0
   -1.3159   -2.9479    0.1136 H   0  0  0  0  0  0  0  0  0  0  0  0
   -1.9117   -4.4507   -2.0881 H   0  0  0  0  0  0  0  0  0  0  0  0
   -3.8183   -2.9709   -3.4334 H   0  0  0  0  0  0  0  0  0  0  0  0
  1  2  1  0
  2  3  2  0
  3  4  1  0
  4  5  1  0
  4  6  2  0
  6  7  1  0
  7  8  2  0
  8  9  1  0
  9 10  1  0
 10 11  2  0
 10 12  1  0
 12 13  1  0
 13 14  1  0
 14 15  2  0
 15 16  1  0
 16 17  2  0
 17 18  1  0
 18 19  1  0
 19 20  2  0
 20 21  1  0
 21 22  2  0
 22 23  1  0
 17 24  1  0
 24 25  1  0
 25 26  1  0
 26 27  2  0
 27 28  1  0
 28 29  2  0
 29 30  1  0
  8  2  1  0
 24 14  1  0
 30 26  1  0
 23 19  1  0
  1 31  1  0
  1 32  1  0
  1 33  1  0
  3 34  1  0
  6 35  1  0
  7 36  1  0
  9 37  1  0
 12 38  1  0
 12 39  1  0
 18 40  1  0
 18 41  1  0
 20 42  1  0
 21 43  1  0
 22 44  1  0
 25 45  1  0
 25 46  1  0
 27 47  1  0
 28 48  1  0
 29 49  1  0
M  END
$$$$
