
     RDKit          3D

 33 34  0  0  0  0  0  0  0  0999 V2000
   -2.0299    3.7734    1.5966 C   0  0  0  0  0  0  0  0  0  0  0  0
   -1.2573    2.5972    1.3544 O   0  0  0  0  0  0  0  0  0  0  0  0
   -0.3019    2.7674    0.4095 C   0  0  0  0  0  0  0  0  0  0  0  0
    0.0339    3.8017   -0.1390 O   0  0  0  0  0  0  0  0  0  0  0  0
    0.4062    1.4935    0.2427 C   0  0  0  0  0  0  0  0  0  0  0  0
    1.7535    1.4863    0.5983 C   0  0  0  0  0  0  0  0  0  0  0  0
    2.4248    0.2891    0.5151 C   0  0  0  0  0  0  0  0  0  0  0  0
    3.7513    0.2999    0.8888 O   0  0  0  0  0  0  0  0  0  0  0  0
    4.3834   -0.9706    0.7667 C   0  0  0  0  0  0  0  0  0  0  0  0
    1.8442   -0.8596    0.1134 N   0  0  0  0  0  0  0  0  0  0  0  0
    0.5349   -0.8322   -0.2457 C   0  0  0  0  0  0  0  0  0  0  0  0
   -0.2150    0.3282   -0.2132 C   0  0  0  0  0  0  0  0  0  0  0  0
   -1.5965    0.2786   -0.7058 C   0  0  0  0  0  0  0  0  0  0  0  0
   -2.1968    1.3188   -0.9558 O   0  0  0  0  0  0  0  0  0  0  0  0
   -2.1373   -0.9809   -0.9157 N   0  0  0  0  0  0  0  0  0  0  0  0
   -3.5287   -1.0534   -1.3247 C   0  0  0  0  0  0  0  0  0  0  0  0
   -1.3895   -2.1477   -0.9966 C   0  0  0  0  0  0  0  0  0  0  0  0
   -1.8906   -3.2123   -1.3628 O   0  0  0  0  0  0  0  0  0  0  0  0
   -0.0535   -2.0435   -0.6623 N   0  0  0  0  0  0  0  0  0  0  0  0
    0.7979   -3.2241   -0.7022 C   0  0  0  0  0  0  0  0  0  0  0  0
   -2.4726    4.1458    0.6672 H   0  0  0  0  0  0  0  0  0  0  0  0
   -2.8398    3.5117    2.2829 H   0  0  0  0  0  0  0  0  0  0  0  0
   -1.4102    4.5431    2.0670 H   0  0  0  0  0  0  0  0  0  0  0  0
    2.2571    2.3843    0.9409 H   0  0  0  0  0  0  0  0  0  0  0  0
    5.4240   -0.8579    1.0869 H   0  0  0  0  0  0  0  0  0  0  0  0
    3.9119   -1.7134    1.4200 H   0  0  0  0  0  0  0  0  0  0  0  0
    4.3901   -1.3105   -0.2749 H   0  0  0  0  0  0  0  0  0  0  0  0
   -3.5702   -1.0228   -2.4181 H   0  0  0  0  0  0  0  0  0  0  0  0
   -4.1028   -0.2143   -0.9210 H   0  0  0  0  0  0  0  0  0  0  0  0
   -3.9838   -1.9868   -0.9796 H   0  0  0  0  0  0  0  0  0  0  0  0
    1.1690   -3.4376    0.3059 H   0  0  0  0  0  0  0  0  0  0  0  0
    1.6377   -3.0461   -1.3819 H   0  0  0  0  0  0  0  0  0  0  0  0
    0.2564   -4.1053   -1.0568 H   0  0  0  0  0  0  0  0  0  0  0  0
  1  2  1  0
  2  3  1  0
  3  4  2  0
  3  5  1  0
  5  6  2  0
  6  7  1  0
  7  8  1  0
  8  9  1  0
  7 10  2  0
 10 11  1  0
 11 12  2  0
 12 13  1  0
 13 14  2  0
 13 15  1  0
 15 16  1  0
 15 17  1  0
 17 18  2  0
 17 19  1  0
 19 20  1  0
 12  5  1  0
 19 11  1  0
  1 21  1  0
  1 22  1  0
  1 23  1  0
  6 24  1  0
  9 25  1  0
  9 26  1  0
  9 27  1  0
 16 28  1  0
 16 29  1  0
 16 30  1  0
 20 31  1  0
 20 32  1  0
 20 33  1  0
M  END
$$$$
