
     RDKit          3D

 37 39  0  0  0  0  0  0  0  0999 V2000
    4.1265    1.1512   -1.6829 N   0  0  0  0  0  0  0  0  0  0  0  0
    4.1905   -0.0059   -0.7999 C   0  0  0  0  0  0  0  0  0  0  0  0
    3.1533    0.0717    0.3213 C   0  0  0  0  0  0  0  0  0  0  0  0
    1.7082   -0.0109   -0.1785 C   0  0  0  0  0  0  0  0  0  0  0  0
    0.7192    0.0273    0.9965 C   0  0  0  0  0  0  0  0  0  0  0  0
   -0.6841   -0.0673    0.5311 N   0  0  0  0  0  0  0  0  0  0  0  0
   -1.2615   -1.3700    0.4671 C   0  0  0  0  0  0  0  0  0  0  0  0
   -0.4763   -2.5460    0.4959 C   0  0  0  0  0  0  0  0  0  0  0  0
   -1.0324   -3.8294    0.4214 C   0  0  0  0  0  0  0  0  0  0  0  0
   -2.4031   -3.9838    0.3108 C   0  0  0  0  0  0  0  0  0  0  0  0
   -3.2088   -2.8525    0.2727 C   0  0  0  0  0  0  0  0  0  0  0  0
   -2.6532   -1.5589    0.3451 C   0  0  0  0  0  0  0  0  0  0  0  0
   -3.8270   -0.2264    0.3101 S   0  0  0  0  0  0  0  0  0  0  0  0
   -2.7793    1.1985    0.1494 C   0  0  0  0  0  0  0  0  0  0  0  0
   -3.4517    2.4121   -0.1015 C   0  0  0  0  0  0  0  0  0  0  0  0
   -2.7523    3.6064   -0.2282 C   0  0  0  0  0  0  0  0  0  0  0  0
   -1.3743    3.5883   -0.1043 C   0  0  0  0  0  0  0  0  0  0  0  0
   -0.4854    5.0539   -0.2661 Cl  0  0  0  0  0  0  0  0  0  0  0  0
   -0.6980    2.3898    0.1471 C   0  0  0  0  0  0  0  0  0  0  0  0
   -1.3755    1.1566    0.2882 C   0  0  0  0  0  0  0  0  0  0  0  0
    3.2568    1.1383   -2.2146 H   0  0  0  0  0  0  0  0  0  0  0  0
    4.8728    1.0889   -2.3753 H   0  0  0  0  0  0  0  0  0  0  0  0
    4.0548   -0.9237   -1.3825 H   0  0  0  0  0  0  0  0  0  0  0  0
    5.1900   -0.0477   -0.3535 H   0  0  0  0  0  0  0  0  0  0  0  0
    3.3385   -0.7557    1.0177 H   0  0  0  0  0  0  0  0  0  0  0  0
    3.2949    0.9991    0.8908 H   0  0  0  0  0  0  0  0  0  0  0  0
    1.5009    0.8133   -0.8683 H   0  0  0  0  0  0  0  0  0  0  0  0
    1.5786   -0.9293   -0.7617 H   0  0  0  0  0  0  0  0  0  0  0  0
    0.9506   -0.7683    1.7166 H   0  0  0  0  0  0  0  0  0  0  0  0
    0.8761    0.9327    1.5971 H   0  0  0  0  0  0  0  0  0  0  0  0
    0.6058   -2.5064    0.5615 H   0  0  0  0  0  0  0  0  0  0  0  0
   -0.3856   -4.7028    0.4461 H   0  0  0  0  0  0  0  0  0  0  0  0
   -2.8449   -4.9745    0.2527 H   0  0  0  0  0  0  0  0  0  0  0  0
   -4.2861   -2.9820    0.1867 H   0  0  0  0  0  0  0  0  0  0  0  0
   -4.5360    2.4290   -0.1983 H   0  0  0  0  0  0  0  0  0  0  0  0
   -3.2849    4.5326   -0.4225 H   0  0  0  0  0  0  0  0  0  0  0  0
    0.3830    2.4517    0.2122 H   0  0  0  0  0  0  0  0  0  0  0  0
  1  2  1  0
  2  3  1  0
  3  4  1  0
  4  5  1  0
  5  6  1  0
  6  7  1  0
  7  8  2  0
  8  9  1  0
  9 10  2  0
 10 11  1  0
 11 12  2  0
 12 13  1  0
 13 14  1  0
 14 15  2  0
 15 16  1  0
 16 17  2  0
 17 18  1  0
 17 19  1  0
 19 20  2  0
 20  6  1  0
 12  7  1  0
 20 14  1  0
  1 21  1  0
  1 22  1  0
  2 23  1  0
  2 24  1  0
  3 25  1  0
  3 26  1  0
  4 27  1  0
  4 28  1  0
  5 29  1  0
  5 30  1  0
  8 31  1  0
  9 32  1  0
 10 33  1  0
 11 34  1  0
 15 35  1  0
 16 36  1  0
 19 37  1  0
M  END
$$$$
