
     RDKit          3D

 36 37  0  0  0  0  0  0  0  0999 V2000
    0.1703   -3.3998    0.5462 O   0  0  0  0  0  0  0  0  0  0  0  0
    0.3885   -2.2613    0.9520 C   0  0  0  0  0  0  0  0  0  0  0  0
    1.6439   -1.9018    1.7538 C   0  0  0  0  0  0  0  0  0  0  0  0
    2.5110   -0.9753    1.0980 O   0  0  0  0  0  0  0  0  0  0  0  0
    2.1507    0.3248    1.1908 C   0  0  0  0  0  0  0  0  0  0  0  0
    1.1430    0.7688    1.7177 O   0  0  0  0  0  0  0  0  0  0  0  0
    3.1114    1.1417    0.4353 C   0  0  0  0  0  0  0  0  0  0  0  0
    2.6209    1.8296   -0.6835 C   0  0  0  0  0  0  0  0  0  0  0  0
    3.4807    2.6187   -1.4475 C   0  0  0  0  0  0  0  0  0  0  0  0
    4.8245    2.7288   -1.0915 C   0  0  0  0  0  0  0  0  0  0  0  0
    5.3109    2.0567    0.0328 C   0  0  0  0  0  0  0  0  0  0  0  0
    4.4551    1.2631    0.8037 C   0  0  0  0  0  0  0  0  0  0  0  0
    5.1782    0.4334    2.3503 Br  0  0  0  0  0  0  0  0  0  0  0  0
   -0.4800   -1.2110    0.7511 N   0  0  0  0  0  0  0  0  0  0  0  0
   -1.7507   -1.3910    0.0775 C   0  0  0  0  0  0  0  0  0  0  0  0
   -2.4373   -0.0592   -0.2329 C   0  0  0  0  0  0  0  0  0  0  0  0
   -3.6587   -0.2301   -0.9962 N   0  0  0  0  0  0  0  0  0  0  0  0
   -4.8623   -0.5744   -0.4338 C   0  0  0  0  0  0  0  0  0  0  0  0
   -4.9391   -0.7203    0.9182 O   0  0  0  0  0  0  0  0  0  0  0  0
   -5.8591   -0.7397   -1.3106 C   0  0  0  0  0  0  0  0  0  0  0  0
   -5.3141   -0.4731   -2.9394 S   0  0  0  0  0  0  0  0  0  0  0  0
   -3.6628   -0.1420   -2.3789 C   0  0  0  0  0  0  0  0  0  0  0  0
   -2.7317    0.1112   -3.1245 O   0  0  0  0  0  0  0  0  0  0  0  0
    1.3540   -1.5395    2.7478 H   0  0  0  0  0  0  0  0  0  0  0  0
    2.2170   -2.8224    1.9091 H   0  0  0  0  0  0  0  0  0  0  0  0
    1.5733    1.7461   -0.9660 H   0  0  0  0  0  0  0  0  0  0  0  0
    3.1032    3.1469   -2.3206 H   0  0  0  0  0  0  0  0  0  0  0  0
    5.4948    3.3444   -1.6876 H   0  0  0  0  0  0  0  0  0  0  0  0
    6.3593    2.1648    0.3019 H   0  0  0  0  0  0  0  0  0  0  0  0
   -0.3005   -0.3463    1.2638 H   0  0  0  0  0  0  0  0  0  0  0  0
   -1.5744   -1.9589   -0.8439 H   0  0  0  0  0  0  0  0  0  0  0  0
   -2.3816   -2.0129    0.7229 H   0  0  0  0  0  0  0  0  0  0  0  0
   -2.6603    0.4880    0.6912 H   0  0  0  0  0  0  0  0  0  0  0  0
   -1.7497    0.5737   -0.8082 H   0  0  0  0  0  0  0  0  0  0  0  0
   -5.8504   -0.9702    1.1482 H   0  0  0  0  0  0  0  0  0  0  0  0
   -6.8782   -1.0112   -1.0790 H   0  0  0  0  0  0  0  0  0  0  0  0
  1  2  2  0
  2  3  1  0
  3  4  1  0
  4  5  1  0
  5  6  2  0
  5  7  1  0
  7  8  2  0
  8  9  1  0
  9 10  2  0
 10 11  1  0
 11 12  2  0
 12 13  1  0
  2 14  1  0
 14 15  1  0
 15 16  1  0
 16 17  1  0
 17 18  1  0
 18 19  1  0
 18 20  2  0
 20 21  1  0
 21 22  1  0
 22 23  2  0
 12  7  1  0
 22 17  1  0
  3 24  1  0
  3 25  1  0
  8 26  1  0
  9 27  1  0
 10 28  1  0
 11 29  1  0
 14 30  1  0
 15 31  1  0
 15 32  1  0
 16 33  1  0
 16 34  1  0
 19 35  1  0
 20 36  1  0
M  END
$$$$
