
     RDKit          3D

 58 59  0  0  0  0  0  0  0  0999 V2000
    8.9119    0.5644   -2.8403 C   0  0  0  0  0  0  0  0  0  0  0  0
    7.6387    0.5462   -2.0090 C   0  0  0  0  0  0  0  0  0  0  0  0
    7.9498    0.5247   -0.5106 C   0  0  0  0  0  0  0  0  0  0  0  0
    6.6822    0.5418    0.3434 C   0  0  0  0  0  0  0  0  0  0  0  0
    5.9424   -0.6531    0.0945 O   0  0  0  0  0  0  0  0  0  0  0  0
    4.7597   -0.8061    0.7624 C   0  0  0  0  0  0  0  0  0  0  0  0
    4.0707   -1.9847    0.4617 C   0  0  0  0  0  0  0  0  0  0  0  0
    2.8449   -2.2732    1.0690 C   0  0  0  0  0  0  0  0  0  0  0  0
    2.2929   -1.3712    1.9842 C   0  0  0  0  0  0  0  0  0  0  0  0
    0.9908   -1.6267    2.6610 C   0  0  0  0  0  0  0  0  0  0  0  0
    0.7339   -1.0954    3.7351 O   0  0  0  0  0  0  0  0  0  0  0  0
    0.1006   -2.4425    1.9924 N   0  0  0  0  0  0  0  0  0  0  0  0
   -1.2623   -2.5810    2.4853 C   0  0  0  0  0  0  0  0  0  0  0  0
   -2.1521   -1.4832    1.9181 C   0  0  0  0  0  0  0  0  0  0  0  0
   -1.9102   -0.8339    0.9051 O   0  0  0  0  0  0  0  0  0  0  0  0
   -3.2925   -1.3694    2.6574 O   0  0  0  0  0  0  0  0  0  0  0  0
   -4.2228   -0.4090    2.1442 C   0  0  0  0  0  0  0  0  0  0  0  0
   -4.8486   -0.8589    0.8195 C   0  0  0  0  0  0  0  0  0  0  0  0
   -4.8479   -2.0533    0.4973 O   0  0  0  0  0  0  0  0  0  0  0  0
   -5.3930    0.1911   -0.1094 C   0  0  0  0  0  0  0  0  0  0  0  0
   -5.4843   -0.0405   -1.4394 C   0  0  0  0  0  0  0  0  0  0  0  0
   -5.1689   -1.2689   -2.0100 N   0  0  0  0  0  0  0  0  0  0  0  0
   -5.9244    0.9789   -2.2798 N   0  0  0  0  0  0  0  0  0  0  0  0
   -6.1372    0.6880   -3.6978 C   0  0  0  0  0  0  0  0  0  0  0  0
   -6.1945    2.2751   -1.8504 C   0  0  0  0  0  0  0  0  0  0  0  0
   -6.5769    3.1624   -2.6155 O   0  0  0  0  0  0  0  0  0  0  0  0
   -6.0235    2.5116   -0.4984 N   0  0  0  0  0  0  0  0  0  0  0  0
   -6.3518    3.8357   -0.0028 C   0  0  0  0  0  0  0  0  0  0  0  0
   -5.8085    1.5093    0.4175 C   0  0  0  0  0  0  0  0  0  0  0  0
   -5.9557    1.6643    1.6293 O   0  0  0  0  0  0  0  0  0  0  0  0
    2.9900   -0.1987    2.2992 C   0  0  0  0  0  0  0  0  0  0  0  0
    4.2168    0.0851    1.6878 C   0  0  0  0  0  0  0  0  0  0  0  0
    8.6677    0.5808   -3.9071 H   0  0  0  0  0  0  0  0  0  0  0  0
    9.5207   -0.3240   -2.6447 H   0  0  0  0  0  0  0  0  0  0  0  0
    9.5143    1.4505   -2.6163 H   0  0  0  0  0  0  0  0  0  0  0  0
    7.0391    1.4313   -2.2510 H   0  0  0  0  0  0  0  0  0  0  0  0
    7.0456   -0.3329   -2.2857 H   0  0  0  0  0  0  0  0  0  0  0  0
    8.5683    1.3912   -0.2495 H   0  0  0  0  0  0  0  0  0  0  0  0
    8.5281   -0.3786   -0.2812 H   0  0  0  0  0  0  0  0  0  0  0  0
    6.0820    1.4238    0.0888 H   0  0  0  0  0  0  0  0  0  0  0  0
    6.9735    0.5845    1.3997 H   0  0  0  0  0  0  0  0  0  0  0  0
    4.4995   -2.6890   -0.2480 H   0  0  0  0  0  0  0  0  0  0  0  0
    2.3538   -3.2129    0.8348 H   0  0  0  0  0  0  0  0  0  0  0  0
    0.2249   -2.5416    0.9926 H   0  0  0  0  0  0  0  0  0  0  0  0
   -1.6423   -3.5490    2.1474 H   0  0  0  0  0  0  0  0  0  0  0  0
   -1.2673   -2.5350    3.5784 H   0  0  0  0  0  0  0  0  0  0  0  0
   -5.0219   -0.3183    2.8860 H   0  0  0  0  0  0  0  0  0  0  0  0
   -3.7166    0.5568    2.0408 H   0  0  0  0  0  0  0  0  0  0  0  0
   -4.4902   -1.1788   -2.7609 H   0  0  0  0  0  0  0  0  0  0  0  0
   -4.8370   -1.9533   -1.3177 H   0  0  0  0  0  0  0  0  0  0  0  0
   -6.7865   -0.1877   -3.8009 H   0  0  0  0  0  0  0  0  0  0  0  0
   -5.1691    0.4972   -4.1721 H   0  0  0  0  0  0  0  0  0  0  0  0
   -6.6149    1.5176   -4.2263 H   0  0  0  0  0  0  0  0  0  0  0  0
   -5.8885    4.0181    0.9714 H   0  0  0  0  0  0  0  0  0  0  0  0
   -7.4394    3.9074    0.1000 H   0  0  0  0  0  0  0  0  0  0  0  0
   -6.0106    4.6038   -0.7036 H   0  0  0  0  0  0  0  0  0  0  0  0
    2.5773    0.5022    3.0229 H   0  0  0  0  0  0  0  0  0  0  0  0
    4.7195    1.0069    1.9610 H   0  0  0  0  0  0  0  0  0  0  0  0
  1  2  1  0
  2  3  1  0
  3  4  1  0
  4  5  1  0
  5  6  1  0
  6  7  2  0
  7  8  1  0
  8  9  2  0
  9 10  1  0
 10 11  2  0
 10 12  1  0
 12 13  1  0
 13 14  1  0
 14 15  2  0
 14 16  1  0
 16 17  1  0
 17 18  1  0
 18 19  2  0
 18 20  1  0
 20 21  2  0
 21 22  1  0
 21 23  1  0
 23 24  1  0
 23 25  1  0
 25 26  2  0
 25 27  1  0
 27 28  1  0
 27 29  1  0
 29 30  2  0
  9 31  1  0
 31 32  2  0
 32  6  1  0
 29 20  1  0
  1 33  1  0
  1 34  1  0
  1 35  1  0
  2 36  1  0
  2 37  1  0
  3 38  1  0
  3 39  1  0
  4 40  1  0
  4 41  1  0
  7 42  1  0
  8 43  1  0
 12 44  1  0
 13 45  1  0
 13 46  1  0
 17 47  1  0
 17 48  1  0
 22 49  1  0
 22 50  1  0
 24 51  1  0
 24 52  1  0
 24 53  1  0
 28 54  1  0
 28 55  1  0
 28 56  1  0
 31 57  1  0
 32 58  1  0
M  END
$$$$
