
     RDKit          3D

 58 60  0  0  0  0  0  0  0  0999 V2000
    7.2945    4.8356   -0.4689 C   0  0  0  0  0  0  0  0  0  0  0  0
    6.2862    4.1309    0.3420 C   0  0  0  0  0  0  0  0  0  0  0  0
    5.6209    2.9358    0.2224 C   0  0  0  0  0  0  0  0  0  0  0  0
    4.7845    2.8784    1.3589 C   0  0  0  0  0  0  0  0  0  0  0  0
    3.8992    1.8985    1.7480 N   0  0  0  0  0  0  0  0  0  0  0  0
    3.6245    0.7499    1.0425 C   0  0  0  0  0  0  0  0  0  0  0  0
    4.1445    0.4134   -0.0186 O   0  0  0  0  0  0  0  0  0  0  0  0
    2.6189   -0.1368    1.7582 C   0  0  0  0  0  0  0  0  0  0  0  0
    1.9383   -1.1050    0.7934 C   0  0  0  0  0  0  0  0  0  0  0  0
    0.9791   -0.3763   -0.1342 C   0  0  0  0  0  0  0  0  0  0  0  0
    0.6995    0.8117    0.0501 O   0  0  0  0  0  0  0  0  0  0  0  0
    0.4062   -1.0923   -1.1717 N   0  0  0  0  0  0  0  0  0  0  0  0
   -0.3664   -0.3504   -2.1803 C   0  0  0  0  0  0  0  0  0  0  0  0
   -1.8386   -0.0937   -1.8300 C   0  0  0  0  0  0  0  0  0  0  0  0
   -2.7253   -0.1691   -2.6799 O   0  0  0  0  0  0  0  0  0  0  0  0
   -2.0554    0.3531   -0.5439 N   0  0  0  0  0  0  0  0  0  0  0  0
   -3.3547    0.8168   -0.1126 C   0  0  0  0  0  0  0  0  0  0  0  0
   -3.3296    1.3603    1.3129 C   0  0  0  0  0  0  0  0  0  0  0  0
   -4.7989    1.3879    1.7135 C   0  0  0  0  0  0  0  0  0  0  0  0
   -5.4643    0.2527    0.9331 C   0  0  0  0  0  0  0  0  0  0  0  0
   -4.3983   -0.2972   -0.0114 C   0  0  0  0  0  0  0  0  0  0  0  0
    0.4142   -2.5527   -1.2862 C   0  0  0  0  0  0  0  0  0  0  0  0
   -0.9053   -3.1814   -0.8981 C   0  0  0  0  0  0  0  0  0  0  0  0
   -1.2105   -3.4392    0.4487 C   0  0  0  0  0  0  0  0  0  0  0  0
   -2.4383   -4.0030    0.8011 C   0  0  0  0  0  0  0  0  0  0  0  0
   -3.3652   -4.3057   -0.1889 C   0  0  0  0  0  0  0  0  0  0  0  0
   -4.5444   -4.8400    0.1524 F   0  0  0  0  0  0  0  0  0  0  0  0
   -3.0872   -4.0570   -1.5264 C   0  0  0  0  0  0  0  0  0  0  0  0
   -1.8584   -3.4976   -1.8819 C   0  0  0  0  0  0  0  0  0  0  0  0
    4.9343    3.9699    2.1194 N   0  0  0  0  0  0  0  0  0  0  0  0
    5.8750    4.7556    1.4773 O   0  0  0  0  0  0  0  0  0  0  0  0
    6.8828    5.7684   -0.8679 H   0  0  0  0  0  0  0  0  0  0  0  0
    8.1740    5.0763    0.1373 H   0  0  0  0  0  0  0  0  0  0  0  0
    7.6218    4.2153   -1.3112 H   0  0  0  0  0  0  0  0  0  0  0  0
    5.7245    2.2180   -0.5754 H   0  0  0  0  0  0  0  0  0  0  0  0
    3.4003    2.1173    2.6001 H   0  0  0  0  0  0  0  0  0  0  0  0
    3.1721   -0.7060    2.5142 H   0  0  0  0  0  0  0  0  0  0  0  0
    1.8773    0.4782    2.2789 H   0  0  0  0  0  0  0  0  0  0  0  0
    2.6863   -1.6378    0.1979 H   0  0  0  0  0  0  0  0  0  0  0  0
    1.3664   -1.8317    1.3771 H   0  0  0  0  0  0  0  0  0  0  0  0
    0.1015    0.6282   -2.3441 H   0  0  0  0  0  0  0  0  0  0  0  0
   -0.3189   -0.8960   -3.1294 H   0  0  0  0  0  0  0  0  0  0  0  0
   -1.2317    0.7364   -0.0801 H   0  0  0  0  0  0  0  0  0  0  0  0
   -3.6972    1.5918   -0.8117 H   0  0  0  0  0  0  0  0  0  0  0  0
   -2.7743    0.6863    1.9785 H   0  0  0  0  0  0  0  0  0  0  0  0
   -2.8610    2.3484    1.3756 H   0  0  0  0  0  0  0  0  0  0  0  0
   -4.9270    1.2752    2.7955 H   0  0  0  0  0  0  0  0  0  0  0  0
   -5.2476    2.3465    1.4249 H   0  0  0  0  0  0  0  0  0  0  0  0
   -5.8381   -0.5332    1.6021 H   0  0  0  0  0  0  0  0  0  0  0  0
   -6.3226    0.6380    0.3679 H   0  0  0  0  0  0  0  0  0  0  0  0
   -3.9552   -1.2031    0.4237 H   0  0  0  0  0  0  0  0  0  0  0  0
   -4.8192   -0.5733   -0.9840 H   0  0  0  0  0  0  0  0  0  0  0  0
    0.6729   -2.8116   -2.3209 H   0  0  0  0  0  0  0  0  0  0  0  0
    1.2020   -2.9950   -0.6695 H   0  0  0  0  0  0  0  0  0  0  0  0
   -0.4980   -3.2048    1.2333 H   0  0  0  0  0  0  0  0  0  0  0  0
   -2.6809   -4.2020    1.8394 H   0  0  0  0  0  0  0  0  0  0  0  0
   -3.8307   -4.2872   -2.2843 H   0  0  0  0  0  0  0  0  0  0  0  0
   -1.6586   -3.2957   -2.9345 H   0  0  0  0  0  0  0  0  0  0  0  0
  1  2  1  0
  2  3  2  0
  3  4  1  0
  4  5  1  0
  5  6  1  0
  6  7  2  0
  6  8  1  0
  8  9  1  0
  9 10  1  0
 10 11  2  0
 10 12  1  0
 12 13  1  0
 13 14  1  0
 14 15  2  0
 14 16  1  0
 16 17  1  0
 17 18  1  0
 18 19  1  0
 19 20  1  0
 20 21  1  0
 12 22  1  0
 22 23  1  0
 23 24  2  0
 24 25  1  0
 25 26  2  0
 26 27  1  0
 26 28  1  0
 28 29  2  0
  4 30  2  0
 30 31  1  0
 31  2  1  0
 21 17  1  0
 29 23  1  0
  1 32  1  0
  1 33  1  0
  1 34  1  0
  3 35  1  0
  5 36  1  0
  8 37  1  0
  8 38  1  0
  9 39  1  0
  9 40  1  0
 13 41  1  0
 13 42  1  0
 16 43  1  0
 17 44  1  0
 18 45  1  0
 18 46  1  0
 19 47  1  0
 19 48  1  0
 20 49  1  0
 20 50  1  0
 21 51  1  0
 21 52  1  0
 22 53  1  0
 22 54  1  0
 24 55  1  0
 25 56  1  0
 28 57  1  0
 29 58  1  0
M  END
$$$$
