
     RDKit          3D

 56 58  0  0  0  0  0  0  0  0999 V2000
    8.8166    2.9077    1.5201 C   0  0  0  0  0  0  0  0  0  0  0  0
    8.9890    1.4942    0.9921 C   0  0  0  0  0  0  0  0  0  0  0  0
    8.1839    0.5774    1.7330 O   0  0  0  0  0  0  0  0  0  0  0  0
    6.9207    0.3095    1.2883 C   0  0  0  0  0  0  0  0  0  0  0  0
    6.2450    0.9707    0.2657 C   0  0  0  0  0  0  0  0  0  0  0  0
    4.9442    0.5879   -0.0917 C   0  0  0  0  0  0  0  0  0  0  0  0
    4.3007   -0.4567    0.5714 C   0  0  0  0  0  0  0  0  0  0  0  0
    2.9998   -0.9067    0.2648 N   0  0  0  0  0  0  0  0  0  0  0  0
    2.1410   -0.4100   -0.7020 C   0  0  0  0  0  0  0  0  0  0  0  0
    2.3502    0.5422   -1.4453 O   0  0  0  0  0  0  0  0  0  0  0  0
    0.8291   -1.1756   -0.7318 C   0  0  0  0  0  0  0  0  0  0  0  0
   -0.0470   -0.7901   -1.9178 C   0  0  0  0  0  0  0  0  0  0  0  0
   -0.5430    0.5882   -1.7600 N   0  0  0  0  0  0  0  0  0  0  0  0
   -1.8568    1.0638   -2.6968 S   0  0  0  0  0  6  0  0  0  0  0  0
   -1.7365    2.4937   -2.8737 O   0  0  0  0  0  0  0  0  0  0  0  0
   -1.9948    0.1611   -3.8159 O   0  0  0  0  0  0  0  0  0  0  0  0
   -3.2073    0.7775   -1.5787 C   0  0  0  0  0  0  0  0  0  0  0  0
   -3.7438    1.8345   -0.8437 C   0  0  0  0  0  0  0  0  0  0  0  0
   -4.8265    1.6052    0.0134 C   0  0  0  0  0  0  0  0  0  0  0  0
   -5.3837    0.3220    0.1483 C   0  0  0  0  0  0  0  0  0  0  0  0
   -4.8313   -0.7190   -0.5989 C   0  0  0  0  0  0  0  0  0  0  0  0
   -3.7563   -0.4990   -1.4738 C   0  0  0  0  0  0  0  0  0  0  0  0
   -5.3821   -2.0757   -0.4620 C   0  0  0  0  0  0  0  0  0  0  0  0
   -4.8836   -2.9873   -1.1173 O   0  0  0  0  0  0  0  0  0  0  0  0
   -6.4385   -2.2346    0.4192 N   0  0  0  0  0  0  0  0  0  0  0  0
   -7.0144   -3.5594    0.5645 C   0  0  0  0  0  0  0  0  0  0  0  0
   -7.0391   -1.2088    1.1405 C   0  0  0  0  0  0  0  0  0  0  0  0
   -8.0157   -1.4212    1.8626 O   0  0  0  0  0  0  0  0  0  0  0  0
   -6.4850    0.0613    1.0065 N   0  0  0  0  0  0  0  0  0  0  0  0
   -7.0856    1.1555    1.7600 C   0  0  0  0  0  0  0  0  0  0  0  0
    4.9772   -1.1105    1.6067 C   0  0  0  0  0  0  0  0  0  0  0  0
    6.2744   -0.7275    1.9611 C   0  0  0  0  0  0  0  0  0  0  0  0
    7.7746    3.2372    1.4572 H   0  0  0  0  0  0  0  0  0  0  0  0
    9.4429    3.6089    0.9610 H   0  0  0  0  0  0  0  0  0  0  0  0
    9.0979    2.9552    2.5778 H   0  0  0  0  0  0  0  0  0  0  0  0
    8.8182    1.4273   -0.0886 H   0  0  0  0  0  0  0  0  0  0  0  0
   10.0320    1.1899    1.1460 H   0  0  0  0  0  0  0  0  0  0  0  0
    6.6888    1.7996   -0.2759 H   0  0  0  0  0  0  0  0  0  0  0  0
    4.4649    1.1347   -0.8974 H   0  0  0  0  0  0  0  0  0  0  0  0
    2.6614   -1.6798    0.8243 H   0  0  0  0  0  0  0  0  0  0  0  0
    0.3008   -0.9923    0.2109 H   0  0  0  0  0  0  0  0  0  0  0  0
    1.0590   -2.2456   -0.7976 H   0  0  0  0  0  0  0  0  0  0  0  0
    0.5179   -0.8636   -2.8538 H   0  0  0  0  0  0  0  0  0  0  0  0
   -0.8892   -1.4882   -1.9600 H   0  0  0  0  0  0  0  0  0  0  0  0
    0.1934    1.3051   -1.7734 H   0  0  0  0  0  0  0  0  0  0  0  0
   -3.3316    2.8384   -0.9321 H   0  0  0  0  0  0  0  0  0  0  0  0
   -5.2152    2.4585    0.5640 H   0  0  0  0  0  0  0  0  0  0  0  0
   -3.3560   -1.3204   -2.0653 H   0  0  0  0  0  0  0  0  0  0  0  0
   -6.3842   -4.3369    0.1258 H   0  0  0  0  0  0  0  0  0  0  0  0
   -7.9902   -3.5695    0.0680 H   0  0  0  0  0  0  0  0  0  0  0  0
   -7.1621   -3.7844    1.6259 H   0  0  0  0  0  0  0  0  0  0  0  0
   -7.4685    1.9078    1.0631 H   0  0  0  0  0  0  0  0  0  0  0  0
   -7.9208    0.8223    2.3820 H   0  0  0  0  0  0  0  0  0  0  0  0
   -6.3343    1.5965    2.4233 H   0  0  0  0  0  0  0  0  0  0  0  0
    4.5123   -1.9248    2.1549 H   0  0  0  0  0  0  0  0  0  0  0  0
    6.7876   -1.2461    2.7674 H   0  0  0  0  0  0  0  0  0  0  0  0
  1  2  1  0
  2  3  1  0
  3  4  1  0
  4  5  2  0
  5  6  1  0
  6  7  2  0
  7  8  1  0
  8  9  1  0
  9 10  2  0
  9 11  1  0
 11 12  1  0
 12 13  1  0
 13 14  1  0
 14 15  2  0
 14 16  2  0
 14 17  1  0
 17 18  2  0
 18 19  1  0
 19 20  2  0
 20 21  1  0
 21 22  2  0
 21 23  1  0
 23 24  2  0
 23 25  1  0
 25 26  1  0
 25 27  1  0
 27 28  2  0
 27 29  1  0
 29 30  1  0
  7 31  1  0
 31 32  2  0
 32  4  1  0
 22 17  1  0
 29 20  1  0
  1 33  1  0
  1 34  1  0
  1 35  1  0
  2 36  1  0
  2 37  1  0
  5 38  1  0
  6 39  1  0
  8 40  1  0
 11 41  1  0
 11 42  1  0
 12 43  1  0
 12 44  1  0
 13 45  1  0
 18 46  1  0
 19 47  1  0
 22 48  1  0
 26 49  1  0
 26 50  1  0
 26 51  1  0
 30 52  1  0
 30 53  1  0
 30 54  1  0
 31 55  1  0
 32 56  1  0
M  END
$$$$
