
     RDKit          3D

 35 36  0  0  0  0  0  0  0  0999 V2000
    6.2361   -0.7298   -0.4585 C   0  0  0  0  0  0  0  0  0  0  0  0
    5.1187   -0.2673    0.4277 C   0  0  0  0  0  0  0  0  0  0  0  0
    5.3960    0.2354    1.6928 C   0  0  0  0  0  0  0  0  0  0  0  0
    4.3358    0.6544    2.4862 C   0  0  0  0  0  0  0  0  0  0  0  0
    3.0348    0.5608    1.9981 C   0  0  0  0  0  0  0  0  0  0  0  0
    2.8381    0.0482    0.7257 C   0  0  0  0  0  0  0  0  0  0  0  0
    1.5926   -0.1003    0.1168 N   0  0  0  0  0  0  0  0  0  0  0  0
    0.3464    0.2143    0.6214 C   0  0  0  0  0  0  0  0  0  0  0  0
    0.1259    0.6934    1.7292 O   0  0  0  0  0  0  0  0  0  0  0  0
   -0.7674   -0.1097   -0.3829 C   0  0  0  0  0  0  0  0  0  0  0  0
   -2.0456    0.2147    0.1389 O   0  0  0  0  0  0  0  0  0  0  0  0
   -3.1376   -0.0227   -0.6531 C   0  0  0  0  0  0  0  0  0  0  0  0
   -3.0917   -0.5627   -1.9425 C   0  0  0  0  0  0  0  0  0  0  0  0
   -4.2697   -0.7648   -2.6665 C   0  0  0  0  0  0  0  0  0  0  0  0
   -5.4999   -0.4296   -2.1091 C   0  0  0  0  0  0  0  0  0  0  0  0
   -5.5561    0.1090   -0.8252 C   0  0  0  0  0  0  0  0  0  0  0  0
   -4.3807    0.3168   -0.0878 C   0  0  0  0  0  0  0  0  0  0  0  0
   -4.4608    0.8993    1.2970 C   0  0  0  0  0  0  0  0  0  0  0  0
    3.8578   -0.3641   -0.0598 N   0  0  0  0  0  0  0  0  0  0  0  0
    6.9238    0.0968   -0.6625 H   0  0  0  0  0  0  0  0  0  0  0  0
    5.8489   -1.0950   -1.4152 H   0  0  0  0  0  0  0  0  0  0  0  0
    6.7858   -1.5459    0.0205 H   0  0  0  0  0  0  0  0  0  0  0  0
    6.4157    0.3015    2.0578 H   0  0  0  0  0  0  0  0  0  0  0  0
    4.5159    1.0528    3.4808 H   0  0  0  0  0  0  0  0  0  0  0  0
    2.2146    0.8900    2.6241 H   0  0  0  0  0  0  0  0  0  0  0  0
    1.6777   -0.4930   -0.8105 H   0  0  0  0  0  0  0  0  0  0  0  0
   -0.7105   -1.1839   -0.5973 H   0  0  0  0  0  0  0  0  0  0  0  0
   -0.5708    0.4777   -1.2882 H   0  0  0  0  0  0  0  0  0  0  0  0
   -2.1571   -0.8388   -2.4175 H   0  0  0  0  0  0  0  0  0  0  0  0
   -4.2260   -1.1849   -3.6681 H   0  0  0  0  0  0  0  0  0  0  0  0
   -6.4157   -0.5870   -2.6728 H   0  0  0  0  0  0  0  0  0  0  0  0
   -6.5235    0.3669   -0.4004 H   0  0  0  0  0  0  0  0  0  0  0  0
   -5.4965    1.1071    1.5860 H   0  0  0  0  0  0  0  0  0  0  0  0
   -4.0470    0.1973    2.0282 H   0  0  0  0  0  0  0  0  0  0  0  0
   -3.9079    1.8430    1.3440 H   0  0  0  0  0  0  0  0  0  0  0  0
  1  2  1  0
  2  3  2  0
  3  4  1  0
  4  5  2  0
  5  6  1  0
  6  7  1  0
  7  8  1  0
  8  9  2  0
  8 10  1  0
 10 11  1  0
 11 12  1  0
 12 13  2  0
 13 14  1  0
 14 15  2  0
 15 16  1  0
 16 17  2  0
 17 18  1  0
  6 19  2  0
 19  2  1  0
 17 12  1  0
  1 20  1  0
  1 21  1  0
  1 22  1  0
  3 23  1  0
  4 24  1  0
  5 25  1  0
  7 26  1  0
 10 27  1  0
 10 28  1  0
 13 29  1  0
 14 30  1  0
 15 31  1  0
 16 32  1  0
 18 33  1  0
 18 34  1  0
 18 35  1  0
M  END
$$$$
