
     RDKit          3D

 47 50  0  0  0  0  0  0  0  0999 V2000
    1.5674    1.9441    1.7301 C   0  0  0  0  0  0  0  0  0  0  0  0
    0.9562    0.5756    1.6329 C   0  0  0  0  0  0  0  0  0  0  0  0
    1.6946   -0.4579    1.9355 N   0  0  0  0  0  0  0  0  0  0  0  0
    1.1827   -1.7636    1.8535 N   0  0  0  0  0  0  0  0  0  0  0  0
    2.1179   -2.8513    2.1565 C   0  0  0  0  0  0  0  0  0  0  0  0
    2.9706   -3.2136    0.9385 C   0  0  0  0  0  0  0  0  0  0  0  0
    3.5314   -4.3017    0.8170 O   0  0  0  0  0  0  0  0  0  0  0  0
    3.1650   -2.1767    0.0612 N   0  0  0  0  0  0  0  0  0  0  0  0
    4.0007   -2.2851   -1.1081 C   0  0  0  0  0  0  0  0  0  0  0  0
    3.9476   -0.9705   -1.8214 C   0  0  0  0  0  0  0  0  0  0  0  0
    2.9895   -0.5158   -2.7123 C   0  0  0  0  0  0  0  0  0  0  0  0
    3.2443    0.8132   -3.1579 C   0  0  0  0  0  0  0  0  0  0  0  0
    4.3963    1.3263   -2.6000 C   0  0  0  0  0  0  0  0  0  0  0  0
    5.1588    0.2136   -1.5475 S   0  0  0  0  0  0  0  0  0  0  0  0
   -0.1036   -2.0974    1.3852 C   0  0  0  0  0  0  0  0  0  0  0  0
   -0.4945   -3.2510    1.2509 O   0  0  0  0  0  0  0  0  0  0  0  0
   -0.9124   -0.9249    1.0773 C   0  0  0  0  0  0  0  0  0  0  0  0
   -2.1860   -0.9246    0.6799 N   0  0  0  0  0  0  0  0  0  0  0  0
   -2.4920    0.3821    0.4534 N   0  0  0  0  0  0  0  0  0  0  0  0
   -3.7392    0.6897   -0.1764 C   0  0  0  0  0  0  0  0  0  0  0  0
   -3.9927    1.9281   -0.7818 C   0  0  0  0  0  0  0  0  0  0  0  0
   -5.2298    2.1750   -1.3859 C   0  0  0  0  0  0  0  0  0  0  0  0
   -6.2157    1.1886   -1.4043 C   0  0  0  0  0  0  0  0  0  0  0  0
   -5.9656   -0.0538   -0.8318 C   0  0  0  0  0  0  0  0  0  0  0  0
   -4.7359   -0.3044   -0.2204 C   0  0  0  0  0  0  0  0  0  0  0  0
   -1.4607    1.2177    0.9013 C   0  0  0  0  0  0  0  0  0  0  0  0
   -1.5731    2.6917    1.0549 C   0  0  0  0  0  0  0  0  0  0  0  0
   -0.4063    0.3707    1.2070 C   0  0  0  0  0  0  0  0  0  0  0  0
    1.3345    2.5275    0.8378 H   0  0  0  0  0  0  0  0  0  0  0  0
    1.1794    2.4494    2.6178 H   0  0  0  0  0  0  0  0  0  0  0  0
    2.6541    1.8716    1.8168 H   0  0  0  0  0  0  0  0  0  0  0  0
    1.5644   -3.7422    2.4712 H   0  0  0  0  0  0  0  0  0  0  0  0
    2.7801   -2.5317    2.9662 H   0  0  0  0  0  0  0  0  0  0  0  0
    2.7847   -1.2696    0.3303 H   0  0  0  0  0  0  0  0  0  0  0  0
    5.0209   -2.5665   -0.7999 H   0  0  0  0  0  0  0  0  0  0  0  0
    3.6103   -3.0962   -1.7385 H   0  0  0  0  0  0  0  0  0  0  0  0
    2.1381   -1.1113   -3.0211 H   0  0  0  0  0  0  0  0  0  0  0  0
    2.6186    1.3620   -3.8531 H   0  0  0  0  0  0  0  0  0  0  0  0
    4.8213    2.3069   -2.7600 H   0  0  0  0  0  0  0  0  0  0  0  0
   -3.2472    2.7134   -0.8356 H   0  0  0  0  0  0  0  0  0  0  0  0
   -5.4196    3.1357   -1.8518 H   0  0  0  0  0  0  0  0  0  0  0  0
   -7.1734    1.3817   -1.8798 H   0  0  0  0  0  0  0  0  0  0  0  0
   -6.7246   -0.8304   -0.8613 H   0  0  0  0  0  0  0  0  0  0  0  0
   -4.5683   -1.2820    0.2290 H   0  0  0  0  0  0  0  0  0  0  0  0
   -0.9391    3.0537    1.8716 H   0  0  0  0  0  0  0  0  0  0  0  0
   -2.5908    3.0005    1.3169 H   0  0  0  0  0  0  0  0  0  0  0  0
   -1.2590    3.2036    0.1404 H   0  0  0  0  0  0  0  0  0  0  0  0
  1  2  1  0
  2  3  2  0
  3  4  1  0
  4  5  1  0
  5  6  1  0
  6  7  2  0
  6  8  1  0
  8  9  1  0
  9 10  1  0
 10 11  2  0
 11 12  1  0
 12 13  2  0
 13 14  1  0
  4 15  1  0
 15 16  2  0
 15 17  1  0
 17 18  2  0
 18 19  1  0
 19 20  1  0
 20 21  2  0
 21 22  1  0
 22 23  2  0
 23 24  1  0
 24 25  2  0
 19 26  1  0
 26 27  1  0
 26 28  2  0
 28  2  1  0
 14 10  1  0
 28 17  1  0
 25 20  1  0
  1 29  1  0
  1 30  1  0
  1 31  1  0
  5 32  1  0
  5 33  1  0
  8 34  1  0
  9 35  1  0
  9 36  1  0
 11 37  1  0
 12 38  1  0
 13 39  1  0
 21 40  1  0
 22 41  1  0
 23 42  1  0
 24 43  1  0
 25 44  1  0
 27 45  1  0
 27 46  1  0
 27 47  1  0
M  END
$$$$
