
     RDKit          3D

 29 30  0  0  0  0  0  0  0  0999 V2000
   -3.4242   -0.6963   -0.4458 C   0  0  0  0  0  0  0  0  0  0  0  0
   -2.2112   -0.1515    0.2538 C   0  0  0  0  0  0  0  0  0  0  0  0
   -1.0284   -0.7817    0.4021 C   0  0  0  0  0  0  0  0  0  0  0  0
   -0.7579   -2.1939   -0.0467 C   0  0  0  0  0  0  0  0  0  0  0  0
    0.1482   -0.0964    1.0724 C   0  0  0  0  0  0  0  0  0  0  0  0
    1.3219    0.1380    0.1343 C   0  0  0  0  0  0  0  0  0  0  0  0
    1.2148    1.0124   -0.9605 C   0  0  0  0  0  0  0  0  0  0  0  0
    2.2974    1.2184   -1.8168 C   0  0  0  0  0  0  0  0  0  0  0  0
    3.5007    0.5536   -1.5918 C   0  0  0  0  0  0  0  0  0  0  0  0
    3.6233   -0.3170   -0.5108 C   0  0  0  0  0  0  0  0  0  0  0  0
    2.5417   -0.5243    0.3477 C   0  0  0  0  0  0  0  0  0  0  0  0
   -0.2413    1.1487    1.7011 N   0  0  0  0  0  0  0  0  0  0  0  0
   -1.4129    1.7848    1.4763 C   0  0  0  0  0  0  0  0  0  0  0  0
   -1.6956    3.3093    2.0736 S   0  0  0  0  0  0  0  0  0  0  0  0
   -2.3542    1.1199    0.7579 N   0  0  0  0  0  0  0  0  0  0  0  0
   -3.2012   -1.5511   -1.0890 H   0  0  0  0  0  0  0  0  0  0  0  0
   -3.8678    0.0687   -1.0934 H   0  0  0  0  0  0  0  0  0  0  0  0
   -4.1775   -1.0017    0.2875 H   0  0  0  0  0  0  0  0  0  0  0  0
   -0.2186   -2.7432    0.7329 H   0  0  0  0  0  0  0  0  0  0  0  0
   -0.1486   -2.1978   -0.9558 H   0  0  0  0  0  0  0  0  0  0  0  0
   -1.6694   -2.7634   -0.2445 H   0  0  0  0  0  0  0  0  0  0  0  0
    0.4788   -0.7273    1.9078 H   0  0  0  0  0  0  0  0  0  0  0  0
    0.2812    1.5398   -1.1481 H   0  0  0  0  0  0  0  0  0  0  0  0
    2.2004    1.8994   -2.6584 H   0  0  0  0  0  0  0  0  0  0  0  0
    4.3435    0.7154   -2.2587 H   0  0  0  0  0  0  0  0  0  0  0  0
    4.5631   -0.8345   -0.3357 H   0  0  0  0  0  0  0  0  0  0  0  0
    2.6592   -1.2081    1.1855 H   0  0  0  0  0  0  0  0  0  0  0  0
    0.4706    1.6740    2.1900 H   0  0  0  0  0  0  0  0  0  0  0  0
   -3.2359    1.6058    0.6329 H   0  0  0  0  0  0  0  0  0  0  0  0
  1  2  1  0
  2  3  2  0
  3  4  1  0
  3  5  1  0
  5  6  1  0
  6  7  2  0
  7  8  1  0
  8  9  2  0
  9 10  1  0
 10 11  2  0
  5 12  1  0
 12 13  1  0
 13 14  2  0
 13 15  1  0
 15  2  1  0
 11  6  1  0
  1 16  1  0
  1 17  1  0
  1 18  1  0
  4 19  1  0
  4 20  1  0
  4 21  1  0
  5 22  1  0
  7 23  1  0
  8 24  1  0
  9 25  1  0
 10 26  1  0
 11 27  1  0
 12 28  1  0
 15 29  1  0
M  END
$$$$
