
     RDKit          3D

 36 37  0  0  0  0  0  0  0  0999 V2000
   -1.0898    2.2646   -0.3255 O   0  0  0  0  0  0  0  0  0  0  0  0
   -0.4293    1.5158    0.3931 C   0  0  0  0  0  0  0  0  0  0  0  0
    0.8242    1.9635    1.1448 C   0  0  0  0  0  0  0  0  0  0  0  0
    1.7311    0.8909    1.4183 O   0  0  0  0  0  0  0  0  0  0  0  0
    2.5290    0.5572    0.3756 C   0  0  0  0  0  0  0  0  0  0  0  0
    2.4667    0.9944   -0.7592 O   0  0  0  0  0  0  0  0  0  0  0  0
    3.4240   -0.5425    0.7745 C   0  0  0  0  0  0  0  0  0  0  0  0
    3.3763   -1.7026   -0.0150 C   0  0  0  0  0  0  0  0  0  0  0  0
    4.1822   -2.7941    0.2980 C   0  0  0  0  0  0  0  0  0  0  0  0
    5.0421   -2.7251    1.3926 C   0  0  0  0  0  0  0  0  0  0  0  0
    5.1091   -1.5611    2.1692 C   0  0  0  0  0  0  0  0  0  0  0  0
    6.2208   -1.5644    3.4954 Cl  0  0  0  0  0  0  0  0  0  0  0  0
    4.3043   -0.4527    1.8627 C   0  0  0  0  0  0  0  0  0  0  0  0
    4.4404    1.0132    2.7811 Cl  0  0  0  0  0  0  0  0  0  0  0  0
   -0.8179    0.2147    0.6492 N   0  0  0  0  0  0  0  0  0  0  0  0
   -1.8900   -0.3950   -0.1148 C   0  0  0  0  0  0  0  0  0  0  0  0
   -3.2682    0.2166    0.1811 C   0  0  0  0  0  0  0  0  0  0  0  0
   -4.0712    0.3378   -1.0177 N   0  0  0  0  0  0  0  0  0  0  0  0
   -4.1656    1.4652   -1.7987 C   0  0  0  0  0  0  0  0  0  0  0  0
   -3.4777    2.6060   -1.5113 O   0  0  0  0  0  0  0  0  0  0  0  0
   -4.9824    1.3433   -2.8491 C   0  0  0  0  0  0  0  0  0  0  0  0
   -5.6721   -0.2472   -2.9403 S   0  0  0  0  0  0  0  0  0  0  0  0
   -4.7980   -0.7491   -1.4843 C   0  0  0  0  0  0  0  0  0  0  0  0
   -4.8419   -1.8742   -1.0129 O   0  0  0  0  0  0  0  0  0  0  0  0
    1.3230    2.7630    0.5847 H   0  0  0  0  0  0  0  0  0  0  0  0
    0.5048    2.3779    2.1065 H   0  0  0  0  0  0  0  0  0  0  0  0
    2.7119   -1.7539   -0.8769 H   0  0  0  0  0  0  0  0  0  0  0  0
    4.1449   -3.6951   -0.3112 H   0  0  0  0  0  0  0  0  0  0  0  0
    5.6708   -3.5810    1.6319 H   0  0  0  0  0  0  0  0  0  0  0  0
   -0.1565   -0.3838    1.1315 H   0  0  0  0  0  0  0  0  0  0  0  0
   -1.6281   -0.2916   -1.1747 H   0  0  0  0  0  0  0  0  0  0  0  0
   -1.8944   -1.4644    0.1219 H   0  0  0  0  0  0  0  0  0  0  0  0
   -3.7944   -0.4403    0.8856 H   0  0  0  0  0  0  0  0  0  0  0  0
   -3.2089    1.1919    0.6762 H   0  0  0  0  0  0  0  0  0  0  0  0
   -2.6328    2.3804   -1.0648 H   0  0  0  0  0  0  0  0  0  0  0  0
   -5.1861    2.1216   -3.5706 H   0  0  0  0  0  0  0  0  0  0  0  0
  1  2  2  0
  2  3  1  0
  3  4  1  0
  4  5  1  0
  5  6  2  0
  5  7  1  0
  7  8  2  0
  8  9  1  0
  9 10  2  0
 10 11  1  0
 11 12  1  0
 11 13  2  0
 13 14  1  0
  2 15  1  0
 15 16  1  0
 16 17  1  0
 17 18  1  0
 18 19  1  0
 19 20  1  0
 19 21  2  0
 21 22  1  0
 22 23  1  0
 23 24  2  0
 13  7  1  0
 23 18  1  0
  3 25  1  0
  3 26  1  0
  8 27  1  0
  9 28  1  0
 10 29  1  0
 15 30  1  0
 16 31  1  0
 16 32  1  0
 17 33  1  0
 17 34  1  0
 20 35  1  0
 21 36  1  0
M  END
$$$$
