
     RDKit          3D

 59 62  0  0  0  0  0  0  0  0999 V2000
    8.1650    0.0917    3.4660 C   0  0  0  0  0  0  0  0  0  0  0  0
    7.4171    0.9291    2.6021 O   0  0  0  0  0  0  0  0  0  0  0  0
    6.2724    0.4043    2.0664 C   0  0  0  0  0  0  0  0  0  0  0  0
    5.8493   -0.9240    2.1757 C   0  0  0  0  0  0  0  0  0  0  0  0
    4.6464   -1.3320    1.5857 C   0  0  0  0  0  0  0  0  0  0  0  0
    3.8651   -0.4135    0.8838 C   0  0  0  0  0  0  0  0  0  0  0  0
    2.5853   -0.7954    0.2892 C   0  0  0  0  0  0  0  0  0  0  0  0
    1.8190    0.1095   -0.3524 C   0  0  0  0  0  0  0  0  0  0  0  0
    0.4675   -0.1546   -0.9537 C   0  0  0  0  0  0  0  0  0  0  0  0
   -0.2592   -1.2407   -0.2748 N   0  0  0  0  0  0  0  0  0  0  0  0
   -0.4646   -2.5112   -1.0118 C   0  0  0  0  0  0  0  0  0  0  0  0
   -1.6272   -2.5542   -2.0106 C   0  0  0  0  0  0  0  0  0  0  0  0
   -1.6201   -1.5443   -3.1463 C   0  0  0  0  0  0  0  0  0  0  0  0
   -3.0179   -1.7274   -3.6867 C   0  0  0  0  0  0  0  0  0  0  0  0
   -3.8336   -1.9944   -2.4325 C   0  0  0  0  0  0  0  0  0  0  0  0
   -2.9134   -2.3969   -1.3991 O   0  0  0  0  0  0  0  0  0  0  0  0
   -1.0291   -0.9555    1.2004 S   0  0  0  0  0  6  0  0  0  0  0  0
   -1.5300   -2.2132    1.7166 O   0  0  0  0  0  0  0  0  0  0  0  0
   -0.1470   -0.1385    2.0141 O   0  0  0  0  0  0  0  0  0  0  0  0
   -2.4287    0.0827    0.8142 C   0  0  0  0  0  0  0  0  0  0  0  0
   -2.2531    1.4733    0.7391 C   0  0  0  0  0  0  0  0  0  0  0  0
   -3.3554    2.3057    0.4906 C   0  0  0  0  0  0  0  0  0  0  0  0
   -4.6324    1.7535    0.3268 C   0  0  0  0  0  0  0  0  0  0  0  0
   -5.8280    2.5907    0.0199 C   0  0  0  0  0  0  0  0  0  0  0  0
   -5.6685    4.0842   -0.0857 C   0  0  0  0  0  0  0  0  0  0  0  0
   -6.9201    2.0610   -0.1389 O   0  0  0  0  0  0  0  0  0  0  0  0
   -4.8046    0.3666    0.4570 C   0  0  0  0  0  0  0  0  0  0  0  0
   -3.7104   -0.4659    0.7178 C   0  0  0  0  0  0  0  0  0  0  0  0
    2.2955    1.5268   -0.4808 C   0  0  0  0  0  0  0  0  0  0  0  0
    1.6212    2.3829   -1.0537 O   0  0  0  0  0  0  0  0  0  0  0  0
    3.5088    1.8329    0.0701 N   0  0  0  0  0  0  0  0  0  0  0  0
    4.3016    0.9102    0.7649 C   0  0  0  0  0  0  0  0  0  0  0  0
    5.5005    1.3174    1.3473 C   0  0  0  0  0  0  0  0  0  0  0  0
    9.0118    0.6808    3.8363 H   0  0  0  0  0  0  0  0  0  0  0  0
    8.5632   -0.7769    2.9318 H   0  0  0  0  0  0  0  0  0  0  0  0
    7.5696   -0.2203    4.3301 H   0  0  0  0  0  0  0  0  0  0  0  0
    6.4195   -1.6655    2.7288 H   0  0  0  0  0  0  0  0  0  0  0  0
    4.3228   -2.3676    1.6920 H   0  0  0  0  0  0  0  0  0  0  0  0
    2.2534   -1.8189    0.4246 H   0  0  0  0  0  0  0  0  0  0  0  0
   -0.1690    0.7370   -0.9594 H   0  0  0  0  0  0  0  0  0  0  0  0
    0.6331   -0.4085   -2.0074 H   0  0  0  0  0  0  0  0  0  0  0  0
    0.4712   -2.7476   -1.5378 H   0  0  0  0  0  0  0  0  0  0  0  0
   -0.5929   -3.3248   -0.2844 H   0  0  0  0  0  0  0  0  0  0  0  0
   -1.6265   -3.5648   -2.4473 H   0  0  0  0  0  0  0  0  0  0  0  0
   -0.8357   -1.7296   -3.8887 H   0  0  0  0  0  0  0  0  0  0  0  0
   -1.5290   -0.5126   -2.7782 H   0  0  0  0  0  0  0  0  0  0  0  0
   -3.3823   -0.8673   -4.2469 H   0  0  0  0  0  0  0  0  0  0  0  0
   -3.0559   -2.5937   -4.3463 H   0  0  0  0  0  0  0  0  0  0  0  0
   -4.3508   -1.0945   -2.1029 H   0  0  0  0  0  0  0  0  0  0  0  0
   -4.5778   -2.7834   -2.5830 H   0  0  0  0  0  0  0  0  0  0  0  0
   -1.2619    1.9232    0.8769 H   0  0  0  0  0  0  0  0  0  0  0  0
   -3.1836    3.3792    0.4330 H   0  0  0  0  0  0  0  0  0  0  0  0
   -5.3054    4.4946    0.8604 H   0  0  0  0  0  0  0  0  0  0  0  0
   -6.6485    4.5352   -0.2982 H   0  0  0  0  0  0  0  0  0  0  0  0
   -4.9842    4.3376   -0.9050 H   0  0  0  0  0  0  0  0  0  0  0  0
   -5.7917   -0.0788    0.3448 H   0  0  0  0  0  0  0  0  0  0  0  0
   -3.8677   -1.5393    0.8240 H   0  0  0  0  0  0  0  0  0  0  0  0
    3.8089    2.7924   -0.0255 H   0  0  0  0  0  0  0  0  0  0  0  0
    5.8378    2.3532    1.2703 H   0  0  0  0  0  0  0  0  0  0  0  0
  1  2  1  0
  2  3  1  0
  3  4  2  0
  4  5  1  0
  5  6  2  0
  6  7  1  0
  7  8  2  0
  8  9  1  0
  9 10  1  0
 10 11  1  0
 11 12  1  0
 12 13  1  0
 13 14  1  0
 14 15  1  0
 15 16  1  0
 10 17  1  0
 17 18  2  0
 17 19  2  0
 17 20  1  0
 20 21  2  0
 21 22  1  0
 22 23  2  0
 23 24  1  0
 24 25  1  0
 24 26  2  0
 23 27  1  0
 27 28  2  0
  8 29  1  0
 29 30  2  0
 29 31  1  0
 31 32  1  0
 32 33  2  0
 33  3  1  0
 32  6  1  0
 16 12  1  0
 28 20  1  0
  1 34  1  0
  1 35  1  0
  1 36  1  0
  4 37  1  0
  5 38  1  0
  7 39  1  0
  9 40  1  0
  9 41  1  0
 11 42  1  0
 11 43  1  0
 12 44  1  0
 13 45  1  0
 13 46  1  0
 14 47  1  0
 14 48  1  0
 15 49  1  0
 15 50  1  0
 21 51  1  0
 22 52  1  0
 25 53  1  0
 25 54  1  0
 25 55  1  0
 27 56  1  0
 28 57  1  0
 31 58  1  0
 33 59  1  0
M  END
$$$$
