
     RDKit          3D

 34 35  0  0  0  0  0  0  0  0999 V2000
    2.2322    2.7439    0.9209 C   0  0  0  0  0  0  0  0  0  0  0  0
    2.4793    1.2542    0.7810 C   0  0  0  0  0  0  0  0  0  0  0  0
    1.5433    0.3991    0.4785 N   0  0  0  0  0  0  0  0  0  0  0  0
    0.2756    0.8257    0.2186 N   0  0  0  0  0  0  0  0  0  0  0  0
   -0.7196   -0.1133   -0.0604 C   0  0  0  0  0  0  0  0  0  0  0  0
   -0.5522   -1.3268   -0.0167 O   0  0  0  0  0  0  0  0  0  0  0  0
   -2.0365    0.5709   -0.3813 C   0  0  0  0  0  0  0  0  0  0  0  0
   -3.1476   -0.3505   -0.8834 C   0  0  0  0  0  0  0  0  0  0  0  0
   -4.4159    0.4814   -1.1141 C   0  0  0  0  0  0  0  0  0  0  0  0
   -3.4698   -1.3592    0.0790 O   0  0  0  0  0  0  0  0  0  0  0  0
   -3.6519   -2.5471   -0.6913 C   0  0  0  0  0  0  0  0  0  0  0  0
   -2.7830   -2.3482   -1.9064 C   0  0  0  0  0  0  0  0  0  0  0  0
   -2.8130   -0.9397   -2.1477 O   0  0  0  0  0  0  0  0  0  0  0  0
    3.8249    0.7118    0.9579 C   0  0  0  0  0  0  0  0  0  0  0  0
    4.1795   -0.6254    1.0422 C   0  0  0  0  0  0  0  0  0  0  0  0
    5.5815   -0.8208    1.1990 C   0  0  0  0  0  0  0  0  0  0  0  0
    6.2638    0.3731    1.2197 C   0  0  0  0  0  0  0  0  0  0  0  0
    5.2158    1.7104    1.0458 S   0  0  0  0  0  0  0  0  0  0  0  0
    1.2592    2.9329    1.3827 H   0  0  0  0  0  0  0  0  0  0  0  0
    2.2539    3.2043   -0.0710 H   0  0  0  0  0  0  0  0  0  0  0  0
    2.9730    3.2292    1.5594 H   0  0  0  0  0  0  0  0  0  0  0  0
    0.0865    1.8125    0.1009 H   0  0  0  0  0  0  0  0  0  0  0  0
   -1.8302    1.3366   -1.1402 H   0  0  0  0  0  0  0  0  0  0  0  0
   -2.3588    1.0682    0.5425 H   0  0  0  0  0  0  0  0  0  0  0  0
   -5.2298   -0.1479   -1.4928 H   0  0  0  0  0  0  0  0  0  0  0  0
   -4.2469    1.2673   -1.8582 H   0  0  0  0  0  0  0  0  0  0  0  0
   -4.7680    0.9370   -0.1825 H   0  0  0  0  0  0  0  0  0  0  0  0
   -3.3829   -3.4319   -0.1088 H   0  0  0  0  0  0  0  0  0  0  0  0
   -4.7099   -2.6132   -0.9671 H   0  0  0  0  0  0  0  0  0  0  0  0
   -3.1478   -2.8920   -2.7820 H   0  0  0  0  0  0  0  0  0  0  0  0
   -1.7482   -2.6491   -1.7227 H   0  0  0  0  0  0  0  0  0  0  0  0
    3.4526   -1.4300    0.9930 H   0  0  0  0  0  0  0  0  0  0  0  0
    6.0611   -1.7879    1.2876 H   0  0  0  0  0  0  0  0  0  0  0  0
    7.3296    0.5245    1.3233 H   0  0  0  0  0  0  0  0  0  0  0  0
  1  2  1  0
  2  3  2  3
  3  4  1  0
  4  5  1  0
  5  6  2  0
  5  7  1  0
  7  8  1  0
  8  9  1  0
  8 10  1  0
 10 11  1  0
 11 12  1  0
 12 13  1  0
  2 14  1  0
 14 15  2  0
 15 16  1  0
 16 17  2  0
 17 18  1  0
 13  8  1  0
 18 14  1  0
  1 19  1  0
  1 20  1  0
  1 21  1  0
  4 22  1  0
  7 23  1  0
  7 24  1  0
  9 25  1  0
  9 26  1  0
  9 27  1  0
 11 28  1  0
 11 29  1  0
 12 30  1  0
 12 31  1  0
 15 32  1  0
 16 33  1  0
 17 34  1  0
M  END
$$$$
