
     RDKit          3D

 35 36  0  0  0  0  0  0  0  0999 V2000
   -6.1112    0.8777   -0.2517 C   0  0  0  0  0  0  0  0  0  0  0  0
   -5.0538    0.6136   -1.2913 C   0  0  0  0  0  0  0  0  0  0  0  0
   -5.3346    0.5674   -2.4873 O   0  0  0  0  0  0  0  0  0  0  0  0
   -3.6435    0.3970   -0.8508 C   0  0  0  0  0  0  0  0  0  0  0  0
   -3.2891    0.3041    0.5007 C   0  0  0  0  0  0  0  0  0  0  0  0
   -1.9533    0.1003    0.8625 C   0  0  0  0  0  0  0  0  0  0  0  0
   -0.9724   -0.0222   -0.1207 C   0  0  0  0  0  0  0  0  0  0  0  0
    0.3976   -0.1829    0.2622 N   0  0  0  0  0  0  0  0  0  0  0  0
    1.2153    1.2787    0.5933 S   0  0  0  0  0  6  0  0  0  0  0  0
    1.7174    1.7665   -0.6748 O   0  0  0  0  0  0  0  0  0  0  0  0
    0.3752    2.1085    1.4324 O   0  0  0  0  0  0  0  0  0  0  0  0
    2.5914    0.7176    1.6065 C   0  0  0  0  0  0  0  0  0  0  0  0
    3.3429   -0.3998    0.9262 C   0  0  0  0  0  0  0  0  0  0  0  0
    4.2491   -0.1279   -0.1101 C   0  0  0  0  0  0  0  0  0  0  0  0
    4.9365   -1.1667   -0.7422 C   0  0  0  0  0  0  0  0  0  0  0  0
    4.7261   -2.4830   -0.3397 C   0  0  0  0  0  0  0  0  0  0  0  0
    5.5710   -3.7622   -1.1194 Cl  0  0  0  0  0  0  0  0  0  0  0  0
    3.8331   -2.7697    0.6899 C   0  0  0  0  0  0  0  0  0  0  0  0
    3.1445   -1.7318    1.3223 C   0  0  0  0  0  0  0  0  0  0  0  0
   -1.3124    0.0876   -1.4679 C   0  0  0  0  0  0  0  0  0  0  0  0
   -2.6469    0.2874   -1.8316 C   0  0  0  0  0  0  0  0  0  0  0  0
   -7.0539    1.1201   -0.7522 H   0  0  0  0  0  0  0  0  0  0  0  0
   -6.2670   -0.0133    0.3618 H   0  0  0  0  0  0  0  0  0  0  0  0
   -5.8324    1.7345    0.3672 H   0  0  0  0  0  0  0  0  0  0  0  0
   -4.0271    0.3915    1.2924 H   0  0  0  0  0  0  0  0  0  0  0  0
   -1.6821    0.0468    1.9137 H   0  0  0  0  0  0  0  0  0  0  0  0
    0.9322   -0.6778   -0.4579 H   0  0  0  0  0  0  0  0  0  0  0  0
    2.1835    0.4011    2.5720 H   0  0  0  0  0  0  0  0  0  0  0  0
    3.2454    1.5782    1.7804 H   0  0  0  0  0  0  0  0  0  0  0  0
    4.4233    0.8958   -0.4408 H   0  0  0  0  0  0  0  0  0  0  0  0
    5.6328   -0.9411   -1.5462 H   0  0  0  0  0  0  0  0  0  0  0  0
    3.6703   -3.7971    1.0057 H   0  0  0  0  0  0  0  0  0  0  0  0
    2.4501   -1.9745    2.1255 H   0  0  0  0  0  0  0  0  0  0  0  0
   -0.5532    0.0321   -2.2435 H   0  0  0  0  0  0  0  0  0  0  0  0
   -2.9048    0.3697   -2.8865 H   0  0  0  0  0  0  0  0  0  0  0  0
  1  2  1  0
  2  3  2  0
  2  4  1  0
  4  5  2  0
  5  6  1  0
  6  7  2  0
  7  8  1  0
  8  9  1  0
  9 10  2  0
  9 11  2  0
  9 12  1  0
 12 13  1  0
 13 14  2  0
 14 15  1  0
 15 16  2  0
 16 17  1  0
 16 18  1  0
 18 19  2  0
  7 20  1  0
 20 21  2  0
 21  4  1  0
 19 13  1  0
  1 22  1  0
  1 23  1  0
  1 24  1  0
  5 25  1  0
  6 26  1  0
  8 27  1  0
 12 28  1  0
 12 29  1  0
 14 30  1  0
 15 31  1  0
 18 32  1  0
 19 33  1  0
 20 34  1  0
 21 35  1  0
M  END
$$$$
