
     RDKit          3D

 42 43  0  0  0  0  0  0  0  0999 V2000
   -4.6977   -1.5999    1.4213 C   0  0  0  0  0  0  0  0  0  0  0  0
   -4.2291   -1.0120    0.1281 C   0  0  0  0  0  0  0  0  0  0  0  0
   -3.5816    0.1578   -0.0620 C   0  0  0  0  0  0  0  0  0  0  0  0
   -3.3079    1.1336    1.0499 C   0  0  0  0  0  0  0  0  0  0  0  0
   -3.1729    0.5886   -1.4644 C   0  0  0  0  0  0  0  0  0  0  0  0
   -1.7558    0.5268   -1.8083 N   0  0  0  0  0  0  0  0  0  0  0  0
   -1.1101   -0.7737   -1.5803 C   0  0  0  0  0  0  0  0  0  0  0  0
   -0.1182   -0.8197   -0.3942 C   0  0  0  0  0  0  0  0  0  0  0  0
    0.9075    0.2345   -0.5032 N   0  0  0  0  0  0  0  0  0  0  0  0
    2.1708    0.0617    0.0384 C   0  0  0  0  0  0  0  0  0  0  0  0
    3.2884    0.7690   -0.4305 C   0  0  0  0  0  0  0  0  0  0  0  0
    4.5663    0.5957    0.1202 C   0  0  0  0  0  0  0  0  0  0  0  0
    4.7720   -0.3043    1.1651 C   0  0  0  0  0  0  0  0  0  0  0  0
    6.1285   -0.4675    1.7803 C   0  0  0  0  0  0  0  0  0  0  0  0
    3.6741   -1.0046    1.6629 C   0  0  0  0  0  0  0  0  0  0  0  0
    2.4015   -0.8243    1.1030 C   0  0  0  0  0  0  0  0  0  0  0  0
    0.5760    1.3872   -1.3562 C   0  0  0  0  0  0  0  0  0  0  0  0
   -0.9473    1.6596   -1.3411 C   0  0  0  0  0  0  0  0  0  0  0  0
   -5.7911   -1.5917    1.4601 H   0  0  0  0  0  0  0  0  0  0  0  0
   -4.3624   -2.6399    1.4903 H   0  0  0  0  0  0  0  0  0  0  0  0
   -4.3129   -1.0787    2.3007 H   0  0  0  0  0  0  0  0  0  0  0  0
   -4.4308   -1.6408   -0.7391 H   0  0  0  0  0  0  0  0  0  0  0  0
   -4.0065    1.0248    1.8844 H   0  0  0  0  0  0  0  0  0  0  0  0
   -2.2931    1.0042    1.4362 H   0  0  0  0  0  0  0  0  0  0  0  0
   -3.4214    2.1638    0.6957 H   0  0  0  0  0  0  0  0  0  0  0  0
   -3.7072   -0.0296   -2.1992 H   0  0  0  0  0  0  0  0  0  0  0  0
   -3.5555    1.6014   -1.6501 H   0  0  0  0  0  0  0  0  0  0  0  0
   -0.5453   -1.0073   -2.4931 H   0  0  0  0  0  0  0  0  0  0  0  0
   -1.8402   -1.5859   -1.4858 H   0  0  0  0  0  0  0  0  0  0  0  0
   -0.6573   -0.7033    0.5527 H   0  0  0  0  0  0  0  0  0  0  0  0
    0.3450   -1.8141   -0.4000 H   0  0  0  0  0  0  0  0  0  0  0  0
    3.1938    1.4644   -1.2592 H   0  0  0  0  0  0  0  0  0  0  0  0
    5.3968    1.1703   -0.2828 H   0  0  0  0  0  0  0  0  0  0  0  0
    6.9166   -0.3036    1.0378 H   0  0  0  0  0  0  0  0  0  0  0  0
    6.2596   -1.4810    2.1739 H   0  0  0  0  0  0  0  0  0  0  0  0
    6.2579    0.2488    2.5974 H   0  0  0  0  0  0  0  0  0  0  0  0
    3.7922   -1.6953    2.4943 H   0  0  0  0  0  0  0  0  0  0  0  0
    1.5783   -1.3806    1.5424 H   0  0  0  0  0  0  0  0  0  0  0  0
    0.9163    1.2004   -2.3822 H   0  0  0  0  0  0  0  0  0  0  0  0
    1.0718    2.2950   -0.9918 H   0  0  0  0  0  0  0  0  0  0  0  0
   -1.1571    2.5287   -1.9753 H   0  0  0  0  0  0  0  0  0  0  0  0
   -1.2118    1.9414   -0.3181 H   0  0  0  0  0  0  0  0  0  0  0  0
  1  2  1  0
  2  3  2  3
  3  4  1  0
  3  5  1  0
  5  6  1  0
  6  7  1  0
  7  8  1  0
  8  9  1  0
  9 10  1  0
 10 11  2  0
 11 12  1  0
 12 13  2  0
 13 14  1  0
 13 15  1  0
 15 16  2  0
  9 17  1  0
 17 18  1  0
 18  6  1  0
 16 10  1  0
  1 19  1  0
  1 20  1  0
  1 21  1  0
  2 22  1  0
  4 23  1  0
  4 24  1  0
  4 25  1  0
  5 26  1  0
  5 27  1  0
  7 28  1  0
  7 29  1  0
  8 30  1  0
  8 31  1  0
 11 32  1  0
 12 33  1  0
 14 34  1  0
 14 35  1  0
 14 36  1  0
 15 37  1  0
 16 38  1  0
 17 39  1  0
 17 40  1  0
 18 41  1  0
 18 42  1  0
M  END
$$$$
