
     RDKit          3D

 62 67  0  0  0  0  0  0  0  0999 V2000
   -1.7762   -3.1146   -1.4834 C   0  0  0  0  0  0  0  0  0  0  0  0
   -2.6225   -2.2886   -0.6948 O   0  0  0  0  0  0  0  0  0  0  0  0
   -2.5836   -2.4787    0.6644 C   0  0  0  0  0  0  0  0  0  0  0  0
   -2.0855   -3.6351    1.2773 C   0  0  0  0  0  0  0  0  0  0  0  0
   -2.1004   -3.7641    2.6687 C   0  0  0  0  0  0  0  0  0  0  0  0
   -2.6179   -2.7442    3.4612 C   0  0  0  0  0  0  0  0  0  0  0  0
   -3.1243   -1.5917    2.8627 C   0  0  0  0  0  0  0  0  0  0  0  0
   -3.1160   -1.4473    1.4646 C   0  0  0  0  0  0  0  0  0  0  0  0
   -3.6327   -0.2028    0.8752 C   0  0  0  0  0  0  0  0  0  0  0  0
   -5.3237    0.0435    0.8566 S   0  0  0  0  0  0  0  0  0  0  0  0
   -5.1871    1.5643    0.0664 C   0  0  0  0  0  0  0  0  0  0  0  0
   -6.2545    2.4125   -0.3030 C   0  0  0  0  0  0  0  0  0  0  0  0
   -5.9164    3.5954   -0.9270 C   0  0  0  0  0  0  0  0  0  0  0  0
   -4.6179    3.9427   -1.1803 C   0  0  0  0  0  0  0  0  0  0  0  0
   -3.5591    3.1291   -0.8276 C   0  0  0  0  0  0  0  0  0  0  0  0
   -3.8449    1.8922   -0.1843 C   0  0  0  0  0  0  0  0  0  0  0  0
   -2.9539    0.8549    0.2914 C   0  0  0  0  0  0  0  0  0  0  0  0
   -1.4985    0.8640    0.1812 C   0  0  0  0  0  0  0  0  0  0  0  0
   -0.6994    1.0229    1.3160 C   0  0  0  0  0  0  0  0  0  0  0  0
    0.6921    1.0293    1.1932 C   0  0  0  0  0  0  0  0  0  0  0  0
    1.2997    0.8811   -0.0566 C   0  0  0  0  0  0  0  0  0  0  0  0
    2.6661    0.9056   -0.0307 O   0  0  0  0  0  0  0  0  0  0  0  0
    3.3477    0.6750   -1.2642 C   0  0  0  0  0  0  0  0  0  0  0  0
    4.8701    0.6860   -1.0222 C   0  0  0  0  0  0  0  0  0  0  0  0
    5.3774   -0.3651   -0.1164 N   0  0  0  0  0  0  0  0  0  0  0  0
    6.8163   -0.1554    0.1555 C   0  0  0  0  0  0  0  0  0  0  0  0
    7.3886   -1.2587    1.0584 C   0  0  0  0  0  0  0  0  0  0  0  0
    7.2015   -2.5531    0.4711 O   0  0  0  0  0  0  0  0  0  0  0  0
    5.8037   -2.7923    0.2630 C   0  0  0  0  0  0  0  0  0  0  0  0
    5.1849   -1.7259   -0.6569 C   0  0  0  0  0  0  0  0  0  0  0  0
    0.5015    0.7315   -1.1911 C   0  0  0  0  0  0  0  0  0  0  0  0
   -0.8928    0.7231   -1.0722 C   0  0  0  0  0  0  0  0  0  0  0  0
   -4.5120    5.1493   -1.8005 O   0  0  0  0  0  0  0  0  0  0  0  0
   -5.9011    5.5219   -1.9071 C   0  0  0  0  0  0  0  0  0  0  0  0
   -6.7999    4.5386   -1.3548 O   0  0  0  0  0  0  0  0  0  0  0  0
   -0.7407   -3.0857   -1.1272 H   0  0  0  0  0  0  0  0  0  0  0  0
   -2.1551   -4.1412   -1.5187 H   0  0  0  0  0  0  0  0  0  0  0  0
   -1.7864   -2.7227   -2.5048 H   0  0  0  0  0  0  0  0  0  0  0  0
   -1.6886   -4.4612    0.6969 H   0  0  0  0  0  0  0  0  0  0  0  0
   -1.7101   -4.6664    3.1332 H   0  0  0  0  0  0  0  0  0  0  0  0
   -2.6291   -2.8452    4.5432 H   0  0  0  0  0  0  0  0  0  0  0  0
   -3.5233   -0.7985    3.4913 H   0  0  0  0  0  0  0  0  0  0  0  0
   -7.2865    2.1477   -0.1057 H   0  0  0  0  0  0  0  0  0  0  0  0
   -2.5379    3.4312   -1.0354 H   0  0  0  0  0  0  0  0  0  0  0  0
   -1.1491    1.1394    2.2986 H   0  0  0  0  0  0  0  0  0  0  0  0
    1.3097    1.1475    2.0802 H   0  0  0  0  0  0  0  0  0  0  0  0
    3.0378   -0.2765   -1.7096 H   0  0  0  0  0  0  0  0  0  0  0  0
    3.1123    1.4870   -1.9632 H   0  0  0  0  0  0  0  0  0  0  0  0
    5.3813    0.6304   -1.9919 H   0  0  0  0  0  0  0  0  0  0  0  0
    5.1152    1.6599   -0.5785 H   0  0  0  0  0  0  0  0  0  0  0  0
    7.3752   -0.1466   -0.7895 H   0  0  0  0  0  0  0  0  0  0  0  0
    6.9668    0.8123    0.6476 H   0  0  0  0  0  0  0  0  0  0  0  0
    8.4649   -1.1083    1.1897 H   0  0  0  0  0  0  0  0  0  0  0  0
    6.9263   -1.2405    2.0528 H   0  0  0  0  0  0  0  0  0  0  0  0
    5.2929   -2.8249    1.2331 H   0  0  0  0  0  0  0  0  0  0  0  0
    5.7031   -3.7804   -0.1977 H   0  0  0  0  0  0  0  0  0  0  0  0
    4.1188   -1.9521   -0.7598 H   0  0  0  0  0  0  0  0  0  0  0  0
    5.6482   -1.8007   -1.6492 H   0  0  0  0  0  0  0  0  0  0  0  0
    0.9273    0.6197   -2.1819 H   0  0  0  0  0  0  0  0  0  0  0  0
   -1.5051    0.5942   -1.9622 H   0  0  0  0  0  0  0  0  0  0  0  0
   -6.1457    5.6655   -2.9659 H   0  0  0  0  0  0  0  0  0  0  0  0
   -6.0517    6.4708   -1.3794 H   0  0  0  0  0  0  0  0  0  0  0  0
  1  2  1  0
  2  3  1  0
  3  4  2  0
  4  5  1  0
  5  6  2  0
  6  7  1  0
  7  8  2  0
  8  9  1  0
  9 10  1  0
 10 11  1  0
 11 12  2  0
 12 13  1  0
 13 14  2  0
 14 15  1  0
 15 16  2  0
 16 17  1  0
 17 18  1  0
 18 19  2  0
 19 20  1  0
 20 21  2  0
 21 22  1  0
 22 23  1  0
 23 24  1  0
 24 25  1  0
 25 26  1  0
 26 27  1  0
 27 28  1  0
 28 29  1  0
 29 30  1  0
 21 31  1  0
 31 32  2  0
 14 33  1  0
 33 34  1  0
 34 35  1  0
  8  3  1  0
 17  9  2  0
 32 18  1  0
 16 11  1  0
 30 25  1  0
 35 13  1  0
  1 36  1  0
  1 37  1  0
  1 38  1  0
  4 39  1  0
  5 40  1  0
  6 41  1  0
  7 42  1  0
 12 43  1  0
 15 44  1  0
 19 45  1  0
 20 46  1  0
 23 47  1  0
 23 48  1  0
 24 49  1  0
 24 50  1  0
 26 51  1  0
 26 52  1  0
 27 53  1  0
 27 54  1  0
 29 55  1  0
 29 56  1  0
 30 57  1  0
 30 58  1  0
 31 59  1  0
 32 60  1  0
 34 61  1  0
 34 62  1  0
M  END
$$$$
