
     RDKit          3D

 37 38  0  0  0  0  0  0  0  0999 V2000
   -5.1184    1.4202   -2.1323 C   0  0  0  0  0  0  0  0  0  0  0  0
   -4.5799    1.2623   -0.8273 O   0  0  0  0  0  0  0  0  0  0  0  0
   -3.4040    0.5651   -0.7028 C   0  0  0  0  0  0  0  0  0  0  0  0
   -2.7037    0.0000   -1.7736 C   0  0  0  0  0  0  0  0  0  0  0  0
   -1.5108   -0.6903   -1.5485 C   0  0  0  0  0  0  0  0  0  0  0  0
   -1.0018   -0.8105   -0.2529 C   0  0  0  0  0  0  0  0  0  0  0  0
    0.2781   -1.5443   -0.0636 C   0  0  0  0  0  0  0  0  0  0  0  0
    0.5864   -2.4494   -0.8297 O   0  0  0  0  0  0  0  0  0  0  0  0
    1.0780   -1.1133    0.9737 N   0  0  0  0  0  0  0  0  0  0  0  0
    2.4045   -1.6534    1.1698 C   0  0  0  0  0  0  0  0  0  0  0  0
    3.4437   -0.7655    0.5325 C   0  0  0  0  0  0  0  0  0  0  0  0
    4.1404    0.1838    1.2914 C   0  0  0  0  0  0  0  0  0  0  0  0
    5.0837    1.0182    0.6859 C   0  0  0  0  0  0  0  0  0  0  0  0
    5.3366    0.9191   -0.6855 C   0  0  0  0  0  0  0  0  0  0  0  0
    6.5146    1.9860   -1.3635 Cl  0  0  0  0  0  0  0  0  0  0  0  0
    4.6410   -0.0190   -1.4544 C   0  0  0  0  0  0  0  0  0  0  0  0
    4.8939   -0.1934   -3.1546 Cl  0  0  0  0  0  0  0  0  0  0  0  0
    3.6987   -0.8546   -0.8457 C   0  0  0  0  0  0  0  0  0  0  0  0
   -1.7056   -0.2654    0.8286 C   0  0  0  0  0  0  0  0  0  0  0  0
   -2.9053    0.4225    0.6100 C   0  0  0  0  0  0  0  0  0  0  0  0
   -3.6590    0.9967    1.6044 O   0  0  0  0  0  0  0  0  0  0  0  0
   -3.2934    0.7335    2.9511 C   0  0  0  0  0  0  0  0  0  0  0  0
   -5.3702    0.4513   -2.5756 H   0  0  0  0  0  0  0  0  0  0  0  0
   -4.4363    1.9858   -2.7755 H   0  0  0  0  0  0  0  0  0  0  0  0
   -6.0450    1.9957   -2.0442 H   0  0  0  0  0  0  0  0  0  0  0  0
   -3.0587    0.0762   -2.7960 H   0  0  0  0  0  0  0  0  0  0  0  0
   -0.9759   -1.1293   -2.3890 H   0  0  0  0  0  0  0  0  0  0  0  0
    0.8770   -0.2214    1.4035 H   0  0  0  0  0  0  0  0  0  0  0  0
    2.5707   -1.7192    2.2508 H   0  0  0  0  0  0  0  0  0  0  0  0
    2.4752   -2.6706    0.7685 H   0  0  0  0  0  0  0  0  0  0  0  0
    3.9566    0.2802    2.3598 H   0  0  0  0  0  0  0  0  0  0  0  0
    5.6192    1.7471    1.2901 H   0  0  0  0  0  0  0  0  0  0  0  0
    3.1506   -1.5803   -1.4468 H   0  0  0  0  0  0  0  0  0  0  0  0
   -1.3202   -0.4039    1.8315 H   0  0  0  0  0  0  0  0  0  0  0  0
   -3.2954   -0.3413    3.1608 H   0  0  0  0  0  0  0  0  0  0  0  0
   -2.3232    1.1815    3.1888 H   0  0  0  0  0  0  0  0  0  0  0  0
   -4.0420    1.2000    3.5986 H   0  0  0  0  0  0  0  0  0  0  0  0
  1  2  1  0
  2  3  1  0
  3  4  2  0
  4  5  1  0
  5  6  2  0
  6  7  1  0
  7  8  2  0
  7  9  1  0
  9 10  1  0
 10 11  1  0
 11 12  2  0
 12 13  1  0
 13 14  2  0
 14 15  1  0
 14 16  1  0
 16 17  1  0
 16 18  2  0
  6 19  1  0
 19 20  2  0
 20 21  1  0
 21 22  1  0
 20  3  1  0
 18 11  1  0
  1 23  1  0
  1 24  1  0
  1 25  1  0
  4 26  1  0
  5 27  1  0
  9 28  1  0
 10 29  1  0
 10 30  1  0
 12 31  1  0
 13 32  1  0
 18 33  1  0
 19 34  1  0
 22 35  1  0
 22 36  1  0
 22 37  1  0
M  END
$$$$
