
     RDKit          3D

 61 65  0  0  0  0  0  0  0  0999 V2000
   -7.3335    0.7331    3.5433 C   0  0  0  0  0  0  0  0  0  0  0  0
   -7.0736    0.8722    2.1540 O   0  0  0  0  0  0  0  0  0  0  0  0
   -5.8278    0.5174    1.7000 C   0  0  0  0  0  0  0  0  0  0  0  0
   -4.8139   -0.0097    2.5048 C   0  0  0  0  0  0  0  0  0  0  0  0
   -3.5724   -0.3414    1.9522 C   0  0  0  0  0  0  0  0  0  0  0  0
   -3.3225   -0.1575    0.5870 C   0  0  0  0  0  0  0  0  0  0  0  0
   -2.0359   -0.4973   -0.0149 C   0  0  0  0  0  0  0  0  0  0  0  0
   -1.6672   -0.4462   -1.2816 N   0  0  0  0  0  0  0  0  0  0  0  0
   -0.3471   -0.8533   -1.2732 C   0  0  0  0  0  0  0  0  0  0  0  0
    0.4320   -0.9190   -2.5371 C   0  0  0  0  0  0  0  0  0  0  0  0
    1.4156    0.1495   -2.6097 N   0  0  0  0  0  0  0  0  0  0  0  0
    2.7842    0.0387   -2.5943 C   0  0  0  0  0  0  0  0  0  0  0  0
    3.6222   -1.4733   -2.4764 S   0  0  0  0  0  0  0  0  0  0  0  0
    5.1873   -0.9561   -1.7089 C   0  0  0  0  0  0  0  0  0  0  0  0
    5.0655   -0.8001   -0.2127 C   0  0  0  0  0  0  0  0  0  0  0  0
    5.1614   -1.9142    0.6332 C   0  0  0  0  0  0  0  0  0  0  0  0
    5.0293   -1.7698    2.0166 C   0  0  0  0  0  0  0  0  0  0  0  0
    4.8058   -0.5088    2.5803 C   0  0  0  0  0  0  0  0  0  0  0  0
    4.6280   -0.3581    4.0620 C   0  0  0  0  0  0  0  0  0  0  0  0
    4.6921    0.6019    1.7371 C   0  0  0  0  0  0  0  0  0  0  0  0
    4.8248    0.4584    0.3541 C   0  0  0  0  0  0  0  0  0  0  0  0
    3.3741    1.2053   -2.7159 N   0  0  0  0  0  0  0  0  0  0  0  0
    2.3565    2.1176   -2.8272 C   0  0  0  0  0  0  0  0  0  0  0  0
    2.4222    3.5012   -2.9862 C   0  0  0  0  0  0  0  0  0  0  0  0
    1.2041    4.1531   -3.0796 C   0  0  0  0  0  0  0  0  0  0  0  0
   -0.0045    3.5467   -3.0247 N   0  0  0  0  0  0  0  0  0  0  0  0
   -0.0676    2.2034   -2.8638 C   0  0  0  0  0  0  0  0  0  0  0  0
    1.1187    1.4891   -2.7693 C   0  0  0  0  0  0  0  0  0  0  0  0
    0.0276   -1.1508    0.0210 C   0  0  0  0  0  0  0  0  0  0  0  0
    1.2669   -1.6096    0.6713 C   0  0  0  0  0  0  0  0  0  0  0  0
   -1.0486   -0.9259    0.8319 O   0  0  0  0  0  0  0  0  0  0  0  0
   -4.3448    0.3696   -0.2181 C   0  0  0  0  0  0  0  0  0  0  0  0
   -5.5899    0.7122    0.3252 C   0  0  0  0  0  0  0  0  0  0  0  0
   -6.6341    1.2321   -0.4004 O   0  0  0  0  0  0  0  0  0  0  0  0
   -6.3831    1.5876   -1.7531 C   0  0  0  0  0  0  0  0  0  0  0  0
   -8.3545    1.0807    3.7289 H   0  0  0  0  0  0  0  0  0  0  0  0
   -6.6574    1.3574    4.1374 H   0  0  0  0  0  0  0  0  0  0  0  0
   -7.2786   -0.3164    3.8517 H   0  0  0  0  0  0  0  0  0  0  0  0
   -4.9548   -0.1763    3.5674 H   0  0  0  0  0  0  0  0  0  0  0  0
   -2.8018   -0.7487    2.6041 H   0  0  0  0  0  0  0  0  0  0  0  0
   -0.2261   -0.8038   -3.4065 H   0  0  0  0  0  0  0  0  0  0  0  0
    0.9190   -1.8919   -2.6346 H   0  0  0  0  0  0  0  0  0  0  0  0
    5.5730   -0.0401   -2.1698 H   0  0  0  0  0  0  0  0  0  0  0  0
    5.9341   -1.7296   -1.9236 H   0  0  0  0  0  0  0  0  0  0  0  0
    5.3361   -2.9051    0.2186 H   0  0  0  0  0  0  0  0  0  0  0  0
    5.1035   -2.6495    2.6523 H   0  0  0  0  0  0  0  0  0  0  0  0
    3.5710   -0.4657    4.3244 H   0  0  0  0  0  0  0  0  0  0  0  0
    4.9789    0.6228    4.3993 H   0  0  0  0  0  0  0  0  0  0  0  0
    5.2062   -1.1136    4.6043 H   0  0  0  0  0  0  0  0  0  0  0  0
    4.4962    1.5888    2.1503 H   0  0  0  0  0  0  0  0  0  0  0  0
    4.7292    1.3368   -0.2824 H   0  0  0  0  0  0  0  0  0  0  0  0
    3.3652    4.0269   -3.0378 H   0  0  0  0  0  0  0  0  0  0  0  0
    1.1661    5.2318   -3.2078 H   0  0  0  0  0  0  0  0  0  0  0  0
   -1.0538    1.7578   -2.8156 H   0  0  0  0  0  0  0  0  0  0  0  0
    1.0632   -2.0315    1.6606 H   0  0  0  0  0  0  0  0  0  0  0  0
    1.9556   -0.7705    0.7945 H   0  0  0  0  0  0  0  0  0  0  0  0
    1.7567   -2.3827    0.0727 H   0  0  0  0  0  0  0  0  0  0  0  0
   -4.1420    0.5033   -1.2770 H   0  0  0  0  0  0  0  0  0  0  0  0
   -7.2901    2.0539   -2.1503 H   0  0  0  0  0  0  0  0  0  0  0  0
   -6.1736    0.7002   -2.3597 H   0  0  0  0  0  0  0  0  0  0  0  0
   -5.5728    2.3208   -1.8284 H   0  0  0  0  0  0  0  0  0  0  0  0
  1  2  1  0
  2  3  1  0
  3  4  2  0
  4  5  1  0
  5  6  2  0
  6  7  1  0
  7  8  2  0
  8  9  1  0
  9 10  1  0
 10 11  1  0
 11 12  1  0
 12 13  1  0
 13 14  1  0
 14 15  1  0
 15 16  2  0
 16 17  1  0
 17 18  2  0
 18 19  1  0
 18 20  1  0
 20 21  2  0
 12 22  2  0
 22 23  1  0
 23 24  2  0
 24 25  1  0
 25 26  2  0
 26 27  1  0
 27 28  2  0
  9 29  2  0
 29 30  1  0
 29 31  1  0
  6 32  1  0
 32 33  2  0
 33 34  1  0
 34 35  1  0
 33  3  1  0
 31  7  1  0
 28 11  1  0
 21 15  1  0
 28 23  1  0
  1 36  1  0
  1 37  1  0
  1 38  1  0
  4 39  1  0
  5 40  1  0
 10 41  1  0
 10 42  1  0
 14 43  1  0
 14 44  1  0
 16 45  1  0
 17 46  1  0
 19 47  1  0
 19 48  1  0
 19 49  1  0
 20 50  1  0
 21 51  1  0
 24 52  1  0
 25 53  1  0
 27 54  1  0
 30 55  1  0
 30 56  1  0
 30 57  1  0
 32 58  1  0
 35 59  1  0
 35 60  1  0
 35 61  1  0
M  END
$$$$
