
     RDKit          3D

 28 30  0  0  0  0  0  0  0  0999 V2000
    0.5301   -3.4723   -0.2903 O   0  0  0  0  0  0  0  0  0  0  0  0
    0.5261   -2.2687   -0.0065 C   0  0  0  0  0  0  0  0  0  0  0  0
   -0.7174   -1.6404    0.5320 C   0  0  0  0  0  0  0  0  0  0  0  0
   -1.0308   -0.3413   -0.1763 C   0  0  0  0  0  0  0  0  0  0  0  0
   -2.5096   -0.1407   -0.2996 C   0  0  0  0  0  0  0  0  0  0  0  0
   -3.5420    0.0264    0.6048 C   0  0  0  0  0  0  0  0  0  0  0  0
   -4.7288    0.1474   -0.1567 C   0  0  0  0  0  0  0  0  0  0  0  0
   -4.3511    0.0416   -1.4738 C   0  0  0  0  0  0  0  0  0  0  0  0
   -3.0094   -0.1370   -1.5711 O   0  0  0  0  0  0  0  0  0  0  0  0
   -0.3192    1.0069    0.8132 S   0  0  0  0  0  0  0  0  0  0  0  0
    1.4232    0.8411    0.4779 C   0  0  0  0  0  0  0  0  0  0  0  0
    2.1185    2.0576    0.6724 C   0  0  0  0  0  0  0  0  0  0  0  0
    3.4883    2.1754    0.4432 C   0  0  0  0  0  0  0  0  0  0  0  0
    4.1997    1.0711    0.0124 C   0  0  0  0  0  0  0  0  0  0  0  0
    3.5355   -0.1411   -0.1745 C   0  0  0  0  0  0  0  0  0  0  0  0
    2.1486   -0.2876    0.0615 C   0  0  0  0  0  0  0  0  0  0  0  0
    1.6921   -1.6019   -0.1614 N   0  0  0  0  0  0  0  0  0  0  0  0
   -0.6327   -1.5565    1.6225 H   0  0  0  0  0  0  0  0  0  0  0  0
   -1.5220   -2.3674    0.3495 H   0  0  0  0  0  0  0  0  0  0  0  0
   -0.5959   -0.3056   -1.1829 H   0  0  0  0  0  0  0  0  0  0  0  0
   -3.4459    0.0605    1.6815 H   0  0  0  0  0  0  0  0  0  0  0  0
   -5.7356    0.2937    0.2082 H   0  0  0  0  0  0  0  0  0  0  0  0
   -4.8877    0.0703   -2.4119 H   0  0  0  0  0  0  0  0  0  0  0  0
    1.5837    2.9483    1.0035 H   0  0  0  0  0  0  0  0  0  0  0  0
    3.9882    3.1279    0.5985 H   0  0  0  0  0  0  0  0  0  0  0  0
    5.2680    1.1447   -0.1745 H   0  0  0  0  0  0  0  0  0  0  0  0
    4.1330   -0.9898   -0.5049 H   0  0  0  0  0  0  0  0  0  0  0  0
    2.3927   -2.2558   -0.4968 H   0  0  0  0  0  0  0  0  0  0  0  0
  1  2  2  0
  2  3  1  0
  3  4  1  0
  4  5  1  0
  5  6  2  0
  6  7  1  0
  7  8  2  0
  8  9  1  0
  4 10  1  0
 10 11  1  0
 11 12  2  0
 12 13  1  0
 13 14  2  0
 14 15  1  0
 15 16  2  0
 16 17  1  0
 17  2  1  0
  9  5  1  0
 16 11  1  0
  3 18  1  0
  3 19  1  0
  4 20  1  0
  6 21  1  0
  7 22  1  0
  8 23  1  0
 12 24  1  0
 13 25  1  0
 14 26  1  0
 15 27  1  0
 17 28  1  0
M  END
$$$$
