
     RDKit          3D

 36 37  0  0  0  0  0  0  0  0999 V2000
   -2.1642   -2.4484   -0.9738 C   0  0  0  0  0  0  0  0  0  0  0  0
   -1.9573   -1.0314   -1.5027 C   0  0  0  0  0  0  0  0  0  0  0  0
   -1.7635   -0.0524   -0.4136 N   0  0  0  0  0  0  0  0  0  0  0  0
   -3.0509    0.2662    0.2374 C   0  0  0  0  0  0  0  0  0  0  0  0
   -2.8989    0.9241    1.6190 C   0  0  0  0  0  0  0  0  0  0  0  0
   -4.1750    1.0667    2.2399 O   0  0  0  0  0  0  0  0  0  0  0  0
   -1.1325    1.1828   -0.9246 C   0  0  0  0  0  0  0  0  0  0  0  0
    0.3199    0.9510   -1.2605 C   0  0  0  0  0  0  0  0  0  0  0  0
    0.8394    1.0787   -2.5354 C   0  0  0  0  0  0  0  0  0  0  0  0
    2.5112    0.7749   -2.6085 S   0  0  0  0  0  0  0  0  0  0  0  0
    2.6062    0.4813   -0.9168 C   0  0  0  0  0  0  0  0  0  0  0  0
    3.7650    0.1522   -0.1827 C   0  0  0  0  0  0  0  0  0  0  0  0
    3.6735   -0.0464    1.2016 C   0  0  0  0  0  0  0  0  0  0  0  0
    4.8926   -0.4296    1.9886 C   0  0  0  0  0  0  0  0  0  0  0  0
    2.4346    0.0566    1.8277 C   0  0  0  0  0  0  0  0  0  0  0  0
    1.2887    0.3826    1.0938 C   0  0  0  0  0  0  0  0  0  0  0  0
    1.3563    0.6058   -0.3047 C   0  0  0  0  0  0  0  0  0  0  0  0
   -3.1076   -2.5588   -0.4324 H   0  0  0  0  0  0  0  0  0  0  0  0
   -2.1831   -3.1567   -1.8090 H   0  0  0  0  0  0  0  0  0  0  0  0
   -1.3463   -2.7414   -0.3069 H   0  0  0  0  0  0  0  0  0  0  0  0
   -1.0701   -1.0803   -2.1436 H   0  0  0  0  0  0  0  0  0  0  0  0
   -2.7938   -0.7421   -2.1512 H   0  0  0  0  0  0  0  0  0  0  0  0
   -3.6365   -0.6461    0.3987 H   0  0  0  0  0  0  0  0  0  0  0  0
   -3.6786    0.8961   -0.4074 H   0  0  0  0  0  0  0  0  0  0  0  0
   -2.2645    0.3207    2.2769 H   0  0  0  0  0  0  0  0  0  0  0  0
   -2.4628    1.9235    1.5455 H   0  0  0  0  0  0  0  0  0  0  0  0
   -4.4921    0.1718    2.4527 H   0  0  0  0  0  0  0  0  0  0  0  0
   -1.1486    1.9780   -0.1706 H   0  0  0  0  0  0  0  0  0  0  0  0
   -1.6790    1.5685   -1.7955 H   0  0  0  0  0  0  0  0  0  0  0  0
    0.3050    1.3345   -3.4400 H   0  0  0  0  0  0  0  0  0  0  0  0
    4.7199    0.0567   -0.6931 H   0  0  0  0  0  0  0  0  0  0  0  0
    5.0021   -1.5184    2.0020 H   0  0  0  0  0  0  0  0  0  0  0  0
    5.7944    0.0121    1.5516 H   0  0  0  0  0  0  0  0  0  0  0  0
    4.8218   -0.0680    3.0199 H   0  0  0  0  0  0  0  0  0  0  0  0
    2.3422   -0.1176    2.8975 H   0  0  0  0  0  0  0  0  0  0  0  0
    0.3327    0.4528    1.6055 H   0  0  0  0  0  0  0  0  0  0  0  0
  1  2  1  0
  2  3  1  0
  3  4  1  0
  4  5  1  0
  5  6  1  0
  3  7  1  0
  7  8  1  0
  8  9  2  0
  9 10  1  0
 10 11  1  0
 11 12  2  0
 12 13  1  0
 13 14  1  0
 13 15  2  0
 15 16  1  0
 16 17  2  0
 17  8  1  0
 17 11  1  0
  1 18  1  0
  1 19  1  0
  1 20  1  0
  2 21  1  0
  2 22  1  0
  4 23  1  0
  4 24  1  0
  5 25  1  0
  5 26  1  0
  6 27  1  0
  7 28  1  0
  7 29  1  0
  9 30  1  0
 12 31  1  0
 14 32  1  0
 14 33  1  0
 14 34  1  0
 15 35  1  0
 16 36  1  0
M  END
$$$$
