
     RDKit          3D

 36 37  0  0  0  0  0  0  0  0999 V2000
   -3.5554   -2.3290   -0.5648 C   0  0  0  0  0  0  0  0  0  0  0  0
   -2.0420   -2.2866   -0.4738 C   0  0  0  0  0  0  0  0  0  0  0  0
   -1.6166   -1.0452    0.1135 O   0  0  0  0  0  0  0  0  0  0  0  0
   -1.4540   -0.0097   -0.7505 C   0  0  0  0  0  0  0  0  0  0  0  0
   -1.6437   -0.0580   -1.9557 O   0  0  0  0  0  0  0  0  0  0  0  0
   -1.0379    1.2317   -0.0394 C   0  0  0  0  0  0  0  0  0  0  0  0
   -1.1696    2.4320   -0.7607 C   0  0  0  0  0  0  0  0  0  0  0  0
   -0.8006    3.6516   -0.1915 C   0  0  0  0  0  0  0  0  0  0  0  0
   -0.2934    3.6860    1.1033 C   0  0  0  0  0  0  0  0  0  0  0  0
   -0.1510    2.5026    1.8283 C   0  0  0  0  0  0  0  0  0  0  0  0
   -0.5171    1.2726    1.2685 C   0  0  0  0  0  0  0  0  0  0  0  0
   -0.2966    0.0929    2.0497 N   0  0  0  0  0  0  0  0  0  0  0  0
    1.2911   -0.4347    2.3144 S   0  0  0  0  0  6  0  0  0  0  0  0
    1.1634   -1.7702    2.8646 O   0  0  0  0  0  0  0  0  0  0  0  0
    2.0310    0.5815    3.0278 O   0  0  0  0  0  0  0  0  0  0  0  0
    1.9509   -0.6103    0.6858 C   0  0  0  0  0  0  0  0  0  0  0  0
    1.8460   -1.8432    0.0285 C   0  0  0  0  0  0  0  0  0  0  0  0
    2.3702   -1.9887   -1.2570 C   0  0  0  0  0  0  0  0  0  0  0  0
    3.0064   -0.9131   -1.8774 C   0  0  0  0  0  0  0  0  0  0  0  0
    3.1243    0.3067   -1.2104 C   0  0  0  0  0  0  0  0  0  0  0  0
    2.6018    0.4524    0.0726 C   0  0  0  0  0  0  0  0  0  0  0  0
    2.7200    1.6453    0.6675 F   0  0  0  0  0  0  0  0  0  0  0  0
   -4.0041   -2.1691    0.4211 H   0  0  0  0  0  0  0  0  0  0  0  0
   -3.8937   -3.2931   -0.9547 H   0  0  0  0  0  0  0  0  0  0  0  0
   -3.9321   -1.5360   -1.2184 H   0  0  0  0  0  0  0  0  0  0  0  0
   -1.6894   -3.0868    0.1851 H   0  0  0  0  0  0  0  0  0  0  0  0
   -1.5741   -2.4460   -1.4521 H   0  0  0  0  0  0  0  0  0  0  0  0
   -1.5622    2.4227   -1.7768 H   0  0  0  0  0  0  0  0  0  0  0  0
   -0.9065    4.5728   -0.7599 H   0  0  0  0  0  0  0  0  0  0  0  0
    0.0014    4.6326    1.5507 H   0  0  0  0  0  0  0  0  0  0  0  0
    0.2558    2.5474    2.8373 H   0  0  0  0  0  0  0  0  0  0  0  0
   -0.9054   -0.7005    1.8278 H   0  0  0  0  0  0  0  0  0  0  0  0
    1.3610   -2.6914    0.5073 H   0  0  0  0  0  0  0  0  0  0  0  0
    2.2871   -2.9420   -1.7749 H   0  0  0  0  0  0  0  0  0  0  0  0
    3.4143   -1.0261   -2.8795 H   0  0  0  0  0  0  0  0  0  0  0  0
    3.6207    1.1489   -1.6841 H   0  0  0  0  0  0  0  0  0  0  0  0
  1  2  1  0
  2  3  1  0
  3  4  1  0
  4  5  2  0
  4  6  1  0
  6  7  2  0
  7  8  1  0
  8  9  2  0
  9 10  1  0
 10 11  2  0
 11 12  1  0
 12 13  1  0
 13 14  2  0
 13 15  2  0
 13 16  1  0
 16 17  2  0
 17 18  1  0
 18 19  2  0
 19 20  1  0
 20 21  2  0
 21 22  1  0
 11  6  1  0
 21 16  1  0
  1 23  1  0
  1 24  1  0
  1 25  1  0
  2 26  1  0
  2 27  1  0
  7 28  1  0
  8 29  1  0
  9 30  1  0
 10 31  1  0
 12 32  1  0
 17 33  1  0
 18 34  1  0
 19 35  1  0
 20 36  1  0
M  END
$$$$
