
     RDKit          3D

 43 43  0  0  0  0  0  0  0  0999 V2000
   -6.6434    1.8788    1.9255 C   0  0  0  0  0  0  0  0  0  0  0  0
   -5.5730    1.3348    1.0283 C   0  0  0  0  0  0  0  0  0  0  0  0
   -5.4038    2.1878   -0.4685 Cl  0  0  0  0  0  0  0  0  0  0  0  0
   -4.7933    0.2847    1.3405 C   0  0  0  0  0  0  0  0  0  0  0  0
   -3.7409   -0.3461    0.4800 C   0  0  0  0  0  0  0  0  0  0  0  0
   -2.2852   -0.0635    0.8840 N   0  0  0  0  0  4  0  0  0  0  0  0
   -1.9754   -0.6708    2.2480 C   0  0  0  0  0  0  0  0  0  0  0  0
   -2.0112    1.4351    0.9169 C   0  0  0  0  0  0  0  0  0  0  0  0
   -1.3730   -0.7193   -0.2155 C   0  0  0  0  0  0  0  0  0  0  0  0
    0.1331   -0.6245    0.0075 C   0  0  0  0  0  0  0  0  0  0  0  0
    0.7037   -1.0921    0.9828 O   0  0  0  0  0  0  0  0  0  0  0  0
    0.7203    0.0668   -1.0039 O   0  0  0  0  0  0  0  0  0  0  0  0
    2.1523    0.2223   -0.9193 C   0  0  0  0  0  0  0  0  0  0  0  0
    2.8409   -0.9294   -1.6512 C   0  0  0  0  0  0  0  0  0  0  0  0
    4.3387   -0.7894   -1.6438 C   0  0  0  0  0  0  0  0  0  0  0  0
    4.9783    0.0490   -2.5688 C   0  0  0  0  0  0  0  0  0  0  0  0
    6.3668    0.1908   -2.5518 C   0  0  0  0  0  0  0  0  0  0  0  0
    7.1278   -0.5012   -1.6115 C   0  0  0  0  0  0  0  0  0  0  0  0
    6.5016   -1.3369   -0.6874 C   0  0  0  0  0  0  0  0  0  0  0  0
    5.1128   -1.4792   -0.7004 C   0  0  0  0  0  0  0  0  0  0  0  0
   -6.4661    2.9380    2.1393 H   0  0  0  0  0  0  0  0  0  0  0  0
   -7.6260    1.7794    1.4532 H   0  0  0  0  0  0  0  0  0  0  0  0
   -6.6782    1.3499    2.8836 H   0  0  0  0  0  0  0  0  0  0  0  0
   -4.9768   -0.2116    2.2918 H   0  0  0  0  0  0  0  0  0  0  0  0
   -3.8381   -0.0488   -0.5695 H   0  0  0  0  0  0  0  0  0  0  0  0
   -3.8666   -1.4365    0.5102 H   0  0  0  0  0  0  0  0  0  0  0  0
   -2.6999   -0.2913    2.9748 H   0  0  0  0  0  0  0  0  0  0  0  0
   -0.9758   -0.3603    2.5615 H   0  0  0  0  0  0  0  0  0  0  0  0
   -2.0456   -1.7606    2.1712 H   0  0  0  0  0  0  0  0  0  0  0  0
   -2.2573    1.8556   -0.0616 H   0  0  0  0  0  0  0  0  0  0  0  0
   -0.9522    1.5940    1.1404 H   0  0  0  0  0  0  0  0  0  0  0  0
   -2.6204    1.8887    1.7039 H   0  0  0  0  0  0  0  0  0  0  0  0
   -1.6455   -1.7803   -0.2729 H   0  0  0  0  0  0  0  0  0  0  0  0
   -1.6414   -0.2433   -1.1665 H   0  0  0  0  0  0  0  0  0  0  0  0
    2.3912    1.1823   -1.3937 H   0  0  0  0  0  0  0  0  0  0  0  0
    2.4834    0.2960    0.1251 H   0  0  0  0  0  0  0  0  0  0  0  0
    2.4775   -0.9844   -2.6859 H   0  0  0  0  0  0  0  0  0  0  0  0
    2.5483   -1.8864   -1.2011 H   0  0  0  0  0  0  0  0  0  0  0  0
    4.4027    0.5960   -3.3141 H   0  0  0  0  0  0  0  0  0  0  0  0
    6.8578    0.8383   -3.2755 H   0  0  0  0  0  0  0  0  0  0  0  0
    8.2102   -0.3934   -1.6024 H   0  0  0  0  0  0  0  0  0  0  0  0
    7.0979   -1.8812    0.0408 H   0  0  0  0  0  0  0  0  0  0  0  0
    4.6439   -2.1380    0.0278 H   0  0  0  0  0  0  0  0  0  0  0  0
  1  2  1  0
  2  3  1  0
  2  4  2  3
  4  5  1  0
  5  6  1  0
  6  7  1  0
  6  8  1  0
  6  9  1  0
  9 10  1  0
 10 11  2  0
 10 12  1  0
 12 13  1  0
 13 14  1  0
 14 15  1  0
 15 16  2  0
 16 17  1  0
 17 18  2  0
 18 19  1  0
 19 20  2  0
 20 15  1  0
  1 21  1  0
  1 22  1  0
  1 23  1  0
  4 24  1  0
  5 25  1  0
  5 26  1  0
  7 27  1  0
  7 28  1  0
  7 29  1  0
  8 30  1  0
  8 31  1  0
  8 32  1  0
  9 33  1  0
  9 34  1  0
 13 35  1  0
 13 36  1  0
 14 37  1  0
 14 38  1  0
 16 39  1  0
 17 40  1  0
 18 41  1  0
 19 42  1  0
 20 43  1  0
M  CHG  1   6   1
M  END
$$$$
