
     RDKit          3D

 36 37  0  0  0  0  0  0  0  0999 V2000
   -4.5731   -2.2668   -0.1138 C   0  0  0  0  0  0  0  0  0  0  0  0
   -3.4330   -1.9246    0.8261 C   0  0  0  0  0  0  0  0  0  0  0  0
   -2.4945   -1.0590    0.1671 O   0  0  0  0  0  0  0  0  0  0  0  0
   -2.7503    0.2716    0.2699 C   0  0  0  0  0  0  0  0  0  0  0  0
   -3.7365    0.7668    0.7930 O   0  0  0  0  0  0  0  0  0  0  0  0
   -1.6981    1.0727   -0.4144 C   0  0  0  0  0  0  0  0  0  0  0  0
   -2.0314    2.4014   -0.7304 C   0  0  0  0  0  0  0  0  0  0  0  0
   -1.1195    3.2294   -1.3872 C   0  0  0  0  0  0  0  0  0  0  0  0
    0.1362    2.7405   -1.7351 C   0  0  0  0  0  0  0  0  0  0  0  0
    0.4845    1.4268   -1.4200 C   0  0  0  0  0  0  0  0  0  0  0  0
   -0.4228    0.5883   -0.7611 C   0  0  0  0  0  0  0  0  0  0  0  0
    0.0431   -0.7220   -0.4076 N   0  0  0  0  0  0  0  0  0  0  0  0
    0.7440   -0.8880    1.1345 S   0  0  0  0  0  6  0  0  0  0  0  0
    0.6636   -2.3047    1.4344 O   0  0  0  0  0  0  0  0  0  0  0  0
    0.1683    0.0803    2.0394 O   0  0  0  0  0  0  0  0  0  0  0  0
    2.4415   -0.5223    0.8384 C   0  0  0  0  0  0  0  0  0  0  0  0
    3.3099   -1.5468    0.4401 C   0  0  0  0  0  0  0  0  0  0  0  0
    4.6636   -1.2691    0.2399 C   0  0  0  0  0  0  0  0  0  0  0  0
    5.1492    0.0229    0.4452 C   0  0  0  0  0  0  0  0  0  0  0  0
    4.2813    1.0368    0.8525 C   0  0  0  0  0  0  0  0  0  0  0  0
    2.9304    0.7595    1.0529 C   0  0  0  0  0  0  0  0  0  0  0  0
    2.1308    1.7668    1.4233 F   0  0  0  0  0  0  0  0  0  0  0  0
   -5.1296   -1.3686   -0.3997 H   0  0  0  0  0  0  0  0  0  0  0  0
   -4.1891   -2.7110   -1.0380 H   0  0  0  0  0  0  0  0  0  0  0  0
   -5.2649   -2.9717    0.3559 H   0  0  0  0  0  0  0  0  0  0  0  0
   -3.7994   -1.4811    1.7590 H   0  0  0  0  0  0  0  0  0  0  0  0
   -2.8900   -2.8366    1.0951 H   0  0  0  0  0  0  0  0  0  0  0  0
   -3.0091    2.7995   -0.4614 H   0  0  0  0  0  0  0  0  0  0  0  0
   -1.3904    4.2562   -1.6225 H   0  0  0  0  0  0  0  0  0  0  0  0
    0.8490    3.3847   -2.2445 H   0  0  0  0  0  0  0  0  0  0  0  0
    1.4697    1.0606   -1.6973 H   0  0  0  0  0  0  0  0  0  0  0  0
   -0.6704   -1.4546   -0.4910 H   0  0  0  0  0  0  0  0  0  0  0  0
    2.9418   -2.5597    0.2881 H   0  0  0  0  0  0  0  0  0  0  0  0
    5.3412   -2.0620   -0.0697 H   0  0  0  0  0  0  0  0  0  0  0  0
    6.2043    0.2386    0.2929 H   0  0  0  0  0  0  0  0  0  0  0  0
    4.6495    2.0453    1.0181 H   0  0  0  0  0  0  0  0  0  0  0  0
  1  2  1  0
  2  3  1  0
  3  4  1  0
  4  5  2  0
  4  6  1  0
  6  7  2  0
  7  8  1  0
  8  9  2  0
  9 10  1  0
 10 11  2  0
 11 12  1  0
 12 13  1  0
 13 14  2  0
 13 15  2  0
 13 16  1  0
 16 17  2  0
 17 18  1  0
 18 19  2  0
 19 20  1  0
 20 21  2  0
 21 22  1  0
 11  6  1  0
 21 16  1  0
  1 23  1  0
  1 24  1  0
  1 25  1  0
  2 26  1  0
  2 27  1  0
  7 28  1  0
  8 29  1  0
  9 30  1  0
 10 31  1  0
 12 32  1  0
 17 33  1  0
 18 34  1  0
 19 35  1  0
 20 36  1  0
M  END
$$$$
