
     RDKit          3D

 47 49  0  0  0  0  0  0  0  0999 V2000
   -3.1526    1.1312    2.4763 C   0  0  0  0  0  0  0  0  0  0  0  0
   -3.6077    1.5288    1.0819 C   0  0  0  0  0  0  0  0  0  0  0  0
   -4.1440    0.3896    0.3237 N   0  0  0  0  0  4  0  0  0  0  0  0
   -3.4410   -0.2672   -0.5899 C   0  0  0  0  0  0  0  0  0  0  0  0
   -2.1005   -0.0363   -0.9801 C   0  0  0  0  0  0  0  0  0  0  0  0
   -1.0779   -0.4155   -0.1985 C   0  0  0  0  0  0  0  0  0  0  0  0
    0.3040   -0.2029   -0.5697 C   0  0  0  0  0  0  0  0  0  0  0  0
    1.3292   -0.5689    0.2155 C   0  0  0  0  0  0  0  0  0  0  0  0
    2.7392   -0.3558   -0.1381 C   0  0  0  0  0  0  0  0  0  0  0  0
    3.6437    0.0117    0.8567 C   0  0  0  0  0  0  0  0  0  0  0  0
    5.0036    0.1944    0.5583 C   0  0  0  0  0  0  0  0  0  0  0  0
    5.5217    0.0172   -0.7358 C   0  0  0  0  0  0  0  0  0  0  0  0
    6.8796    0.1803   -1.0230 N   0  0  0  0  0  0  0  0  0  0  0  0
    7.3146    0.2586   -2.4168 C   0  0  0  0  0  0  0  0  0  0  0  0
    7.7446    0.8486   -0.0519 C   0  0  0  0  0  0  0  0  0  0  0  0
    4.5932   -0.3837   -1.7115 C   0  0  0  0  0  0  0  0  0  0  0  0
    3.2308   -0.5683   -1.4252 C   0  0  0  0  0  0  0  0  0  0  0  0
   -4.3877   -1.4807   -1.3446 S   0  0  0  0  0  0  0  0  0  0  0  0
   -5.7596   -1.1101   -0.3764 C   0  0  0  0  0  0  0  0  0  0  0  0
   -7.0266   -1.7135   -0.3842 C   0  0  0  0  0  0  0  0  0  0  0  0
   -7.9938   -1.2253    0.4976 C   0  0  0  0  0  0  0  0  0  0  0  0
   -7.7090   -0.1697    1.3576 C   0  0  0  0  0  0  0  0  0  0  0  0
   -6.4430    0.4287    1.3611 C   0  0  0  0  0  0  0  0  0  0  0  0
   -5.4536   -0.0549    0.4799 C   0  0  0  0  0  0  0  0  0  0  0  0
   -2.3707    0.3683    2.4364 H   0  0  0  0  0  0  0  0  0  0  0  0
   -3.9798    0.7227    3.0642 H   0  0  0  0  0  0  0  0  0  0  0  0
   -2.7549    2.0011    3.0079 H   0  0  0  0  0  0  0  0  0  0  0  0
   -4.3786    2.3059    1.1446 H   0  0  0  0  0  0  0  0  0  0  0  0
   -2.7761    1.9895    0.5376 H   0  0  0  0  0  0  0  0  0  0  0  0
   -1.9222    0.4183   -1.9527 H   0  0  0  0  0  0  0  0  0  0  0  0
   -1.2494   -0.9214    0.7509 H   0  0  0  0  0  0  0  0  0  0  0  0
    0.5033    0.2836   -1.5239 H   0  0  0  0  0  0  0  0  0  0  0  0
    1.1618   -1.0373    1.1829 H   0  0  0  0  0  0  0  0  0  0  0  0
    3.3126    0.1648    1.8810 H   0  0  0  0  0  0  0  0  0  0  0  0
    5.6511    0.4755    1.3836 H   0  0  0  0  0  0  0  0  0  0  0  0
    8.3999    0.3917   -2.4900 H   0  0  0  0  0  0  0  0  0  0  0  0
    7.0893   -0.6686   -2.9545 H   0  0  0  0  0  0  0  0  0  0  0  0
    6.8432    1.1050   -2.9283 H   0  0  0  0  0  0  0  0  0  0  0  0
    7.4053    1.8732    0.1363 H   0  0  0  0  0  0  0  0  0  0  0  0
    7.7830    0.2939    0.8918 H   0  0  0  0  0  0  0  0  0  0  0  0
    8.7789    0.9037   -0.4096 H   0  0  0  0  0  0  0  0  0  0  0  0
    4.9085   -0.5791   -2.7322 H   0  0  0  0  0  0  0  0  0  0  0  0
    2.5761   -0.9003   -2.2266 H   0  0  0  0  0  0  0  0  0  0  0  0
   -7.2576   -2.5373   -1.0562 H   0  0  0  0  0  0  0  0  0  0  0  0
   -8.9855   -1.6784    0.5093 H   0  0  0  0  0  0  0  0  0  0  0  0
   -8.4829    0.1922    2.0349 H   0  0  0  0  0  0  0  0  0  0  0  0
   -6.2623    1.2491    2.0496 H   0  0  0  0  0  0  0  0  0  0  0  0
  1  2  1  0
  2  3  1  0
  3  4  2  0
  4  5  1  0
  5  6  2  3
  6  7  1  0
  7  8  2  3
  8  9  1  0
  9 10  2  0
 10 11  1  0
 11 12  2  0
 12 13  1  0
 13 14  1  0
 13 15  1  0
 12 16  1  0
 16 17  2  0
  4 18  1  0
 18 19  1  0
 19 20  2  0
 20 21  1  0
 21 22  2  0
 22 23  1  0
 23 24  2  0
 24  3  1  0
 17  9  1  0
 24 19  1  0
  1 25  1  0
  1 26  1  0
  1 27  1  0
  2 28  1  0
  2 29  1  0
  5 30  1  0
  6 31  1  0
  7 32  1  0
  8 33  1  0
 10 34  1  0
 11 35  1  0
 14 36  1  0
 14 37  1  0
 14 38  1  0
 15 39  1  0
 15 40  1  0
 15 41  1  0
 16 42  1  0
 17 43  1  0
 20 44  1  0
 21 45  1  0
 22 46  1  0
 23 47  1  0
M  CHG  1   3   1
M  END
$$$$
