
     RDKit          3D

 28 29  0  0  0  0  0  0  0  0999 V2000
    5.3177    0.1406    1.1521 C   0  0  0  0  0  0  0  0  0  0  0  0
    4.7569   -0.8868    0.1868 C   0  0  0  0  0  0  0  0  0  0  0  0
    3.4905   -0.4478   -0.3227 O   0  0  0  0  0  0  0  0  0  0  0  0
    2.4055   -0.7693    0.4333 C   0  0  0  0  0  0  0  0  0  0  0  0
    2.4331   -1.3849    1.4904 O   0  0  0  0  0  0  0  0  0  0  0  0
    1.2025   -0.2749   -0.1891 C   0  0  0  0  0  0  0  0  0  0  0  0
    1.0039    0.4304   -1.3643 C   0  0  0  0  0  0  0  0  0  0  0  0
   -0.3868    0.6659   -1.5052 C   0  0  0  0  0  0  0  0  0  0  0  0
   -1.0169    0.1018   -0.4152 C   0  0  0  0  0  0  0  0  0  0  0  0
   -2.3992    0.0475   -0.0590 C   0  0  0  0  0  0  0  0  0  0  0  0
   -3.4965    0.5543   -0.7220 C   0  0  0  0  0  0  0  0  0  0  0  0
   -4.6058    0.2101    0.0808 C   0  0  0  0  0  0  0  0  0  0  0  0
   -6.0373    0.5025   -0.1498 C   0  0  0  0  0  0  0  0  0  0  0  0
   -4.2230   -0.4649    1.1689 N   0  0  0  0  0  0  0  0  0  0  0  0
   -2.8478   -0.5657    1.0807 O   0  0  0  0  0  0  0  0  0  0  0  0
   -0.0429   -0.4628    0.3708 N   0  0  0  0  0  0  0  0  0  0  0  0
    6.3107   -0.1565    1.5010 H   0  0  0  0  0  0  0  0  0  0  0  0
    5.3912    1.1210    0.6700 H   0  0  0  0  0  0  0  0  0  0  0  0
    4.6636    0.2615    2.0213 H   0  0  0  0  0  0  0  0  0  0  0  0
    4.6791   -1.8756    0.6535 H   0  0  0  0  0  0  0  0  0  0  0  0
    5.4288   -0.9896   -0.6716 H   0  0  0  0  0  0  0  0  0  0  0  0
    1.7833    0.7426   -2.0490 H   0  0  0  0  0  0  0  0  0  0  0  0
   -0.8678    1.1925   -2.3194 H   0  0  0  0  0  0  0  0  0  0  0  0
   -3.4961    1.0968   -1.6550 H   0  0  0  0  0  0  0  0  0  0  0  0
   -6.6137   -0.4257   -0.2191 H   0  0  0  0  0  0  0  0  0  0  0  0
   -6.4447    1.1031    0.6698 H   0  0  0  0  0  0  0  0  0  0  0  0
   -6.1813    1.0598   -1.0810 H   0  0  0  0  0  0  0  0  0  0  0  0
   -0.2071   -0.9516    1.2432 H   0  0  0  0  0  0  0  0  0  0  0  0
  1  2  1  0
  2  3  1  0
  3  4  1  0
  4  5  2  0
  4  6  1  0
  6  7  2  0
  7  8  1  0
  8  9  2  0
  9 10  1  0
 10 11  2  0
 11 12  1  0
 12 13  1  0
 12 14  2  0
 14 15  1  0
  9 16  1  0
 16  6  1  0
 15 10  1  0
  1 17  1  0
  1 18  1  0
  1 19  1  0
  2 20  1  0
  2 21  1  0
  7 22  1  0
  8 23  1  0
 11 24  1  0
 13 25  1  0
 13 26  1  0
 13 27  1  0
 16 28  1  0
M  END
$$$$
