
     RDKit          3D

 43 46  0  0  0  0  0  0  0  0999 V2000
    6.5694    1.0951    1.3786 C   0  0  0  0  0  0  0  0  0  0  0  0
    5.1178    0.9509    1.0236 C   0  0  0  0  0  0  0  0  0  0  0  0
    4.7128    0.0282    0.0546 C   0  0  0  0  0  0  0  0  0  0  0  0
    3.3650   -0.0871   -0.3013 C   0  0  0  0  0  0  0  0  0  0  0  0
    2.4077    0.7299    0.3006 C   0  0  0  0  0  0  0  0  0  0  0  0
    0.8902    0.6087   -0.0866 C   0  0  0  0  0  0  0  0  0  0  0  0
   -0.1659    1.3057    0.4894 C   0  0  0  0  0  0  0  0  0  0  0  0
   -1.3619    0.8906   -0.0997 N   0  0  0  0  0  4  0  0  0  0  0  0
   -2.7034    1.3753    0.2120 C   0  0  0  0  0  0  0  0  0  0  0  0
   -3.5405    0.2294    0.7227 C   0  0  0  0  0  0  0  0  0  0  0  0
   -3.1793   -0.4624    1.8884 C   0  0  0  0  0  0  0  0  0  0  0  0
   -3.9555   -1.5291    2.3516 C   0  0  0  0  0  0  0  0  0  0  0  0
   -5.1047   -1.9203    1.6598 C   0  0  0  0  0  0  0  0  0  0  0  0
   -6.0046   -3.2544    2.2815 Cl  0  0  0  0  0  0  0  0  0  0  0  0
   -5.4802   -1.2341    0.5020 C   0  0  0  0  0  0  0  0  0  0  0  0
   -6.8781   -1.6580   -0.4179 Cl  0  0  0  0  0  0  0  0  0  0  0  0
   -4.7037   -0.1624    0.0404 C   0  0  0  0  0  0  0  0  0  0  0  0
   -1.0512   -0.0127   -1.0245 C   0  0  0  0  0  0  0  0  0  0  0  0
    0.2679   -0.1778   -1.0392 N   0  0  0  0  0  0  0  0  0  0  0  0
    0.6839   -1.1394   -2.0510 C   0  0  0  0  0  0  0  0  0  0  0  0
   -0.5932   -1.3318   -2.9145 C   0  0  0  0  0  0  0  0  0  0  0  0
   -1.7552   -0.8497   -2.0238 C   0  0  0  0  0  0  0  0  0  0  0  0
    2.8091    1.6623    1.2643 C   0  0  0  0  0  0  0  0  0  0  0  0
    4.1574    1.7750    1.6168 C   0  0  0  0  0  0  0  0  0  0  0  0
    7.0433    1.8312    0.7222 H   0  0  0  0  0  0  0  0  0  0  0  0
    7.0932    0.1389    1.2757 H   0  0  0  0  0  0  0  0  0  0  0  0
    6.6868    1.4192    2.4180 H   0  0  0  0  0  0  0  0  0  0  0  0
    5.4500   -0.6125   -0.4276 H   0  0  0  0  0  0  0  0  0  0  0  0
    3.1056   -0.8321   -1.0417 H   0  0  0  0  0  0  0  0  0  0  0  0
   -0.2205    2.0463    1.2693 H   0  0  0  0  0  0  0  0  0  0  0  0
   -2.6512    2.1661    0.9682 H   0  0  0  0  0  0  0  0  0  0  0  0
   -3.1238    1.8096   -0.7018 H   0  0  0  0  0  0  0  0  0  0  0  0
   -2.2910   -0.1794    2.4513 H   0  0  0  0  0  0  0  0  0  0  0  0
   -3.6603   -2.0541    3.2589 H   0  0  0  0  0  0  0  0  0  0  0  0
   -5.0192    0.3651   -0.8591 H   0  0  0  0  0  0  0  0  0  0  0  0
    1.5069   -0.7462   -2.6519 H   0  0  0  0  0  0  0  0  0  0  0  0
    0.9700   -2.0714   -1.5550 H   0  0  0  0  0  0  0  0  0  0  0  0
   -0.7198   -2.3608   -3.2613 H   0  0  0  0  0  0  0  0  0  0  0  0
   -0.5262   -0.6846   -3.7971 H   0  0  0  0  0  0  0  0  0  0  0  0
   -2.2248   -1.6682   -1.4744 H   0  0  0  0  0  0  0  0  0  0  0  0
   -2.4845   -0.2363   -2.5539 H   0  0  0  0  0  0  0  0  0  0  0  0
    2.1046    2.3251    1.7574 H   0  0  0  0  0  0  0  0  0  0  0  0
    4.4571    2.5121    2.3605 H   0  0  0  0  0  0  0  0  0  0  0  0
  1  2  1  0
  2  3  2  0
  3  4  1  0
  4  5  2  0
  5  6  1  0
  6  7  2  0
  7  8  1  0
  8  9  1  0
  9 10  1  0
 10 11  2  0
 11 12  1  0
 12 13  2  0
 13 14  1  0
 13 15  1  0
 15 16  1  0
 15 17  2  0
  8 18  2  0
 18 19  1  0
 19 20  1  0
 20 21  1  0
 21 22  1  0
  5 23  1  0
 23 24  2  0
 24  2  1  0
 19  6  1  0
 17 10  1  0
 22 18  1  0
  1 25  1  0
  1 26  1  0
  1 27  1  0
  3 28  1  0
  4 29  1  0
  7 30  1  0
  9 31  1  0
  9 32  1  0
 11 33  1  0
 12 34  1  0
 17 35  1  0
 20 36  1  0
 20 37  1  0
 21 38  1  0
 21 39  1  0
 22 40  1  0
 22 41  1  0
 23 42  1  0
 24 43  1  0
M  CHG  1   8   1
M  END
$$$$
