
     RDKit          3D

 47 50  0  0  0  0  0  0  0  0999 V2000
   -6.7956   -0.2534    1.5916 C   0  0  0  0  0  0  0  0  0  0  0  0
   -5.7110    0.7385    1.9887 C   0  0  0  0  0  0  0  0  0  0  0  0
   -5.0203    1.3606    0.7759 C   0  0  0  0  0  0  0  0  0  0  0  0
   -4.4196    0.3697   -0.0535 O   0  0  0  0  0  0  0  0  0  0  0  0
   -3.1218   -0.0113    0.1707 C   0  0  0  0  0  0  0  0  0  0  0  0
   -2.3575    0.3736    1.2756 C   0  0  0  0  0  0  0  0  0  0  0  0
   -1.0418   -0.0755    1.4179 C   0  0  0  0  0  0  0  0  0  0  0  0
   -0.4748   -0.9129    0.4555 C   0  0  0  0  0  0  0  0  0  0  0  0
    0.9022   -1.3957    0.5940 C   0  0  0  0  0  0  0  0  0  0  0  0
    2.0076   -0.6503    0.4535 C   0  0  0  0  0  0  0  0  0  0  0  0
    2.0910    1.0588    0.0674 S   0  0  0  0  0  0  0  0  0  0  0  0
    3.8032    0.9763    0.1107 C   0  0  0  0  0  0  0  0  0  0  0  0
    4.7763    1.8226   -0.0639 N   0  0  0  0  0  0  0  0  0  0  0  0
    5.8851    1.0092    0.1332 C   0  0  0  0  0  0  0  0  0  0  0  0
    7.3448    1.5601    0.0303 C   0  0  0  0  0  0  0  0  0  0  0  0
    7.6873    2.8676   -0.2575 C   0  0  0  0  0  0  0  0  0  0  0  0
    9.1020    2.9294   -0.2516 C   0  0  0  0  0  0  0  0  0  0  0  0
    9.5366    1.6583    0.0391 C   0  0  0  0  0  0  0  0  0  0  0  0
    8.4816    0.8220    0.2115 O   0  0  0  0  0  0  0  0  0  0  0  0
    5.6089   -0.2801    0.4176 N   0  0  0  0  0  0  0  0  0  0  0  0
    4.2672   -0.2570    0.3934 N   0  0  0  0  0  0  0  0  0  0  0  0
    3.3591   -1.2713    0.6084 C   0  0  0  0  0  0  0  0  0  0  0  0
    3.6596   -2.4221    0.8677 O   0  0  0  0  0  0  0  0  0  0  0  0
   -1.2387   -1.3146   -0.6464 C   0  0  0  0  0  0  0  0  0  0  0  0
   -2.5584   -0.8703   -0.7959 C   0  0  0  0  0  0  0  0  0  0  0  0
   -3.3767   -1.2102   -1.8454 O   0  0  0  0  0  0  0  0  0  0  0  0
   -2.8673   -2.1033   -2.8310 C   0  0  0  0  0  0  0  0  0  0  0  0
   -3.9603   -2.3394   -3.8580 C   0  0  0  0  0  0  0  0  0  0  0  0
   -7.2902   -0.6486    2.4846 H   0  0  0  0  0  0  0  0  0  0  0  0
   -7.5559    0.2265    0.9673 H   0  0  0  0  0  0  0  0  0  0  0  0
   -6.3777   -1.0993    1.0369 H   0  0  0  0  0  0  0  0  0  0  0  0
   -4.9818    0.2148    2.6158 H   0  0  0  0  0  0  0  0  0  0  0  0
   -6.1552    1.5344    2.5967 H   0  0  0  0  0  0  0  0  0  0  0  0
   -5.7756    1.8632    0.1597 H   0  0  0  0  0  0  0  0  0  0  0  0
   -4.3117    2.1449    1.0651 H   0  0  0  0  0  0  0  0  0  0  0  0
   -2.7568    1.0147    2.0535 H   0  0  0  0  0  0  0  0  0  0  0  0
   -0.4711    0.2339    2.2909 H   0  0  0  0  0  0  0  0  0  0  0  0
    0.9877   -2.4601    0.8129 H   0  0  0  0  0  0  0  0  0  0  0  0
    6.9915    3.6734   -0.4478 H   0  0  0  0  0  0  0  0  0  0  0  0
    9.7270    3.7918   -0.4360 H   0  0  0  0  0  0  0  0  0  0  0  0
   10.5123    1.2067    0.1538 H   0  0  0  0  0  0  0  0  0  0  0  0
   -0.7842   -1.9721   -1.3802 H   0  0  0  0  0  0  0  0  0  0  0  0
   -1.9975   -1.6619   -3.3308 H   0  0  0  0  0  0  0  0  0  0  0  0
   -2.5946   -3.0612   -2.3735 H   0  0  0  0  0  0  0  0  0  0  0  0
   -3.6186   -3.0216   -4.6414 H   0  0  0  0  0  0  0  0  0  0  0  0
   -4.2657   -1.3947   -4.3200 H   0  0  0  0  0  0  0  0  0  0  0  0
   -4.8507   -2.7641   -3.3825 H   0  0  0  0  0  0  0  0  0  0  0  0
  1  2  1  0
  2  3  1  0
  3  4  1  0
  4  5  1  0
  5  6  2  0
  6  7  1  0
  7  8  2  0
  8  9  1  0
  9 10  2  3
 10 11  1  0
 11 12  1  0
 12 13  2  0
 13 14  1  0
 14 15  1  0
 15 16  2  0
 16 17  1  0
 17 18  2  0
 18 19  1  0
 14 20  2  0
 20 21  1  0
 21 22  1  0
 22 23  2  0
  8 24  1  0
 24 25  2  0
 25 26  1  0
 26 27  1  0
 27 28  1  0
 25  5  1  0
 22 10  1  0
 21 12  1  0
 19 15  1  0
  1 29  1  0
  1 30  1  0
  1 31  1  0
  2 32  1  0
  2 33  1  0
  3 34  1  0
  3 35  1  0
  6 36  1  0
  7 37  1  0
  9 38  1  0
 16 39  1  0
 17 40  1  0
 18 41  1  0
 24 42  1  0
 27 43  1  0
 27 44  1  0
 28 45  1  0
 28 46  1  0
 28 47  1  0
M  END
$$$$
