
     RDKit          3D

 35 36  0  0  0  0  0  0  0  0999 V2000
    6.2384   -0.7020   -0.4700 C   0  0  0  0  0  0  0  0  0  0  0  0
    5.1204   -0.2466    0.4192 C   0  0  0  0  0  0  0  0  0  0  0  0
    5.3975    0.2539    1.6851 C   0  0  0  0  0  0  0  0  0  0  0  0
    4.3367    0.6663    2.4813 C   0  0  0  0  0  0  0  0  0  0  0  0
    3.0355    0.5685    1.9949 C   0  0  0  0  0  0  0  0  0  0  0  0
    2.8390    0.0585    0.7215 C   0  0  0  0  0  0  0  0  0  0  0  0
    1.5932   -0.0937    0.1141 N   0  0  0  0  0  0  0  0  0  0  0  0
    0.3464    0.2143    0.6214 C   0  0  0  0  0  0  0  0  0  0  0  0
    0.1255    0.6896    1.7308 O   0  0  0  0  0  0  0  0  0  0  0  0
   -0.7675   -0.1118   -0.3821 C   0  0  0  0  0  0  0  0  0  0  0  0
   -2.0463    0.2058    0.1426 O   0  0  0  0  0  0  0  0  0  0  0  0
   -3.1386   -0.0342   -0.6483 C   0  0  0  0  0  0  0  0  0  0  0  0
   -3.0924   -0.5706   -1.9392 C   0  0  0  0  0  0  0  0  0  0  0  0
   -4.2706   -0.7758   -2.6620 C   0  0  0  0  0  0  0  0  0  0  0  0
   -5.5014   -0.4473   -2.1018 C   0  0  0  0  0  0  0  0  0  0  0  0
   -5.5578    0.0876   -0.8163 C   0  0  0  0  0  0  0  0  0  0  0  0
   -4.3822    0.2985   -0.0802 C   0  0  0  0  0  0  0  0  0  0  0  0
   -4.4627    0.8770    1.3062 C   0  0  0  0  0  0  0  0  0  0  0  0
    3.8592   -0.3474   -0.0667 N   0  0  0  0  0  0  0  0  0  0  0  0
    6.7922   -1.5171    0.0060 H   0  0  0  0  0  0  0  0  0  0  0  0
    5.8513   -1.0663   -1.4271 H   0  0  0  0  0  0  0  0  0  0  0  0
    6.9223    0.1280   -0.6729 H   0  0  0  0  0  0  0  0  0  0  0  0
    6.4175    0.3233    2.0488 H   0  0  0  0  0  0  0  0  0  0  0  0
    4.5167    1.0629    3.4767 H   0  0  0  0  0  0  0  0  0  0  0  0
    2.2148    0.8926    2.6231 H   0  0  0  0  0  0  0  0  0  0  0  0
    1.6784   -0.4836   -0.8144 H   0  0  0  0  0  0  0  0  0  0  0  0
   -0.5749    0.4788   -1.2861 H   0  0  0  0  0  0  0  0  0  0  0  0
   -0.7064   -1.1852   -0.5993 H   0  0  0  0  0  0  0  0  0  0  0  0
   -2.1573   -0.8415   -2.4164 H   0  0  0  0  0  0  0  0  0  0  0  0
   -4.2267   -1.1931   -3.6647 H   0  0  0  0  0  0  0  0  0  0  0  0
   -6.4174   -0.6071   -2.6645 H   0  0  0  0  0  0  0  0  0  0  0  0
   -6.5257    0.3404   -0.3893 H   0  0  0  0  0  0  0  0  0  0  0  0
   -3.9140    1.8232    1.3547 H   0  0  0  0  0  0  0  0  0  0  0  0
   -5.4988    1.0792    1.5976 H   0  0  0  0  0  0  0  0  0  0  0  0
   -4.0443    0.1751    2.0349 H   0  0  0  0  0  0  0  0  0  0  0  0
  1  2  1  0
  2  3  2  0
  3  4  1  0
  4  5  2  0
  5  6  1  0
  6  7  1  0
  7  8  1  0
  8  9  2  0
  8 10  1  0
 10 11  1  0
 11 12  1  0
 12 13  2  0
 13 14  1  0
 14 15  2  0
 15 16  1  0
 16 17  2  0
 17 18  1  0
  6 19  2  0
 19  2  1  0
 17 12  1  0
  1 20  1  0
  1 21  1  0
  1 22  1  0
  3 23  1  0
  4 24  1  0
  5 25  1  0
  7 26  1  0
 10 27  1  0
 10 28  1  0
 13 29  1  0
 14 30  1  0
 15 31  1  0
 16 32  1  0
 18 33  1  0
 18 34  1  0
 18 35  1  0
M  END
$$$$
