
     RDKit          3D

 57 61  0  0  0  0  0  0  0  0999 V2000
    0.1627    1.8899    0.7521 O   0  0  0  0  0  0  0  0  0  0  0  0
    0.5741    0.7724   -0.0517 C   0  0  0  0  0  0  0  0  0  0  0  0
    1.1314   -0.3411    0.8522 C   0  0  0  0  0  0  0  0  0  0  0  0
    2.2338    0.1667    1.6731 N   0  0  0  0  0  0  0  0  0  0  0  0
    3.5171    0.2890    1.1819 C   0  0  0  0  0  0  0  0  0  0  0  0
    3.7292    0.2371   -0.1056 N   0  0  0  0  0  0  0  0  0  0  0  0
    5.0382    0.3559   -0.6162 C   0  0  0  0  0  0  0  0  0  0  0  0
    5.2190    0.2946   -1.9991 C   0  0  0  0  0  0  0  0  0  0  0  0
    6.4957    0.4045   -2.5569 C   0  0  0  0  0  0  0  0  0  0  0  0
    7.6084    0.5774   -1.7325 C   0  0  0  0  0  0  0  0  0  0  0  0
    7.4520    0.6420   -0.3475 C   0  0  0  0  0  0  0  0  0  0  0  0
    6.1691    0.5306    0.1962 C   0  0  0  0  0  0  0  0  0  0  0  0
    5.9211    0.5880    1.5775 N   0  0  0  0  0  0  0  0  0  0  0  0
    6.7991    0.7526    2.6221 C   0  0  0  0  0  0  0  0  0  0  0  0
    6.0760    0.7580    3.7958 C   0  0  0  0  0  0  0  0  0  0  0  0
    4.7138    0.5876    3.4524 C   0  0  0  0  0  0  0  0  0  0  0  0
    4.6424    0.4768    2.0755 C   0  0  0  0  0  0  0  0  0  0  0  0
   -0.5744    0.2822   -0.9653 C   0  0  0  0  0  0  0  0  0  0  0  0
   -1.6032   -0.5667   -0.3268 N   0  0  0  0  0  0  0  0  0  0  0  0
   -2.3765   -1.2907   -1.3648 C   0  0  0  0  0  0  0  0  0  0  0  0
   -3.7784   -1.7595   -0.9111 C   0  0  0  0  0  0  0  0  0  0  0  0
   -4.6073   -0.6071   -0.5270 N   0  0  0  0  0  0  0  0  0  0  0  0
   -5.9894   -0.6434   -0.5970 C   0  0  0  0  0  0  0  0  0  0  0  0
   -6.7621    0.5299   -0.6172 C   0  0  0  0  0  0  0  0  0  0  0  0
   -8.1607    0.5000   -0.6901 C   0  0  0  0  0  0  0  0  0  0  0  0
   -8.8297   -0.7160   -0.7438 C   0  0  0  0  0  0  0  0  0  0  0  0
   -8.0975   -1.8961   -0.7253 C   0  0  0  0  0  0  0  0  0  0  0  0
   -6.6990   -1.8546   -0.6538 C   0  0  0  0  0  0  0  0  0  0  0  0
   -3.8865    0.5806   -0.0393 C   0  0  0  0  0  0  0  0  0  0  0  0
   -2.5135    0.1929    0.5620 C   0  0  0  0  0  0  0  0  0  0  0  0
    0.9326    2.0671    1.3270 H   0  0  0  0  0  0  0  0  0  0  0  0
    1.3639    1.1576   -0.7063 H   0  0  0  0  0  0  0  0  0  0  0  0
    0.3526   -0.6761    1.5464 H   0  0  0  0  0  0  0  0  0  0  0  0
    1.4512   -1.2112    0.2676 H   0  0  0  0  0  0  0  0  0  0  0  0
    2.1803   -0.1246    2.6421 H   0  0  0  0  0  0  0  0  0  0  0  0
    4.3553    0.1601   -2.6446 H   0  0  0  0  0  0  0  0  0  0  0  0
    6.6198    0.3551   -3.6358 H   0  0  0  0  0  0  0  0  0  0  0  0
    8.5994    0.6628   -2.1720 H   0  0  0  0  0  0  0  0  0  0  0  0
    8.3315    0.7780    0.2729 H   0  0  0  0  0  0  0  0  0  0  0  0
    7.8624    0.8576    2.4619 H   0  0  0  0  0  0  0  0  0  0  0  0
    6.4874    0.8756    4.7904 H   0  0  0  0  0  0  0  0  0  0  0  0
    3.8799    0.5541    4.1406 H   0  0  0  0  0  0  0  0  0  0  0  0
   -0.0950   -0.3108   -1.7561 H   0  0  0  0  0  0  0  0  0  0  0  0
   -1.0498    1.1444   -1.4508 H   0  0  0  0  0  0  0  0  0  0  0  0
   -2.5129   -0.6519   -2.2491 H   0  0  0  0  0  0  0  0  0  0  0  0
   -1.7958   -2.1640   -1.6840 H   0  0  0  0  0  0  0  0  0  0  0  0
   -3.6909   -2.4527   -0.0659 H   0  0  0  0  0  0  0  0  0  0  0  0
   -4.2281   -2.3005   -1.7525 H   0  0  0  0  0  0  0  0  0  0  0  0
   -6.2834    1.5049   -0.6000 H   0  0  0  0  0  0  0  0  0  0  0  0
   -8.7201    1.4313   -0.7090 H   0  0  0  0  0  0  0  0  0  0  0  0
   -9.9140   -0.7437   -0.7996 H   0  0  0  0  0  0  0  0  0  0  0  0
   -8.6078   -2.8547   -0.7612 H   0  0  0  0  0  0  0  0  0  0  0  0
   -6.1724   -2.8039   -0.6190 H   0  0  0  0  0  0  0  0  0  0  0  0
   -3.7471    1.2902   -0.8636 H   0  0  0  0  0  0  0  0  0  0  0  0
   -4.4563    1.0824    0.7522 H   0  0  0  0  0  0  0  0  0  0  0  0
   -2.0451    1.0910    0.9707 H   0  0  0  0  0  0  0  0  0  0  0  0
   -2.7024   -0.4518    1.4312 H   0  0  0  0  0  0  0  0  0  0  0  0
  1  2  1  0
  2  3  1  0
  3  4  1  0
  4  5  1  0
  5  6  2  0
  6  7  1  0
  7  8  2  0
  8  9  1  0
  9 10  2  0
 10 11  1  0
 11 12  2  0
 12 13  1  0
 13 14  1  0
 14 15  2  0
 15 16  1  0
 16 17  2  0
  2 18  1  0
 18 19  1  0
 19 20  1  0
 20 21  1  0
 21 22  1  0
 22 23  1  0
 23 24  2  0
 24 25  1  0
 25 26  2  0
 26 27  1  0
 27 28  2  0
 22 29  1  0
 29 30  1  0
 17  5  1  0
 30 19  1  0
 12  7  1  0
 17 13  1  0
 28 23  1  0
  1 31  1  0
  2 32  1  0
  3 33  1  0
  3 34  1  0
  4 35  1  0
  8 36  1  0
  9 37  1  0
 10 38  1  0
 11 39  1  0
 14 40  1  0
 15 41  1  0
 16 42  1  0
 18 43  1  0
 18 44  1  0
 20 45  1  0
 20 46  1  0
 21 47  1  0
 21 48  1  0
 24 49  1  0
 25 50  1  0
 26 51  1  0
 27 52  1  0
 28 53  1  0
 29 54  1  0
 29 55  1  0
 30 56  1  0
 30 57  1  0
M  END
$$$$
