
     RDKit          3D

 59 62  0  0  0  0  0  0  0  0999 V2000
   -7.4999    0.9280    0.1644 C   0  0  0  0  0  0  0  0  0  0  0  0
   -6.7628    0.8961   -1.1624 C   0  0  0  0  0  0  0  0  0  0  0  0
   -5.9422   -0.2962   -1.3069 N   0  0  0  0  0  0  0  0  0  0  0  0
   -6.3792   -1.4882   -1.8538 C   0  0  0  0  0  0  0  0  0  0  0  0
   -7.6324   -1.8718   -2.3616 C   0  0  0  0  0  0  0  0  0  0  0  0
   -7.7749   -3.1697   -2.8610 C   0  0  0  0  0  0  0  0  0  0  0  0
   -6.7062   -4.0592   -2.8557 C   0  0  0  0  0  0  0  0  0  0  0  0
   -5.4641   -3.6708   -2.3451 C   0  0  0  0  0  0  0  0  0  0  0  0
   -5.2942   -2.3664   -1.8328 C   0  0  0  0  0  0  0  0  0  0  0  0
   -4.1896   -1.6751   -1.2443 C   0  0  0  0  0  0  0  0  0  0  0  0
   -2.8558   -2.0401   -0.9525 C   0  0  0  0  0  0  0  0  0  0  0  0
   -1.9831   -1.1246   -0.3424 C   0  0  0  0  0  0  0  0  0  0  0  0
   -0.6766   -1.5813   -0.0671 N   0  0  0  0  0  0  0  0  0  0  0  0
    0.3693   -0.8699    0.5043 C   0  0  0  0  0  0  0  0  0  0  0  0
    0.3498    0.3151    0.8269 O   0  0  0  0  0  0  0  0  0  0  0  0
    1.6178   -1.7470    0.7439 C   0  0  0  0  0  0  0  0  0  0  0  0
    1.3856   -2.6353    1.9613 C   0  0  0  0  0  0  0  0  0  0  0  0
    2.7824   -0.9591    1.0095 O   0  0  0  0  0  0  0  0  0  0  0  0
    3.3219   -0.3736   -0.0876 C   0  0  0  0  0  0  0  0  0  0  0  0
    2.9701   -0.5646   -1.2416 O   0  0  0  0  0  0  0  0  0  0  0  0
    4.4552    0.5111    0.2953 C   0  0  0  0  0  0  0  0  0  0  0  0
    4.7496    0.8224    1.6262 C   0  0  0  0  0  0  0  0  0  0  0  0
    5.8377    1.6486    1.9377 C   0  0  0  0  0  0  0  0  0  0  0  0
    6.6437    2.1766    0.9274 C   0  0  0  0  0  0  0  0  0  0  0  0
    7.7748    2.9889    1.1605 N   0  0  0  0  0  0  0  0  0  0  0  0
    8.2483    3.4395    2.3838 C   0  0  0  0  0  0  0  0  0  0  0  0
    7.7231    3.2521    3.4779 O   0  0  0  0  0  0  0  0  0  0  0  0
    9.5462    4.2061    2.2816 C   0  0  0  0  0  0  0  0  0  0  0  0
    9.2950    5.5759    1.8431 C   0  0  0  0  0  0  0  0  0  0  0  0
    9.1215    6.6555    1.4534 N   0  0  0  0  0  0  0  0  0  0  0  0
    6.3362    1.8751   -0.4052 C   0  0  0  0  0  0  0  0  0  0  0  0
    5.2511    1.0497   -0.7200 C   0  0  0  0  0  0  0  0  0  0  0  0
   -2.4452    0.1510   -0.0307 C   0  0  0  0  0  0  0  0  0  0  0  0
   -3.7622    0.5411   -0.3126 C   0  0  0  0  0  0  0  0  0  0  0  0
   -4.6188   -0.3894   -0.9204 C   0  0  0  0  0  0  0  0  0  0  0  0
   -6.8003    0.9261    1.0064 H   0  0  0  0  0  0  0  0  0  0  0  0
   -8.1152    1.8289    0.2344 H   0  0  0  0  0  0  0  0  0  0  0  0
   -8.1559    0.0580    0.2742 H   0  0  0  0  0  0  0  0  0  0  0  0
   -7.4693    0.9270   -1.9986 H   0  0  0  0  0  0  0  0  0  0  0  0
   -6.1149    1.7726   -1.2669 H   0  0  0  0  0  0  0  0  0  0  0  0
   -8.4765   -1.1897   -2.3700 H   0  0  0  0  0  0  0  0  0  0  0  0
   -8.7363   -3.4869   -3.2586 H   0  0  0  0  0  0  0  0  0  0  0  0
   -6.8358   -5.0644   -3.2487 H   0  0  0  0  0  0  0  0  0  0  0  0
   -4.6356   -4.3724   -2.3422 H   0  0  0  0  0  0  0  0  0  0  0  0
   -2.5260   -3.0426   -1.2058 H   0  0  0  0  0  0  0  0  0  0  0  0
   -0.4804   -2.5320   -0.3519 H   0  0  0  0  0  0  0  0  0  0  0  0
    1.7909   -2.3903   -0.1289 H   0  0  0  0  0  0  0  0  0  0  0  0
    2.2690   -3.2515    2.1592 H   0  0  0  0  0  0  0  0  0  0  0  0
    0.5228   -3.2942    1.8251 H   0  0  0  0  0  0  0  0  0  0  0  0
    1.2128   -2.0292    2.8574 H   0  0  0  0  0  0  0  0  0  0  0  0
    4.1409    0.4337    2.4389 H   0  0  0  0  0  0  0  0  0  0  0  0
    6.0244    1.8528    2.9871 H   0  0  0  0  0  0  0  0  0  0  0  0
    8.2736    3.2864    0.3291 H   0  0  0  0  0  0  0  0  0  0  0  0
   10.0355    4.1958    3.2615 H   0  0  0  0  0  0  0  0  0  0  0  0
   10.2176    3.6889    1.5880 H   0  0  0  0  0  0  0  0  0  0  0  0
    6.9328    2.2743   -1.2214 H   0  0  0  0  0  0  0  0  0  0  0  0
    5.0304    0.8291   -1.7634 H   0  0  0  0  0  0  0  0  0  0  0  0
   -1.8021    0.8868    0.4437 H   0  0  0  0  0  0  0  0  0  0  0  0
   -4.0946    1.5419   -0.0550 H   0  0  0  0  0  0  0  0  0  0  0  0
  1  2  1  0
  2  3  1  0
  3  4  1  0
  4  5  2  0
  5  6  1  0
  6  7  2  0
  7  8  1  0
  8  9  2  0
  9 10  1  0
 10 11  2  0
 11 12  1  0
 12 13  1  0
 13 14  1  0
 14 15  2  0
 14 16  1  0
 16 17  1  0
 16 18  1  0
 18 19  1  0
 19 20  2  0
 19 21  1  0
 21 22  2  0
 22 23  1  0
 23 24  2  0
 24 25  1  0
 25 26  1  0
 26 27  2  0
 26 28  1  0
 28 29  1  0
 29 30  3  0
 24 31  1  0
 31 32  2  0
 12 33  2  0
 33 34  1  0
 34 35  2  0
 35  3  1  0
  9  4  1  0
 35 10  1  0
 32 21  1  0
  1 36  1  0
  1 37  1  0
  1 38  1  0
  2 39  1  0
  2 40  1  0
  5 41  1  0
  6 42  1  0
  7 43  1  0
  8 44  1  0
 11 45  1  0
 13 46  1  0
 16 47  1  0
 17 48  1  0
 17 49  1  0
 17 50  1  0
 22 51  1  0
 23 52  1  0
 25 53  1  0
 28 54  1  0
 28 55  1  0
 31 56  1  0
 32 57  1  0
 33 58  1  0
 34 59  1  0
M  END
$$$$
