
     RDKit          3D

 44 46  0  0  0  0  0  0  0  0999 V2000
   -2.7594   -1.3653    3.6888 C   0  0  0  0  0  0  0  0  0  0  0  0
   -2.5200   -1.2938    2.2093 C   0  0  0  0  0  0  0  0  0  0  0  0
   -1.8285   -2.3121    1.5532 C   0  0  0  0  0  0  0  0  0  0  0  0
   -1.5621   -2.2571    0.1707 C   0  0  0  0  0  0  0  0  0  0  0  0
   -0.8409   -3.4391   -0.4191 C   0  0  0  0  0  0  0  0  0  0  0  0
   -1.9899   -1.1232   -0.5644 C   0  0  0  0  0  0  0  0  0  0  0  0
   -1.6530   -0.9759   -2.3360 S   0  0  0  0  0  6  0  0  0  0  0  0
   -1.1136   -2.2146   -2.8538 O   0  0  0  0  0  0  0  0  0  0  0  0
   -2.8150   -0.3848   -2.9672 O   0  0  0  0  0  0  0  0  0  0  0  0
   -0.4309    0.1938   -2.4029 N   0  0  0  0  0  0  0  0  0  0  0  0
    0.7538   -0.0018   -1.6428 C   0  0  0  0  0  0  0  0  0  0  0  0
    1.6827   -0.9660   -2.0283 C   0  0  0  0  0  0  0  0  0  0  0  0
    2.8264   -1.1802   -1.2584 C   0  0  0  0  0  0  0  0  0  0  0  0
    3.0302   -0.4294   -0.0994 C   0  0  0  0  0  0  0  0  0  0  0  0
    4.1500   -0.6501    0.6560 O   0  0  0  0  0  0  0  0  0  0  0  0
    2.1002    0.5418    0.2985 C   0  0  0  0  0  0  0  0  0  0  0  0
    2.3130    1.4977    1.7920 S   0  0  0  0  0  0  0  0  0  0  0  0
    2.9791    2.9878    1.1745 C   0  0  0  0  0  0  0  0  0  0  0  0
    2.9412    3.3655   -0.1451 N   0  0  0  0  0  0  0  0  0  0  0  0
    3.5316    4.5367   -0.1379 C   0  0  0  0  0  0  0  0  0  0  0  0
    3.8899    4.8540    1.1324 N   0  0  0  0  0  0  0  0  0  0  0  0
    3.5320    3.8910    1.9933 N   0  0  0  0  0  0  0  0  0  0  0  0
    0.9552    0.7464   -0.4829 C   0  0  0  0  0  0  0  0  0  0  0  0
   -2.6933   -0.0785    0.0944 C   0  0  0  0  0  0  0  0  0  0  0  0
   -3.2387    1.1460   -0.5936 C   0  0  0  0  0  0  0  0  0  0  0  0
   -2.9418   -0.1857    1.4759 C   0  0  0  0  0  0  0  0  0  0  0  0
   -3.6890   -0.8537    3.9595 H   0  0  0  0  0  0  0  0  0  0  0  0
   -2.8538   -2.4049    4.0202 H   0  0  0  0  0  0  0  0  0  0  0  0
   -1.9281   -0.8971    4.2250 H   0  0  0  0  0  0  0  0  0  0  0  0
   -1.4926   -3.1724    2.1323 H   0  0  0  0  0  0  0  0  0  0  0  0
   -0.5783   -4.1751    0.3498 H   0  0  0  0  0  0  0  0  0  0  0  0
   -1.4809   -3.9589   -1.1381 H   0  0  0  0  0  0  0  0  0  0  0  0
    0.1007   -3.1344   -0.8809 H   0  0  0  0  0  0  0  0  0  0  0  0
   -0.7983    1.1400   -2.4735 H   0  0  0  0  0  0  0  0  0  0  0  0
    1.5217   -1.5539   -2.9295 H   0  0  0  0  0  0  0  0  0  0  0  0
    3.5393   -1.9355   -1.5747 H   0  0  0  0  0  0  0  0  0  0  0  0
    4.6934   -1.3340    0.2331 H   0  0  0  0  0  0  0  0  0  0  0  0
    3.7189    5.1757   -0.9888 H   0  0  0  0  0  0  0  0  0  0  0  0
    4.3605    5.6819    1.4798 H   0  0  0  0  0  0  0  0  0  0  0  0
    0.2245    1.4909   -0.1793 H   0  0  0  0  0  0  0  0  0  0  0  0
   -4.1095    0.8849   -1.2021 H   0  0  0  0  0  0  0  0  0  0  0  0
   -3.5687    1.8978    0.1329 H   0  0  0  0  0  0  0  0  0  0  0  0
   -2.4790    1.6361   -1.2055 H   0  0  0  0  0  0  0  0  0  0  0  0
   -3.4789    0.6099    1.9917 H   0  0  0  0  0  0  0  0  0  0  0  0
  1  2  1  0
  2  3  2  0
  3  4  1  0
  4  5  1  0
  4  6  2  0
  6  7  1  0
  7  8  2  0
  7  9  2  0
  7 10  1  0
 10 11  1  0
 11 12  2  0
 12 13  1  0
 13 14  2  0
 14 15  1  0
 14 16  1  0
 16 17  1  0
 17 18  1  0
 18 19  1  0
 19 20  2  0
 20 21  1  0
 21 22  1  0
 16 23  2  0
  6 24  1  0
 24 25  1  0
 24 26  2  0
 26  2  1  0
 23 11  1  0
 22 18  2  0
  1 27  1  0
  1 28  1  0
  1 29  1  0
  3 30  1  0
  5 31  1  0
  5 32  1  0
  5 33  1  0
 10 34  1  0
 12 35  1  0
 13 36  1  0
 15 37  1  0
 20 38  1  0
 21 39  1  0
 23 40  1  0
 25 41  1  0
 25 42  1  0
 25 43  1  0
 26 44  1  0
M  END
$$$$
