
     RDKit          3D

 31 31  0  0  0  0  0  0  0  0999 V2000
    5.4284   -0.1650    1.0194 C   0  0  0  0  0  0  0  0  0  0  0  0
    4.2902    0.4471    0.4317 O   0  0  0  0  0  0  0  0  0  0  0  0
    3.0787   -0.0949    0.9518 C   0  0  0  0  0  0  0  0  0  0  0  0
    1.9679    0.5577    0.3336 O   0  0  0  0  0  0  0  0  0  0  0  0
    0.7616    0.0229    0.7171 C   0  0  0  0  0  0  0  0  0  0  0  0
   -0.3603    0.2102    0.0037 C   0  0  0  0  0  0  0  0  0  0  0  0
   -0.3035    0.9554   -1.1530 N   0  0  0  0  0  0  0  0  0  0  0  0
   -1.3273    1.2580   -2.0291 C   0  0  0  0  0  0  0  0  0  0  0  0
   -0.8621    2.1087   -3.1842 C   0  0  0  0  0  0  0  0  0  0  0  0
   -2.4931    0.8873   -1.9522 O   0  0  0  0  0  0  0  0  0  0  0  0
   -1.6062   -0.3919    0.4965 C   0  0  0  0  0  0  0  0  0  0  0  0
   -1.9712   -1.6862    0.1030 C   0  0  0  0  0  0  0  0  0  0  0  0
   -3.1323   -2.2749    0.6080 C   0  0  0  0  0  0  0  0  0  0  0  0
   -3.9326   -1.5767    1.5116 C   0  0  0  0  0  0  0  0  0  0  0  0
   -3.5761   -0.2887    1.9095 C   0  0  0  0  0  0  0  0  0  0  0  0
   -2.4156    0.3022    1.4056 C   0  0  0  0  0  0  0  0  0  0  0  0
    5.4405   -1.2383    0.8062 H   0  0  0  0  0  0  0  0  0  0  0  0
    5.4405    0.0044    2.1005 H   0  0  0  0  0  0  0  0  0  0  0  0
    6.3249    0.2864    0.5860 H   0  0  0  0  0  0  0  0  0  0  0  0
    3.0436   -1.1697    0.7331 H   0  0  0  0  0  0  0  0  0  0  0  0
    3.0440    0.0744    2.0352 H   0  0  0  0  0  0  0  0  0  0  0  0
    0.7794   -0.5413    1.6414 H   0  0  0  0  0  0  0  0  0  0  0  0
    0.6216    1.3179   -1.3655 H   0  0  0  0  0  0  0  0  0  0  0  0
   -1.6993    2.7096   -3.5510 H   0  0  0  0  0  0  0  0  0  0  0  0
   -0.0657    2.7922   -2.8761 H   0  0  0  0  0  0  0  0  0  0  0  0
   -0.4989    1.4608   -3.9861 H   0  0  0  0  0  0  0  0  0  0  0  0
   -1.3606   -2.2332   -0.6106 H   0  0  0  0  0  0  0  0  0  0  0  0
   -3.4174   -3.2732    0.2875 H   0  0  0  0  0  0  0  0  0  0  0  0
   -4.8413   -2.0319    1.8965 H   0  0  0  0  0  0  0  0  0  0  0  0
   -4.2063    0.2602    2.6039 H   0  0  0  0  0  0  0  0  0  0  0  0
   -2.1514    1.3107    1.7136 H   0  0  0  0  0  0  0  0  0  0  0  0
  1  2  1  0
  2  3  1  0
  3  4  1  0
  4  5  1  0
  5  6  2  3
  6  7  1  0
  7  8  1  0
  8  9  1  0
  8 10  2  0
  6 11  1  0
 11 12  2  0
 12 13  1  0
 13 14  2  0
 14 15  1  0
 15 16  2  0
 16 11  1  0
  1 17  1  0
  1 18  1  0
  1 19  1  0
  3 20  1  0
  3 21  1  0
  5 22  1  0
  7 23  1  0
  9 24  1  0
  9 25  1  0
  9 26  1  0
 12 27  1  0
 13 28  1  0
 14 29  1  0
 15 30  1  0
 16 31  1  0
M  END
$$$$
