
     RDKit          3D

 38 38  0  0  0  0  0  0  0  0999 V2000
    6.0790   -0.1618   -2.4015 C   0  0  0  0  0  0  0  0  0  0  0  0
    4.7448    0.5115   -2.1393 C   0  0  0  0  0  0  0  0  0  0  0  0
    3.7633   -0.5116   -1.9246 O   0  0  0  0  0  0  0  0  0  0  0  0
    2.5103   -0.0403   -1.6637 C   0  0  0  0  0  0  0  0  0  0  0  0
    2.2120    1.1416   -1.5614 O   0  0  0  0  0  0  0  0  0  0  0  0
    1.5675   -1.1882   -1.4464 C   0  0  0  0  0  0  0  0  0  0  0  0
    0.1364   -0.7937   -1.6993 C   0  0  0  0  0  0  0  0  0  0  0  0
   -0.3302   -0.7466   -2.8373 O   0  0  0  0  0  0  0  0  0  0  0  0
   -0.7206   -0.3912   -0.5545 C   0  0  0  0  0  0  0  0  0  0  0  0
   -1.5908    0.6943   -0.7388 C   0  0  0  0  0  0  0  0  0  0  0  0
   -2.4320    1.1042    0.2948 C   0  0  0  0  0  0  0  0  0  0  0  0
   -3.3104    2.1540    0.2231 O   0  0  0  0  0  0  0  0  0  0  0  0
   -3.2794    2.9564   -0.9470 C   0  0  0  0  0  0  0  0  0  0  0  0
   -2.4044    0.3959    1.5080 C   0  0  0  0  0  0  0  0  0  0  0  0
   -3.1923    0.8189    2.5610 O   0  0  0  0  0  0  0  0  0  0  0  0
   -4.4814    0.2034    2.4830 C   0  0  0  0  0  0  0  0  0  0  0  0
   -1.5303   -0.6903    1.7043 C   0  0  0  0  0  0  0  0  0  0  0  0
   -1.5945   -1.3050    2.9274 O   0  0  0  0  0  0  0  0  0  0  0  0
   -0.5661   -2.2346    3.2492 C   0  0  0  0  0  0  0  0  0  0  0  0
   -0.6956   -1.0893    0.6576 C   0  0  0  0  0  0  0  0  0  0  0  0
    6.8615    0.5766   -2.5877 H   0  0  0  0  0  0  0  0  0  0  0  0
    6.3747   -0.7793   -1.5474 H   0  0  0  0  0  0  0  0  0  0  0  0
    6.0086   -0.8276   -3.2661 H   0  0  0  0  0  0  0  0  0  0  0  0
    4.8193    1.1482   -1.2486 H   0  0  0  0  0  0  0  0  0  0  0  0
    4.4587    1.1179   -3.0074 H   0  0  0  0  0  0  0  0  0  0  0  0
    1.7184   -1.5650   -0.4320 H   0  0  0  0  0  0  0  0  0  0  0  0
    1.8053   -2.0043   -2.1407 H   0  0  0  0  0  0  0  0  0  0  0  0
   -1.5848    1.2001   -1.6994 H   0  0  0  0  0  0  0  0  0  0  0  0
   -2.2940    3.4159   -1.0850 H   0  0  0  0  0  0  0  0  0  0  0  0
   -3.5773    2.3781   -1.8278 H   0  0  0  0  0  0  0  0  0  0  0  0
   -4.0109    3.7628   -0.8181 H   0  0  0  0  0  0  0  0  0  0  0  0
   -5.0325    0.5468    1.6032 H   0  0  0  0  0  0  0  0  0  0  0  0
   -4.4079   -0.8900    2.4787 H   0  0  0  0  0  0  0  0  0  0  0  0
   -5.0501    0.4995    3.3727 H   0  0  0  0  0  0  0  0  0  0  0  0
    0.4274   -1.7795    3.1609 H   0  0  0  0  0  0  0  0  0  0  0  0
   -0.6434   -3.1350    2.6303 H   0  0  0  0  0  0  0  0  0  0  0  0
   -0.7029   -2.5353    4.2903 H   0  0  0  0  0  0  0  0  0  0  0  0
   -0.0555   -1.9575    0.7644 H   0  0  0  0  0  0  0  0  0  0  0  0
  1  2  1  0
  2  3  1  0
  3  4  1  0
  4  5  2  0
  4  6  1  0
  6  7  1  0
  7  8  2  0
  7  9  1  0
  9 10  2  0
 10 11  1  0
 11 12  1  0
 12 13  1  0
 11 14  2  0
 14 15  1  0
 15 16  1  0
 14 17  1  0
 17 18  1  0
 18 19  1  0
 17 20  2  0
 20  9  1  0
  1 21  1  0
  1 22  1  0
  1 23  1  0
  2 24  1  0
  2 25  1  0
  6 26  1  0
  6 27  1  0
 10 28  1  0
 13 29  1  0
 13 30  1  0
 13 31  1  0
 16 32  1  0
 16 33  1  0
 16 34  1  0
 19 35  1  0
 19 36  1  0
 19 37  1  0
 20 38  1  0
M  END
$$$$
