
     RDKit          3D

 29 30  0  0  0  0  0  0  0  0999 V2000
    5.3385    0.8954    2.3983 O   0  0  0  0  0  0  0  0  0  0  0  0
    4.2458    1.3762    2.1251 C   0  0  0  0  0  0  0  0  0  0  0  0
    3.3372    0.7475    1.1462 C   0  0  0  0  0  0  0  0  0  0  0  0
    3.6921   -0.4551    0.5284 C   0  0  0  0  0  0  0  0  0  0  0  0
    2.8291   -1.0397   -0.3990 C   0  0  0  0  0  0  0  0  0  0  0  0
    1.6116   -0.4277   -0.7041 C   0  0  0  0  0  0  0  0  0  0  0  0
    1.2543    0.7663   -0.0699 C   0  0  0  0  0  0  0  0  0  0  0  0
    0.0813    1.4438   -0.3296 O   0  0  0  0  0  0  0  0  0  0  0  0
   -1.0563    0.6845   -0.4543 C   0  0  0  0  0  0  0  0  0  0  0  0
   -1.6410    0.6278   -1.7238 C   0  0  0  0  0  0  0  0  0  0  0  0
   -2.8033   -0.1224   -1.9306 C   0  0  0  0  0  0  0  0  0  0  0  0
   -3.3926   -0.8068   -0.8556 C   0  0  0  0  0  0  0  0  0  0  0  0
   -4.6135   -1.5937   -1.0780 N   0  0  0  0  0  4  0  0  0  0  0  0
   -5.0258   -1.6974   -2.2408 O   0  0  0  0  0  0  0  0  0  0  0  0
   -5.1531   -2.1036   -0.0873 O   0  0  0  0  0  1  0  0  0  0  0  0
   -2.8367   -0.7372    0.4281 C   0  0  0  0  0  0  0  0  0  0  0  0
   -1.6753    0.0254    0.6146 C   0  0  0  0  0  0  0  0  0  0  0  0
   -1.1426    0.1358    1.9603 N   0  0  0  0  0  4  0  0  0  0  0  0
   -0.9743   -0.9214    2.5816 O   0  0  0  0  0  0  0  0  0  0  0  0
   -0.9267    1.2726    2.3999 O   0  0  0  0  0  1  0  0  0  0  0  0
    2.1227    1.3664    0.8443 C   0  0  0  0  0  0  0  0  0  0  0  0
    3.8934    2.3076    2.5993 H   0  0  0  0  0  0  0  0  0  0  0  0
    4.6404   -0.9346    0.7653 H   0  0  0  0  0  0  0  0  0  0  0  0
    3.1105   -1.9703   -0.8869 H   0  0  0  0  0  0  0  0  0  0  0  0
    0.9660   -0.8889   -1.4459 H   0  0  0  0  0  0  0  0  0  0  0  0
   -1.1855    1.1615   -2.5565 H   0  0  0  0  0  0  0  0  0  0  0  0
   -3.2364   -0.1605   -2.9297 H   0  0  0  0  0  0  0  0  0  0  0  0
   -3.2965   -1.2521    1.2707 H   0  0  0  0  0  0  0  0  0  0  0  0
    1.8369    2.3006    1.3214 H   0  0  0  0  0  0  0  0  0  0  0  0
  1  2  2  0
  2  3  1  0
  3  4  2  0
  4  5  1  0
  5  6  2  0
  6  7  1  0
  7  8  1  0
  8  9  1  0
  9 10  2  0
 10 11  1  0
 11 12  2  0
 12 13  1  0
 13 14  2  0
 13 15  1  0
 12 16  1  0
 16 17  2  0
 17 18  1  0
 18 19  2  0
 18 20  1  0
  7 21  2  0
 21  3  1  0
 17  9  1  0
  2 22  1  0
  4 23  1  0
  5 24  1  0
  6 25  1  0
 10 26  1  0
 11 27  1  0
 16 28  1  0
 21 29  1  0
M  CHG  4  13   1  15  -1  18   1  20  -1
M  END
$$$$
