
     RDKit          3D

 54 56  0  0  0  0  0  0  0  0999 V2000
    8.0800    1.0686    1.4833 C   0  0  0  0  0  0  0  0  0  0  0  0
    7.7090    0.0958    0.5162 O   0  0  0  0  0  0  0  0  0  0  0  0
    6.4001   -0.2981    0.5052 C   0  0  0  0  0  0  0  0  0  0  0  0
    5.4017    0.1456    1.3707 C   0  0  0  0  0  0  0  0  0  0  0  0
    4.0945   -0.3404    1.2457 C   0  0  0  0  0  0  0  0  0  0  0  0
    3.7677   -1.2731    0.2532 C   0  0  0  0  0  0  0  0  0  0  0  0
    2.3549   -1.7817    0.1082 C   0  0  0  0  0  0  0  0  0  0  0  0
    1.3628   -0.7158   -0.3678 C   0  0  0  0  0  0  0  0  0  0  0  0
    1.6833   -0.1840   -1.7680 C   0  0  0  0  0  0  0  0  0  0  0  0
    0.6259    0.7430   -2.2350 C   0  0  0  0  0  0  0  0  0  0  0  0
    0.2116    1.8754   -1.7088 N   0  0  0  0  0  0  0  0  0  0  0  0
   -0.8197    2.3155   -2.5077 N   0  0  0  0  0  0  0  0  0  0  0  0
   -0.9641    1.4214   -3.4663 C   0  0  0  0  0  0  0  0  0  0  0  0
   -2.1822    1.5051   -4.6959 S   0  0  0  0  0  0  0  0  0  0  0  0
   -3.5073    2.3137   -3.7510 C   0  0  0  0  0  0  0  0  0  0  0  0
   -4.0573    1.3591   -2.6991 C   0  0  0  0  0  0  0  0  0  0  0  0
   -4.8659    0.4892   -3.0134 O   0  0  0  0  0  0  0  0  0  0  0  0
   -3.5481    1.5811   -1.4305 N   0  0  0  0  0  0  0  0  0  0  0  0
   -3.8347    0.8723   -0.2369 C   0  0  0  0  0  0  0  0  0  0  0  0
   -4.7205   -0.2082   -0.1834 C   0  0  0  0  0  0  0  0  0  0  0  0
   -4.9728   -0.8988    1.0194 C   0  0  0  0  0  0  0  0  0  0  0  0
   -5.9355   -2.0564    1.0102 C   0  0  0  0  0  0  0  0  0  0  0  0
   -4.3308   -0.4916    2.2031 C   0  0  0  0  0  0  0  0  0  0  0  0
   -4.5740   -1.1923    3.5117 C   0  0  0  0  0  0  0  0  0  0  0  0
   -3.4447    0.5926    2.1564 C   0  0  0  0  0  0  0  0  0  0  0  0
   -3.2019    1.2649    0.9537 C   0  0  0  0  0  0  0  0  0  0  0  0
   -2.0034    2.7424    1.0076 Br  0  0  0  0  0  0  0  0  0  0  0  0
   -0.0662    0.3943   -3.3627 O   0  0  0  0  0  0  0  0  0  0  0  0
    4.7756   -1.7202   -0.6075 C   0  0  0  0  0  0  0  0  0  0  0  0
    6.0794   -1.2339   -0.4798 C   0  0  0  0  0  0  0  0  0  0  0  0
    9.1431    1.2865    1.3492 H   0  0  0  0  0  0  0  0  0  0  0  0
    7.9465    0.6858    2.4987 H   0  0  0  0  0  0  0  0  0  0  0  0
    7.5276    2.0010    1.3360 H   0  0  0  0  0  0  0  0  0  0  0  0
    5.6030    0.8681    2.1543 H   0  0  0  0  0  0  0  0  0  0  0  0
    3.3310    0.0190    1.9330 H   0  0  0  0  0  0  0  0  0  0  0  0
    2.3296   -2.6369   -0.5800 H   0  0  0  0  0  0  0  0  0  0  0  0
    2.0274   -2.1717    1.0812 H   0  0  0  0  0  0  0  0  0  0  0  0
    0.3582   -1.1590   -0.3679 H   0  0  0  0  0  0  0  0  0  0  0  0
    1.3284    0.1176    0.3460 H   0  0  0  0  0  0  0  0  0  0  0  0
    2.6381    0.3526   -1.7674 H   0  0  0  0  0  0  0  0  0  0  0  0
    1.7829   -1.0205   -2.4698 H   0  0  0  0  0  0  0  0  0  0  0  0
   -4.3242    2.5704   -4.4336 H   0  0  0  0  0  0  0  0  0  0  0  0
   -3.1634    3.2512   -3.3020 H   0  0  0  0  0  0  0  0  0  0  0  0
   -2.8243    2.2922   -1.3315 H   0  0  0  0  0  0  0  0  0  0  0  0
   -5.2368   -0.5472   -1.0766 H   0  0  0  0  0  0  0  0  0  0  0  0
   -6.8022   -1.8342    1.6403 H   0  0  0  0  0  0  0  0  0  0  0  0
   -6.3043   -2.2669    0.0008 H   0  0  0  0  0  0  0  0  0  0  0  0
   -5.4427   -2.9637    1.3725 H   0  0  0  0  0  0  0  0  0  0  0  0
   -4.2527   -2.2365    3.4488 H   0  0  0  0  0  0  0  0  0  0  0  0
   -4.0164   -0.7237    4.3296 H   0  0  0  0  0  0  0  0  0  0  0  0
   -5.6356   -1.1515    3.7737 H   0  0  0  0  0  0  0  0  0  0  0  0
   -2.9437    0.9184    3.0658 H   0  0  0  0  0  0  0  0  0  0  0  0
    4.5591   -2.4482   -1.3864 H   0  0  0  0  0  0  0  0  0  0  0  0
    6.8538   -1.5880   -1.1558 H   0  0  0  0  0  0  0  0  0  0  0  0
  1  2  1  0
  2  3  1  0
  3  4  2  0
  4  5  1  0
  5  6  2  0
  6  7  1  0
  7  8  1  0
  8  9  1  0
  9 10  1  0
 10 11  2  0
 11 12  1  0
 12 13  2  0
 13 14  1  0
 14 15  1  0
 15 16  1  0
 16 17  2  0
 16 18  1  0
 18 19  1  0
 19 20  2  0
 20 21  1  0
 21 22  1  0
 21 23  2  0
 23 24  1  0
 23 25  1  0
 25 26  2  0
 26 27  1  0
 13 28  1  0
  6 29  1  0
 29 30  2  0
 30  3  1  0
 28 10  1  0
 26 19  1  0
  1 31  1  0
  1 32  1  0
  1 33  1  0
  4 34  1  0
  5 35  1  0
  7 36  1  0
  7 37  1  0
  8 38  1  0
  8 39  1  0
  9 40  1  0
  9 41  1  0
 15 42  1  0
 15 43  1  0
 18 44  1  0
 20 45  1  0
 22 46  1  0
 22 47  1  0
 22 48  1  0
 24 49  1  0
 24 50  1  0
 24 51  1  0
 25 52  1  0
 29 53  1  0
 30 54  1  0
M  END
$$$$
