
     RDKit          3D

 55 60  0  0  0  0  0  0  0  0999 V2000
    3.3370    2.7466    2.4356 O   0  0  0  0  0  0  0  0  0  0  0  0
    3.5249    2.0854    1.4149 C   0  0  0  0  0  0  0  0  0  0  0  0
    4.8378    2.0898    0.7829 C   0  0  0  0  0  0  0  0  0  0  0  0
    6.1033    2.1912    1.4369 C   0  0  0  0  0  0  0  0  0  0  0  0
    7.0622    2.1625    0.4503 C   0  0  0  0  0  0  0  0  0  0  0  0
    6.4779    2.0887   -0.7742 O   0  0  0  0  0  0  0  0  0  0  0  0
    5.1337    2.0722   -0.5676 C   0  0  0  0  0  0  0  0  0  0  0  0
    2.5069    1.3006    0.8477 N   0  0  0  0  0  0  0  0  0  0  0  0
    2.7624    0.1535   -0.0247 C   0  0  0  0  0  0  0  0  0  0  0  0
    1.6924   -0.9267    0.1133 C   0  0  0  0  0  0  0  0  0  0  0  0
    0.2750   -0.3793   -0.2251 C   0  0  0  0  0  0  0  0  0  0  0  0
    0.0910    1.0232    0.4372 C   0  0  0  0  0  0  0  0  0  0  0  0
    1.1798    1.3759    1.4483 C   0  0  0  0  0  0  0  0  0  0  0  0
    0.1992   -0.1135   -1.6548 O   0  0  0  0  0  0  0  0  0  0  0  0
    0.0711   -1.1980   -2.4767 C   0  0  0  0  0  0  0  0  0  0  0  0
    0.3373   -0.9776   -3.8279 C   0  0  0  0  0  0  0  0  0  0  0  0
    0.2612   -2.0363   -4.7370 C   0  0  0  0  0  0  0  0  0  0  0  0
   -0.0873   -3.3131   -4.2898 C   0  0  0  0  0  0  0  0  0  0  0  0
   -0.1749   -4.6130   -5.4132 Cl  0  0  0  0  0  0  0  0  0  0  0  0
   -0.3701   -3.5393   -2.9444 C   0  0  0  0  0  0  0  0  0  0  0  0
   -0.3016   -2.4709   -2.0438 C   0  0  0  0  0  0  0  0  0  0  0  0
   -0.6343   -2.6647   -0.6190 C   0  0  0  0  0  0  0  0  0  0  0  0
   -0.7586   -3.8001   -0.1739 O   0  0  0  0  0  0  0  0  0  0  0  0
   -0.8446   -1.3818    0.1823 C   0  0  0  0  0  0  0  0  0  0  0  0
   -2.2766   -0.9176   -0.0667 C   0  0  0  0  0  0  0  0  0  0  0  0
   -2.7289   -0.7310    1.3406 C   0  0  0  0  0  0  0  0  0  0  0  0
   -4.0414   -0.1259    1.6696 C   0  0  0  0  0  0  0  0  0  0  0  0
   -4.3736    0.0844    3.0158 C   0  0  0  0  0  0  0  0  0  0  0  0
   -5.5992    0.6632    3.3557 C   0  0  0  0  0  0  0  0  0  0  0  0
   -6.4947    1.0285    2.3521 C   0  0  0  0  0  0  0  0  0  0  0  0
   -8.0050    1.7375    2.7661 Cl  0  0  0  0  0  0  0  0  0  0  0  0
   -6.1747    0.8188    1.0110 C   0  0  0  0  0  0  0  0  0  0  0  0
   -4.9487    0.2413    0.6672 C   0  0  0  0  0  0  0  0  0  0  0  0
   -1.8870   -1.1215    2.2421 N   0  0  0  0  0  0  0  0  0  0  0  0
   -0.7636   -1.6663    1.5821 O   0  0  0  0  0  0  0  0  0  0  0  0
    6.2805    2.2625    2.5029 H   0  0  0  0  0  0  0  0  0  0  0  0
    8.1450    2.1938    0.4548 H   0  0  0  0  0  0  0  0  0  0  0  0
    4.5322    2.0566   -1.4672 H   0  0  0  0  0  0  0  0  0  0  0  0
    3.7397   -0.2828    0.2149 H   0  0  0  0  0  0  0  0  0  0  0  0
    2.7911    0.5195   -1.0593 H   0  0  0  0  0  0  0  0  0  0  0  0
    1.7155   -1.3192    1.1378 H   0  0  0  0  0  0  0  0  0  0  0  0
    1.9724   -1.7549   -0.5474 H   0  0  0  0  0  0  0  0  0  0  0  0
    0.0830    1.8001   -0.3445 H   0  0  0  0  0  0  0  0  0  0  0  0
   -0.8749    1.1162    0.9471 H   0  0  0  0  0  0  0  0  0  0  0  0
    1.0059    2.3884    1.8303 H   0  0  0  0  0  0  0  0  0  0  0  0
    1.1540    0.6969    2.3097 H   0  0  0  0  0  0  0  0  0  0  0  0
    0.6191    0.0153   -4.1746 H   0  0  0  0  0  0  0  0  0  0  0  0
    0.4780   -1.8616   -5.7888 H   0  0  0  0  0  0  0  0  0  0  0  0
   -0.6522   -4.5324   -2.5978 H   0  0  0  0  0  0  0  0  0  0  0  0
   -2.3350    0.0126   -0.6403 H   0  0  0  0  0  0  0  0  0  0  0  0
   -2.9057   -1.6775   -0.5463 H   0  0  0  0  0  0  0  0  0  0  0  0
   -3.6824   -0.2002    3.8098 H   0  0  0  0  0  0  0  0  0  0  0  0
   -5.8465    0.8201    4.4031 H   0  0  0  0  0  0  0  0  0  0  0  0
   -6.8766    1.0993    0.2290 H   0  0  0  0  0  0  0  0  0  0  0  0
   -4.7314    0.0867   -0.3859 H   0  0  0  0  0  0  0  0  0  0  0  0
  1  2  2  0
  2  3  1  0
  3  4  1  0
  4  5  2  0
  5  6  1  0
  6  7  1  0
  2  8  1  0
  8  9  1  0
  9 10  1  0
 10 11  1  0
 11 12  1  0
 12 13  1  0
 11 14  1  0
 14 15  1  0
 15 16  2  0
 16 17  1  0
 17 18  2  0
 18 19  1  0
 18 20  1  0
 20 21  2  0
 21 22  1  0
 22 23  2  0
 22 24  1  0
 24 25  1  0
 25 26  1  0
 26 27  1  0
 27 28  2  0
 28 29  1  0
 29 30  2  0
 30 31  1  0
 30 32  1  0
 32 33  2  0
 26 34  2  0
 34 35  1  0
  7  3  2  0
 13  8  1  0
 21 15  1  0
 35 24  1  0
 24 11  1  0
 33 27  1  0
  4 36  1  0
  5 37  1  0
  7 38  1  0
  9 39  1  0
  9 40  1  0
 10 41  1  0
 10 42  1  0
 12 43  1  0
 12 44  1  0
 13 45  1  0
 13 46  1  0
 16 47  1  0
 17 48  1  0
 20 49  1  0
 25 50  1  0
 25 51  1  0
 28 52  1  0
 29 53  1  0
 32 54  1  0
 33 55  1  0
M  END
$$$$
