
     RDKit          3D

 38 39  0  0  0  0  0  0  0  0999 V2000
   -3.3117    1.3650    2.1141 C   0  0  0  0  0  0  0  0  0  0  0  0
   -3.6632    1.5300    0.7363 O   0  0  0  0  0  0  0  0  0  0  0  0
   -4.1915    0.3696    0.2397 C   0  0  0  0  0  0  0  0  0  0  0  0
   -5.5832    0.2423    0.2451 C   0  0  0  0  0  0  0  0  0  0  0  0
   -6.1804   -0.9329   -0.2115 C   0  0  0  0  0  0  0  0  0  0  0  0
   -5.3895   -1.9802   -0.6817 C   0  0  0  0  0  0  0  0  0  0  0  0
   -4.0005   -1.8448   -0.7164 C   0  0  0  0  0  0  0  0  0  0  0  0
   -3.3965   -0.6582   -0.2757 C   0  0  0  0  0  0  0  0  0  0  0  0
   -1.9204   -0.5713   -0.3572 C   0  0  0  0  0  0  0  0  0  0  0  0
   -1.2554   -1.5399    0.0127 O   0  0  0  0  0  0  0  0  0  0  0  0
   -1.3060    0.6777   -0.9844 C   0  0  0  0  0  0  0  0  0  0  0  0
    0.1237    0.6298   -0.9399 O   0  0  0  0  0  0  0  0  0  0  0  0
    0.6513    0.9705    0.2608 C   0  0  0  0  0  0  0  0  0  0  0  0
    0.0311    1.3853    1.2298 O   0  0  0  0  0  0  0  0  0  0  0  0
    2.1224    0.8342    0.2787 C   0  0  0  0  0  0  0  0  0  0  0  0
    2.8256    0.1481   -0.6362 C   0  0  0  0  0  0  0  0  0  0  0  0
    4.2906   -0.0056   -0.6345 C   0  0  0  0  0  0  0  0  0  0  0  0
    4.9295   -0.3341   -1.8393 C   0  0  0  0  0  0  0  0  0  0  0  0
    6.3160   -0.5048   -1.8934 C   0  0  0  0  0  0  0  0  0  0  0  0
    7.0823   -0.3555   -0.7402 C   0  0  0  0  0  0  0  0  0  0  0  0
    6.4609   -0.0466    0.4665 C   0  0  0  0  0  0  0  0  0  0  0  0
    5.0733    0.1190    0.5216 C   0  0  0  0  0  0  0  0  0  0  0  0
   -2.5101    0.6290    2.2342 H   0  0  0  0  0  0  0  0  0  0  0  0
   -4.1792    1.0744    2.7134 H   0  0  0  0  0  0  0  0  0  0  0  0
   -2.9502    2.3286    2.4809 H   0  0  0  0  0  0  0  0  0  0  0  0
   -6.2007    1.0518    0.6259 H   0  0  0  0  0  0  0  0  0  0  0  0
   -7.2628   -1.0365   -0.1885 H   0  0  0  0  0  0  0  0  0  0  0  0
   -5.8522   -2.9030   -1.0204 H   0  0  0  0  0  0  0  0  0  0  0  0
   -3.3887   -2.6648   -1.0879 H   0  0  0  0  0  0  0  0  0  0  0  0
   -1.6596    1.6026   -0.5250 H   0  0  0  0  0  0  0  0  0  0  0  0
   -1.5902    0.7002   -2.0406 H   0  0  0  0  0  0  0  0  0  0  0  0
    2.5891    1.3275    1.1218 H   0  0  0  0  0  0  0  0  0  0  0  0
    2.3084   -0.3344   -1.4619 H   0  0  0  0  0  0  0  0  0  0  0  0
    4.3547   -0.4504   -2.7550 H   0  0  0  0  0  0  0  0  0  0  0  0
    6.7950   -0.7462   -2.8377 H   0  0  0  0  0  0  0  0  0  0  0  0
    8.1616   -0.4826   -0.7804 H   0  0  0  0  0  0  0  0  0  0  0  0
    7.0556    0.0651    1.3712 H   0  0  0  0  0  0  0  0  0  0  0  0
    4.6210    0.3411    1.4838 H   0  0  0  0  0  0  0  0  0  0  0  0
  1  2  1  0
  2  3  1  0
  3  4  2  0
  4  5  1  0
  5  6  2  0
  6  7  1  0
  7  8  2  0
  8  9  1  0
  9 10  2  0
  9 11  1  0
 11 12  1  0
 12 13  1  0
 13 14  2  0
 13 15  1  0
 15 16  2  3
 16 17  1  0
 17 18  2  0
 18 19  1  0
 19 20  2  0
 20 21  1  0
 21 22  2  0
  8  3  1  0
 22 17  1  0
  1 23  1  0
  1 24  1  0
  1 25  1  0
  4 26  1  0
  5 27  1  0
  6 28  1  0
  7 29  1  0
 11 30  1  0
 11 31  1  0
 15 32  1  0
 16 33  1  0
 18 34  1  0
 19 35  1  0
 20 36  1  0
 21 37  1  0
 22 38  1  0
M  END
$$$$
