
     RDKit          3D

 57 61  0  0  0  0  0  0  0  0999 V2000
    0.5583   -0.8158   -2.0164 O   0  0  0  0  0  0  0  0  0  0  0  0
    0.1625   -0.5946   -0.6419 C   0  0  0  0  0  0  0  0  0  0  0  0
    1.3457    0.0477    0.1096 C   0  0  0  0  0  0  0  0  0  0  0  0
    2.5070   -0.8325    0.0295 N   0  0  0  0  0  0  0  0  0  0  0  0
    3.7595   -0.3661    0.4000 C   0  0  0  0  0  0  0  0  0  0  0  0
    3.8725    0.7228    1.1174 N   0  0  0  0  0  0  0  0  0  0  0  0
    5.1506    1.2487    1.4132 C   0  0  0  0  0  0  0  0  0  0  0  0
    5.2264    2.4559    2.1099 C   0  0  0  0  0  0  0  0  0  0  0  0
    6.4646    3.0420    2.3904 C   0  0  0  0  0  0  0  0  0  0  0  0
    7.6441    2.4235    1.9760 C   0  0  0  0  0  0  0  0  0  0  0  0
    7.5939    1.2153    1.2797 C   0  0  0  0  0  0  0  0  0  0  0  0
    6.3484    0.6442    1.0006 C   0  0  0  0  0  0  0  0  0  0  0  0
    6.2058   -0.5556    0.2817 N   0  0  0  0  0  0  0  0  0  0  0  0
    7.1684   -1.3977   -0.2270 C   0  0  0  0  0  0  0  0  0  0  0  0
    6.5304   -2.4667   -0.8280 C   0  0  0  0  0  0  0  0  0  0  0  0
    5.1374   -2.2497   -0.7017 C   0  0  0  0  0  0  0  0  0  0  0  0
    4.9604   -1.0623   -0.0149 C   0  0  0  0  0  0  0  0  0  0  0  0
   -1.0878    0.3183   -0.5861 C   0  0  0  0  0  0  0  0  0  0  0  0
   -1.9938    0.0826   -1.7367 N   0  0  0  0  0  0  0  0  0  0  0  0
   -2.9792    1.1844   -1.8683 C   0  0  0  0  0  0  0  0  0  0  0  0
   -4.0984    1.1967   -0.7950 C   0  0  0  0  0  0  0  0  0  0  0  0
   -4.8104   -0.0962   -0.7902 N   0  0  0  0  0  0  0  0  0  0  0  0
   -5.9924   -0.1916   -0.0411 C   0  0  0  0  0  0  0  0  0  0  0  0
   -6.9226   -1.1918   -0.3654 C   0  0  0  0  0  0  0  0  0  0  0  0
   -8.1202   -1.3356    0.3397 C   0  0  0  0  0  0  0  0  0  0  0  0
   -8.4155   -0.4754    1.3908 C   0  0  0  0  0  0  0  0  0  0  0  0
   -7.5162    0.5286    1.7268 C   0  0  0  0  0  0  0  0  0  0  0  0
   -6.3208    0.6720    1.0126 C   0  0  0  0  0  0  0  0  0  0  0  0
   -3.9075   -1.2534   -0.6155 C   0  0  0  0  0  0  0  0  0  0  0  0
   -2.7437   -1.2025   -1.6432 C   0  0  0  0  0  0  0  0  0  0  0  0
   -0.2528   -0.6312   -2.5344 H   0  0  0  0  0  0  0  0  0  0  0  0
   -0.0733   -1.5792   -0.2131 H   0  0  0  0  0  0  0  0  0  0  0  0
    1.5984    1.0037   -0.3806 H   0  0  0  0  0  0  0  0  0  0  0  0
    1.0876    0.2424    1.1656 H   0  0  0  0  0  0  0  0  0  0  0  0
    2.5139   -1.3349   -0.8648 H   0  0  0  0  0  0  0  0  0  0  0  0
    4.3103    2.9470    2.4249 H   0  0  0  0  0  0  0  0  0  0  0  0
    6.5051    3.9911    2.9177 H   0  0  0  0  0  0  0  0  0  0  0  0
    8.6056    2.8862    2.1896 H   0  0  0  0  0  0  0  0  0  0  0  0
    8.5230    0.7569    0.9600 H   0  0  0  0  0  0  0  0  0  0  0  0
    8.2223   -1.1946   -0.1117 H   0  0  0  0  0  0  0  0  0  0  0  0
    7.0164   -3.3138   -1.3005 H   0  0  0  0  0  0  0  0  0  0  0  0
    4.3493   -2.9039   -1.0555 H   0  0  0  0  0  0  0  0  0  0  0  0
   -0.7415    1.3666   -0.6279 H   0  0  0  0  0  0  0  0  0  0  0  0
   -1.5944    0.1925    0.3863 H   0  0  0  0  0  0  0  0  0  0  0  0
   -3.4409    1.0997   -2.8654 H   0  0  0  0  0  0  0  0  0  0  0  0
   -2.4601    2.1547   -1.8635 H   0  0  0  0  0  0  0  0  0  0  0  0
   -3.6559    1.4003    0.1916 H   0  0  0  0  0  0  0  0  0  0  0  0
   -4.7928    2.0089   -1.0339 H   0  0  0  0  0  0  0  0  0  0  0  0
   -6.7266   -1.8583   -1.2020 H   0  0  0  0  0  0  0  0  0  0  0  0
   -8.8220   -2.1143    0.0578 H   0  0  0  0  0  0  0  0  0  0  0  0
   -9.3435   -0.5856    1.9434 H   0  0  0  0  0  0  0  0  0  0  0  0
   -7.7400    1.2050    2.5478 H   0  0  0  0  0  0  0  0  0  0  0  0
   -5.6485    1.4645    1.3189 H   0  0  0  0  0  0  0  0  0  0  0  0
   -4.4413   -2.2002   -0.7725 H   0  0  0  0  0  0  0  0  0  0  0  0
   -3.5044   -1.2621    0.4062 H   0  0  0  0  0  0  0  0  0  0  0  0
   -3.1624   -1.4008   -2.6401 H   0  0  0  0  0  0  0  0  0  0  0  0
   -2.0588   -2.0360   -1.4470 H   0  0  0  0  0  0  0  0  0  0  0  0
  1  2  1  0
  2  3  1  0
  3  4  1  0
  4  5  1  0
  5  6  2  0
  6  7  1  0
  7  8  2  0
  8  9  1  0
  9 10  2  0
 10 11  1  0
 11 12  2  0
 12 13  1  0
 13 14  1  0
 14 15  2  0
 15 16  1  0
 16 17  2  0
  2 18  1  0
 18 19  1  0
 19 20  1  0
 20 21  1  0
 21 22  1  0
 22 23  1  0
 23 24  2  0
 24 25  1  0
 25 26  2  0
 26 27  1  0
 27 28  2  0
 22 29  1  0
 29 30  1  0
 17  5  1  0
 30 19  1  0
 12  7  1  0
 17 13  1  0
 28 23  1  0
  1 31  1  0
  2 32  1  0
  3 33  1  0
  3 34  1  0
  4 35  1  0
  8 36  1  0
  9 37  1  0
 10 38  1  0
 11 39  1  0
 14 40  1  0
 15 41  1  0
 16 42  1  0
 18 43  1  0
 18 44  1  0
 20 45  1  0
 20 46  1  0
 21 47  1  0
 21 48  1  0
 24 49  1  0
 25 50  1  0
 26 51  1  0
 27 52  1  0
 28 53  1  0
 29 54  1  0
 29 55  1  0
 30 56  1  0
 30 57  1  0
M  END
$$$$
