
     RDKit          3D

 43 46  0  0  0  0  0  0  0  0999 V2000
    6.3918    1.9389   -1.2169 C   0  0  0  0  0  0  0  0  0  0  0  0
    5.0360    1.3454   -0.9652 C   0  0  0  0  0  0  0  0  0  0  0  0
    4.2829    0.8247   -2.0211 C   0  0  0  0  0  0  0  0  0  0  0  0
    3.0070    0.3004   -1.7930 C   0  0  0  0  0  0  0  0  0  0  0  0
    2.4661    0.2980   -0.5022 C   0  0  0  0  0  0  0  0  0  0  0  0
    1.0322   -0.2941   -0.2556 C   0  0  0  0  0  0  0  0  0  0  0  0
    0.1652   -0.7857   -1.2249 C   0  0  0  0  0  0  0  0  0  0  0  0
   -1.0241   -1.1843   -0.6123 N   0  0  0  0  0  4  0  0  0  0  0  0
   -2.1983   -1.7533   -1.2696 C   0  0  0  0  0  0  0  0  0  0  0  0
   -3.3976   -0.8808   -1.0033 C   0  0  0  0  0  0  0  0  0  0  0  0
   -4.5731   -1.4296   -0.4669 C   0  0  0  0  0  0  0  0  0  0  0  0
   -5.6856   -0.6215   -0.2190 C   0  0  0  0  0  0  0  0  0  0  0  0
   -5.6397    0.7419   -0.5078 C   0  0  0  0  0  0  0  0  0  0  0  0
   -4.4831    1.2925   -1.0514 C   0  0  0  0  0  0  0  0  0  0  0  0
   -4.4165    2.9727   -1.4082 Cl  0  0  0  0  0  0  0  0  0  0  0  0
   -3.3695    0.4910   -1.3050 C   0  0  0  0  0  0  0  0  0  0  0  0
   -0.8871   -0.9676    0.6921 C   0  0  0  0  0  0  0  0  0  0  0  0
    0.3208   -0.4604    0.9192 N   0  0  0  0  0  0  0  0  0  0  0  0
    0.5488   -0.2156    2.3363 C   0  0  0  0  0  0  0  0  0  0  0  0
   -0.6242   -0.9648    3.0268 C   0  0  0  0  0  0  0  0  0  0  0  0
   -1.6881   -1.1442    1.9259 C   0  0  0  0  0  0  0  0  0  0  0  0
    3.2069    0.8351    0.5509 C   0  0  0  0  0  0  0  0  0  0  0  0
    4.4826    1.3595    0.3185 C   0  0  0  0  0  0  0  0  0  0  0  0
    7.0354    1.8289   -0.3376 H   0  0  0  0  0  0  0  0  0  0  0  0
    6.8909    1.4325   -2.0499 H   0  0  0  0  0  0  0  0  0  0  0  0
    6.2959    3.0028   -1.4549 H   0  0  0  0  0  0  0  0  0  0  0  0
    4.6895    0.8241   -3.0315 H   0  0  0  0  0  0  0  0  0  0  0  0
    2.4684   -0.0988   -2.6471 H   0  0  0  0  0  0  0  0  0  0  0  0
    0.2383   -0.8884   -2.2943 H   0  0  0  0  0  0  0  0  0  0  0  0
   -2.0249   -1.8281   -2.3485 H   0  0  0  0  0  0  0  0  0  0  0  0
   -2.3392   -2.7658   -0.8750 H   0  0  0  0  0  0  0  0  0  0  0  0
   -4.6434   -2.4928   -0.2404 H   0  0  0  0  0  0  0  0  0  0  0  0
   -6.5953   -1.0546    0.1935 H   0  0  0  0  0  0  0  0  0  0  0  0
   -6.5101    1.3653   -0.3153 H   0  0  0  0  0  0  0  0  0  0  0  0
   -2.4794    0.9423   -1.7381 H   0  0  0  0  0  0  0  0  0  0  0  0
    1.5124   -0.6192    2.6549 H   0  0  0  0  0  0  0  0  0  0  0  0
    0.4936    0.8611    2.5215 H   0  0  0  0  0  0  0  0  0  0  0  0
   -1.0046   -0.4383    3.9062 H   0  0  0  0  0  0  0  0  0  0  0  0
   -0.2737   -1.9520    3.3505 H   0  0  0  0  0  0  0  0  0  0  0  0
   -2.4337   -0.3466    1.9351 H   0  0  0  0  0  0  0  0  0  0  0  0
   -2.1434   -2.1351    1.9177 H   0  0  0  0  0  0  0  0  0  0  0  0
    2.8240    0.8806    1.5618 H   0  0  0  0  0  0  0  0  0  0  0  0
    5.0457    1.7839    1.1486 H   0  0  0  0  0  0  0  0  0  0  0  0
  1  2  1  0
  2  3  2  0
  3  4  1  0
  4  5  2  0
  5  6  1  0
  6  7  2  0
  7  8  1  0
  8  9  1  0
  9 10  1  0
 10 11  2  0
 11 12  1  0
 12 13  2  0
 13 14  1  0
 14 15  1  0
 14 16  2  0
  8 17  2  0
 17 18  1  0
 18 19  1  0
 19 20  1  0
 20 21  1  0
  5 22  1  0
 22 23  2  0
 23  2  1  0
 18  6  1  0
 16 10  1  0
 21 17  1  0
  1 24  1  0
  1 25  1  0
  1 26  1  0
  3 27  1  0
  4 28  1  0
  7 29  1  0
  9 30  1  0
  9 31  1  0
 11 32  1  0
 12 33  1  0
 13 34  1  0
 16 35  1  0
 19 36  1  0
 19 37  1  0
 20 38  1  0
 20 39  1  0
 21 40  1  0
 21 41  1  0
 22 42  1  0
 23 43  1  0
M  CHG  1   8   1
M  END
$$$$
