
     RDKit          3D

 35 37  0  0  0  0  0  0  0  0999 V2000
   -4.4625    0.4289    1.9004 C   0  0  0  0  0  0  0  0  0  0  0  0
   -4.7047    0.6144    0.4271 C   0  0  0  0  0  0  0  0  0  0  0  0
   -6.0075    0.8420   -0.0411 C   0  0  0  0  0  0  0  0  0  0  0  0
   -6.2499    1.0158   -1.4022 C   0  0  0  0  0  0  0  0  0  0  0  0
   -5.1933    0.9637   -2.3062 C   0  0  0  0  0  0  0  0  0  0  0  0
   -3.8910    0.7377   -1.8528 C   0  0  0  0  0  0  0  0  0  0  0  0
   -3.6375    0.5620   -0.4885 C   0  0  0  0  0  0  0  0  0  0  0  0
   -2.4026    0.3355    0.0589 O   0  0  0  0  0  0  0  0  0  0  0  0
   -1.2910    0.2741   -0.8182 C   0  0  0  0  0  0  0  0  0  0  0  0
    0.0144    0.0158   -0.0515 C   0  0  0  0  0  0  0  0  0  0  0  0
    0.0489   -0.1158    1.1667 O   0  0  0  0  0  0  0  0  0  0  0  0
    1.0970   -0.0428   -0.9096 N   0  0  0  0  0  0  0  0  0  0  0  0
    2.4098   -0.2576   -0.5695 C   0  0  0  0  0  0  0  0  0  0  0  0
    3.3587   -0.2925   -1.4792 N   0  0  0  0  0  0  0  0  0  0  0  0
    4.6018   -0.5203   -0.9219 N   0  0  0  0  0  0  0  0  0  0  0  0
    4.5370   -0.6481    0.3893 C   0  0  0  0  0  0  0  0  0  0  0  0
    5.6890   -0.8907    1.2083 C   0  0  0  0  0  0  0  0  0  0  0  0
    7.0102   -1.0293    0.8074 C   0  0  0  0  0  0  0  0  0  0  0  0
    7.7856   -1.2563    1.9697 C   0  0  0  0  0  0  0  0  0  0  0  0
    6.9020   -1.2451    3.0198 C   0  0  0  0  0  0  0  0  0  0  0  0
    5.6396   -1.0264    2.5755 O   0  0  0  0  0  0  0  0  0  0  0  0
    2.9523   -0.4978    1.0250 S   0  0  0  0  0  0  0  0  0  0  0  0
   -4.0282   -0.5576    2.0920 H   0  0  0  0  0  0  0  0  0  0  0  0
   -5.3937    0.4981    2.4725 H   0  0  0  0  0  0  0  0  0  0  0  0
   -3.7856    1.2042    2.2739 H   0  0  0  0  0  0  0  0  0  0  0  0
   -6.8417    0.8849    0.6556 H   0  0  0  0  0  0  0  0  0  0  0  0
   -7.2626    1.1917   -1.7555 H   0  0  0  0  0  0  0  0  0  0  0  0
   -5.3831    1.0994   -3.3680 H   0  0  0  0  0  0  0  0  0  0  0  0
   -3.1007    0.7053   -2.5941 H   0  0  0  0  0  0  0  0  0  0  0  0
   -1.4191   -0.5503   -1.5304 H   0  0  0  0  0  0  0  0  0  0  0  0
   -1.1754    1.2286   -1.3462 H   0  0  0  0  0  0  0  0  0  0  0  0
    0.9614    0.0793   -1.9037 H   0  0  0  0  0  0  0  0  0  0  0  0
    7.3628   -0.9710   -0.2141 H   0  0  0  0  0  0  0  0  0  0  0  0
    8.8539   -1.4088    2.0330 H   0  0  0  0  0  0  0  0  0  0  0  0
    7.0056   -1.3707    4.0889 H   0  0  0  0  0  0  0  0  0  0  0  0
  1  2  1  0
  2  3  2  0
  3  4  1  0
  4  5  2  0
  5  6  1  0
  6  7  2  0
  7  8  1  0
  8  9  1  0
  9 10  1  0
 10 11  2  0
 10 12  1  0
 12 13  1  0
 13 14  2  0
 14 15  1  0
 15 16  2  0
 16 17  1  0
 17 18  2  0
 18 19  1  0
 19 20  2  0
 20 21  1  0
 16 22  1  0
  7  2  1  0
 22 13  1  0
 21 17  1  0
  1 23  1  0
  1 24  1  0
  1 25  1  0
  3 26  1  0
  4 27  1  0
  5 28  1  0
  6 29  1  0
  9 30  1  0
  9 31  1  0
 12 32  1  0
 18 33  1  0
 19 34  1  0
 20 35  1  0
M  END
$$$$
