
     RDKit          3D

102104  0  0  0  0  0  0  0  0999 V2000
    6.2934    4.7644   -2.0050 C   0  0  0  0  0  0  0  0  0  0  0  0
    5.5395    4.3339   -0.7561 C   0  0  0  0  0  0  0  0  0  0  0  0
    4.9899    2.9136   -0.8957 C   0  0  0  0  0  0  0  0  0  0  0  0
    4.2319    2.4856    0.3626 C   0  0  0  0  0  0  0  0  0  0  0  0
    3.6317    1.0883    0.2007 C   0  0  0  0  0  0  0  0  0  0  0  0
    2.8732    0.5839    1.4453 C   0  0  0  0  0  0  0  0  0  0  0  0
    1.8152    1.5435    2.0068 C   0  0  0  0  0  0  0  0  0  0  0  0
    0.8762    2.1373    0.9725 C   0  0  0  0  0  0  0  0  0  0  0  0
    0.6684    1.6712   -0.1433 O   0  0  0  0  0  0  0  0  0  0  0  0
    0.2409    3.2773    1.4141 N   0  0  0  0  0  0  0  0  0  0  0  0
   -0.6058    4.0794    0.5330 C   0  0  0  0  0  0  0  0  0  0  0  0
   -0.7400    5.5237    1.0439 C   0  0  0  0  0  0  0  0  0  0  0  0
    0.5112    6.4241    0.9377 C   0  0  0  0  0  0  0  0  0  0  0  0
    1.6362    6.0149    1.8880 C   0  0  0  0  0  0  0  0  0  0  0  0
    1.0373    6.5394   -0.4932 C   0  0  0  0  0  0  0  0  0  0  0  0
   -1.9959    3.4068    0.4317 C   0  0  0  0  0  0  0  0  0  0  0  0
   -2.9858    3.8142    1.0322 O   0  0  0  0  0  0  0  0  0  0  0  0
   -2.0057    2.2950   -0.3869 N   0  0  0  0  0  0  0  0  0  0  0  0
   -3.1819    1.4319   -0.5218 C   0  0  0  0  0  0  0  0  0  0  0  0
   -3.5342    1.2645   -2.0082 C   0  0  0  0  0  0  0  0  0  0  0  0
   -4.8089    0.4939   -2.2511 C   0  0  0  0  0  0  0  0  0  0  0  0
   -6.0529    1.0661   -1.9514 C   0  0  0  0  0  0  0  0  0  0  0  0
   -7.2310    0.3489   -2.1642 C   0  0  0  0  0  0  0  0  0  0  0  0
   -7.1772   -0.9453   -2.6776 C   0  0  0  0  0  0  0  0  0  0  0  0
   -5.9456   -1.5224   -2.9820 C   0  0  0  0  0  0  0  0  0  0  0  0
   -4.7662   -0.8064   -2.7712 C   0  0  0  0  0  0  0  0  0  0  0  0
   -2.8874    0.0788    0.1551 C   0  0  0  0  0  0  0  0  0  0  0  0
   -3.5985   -0.3828    1.0461 O   0  0  0  0  0  0  0  0  0  0  0  0
   -1.7963   -0.6075   -0.3353 N   0  0  0  0  0  0  0  0  0  0  0  0
   -1.4732   -1.9567    0.1188 C   0  0  0  0  0  0  0  0  0  0  0  0
   -2.3591   -2.9972   -0.5875 C   0  0  0  0  0  0  0  0  0  0  0  0
   -2.1626   -4.4550   -0.1234 C   0  0  0  0  0  0  0  0  0  0  0  0
   -3.0275   -5.3892   -0.9743 C   0  0  0  0  0  0  0  0  0  0  0  0
   -2.5066   -4.6469    1.3543 C   0  0  0  0  0  0  0  0  0  0  0  0
    0.0088   -2.1962   -0.2149 C   0  0  0  0  0  0  0  0  0  0  0  0
    0.5029   -1.8721   -1.2932 O   0  0  0  0  0  0  0  0  0  0  0  0
    0.7238   -2.8104    0.7897 N   0  0  0  0  0  0  0  0  0  0  0  0
    2.1708   -3.0263    0.6696 C   0  0  0  0  0  0  0  0  0  0  0  0
    2.6248   -4.2063    1.5475 C   0  0  0  0  0  0  0  0  0  0  0  0
    1.9157   -5.5052    1.2345 C   0  0  0  0  0  0  0  0  0  0  0  0
    2.0754   -6.1234   -0.0132 C   0  0  0  0  0  0  0  0  0  0  0  0
    1.4079   -7.3140   -0.3046 C   0  0  0  0  0  0  0  0  0  0  0  0
    0.5811   -7.9027    0.6495 C   0  0  0  0  0  0  0  0  0  0  0  0
    0.4233   -7.3031    1.8972 C   0  0  0  0  0  0  0  0  0  0  0  0
    1.0877   -6.1107    2.1899 C   0  0  0  0  0  0  0  0  0  0  0  0
    2.9920   -1.7822    1.0585 C   0  0  0  0  0  0  0  0  0  0  0  0
    4.2059   -1.7929    1.2277 O   0  0  0  0  0  0  0  0  0  0  0  0
    2.2115   -0.6704    1.1691 O   0  0  0  0  0  0  0  0  0  0  0  0
    7.1452    4.1044   -2.1966 H   0  0  0  0  0  0  0  0  0  0  0  0
    6.6736    5.7836   -1.8862 H   0  0  0  0  0  0  0  0  0  0  0  0
    5.6406    4.7473   -2.8826 H   0  0  0  0  0  0  0  0  0  0  0  0
    4.7167    5.0359   -0.5742 H   0  0  0  0  0  0  0  0  0  0  0  0
    6.2117    4.3904    0.1076 H   0  0  0  0  0  0  0  0  0  0  0  0
    5.8137    2.2148   -1.0869 H   0  0  0  0  0  0  0  0  0  0  0  0
    4.3177    2.8674   -1.7616 H   0  0  0  0  0  0  0  0  0  0  0  0
    3.4430    3.2174    0.5606 H   0  0  0  0  0  0  0  0  0  0  0  0
    4.9096    2.4967    1.2242 H   0  0  0  0  0  0  0  0  0  0  0  0
    2.9818    1.0538   -0.6810 H   0  0  0  0  0  0  0  0  0  0  0  0
    4.4408    0.3861   -0.0329 H   0  0  0  0  0  0  0  0  0  0  0  0
    3.5957    0.4100    2.2542 H   0  0  0  0  0  0  0  0  0  0  0  0
    2.3199    2.3682    2.5240 H   0  0  0  0  0  0  0  0  0  0  0  0
    1.1912    1.0188    2.7407 H   0  0  0  0  0  0  0  0  0  0  0  0
    0.1384    3.4156    2.4126 H   0  0  0  0  0  0  0  0  0  0  0  0
   -0.1725    4.0756   -0.4740 H   0  0  0  0  0  0  0  0  0  0  0  0
   -1.5430    6.0161    0.4777 H   0  0  0  0  0  0  0  0  0  0  0  0
   -1.0778    5.5149    2.0897 H   0  0  0  0  0  0  0  0  0  0  0  0
    0.1893    7.4287    1.2439 H   0  0  0  0  0  0  0  0  0  0  0  0
    2.1324    5.0962    1.5627 H   0  0  0  0  0  0  0  0  0  0  0  0
    1.2581    5.8656    2.9044 H   0  0  0  0  0  0  0  0  0  0  0  0
    2.4015    6.7978    1.9301 H   0  0  0  0  0  0  0  0  0  0  0  0
    1.8097    7.3136   -0.5556 H   0  0  0  0  0  0  0  0  0  0  0  0
    1.4831    5.6024   -0.8416 H   0  0  0  0  0  0  0  0  0  0  0  0
    0.2330    6.8163   -1.1825 H   0  0  0  0  0  0  0  0  0  0  0  0
   -1.0901    1.9050   -0.6178 H   0  0  0  0  0  0  0  0  0  0  0  0
   -4.0226    1.8856    0.0155 H   0  0  0  0  0  0  0  0  0  0  0  0
   -2.7058    0.7879   -2.5491 H   0  0  0  0  0  0  0  0  0  0  0  0
   -3.6429    2.2548   -2.4724 H   0  0  0  0  0  0  0  0  0  0  0  0
   -6.1133    2.0739   -1.5455 H   0  0  0  0  0  0  0  0  0  0  0  0
   -8.1907    0.7990   -1.9232 H   0  0  0  0  0  0  0  0  0  0  0  0
   -8.0951   -1.5054   -2.8370 H   0  0  0  0  0  0  0  0  0  0  0  0
   -5.9032   -2.5327   -3.3804 H   0  0  0  0  0  0  0  0  0  0  0  0
   -3.8144   -1.2753   -3.0110 H   0  0  0  0  0  0  0  0  0  0  0  0
   -1.2114   -0.2165   -1.0683 H   0  0  0  0  0  0  0  0  0  0  0  0
   -1.6262   -1.9832    1.2026 H   0  0  0  0  0  0  0  0  0  0  0  0
   -2.1708   -2.9446   -1.6697 H   0  0  0  0  0  0  0  0  0  0  0  0
   -3.4146   -2.7236   -0.4550 H   0  0  0  0  0  0  0  0  0  0  0  0
   -1.1173   -4.7465   -0.2788 H   0  0  0  0  0  0  0  0  0  0  0  0
   -2.7958   -5.2764   -2.0382 H   0  0  0  0  0  0  0  0  0  0  0  0
   -2.8496   -6.4350   -0.7046 H   0  0  0  0  0  0  0  0  0  0  0  0
   -4.0936   -5.1810   -0.8351 H   0  0  0  0  0  0  0  0  0  0  0  0
   -2.4450   -5.7048    1.6322 H   0  0  0  0  0  0  0  0  0  0  0  0
   -1.8132   -4.1017    2.0003 H   0  0  0  0  0  0  0  0  0  0  0  0
   -3.5221   -4.3003    1.5738 H   0  0  0  0  0  0  0  0  0  0  0  0
    0.3292   -2.8028    1.7214 H   0  0  0  0  0  0  0  0  0  0  0  0
    2.3952   -3.2215   -0.3862 H   0  0  0  0  0  0  0  0  0  0  0  0
    3.7038   -4.3741    1.4362 H   0  0  0  0  0  0  0  0  0  0  0  0
    2.4732   -3.9511    2.6053 H   0  0  0  0  0  0  0  0  0  0  0  0
    2.7185   -5.6825   -0.7718 H   0  0  0  0  0  0  0  0  0  0  0  0
    1.5344   -7.7830   -1.2773 H   0  0  0  0  0  0  0  0  0  0  0  0
    0.0627   -8.8302    0.4218 H   0  0  0  0  0  0  0  0  0  0  0  0
   -0.2188   -7.7655    2.6426 H   0  0  0  0  0  0  0  0  0  0  0  0
    0.9516   -5.6615    3.1709 H   0  0  0  0  0  0  0  0  0  0  0  0
  1  2  1  0
  2  3  1  0
  3  4  1  0
  4  5  1  0
  5  6  1  0
  6  7  1  0
  7  8  1  0
  8  9  2  0
  8 10  1  0
 10 11  1  0
 11 12  1  0
 12 13  1  0
 13 14  1  0
 13 15  1  0
 11 16  1  0
 16 17  2  0
 16 18  1  0
 18 19  1  0
 19 20  1  0
 20 21  1  0
 21 22  2  0
 22 23  1  0
 23 24  2  0
 24 25  1  0
 25 26  2  0
 19 27  1  0
 27 28  2  0
 27 29  1  0
 29 30  1  0
 30 31  1  0
 31 32  1  0
 32 33  1  0
 32 34  1  0
 30 35  1  0
 35 36  2  0
 35 37  1  0
 37 38  1  0
 38 39  1  0
 39 40  1  0
 40 41  2  0
 41 42  1  0
 42 43  2  0
 43 44  1  0
 44 45  2  0
 38 46  1  0
 46 47  2  0
 46 48  1  0
 48  6  1  0
 26 21  1  0
 45 40  1  0
  1 49  1  0
  1 50  1  0
  1 51  1  0
  2 52  1  0
  2 53  1  0
  3 54  1  0
  3 55  1  0
  4 56  1  0
  4 57  1  0
  5 58  1  0
  5 59  1  0
  6 60  1  0
  7 61  1  0
  7 62  1  0
 10 63  1  0
 11 64  1  0
 12 65  1  0
 12 66  1  0
 13 67  1  0
 14 68  1  0
 14 69  1  0
 14 70  1  0
 15 71  1  0
 15 72  1  0
 15 73  1  0
 18 74  1  0
 19 75  1  0
 20 76  1  0
 20 77  1  0
 22 78  1  0
 23 79  1  0
 24 80  1  0
 25 81  1  0
 26 82  1  0
 29 83  1  0
 30 84  1  0
 31 85  1  0
 31 86  1  0
 32 87  1  0
 33 88  1  0
 33 89  1  0
 33 90  1  0
 34 91  1  0
 34 92  1  0
 34 93  1  0
 37 94  1  0
 38 95  1  0
 39 96  1  0
 39 97  1  0
 41 98  1  0
 42 99  1  0
 43100  1  0
 44101  1  0
 45102  1  0
M  END
$$$$
