
     RDKit          3D

 38 39  0  0  0  0  0  0  0  0999 V2000
   -1.7235    0.4153   -0.5565 O   0  0  0  0  0  0  0  0  0  0  0  0
   -0.7698   -0.2625   -0.2000 C   0  0  0  0  0  0  0  0  0  0  0  0
   -0.8655   -1.3109    0.8512 C   0  0  0  0  0  0  0  0  0  0  0  0
   -1.9181   -1.5004    1.6649 C   0  0  0  0  0  0  0  0  0  0  0  0
   -3.1552   -0.7055    1.7039 C   0  0  0  0  0  0  0  0  0  0  0  0
   -4.3205   -1.3147    1.2093 C   0  0  0  0  0  0  0  0  0  0  0  0
   -5.5391   -0.6249    1.1841 C   0  0  0  0  0  0  0  0  0  0  0  0
   -5.6162    0.6866    1.6526 C   0  0  0  0  0  0  0  0  0  0  0  0
   -4.4750    1.3129    2.1534 C   0  0  0  0  0  0  0  0  0  0  0  0
   -3.2551    0.6147    2.1812 C   0  0  0  0  0  0  0  0  0  0  0  0
   -2.1006    1.3023    2.7527 N   0  0  0  0  0  4  0  0  0  0  0  0
   -1.9429    2.4975    2.4597 O   0  0  0  0  0  0  0  0  0  0  0  0
   -1.3821    0.6694    3.5423 O   0  0  0  0  0  1  0  0  0  0  0  0
    0.4960   -0.1470   -0.7171 N   0  0  0  0  0  0  0  0  0  0  0  0
    0.7988    0.7504   -1.8196 C   0  0  0  0  0  0  0  0  0  0  0  0
    2.1242    1.4954   -1.6196 C   0  0  0  0  0  0  0  0  0  0  0  0
    3.3253    0.5763   -1.5477 C   0  0  0  0  0  0  0  0  0  0  0  0
    3.9807    0.3626   -0.3233 C   0  0  0  0  0  0  0  0  0  0  0  0
    5.0813   -0.4940   -0.2530 C   0  0  0  0  0  0  0  0  0  0  0  0
    5.5260   -1.1365   -1.4038 C   0  0  0  0  0  0  0  0  0  0  0  0
    6.5829   -1.9584   -1.3352 F   0  0  0  0  0  0  0  0  0  0  0  0
    4.8921   -0.9368   -2.6255 C   0  0  0  0  0  0  0  0  0  0  0  0
    3.7918   -0.0797   -2.6992 C   0  0  0  0  0  0  0  0  0  0  0  0
   -0.0104   -1.9711    0.9538 H   0  0  0  0  0  0  0  0  0  0  0  0
   -1.8807   -2.3093    2.3921 H   0  0  0  0  0  0  0  0  0  0  0  0
   -4.2856   -2.3317    0.8203 H   0  0  0  0  0  0  0  0  0  0  0  0
   -6.4280   -1.1120    0.7850 H   0  0  0  0  0  0  0  0  0  0  0  0
   -6.5635    1.2211    1.6227 H   0  0  0  0  0  0  0  0  0  0  0  0
   -4.5411    2.3365    2.5173 H   0  0  0  0  0  0  0  0  0  0  0  0
    1.2162   -0.8016   -0.4415 H   0  0  0  0  0  0  0  0  0  0  0  0
    0.8240    0.1370   -2.7286 H   0  0  0  0  0  0  0  0  0  0  0  0
   -0.0101    1.4803   -1.9369 H   0  0  0  0  0  0  0  0  0  0  0  0
    2.0692    2.1041   -0.7062 H   0  0  0  0  0  0  0  0  0  0  0  0
    2.2756    2.1996   -2.4476 H   0  0  0  0  0  0  0  0  0  0  0  0
    3.6396    0.8654    0.5811 H   0  0  0  0  0  0  0  0  0  0  0  0
    5.5960   -0.6599    0.6892 H   0  0  0  0  0  0  0  0  0  0  0  0
    5.2595   -1.4471   -3.5119 H   0  0  0  0  0  0  0  0  0  0  0  0
    3.3038    0.0768   -3.6603 H   0  0  0  0  0  0  0  0  0  0  0  0
  1  2  2  0
  2  3  1  0
  3  4  2  3
  4  5  1  0
  5  6  2  0
  6  7  1  0
  7  8  2  0
  8  9  1  0
  9 10  2  0
 10 11  1  0
 11 12  2  0
 11 13  1  0
  2 14  1  0
 14 15  1  0
 15 16  1  0
 16 17  1  0
 17 18  2  0
 18 19  1  0
 19 20  2  0
 20 21  1  0
 20 22  1  0
 22 23  2  0
 10  5  1  0
 23 17  1  0
  3 24  1  0
  4 25  1  0
  6 26  1  0
  7 27  1  0
  8 28  1  0
  9 29  1  0
 14 30  1  0
 15 31  1  0
 15 32  1  0
 16 33  1  0
 16 34  1  0
 18 35  1  0
 19 36  1  0
 22 37  1  0
 23 38  1  0
M  CHG  2  11   1  13  -1
M  END
$$$$
