
     RDKit          3D

 40 42  0  0  0  0  0  0  0  0999 V2000
    5.3812   -1.0007    0.3092 N   0  0  0  0  0  0  0  0  0  0  0  0
    4.0823   -0.5851    0.8232 C   0  0  0  0  0  0  0  0  0  0  0  0
    3.0680   -0.4333   -0.3095 C   0  0  0  0  0  0  0  0  0  0  0  0
    1.7020    0.0003    0.2266 C   0  0  0  0  0  0  0  0  0  0  0  0
    0.6862    0.1594   -0.9147 C   0  0  0  0  0  0  0  0  0  0  0  0
   -0.6449    0.5655   -0.4089 N   0  0  0  0  0  0  0  0  0  0  0  0
   -0.9232    1.9642   -0.3665 C   0  0  0  0  0  0  0  0  0  0  0  0
    0.0984    2.9396   -0.4387 C   0  0  0  0  0  0  0  0  0  0  0  0
   -0.1631    4.3146   -0.3845 C   0  0  0  0  0  0  0  0  0  0  0  0
   -1.4644    4.7665   -0.2519 C   0  0  0  0  0  0  0  0  0  0  0  0
   -2.4961    3.8393   -0.1714 C   0  0  0  0  0  0  0  0  0  0  0  0
   -2.2372    2.4546   -0.2230 C   0  0  0  0  0  0  0  0  0  0  0  0
   -3.6718    1.4108   -0.1350 S   0  0  0  0  0  0  0  0  0  0  0  0
   -2.9547   -0.2041    0.0417 C   0  0  0  0  0  0  0  0  0  0  0  0
   -3.8656   -1.2373    0.3367 C   0  0  0  0  0  0  0  0  0  0  0  0
   -3.4405   -2.5537    0.4804 C   0  0  0  0  0  0  0  0  0  0  0  0
   -2.0916   -2.8608    0.3255 C   0  0  0  0  0  0  0  0  0  0  0  0
   -1.5944   -4.2738    0.5054 C   0  0  0  0  0  0  0  0  0  0  0  0
   -2.5396   -5.2161    0.2349 F   0  0  0  0  0  0  0  0  0  0  0  0
   -0.5353   -4.5689   -0.3001 F   0  0  0  0  0  0  0  0  0  0  0  0
   -1.1744   -4.5165    1.7770 F   0  0  0  0  0  0  0  0  0  0  0  0
   -1.1857   -1.8196    0.0372 C   0  0  0  0  0  0  0  0  0  0  0  0
   -1.5813   -0.4708   -0.1239 C   0  0  0  0  0  0  0  0  0  0  0  0
    5.7169   -0.3257   -0.3768 H   0  0  0  0  0  0  0  0  0  0  0  0
    5.2917   -1.8873   -0.1858 H   0  0  0  0  0  0  0  0  0  0  0  0
    4.1989    0.3638    1.3577 H   0  0  0  0  0  0  0  0  0  0  0  0
    3.7331   -1.3275    1.5489 H   0  0  0  0  0  0  0  0  0  0  0  0
    3.4282    0.3085   -1.0334 H   0  0  0  0  0  0  0  0  0  0  0  0
    2.9641   -1.3851   -0.8454 H   0  0  0  0  0  0  0  0  0  0  0  0
    1.8095    0.9403    0.7792 H   0  0  0  0  0  0  0  0  0  0  0  0
    1.3480   -0.7355    0.9573 H   0  0  0  0  0  0  0  0  0  0  0  0
    0.6200   -0.7688   -1.4973 H   0  0  0  0  0  0  0  0  0  0  0  0
    1.0606    0.8725   -1.6608 H   0  0  0  0  0  0  0  0  0  0  0  0
    1.1441    2.6640   -0.5232 H   0  0  0  0  0  0  0  0  0  0  0  0
    0.6575    5.0253   -0.4415 H   0  0  0  0  0  0  0  0  0  0  0  0
   -1.6783    5.8307   -0.2087 H   0  0  0  0  0  0  0  0  0  0  0  0
   -3.5169    4.2025   -0.0679 H   0  0  0  0  0  0  0  0  0  0  0  0
   -4.9249   -1.0147    0.4571 H   0  0  0  0  0  0  0  0  0  0  0  0
   -4.1663   -3.3309    0.7132 H   0  0  0  0  0  0  0  0  0  0  0  0
   -0.1404   -2.1062   -0.0423 H   0  0  0  0  0  0  0  0  0  0  0  0
  1  2  1  0
  2  3  1  0
  3  4  1  0
  4  5  1  0
  5  6  1  0
  6  7  1  0
  7  8  2  0
  8  9  1  0
  9 10  2  0
 10 11  1  0
 11 12  2  0
 12 13  1  0
 13 14  1  0
 14 15  2  0
 15 16  1  0
 16 17  2  0
 17 18  1  0
 18 19  1  0
 18 20  1  0
 18 21  1  0
 17 22  1  0
 22 23  2  0
 23  6  1  0
 12  7  1  0
 23 14  1  0
  1 24  1  0
  1 25  1  0
  2 26  1  0
  2 27  1  0
  3 28  1  0
  3 29  1  0
  4 30  1  0
  4 31  1  0
  5 32  1  0
  5 33  1  0
  8 34  1  0
  9 35  1  0
 10 36  1  0
 11 37  1  0
 15 38  1  0
 16 39  1  0
 22 40  1  0
M  END
$$$$
