
     RDKit          3D

 56 60  0  0  0  0  0  0  0  0999 V2000
   -4.8591   -1.3466   -3.4021 C   0  0  0  0  0  0  0  0  0  0  0  0
   -3.6403   -1.0386   -2.5796 C   0  0  0  0  0  0  0  0  0  0  0  0
   -2.4635   -1.7569   -2.8493 C   0  0  0  0  0  0  0  0  0  0  0  0
   -1.2859   -1.5193   -2.1324 C   0  0  0  0  0  0  0  0  0  0  0  0
   -1.2345   -0.5506   -1.1214 C   0  0  0  0  0  0  0  0  0  0  0  0
    0.0160   -0.2993   -0.3846 C   0  0  0  0  0  0  0  0  0  0  0  0
    1.0505    0.0478   -1.1808 N   0  0  0  0  0  0  0  0  0  0  0  0
    2.2731    0.3352   -0.6408 N   0  0  0  0  0  0  0  0  0  0  0  0
    2.4776    0.2817    0.6914 C   0  0  0  0  0  0  0  0  0  0  0  0
    3.7679    0.5522    1.2263 N   0  0  0  0  0  0  0  0  0  0  0  0
    4.8742    1.1442    0.5732 C   0  0  0  0  0  0  0  0  0  0  0  0
    4.7226    2.1052   -0.4514 C   0  0  0  0  0  0  0  0  0  0  0  0
    5.8292    2.7277   -1.0430 C   0  0  0  0  0  0  0  0  0  0  0  0
    7.0784    2.3912   -0.5765 C   0  0  0  0  0  0  0  0  0  0  0  0
    7.2427    1.4856    0.4418 C   0  0  0  0  0  0  0  0  0  0  0  0
    6.1683    0.8610    1.0434 C   0  0  0  0  0  0  0  0  0  0  0  0
    8.5514    1.3008    0.7655 O   0  0  0  0  0  0  0  0  0  0  0  0
    9.1904    2.1870   -0.1760 C   0  0  0  0  0  0  0  0  0  0  0  0
    8.2601    2.8915   -1.0238 O   0  0  0  0  0  0  0  0  0  0  0  0
    1.4255   -0.0752    1.5677 C   0  0  0  0  0  0  0  0  0  0  0  0
    1.5760   -0.1228    2.9778 C   0  0  0  0  0  0  0  0  0  0  0  0
    0.5313   -0.5057    3.8194 C   0  0  0  0  0  0  0  0  0  0  0  0
   -0.6944   -0.8538    3.2766 C   0  0  0  0  0  0  0  0  0  0  0  0
   -0.8769   -0.8010    1.8945 C   0  0  0  0  0  0  0  0  0  0  0  0
    0.1617   -0.3944    1.0146 C   0  0  0  0  0  0  0  0  0  0  0  0
   -2.3997    0.1878   -0.8681 C   0  0  0  0  0  0  0  0  0  0  0  0
   -3.5962   -0.0614   -1.5698 C   0  0  0  0  0  0  0  0  0  0  0  0
   -5.0011    0.9367   -1.0849 S   0  0  0  0  0  6  0  0  0  0  0  0
   -4.4992    2.2494   -0.7437 O   0  0  0  0  0  0  0  0  0  0  0  0
   -6.0864    0.7620   -2.0221 O   0  0  0  0  0  0  0  0  0  0  0  0
   -5.4517    0.2116    0.3599 N   0  0  0  0  0  0  0  0  0  0  0  0
   -5.9704   -1.1636    0.3495 C   0  0  0  0  0  0  0  0  0  0  0  0
   -6.1251   -1.6369    1.7960 C   0  0  0  0  0  0  0  0  0  0  0  0
   -4.8422   -1.6684    2.4320 O   0  0  0  0  0  0  0  0  0  0  0  0
   -5.1176   -0.4934   -4.0358 H   0  0  0  0  0  0  0  0  0  0  0  0
   -4.6855   -2.1990   -4.0688 H   0  0  0  0  0  0  0  0  0  0  0  0
   -5.7022   -1.6218   -2.7626 H   0  0  0  0  0  0  0  0  0  0  0  0
   -2.4466   -2.5118   -3.6349 H   0  0  0  0  0  0  0  0  0  0  0  0
   -0.3918   -2.0913   -2.3812 H   0  0  0  0  0  0  0  0  0  0  0  0
    4.0542   -0.2428    1.7890 H   0  0  0  0  0  0  0  0  0  0  0  0
    3.7305    2.3861   -0.7991 H   0  0  0  0  0  0  0  0  0  0  0  0
    5.7029    3.4541   -1.8379 H   0  0  0  0  0  0  0  0  0  0  0  0
    6.3407    0.1646    1.8555 H   0  0  0  0  0  0  0  0  0  0  0  0
    9.7845    2.9214    0.3803 H   0  0  0  0  0  0  0  0  0  0  0  0
    9.8633    1.5970   -0.8093 H   0  0  0  0  0  0  0  0  0  0  0  0
    2.5194    0.1599    3.4421 H   0  0  0  0  0  0  0  0  0  0  0  0
    0.6787   -0.5276    4.8970 H   0  0  0  0  0  0  0  0  0  0  0  0
   -1.5139   -1.1580    3.9238 H   0  0  0  0  0  0  0  0  0  0  0  0
   -1.8528   -1.0870    1.5092 H   0  0  0  0  0  0  0  0  0  0  0  0
   -2.3736    0.9788   -0.1169 H   0  0  0  0  0  0  0  0  0  0  0  0
   -4.8689    0.4713    1.1590 H   0  0  0  0  0  0  0  0  0  0  0  0
   -6.9335   -1.1947   -0.1677 H   0  0  0  0  0  0  0  0  0  0  0  0
   -5.2596   -1.8245   -0.1554 H   0  0  0  0  0  0  0  0  0  0  0  0
   -6.7647   -0.9543    2.3658 H   0  0  0  0  0  0  0  0  0  0  0  0
   -6.5588   -2.6402    1.8394 H   0  0  0  0  0  0  0  0  0  0  0  0
   -4.3749   -2.4508    2.0902 H   0  0  0  0  0  0  0  0  0  0  0  0
  1  2  1  0
  2  3  2  0
  3  4  1  0
  4  5  2  0
  5  6  1  0
  6  7  2  0
  7  8  1  0
  8  9  2  0
  9 10  1  0
 10 11  1  0
 11 12  2  0
 12 13  1  0
 13 14  2  0
 14 15  1  0
 15 16  2  0
 15 17  1  0
 17 18  1  0
 18 19  1  0
  9 20  1  0
 20 21  2  0
 21 22  1  0
 22 23  2  0
 23 24  1  0
 24 25  2  0
  5 26  1  0
 26 27  2  0
 27 28  1  0
 28 29  2  0
 28 30  2  0
 28 31  1  0
 31 32  1  0
 32 33  1  0
 33 34  1  0
 27  2  1  0
 25  6  1  0
 16 11  1  0
 25 20  1  0
 19 14  1  0
  1 35  1  0
  1 36  1  0
  1 37  1  0
  3 38  1  0
  4 39  1  0
 10 40  1  0
 12 41  1  0
 13 42  1  0
 16 43  1  0
 18 44  1  0
 18 45  1  0
 21 46  1  0
 22 47  1  0
 23 48  1  0
 24 49  1  0
 26 50  1  0
 31 51  1  0
 32 52  1  0
 32 53  1  0
 33 54  1  0
 33 55  1  0
 34 56  1  0
M  END
$$$$
