
     RDKit          3D

 60 65  0  0  0  0  0  0  0  0999 V2000
    1.5397    2.2507    2.9957 O   0  0  0  0  0  0  0  0  0  0  0  0
    1.9863    1.3320    2.3191 C   0  0  0  0  0  0  0  0  0  0  0  0
    1.1815    0.3362    1.7798 N   0  0  0  0  0  0  0  0  0  0  0  0
    1.6537   -0.7181    0.9986 C   0  0  0  0  0  0  0  0  0  0  0  0
    0.6065   -1.7031    0.4940 C   0  0  0  0  0  0  0  0  0  0  0  0
   -0.3755   -0.9694   -0.4393 C   0  0  0  0  0  0  0  0  0  0  0  0
   -1.7356   -1.6363   -0.5616 C   0  0  0  0  0  0  0  0  0  0  0  0
   -2.2638   -2.0420    0.7607 N   0  0  0  0  0  0  0  0  0  0  0  0
   -2.8305   -0.8231    1.8183 S   0  0  0  0  0  6  0  0  0  0  0  0
   -3.4207   -1.4718    2.9683 O   0  0  0  0  0  0  0  0  0  0  0  0
   -1.7550    0.1381    1.9826 O   0  0  0  0  0  0  0  0  0  0  0  0
   -4.1420   -0.0709    0.8971 C   0  0  0  0  0  0  0  0  0  0  0  0
   -5.3100   -0.8049    0.6602 C   0  0  0  0  0  0  0  0  0  0  0  0
   -6.3556   -0.2204   -0.0550 C   0  0  0  0  0  0  0  0  0  0  0  0
   -6.2315    1.0889   -0.5191 C   0  0  0  0  0  0  0  0  0  0  0  0
   -5.0516    1.8091   -0.2940 C   0  0  0  0  0  0  0  0  0  0  0  0
   -4.0085    1.2394    0.4319 C   0  0  0  0  0  0  0  0  0  0  0  0
   -4.8531    3.0865   -0.7508 O   0  0  0  0  0  0  0  0  0  0  0  0
   -5.8286    3.4528   -1.7340 C   0  0  0  0  0  0  0  0  0  0  0  0
   -7.2213    3.0324   -1.2950 C   0  0  0  0  0  0  0  0  0  0  0  0
   -7.3075    1.6060   -1.1940 O   0  0  0  0  0  0  0  0  0  0  0  0
   -1.3745   -3.0497    1.3863 C   0  0  0  0  0  0  0  0  0  0  0  0
   -0.0178   -2.4383    1.6942 C   0  0  0  0  0  0  0  0  0  0  0  0
    2.9087   -0.8990    0.6884 N   0  0  0  0  0  0  0  0  0  0  0  0
    3.7156    0.0618    1.2035 C   0  0  0  0  0  0  0  0  0  0  0  0
    3.3715    1.1422    1.9805 C   0  0  0  0  0  0  0  0  0  0  0  0
    4.4750    1.8706    2.3045 N   0  0  0  0  0  0  0  0  0  0  0  0
    5.5251    1.2711    1.7431 N   0  0  0  0  0  0  0  0  0  0  0  0
    5.0677    0.1900    1.0638 N   0  0  0  0  0  0  0  0  0  0  0  0
    5.9809   -0.6835    0.3586 C   0  0  0  0  0  0  0  0  0  0  0  0
    6.0776   -0.3177   -1.1029 C   0  0  0  0  0  0  0  0  0  0  0  0
    6.9026    0.7410   -1.5181 C   0  0  0  0  0  0  0  0  0  0  0  0
    6.9811    1.0869   -2.8679 C   0  0  0  0  0  0  0  0  0  0  0  0
    6.2338    0.3798   -3.8016 C   0  0  0  0  0  0  0  0  0  0  0  0
    6.3091    0.7127   -5.0968 F   0  0  0  0  0  0  0  0  0  0  0  0
    5.4054   -0.6652   -3.4114 C   0  0  0  0  0  0  0  0  0  0  0  0
    5.3234   -1.0132   -2.0624 C   0  0  0  0  0  0  0  0  0  0  0  0
    0.1882    0.4298    1.9893 H   0  0  0  0  0  0  0  0  0  0  0  0
    1.1196   -2.4613   -0.1140 H   0  0  0  0  0  0  0  0  0  0  0  0
    0.0754   -0.8979   -1.4381 H   0  0  0  0  0  0  0  0  0  0  0  0
   -0.5175    0.0736   -0.1382 H   0  0  0  0  0  0  0  0  0  0  0  0
   -1.6525   -2.5324   -1.1896 H   0  0  0  0  0  0  0  0  0  0  0  0
   -2.4427   -0.9815   -1.0794 H   0  0  0  0  0  0  0  0  0  0  0  0
   -5.4101   -1.8213    1.0357 H   0  0  0  0  0  0  0  0  0  0  0  0
   -7.2716   -0.7764   -0.2367 H   0  0  0  0  0  0  0  0  0  0  0  0
   -3.1071    1.8165    0.6205 H   0  0  0  0  0  0  0  0  0  0  0  0
   -5.7825    4.5393   -1.8580 H   0  0  0  0  0  0  0  0  0  0  0  0
   -5.5515    2.9874   -2.6879 H   0  0  0  0  0  0  0  0  0  0  0  0
   -7.9645    3.3583   -2.0293 H   0  0  0  0  0  0  0  0  0  0  0  0
   -7.4859    3.4683   -0.3237 H   0  0  0  0  0  0  0  0  0  0  0  0
   -1.2604   -3.8982    0.7004 H   0  0  0  0  0  0  0  0  0  0  0  0
   -1.8347   -3.4567    2.2929 H   0  0  0  0  0  0  0  0  0  0  0  0
    0.6678   -3.2308    2.0219 H   0  0  0  0  0  0  0  0  0  0  0  0
   -0.1118   -1.7782    2.5637 H   0  0  0  0  0  0  0  0  0  0  0  0
    5.6318   -1.7146    0.4878 H   0  0  0  0  0  0  0  0  0  0  0  0
    6.9639   -0.6169    0.8398 H   0  0  0  0  0  0  0  0  0  0  0  0
    7.4807    1.3083   -0.7898 H   0  0  0  0  0  0  0  0  0  0  0  0
    7.6147    1.9055   -3.1942 H   0  0  0  0  0  0  0  0  0  0  0  0
    4.8265   -1.1980   -4.1587 H   0  0  0  0  0  0  0  0  0  0  0  0
    4.6624   -1.8243   -1.7625 H   0  0  0  0  0  0  0  0  0  0  0  0
  1  2  2  0
  2  3  1  0
  3  4  1  0
  4  5  1  0
  5  6  1  0
  6  7  1  0
  7  8  1  0
  8  9  1  0
  9 10  2  0
  9 11  2  0
  9 12  1  0
 12 13  2  0
 13 14  1  0
 14 15  2  0
 15 16  1  0
 16 17  2  0
 16 18  1  0
 18 19  1  0
 19 20  1  0
 20 21  1  0
  8 22  1  0
 22 23  1  0
  4 24  2  0
 24 25  1  0
 25 26  2  0
 26 27  1  0
 27 28  2  0
 28 29  1  0
 29 30  1  0
 30 31  1  0
 31 32  2  0
 32 33  1  0
 33 34  2  0
 34 35  1  0
 34 36  1  0
 36 37  2  0
 26  2  1  0
 37 31  1  0
 23  5  1  0
 29 25  1  0
 17 12  1  0
 21 15  1  0
  3 38  1  0
  5 39  1  0
  6 40  1  0
  6 41  1  0
  7 42  1  0
  7 43  1  0
 13 44  1  0
 14 45  1  0
 17 46  1  0
 19 47  1  0
 19 48  1  0
 20 49  1  0
 20 50  1  0
 22 51  1  0
 22 52  1  0
 23 53  1  0
 23 54  1  0
 30 55  1  0
 30 56  1  0
 32 57  1  0
 33 58  1  0
 36 59  1  0
 37 60  1  0
M  END
$$$$
