
     RDKit          3D

 59 62  0  0  0  0  0  0  0  0999 V2000
   -5.8782   -0.4386   -3.5490 C   0  0  0  0  0  0  0  0  0  0  0  0
   -6.0181   -1.1121   -2.1964 C   0  0  0  0  0  0  0  0  0  0  0  0
   -4.9855   -0.6925   -1.2615 N   0  0  0  0  0  0  0  0  0  0  0  0
   -5.0806    0.4082   -0.4313 C   0  0  0  0  0  0  0  0  0  0  0  0
   -6.0962    1.3673   -0.2767 C   0  0  0  0  0  0  0  0  0  0  0  0
   -5.9098    2.3799    0.6680 C   0  0  0  0  0  0  0  0  0  0  0  0
   -4.7497    2.4415    1.4322 C   0  0  0  0  0  0  0  0  0  0  0  0
   -3.7422    1.4879    1.2677 C   0  0  0  0  0  0  0  0  0  0  0  0
   -3.9048    0.4530    0.3205 C   0  0  0  0  0  0  0  0  0  0  0  0
   -3.0871   -0.6455   -0.0888 C   0  0  0  0  0  0  0  0  0  0  0  0
   -1.8071   -1.1035    0.2967 C   0  0  0  0  0  0  0  0  0  0  0  0
   -1.2506   -2.2455   -0.3000 C   0  0  0  0  0  0  0  0  0  0  0  0
    0.0331   -2.6266    0.1353 N   0  0  0  0  0  0  0  0  0  0  0  0
    0.7923   -3.7100   -0.2821 C   0  0  0  0  0  0  0  0  0  0  0  0
    0.4442   -4.5913   -1.0626 O   0  0  0  0  0  0  0  0  0  0  0  0
    2.1565   -3.7775    0.4330 C   0  0  0  0  0  0  0  0  0  0  0  0
    1.9958   -4.5319    1.7467 C   0  0  0  0  0  0  0  0  0  0  0  0
    2.6623   -2.4700    0.7576 O   0  0  0  0  0  0  0  0  0  0  0  0
    3.2418   -1.8158   -0.2820 C   0  0  0  0  0  0  0  0  0  0  0  0
    3.3591   -2.2469   -1.4154 O   0  0  0  0  0  0  0  0  0  0  0  0
    3.7048   -0.4653    0.1395 C   0  0  0  0  0  0  0  0  0  0  0  0
    4.2549    0.3778   -0.8321 C   0  0  0  0  0  0  0  0  0  0  0  0
    4.7035    1.6615   -0.4939 C   0  0  0  0  0  0  0  0  0  0  0  0
    4.6083    2.1204    0.8209 C   0  0  0  0  0  0  0  0  0  0  0  0
    5.0352    3.3942    1.2484 N   0  0  0  0  0  0  0  0  0  0  0  0
    5.6348    4.3827    0.4768 C   0  0  0  0  0  0  0  0  0  0  0  0
    5.8917    4.3127   -0.7208 O   0  0  0  0  0  0  0  0  0  0  0  0
    5.9735    5.6313    1.2590 C   0  0  0  0  0  0  0  0  0  0  0  0
    7.3159    5.5176    1.8236 C   0  0  0  0  0  0  0  0  0  0  0  0
    8.3643    5.4301    2.3138 N   0  0  0  0  0  0  0  0  0  0  0  0
    4.0572    1.2745    1.7920 C   0  0  0  0  0  0  0  0  0  0  0  0
    3.6107   -0.0100    1.4577 C   0  0  0  0  0  0  0  0  0  0  0  0
   -1.9724   -2.9234   -1.2777 C   0  0  0  0  0  0  0  0  0  0  0  0
   -3.2416   -2.4883   -1.6826 C   0  0  0  0  0  0  0  0  0  0  0  0
   -3.7821   -1.3459   -1.0737 C   0  0  0  0  0  0  0  0  0  0  0  0
   -5.9482    0.6503   -3.4583 H   0  0  0  0  0  0  0  0  0  0  0  0
   -4.9125   -0.6729   -4.0094 H   0  0  0  0  0  0  0  0  0  0  0  0
   -6.6699   -0.7771   -4.2250 H   0  0  0  0  0  0  0  0  0  0  0  0
   -6.9920   -0.8901   -1.7509 H   0  0  0  0  0  0  0  0  0  0  0  0
   -5.9650   -2.2007   -2.3025 H   0  0  0  0  0  0  0  0  0  0  0  0
   -7.0051    1.3352   -0.8689 H   0  0  0  0  0  0  0  0  0  0  0  0
   -6.6819    3.1326    0.8050 H   0  0  0  0  0  0  0  0  0  0  0  0
   -4.6245    3.2366    2.1640 H   0  0  0  0  0  0  0  0  0  0  0  0
   -2.8387    1.5440    1.8674 H   0  0  0  0  0  0  0  0  0  0  0  0
   -1.2674   -0.5544    1.0614 H   0  0  0  0  0  0  0  0  0  0  0  0
    0.4785   -2.0190    0.8134 H   0  0  0  0  0  0  0  0  0  0  0  0
    2.8682   -4.3144   -0.2073 H   0  0  0  0  0  0  0  0  0  0  0  0
    2.9594   -4.6093    2.2614 H   0  0  0  0  0  0  0  0  0  0  0  0
    1.3139   -4.0076    2.4256 H   0  0  0  0  0  0  0  0  0  0  0  0
    1.6030   -5.5409    1.5803 H   0  0  0  0  0  0  0  0  0  0  0  0
    4.3417    0.0446   -1.8663 H   0  0  0  0  0  0  0  0  0  0  0  0
    5.1265    2.2701   -1.2902 H   0  0  0  0  0  0  0  0  0  0  0  0
    4.9211    3.5835    2.2362 H   0  0  0  0  0  0  0  0  0  0  0  0
    5.9034    6.4917    0.5849 H   0  0  0  0  0  0  0  0  0  0  0  0
    5.2322    5.7885    2.0507 H   0  0  0  0  0  0  0  0  0  0  0  0
    3.9714    1.5960    2.8272 H   0  0  0  0  0  0  0  0  0  0  0  0
    3.2029   -0.6439    2.2427 H   0  0  0  0  0  0  0  0  0  0  0  0
   -1.5736   -3.8099   -1.7635 H   0  0  0  0  0  0  0  0  0  0  0  0
   -3.7772   -3.0329   -2.4536 H   0  0  0  0  0  0  0  0  0  0  0  0
  1  2  1  0
  2  3  1  0
  3  4  1  0
  4  5  2  0
  5  6  1  0
  6  7  2  0
  7  8  1  0
  8  9  2  0
  9 10  1  0
 10 11  2  0
 11 12  1  0
 12 13  1  0
 13 14  1  0
 14 15  2  0
 14 16  1  0
 16 17  1  0
 16 18  1  0
 18 19  1  0
 19 20  2  0
 19 21  1  0
 21 22  2  0
 22 23  1  0
 23 24  2  0
 24 25  1  0
 25 26  1  0
 26 27  2  0
 26 28  1  0
 28 29  1  0
 29 30  3  0
 24 31  1  0
 31 32  2  0
 12 33  2  0
 33 34  1  0
 34 35  2  0
 35  3  1  0
  9  4  1  0
 35 10  1  0
 32 21  1  0
  1 36  1  0
  1 37  1  0
  1 38  1  0
  2 39  1  0
  2 40  1  0
  5 41  1  0
  6 42  1  0
  7 43  1  0
  8 44  1  0
 11 45  1  0
 13 46  1  0
 16 47  1  0
 17 48  1  0
 17 49  1  0
 17 50  1  0
 22 51  1  0
 23 52  1  0
 25 53  1  0
 28 54  1  0
 28 55  1  0
 31 56  1  0
 32 57  1  0
 33 58  1  0
 34 59  1  0
M  END
$$$$
