
     RDKit          3D

 34 34  0  0  0  0  0  0  0  0999 V2000
    6.0624   -0.0689    0.8338 C   0  0  0  0  0  0  0  0  0  0  0  0
    5.3344   -0.4175   -0.4551 C   0  0  0  0  0  0  0  0  0  0  0  0
    3.8223   -0.5523   -0.2828 C   0  0  0  0  0  0  0  0  0  0  0  0
    3.1336    0.7538    0.1039 C   0  0  0  0  0  0  0  0  0  0  0  0
    1.7141    0.5472    0.1962 O   0  0  0  0  0  0  0  0  0  0  0  0
    1.0177    0.7030   -0.9566 C   0  0  0  0  0  0  0  0  0  0  0  0
    1.4863    0.9926   -2.0462 O   0  0  0  0  0  0  0  0  0  0  0  0
   -0.4338    0.4663   -0.7282 C   0  0  0  0  0  0  0  0  0  0  0  0
   -0.9563    0.1295    0.5251 C   0  0  0  0  0  0  0  0  0  0  0  0
   -2.3324   -0.0836    0.6863 C   0  0  0  0  0  0  0  0  0  0  0  0
   -3.2033    0.0367   -0.3982 C   0  0  0  0  0  0  0  0  0  0  0  0
   -4.5967   -0.1622   -0.3178 N   0  0  0  0  0  0  0  0  0  0  0  0
   -5.3377   -0.4880    0.8041 C   0  0  0  0  0  0  0  0  0  0  0  0
   -6.8097   -0.6144    0.4989 C   0  0  0  0  0  0  0  0  0  0  0  0
   -4.9191   -0.6442    1.9453 O   0  0  0  0  0  0  0  0  0  0  0  0
   -2.6773    0.3732   -1.6518 C   0  0  0  0  0  0  0  0  0  0  0  0
   -1.3043    0.5867   -1.8171 C   0  0  0  0  0  0  0  0  0  0  0  0
    5.7912    0.9291    1.1904 H   0  0  0  0  0  0  0  0  0  0  0  0
    7.1445   -0.0783    0.6680 H   0  0  0  0  0  0  0  0  0  0  0  0
    5.8343   -0.7930    1.6223 H   0  0  0  0  0  0  0  0  0  0  0  0
    5.5567    0.3397   -1.2159 H   0  0  0  0  0  0  0  0  0  0  0  0
    5.7279   -1.3694   -0.8310 H   0  0  0  0  0  0  0  0  0  0  0  0
    3.5934   -1.3202    0.4668 H   0  0  0  0  0  0  0  0  0  0  0  0
    3.3931   -0.9239   -1.2214 H   0  0  0  0  0  0  0  0  0  0  0  0
    3.4618    1.0822    1.0950 H   0  0  0  0  0  0  0  0  0  0  0  0
    3.3700    1.5626   -0.5978 H   0  0  0  0  0  0  0  0  0  0  0  0
   -0.3096    0.0266    1.3933 H   0  0  0  0  0  0  0  0  0  0  0  0
   -2.6889   -0.3439    1.6786 H   0  0  0  0  0  0  0  0  0  0  0  0
   -5.1110   -0.0442   -1.1817 H   0  0  0  0  0  0  0  0  0  0  0  0
   -7.2697    0.3771    0.5169 H   0  0  0  0  0  0  0  0  0  0  0  0
   -7.2838   -1.2489    1.2533 H   0  0  0  0  0  0  0  0  0  0  0  0
   -6.9683   -1.0764   -0.4798 H   0  0  0  0  0  0  0  0  0  0  0  0
   -3.3237    0.4754   -2.5200 H   0  0  0  0  0  0  0  0  0  0  0  0
   -0.9180    0.8476   -2.8010 H   0  0  0  0  0  0  0  0  0  0  0  0
  1  2  1  0
  2  3  1  0
  3  4  1  0
  4  5  1  0
  5  6  1  0
  6  7  2  0
  6  8  1  0
  8  9  2  0
  9 10  1  0
 10 11  2  0
 11 12  1  0
 12 13  1  0
 13 14  1  0
 13 15  2  0
 11 16  1  0
 16 17  2  0
 17  8  1  0
  1 18  1  0
  1 19  1  0
  1 20  1  0
  2 21  1  0
  2 22  1  0
  3 23  1  0
  3 24  1  0
  4 25  1  0
  4 26  1  0
  9 27  1  0
 10 28  1  0
 12 29  1  0
 14 30  1  0
 14 31  1  0
 14 32  1  0
 16 33  1  0
 17 34  1  0
M  END
$$$$
