
     RDKit          3D

 40 41  0  0  0  0  0  0  0  0999 V2000
    5.9849    0.8113   -4.5350 C   0  0  0  0  0  0  0  0  0  0  0  0
    4.6979    0.4638   -5.2702 C   0  0  0  0  0  0  0  0  0  0  0  0
    3.7845   -0.4487   -4.4539 C   0  0  0  0  0  0  0  0  0  0  0  0
    3.0773    0.2568   -3.3033 C   0  0  0  0  0  0  0  0  0  0  0  0
    3.1277    1.4706   -3.1484 O   0  0  0  0  0  0  0  0  0  0  0  0
    2.3804   -0.6456   -2.5133 N   0  0  0  0  0  0  0  0  0  0  0  0
    1.6123   -0.3675   -1.3642 C   0  0  0  0  0  0  0  0  0  0  0  0
    0.9823   -1.4522   -0.7392 C   0  0  0  0  0  0  0  0  0  0  0  0
    0.1987   -1.2670    0.4068 C   0  0  0  0  0  0  0  0  0  0  0  0
    0.0318    0.0152    0.9401 C   0  0  0  0  0  0  0  0  0  0  0  0
   -0.7880    0.2711    2.1564 C   0  0  0  0  0  0  0  0  0  0  0  0
   -0.6116    1.2773    2.8389 O   0  0  0  0  0  0  0  0  0  0  0  0
   -1.7671   -0.6612    2.4480 N   0  0  0  0  0  0  0  0  0  0  0  0
   -2.6975   -0.3084    3.4439 N   0  0  0  0  0  0  0  0  0  0  0  0
   -4.0315   -0.6120    3.2233 C   0  0  0  0  0  0  0  0  0  0  0  0
   -4.3544   -1.3705    2.3054 O   0  0  0  0  0  0  0  0  0  0  0  0
   -4.9942    0.0175    4.1155 C   0  0  0  0  0  0  0  0  0  0  0  0
   -6.3694   -0.1349    4.0852 C   0  0  0  0  0  0  0  0  0  0  0  0
   -7.0297    0.6213    5.0962 C   0  0  0  0  0  0  0  0  0  0  0  0
   -6.1390    1.3300    5.8696 C   0  0  0  0  0  0  0  0  0  0  0  0
   -4.5218    1.0806    5.3756 S   0  0  0  0  0  0  0  0  0  0  0  0
    0.6726    1.0974    0.3286 C   0  0  0  0  0  0  0  0  0  0  0  0
    1.4536    0.9069   -0.8184 C   0  0  0  0  0  0  0  0  0  0  0  0
    6.5465   -0.0934   -4.2807 H   0  0  0  0  0  0  0  0  0  0  0  0
    5.7851    1.3614   -3.6108 H   0  0  0  0  0  0  0  0  0  0  0  0
    6.6222    1.4372   -5.1677 H   0  0  0  0  0  0  0  0  0  0  0  0
    4.1747    1.3861   -5.5476 H   0  0  0  0  0  0  0  0  0  0  0  0
    4.9615   -0.0474   -6.2037 H   0  0  0  0  0  0  0  0  0  0  0  0
    4.3554   -1.2978   -4.0602 H   0  0  0  0  0  0  0  0  0  0  0  0
    3.0039   -0.8453   -5.1147 H   0  0  0  0  0  0  0  0  0  0  0  0
    2.4209   -1.6166   -2.7963 H   0  0  0  0  0  0  0  0  0  0  0  0
    1.0961   -2.4606   -1.1302 H   0  0  0  0  0  0  0  0  0  0  0  0
   -0.2485   -2.1384    0.8768 H   0  0  0  0  0  0  0  0  0  0  0  0
   -2.1314   -1.2841    1.7277 H   0  0  0  0  0  0  0  0  0  0  0  0
   -2.4442    0.4903    4.0262 H   0  0  0  0  0  0  0  0  0  0  0  0
   -6.8751   -0.7659    3.3623 H   0  0  0  0  0  0  0  0  0  0  0  0
   -8.1023    0.6440    5.2468 H   0  0  0  0  0  0  0  0  0  0  0  0
   -6.3591    1.9840    6.7026 H   0  0  0  0  0  0  0  0  0  0  0  0
    0.5677    2.1009    0.7382 H   0  0  0  0  0  0  0  0  0  0  0  0
    1.9268    1.7809   -1.2559 H   0  0  0  0  0  0  0  0  0  0  0  0
  1  2  1  0
  2  3  1  0
  3  4  1  0
  4  5  2  0
  4  6  1  0
  6  7  1  0
  7  8  2  0
  8  9  1  0
  9 10  2  0
 10 11  1  0
 11 12  2  0
 11 13  1  0
 13 14  1  0
 14 15  1  0
 15 16  2  0
 15 17  1  0
 17 18  2  0
 18 19  1  0
 19 20  2  0
 20 21  1  0
 10 22  1  0
 22 23  2  0
 23  7  1  0
 21 17  1  0
  1 24  1  0
  1 25  1  0
  1 26  1  0
  2 27  1  0
  2 28  1  0
  3 29  1  0
  3 30  1  0
  6 31  1  0
  8 32  1  0
  9 33  1  0
 13 34  1  0
 14 35  1  0
 18 36  1  0
 19 37  1  0
 20 38  1  0
 22 39  1  0
 23 40  1  0
M  END
$$$$
