
     RDKit          3D

 42 43  0  0  0  0  0  0  0  0999 V2000
   -4.3567    1.3369    1.9027 C   0  0  0  0  0  0  0  0  0  0  0  0
   -4.8070    0.4478    0.7880 C   0  0  0  0  0  0  0  0  0  0  0  0
   -4.1861    0.1968   -0.3834 C   0  0  0  0  0  0  0  0  0  0  0  0
   -4.8123   -0.7477   -1.3812 C   0  0  0  0  0  0  0  0  0  0  0  0
   -2.8818    0.8229   -0.8366 C   0  0  0  0  0  0  0  0  0  0  0  0
   -1.8266   -0.1688   -1.0822 N   0  0  0  0  0  0  0  0  0  0  0  0
   -0.7289    0.4406   -1.8680 C   0  0  0  0  0  0  0  0  0  0  0  0
    0.6541   -0.2175   -1.6580 C   0  0  0  0  0  0  0  0  0  0  0  0
    1.0603   -0.1083   -0.2484 N   0  0  0  0  0  0  0  0  0  0  0  0
    2.3870   -0.1884    0.1421 C   0  0  0  0  0  0  0  0  0  0  0  0
    2.8056    0.2270    1.4164 C   0  0  0  0  0  0  0  0  0  0  0  0
    4.1456    0.1570    1.8226 C   0  0  0  0  0  0  0  0  0  0  0  0
    5.1207   -0.3443    0.9616 C   0  0  0  0  0  0  0  0  0  0  0  0
    6.5596   -0.3912    1.3771 C   0  0  0  0  0  0  0  0  0  0  0  0
    4.7342   -0.7450   -0.3168 C   0  0  0  0  0  0  0  0  0  0  0  0
    3.3911   -0.6686   -0.7125 C   0  0  0  0  0  0  0  0  0  0  0  0
   -0.0271   -0.1302    0.7457 C   0  0  0  0  0  0  0  0  0  0  0  0
   -1.3094   -0.7730    0.1657 C   0  0  0  0  0  0  0  0  0  0  0  0
   -5.0548    2.1721    2.0147 H   0  0  0  0  0  0  0  0  0  0  0  0
   -4.3511    0.7710    2.8399 H   0  0  0  0  0  0  0  0  0  0  0  0
   -3.3543    1.7453    1.7638 H   0  0  0  0  0  0  0  0  0  0  0  0
   -5.7544   -0.0534    0.9864 H   0  0  0  0  0  0  0  0  0  0  0  0
   -4.9577   -0.2433   -2.3422 H   0  0  0  0  0  0  0  0  0  0  0  0
   -4.1747   -1.6233   -1.5387 H   0  0  0  0  0  0  0  0  0  0  0  0
   -5.7916   -1.1103   -1.0506 H   0  0  0  0  0  0  0  0  0  0  0  0
   -3.1056    1.3509   -1.7745 H   0  0  0  0  0  0  0  0  0  0  0  0
   -2.5262    1.5943   -0.1461 H   0  0  0  0  0  0  0  0  0  0  0  0
   -0.9930    0.3886   -2.9306 H   0  0  0  0  0  0  0  0  0  0  0  0
   -0.6242    1.5049   -1.6136 H   0  0  0  0  0  0  0  0  0  0  0  0
    1.3660    0.3057   -2.3077 H   0  0  0  0  0  0  0  0  0  0  0  0
    0.6240   -1.2714   -1.9605 H   0  0  0  0  0  0  0  0  0  0  0  0
    2.0909    0.6448    2.1198 H   0  0  0  0  0  0  0  0  0  0  0  0
    4.4149    0.5038    2.8173 H   0  0  0  0  0  0  0  0  0  0  0  0
    7.0558    0.5485    1.1159 H   0  0  0  0  0  0  0  0  0  0  0  0
    7.0823   -1.2169    0.8829 H   0  0  0  0  0  0  0  0  0  0  0  0
    6.6494   -0.5507    2.4569 H   0  0  0  0  0  0  0  0  0  0  0  0
    5.4707   -1.1260   -1.0203 H   0  0  0  0  0  0  0  0  0  0  0  0
    3.1463   -1.0179   -1.7112 H   0  0  0  0  0  0  0  0  0  0  0  0
    0.2592   -0.7182    1.6263 H   0  0  0  0  0  0  0  0  0  0  0  0
   -0.2392    0.8942    1.0742 H   0  0  0  0  0  0  0  0  0  0  0  0
   -2.0745   -0.8168    0.9487 H   0  0  0  0  0  0  0  0  0  0  0  0
   -1.0805   -1.8218   -0.0675 H   0  0  0  0  0  0  0  0  0  0  0  0
  1  2  1  0
  2  3  2  3
  3  4  1  0
  3  5  1  0
  5  6  1  0
  6  7  1  0
  7  8  1  0
  8  9  1  0
  9 10  1  0
 10 11  2  0
 11 12  1  0
 12 13  2  0
 13 14  1  0
 13 15  1  0
 15 16  2  0
  9 17  1  0
 17 18  1  0
 18  6  1  0
 16 10  1  0
  1 19  1  0
  1 20  1  0
  1 21  1  0
  2 22  1  0
  4 23  1  0
  4 24  1  0
  4 25  1  0
  5 26  1  0
  5 27  1  0
  7 28  1  0
  7 29  1  0
  8 30  1  0
  8 31  1  0
 11 32  1  0
 12 33  1  0
 14 34  1  0
 14 35  1  0
 14 36  1  0
 15 37  1  0
 16 38  1  0
 17 39  1  0
 17 40  1  0
 18 41  1  0
 18 42  1  0
M  END
$$$$
