
     RDKit          3D

 33 34  0  0  0  0  0  0  0  0999 V2000
   -4.0257    0.3227   -2.2504 C   0  0  0  0  0  0  0  0  0  0  0  0
   -3.6136    0.0945   -0.8251 C   0  0  0  0  0  0  0  0  0  0  0  0
   -4.5588   -0.2961    0.1299 C   0  0  0  0  0  0  0  0  0  0  0  0
   -4.1673   -0.5598    1.4418 C   0  0  0  0  0  0  0  0  0  0  0  0
   -2.8285   -0.4406    1.8055 C   0  0  0  0  0  0  0  0  0  0  0  0
   -2.5332   -0.7334    3.1114 O   0  0  0  0  0  0  0  0  0  0  0  0
   -1.8622   -0.0434    0.8683 C   0  0  0  0  0  0  0  0  0  0  0  0
   -0.4395    0.0983    1.2962 C   0  0  0  0  0  0  0  0  0  0  0  0
   -0.0880   -0.4063    2.3666 O   0  0  0  0  0  0  0  0  0  0  0  0
    0.5457    0.8643    0.4512 C   0  0  0  0  0  0  0  0  0  0  0  0
    1.3336   -0.0410   -0.4576 C   0  0  0  0  0  0  0  0  0  0  0  0
    0.7977   -0.8112   -1.2507 O   0  0  0  0  0  0  0  0  0  0  0  0
    2.8064   -0.0419   -0.3458 C   0  0  0  0  0  0  0  0  0  0  0  0
    3.4199   -1.2666   -0.0487 C   0  0  0  0  0  0  0  0  0  0  0  0
    4.8068   -1.3388    0.0826 C   0  0  0  0  0  0  0  0  0  0  0  0
    5.5828   -0.1938   -0.0922 C   0  0  0  0  0  0  0  0  0  0  0  0
    4.9743    1.0234   -0.4081 C   0  0  0  0  0  0  0  0  0  0  0  0
    3.5846    1.1033   -0.5414 C   0  0  0  0  0  0  0  0  0  0  0  0
    2.9080    2.6249   -0.9964 Cl  0  0  0  0  0  0  0  0  0  0  0  0
   -2.2642    0.2066   -0.4519 C   0  0  0  0  0  0  0  0  0  0  0  0
   -3.9271   -0.6058   -2.8210 H   0  0  0  0  0  0  0  0  0  0  0  0
   -3.4040    1.0943   -2.7167 H   0  0  0  0  0  0  0  0  0  0  0  0
   -5.0645    0.6646   -2.3078 H   0  0  0  0  0  0  0  0  0  0  0  0
   -5.6061   -0.4073   -0.1434 H   0  0  0  0  0  0  0  0  0  0  0  0
   -4.9030   -0.8681    2.1799 H   0  0  0  0  0  0  0  0  0  0  0  0
   -1.5540   -0.7431    3.2022 H   0  0  0  0  0  0  0  0  0  0  0  0
    1.2094    1.3908    1.1471 H   0  0  0  0  0  0  0  0  0  0  0  0
    0.0518    1.6415   -0.1386 H   0  0  0  0  0  0  0  0  0  0  0  0
    2.8178   -2.1643    0.0835 H   0  0  0  0  0  0  0  0  0  0  0  0
    5.2816   -2.2889    0.3178 H   0  0  0  0  0  0  0  0  0  0  0  0
    6.6647   -0.2509    0.0072 H   0  0  0  0  0  0  0  0  0  0  0  0
    5.5941    1.9044   -0.5597 H   0  0  0  0  0  0  0  0  0  0  0  0
   -1.5395    0.4677   -1.2191 H   0  0  0  0  0  0  0  0  0  0  0  0
  1  2  1  0
  2  3  2  0
  3  4  1  0
  4  5  2  0
  5  6  1  0
  5  7  1  0
  7  8  1  0
  8  9  2  0
  8 10  1  0
 10 11  1  0
 11 12  2  0
 11 13  1  0
 13 14  2  0
 14 15  1  0
 15 16  2  0
 16 17  1  0
 17 18  2  0
 18 19  1  0
  7 20  2  0
 20  2  1  0
 18 13  1  0
  1 21  1  0
  1 22  1  0
  1 23  1  0
  3 24  1  0
  4 25  1  0
  6 26  1  0
 10 27  1  0
 10 28  1  0
 14 29  1  0
 15 30  1  0
 16 31  1  0
 17 32  1  0
 20 33  1  0
M  END
$$$$
