
     RDKit          3D

 44 47  0  0  0  0  0  0  0  0999 V2000
   -2.1307    4.5825   -1.5575 C   0  0  0  0  0  0  0  0  0  0  0  0
   -2.0704    3.2988   -0.8736 N   0  0  0  0  0  0  0  0  0  0  0  0
   -3.2020    2.7795   -0.2760 C   0  0  0  0  0  0  0  0  0  0  0  0
   -4.2873    3.3592   -0.2884 O   0  0  0  0  0  0  0  0  0  0  0  0
   -3.0841    1.4535    0.4047 C   0  0  0  0  0  0  0  0  0  0  0  0
   -4.2816    0.9344    0.9860 C   0  0  0  0  0  0  0  0  0  0  0  0
   -5.2274    0.4696    1.4737 N   0  0  0  0  0  0  0  0  0  0  0  0
   -1.9055    0.7911    0.4528 C   0  0  0  0  0  0  0  0  0  0  0  0
   -1.8528   -0.5330    1.1230 C   0  0  0  0  0  0  0  0  0  0  0  0
   -2.0193   -1.7060    0.3704 C   0  0  0  0  0  0  0  0  0  0  0  0
   -1.9386   -2.9526    0.9926 C   0  0  0  0  0  0  0  0  0  0  0  0
   -1.6937   -3.0226    2.3594 C   0  0  0  0  0  0  0  0  0  0  0  0
   -1.6095   -4.2200    2.9527 F   0  0  0  0  0  0  0  0  0  0  0  0
   -1.5286   -1.8695    3.1185 C   0  0  0  0  0  0  0  0  0  0  0  0
   -1.6069   -0.6199    2.5014 C   0  0  0  0  0  0  0  0  0  0  0  0
   -0.7229    1.4108   -0.1897 C   0  0  0  0  0  0  0  0  0  0  0  0
    0.5344    0.7846   -0.1663 C   0  0  0  0  0  0  0  0  0  0  0  0
    1.6235    1.3680   -0.8137 C   0  0  0  0  0  0  0  0  0  0  0  0
    2.9755    0.7669   -0.8293 C   0  0  0  0  0  0  0  0  0  0  0  0
    3.9543    1.4975   -0.9589 O   0  0  0  0  0  0  0  0  0  0  0  0
    3.2000   -0.6851   -0.6446 C   0  0  0  0  0  0  0  0  0  0  0  0
    4.2257   -1.0728    0.2280 C   0  0  0  0  0  0  0  0  0  0  0  0
    4.4850   -2.4264    0.4363 C   0  0  0  0  0  0  0  0  0  0  0  0
    5.7320   -2.8972    1.5231 Cl  0  0  0  0  0  0  0  0  0  0  0  0
    3.7421   -3.4029   -0.2235 C   0  0  0  0  0  0  0  0  0  0  0  0
    2.7393   -3.0147   -1.1097 C   0  0  0  0  0  0  0  0  0  0  0  0
    1.8284   -4.2265   -1.9337 Cl  0  0  0  0  0  0  0  0  0  0  0  0
    2.4686   -1.6592   -1.3321 C   0  0  0  0  0  0  0  0  0  0  0  0
    1.5063   -1.2844   -2.2326 O   0  0  0  0  0  0  0  0  0  0  0  0
    1.4239    2.5920   -1.4277 C   0  0  0  0  0  0  0  0  0  0  0  0
    0.2291    3.2316   -1.4567 N   0  0  0  0  0  0  0  0  0  0  0  0
   -0.8249    2.6382   -0.8458 C   0  0  0  0  0  0  0  0  0  0  0  0
   -1.8491    4.4498   -2.6073 H   0  0  0  0  0  0  0  0  0  0  0  0
   -1.4477    5.2864   -1.0709 H   0  0  0  0  0  0  0  0  0  0  0  0
   -3.1368    5.0101   -1.5279 H   0  0  0  0  0  0  0  0  0  0  0  0
   -2.2129   -1.6586   -0.6992 H   0  0  0  0  0  0  0  0  0  0  0  0
   -2.0697   -3.8682    0.4242 H   0  0  0  0  0  0  0  0  0  0  0  0
   -1.3439   -1.9519    4.1853 H   0  0  0  0  0  0  0  0  0  0  0  0
   -1.4761    0.2774    3.1029 H   0  0  0  0  0  0  0  0  0  0  0  0
    0.6648   -0.1585    0.3558 H   0  0  0  0  0  0  0  0  0  0  0  0
    4.8188   -0.3170    0.7406 H   0  0  0  0  0  0  0  0  0  0  0  0
    3.9497   -4.4564   -0.0536 H   0  0  0  0  0  0  0  0  0  0  0  0
    1.1851   -2.0914   -2.6816 H   0  0  0  0  0  0  0  0  0  0  0  0
    2.2359    3.1128   -1.9309 H   0  0  0  0  0  0  0  0  0  0  0  0
  1  2  1  0
  2  3  1  0
  3  4  2  0
  3  5  1  0
  5  6  1  0
  6  7  3  0
  5  8  2  0
  8  9  1  0
  9 10  2  0
 10 11  1  0
 11 12  2  0
 12 13  1  0
 12 14  1  0
 14 15  2  0
  8 16  1  0
 16 17  2  0
 17 18  1  0
 18 19  1  0
 19 20  2  0
 19 21  1  0
 21 22  2  0
 22 23  1  0
 23 24  1  0
 23 25  2  0
 25 26  1  0
 26 27  1  0
 26 28  2  0
 28 29  1  0
 18 30  2  0
 30 31  1  0
 31 32  2  0
 32  2  1  0
 15  9  1  0
 32 16  1  0
 28 21  1  0
  1 33  1  0
  1 34  1  0
  1 35  1  0
 10 36  1  0
 11 37  1  0
 14 38  1  0
 15 39  1  0
 17 40  1  0
 22 41  1  0
 25 42  1  0
 29 43  1  0
 30 44  1  0
M  END
$$$$
