
     RDKit          3D

 31 32  0  0  0  0  0  0  0  0999 V2000
    4.9168   -1.4293    2.0020 C   0  0  0  0  0  0  0  0  0  0  0  0
    4.6450   -0.1331    0.7646 S   0  0  0  0  0  0  0  0  0  0  0  0
    3.0394   -0.6150    0.1518 C   0  0  0  0  0  0  0  0  0  0  0  0
    2.8687   -0.7910   -1.2251 C   0  0  0  0  0  0  0  0  0  0  0  0
    1.6219   -1.1466   -1.7438 C   0  0  0  0  0  0  0  0  0  0  0  0
    0.5371   -1.3246   -0.8875 C   0  0  0  0  0  0  0  0  0  0  0  0
    0.6991   -1.1449    0.4842 C   0  0  0  0  0  0  0  0  0  0  0  0
   -0.4329   -1.2672    1.3476 N   0  0  0  0  0  0  0  0  0  0  0  0
   -1.3394    0.1516    1.5928 S   0  0  0  0  0  6  0  0  0  0  0  0
   -0.4313    1.2636    1.7914 O   0  0  0  0  0  0  0  0  0  0  0  0
   -2.3491   -0.1632    2.5836 O   0  0  0  0  0  0  0  0  0  0  0  0
   -2.2495    0.5610    0.1627 C   0  0  0  0  0  0  0  0  0  0  0  0
   -2.6781    1.8282   -0.1865 C   0  0  0  0  0  0  0  0  0  0  0  0
   -3.3663    1.6585   -1.3525 N   0  0  0  0  0  0  0  0  0  0  0  0
   -4.0280    2.6906   -2.1099 C   0  0  0  0  0  0  0  0  0  0  0  0
   -3.3370    0.3307   -1.6733 C   0  0  0  0  0  0  0  0  0  0  0  0
   -2.6716   -0.3673   -0.7803 N   0  0  0  0  0  0  0  0  0  0  0  0
    1.9420   -0.7757    1.0048 C   0  0  0  0  0  0  0  0  0  0  0  0
    4.2168   -1.3290    2.8360 H   0  0  0  0  0  0  0  0  0  0  0  0
    4.8062   -2.4200    1.5501 H   0  0  0  0  0  0  0  0  0  0  0  0
    5.9329   -1.3386    2.3951 H   0  0  0  0  0  0  0  0  0  0  0  0
    3.7048   -0.6465   -1.9055 H   0  0  0  0  0  0  0  0  0  0  0  0
    1.4960   -1.2830   -2.8146 H   0  0  0  0  0  0  0  0  0  0  0  0
   -0.4302   -1.6068   -1.2953 H   0  0  0  0  0  0  0  0  0  0  0  0
   -0.2240   -1.6638    2.2621 H   0  0  0  0  0  0  0  0  0  0  0  0
   -2.5503    2.7880    0.2970 H   0  0  0  0  0  0  0  0  0  0  0  0
   -3.3406    3.0406   -2.8842 H   0  0  0  0  0  0  0  0  0  0  0  0
   -4.9335    2.2774   -2.5618 H   0  0  0  0  0  0  0  0  0  0  0  0
   -4.2953    3.5142   -1.4421 H   0  0  0  0  0  0  0  0  0  0  0  0
   -3.8159   -0.0718   -2.5575 H   0  0  0  0  0  0  0  0  0  0  0  0
    2.0460   -0.5871    2.0690 H   0  0  0  0  0  0  0  0  0  0  0  0
  1  2  1  0
  2  3  1  0
  3  4  2  0
  4  5  1  0
  5  6  2  0
  6  7  1  0
  7  8  1  0
  8  9  1  0
  9 10  2  0
  9 11  2  0
  9 12  1  0
 12 13  2  0
 13 14  1  0
 14 15  1  0
 14 16  1  0
 16 17  2  0
  7 18  2  0
 18  3  1  0
 17 12  1  0
  1 19  1  0
  1 20  1  0
  1 21  1  0
  4 22  1  0
  5 23  1  0
  6 24  1  0
  8 25  1  0
 13 26  1  0
 15 27  1  0
 15 28  1  0
 15 29  1  0
 16 30  1  0
 18 31  1  0
M  END
$$$$
