
     RDKit          3D

 38 38  0  0  0  0  0  0  0  0999 V2000
    5.3649   -0.9984   -1.8941 C   0  0  0  0  0  0  0  0  0  0  0  0
    4.4262   -0.6333   -3.0288 C   0  0  0  0  0  0  0  0  0  0  0  0
    3.1243   -0.3216   -2.5122 O   0  0  0  0  0  0  0  0  0  0  0  0
    2.9437    0.9620   -2.0950 C   0  0  0  0  0  0  0  0  0  0  0  0
    3.7623    1.8663   -2.1999 O   0  0  0  0  0  0  0  0  0  0  0  0
    1.5616    1.1483   -1.5447 C   0  0  0  0  0  0  0  0  0  0  0  0
    1.2996    0.3564   -0.2902 C   0  0  0  0  0  0  0  0  0  0  0  0
    2.2036   -0.1344    0.3827 O   0  0  0  0  0  0  0  0  0  0  0  0
   -0.1137    0.1782    0.1642 C   0  0  0  0  0  0  0  0  0  0  0  0
   -1.1620    0.9576   -0.3460 C   0  0  0  0  0  0  0  0  0  0  0  0
   -2.4689    0.7566    0.1052 C   0  0  0  0  0  0  0  0  0  0  0  0
   -3.5624    1.4620   -0.3261 O   0  0  0  0  0  0  0  0  0  0  0  0
   -3.3977    2.3232   -1.4440 C   0  0  0  0  0  0  0  0  0  0  0  0
   -2.7094   -0.2181    1.0899 C   0  0  0  0  0  0  0  0  0  0  0  0
   -4.0040   -0.4485    1.5015 O   0  0  0  0  0  0  0  0  0  0  0  0
   -4.2956    0.3427    2.6524 C   0  0  0  0  0  0  0  0  0  0  0  0
   -1.6706   -1.0129    1.6025 C   0  0  0  0  0  0  0  0  0  0  0  0
   -2.0249   -1.9463    2.5412 O   0  0  0  0  0  0  0  0  0  0  0  0
   -1.0072   -2.8157    3.0202 C   0  0  0  0  0  0  0  0  0  0  0  0
   -0.3723   -0.7995    1.1389 C   0  0  0  0  0  0  0  0  0  0  0  0
    6.3434   -1.2966   -2.2809 H   0  0  0  0  0  0  0  0  0  0  0  0
    4.9517   -1.8226   -1.3035 H   0  0  0  0  0  0  0  0  0  0  0  0
    5.5018   -0.1545   -1.2104 H   0  0  0  0  0  0  0  0  0  0  0  0
    4.3073   -1.4915   -3.6984 H   0  0  0  0  0  0  0  0  0  0  0  0
    4.8243    0.1916   -3.6306 H   0  0  0  0  0  0  0  0  0  0  0  0
    0.8556    0.8702   -2.3345 H   0  0  0  0  0  0  0  0  0  0  0  0
    1.4301    2.2116   -1.3154 H   0  0  0  0  0  0  0  0  0  0  0  0
   -0.9555    1.7276   -1.0791 H   0  0  0  0  0  0  0  0  0  0  0  0
   -2.7520    3.1708   -1.1926 H   0  0  0  0  0  0  0  0  0  0  0  0
   -3.0147    1.7783   -2.3133 H   0  0  0  0  0  0  0  0  0  0  0  0
   -4.3820    2.7217   -1.7076 H   0  0  0  0  0  0  0  0  0  0  0  0
   -4.2036    1.4126    2.4352 H   0  0  0  0  0  0  0  0  0  0  0  0
   -5.3327    0.1452    2.9398 H   0  0  0  0  0  0  0  0  0  0  0  0
   -3.6540    0.0717    3.4978 H   0  0  0  0  0  0  0  0  0  0  0  0
   -0.2370   -2.2580    3.5629 H   0  0  0  0  0  0  0  0  0  0  0  0
   -0.5720   -3.4033    2.2052 H   0  0  0  0  0  0  0  0  0  0  0  0
   -1.4692   -3.5146    3.7242 H   0  0  0  0  0  0  0  0  0  0  0  0
    0.4609   -1.3846    1.5184 H   0  0  0  0  0  0  0  0  0  0  0  0
  1  2  1  0
  2  3  1  0
  3  4  1  0
  4  5  2  0
  4  6  1  0
  6  7  1  0
  7  8  2  0
  7  9  1  0
  9 10  2  0
 10 11  1  0
 11 12  1  0
 12 13  1  0
 11 14  2  0
 14 15  1  0
 15 16  1  0
 14 17  1  0
 17 18  1  0
 18 19  1  0
 17 20  2  0
 20  9  1  0
  1 21  1  0
  1 22  1  0
  1 23  1  0
  2 24  1  0
  2 25  1  0
  6 26  1  0
  6 27  1  0
 10 28  1  0
 13 29  1  0
 13 30  1  0
 13 31  1  0
 16 32  1  0
 16 33  1  0
 16 34  1  0
 19 35  1  0
 19 36  1  0
 19 37  1  0
 20 38  1  0
M  END
$$$$
