
     RDKit          3D

 57 59  0  0  0  0  0  0  0  0999 V2000
   -6.0117   -3.0727    2.2814 C   0  0  0  0  0  0  0  0  0  0  0  0
   -5.0194   -2.0662    2.4789 O   0  0  0  0  0  0  0  0  0  0  0  0
   -4.5113   -1.6577    1.2702 C   0  0  0  0  0  0  0  0  0  0  0  0
   -3.2751   -2.1856    0.8858 C   0  0  0  0  0  0  0  0  0  0  0  0
   -2.6920   -1.7783   -0.3108 C   0  0  0  0  0  0  0  0  0  0  0  0
   -3.3472   -0.8278   -1.0980 C   0  0  0  0  0  0  0  0  0  0  0  0
   -2.5836   -0.2891   -2.6060 S   0  0  0  0  0  6  0  0  0  0  0  0
   -2.2832   -1.4662   -3.3893 O   0  0  0  0  0  0  0  0  0  0  0  0
   -3.3611    0.8024   -3.1536 O   0  0  0  0  0  0  0  0  0  0  0  0
   -1.1243    0.3632   -2.0715 N   0  0  0  0  0  0  0  0  0  0  0  0
   -1.1855    1.5546   -1.1983 C   0  0  0  0  0  0  0  0  0  0  0  0
   -0.5223    2.6381   -2.0172 C   0  0  0  0  0  0  0  0  0  0  0  0
    0.4525    1.9301   -2.7827 O   0  0  0  0  0  0  0  0  0  0  0  0
   -0.1945    0.7105   -3.1803 C   0  0  0  0  0  0  0  0  0  0  0  0
    0.8475   -0.4073   -3.4006 C   0  0  0  0  0  0  0  0  0  0  0  0
    1.4491   -0.8672   -2.1562 N   0  0  0  0  0  0  0  0  0  0  0  0
    2.5498   -0.2477   -1.6139 C   0  0  0  0  0  0  0  0  0  0  0  0
    3.3158    0.5136   -2.1842 O   0  0  0  0  0  0  0  0  0  0  0  0
    2.7649   -0.5838   -0.1211 C   0  0  0  0  0  0  0  0  0  0  0  0
    1.9380   -1.2511    0.4854 O   0  0  0  0  0  0  0  0  0  0  0  0
    3.9168   -0.0535    0.4048 N   0  0  0  0  0  0  0  0  0  0  0  0
    4.2530   -0.2099    1.7934 C   0  0  0  0  0  0  0  0  0  0  0  0
    5.5752    0.4353    2.1052 C   0  0  0  0  0  0  0  0  0  0  0  0
    5.6354    1.7900    2.4700 C   0  0  0  0  0  0  0  0  0  0  0  0
    6.8651    2.3952    2.7341 C   0  0  0  0  0  0  0  0  0  0  0  0
    8.0332    1.6504    2.6267 C   0  0  0  0  0  0  0  0  0  0  0  0
    9.2119    2.2330    2.8787 F   0  0  0  0  0  0  0  0  0  0  0  0
    7.9957    0.3114    2.2574 C   0  0  0  0  0  0  0  0  0  0  0  0
    6.7672   -0.2964    1.9923 C   0  0  0  0  0  0  0  0  0  0  0  0
   -4.5786   -0.2814   -0.7082 C   0  0  0  0  0  0  0  0  0  0  0  0
   -5.1676   -0.6899    0.4903 C   0  0  0  0  0  0  0  0  0  0  0  0
   -6.3530   -0.2138    0.9847 O   0  0  0  0  0  0  0  0  0  0  0  0
   -6.9963    0.8266    0.2604 C   0  0  0  0  0  0  0  0  0  0  0  0
   -5.5739   -3.9673    1.8248 H   0  0  0  0  0  0  0  0  0  0  0  0
   -6.8494   -2.7083    1.6772 H   0  0  0  0  0  0  0  0  0  0  0  0
   -6.4056   -3.3517    3.2633 H   0  0  0  0  0  0  0  0  0  0  0  0
   -2.7729   -2.9102    1.5217 H   0  0  0  0  0  0  0  0  0  0  0  0
   -1.7338   -2.1912   -0.6163 H   0  0  0  0  0  0  0  0  0  0  0  0
   -2.1926    1.8403   -0.8858 H   0  0  0  0  0  0  0  0  0  0  0  0
   -0.5992    1.3332   -0.2993 H   0  0  0  0  0  0  0  0  0  0  0  0
   -1.2273    3.1219   -2.7025 H   0  0  0  0  0  0  0  0  0  0  0  0
   -0.0403    3.4014   -1.4008 H   0  0  0  0  0  0  0  0  0  0  0  0
   -0.7252    0.9186   -4.1163 H   0  0  0  0  0  0  0  0  0  0  0  0
    0.3733   -1.2834   -3.8526 H   0  0  0  0  0  0  0  0  0  0  0  0
    1.6421   -0.0522   -4.0655 H   0  0  0  0  0  0  0  0  0  0  0  0
    0.8424   -1.3311   -1.4870 H   0  0  0  0  0  0  0  0  0  0  0  0
    4.4823    0.5300   -0.2067 H   0  0  0  0  0  0  0  0  0  0  0  0
    4.2739   -1.2796    2.0328 H   0  0  0  0  0  0  0  0  0  0  0  0
    3.4515    0.2314    2.3997 H   0  0  0  0  0  0  0  0  0  0  0  0
    4.7236    2.3796    2.5484 H   0  0  0  0  0  0  0  0  0  0  0  0
    6.9189    3.4409    3.0189 H   0  0  0  0  0  0  0  0  0  0  0  0
    8.9212   -0.2482    2.1753 H   0  0  0  0  0  0  0  0  0  0  0  0
    6.7437   -1.3429    1.6952 H   0  0  0  0  0  0  0  0  0  0  0  0
   -5.0516    0.4575   -1.3464 H   0  0  0  0  0  0  0  0  0  0  0  0
   -7.2968    0.4867   -0.7362 H   0  0  0  0  0  0  0  0  0  0  0  0
   -6.3630    1.7169    0.1992 H   0  0  0  0  0  0  0  0  0  0  0  0
   -7.9056    1.0991    0.8051 H   0  0  0  0  0  0  0  0  0  0  0  0
  1  2  1  0
  2  3  1  0
  3  4  2  0
  4  5  1  0
  5  6  2  0
  6  7  1  0
  7  8  2  0
  7  9  2  0
  7 10  1  0
 10 11  1  0
 11 12  1  0
 12 13  1  0
 13 14  1  0
 14 15  1  0
 15 16  1  0
 16 17  1  0
 17 18  2  0
 17 19  1  0
 19 20  2  0
 19 21  1  0
 21 22  1  0
 22 23  1  0
 23 24  2  0
 24 25  1  0
 25 26  2  0
 26 27  1  0
 26 28  1  0
 28 29  2  0
  6 30  1  0
 30 31  2  0
 31 32  1  0
 32 33  1  0
 31  3  1  0
 14 10  1  0
 29 23  1  0
  1 34  1  0
  1 35  1  0
  1 36  1  0
  4 37  1  0
  5 38  1  0
 11 39  1  0
 11 40  1  0
 12 41  1  0
 12 42  1  0
 14 43  1  0
 15 44  1  0
 15 45  1  0
 16 46  1  0
 21 47  1  0
 22 48  1  0
 22 49  1  0
 24 50  1  0
 25 51  1  0
 28 52  1  0
 29 53  1  0
 30 54  1  0
 33 55  1  0
 33 56  1  0
 33 57  1  0
M  END
$$$$
