
     RDKit          3D

 46 48  0  0  0  0  0  0  0  0999 V2000
   -7.6476   -2.2677    1.3084 C   0  0  0  0  0  0  0  0  0  0  0  0
   -7.3726   -1.2316    0.3736 O   0  0  0  0  0  0  0  0  0  0  0  0
   -6.1384   -0.6441    0.4498 C   0  0  0  0  0  0  0  0  0  0  0  0
   -5.1687   -0.9039    1.4148 C   0  0  0  0  0  0  0  0  0  0  0  0
   -3.9472   -0.2258    1.3782 C   0  0  0  0  0  0  0  0  0  0  0  0
   -3.6750    0.7070    0.3687 C   0  0  0  0  0  0  0  0  0  0  0  0
   -2.3972    1.4365    0.3650 C   0  0  0  0  0  0  0  0  0  0  0  0
   -1.1657    0.9192    0.2430 C   0  0  0  0  0  0  0  0  0  0  0  0
    0.2540    1.9407    0.2324 S   0  0  0  0  0  0  0  0  0  0  0  0
    1.2920    0.5701    0.0263 C   0  0  0  0  0  0  0  0  0  0  0  0
    2.6224    0.6715   -0.0663 C   0  0  0  0  0  0  0  0  0  0  0  0
    3.4940   -0.5216   -0.2419 C   0  0  0  0  0  0  0  0  0  0  0  0
    3.0274   -1.6373   -0.4541 O   0  0  0  0  0  0  0  0  0  0  0  0
    4.9673   -0.3285   -0.1878 C   0  0  0  0  0  0  0  0  0  0  0  0
    5.5692    0.6606    0.5987 C   0  0  0  0  0  0  0  0  0  0  0  0
    6.9615    0.7919    0.6142 C   0  0  0  0  0  0  0  0  0  0  0  0
    7.7673   -0.0725   -0.1367 C   0  0  0  0  0  0  0  0  0  0  0  0
    9.2590    0.0914   -0.1422 C   0  0  0  0  0  0  0  0  0  0  0  0
    7.1615   -1.0620   -0.9191 C   0  0  0  0  0  0  0  0  0  0  0  0
    5.7713   -1.1965   -0.9364 C   0  0  0  0  0  0  0  0  0  0  0  0
    0.5845   -0.5900   -0.0240 N   0  0  0  0  0  0  0  0  0  0  0  0
   -0.7811   -0.5168    0.0781 C   0  0  0  0  0  0  0  0  0  0  0  0
   -1.5263   -1.4807    0.0432 O   0  0  0  0  0  0  0  0  0  0  0  0
   -4.6582    0.9814   -0.6011 C   0  0  0  0  0  0  0  0  0  0  0  0
   -4.3350    1.9290   -1.5420 O   0  0  0  0  0  0  0  0  0  0  0  0
   -5.2438    2.1114   -2.6200 C   0  0  0  0  0  0  0  0  0  0  0  0
   -5.8810    0.3016   -0.5494 C   0  0  0  0  0  0  0  0  0  0  0  0
   -8.6452   -2.6598    1.0884 H   0  0  0  0  0  0  0  0  0  0  0  0
   -6.9355   -3.0935    1.2062 H   0  0  0  0  0  0  0  0  0  0  0  0
   -7.6609   -1.8802    2.3324 H   0  0  0  0  0  0  0  0  0  0  0  0
   -5.3246   -1.6266    2.2083 H   0  0  0  0  0  0  0  0  0  0  0  0
   -3.2022   -0.4456    2.1397 H   0  0  0  0  0  0  0  0  0  0  0  0
   -2.5216    2.5158    0.4329 H   0  0  0  0  0  0  0  0  0  0  0  0
    3.0970    1.6444   -0.0351 H   0  0  0  0  0  0  0  0  0  0  0  0
    4.9820    1.3259    1.2250 H   0  0  0  0  0  0  0  0  0  0  0  0
    7.4162    1.5689    1.2261 H   0  0  0  0  0  0  0  0  0  0  0  0
    9.6124    0.4828    0.8175 H   0  0  0  0  0  0  0  0  0  0  0  0
    9.7572   -0.8703   -0.3035 H   0  0  0  0  0  0  0  0  0  0  0  0
    9.5562    0.7820   -0.9374 H   0  0  0  0  0  0  0  0  0  0  0  0
    7.7678   -1.7395   -1.5171 H   0  0  0  0  0  0  0  0  0  0  0  0
    5.3177   -1.9802   -1.5409 H   0  0  0  0  0  0  0  0  0  0  0  0
    1.0476   -1.4855   -0.1637 H   0  0  0  0  0  0  0  0  0  0  0  0
   -4.8022    2.8378   -3.3090 H   0  0  0  0  0  0  0  0  0  0  0  0
   -6.1939    2.5250   -2.2667 H   0  0  0  0  0  0  0  0  0  0  0  0
   -5.3970    1.1791   -3.1737 H   0  0  0  0  0  0  0  0  0  0  0  0
   -6.6645    0.4860   -1.2767 H   0  0  0  0  0  0  0  0  0  0  0  0
  1  2  1  0
  2  3  1  0
  3  4  2  0
  4  5  1  0
  5  6  2  0
  6  7  1  0
  7  8  2  3
  8  9  1  0
  9 10  1  0
 10 11  2  3
 11 12  1  0
 12 13  2  0
 12 14  1  0
 14 15  2  0
 15 16  1  0
 16 17  2  0
 17 18  1  0
 17 19  1  0
 19 20  2  0
 10 21  1  0
 21 22  1  0
 22 23  2  0
  6 24  1  0
 24 25  1  0
 25 26  1  0
 24 27  2  0
 27  3  1  0
 22  8  1  0
 20 14  1  0
  1 28  1  0
  1 29  1  0
  1 30  1  0
  4 31  1  0
  5 32  1  0
  7 33  1  0
 11 34  1  0
 15 35  1  0
 16 36  1  0
 18 37  1  0
 18 38  1  0
 18 39  1  0
 19 40  1  0
 20 41  1  0
 21 42  1  0
 26 43  1  0
 26 44  1  0
 26 45  1  0
 27 46  1  0
M  END
$$$$
