
     RDKit          3D

 49 52  0  0  0  0  0  0  0  0999 V2000
   -3.1636   -0.8389    2.6431 C   0  0  0  0  0  0  0  0  0  0  0  0
   -3.4003    0.0538    1.4416 C   0  0  0  0  0  0  0  0  0  0  0  0
   -2.5903    0.1358    0.4255 N   0  0  0  0  0  0  0  0  0  0  0  0
   -1.4775   -0.6468    0.4012 N   0  0  0  0  0  0  0  0  0  0  0  0
   -0.5686   -0.5520   -0.6419 C   0  0  0  0  0  0  0  0  0  0  0  0
   -0.6574    0.2195   -1.5925 O   0  0  0  0  0  0  0  0  0  0  0  0
    0.5391   -1.4941   -0.4968 C   0  0  0  0  0  0  0  0  0  0  0  0
    0.5549   -2.4222    0.5005 N   0  0  0  0  0  0  0  0  0  0  0  0
    1.6485   -3.1446    0.3701 N   0  0  0  0  0  0  0  0  0  0  0  0
    2.3761   -2.7086   -0.7099 N   0  0  0  0  0  0  0  0  0  0  0  0
    3.5856   -3.3862   -1.0643 C   0  0  0  0  0  0  0  0  0  0  0  0
    3.8815   -4.4790   -0.3448 N   0  0  0  0  0  0  0  0  0  0  0  0
    5.0371   -4.9884   -0.9063 O   0  0  0  0  0  0  0  0  0  0  0  0
    5.4623   -4.2008   -1.9587 N   0  0  0  0  0  0  0  0  0  0  0  0
    4.5839   -3.2015   -2.0451 C   0  0  0  0  0  0  0  0  0  0  0  0
    4.7441   -2.2201   -2.9565 N   0  0  0  0  0  0  0  0  0  0  0  0
    1.6877   -1.6259   -1.2676 C   0  0  0  0  0  0  0  0  0  0  0  0
    2.1136   -0.8205   -2.4324 C   0  0  0  0  0  0  0  0  0  0  0  0
    3.3124   -0.1192   -2.0742 O   0  0  0  0  0  0  0  0  0  0  0  0
    3.1964    0.9974   -1.2932 C   0  0  0  0  0  0  0  0  0  0  0  0
    4.2623    1.2186   -0.4136 C   0  0  0  0  0  0  0  0  0  0  0  0
    4.2616    2.3300    0.4305 C   0  0  0  0  0  0  0  0  0  0  0  0
    3.2002    3.2239    0.3796 C   0  0  0  0  0  0  0  0  0  0  0  0
    3.1967    4.2918    1.1874 F   0  0  0  0  0  0  0  0  0  0  0  0
    2.1472    3.0289   -0.5054 C   0  0  0  0  0  0  0  0  0  0  0  0
    2.1482    1.9164   -1.3517 C   0  0  0  0  0  0  0  0  0  0  0  0
   -4.6362    0.8964    1.4213 C   0  0  0  0  0  0  0  0  0  0  0  0
   -5.8137    0.4873    2.0594 C   0  0  0  0  0  0  0  0  0  0  0  0
   -6.9529    1.2979    2.0144 C   0  0  0  0  0  0  0  0  0  0  0  0
   -6.9181    2.5105    1.3271 C   0  0  0  0  0  0  0  0  0  0  0  0
   -8.3217    3.5032    1.2759 Cl  0  0  0  0  0  0  0  0  0  0  0  0
   -5.7559    2.9191    0.6768 C   0  0  0  0  0  0  0  0  0  0  0  0
   -4.6169    2.1106    0.7200 C   0  0  0  0  0  0  0  0  0  0  0  0
   -2.1340   -0.7239    2.9953 H   0  0  0  0  0  0  0  0  0  0  0  0
   -3.3378   -1.8808    2.3601 H   0  0  0  0  0  0  0  0  0  0  0  0
   -3.8117   -0.5817    3.4839 H   0  0  0  0  0  0  0  0  0  0  0  0
   -1.3128   -1.3459    1.1188 H   0  0  0  0  0  0  0  0  0  0  0  0
    4.5586   -1.2593   -2.6652 H   0  0  0  0  0  0  0  0  0  0  0  0
    5.6324   -2.2536   -3.4535 H   0  0  0  0  0  0  0  0  0  0  0  0
    2.3392   -1.4843   -3.2735 H   0  0  0  0  0  0  0  0  0  0  0  0
    1.3512   -0.1466   -2.8245 H   0  0  0  0  0  0  0  0  0  0  0  0
    5.0940    0.5198   -0.3748 H   0  0  0  0  0  0  0  0  0  0  0  0
    5.0790    2.5034    1.1229 H   0  0  0  0  0  0  0  0  0  0  0  0
    1.3324    3.7456   -0.5390 H   0  0  0  0  0  0  0  0  0  0  0  0
    1.3252    1.8116   -2.0517 H   0  0  0  0  0  0  0  0  0  0  0  0
   -5.8750   -0.4651    2.5784 H   0  0  0  0  0  0  0  0  0  0  0  0
   -7.8649    0.9749    2.5103 H   0  0  0  0  0  0  0  0  0  0  0  0
   -5.7276    3.8599    0.1333 H   0  0  0  0  0  0  0  0  0  0  0  0
   -3.7144    2.4339    0.2036 H   0  0  0  0  0  0  0  0  0  0  0  0
  1  2  1  0
  2  3  2  3
  3  4  1  0
  4  5  1  0
  5  6  2  0
  5  7  1  0
  7  8  1  0
  8  9  2  0
  9 10  1  0
 10 11  1  0
 11 12  2  0
 12 13  1  0
 13 14  1  0
 14 15  2  0
 15 16  1  0
 10 17  1  0
 17 18  1  0
 18 19  1  0
 19 20  1  0
 20 21  2  0
 21 22  1  0
 22 23  2  0
 23 24  1  0
 23 25  1  0
 25 26  2  0
  2 27  1  0
 27 28  2  0
 28 29  1  0
 29 30  2  0
 30 31  1  0
 30 32  1  0
 32 33  2  0
 17  7  2  0
 26 20  1  0
 33 27  1  0
 15 11  1  0
  1 34  1  0
  1 35  1  0
  1 36  1  0
  4 37  1  0
 16 38  1  0
 16 39  1  0
 18 40  1  0
 18 41  1  0
 21 42  1  0
 22 43  1  0
 25 44  1  0
 26 45  1  0
 28 46  1  0
 29 47  1  0
 32 48  1  0
 33 49  1  0
M  END
$$$$
