
     RDKit          3D

 37 39  0  0  0  0  0  0  0  0999 V2000
   -3.6970   -1.4578   -1.6488 C   0  0  0  0  0  0  0  0  0  0  0  0
   -3.3330   -0.0185   -1.3307 C   0  0  0  0  0  0  0  0  0  0  0  0
   -3.7072    0.3560    0.0226 N   0  0  0  0  0  0  0  0  0  0  0  0
   -4.8854    0.9914    0.2166 N   0  0  0  0  0  0  0  0  0  0  0  0
   -4.9778    1.0898    1.5454 C   0  0  0  0  0  0  0  0  0  0  0  0
   -3.8587    0.5458    2.1844 C   0  0  0  0  0  0  0  0  0  0  0  0
   -3.6074    0.5025    4.0360 Br  0  0  0  0  0  0  0  0  0  0  0  0
   -3.0220    0.1001    1.1874 C   0  0  0  0  0  0  0  0  0  0  0  0
   -1.7455   -0.5597    1.2937 C   0  0  0  0  0  0  0  0  0  0  0  0
   -1.6407   -1.6503    1.8369 O   0  0  0  0  0  0  0  0  0  0  0  0
   -0.7307    0.1915    0.7376 N   0  0  0  0  0  0  0  0  0  0  0  0
    0.6096   -0.1433    0.6081 C   0  0  0  0  0  0  0  0  0  0  0  0
    1.2036   -1.6654    1.1182 S   0  0  0  0  0  0  0  0  0  0  0  0
    2.7398   -1.2682    0.6138 C   0  0  0  0  0  0  0  0  0  0  0  0
    2.8464   -0.0191    0.0671 C   0  0  0  0  0  0  0  0  0  0  0  0
    1.6015    0.6779    0.0580 C   0  0  0  0  0  0  0  0  0  0  0  0
    1.2997    2.0171   -0.4419 C   0  0  0  0  0  0  0  0  0  0  0  0
    2.3615    2.8314   -0.7057 N   0  0  0  0  0  0  0  0  0  0  0  0
    0.1513    2.4281   -0.5933 O   0  0  0  0  0  0  0  0  0  0  0  0
    4.2438    0.2305   -0.3786 C   0  0  0  0  0  0  0  0  0  0  0  0
    4.8770   -1.1947   -0.3335 C   0  0  0  0  0  0  0  0  0  0  0  0
    4.0031   -2.0405    0.6380 C   0  0  0  0  0  0  0  0  0  0  0  0
   -4.7729   -1.6268   -1.5338 H   0  0  0  0  0  0  0  0  0  0  0  0
   -3.4209   -1.7000   -2.6797 H   0  0  0  0  0  0  0  0  0  0  0  0
   -3.1768   -2.1555   -0.9844 H   0  0  0  0  0  0  0  0  0  0  0  0
   -2.2591    0.1479   -1.4505 H   0  0  0  0  0  0  0  0  0  0  0  0
   -3.8457    0.6642   -2.0180 H   0  0  0  0  0  0  0  0  0  0  0  0
   -5.8544    1.5532    1.9791 H   0  0  0  0  0  0  0  0  0  0  0  0
   -0.9657    1.1215    0.3916 H   0  0  0  0  0  0  0  0  0  0  0  0
    2.1402    3.7952   -0.9178 H   0  0  0  0  0  0  0  0  0  0  0  0
    3.2792    2.6337   -0.3388 H   0  0  0  0  0  0  0  0  0  0  0  0
    4.7566    0.8952    0.3246 H   0  0  0  0  0  0  0  0  0  0  0  0
    4.3003    0.6506   -1.3866 H   0  0  0  0  0  0  0  0  0  0  0  0
    5.9300   -1.1732   -0.0362 H   0  0  0  0  0  0  0  0  0  0  0  0
    4.8270   -1.6382   -1.3369 H   0  0  0  0  0  0  0  0  0  0  0  0
    4.4378   -2.0441    1.6428 H   0  0  0  0  0  0  0  0  0  0  0  0
    3.8927   -3.0678    0.2804 H   0  0  0  0  0  0  0  0  0  0  0  0
  1  2  1  0
  2  3  1  0
  3  4  1  0
  4  5  2  0
  5  6  1  0
  6  7  1  0
  6  8  2  0
  8  9  1  0
  9 10  2  0
  9 11  1  0
 11 12  1  0
 12 13  1  0
 13 14  1  0
 14 15  2  0
 15 16  1  0
 16 17  1  0
 17 18  1  0
 17 19  2  0
 15 20  1  0
 20 21  1  0
 21 22  1  0
  8  3  1  0
 16 12  2  0
 22 14  1  0
  1 23  1  0
  1 24  1  0
  1 25  1  0
  2 26  1  0
  2 27  1  0
  5 28  1  0
 11 29  1  0
 18 30  1  0
 18 31  1  0
 20 32  1  0
 20 33  1  0
 21 34  1  0
 21 35  1  0
 22 36  1  0
 22 37  1  0
M  END
$$$$
