
     RDKit          3D

 84 86  0  0  0  0  0  0  0  0999 V2000
    1.7130    3.5336    4.0722 C   0  0  0  0  0  0  0  0  0  0  0  0
    1.1317    2.1814    3.7954 C   0  0  0  0  0  0  0  0  0  0  0  0
    1.7937    1.1915    3.5180 O   0  0  0  0  0  0  0  0  0  0  0  0
   -0.2276    2.2352    3.8573 O   0  0  0  0  0  0  0  0  0  0  0  0
   -0.9095    1.0006    3.5918 C   0  0  1  0  0  0  0  0  0  0  0  0
   -2.4061    1.0637    3.9689 C   0  0  1  0  0  0  0  0  0  0  0  0
   -2.9729    2.4560    4.2233 C   0  0  0  0  0  0  0  0  0  0  0  0
   -3.1535    0.3319    2.8359 C   0  0  0  0  0  0  0  0  0  0  0  0
   -2.0890   -0.4301    2.0071 C   0  0  2  0  0  0  0  0  0  0  0  0
   -2.5070   -0.5441    0.6387 O   0  0  0  0  0  0  0  0  0  0  0  0
   -3.6156   -1.2761    0.3583 C   0  0  0  0  0  0  0  0  0  0  0  0
   -3.8643   -1.2781   -1.1187 C   0  0  0  0  0  0  0  0  0  0  0  0
   -4.3018   -1.8650    1.1794 O   0  0  0  0  0  0  0  0  0  0  0  0
   -1.7187   -1.7910    2.7120 C   0  0  0  0  0  0  0  0  0  0  0  0
   -1.6640   -1.8568    3.9469 O   0  0  0  0  0  0  0  0  0  0  0  0
   -1.4434   -3.0788    1.9602 C   0  0  0  0  0  0  0  0  0  0  0  0
   -2.0706   -4.2694    2.6469 C   0  0  0  0  0  0  0  0  0  0  0  0
   -0.6989   -3.2674    0.8509 C   0  0  0  0  0  0  0  0  0  0  0  0
    0.0154   -2.2481    0.0211 C   0  0  0  0  0  0  0  0  0  0  0  0
    1.5589   -2.2815   -0.0995 C   0  0  0  0  0  0  0  0  0  0  0  0
    1.9904   -3.5722   -0.8336 C   0  0  0  0  0  0  0  0  0  0  0  0
    2.2125   -2.3022    1.2992 C   0  0  0  0  0  0  0  0  0  0  0  0
    2.0489   -1.0355   -0.9479 C   0  0  2  0  0  0  0  0  0  0  0  0
    3.4994   -1.0881   -0.9962 O   0  0  0  0  0  0  0  0  0  0  0  0
    4.0890   -0.5532   -2.1003 C   0  0  0  0  0  0  0  0  0  0  0  0
    5.5773   -0.6867   -2.0012 C   0  0  0  0  0  0  0  0  0  0  0  0
    3.5054   -0.0117   -3.0286 O   0  0  0  0  0  0  0  0  0  0  0  0
    1.6446    0.3689   -0.4140 C   0  0  0  0  0  0  0  0  0  0  0  0
    0.2677    0.8501   -0.9123 C   0  0  2  0  0  0  0  0  0  0  0  0
    0.4456    1.3256   -2.2677 O   0  0  0  0  0  0  0  0  0  0  0  0
   -0.0699    0.5672   -3.2655 C   0  0  0  0  0  0  0  0  0  0  0  0
   -0.7121   -0.4633   -3.1299 O   0  0  0  0  0  0  0  0  0  0  0  0
    0.2252    1.1799   -4.5869 C   0  0  0  0  0  0  0  0  0  0  0  0
    1.1836    2.1900   -4.7463 C   0  0  0  0  0  0  0  0  0  0  0  0
    1.4261    2.7319   -6.0107 C   0  0  0  0  0  0  0  0  0  0  0  0
    0.7172    2.2674   -7.1187 C   0  0  0  0  0  0  0  0  0  0  0  0
   -0.2330    1.2576   -6.9680 C   0  0  0  0  0  0  0  0  0  0  0  0
   -0.4775    0.7123   -5.7059 C   0  0  0  0  0  0  0  0  0  0  0  0
   -0.3568    1.9550   -0.0611 C   0  0  0  0  0  0  0  0  0  0  0  0
   -0.4217    3.3256   -0.6968 C   0  0  0  0  0  0  0  0  0  0  0  0
   -0.9103    1.7798    1.1633 C   0  0  0  0  0  0  0  0  0  0  0  0
   -0.8791    0.5599    2.0973 C   0  0  1  0  0  0  0  0  0  0  0  0
    1.6531    4.1511    3.1722 H   0  0  0  0  0  0  0  0  0  0  0  0
    2.7598    3.4212    4.3699 H   0  0  0  0  0  0  0  0  0  0  0  0
    1.1796    4.0119    4.8992 H   0  0  0  0  0  0  0  0  0  0  0  0
   -0.4404    0.2277    4.2147 H   0  0  0  0  0  0  0  0  0  0  0  0
   -2.5401    0.4937    4.8978 H   0  0  0  0  0  0  0  0  0  0  0  0
   -2.4563    2.9415    5.0574 H   0  0  0  0  0  0  0  0  0  0  0  0
   -4.0344    2.3939    4.4842 H   0  0  0  0  0  0  0  0  0  0  0  0
   -2.8829    3.1001    3.3445 H   0  0  0  0  0  0  0  0  0  0  0  0
   -3.6937    1.0433    2.1979 H   0  0  0  0  0  0  0  0  0  0  0  0
   -3.9073   -0.3426    3.2578 H   0  0  0  0  0  0  0  0  0  0  0  0
   -4.8217   -1.7659   -1.3244 H   0  0  0  0  0  0  0  0  0  0  0  0
   -3.9158   -0.2508   -1.4891 H   0  0  0  0  0  0  0  0  0  0  0  0
   -3.0693   -1.8297   -1.6263 H   0  0  0  0  0  0  0  0  0  0  0  0
   -1.6003   -4.4481    3.6196 H   0  0  0  0  0  0  0  0  0  0  0  0
   -3.1417   -4.1000    2.8016 H   0  0  0  0  0  0  0  0  0  0  0  0
   -1.9701   -5.1882    2.0589 H   0  0  0  0  0  0  0  0  0  0  0  0
   -0.6062   -4.2853    0.4716 H   0  0  0  0  0  0  0  0  0  0  0  0
   -0.4256   -2.2787   -0.9829 H   0  0  0  0  0  0  0  0  0  0  0  0
   -0.2325   -1.2944    0.4477 H   0  0  0  0  0  0  0  0  0  0  0  0
    1.5468   -3.6216   -1.8343 H   0  0  0  0  0  0  0  0  0  0  0  0
    1.6816   -4.4697   -0.2871 H   0  0  0  0  0  0  0  0  0  0  0  0
    3.0785   -3.6258   -0.9487 H   0  0  0  0  0  0  0  0  0  0  0  0
    3.3055   -2.2707    1.2344 H   0  0  0  0  0  0  0  0  0  0  0  0
    1.9528   -3.2160    1.8459 H   0  0  0  0  0  0  0  0  0  0  0  0
    1.8913   -1.4565    1.9130 H   0  0  0  0  0  0  0  0  0  0  0  0
    1.6677   -1.1671   -1.9676 H   0  0  0  0  0  0  0  0  0  0  0  0
    6.0235   -0.5021   -2.9826 H   0  0  0  0  0  0  0  0  0  0  0  0
    5.9646    0.0412   -1.2840 H   0  0  0  0  0  0  0  0  0  0  0  0
    5.8431   -1.7029   -1.6968 H   0  0  0  0  0  0  0  0  0  0  0  0
    2.3947    1.1019   -0.7405 H   0  0  0  0  0  0  0  0  0  0  0  0
    1.7139    0.3764    0.6753 H   0  0  0  0  0  0  0  0  0  0  0  0
   -0.4678    0.0510   -0.9296 H   0  0  0  0  0  0  0  0  0  0  0  0
    1.7612    2.5496   -3.8978 H   0  0  0  0  0  0  0  0  0  0  0  0
    2.1748    3.5111   -6.1314 H   0  0  0  0  0  0  0  0  0  0  0  0
    0.9118    2.6878   -8.1025 H   0  0  0  0  0  0  0  0  0  0  0  0
   -0.7797    0.8910   -7.8336 H   0  0  0  0  0  0  0  0  0  0  0  0
   -1.2154   -0.0804   -5.5987 H   0  0  0  0  0  0  0  0  0  0  0  0
   -0.8363    4.0804   -0.0201 H   0  0  0  0  0  0  0  0  0  0  0  0
   -1.0539    3.3078   -1.5905 H   0  0  0  0  0  0  0  0  0  0  0  0
    0.5826    3.6616   -0.9760 H   0  0  0  0  0  0  0  0  0  0  0  0
   -1.4014    2.6507    1.6003 H   0  0  0  0  0  0  0  0  0  0  0  0
    0.0637    0.0358    1.9467 H   0  0  0  0  0  0  0  0  0  0  0  0
  1  2  1  0
  2  3  2  0
  2  4  1  0
  4  5  1  0
  5  6  1  0
  6  7  1  0
  6  8  1  0
  8  9  1  0
  9 10  1  6
 10 11  1  0
 11 12  1  0
 11 13  2  0
  9 14  1  0
 14 15  2  0
 14 16  1  0
 16 17  1  0
 16 18  2  3
 18 19  1  0
 19 20  1  0
 20 21  1  0
 20 22  1  0
 20 23  1  0
 23 24  1  0
 24 25  1  0
 25 26  1  0
 25 27  2  0
 23 28  1  0
 28 29  1  0
 29 30  1  0
 30 31  1  0
 31 32  2  0
 31 33  1  0
 33 34  2  0
 34 35  1  0
 35 36  2  0
 36 37  1  0
 37 38  2  0
 29 39  1  0
 39 40  1  0
 39 41  2  0
 41 42  1  0
 42  5  1  0
 42  9  1  0
 38 33  1  0
  1 43  1  0
  1 44  1  0
  1 45  1  0
  5 46  1  1
  6 47  1  1
  7 48  1  0
  7 49  1  0
  7 50  1  0
  8 51  1  0
  8 52  1  0
 12 53  1  0
 12 54  1  0
 12 55  1  0
 17 56  1  0
 17 57  1  0
 17 58  1  0
 18 59  1  0
 19 60  1  0
 19 61  1  0
 21 62  1  0
 21 63  1  0
 21 64  1  0
 22 65  1  0
 22 66  1  0
 22 67  1  0
 23 68  1  6
 26 69  1  0
 26 70  1  0
 26 71  1  0
 28 72  1  0
 28 73  1  0
 29 74  1  6
 34 75  1  0
 35 76  1  0
 36 77  1  0
 37 78  1  0
 38 79  1  0
 40 80  1  0
 40 81  1  0
 40 82  1  0
 41 83  1  0
 42 84  1  1
M  END
$$$$
