
     RDKit          3D

 41 43  0  0  0  0  0  0  0  0999 V2000
    7.4444    1.0780    0.2564 C   0  0  0  0  0  0  0  0  0  0  0  0
    6.1595    0.8627    0.5777 C   0  0  0  0  0  0  0  0  0  0  0  0
    5.7894    0.5462    1.9517 C   0  0  0  0  0  0  0  0  0  0  0  0
    4.5020    0.3308    2.2778 C   0  0  0  0  0  0  0  0  0  0  0  0
    3.4290    0.4080    1.2612 C   0  0  0  0  0  0  0  0  0  0  0  0
    2.1308    0.1928    1.5916 C   0  0  0  0  0  0  0  0  0  0  0  0
    1.6823   -0.1098    2.8515 N   0  0  0  0  0  0  0  0  0  0  0  0
    0.3385   -0.3019    3.0320 C   0  0  0  0  0  0  0  0  0  0  0  0
   -0.1919   -0.5794    4.0951 O   0  0  0  0  0  0  0  0  0  0  0  0
   -0.3511   -0.1180    1.7316 C   0  0  0  0  0  0  0  0  0  0  0  0
   -1.6792   -0.2618    1.6244 C   0  0  0  0  0  0  0  0  0  0  0  0
   -2.4622   -0.1144    0.3937 C   0  0  0  0  0  0  0  0  0  0  0  0
   -2.6199    1.1331   -0.2134 C   0  0  0  0  0  0  0  0  0  0  0  0
   -3.3798    1.2599   -1.3791 C   0  0  0  0  0  0  0  0  0  0  0  0
   -3.9949    0.1401   -1.9479 C   0  0  0  0  0  0  0  0  0  0  0  0
   -4.7583    0.1703   -3.0889 O   0  0  0  0  0  0  0  0  0  0  0  0
   -4.9188    1.4211   -3.7414 C   0  0  0  0  0  0  0  0  0  0  0  0
   -3.8454   -1.1211   -1.3353 C   0  0  0  0  0  0  0  0  0  0  0  0
   -4.4832   -2.1695   -1.9530 O   0  0  0  0  0  0  0  0  0  0  0  0
   -4.3331   -3.4617   -1.3836 C   0  0  0  0  0  0  0  0  0  0  0  0
   -3.0825   -1.2377   -0.1664 C   0  0  0  0  0  0  0  0  0  0  0  0
    0.7794    0.2588    0.4799 S   0  0  0  0  0  0  0  0  0  0  0  0
    3.8355    0.7284   -0.1252 C   0  0  0  0  0  0  0  0  0  0  0  0
    5.1243    0.9426   -0.4449 C   0  0  0  0  0  0  0  0  0  0  0  0
    8.2367    1.0248    0.9964 H   0  0  0  0  0  0  0  0  0  0  0  0
    7.7481    1.3148   -0.7587 H   0  0  0  0  0  0  0  0  0  0  0  0
    6.5653    0.4862    2.7085 H   0  0  0  0  0  0  0  0  0  0  0  0
    4.2690    0.0983    3.3090 H   0  0  0  0  0  0  0  0  0  0  0  0
    2.2840   -0.2034    3.6538 H   0  0  0  0  0  0  0  0  0  0  0  0
   -2.2629   -0.5286    2.5042 H   0  0  0  0  0  0  0  0  0  0  0  0
   -2.1545    2.0184    0.2145 H   0  0  0  0  0  0  0  0  0  0  0  0
   -3.4724    2.2480   -1.8166 H   0  0  0  0  0  0  0  0  0  0  0  0
   -5.4373    2.1390   -3.0975 H   0  0  0  0  0  0  0  0  0  0  0  0
   -5.5420    1.2592   -4.6263 H   0  0  0  0  0  0  0  0  0  0  0  0
   -3.9560    1.8164   -4.0816 H   0  0  0  0  0  0  0  0  0  0  0  0
   -4.8896   -4.1684   -2.0068 H   0  0  0  0  0  0  0  0  0  0  0  0
   -4.7596   -3.5010   -0.3759 H   0  0  0  0  0  0  0  0  0  0  0  0
   -3.2838   -3.7746   -1.3832 H   0  0  0  0  0  0  0  0  0  0  0  0
   -2.9530   -2.1965    0.3248 H   0  0  0  0  0  0  0  0  0  0  0  0
    3.0900    0.7941   -0.9105 H   0  0  0  0  0  0  0  0  0  0  0  0
    5.4032    1.1757   -1.4677 H   0  0  0  0  0  0  0  0  0  0  0  0
  1  2  2  0
  2  3  1  0
  3  4  2  0
  4  5  1  0
  5  6  2  3
  6  7  1  0
  7  8  1  0
  8  9  2  0
  8 10  1  0
 10 11  2  3
 11 12  1  0
 12 13  2  0
 13 14  1  0
 14 15  2  0
 15 16  1  0
 16 17  1  0
 15 18  1  0
 18 19  1  0
 19 20  1  0
 18 21  2  0
 10 22  1  0
  5 23  1  0
 23 24  2  0
 24  2  1  0
 22  6  1  0
 21 12  1  0
  1 25  1  0
  1 26  1  0
  3 27  1  0
  4 28  1  0
  7 29  1  0
 11 30  1  0
 13 31  1  0
 14 32  1  0
 17 33  1  0
 17 34  1  0
 17 35  1  0
 20 36  1  0
 20 37  1  0
 20 38  1  0
 21 39  1  0
 23 40  1  0
 24 41  1  0
M  END
$$$$
