
     RDKit          3D

 51 54  0  0  0  0  0  0  0  0999 V2000
   -6.9197    1.2487   -1.7008 C   0  0  0  0  0  0  0  0  0  0  0  0
   -6.4795    1.3494   -0.2473 C   0  0  0  0  0  0  0  0  0  0  0  0
   -5.6587    0.1911    0.1366 N   0  0  0  0  0  0  0  0  0  0  0  0
   -6.3850   -0.9214    0.7653 C   0  0  0  0  0  0  0  0  0  0  0  0
   -6.3670   -0.7953    2.2827 C   0  0  0  0  0  0  0  0  0  0  0  0
   -4.2839    0.1572   -0.0733 C   0  0  0  0  0  0  0  0  0  0  0  0
   -3.4814   -0.9158    0.3657 C   0  0  0  0  0  0  0  0  0  0  0  0
   -2.0921   -0.9659    0.1565 C   0  0  0  0  0  0  0  0  0  0  0  0
   -1.4514    0.0713   -0.5060 C   0  0  0  0  0  0  0  0  0  0  0  0
   -0.0244    0.0714   -0.7686 C   0  0  0  0  0  0  0  0  0  0  0  0
    0.5586    1.0968   -1.4139 C   0  0  0  0  0  0  0  0  0  0  0  0
    1.9683    1.0231   -1.6484 C   0  0  0  0  0  0  0  0  0  0  0  0
    2.8521    0.4854   -0.8220 N   0  0  0  0  0  0  0  0  0  0  0  0
    4.1387    0.5210   -1.3452 C   0  0  0  0  0  0  0  0  0  0  0  0
    5.2711   -0.0080   -0.5838 C   0  0  0  0  0  0  0  0  0  0  0  0
    5.0335   -0.6736    0.6290 C   0  0  0  0  0  0  0  0  0  0  0  0
    6.0853   -1.2041    1.3887 C   0  0  0  0  0  0  0  0  0  0  0  0
    7.3994   -1.0758    0.9465 C   0  0  0  0  0  0  0  0  0  0  0  0
    8.5141   -1.5460    1.5829 O   0  0  0  0  0  0  0  0  0  0  0  0
    8.3100   -2.2398    2.8064 C   0  0  0  0  0  0  0  0  0  0  0  0
    7.6481   -0.4100   -0.2550 C   0  0  0  0  0  0  0  0  0  0  0  0
    6.5977    0.1208   -1.0141 C   0  0  0  0  0  0  0  0  0  0  0  0
    4.2164    1.0638   -2.6106 C   0  0  0  0  0  0  0  0  0  0  0  0
    2.6634    1.5314   -3.1540 S   0  0  0  0  0  0  0  0  0  0  0  0
   -0.2395    2.2846   -1.8253 C   0  0  0  0  0  0  0  0  0  0  0  0
    0.2565    3.2890   -2.3239 O   0  0  0  0  0  0  0  0  0  0  0  0
   -1.6163    2.2207   -1.6083 O   0  0  0  0  0  0  0  0  0  0  0  0
   -2.2166    1.1368   -0.9420 C   0  0  0  0  0  0  0  0  0  0  0  0
   -3.5995    1.1893   -0.7370 C   0  0  0  0  0  0  0  0  0  0  0  0
   -6.0658    1.2437   -2.3860 H   0  0  0  0  0  0  0  0  0  0  0  0
   -7.4906    0.3308   -1.8768 H   0  0  0  0  0  0  0  0  0  0  0  0
   -7.5556    2.0994   -1.9617 H   0  0  0  0  0  0  0  0  0  0  0  0
   -5.9634    2.2955   -0.0564 H   0  0  0  0  0  0  0  0  0  0  0  0
   -7.3779    1.3915    0.3823 H   0  0  0  0  0  0  0  0  0  0  0  0
   -5.9955   -1.8949    0.4458 H   0  0  0  0  0  0  0  0  0  0  0  0
   -7.4308   -0.9179    0.4308 H   0  0  0  0  0  0  0  0  0  0  0  0
   -5.3474   -0.8084    2.6796 H   0  0  0  0  0  0  0  0  0  0  0  0
   -6.9181   -1.6241    2.7375 H   0  0  0  0  0  0  0  0  0  0  0  0
   -6.8372    0.1393    2.6039 H   0  0  0  0  0  0  0  0  0  0  0  0
   -3.9170   -1.7558    0.8984 H   0  0  0  0  0  0  0  0  0  0  0  0
   -1.5348   -1.8254    0.5211 H   0  0  0  0  0  0  0  0  0  0  0  0
    0.5507   -0.7905   -0.4402 H   0  0  0  0  0  0  0  0  0  0  0  0
    4.0153   -0.7870    0.9976 H   0  0  0  0  0  0  0  0  0  0  0  0
    5.8373   -1.7080    2.3172 H   0  0  0  0  0  0  0  0  0  0  0  0
    9.2897   -2.5548    3.1777 H   0  0  0  0  0  0  0  0  0  0  0  0
    7.7051   -3.1406    2.6542 H   0  0  0  0  0  0  0  0  0  0  0  0
    7.8619   -1.5856    3.5612 H   0  0  0  0  0  0  0  0  0  0  0  0
    8.6720   -0.3008   -0.6055 H   0  0  0  0  0  0  0  0  0  0  0  0
    6.8496    0.6348   -1.9363 H   0  0  0  0  0  0  0  0  0  0  0  0
    5.0747    1.2025   -3.2505 H   0  0  0  0  0  0  0  0  0  0  0  0
   -4.1206    2.0600   -1.1196 H   0  0  0  0  0  0  0  0  0  0  0  0
  1  2  1  0
  2  3  1  0
  3  4  1  0
  4  5  1  0
  3  6  1  0
  6  7  2  0
  7  8  1  0
  8  9  2  0
  9 10  1  0
 10 11  2  0
 11 12  1  0
 12 13  2  0
 13 14  1  0
 14 15  1  0
 15 16  2  0
 16 17  1  0
 17 18  2  0
 18 19  1  0
 19 20  1  0
 18 21  1  0
 21 22  2  0
 14 23  2  0
 23 24  1  0
 11 25  1  0
 25 26  2  0
 25 27  1  0
 27 28  1  0
 28 29  2  0
 29  6  1  0
 28  9  1  0
 24 12  1  0
 22 15  1  0
  1 30  1  0
  1 31  1  0
  1 32  1  0
  2 33  1  0
  2 34  1  0
  4 35  1  0
  4 36  1  0
  5 37  1  0
  5 38  1  0
  5 39  1  0
  7 40  1  0
  8 41  1  0
 10 42  1  0
 16 43  1  0
 17 44  1  0
 20 45  1  0
 20 46  1  0
 20 47  1  0
 21 48  1  0
 22 49  1  0
 23 50  1  0
 29 51  1  0
M  END
$$$$
