
     RDKit          3D

 37 39  0  0  0  0  0  0  0  0999 V2000
    6.0014    0.1511   -0.6498 C   0  0  0  0  0  0  0  0  0  0  0  0
    5.4561   -0.1510    0.6282 O   0  0  0  0  0  0  0  0  0  0  0  0
    4.0927   -0.2074    0.7343 C   0  0  0  0  0  0  0  0  0  0  0  0
    3.6322   -0.5319    2.0202 C   0  0  0  0  0  0  0  0  0  0  0  0
    2.2685   -0.6297    2.2917 C   0  0  0  0  0  0  0  0  0  0  0  0
    1.3786   -0.3945    1.2568 C   0  0  0  0  0  0  0  0  0  0  0  0
    1.8110   -0.0641   -0.0461 C   0  0  0  0  0  0  0  0  0  0  0  0
    3.1790    0.0269   -0.3016 C   0  0  0  0  0  0  0  0  0  0  0  0
    0.7525    0.1460   -0.9612 N   0  0  0  0  0  0  0  0  0  0  0  0
    1.0652    0.3001   -2.3722 C   0  0  0  0  0  0  0  0  0  0  0  0
   -0.4935   -0.0858   -0.3737 C   0  0  0  0  0  0  0  0  0  0  0  0
   -1.6929   -0.0180   -0.9824 C   0  0  0  0  0  0  0  0  0  0  0  0
   -2.9872   -0.2687   -0.3406 C   0  0  0  0  0  0  0  0  0  0  0  0
   -3.5362   -1.5560   -0.3847 C   0  0  0  0  0  0  0  0  0  0  0  0
   -4.7521   -1.8147    0.2336 C   0  0  0  0  0  0  0  0  0  0  0  0
   -5.4057   -0.7862    0.8930 C   0  0  0  0  0  0  0  0  0  0  0  0
   -4.8351    0.4802    0.9174 C   0  0  0  0  0  0  0  0  0  0  0  0
   -3.6546    0.7299    0.3014 N   0  0  0  0  0  4  0  0  0  0  0  0
   -3.0989    2.0972    0.3669 C   0  0  0  0  0  0  0  0  0  0  0  0
   -0.4013   -0.4832    1.3692 S   0  0  0  0  0  0  0  0  0  0  0  0
    7.0918    0.1452   -0.5584 H   0  0  0  0  0  0  0  0  0  0  0  0
    5.7241   -0.6098   -1.3867 H   0  0  0  0  0  0  0  0  0  0  0  0
    5.6996    1.1504   -0.9802 H   0  0  0  0  0  0  0  0  0  0  0  0
    4.3533   -0.7129    2.8154 H   0  0  0  0  0  0  0  0  0  0  0  0
    1.9243   -0.8879    3.2876 H   0  0  0  0  0  0  0  0  0  0  0  0
    3.5283    0.2794   -1.2940 H   0  0  0  0  0  0  0  0  0  0  0  0
    0.1807    0.5475   -2.9665 H   0  0  0  0  0  0  0  0  0  0  0  0
    1.7766    1.1180   -2.5317 H   0  0  0  0  0  0  0  0  0  0  0  0
    1.4880   -0.6255   -2.7781 H   0  0  0  0  0  0  0  0  0  0  0  0
   -1.7640    0.2188   -2.0387 H   0  0  0  0  0  0  0  0  0  0  0  0
   -3.0096   -2.3645   -0.8898 H   0  0  0  0  0  0  0  0  0  0  0  0
   -5.1805   -2.8157    0.2088 H   0  0  0  0  0  0  0  0  0  0  0  0
   -6.3549   -0.9711    1.3920 H   0  0  0  0  0  0  0  0  0  0  0  0
   -5.3213    1.3035    1.4340 H   0  0  0  0  0  0  0  0  0  0  0  0
   -2.7918    2.4027   -0.6364 H   0  0  0  0  0  0  0  0  0  0  0  0
   -3.8659    2.7907    0.7220 H   0  0  0  0  0  0  0  0  0  0  0  0
   -2.2584    2.0912    1.0639 H   0  0  0  0  0  0  0  0  0  0  0  0
  1  2  1  0
  2  3  1  0
  3  4  2  0
  4  5  1  0
  5  6  2  0
  6  7  1  0
  7  8  2  0
  7  9  1  0
  9 10  1  0
  9 11  1  0
 11 12  2  3
 12 13  1  0
 13 14  2  0
 14 15  1  0
 15 16  2  0
 16 17  1  0
 17 18  2  0
 18 19  1  0
 11 20  1  0
  8  3  1  0
 18 13  1  0
 20  6  1  0
  1 21  1  0
  1 22  1  0
  1 23  1  0
  4 24  1  0
  5 25  1  0
  8 26  1  0
 10 27  1  0
 10 28  1  0
 10 29  1  0
 12 30  1  0
 14 31  1  0
 15 32  1  0
 16 33  1  0
 17 34  1  0
 19 35  1  0
 19 36  1  0
 19 37  1  0
M  CHG  1  18   1
M  END
$$$$
