
     RDKit          3D

 30 32  0  0  0  0  0  0  0  0999 V2000
   -4.7044   -0.3447   -0.2133 O   0  0  0  0  0  0  0  0  0  0  0  0
   -4.0459    0.6264    0.1198 C   0  0  0  0  0  0  0  0  0  0  0  0
   -4.7120    1.8489    0.5820 C   0  0  0  0  0  0  0  0  0  0  0  0
   -3.7706    2.7346    0.8872 C   0  0  0  0  0  0  0  0  0  0  0  0
   -2.4675    2.1147    0.6236 C   0  0  0  0  0  0  0  0  0  0  0  0
   -1.4393    2.7465    0.7989 O   0  0  0  0  0  0  0  0  0  0  0  0
   -2.6929    0.8401    0.1723 N   0  0  0  0  0  0  0  0  0  0  0  0
   -1.6847   -0.1057   -0.1951 C   0  0  0  0  0  0  0  0  0  0  0  0
   -2.0130   -1.3376   -0.7810 C   0  0  0  0  0  0  0  0  0  0  0  0
   -1.0276   -2.2604   -1.1443 C   0  0  0  0  0  0  0  0  0  0  0  0
    0.3159   -1.9730   -0.9269 C   0  0  0  0  0  0  0  0  0  0  0  0
    0.6976   -0.7611   -0.3410 C   0  0  0  0  0  0  0  0  0  0  0  0
    2.1188   -0.4495   -0.1020 C   0  0  0  0  0  0  0  0  0  0  0  0
    2.9582   -1.3566    0.5673 C   0  0  0  0  0  0  0  0  0  0  0  0
    4.3057   -1.0622    0.7937 C   0  0  0  0  0  0  0  0  0  0  0  0
    4.8387    0.1465    0.3540 C   0  0  0  0  0  0  0  0  0  0  0  0
    4.0254    1.0607   -0.3102 C   0  0  0  0  0  0  0  0  0  0  0  0
    2.6781    0.7648   -0.5354 C   0  0  0  0  0  0  0  0  0  0  0  0
   -0.3169    0.1537    0.0158 C   0  0  0  0  0  0  0  0  0  0  0  0
   -5.7806    1.9537    0.6454 H   0  0  0  0  0  0  0  0  0  0  0  0
   -3.8852    3.7384    1.2566 H   0  0  0  0  0  0  0  0  0  0  0  0
   -3.0403   -1.6216   -0.9885 H   0  0  0  0  0  0  0  0  0  0  0  0
   -1.3140   -3.2037   -1.6033 H   0  0  0  0  0  0  0  0  0  0  0  0
    1.0676   -2.6992   -1.2296 H   0  0  0  0  0  0  0  0  0  0  0  0
    2.5610   -2.3017    0.9320 H   0  0  0  0  0  0  0  0  0  0  0  0
    4.9360   -1.7764    1.3169 H   0  0  0  0  0  0  0  0  0  0  0  0
    5.8859    0.3770    0.5305 H   0  0  0  0  0  0  0  0  0  0  0  0
    4.4368    2.0058   -0.6550 H   0  0  0  0  0  0  0  0  0  0  0  0
    2.0641    1.4922   -1.0633 H   0  0  0  0  0  0  0  0  0  0  0  0
    0.0054    1.0756    0.4929 H   0  0  0  0  0  0  0  0  0  0  0  0
  1  2  2  0
  2  3  1  0
  3  4  2  0
  4  5  1  0
  5  6  2  0
  5  7  1  0
  7  8  1  0
  8  9  2  0
  9 10  1  0
 10 11  2  0
 11 12  1  0
 12 13  1  0
 13 14  2  0
 14 15  1  0
 15 16  2  0
 16 17  1  0
 17 18  2  0
 12 19  2  0
  7  2  1  0
 19  8  1  0
 18 13  1  0
  3 20  1  0
  4 21  1  0
  9 22  1  0
 10 23  1  0
 11 24  1  0
 14 25  1  0
 15 26  1  0
 16 27  1  0
 17 28  1  0
 18 29  1  0
 19 30  1  0
M  END
$$$$
