
     RDKit          3D

 39 41  0  0  0  0  0  0  0  0999 V2000
    3.7044   -2.5844   -1.0317 O   0  0  0  0  0  0  0  0  0  0  0  0
    3.3524   -1.4936   -0.6105 C   0  0  0  0  0  0  0  0  0  0  0  0
    2.0733   -1.0915   -0.4290 O   0  0  0  0  0  0  0  0  0  0  0  0
    1.1023   -2.0789   -0.7809 C   0  0  0  0  0  0  0  0  0  0  0  0
   -0.2622   -1.4936   -0.5258 C   0  0  0  0  0  0  0  0  0  0  0  0
   -0.8966   -0.7177   -1.5028 C   0  0  0  0  0  0  0  0  0  0  0  0
   -2.1543   -0.1567   -1.2579 C   0  0  0  0  0  0  0  0  0  0  0  0
   -2.8079   -0.3489   -0.0307 C   0  0  0  0  0  0  0  0  0  0  0  0
   -4.1313    0.2429    0.2257 C   0  0  0  0  0  0  0  0  0  0  0  0
   -4.3542    1.6196    0.0558 C   0  0  0  0  0  0  0  0  0  0  0  0
   -5.6101    2.1823    0.2996 C   0  0  0  0  0  0  0  0  0  0  0  0
   -6.6660    1.3761    0.7168 C   0  0  0  0  0  0  0  0  0  0  0  0
   -6.4671    0.0090    0.8911 C   0  0  0  0  0  0  0  0  0  0  0  0
   -5.2102   -0.5518    0.6481 C   0  0  0  0  0  0  0  0  0  0  0  0
   -2.1576   -1.1184    0.9468 C   0  0  0  0  0  0  0  0  0  0  0  0
   -0.8992   -1.6798    0.7063 C   0  0  0  0  0  0  0  0  0  0  0  0
    4.3025   -0.4162   -0.2248 C   0  0  0  0  0  0  0  0  0  0  0  0
    5.6767   -0.6691   -0.3519 C   0  0  0  0  0  0  0  0  0  0  0  0
    6.6100    0.3100   -0.0032 C   0  0  0  0  0  0  0  0  0  0  0  0
    6.1776    1.5470    0.4742 C   0  0  0  0  0  0  0  0  0  0  0  0
    4.8132    1.7936    0.5986 C   0  0  0  0  0  0  0  0  0  0  0  0
    4.3501    2.9900    1.0611 O   0  0  0  0  0  0  0  0  0  0  0  0
    3.8729    0.8270    0.2549 C   0  0  0  0  0  0  0  0  0  0  0  0
    1.2003   -2.3489   -1.8398 H   0  0  0  0  0  0  0  0  0  0  0  0
    1.2434   -2.9829   -0.1755 H   0  0  0  0  0  0  0  0  0  0  0  0
   -0.4151   -0.5423   -2.4623 H   0  0  0  0  0  0  0  0  0  0  0  0
   -2.6284    0.4306   -2.0419 H   0  0  0  0  0  0  0  0  0  0  0  0
   -3.5393    2.2690   -0.2581 H   0  0  0  0  0  0  0  0  0  0  0  0
   -5.7603    3.2503    0.1657 H   0  0  0  0  0  0  0  0  0  0  0  0
   -7.6429    1.8130    0.9062 H   0  0  0  0  0  0  0  0  0  0  0  0
   -7.2895   -0.6240    1.2139 H   0  0  0  0  0  0  0  0  0  0  0  0
   -5.0788   -1.6239    0.7796 H   0  0  0  0  0  0  0  0  0  0  0  0
   -2.6242   -1.2730    1.9178 H   0  0  0  0  0  0  0  0  0  0  0  0
   -0.4181   -2.2582    1.4920 H   0  0  0  0  0  0  0  0  0  0  0  0
    6.0247   -1.6315   -0.7236 H   0  0  0  0  0  0  0  0  0  0  0  0
    7.6731    0.1055   -0.1048 H   0  0  0  0  0  0  0  0  0  0  0  0
    6.9129    2.2998    0.7417 H   0  0  0  0  0  0  0  0  0  0  0  0
    5.1073    3.5636    1.2641 H   0  0  0  0  0  0  0  0  0  0  0  0
    2.8163    1.0557    0.3659 H   0  0  0  0  0  0  0  0  0  0  0  0
  1  2  2  0
  2  3  1  0
  3  4  1  0
  4  5  1  0
  5  6  2  0
  6  7  1  0
  7  8  2  0
  8  9  1  0
  9 10  2  0
 10 11  1  0
 11 12  2  0
 12 13  1  0
 13 14  2  0
  8 15  1  0
 15 16  2  0
  2 17  1  0
 17 18  2  0
 18 19  1  0
 19 20  2  0
 20 21  1  0
 21 22  1  0
 21 23  2  0
 16  5  1  0
 23 17  1  0
 14  9  1  0
  4 24  1  0
  4 25  1  0
  6 26  1  0
  7 27  1  0
 10 28  1  0
 11 29  1  0
 12 30  1  0
 13 31  1  0
 14 32  1  0
 15 33  1  0
 16 34  1  0
 18 35  1  0
 19 36  1  0
 20 37  1  0
 22 38  1  0
 23 39  1  0
M  END
$$$$
