
     RDKit          3D

 47 51  0  0  0  0  0  0  0  0999 V2000
   -0.1747    0.6617   -4.2205 C   0  0  0  0  0  0  0  0  0  0  0  0
   -1.0121    0.7516   -2.9827 C   0  0  0  0  0  0  0  0  0  0  0  0
   -1.7079    1.8401   -2.7614 N   0  0  0  0  0  0  0  0  0  0  0  0
   -2.4643    1.8819   -1.6227 C   0  0  0  0  0  0  0  0  0  0  0  0
   -3.4187    3.2386   -1.2077 S   0  0  0  0  0  0  0  0  0  0  0  0
   -3.9803    2.4865    0.2226 C   0  0  0  0  0  0  0  0  0  0  0  0
   -3.4522    1.2213    0.4121 C   0  0  0  0  0  0  0  0  0  0  0  0
   -2.5939    0.9008   -0.6616 C   0  0  0  0  0  0  0  0  0  0  0  0
   -1.7685   -0.3509   -0.9675 C   0  0  0  0  0  0  0  0  0  0  0  0
   -1.6490   -1.4647   -0.2913 N   0  0  0  0  0  0  0  0  0  0  0  0
   -0.7811   -2.2593   -0.9976 N   0  0  0  0  0  0  0  0  0  0  0  0
   -0.4124   -1.6042   -2.0817 C   0  0  0  0  0  0  0  0  0  0  0  0
    0.7242   -2.2455   -3.2176 S   0  0  0  0  0  0  0  0  0  0  0  0
    2.1025   -2.5882   -2.0810 C   0  0  0  0  0  0  0  0  0  0  0  0
    2.6464   -1.3176   -1.4367 C   0  0  0  0  0  0  0  0  0  0  0  0
    2.3165   -0.1783   -1.7578 O   0  0  0  0  0  0  0  0  0  0  0  0
    3.5709   -1.5630   -0.4451 N   0  0  0  0  0  0  0  0  0  0  0  0
    4.2989   -0.4723    0.1631 C   0  0  0  0  0  0  0  0  0  0  0  0
    5.1859   -1.0166    1.2179 C   0  0  0  0  0  0  0  0  0  0  0  0
    5.3658   -0.7239    2.5536 C   0  0  0  0  0  0  0  0  0  0  0  0
    6.3783   -1.5951    3.0219 C   0  0  0  0  0  0  0  0  0  0  0  0
    6.7493   -2.3661    1.9457 C   0  0  0  0  0  0  0  0  0  0  0  0
    6.0309   -2.0258    0.8456 O   0  0  0  0  0  0  0  0  0  0  0  0
   -1.0125   -0.3655   -2.1209 N   0  0  0  0  0  0  0  0  0  0  0  0
   -3.8117    0.3677    1.5869 C   0  0  0  0  0  0  0  0  0  0  0  0
   -4.4818    1.1907    2.7002 C   0  0  0  0  0  0  0  0  0  0  0  0
   -5.5368    2.1578    2.1401 C   0  0  0  0  0  0  0  0  0  0  0  0
   -4.9213    3.1728    1.1628 C   0  0  0  0  0  0  0  0  0  0  0  0
    0.8815    0.5588   -3.9650 H   0  0  0  0  0  0  0  0  0  0  0  0
   -0.5101   -0.1655   -4.8503 H   0  0  0  0  0  0  0  0  0  0  0  0
   -0.2817    1.5828   -4.8039 H   0  0  0  0  0  0  0  0  0  0  0  0
    1.7794   -3.2868   -1.3030 H   0  0  0  0  0  0  0  0  0  0  0  0
    2.9104   -3.0556   -2.6522 H   0  0  0  0  0  0  0  0  0  0  0  0
    3.9795   -2.4855   -0.3566 H   0  0  0  0  0  0  0  0  0  0  0  0
    4.8875    0.0277   -0.6138 H   0  0  0  0  0  0  0  0  0  0  0  0
    3.5828    0.2479    0.5719 H   0  0  0  0  0  0  0  0  0  0  0  0
    4.8320    0.0297    3.1164 H   0  0  0  0  0  0  0  0  0  0  0  0
    6.7892   -1.6544    4.0210 H   0  0  0  0  0  0  0  0  0  0  0  0
    7.4736   -3.1571    1.8025 H   0  0  0  0  0  0  0  0  0  0  0  0
   -2.9222   -0.1283    1.9897 H   0  0  0  0  0  0  0  0  0  0  0  0
   -4.5001   -0.4165    1.2499 H   0  0  0  0  0  0  0  0  0  0  0  0
   -3.7187    1.7675    3.2392 H   0  0  0  0  0  0  0  0  0  0  0  0
   -4.9429    0.5132    3.4276 H   0  0  0  0  0  0  0  0  0  0  0  0
   -6.0268    2.6933    2.9620 H   0  0  0  0  0  0  0  0  0  0  0  0
   -6.3153    1.5791    1.6256 H   0  0  0  0  0  0  0  0  0  0  0  0
   -4.3672    3.9320    1.7280 H   0  0  0  0  0  0  0  0  0  0  0  0
   -5.7213    3.6831    0.6167 H   0  0  0  0  0  0  0  0  0  0  0  0
  1  2  1  0
  2  3  2  0
  3  4  1  0
  4  5  1  0
  5  6  1  0
  6  7  2  0
  7  8  1  0
  8  9  1  0
  9 10  2  0
 10 11  1  0
 11 12  2  0
 12 13  1  0
 13 14  1  0
 14 15  1  0
 15 16  2  0
 15 17  1  0
 17 18  1  0
 18 19  1  0
 19 20  2  0
 20 21  1  0
 21 22  2  0
 22 23  1  0
 12 24  1  0
  7 25  1  0
 25 26  1  0
 26 27  1  0
 27 28  1  0
 24  2  1  0
  8  4  2  0
 24  9  1  0
 28  6  1  0
 23 19  1  0
  1 29  1  0
  1 30  1  0
  1 31  1  0
 14 32  1  0
 14 33  1  0
 17 34  1  0
 18 35  1  0
 18 36  1  0
 20 37  1  0
 21 38  1  0
 22 39  1  0
 25 40  1  0
 25 41  1  0
 26 42  1  0
 26 43  1  0
 27 44  1  0
 27 45  1  0
 28 46  1  0
 28 47  1  0
M  END
$$$$
