
     RDKit          3D

 30 31  0  0  0  0  0  0  0  0999 V2000
   -3.5603   -1.4491   -1.4240 C   0  0  0  0  0  0  0  0  0  0  0  0
   -3.8591   -0.3520   -0.4761 C   0  0  0  0  0  0  0  0  0  0  0  0
   -5.1367    0.1239   -0.5379 O   0  0  0  0  0  0  0  0  0  0  0  0
   -5.2613    1.0789    0.4138 C   0  0  0  0  0  0  0  0  0  0  0  0
   -4.0776    1.2309    1.0899 C   0  0  0  0  0  0  0  0  0  0  0  0
   -3.1433    0.3187    0.5067 C   0  0  0  0  0  0  0  0  0  0  0  0
   -1.7582    0.1473    0.9218 C   0  0  0  0  0  0  0  0  0  0  0  0
   -1.3413    0.5815    1.9951 O   0  0  0  0  0  0  0  0  0  0  0  0
   -0.9285   -0.4963    0.0230 N   0  0  0  0  0  0  0  0  0  0  0  0
    0.4560   -0.4603    0.2701 N   0  0  0  0  0  0  0  0  0  0  0  0
    1.2900   -0.3165   -0.8207 C   0  0  0  0  0  0  0  0  0  0  0  0
    0.8637   -0.3919   -1.9729 O   0  0  0  0  0  0  0  0  0  0  0  0
    2.7309   -0.0579   -0.5606 C   0  0  0  0  0  0  0  0  0  0  0  0
    3.5978    0.0548   -1.6584 C   0  0  0  0  0  0  0  0  0  0  0  0
    4.9607    0.2973   -1.4635 C   0  0  0  0  0  0  0  0  0  0  0  0
    5.4692    0.4299   -0.1720 C   0  0  0  0  0  0  0  0  0  0  0  0
    4.6153    0.3206    0.9244 C   0  0  0  0  0  0  0  0  0  0  0  0
    3.2566    0.0785    0.7255 C   0  0  0  0  0  0  0  0  0  0  0  0
    2.4701   -0.0144    1.8085 F   0  0  0  0  0  0  0  0  0  0  0  0
   -2.9864   -2.2420   -0.9351 H   0  0  0  0  0  0  0  0  0  0  0  0
   -2.9864   -1.0723   -2.2758 H   0  0  0  0  0  0  0  0  0  0  0  0
   -4.4809   -1.8985   -1.8104 H   0  0  0  0  0  0  0  0  0  0  0  0
   -6.2342    1.5445    0.4881 H   0  0  0  0  0  0  0  0  0  0  0  0
   -3.8886    1.9171    1.9048 H   0  0  0  0  0  0  0  0  0  0  0  0
   -1.1763   -0.5389   -0.9631 H   0  0  0  0  0  0  0  0  0  0  0  0
    0.7417   -0.2130    1.2202 H   0  0  0  0  0  0  0  0  0  0  0  0
    3.2148   -0.0464   -2.6728 H   0  0  0  0  0  0  0  0  0  0  0  0
    5.6239    0.3828   -2.3218 H   0  0  0  0  0  0  0  0  0  0  0  0
    6.5295    0.6192   -0.0206 H   0  0  0  0  0  0  0  0  0  0  0  0
    4.9990    0.4238    1.9353 H   0  0  0  0  0  0  0  0  0  0  0  0
  1  2  1  0
  2  3  1  0
  3  4  1  0
  4  5  2  0
  5  6  1  0
  6  7  1  0
  7  8  2  0
  7  9  1  0
  9 10  1  0
 10 11  1  0
 11 12  2  0
 11 13  1  0
 13 14  2  0
 14 15  1  0
 15 16  2  0
 16 17  1  0
 17 18  2  0
 18 19  1  0
  6  2  2  0
 18 13  1  0
  1 20  1  0
  1 21  1  0
  1 22  1  0
  4 23  1  0
  5 24  1  0
  9 25  1  0
 10 26  1  0
 14 27  1  0
 15 28  1  0
 16 29  1  0
 17 30  1  0
M  END
$$$$
