
     RDKit          3D

 96101  0  0  0  0  0  0  0  0999 V2000
   -4.6452    3.4438    0.9335 C   0  0  0  0  0  0  0  0  0  0  0  0
   -4.4629    2.3884   -0.1187 C   0  0  0  0  0  0  0  0  0  0  0  0
   -4.4016    1.0655    0.1421 C   0  0  0  0  0  0  0  0  0  0  0  0
   -4.3286    0.3894    1.4950 C   0  0  0  0  0  0  0  0  0  0  0  0
   -3.2180   -0.6836    1.5655 C   0  0  2  0  0  0  0  0  0  0  0  0
   -1.8565   -0.1371    1.1432 C   0  0  0  0  0  0  0  0  0  0  0  0
   -0.8050   -1.2337    1.0701 C   0  0  1  0  0  0  0  0  0  0  0  0
   -1.3257   -2.4046    0.2423 C   0  0  0  0  0  0  0  0  0  0  0  0
   -2.6871   -2.8840    0.7543 C   0  0  1  0  0  0  0  0  0  0  0  0
   -3.2176   -3.9721   -0.1917 C   0  0  0  0  0  0  0  0  0  0  0  0
   -4.4993   -4.5996    0.3445 C   0  0  0  0  0  0  0  0  0  0  0  0
   -4.2886   -5.0956    1.7816 C   0  0  2  0  0  0  0  0  0  0  0  0
   -5.6010   -5.6508    2.3376 C   0  0  0  0  0  0  0  0  0  0  0  0
   -3.7141   -3.9567    2.6454 C   0  0  1  0  0  0  0  0  0  0  0  0
   -3.3395   -4.4096    4.0534 C   0  0  0  0  0  0  0  0  0  0  0  0
   -2.5136   -3.4310    2.0631 O   0  0  0  0  0  0  0  0  0  0  0  0
   -3.6081   -1.7903    0.7402 O   0  0  0  0  0  0  0  0  0  0  0  0
    0.3317   -0.6890    0.3681 O   0  0  0  0  0  0  0  0  0  0  0  0
    1.4080   -0.2902    1.0963 C   0  0  0  0  0  0  0  0  0  0  0  0
    1.5647   -0.4665    2.2961 O   0  0  0  0  0  0  0  0  0  0  0  0
    2.4047    0.4161    0.1837 C   0  0  0  0  0  0  0  0  0  0  0  0
    3.7794   -0.1719    0.3693 C   0  0  0  0  0  0  0  0  0  0  0  0
    4.9080    0.5385    0.2008 C   0  0  0  0  0  0  0  0  0  0  0  0
    6.2624   -0.0884    0.4266 C   0  0  0  0  0  0  0  0  0  0  0  0
    6.8861   -0.3361   -0.8327 O   0  0  0  0  0  0  0  0  0  0  0  0
    6.8013   -1.6074   -1.3069 C   0  0  0  0  0  0  0  0  0  0  0  0
    6.3274   -2.5612   -0.7064 O   0  0  0  0  0  0  0  0  0  0  0  0
    7.3552   -1.6464   -2.6391 C   0  0  0  0  0  0  0  0  0  0  0  0
    7.5076   -2.7265   -3.4924 C   0  0  0  0  0  0  0  0  0  0  0  0
    8.0840   -2.2565   -4.6971 C   0  0  0  0  0  0  0  0  0  0  0  0
    8.2680   -0.9003   -4.5615 C   0  0  0  0  0  0  0  0  0  0  0  0
    7.8285   -0.5410   -3.3155 N   0  0  0  0  0  0  0  0  0  0  0  0
    4.8901    2.0062   -0.1506 C   0  0  1  0  0  0  0  0  0  0  0  0
    5.6620    2.2023   -1.3418 O   0  0  0  0  0  0  0  0  0  0  0  0
    3.4946    2.6741   -0.3341 C   0  0  1  0  0  0  0  0  0  0  0  0
    3.6522    4.1756    0.0146 C   0  0  0  0  0  0  0  0  0  0  0  0
    3.0617    2.5942   -1.7242 O   0  0  0  0  0  0  0  0  0  0  0  0
    1.6188    2.7720   -1.7179 C   0  0  0  0  0  0  0  0  0  0  0  0
    1.1845    2.5533   -0.2982 C   0  0  0  0  0  0  0  0  0  0  0  0
    0.0444    2.9668    0.2763 C   0  0  0  0  0  0  0  0  0  0  0  0
   -1.0620    3.6350   -0.3640 C   0  0  0  0  0  0  0  0  0  0  0  0
   -1.8169    3.0953   -1.3350 C   0  0  0  0  0  0  0  0  0  0  0  0
   -3.0796    3.6939   -1.9313 C   0  0  2  0  0  0  0  0  0  0  0  0
   -3.2686    5.1956   -1.6828 C   0  0  0  0  0  0  0  0  0  0  0  0
   -4.3572    2.8821   -1.5582 C   0  0  0  0  0  0  0  0  0  0  0  0
    2.3646    1.9508    0.4270 C   0  0  1  0  0  0  0  0  0  0  0  0
    2.3609    2.3063    1.8064 O   0  0  0  0  0  0  0  0  0  0  0  0
   -3.7200    4.0064    1.0919 H   0  0  0  0  0  0  0  0  0  0  0  0
   -5.4393    4.1364    0.6307 H   0  0  0  0  0  0  0  0  0  0  0  0
   -4.9509    3.0352    1.9025 H   0  0  0  0  0  0  0  0  0  0  0  0
   -4.3418    0.3722   -0.6978 H   0  0  0  0  0  0  0  0  0  0  0  0
   -5.2976   -0.0865    1.6869 H   0  0  0  0  0  0  0  0  0  0  0  0
   -4.1465    1.1170    2.2923 H   0  0  0  0  0  0  0  0  0  0  0  0
   -3.1657   -1.0292    2.6048 H   0  0  0  0  0  0  0  0  0  0  0  0
   -1.9174    0.3193    0.1480 H   0  0  0  0  0  0  0  0  0  0  0  0
   -1.5323    0.6585    1.8234 H   0  0  0  0  0  0  0  0  0  0  0  0
   -0.5362   -1.5782    2.0759 H   0  0  0  0  0  0  0  0  0  0  0  0
   -1.4050   -2.0879   -0.8074 H   0  0  0  0  0  0  0  0  0  0  0  0
   -0.5854   -3.2146    0.2730 H   0  0  0  0  0  0  0  0  0  0  0  0
   -2.4685   -4.7655   -0.3037 H   0  0  0  0  0  0  0  0  0  0  0  0
   -3.4161   -3.5559   -1.1861 H   0  0  0  0  0  0  0  0  0  0  0  0
   -4.7985   -5.4303   -0.3051 H   0  0  0  0  0  0  0  0  0  0  0  0
   -5.3119   -3.8612    0.3160 H   0  0  0  0  0  0  0  0  0  0  0  0
   -3.5569   -5.9132    1.7409 H   0  0  0  0  0  0  0  0  0  0  0  0
   -6.0255   -6.4006    1.6588 H   0  0  0  0  0  0  0  0  0  0  0  0
   -5.4477   -6.1392    3.3049 H   0  0  0  0  0  0  0  0  0  0  0  0
   -6.3448   -4.8580    2.4697 H   0  0  0  0  0  0  0  0  0  0  0  0
   -4.4488   -3.1468    2.7364 H   0  0  0  0  0  0  0  0  0  0  0  0
   -4.2114   -4.7391    4.6260 H   0  0  0  0  0  0  0  0  0  0  0  0
   -2.8691   -3.5830    4.5998 H   0  0  0  0  0  0  0  0  0  0  0  0
   -2.6047   -5.2224    4.0220 H   0  0  0  0  0  0  0  0  0  0  0  0
    2.1279    0.1729   -0.8534 H   0  0  0  0  0  0  0  0  0  0  0  0
    3.8401   -1.2335    0.6089 H   0  0  0  0  0  0  0  0  0  0  0  0
    6.1951   -0.9947    1.0405 H   0  0  0  0  0  0  0  0  0  0  0  0
    6.9036    0.6015    0.9868 H   0  0  0  0  0  0  0  0  0  0  0  0
    7.2229   -3.7442   -3.2616 H   0  0  0  0  0  0  0  0  0  0  0  0
    8.3279   -2.8449   -5.5726 H   0  0  0  0  0  0  0  0  0  0  0  0
    8.6707   -0.1609   -5.2414 H   0  0  0  0  0  0  0  0  0  0  0  0
    7.8255    0.3971   -2.9286 H   0  0  0  0  0  0  0  0  0  0  0  0
    5.4196    2.5172    0.6665 H   0  0  0  0  0  0  0  0  0  0  0  0
    5.0006    2.2724   -2.0640 H   0  0  0  0  0  0  0  0  0  0  0  0
    2.7311    4.7489   -0.1423 H   0  0  0  0  0  0  0  0  0  0  0  0
    3.9607    4.3151    1.0570 H   0  0  0  0  0  0  0  0  0  0  0  0
    4.4072    4.6390   -0.6338 H   0  0  0  0  0  0  0  0  0  0  0  0
    1.3970    3.7793   -2.0821 H   0  0  0  0  0  0  0  0  0  0  0  0
    1.1901    2.0311   -2.3973 H   0  0  0  0  0  0  0  0  0  0  0  0
   -0.0711    2.8506    1.3544 H   0  0  0  0  0  0  0  0  0  0  0  0
   -1.3297    4.5895    0.0854 H   0  0  0  0  0  0  0  0  0  0  0  0
   -1.5592    2.1086   -1.7173 H   0  0  0  0  0  0  0  0  0  0  0  0
   -2.9676    3.6003   -3.0231 H   0  0  0  0  0  0  0  0  0  0  0  0
   -2.4006    5.7588   -2.0441 H   0  0  0  0  0  0  0  0  0  0  0  0
   -4.1447    5.5684   -2.2277 H   0  0  0  0  0  0  0  0  0  0  0  0
   -3.4135    5.4379   -0.6266 H   0  0  0  0  0  0  0  0  0  0  0  0
   -4.3935    2.0167   -2.2386 H   0  0  0  0  0  0  0  0  0  0  0  0
   -5.2570    3.4667   -1.7974 H   0  0  0  0  0  0  0  0  0  0  0  0
    2.9048    1.6573    2.2976 H   0  0  0  0  0  0  0  0  0  0  0  0
  1  2  1  0
  2  3  2  0
  3  4  1  0
  4  5  1  0
  5  6  1  0
  6  7  1  0
  7  8  1  0
  8  9  1  0
  9 10  1  0
 10 11  1  0
 11 12  1  0
 12 13  1  0
 12 14  1  0
 14 15  1  0
 14 16  1  0
  9 17  1  1
  7 18  1  0
 18 19  1  0
 19 20  2  0
 19 21  1  0
 21 22  1  0
 22 23  2  0
 23 24  1  0
 24 25  1  0
 25 26  1  0
 26 27  2  0
 26 28  1  0
 28 29  2  0
 29 30  1  0
 30 31  2  0
 31 32  1  0
 23 33  1  0
 33 34  1  0
 33 35  1  0
 35 36  1  1
 35 37  1  0
 37 38  1  0
 38 39  1  0
 39 40  2  0
 40 41  1  0
 41 42  2  0
 42 43  1  0
 43 44  1  0
 43 45  1  0
 39 46  1  0
 46 47  1  1
 45  2  1  0
 17  5  1  0
 46 21  1  0
 16  9  1  0
 32 28  1  0
 46 35  1  0
  1 48  1  0
  1 49  1  0
  1 50  1  0
  3 51  1  0
  4 52  1  0
  4 53  1  0
  5 54  1  1
  6 55  1  0
  6 56  1  0
  7 57  1  1
  8 58  1  0
  8 59  1  0
 10 60  1  0
 10 61  1  0
 11 62  1  0
 11 63  1  0
 12 64  1  6
 13 65  1  0
 13 66  1  0
 13 67  1  0
 14 68  1  1
 15 69  1  0
 15 70  1  0
 15 71  1  0
 21 72  1  0
 22 73  1  0
 24 74  1  0
 24 75  1  0
 29 76  1  0
 30 77  1  0
 31 78  1  0
 32 79  1  0
 33 80  1  1
 34 81  1  0
 36 82  1  0
 36 83  1  0
 36 84  1  0
 38 85  1  0
 38 86  1  0
 40 87  1  0
 41 88  1  0
 42 89  1  0
 43 90  1  6
 44 91  1  0
 44 92  1  0
 44 93  1  0
 45 94  1  0
 45 95  1  0
 47 96  1  0
M  END
$$$$
