
     RDKit          3D

 57 60  0  0  0  0  0  0  0  0999 V2000
   -0.2437    2.6232    4.0371 C   0  0  0  0  0  0  0  0  0  0  0  0
   -0.8315    1.3851    3.6221 O   0  0  0  0  0  0  0  0  0  0  0  0
   -0.0291    0.6790    2.7700 C   0  0  0  0  0  0  0  0  0  0  0  0
    1.2401    0.2559    3.1813 C   0  0  0  0  0  0  0  0  0  0  0  0
    2.0297   -0.5314    2.3380 C   0  0  0  0  0  0  0  0  0  0  0  0
    1.5446   -0.9120    1.0815 C   0  0  0  0  0  0  0  0  0  0  0  0
    2.3388   -1.7772    0.1724 C   0  0  0  0  0  0  0  0  0  0  0  0
    1.7695   -2.6013   -0.5327 O   0  0  0  0  0  0  0  0  0  0  0  0
    3.6998   -1.5611    0.1682 N   0  0  0  0  0  0  0  0  0  0  0  0
    4.5563   -2.2136   -0.7986 C   0  0  0  0  0  0  0  0  0  0  0  0
    4.7910   -1.3226   -1.9931 C   0  0  0  0  0  0  0  0  0  0  0  0
    3.8105   -1.2340   -3.0099 C   0  0  0  0  0  0  0  0  0  0  0  0
    3.9868   -0.3930   -4.1122 C   0  0  0  0  0  0  0  0  0  0  0  0
    5.1464    0.3472   -4.1718 C   0  0  0  0  0  0  0  0  0  0  0  0
    6.1052    0.2712   -3.1894 C   0  0  0  0  0  0  0  0  0  0  0  0
    5.9585   -0.5476   -2.0888 C   0  0  0  0  0  0  0  0  0  0  0  0
    7.1685    1.0837   -3.4373 O   0  0  0  0  0  0  0  0  0  0  0  0
    6.7687    1.6752   -4.6914 C   0  0  0  0  0  0  0  0  0  0  0  0
    5.4837    1.2172   -5.1598 O   0  0  0  0  0  0  0  0  0  0  0  0
    0.2677   -0.5128    0.6741 C   0  0  0  0  0  0  0  0  0  0  0  0
   -0.5164    0.2806    1.5219 C   0  0  0  0  0  0  0  0  0  0  0  0
   -2.1103    0.8275    0.9588 S   0  0  0  0  0  6  0  0  0  0  0  0
   -2.3027    0.3111   -0.3825 O   0  0  0  0  0  0  0  0  0  0  0  0
   -2.1887    2.2540    1.2046 O   0  0  0  0  0  0  0  0  0  0  0  0
   -3.1846    0.0109    1.9865 N   0  0  0  0  0  0  0  0  0  0  0  0
   -3.2467   -1.4551    1.8422 C   0  0  0  0  0  0  0  0  0  0  0  0
   -4.4948    0.6635    2.2058 C   0  0  0  0  0  0  0  0  0  0  0  0
   -5.5432    0.4274    1.1426 C   0  0  0  0  0  0  0  0  0  0  0  0
   -6.5426   -0.5423    1.3273 C   0  0  0  0  0  0  0  0  0  0  0  0
   -7.5100   -0.7619    0.3436 C   0  0  0  0  0  0  0  0  0  0  0  0
   -7.4879   -0.0184   -0.8360 C   0  0  0  0  0  0  0  0  0  0  0  0
   -6.5004    0.9459   -1.0322 C   0  0  0  0  0  0  0  0  0  0  0  0
   -5.5348    1.1696   -0.0483 C   0  0  0  0  0  0  0  0  0  0  0  0
    0.4761    2.4575    4.8510 H   0  0  0  0  0  0  0  0  0  0  0  0
    0.2331    3.1528    3.1990 H   0  0  0  0  0  0  0  0  0  0  0  0
   -1.0477    3.2573    4.4234 H   0  0  0  0  0  0  0  0  0  0  0  0
    1.6104    0.5069    4.1718 H   0  0  0  0  0  0  0  0  0  0  0  0
    2.9993   -0.8755    2.6887 H   0  0  0  0  0  0  0  0  0  0  0  0
    4.0620   -0.7244    0.6056 H   0  0  0  0  0  0  0  0  0  0  0  0
    4.1251   -3.1691   -1.1173 H   0  0  0  0  0  0  0  0  0  0  0  0
    5.5033   -2.4364   -0.2956 H   0  0  0  0  0  0  0  0  0  0  0  0
    2.8974   -1.8248   -2.9333 H   0  0  0  0  0  0  0  0  0  0  0  0
    3.2344   -0.3222   -4.8892 H   0  0  0  0  0  0  0  0  0  0  0  0
    6.7305   -0.5814   -1.3277 H   0  0  0  0  0  0  0  0  0  0  0  0
    6.7301    2.7646   -4.5686 H   0  0  0  0  0  0  0  0  0  0  0  0
    7.5241    1.4347   -5.4482 H   0  0  0  0  0  0  0  0  0  0  0  0
   -0.1058   -0.8212   -0.3018 H   0  0  0  0  0  0  0  0  0  0  0  0
   -3.9039   -1.8833    2.6068 H   0  0  0  0  0  0  0  0  0  0  0  0
   -2.2592   -1.8994    1.9935 H   0  0  0  0  0  0  0  0  0  0  0  0
   -3.6227   -1.7455    0.8562 H   0  0  0  0  0  0  0  0  0  0  0  0
   -4.3663    1.7431    2.3565 H   0  0  0  0  0  0  0  0  0  0  0  0
   -4.8787    0.3118    3.1743 H   0  0  0  0  0  0  0  0  0  0  0  0
   -6.5747   -1.1337    2.2410 H   0  0  0  0  0  0  0  0  0  0  0  0
   -8.2802   -1.5144    0.4964 H   0  0  0  0  0  0  0  0  0  0  0  0
   -8.2380   -0.1909   -1.6041 H   0  0  0  0  0  0  0  0  0  0  0  0
   -6.4762    1.5237   -1.9540 H   0  0  0  0  0  0  0  0  0  0  0  0
   -4.7705    1.9261   -0.2227 H   0  0  0  0  0  0  0  0  0  0  0  0
  1  2  1  0
  2  3  1  0
  3  4  2  0
  4  5  1  0
  5  6  2  0
  6  7  1  0
  7  8  2  0
  7  9  1  0
  9 10  1  0
 10 11  1  0
 11 12  2  0
 12 13  1  0
 13 14  2  0
 14 15  1  0
 15 16  2  0
 15 17  1  0
 17 18  1  0
 18 19  1  0
  6 20  1  0
 20 21  2  0
 21 22  1  0
 22 23  2  0
 22 24  2  0
 22 25  1  0
 25 26  1  0
 25 27  1  0
 27 28  1  0
 28 29  2  0
 29 30  1  0
 30 31  2  0
 31 32  1  0
 32 33  2  0
 21  3  1  0
 33 28  1  0
 16 11  1  0
 19 14  1  0
  1 34  1  0
  1 35  1  0
  1 36  1  0
  4 37  1  0
  5 38  1  0
  9 39  1  0
 10 40  1  0
 10 41  1  0
 12 42  1  0
 13 43  1  0
 16 44  1  0
 18 45  1  0
 18 46  1  0
 20 47  1  0
 26 48  1  0
 26 49  1  0
 26 50  1  0
 27 51  1  0
 27 52  1  0
 29 53  1  0
 30 54  1  0
 31 55  1  0
 32 56  1  0
 33 57  1  0
M  END
$$$$
