
     RDKit          3D

 26 27  0  0  0  0  0  0  0  0999 V2000
   -2.3109    2.5700    0.6392 O   0  0  0  0  0  0  0  0  0  0  0  0
   -1.7890    1.5116    0.2784 C   0  0  0  0  0  0  0  0  0  0  0  0
   -0.2676    1.3560    0.4028 C   0  0  0  0  0  0  0  0  0  0  0  0
    0.1675    0.0158    0.5777 O   0  0  0  0  0  0  0  0  0  0  0  0
    1.5178   -0.2211    0.5556 C   0  0  0  0  0  0  0  0  0  0  0  0
    2.4982    0.7701    0.6676 C   0  0  0  0  0  0  0  0  0  0  0  0
    3.8547    0.4282    0.6464 C   0  0  0  0  0  0  0  0  0  0  0  0
    4.2443   -0.9033    0.5173 C   0  0  0  0  0  0  0  0  0  0  0  0
    3.2771   -1.9005    0.4105 C   0  0  0  0  0  0  0  0  0  0  0  0
    1.9221   -1.5610    0.4316 C   0  0  0  0  0  0  0  0  0  0  0  0
    0.7606   -2.8345    0.2791 Cl  0  0  0  0  0  0  0  0  0  0  0  0
   -2.5664    0.4462   -0.3406 C   0  0  0  0  0  0  0  0  0  0  0  0
   -3.9031    0.4818   -0.7095 C   0  0  0  0  0  0  0  0  0  0  0  0
   -4.2425   -0.7682   -1.2775 C   0  0  0  0  0  0  0  0  0  0  0  0
   -3.1132   -1.5504   -1.2359 C   0  0  0  0  0  0  0  0  0  0  0  0
   -2.1097   -0.8139   -0.6646 N   0  0  0  0  0  0  0  0  0  0  0  0
    0.1638    1.7816   -0.5119 H   0  0  0  0  0  0  0  0  0  0  0  0
    0.0348    1.9498    1.2740 H   0  0  0  0  0  0  0  0  0  0  0  0
    2.2461    1.8195    0.7844 H   0  0  0  0  0  0  0  0  0  0  0  0
    4.6104    1.2061    0.7360 H   0  0  0  0  0  0  0  0  0  0  0  0
    5.2999   -1.1641    0.5029 H   0  0  0  0  0  0  0  0  0  0  0  0
    3.5835   -2.9386    0.3111 H   0  0  0  0  0  0  0  0  0  0  0  0
   -4.5600    1.3339   -0.5798 H   0  0  0  0  0  0  0  0  0  0  0  0
   -5.2076   -1.0658   -1.6669 H   0  0  0  0  0  0  0  0  0  0  0  0
   -2.9374   -2.5698   -1.5533 H   0  0  0  0  0  0  0  0  0  0  0  0
   -1.1734   -1.1564   -0.4745 H   0  0  0  0  0  0  0  0  0  0  0  0
  1  2  2  0
  2  3  1  0
  3  4  1  0
  4  5  1  0
  5  6  2  0
  6  7  1  0
  7  8  2  0
  8  9  1  0
  9 10  2  0
 10 11  1  0
  2 12  1  0
 12 13  2  0
 13 14  1  0
 14 15  2  0
 15 16  1  0
 10  5  1  0
 16 12  1  0
  3 17  1  0
  3 18  1  0
  6 19  1  0
  7 20  1  0
  8 21  1  0
  9 22  1  0
 13 23  1  0
 14 24  1  0
 15 25  1  0
 16 26  1  0
M  END
$$$$
