
     RDKit          3D

 57 59  0  0  0  0  0  0  0  0999 V2000
   -7.7453   -3.4693   -0.2026 C   0  0  0  0  0  0  0  0  0  0  0  0
   -7.5970   -2.1090   -0.5833 O   0  0  0  0  0  0  0  0  0  0  0  0
   -6.3590   -1.5346   -0.4325 C   0  0  0  0  0  0  0  0  0  0  0  0
   -5.2185   -2.2210    0.0033 C   0  0  0  0  0  0  0  0  0  0  0  0
   -3.9978   -1.5552    0.1199 C   0  0  0  0  0  0  0  0  0  0  0  0
   -3.9196   -0.2011   -0.2075 C   0  0  0  0  0  0  0  0  0  0  0  0
   -2.3551    0.6255   -0.0679 S   0  0  0  0  0  6  0  0  0  0  0  0
   -2.5208    1.9996   -0.4916 O   0  0  0  0  0  0  0  0  0  0  0  0
   -1.8084    0.2909    1.2272 O   0  0  0  0  0  0  0  0  0  0  0  0
   -1.4313   -0.1534   -1.2475 N   0  0  0  0  0  0  0  0  0  0  0  0
   -1.8474    0.0171   -2.6568 C   0  0  0  0  0  0  0  0  0  0  0  0
   -0.6697    0.7113   -3.3023 C   0  0  0  0  0  0  0  0  0  0  0  0
    0.4499    0.2130   -2.5689 O   0  0  0  0  0  0  0  0  0  0  0  0
    0.0090    0.1980   -1.1940 C   0  0  0  0  0  0  0  0  0  0  0  0
    0.8127   -0.8662   -0.4218 C   0  0  0  0  0  0  0  0  0  0  0  0
    2.2503   -0.6625   -0.4767 N   0  0  0  0  0  0  0  0  0  0  0  0
    2.8575    0.3853    0.1731 C   0  0  0  0  0  0  0  0  0  0  0  0
    2.3116    1.1642    0.9412 O   0  0  0  0  0  0  0  0  0  0  0  0
    4.3577    0.5464   -0.1634 C   0  0  0  0  0  0  0  0  0  0  0  0
    4.8901   -0.2007   -0.9721 O   0  0  0  0  0  0  0  0  0  0  0  0
    4.9639    1.5683    0.5270 N   0  0  0  0  0  0  0  0  0  0  0  0
    6.3844    1.7931    0.4841 C   0  0  0  0  0  0  0  0  0  0  0  0
    7.0710    1.1171    1.6432 C   0  0  0  0  0  0  0  0  0  0  0  0
    7.2926    1.8081    2.8453 C   0  0  0  0  0  0  0  0  0  0  0  0
    7.9085    1.1684    3.9224 C   0  0  0  0  0  0  0  0  0  0  0  0
    8.2953   -0.1610    3.8016 C   0  0  0  0  0  0  0  0  0  0  0  0
    8.8854   -0.7726    4.8370 F   0  0  0  0  0  0  0  0  0  0  0  0
    8.0754   -0.8660    2.6248 C   0  0  0  0  0  0  0  0  0  0  0  0
    7.4602   -0.2291    1.5465 C   0  0  0  0  0  0  0  0  0  0  0  0
   -5.0484    0.5038   -0.6336 C   0  0  0  0  0  0  0  0  0  0  0  0
   -6.2732   -0.1602   -0.7484 C   0  0  0  0  0  0  0  0  0  0  0  0
   -7.4367    0.4350   -1.1698 O   0  0  0  0  0  0  0  0  0  0  0  0
   -7.4361    1.8470   -1.3293 C   0  0  0  0  0  0  0  0  0  0  0  0
   -7.1331   -4.1234   -0.8319 H   0  0  0  0  0  0  0  0  0  0  0  0
   -7.5156   -3.6112    0.8586 H   0  0  0  0  0  0  0  0  0  0  0  0
   -8.7926   -3.7472   -0.3555 H   0  0  0  0  0  0  0  0  0  0  0  0
   -5.2484   -3.2748    0.2602 H   0  0  0  0  0  0  0  0  0  0  0  0
   -3.1165   -2.0928    0.4638 H   0  0  0  0  0  0  0  0  0  0  0  0
   -2.7740    0.5783   -2.7965 H   0  0  0  0  0  0  0  0  0  0  0  0
   -1.9881   -0.9835   -3.0807 H   0  0  0  0  0  0  0  0  0  0  0  0
   -0.5651    0.4736   -4.3640 H   0  0  0  0  0  0  0  0  0  0  0  0
   -0.7182    1.7992   -3.1794 H   0  0  0  0  0  0  0  0  0  0  0  0
    0.1763    1.2027   -0.7883 H   0  0  0  0  0  0  0  0  0  0  0  0
    0.6309   -1.8599   -0.8466 H   0  0  0  0  0  0  0  0  0  0  0  0
    0.5108   -0.8860    0.6303 H   0  0  0  0  0  0  0  0  0  0  0  0
    2.7906   -1.1035   -1.2170 H   0  0  0  0  0  0  0  0  0  0  0  0
    4.4017    2.0250    1.2396 H   0  0  0  0  0  0  0  0  0  0  0  0
    6.5489    2.8756    0.5218 H   0  0  0  0  0  0  0  0  0  0  0  0
    6.7987    1.4339   -0.4650 H   0  0  0  0  0  0  0  0  0  0  0  0
    6.9862    2.8466    2.9494 H   0  0  0  0  0  0  0  0  0  0  0  0
    8.0860    1.6959    4.8541 H   0  0  0  0  0  0  0  0  0  0  0  0
    8.3794   -1.9054    2.5550 H   0  0  0  0  0  0  0  0  0  0  0  0
    7.2789   -0.7867    0.6286 H   0  0  0  0  0  0  0  0  0  0  0  0
   -4.9523    1.5578   -0.8726 H   0  0  0  0  0  0  0  0  0  0  0  0
   -8.4551    2.1553   -1.5822 H   0  0  0  0  0  0  0  0  0  0  0  0
   -6.7836    2.1476   -2.1554 H   0  0  0  0  0  0  0  0  0  0  0  0
   -7.1568    2.3525   -0.3990 H   0  0  0  0  0  0  0  0  0  0  0  0
  1  2  1  0
  2  3  1  0
  3  4  2  0
  4  5  1  0
  5  6  2  0
  6  7  1  0
  7  8  2  0
  7  9  2  0
  7 10  1  0
 10 11  1  0
 11 12  1  0
 12 13  1  0
 13 14  1  0
 14 15  1  0
 15 16  1  0
 16 17  1  0
 17 18  2  0
 17 19  1  0
 19 20  2  0
 19 21  1  0
 21 22  1  0
 22 23  1  0
 23 24  2  0
 24 25  1  0
 25 26  2  0
 26 27  1  0
 26 28  1  0
 28 29  2  0
  6 30  1  0
 30 31  2  0
 31 32  1  0
 32 33  1  0
 31  3  1  0
 14 10  1  0
 29 23  1  0
  1 34  1  0
  1 35  1  0
  1 36  1  0
  4 37  1  0
  5 38  1  0
 11 39  1  0
 11 40  1  0
 12 41  1  0
 12 42  1  0
 14 43  1  0
 15 44  1  0
 15 45  1  0
 16 46  1  0
 21 47  1  0
 22 48  1  0
 22 49  1  0
 24 50  1  0
 25 51  1  0
 28 52  1  0
 29 53  1  0
 30 54  1  0
 33 55  1  0
 33 56  1  0
 33 57  1  0
M  END
$$$$
