
     RDKit          3D

 39 40  0  0  0  0  0  0  0  0999 V2000
   -1.2027   -2.7999    1.7753 C   0  0  0  0  0  0  0  0  0  0  0  0
   -1.3669   -1.8782    0.5720 C   0  0  0  0  0  0  0  0  0  0  0  0
   -2.0408   -0.6900    1.0224 O   0  0  0  0  0  0  0  0  0  0  0  0
   -2.9283   -0.2312    0.0824 C   0  0  0  0  0  0  0  0  0  0  0  0
   -2.4579    0.5831   -0.9516 C   0  0  0  0  0  0  0  0  0  0  0  0
   -3.3516    1.0921   -1.8965 C   0  0  0  0  0  0  0  0  0  0  0  0
   -4.7176    0.7914   -1.7903 C   0  0  0  0  0  0  0  0  0  0  0  0
   -5.6581    1.3266   -2.7831 N   0  0  0  0  0  4  0  0  0  0  0  0
   -5.2078    2.0886   -3.6494 O   0  0  0  0  0  0  0  0  0  0  0  0
   -6.8448    0.9825   -2.6939 O   0  0  0  0  0  1  0  0  0  0  0  0
   -5.1970   -0.0070   -0.7434 C   0  0  0  0  0  0  0  0  0  0  0  0
   -4.2968   -0.5104    0.1966 C   0  0  0  0  0  0  0  0  0  0  0  0
   -4.9064   -1.4811    1.4854 Cl  0  0  0  0  0  0  0  0  0  0  0  0
    0.0212   -1.5277    0.0098 C   0  0  0  0  0  0  0  0  0  0  0  0
    0.4699   -2.1147   -0.9704 O   0  0  0  0  0  0  0  0  0  0  0  0
    0.6576   -0.5375    0.7418 N   0  0  0  0  0  0  0  0  0  0  0  0
    1.9337    0.0141    0.5268 C   0  0  0  0  0  0  0  0  0  0  0  0
    2.3339    1.0479    1.3820 C   0  0  0  0  0  0  0  0  0  0  0  0
    3.5878    1.6500    1.2343 C   0  0  0  0  0  0  0  0  0  0  0  0
    4.4640    1.2197    0.2328 C   0  0  0  0  0  0  0  0  0  0  0  0
    5.7858    1.8915    0.1151 C   0  0  0  0  0  0  0  0  0  0  0  0
    6.7832    1.2200   -0.5358 N   0  0  0  0  0  0  0  0  0  0  0  0
    5.9918    2.9921    0.6110 O   0  0  0  0  0  0  0  0  0  0  0  0
    4.0634    0.1957   -0.6311 C   0  0  0  0  0  0  0  0  0  0  0  0
    2.8061   -0.4052   -0.4796 C   0  0  0  0  0  0  0  0  0  0  0  0
   -0.6736   -2.2976    2.5932 H   0  0  0  0  0  0  0  0  0  0  0  0
   -2.1810   -3.0957    2.1679 H   0  0  0  0  0  0  0  0  0  0  0  0
   -0.6443   -3.7032    1.5099 H   0  0  0  0  0  0  0  0  0  0  0  0
   -1.9382   -2.4013   -0.2076 H   0  0  0  0  0  0  0  0  0  0  0  0
   -1.4018    0.8315   -1.0275 H   0  0  0  0  0  0  0  0  0  0  0  0
   -2.9710    1.7200   -2.7011 H   0  0  0  0  0  0  0  0  0  0  0  0
   -6.2568   -0.2349   -0.6505 H   0  0  0  0  0  0  0  0  0  0  0  0
    0.1052   -0.1307    1.4912 H   0  0  0  0  0  0  0  0  0  0  0  0
    1.6795    1.4047    2.1736 H   0  0  0  0  0  0  0  0  0  0  0  0
    3.8798    2.4559    1.9055 H   0  0  0  0  0  0  0  0  0  0  0  0
    6.7417    0.2268   -0.7123 H   0  0  0  0  0  0  0  0  0  0  0  0
    7.7010    1.6452   -0.4929 H   0  0  0  0  0  0  0  0  0  0  0  0
    4.6998   -0.1364   -1.4462 H   0  0  0  0  0  0  0  0  0  0  0  0
    2.5381   -1.1965   -1.1734 H   0  0  0  0  0  0  0  0  0  0  0  0
  1  2  1  0
  2  3  1  0
  3  4  1  0
  4  5  2  0
  5  6  1  0
  6  7  2  0
  7  8  1  0
  8  9  2  0
  8 10  1  0
  7 11  1  0
 11 12  2  0
 12 13  1  0
  2 14  1  0
 14 15  2  0
 14 16  1  0
 16 17  1  0
 17 18  2  0
 18 19  1  0
 19 20  2  0
 20 21  1  0
 21 22  1  0
 21 23  2  0
 20 24  1  0
 24 25  2  0
 12  4  1  0
 25 17  1  0
  1 26  1  0
  1 27  1  0
  1 28  1  0
  2 29  1  0
  5 30  1  0
  6 31  1  0
 11 32  1  0
 16 33  1  0
 18 34  1  0
 19 35  1  0
 22 36  1  0
 22 37  1  0
 24 38  1  0
 25 39  1  0
M  CHG  2   8   1  10  -1
M  END
$$$$
