
     RDKit          3D

 27 27  0  0  0  0  0  0  0  0999 V2000
   -2.1606    0.4350    0.6096 C   0  0  0  0  0  0  0  0  0  0  0  0
   -1.3860    0.0333   -0.6541 C   0  0  0  0  0  0  0  0  0  0  0  0
   -2.3692   -0.5920   -1.6604 C   0  0  0  0  0  0  0  0  0  0  0  0
   -0.7600    1.2788   -1.2858 C   0  0  0  0  0  0  0  0  0  0  0  0
   -0.1276   -1.2234   -0.2637 S   0  0  0  0  0  6  0  0  0  0  0  0
    0.7068   -1.4972   -1.4141 O   0  0  0  0  0  0  0  0  0  0  0  0
   -0.7593   -2.3097    0.4622 O   0  0  0  0  0  0  0  0  0  0  0  0
    0.9532   -0.5355    0.9166 C   0  0  0  0  0  0  0  0  0  0  0  0
    0.6990   -0.6216    2.3254 C   0  0  0  0  0  0  0  0  0  0  0  0
    1.7125   -0.0685    3.0728 C   0  0  0  0  0  0  0  0  0  0  0  0
    2.9723    0.5317    2.0908 S   0  0  0  0  0  0  0  0  0  0  0  0
    2.1724    0.0599    0.6436 C   0  0  0  0  0  0  0  0  0  0  0  0
    2.7900    0.3546   -0.6243 C   0  0  0  0  0  0  0  0  0  0  0  0
    2.2823    0.9037   -1.5898 O   0  0  0  0  0  0  0  0  0  0  0  0
    4.0835   -0.0328   -0.6629 O   0  0  0  0  0  0  0  0  0  0  0  0
   -2.9806    1.1205    0.3663 H   0  0  0  0  0  0  0  0  0  0  0  0
   -2.5963   -0.4365    1.1099 H   0  0  0  0  0  0  0  0  0  0  0  0
   -1.5172    0.9462    1.3323 H   0  0  0  0  0  0  0  0  0  0  0  0
   -1.8558   -0.8985   -2.5787 H   0  0  0  0  0  0  0  0  0  0  0  0
   -2.8526   -1.4827   -1.2436 H   0  0  0  0  0  0  0  0  0  0  0  0
   -3.1578    0.1161   -1.9387 H   0  0  0  0  0  0  0  0  0  0  0  0
   -0.2210    1.0306   -2.2056 H   0  0  0  0  0  0  0  0  0  0  0  0
   -1.5287    2.0150   -1.5481 H   0  0  0  0  0  0  0  0  0  0  0  0
   -0.0623    1.7710   -0.6015 H   0  0  0  0  0  0  0  0  0  0  0  0
   -0.1768   -1.0855    2.7668 H   0  0  0  0  0  0  0  0  0  0  0  0
    1.7817   -0.0020    4.1506 H   0  0  0  0  0  0  0  0  0  0  0  0
    4.3584    0.1896   -1.5756 H   0  0  0  0  0  0  0  0  0  0  0  0
  1  2  1  0
  2  3  1  0
  2  4  1  0
  2  5  1  0
  5  6  2  0
  5  7  2  0
  5  8  1  0
  8  9  1  0
  9 10  2  0
 10 11  1  0
 11 12  1  0
 12 13  1  0
 13 14  2  0
 13 15  1  0
 12  8  2  0
  1 16  1  0
  1 17  1  0
  1 18  1  0
  3 19  1  0
  3 20  1  0
  3 21  1  0
  4 22  1  0
  4 23  1  0
  4 24  1  0
  9 25  1  0
 10 26  1  0
 15 27  1  0
M  END
$$$$
