
     RDKit          3D

 36 37  0  0  0  0  0  0  0  0999 V2000
   -5.3546   -1.6099    0.0781 C   0  0  0  0  0  0  0  0  0  0  0  0
   -4.2127   -1.6235   -0.9204 C   0  0  0  0  0  0  0  0  0  0  0  0
   -3.3896   -0.4611   -0.7447 O   0  0  0  0  0  0  0  0  0  0  0  0
   -2.3927   -0.5790    0.1657 C   0  0  0  0  0  0  0  0  0  0  0  0
   -2.1644   -1.5525    0.8697 O   0  0  0  0  0  0  0  0  0  0  0  0
   -1.5747    0.6589    0.2152 C   0  0  0  0  0  0  0  0  0  0  0  0
   -2.1023    1.8869   -0.2145 C   0  0  0  0  0  0  0  0  0  0  0  0
   -1.3387    3.0522   -0.1212 C   0  0  0  0  0  0  0  0  0  0  0  0
   -0.0499    3.0019    0.4061 C   0  0  0  0  0  0  0  0  0  0  0  0
    0.4832    1.7860    0.8360 C   0  0  0  0  0  0  0  0  0  0  0  0
   -0.2720    0.6129    0.7455 C   0  0  0  0  0  0  0  0  0  0  0  0
    0.3573   -0.6238    1.1217 N   0  0  0  0  0  0  0  0  0  0  0  0
    1.2100   -1.4344   -0.1124 S   0  0  0  0  0  6  0  0  0  0  0  0
    0.5895   -1.1580   -1.3888 O   0  0  0  0  0  0  0  0  0  0  0  0
    1.3654   -2.8004    0.3471 O   0  0  0  0  0  0  0  0  0  0  0  0
    2.8082   -0.6940   -0.0320 C   0  0  0  0  0  0  0  0  0  0  0  0
    3.7352   -1.1640    0.9077 C   0  0  0  0  0  0  0  0  0  0  0  0
    5.0150   -0.6083    0.9571 C   0  0  0  0  0  0  0  0  0  0  0  0
    5.3703    0.4056    0.0669 C   0  0  0  0  0  0  0  0  0  0  0  0
    4.4461    0.8626   -0.8735 C   0  0  0  0  0  0  0  0  0  0  0  0
    3.1686    0.3076   -0.9234 C   0  0  0  0  0  0  0  0  0  0  0  0
    2.3093    0.7930   -1.8275 F   0  0  0  0  0  0  0  0  0  0  0  0
   -5.9332   -0.6847   -0.0122 H   0  0  0  0  0  0  0  0  0  0  0  0
   -6.0219   -2.4610   -0.0841 H   0  0  0  0  0  0  0  0  0  0  0  0
   -4.9787   -1.6512    1.1053 H   0  0  0  0  0  0  0  0  0  0  0  0
   -4.6129   -1.5812   -1.9387 H   0  0  0  0  0  0  0  0  0  0  0  0
   -3.6235   -2.5447   -0.8438 H   0  0  0  0  0  0  0  0  0  0  0  0
   -3.1095    1.9491   -0.6203 H   0  0  0  0  0  0  0  0  0  0  0  0
   -1.7512    4.0003   -0.4594 H   0  0  0  0  0  0  0  0  0  0  0  0
    0.5437    3.9103    0.4783 H   0  0  0  0  0  0  0  0  0  0  0  0
    1.4883    1.7637    1.2486 H   0  0  0  0  0  0  0  0  0  0  0  0
   -0.2949   -1.3128    1.5261 H   0  0  0  0  0  0  0  0  0  0  0  0
    3.4680   -1.9619    1.5985 H   0  0  0  0  0  0  0  0  0  0  0  0
    5.7371   -0.9710    1.6856 H   0  0  0  0  0  0  0  0  0  0  0  0
    6.3684    0.8363    0.1025 H   0  0  0  0  0  0  0  0  0  0  0  0
    4.7135    1.6497   -1.5727 H   0  0  0  0  0  0  0  0  0  0  0  0
  1  2  1  0
  2  3  1  0
  3  4  1  0
  4  5  2  0
  4  6  1  0
  6  7  2  0
  7  8  1  0
  8  9  2  0
  9 10  1  0
 10 11  2  0
 11 12  1  0
 12 13  1  0
 13 14  2  0
 13 15  2  0
 13 16  1  0
 16 17  2  0
 17 18  1  0
 18 19  2  0
 19 20  1  0
 20 21  2  0
 21 22  1  0
 11  6  1  0
 21 16  1  0
  1 23  1  0
  1 24  1  0
  1 25  1  0
  2 26  1  0
  2 27  1  0
  7 28  1  0
  8 29  1  0
  9 30  1  0
 10 31  1  0
 12 32  1  0
 17 33  1  0
 18 34  1  0
 19 35  1  0
 20 36  1  0
M  END
$$$$
