
     RDKit          3D

 38 39  0  0  0  0  0  0  0  0999 V2000
   -4.3084    2.7999    2.5974 C   0  0  0  0  0  0  0  0  0  0  0  0
   -3.3561    2.3434    1.7731 C   0  0  0  0  0  0  0  0  0  0  0  0
   -3.5721    1.2815    0.7321 C   0  0  0  0  0  0  0  0  0  0  0  0
   -2.6827    0.0799    0.9487 C   0  0  0  0  0  0  0  0  0  0  0  0
   -3.0372   -0.9071    1.8740 C   0  0  0  0  0  0  0  0  0  0  0  0
   -2.2134   -2.0130    2.0729 C   0  0  0  0  0  0  0  0  0  0  0  0
   -1.0216   -2.1294    1.3537 C   0  0  0  0  0  0  0  0  0  0  0  0
   -0.2465   -3.2462    1.5367 O   0  0  0  0  0  0  0  0  0  0  0  0
   -0.6129   -1.1525    0.4297 C   0  0  0  0  0  0  0  0  0  0  0  0
    0.6665   -1.2150   -0.3212 C   0  0  0  0  0  0  0  0  0  0  0  0
    1.5365   -0.1032   -0.2937 C   0  0  0  0  0  0  0  0  0  0  0  0
    2.7346   -0.0705   -1.0298 C   0  0  0  0  0  0  0  0  0  0  0  0
    3.6304    1.1445   -0.9869 C   0  0  0  0  0  0  0  0  0  0  0  0
    3.3775    2.0800   -2.1353 C   0  0  0  0  0  0  0  0  0  0  0  0
    4.3029    2.4423   -3.0336 C   0  0  0  0  0  0  0  0  0  0  0  0
    3.0678   -1.1684   -1.8289 C   0  0  0  0  0  0  0  0  0  0  0  0
    2.2362   -2.2847   -1.8657 C   0  0  0  0  0  0  0  0  0  0  0  0
    1.0641   -2.3100   -1.1095 C   0  0  0  0  0  0  0  0  0  0  0  0
    0.3364   -3.4678   -1.1893 O   0  0  0  0  0  0  0  0  0  0  0  0
   -1.4744   -0.0514    0.2427 C   0  0  0  0  0  0  0  0  0  0  0  0
   -5.3239    2.4177    2.5659 H   0  0  0  0  0  0  0  0  0  0  0  0
   -4.0857    3.5724    3.3272 H   0  0  0  0  0  0  0  0  0  0  0  0
   -2.3543    2.7626    1.8431 H   0  0  0  0  0  0  0  0  0  0  0  0
   -3.3772    1.7133   -0.2575 H   0  0  0  0  0  0  0  0  0  0  0  0
   -4.6189    0.9519    0.7111 H   0  0  0  0  0  0  0  0  0  0  0  0
   -3.9626   -0.8192    2.4394 H   0  0  0  0  0  0  0  0  0  0  0  0
   -2.5205   -2.7770    2.7807 H   0  0  0  0  0  0  0  0  0  0  0  0
   -0.5129   -3.6720    2.3702 H   0  0  0  0  0  0  0  0  0  0  0  0
    1.2757    0.7596    0.3183 H   0  0  0  0  0  0  0  0  0  0  0  0
    3.4700    1.6882   -0.0475 H   0  0  0  0  0  0  0  0  0  0  0  0
    4.6776    0.8164   -0.9644 H   0  0  0  0  0  0  0  0  0  0  0  0
    2.3705    2.4822   -2.2260 H   0  0  0  0  0  0  0  0  0  0  0  0
    5.3211    2.0687   -2.9882 H   0  0  0  0  0  0  0  0  0  0  0  0
    4.0537    3.1226   -3.8424 H   0  0  0  0  0  0  0  0  0  0  0  0
    3.9777   -1.1610   -2.4242 H   0  0  0  0  0  0  0  0  0  0  0  0
    2.5016   -3.1425   -2.4772 H   0  0  0  0  0  0  0  0  0  0  0  0
   -0.1186   -3.5554   -0.3292 H   0  0  0  0  0  0  0  0  0  0  0  0
   -1.2012    0.7190   -0.4782 H   0  0  0  0  0  0  0  0  0  0  0  0
  1  2  2  0
  2  3  1  0
  3  4  1  0
  4  5  2  0
  5  6  1  0
  6  7  2  0
  7  8  1  0
  7  9  1  0
  9 10  1  0
 10 11  2  0
 11 12  1  0
 12 13  1  0
 13 14  1  0
 14 15  2  0
 12 16  2  0
 16 17  1  0
 17 18  2  0
 18 19  1  0
  9 20  2  0
 20  4  1  0
 18 10  1  0
  1 21  1  0
  1 22  1  0
  2 23  1  0
  3 24  1  0
  3 25  1  0
  5 26  1  0
  6 27  1  0
  8 28  1  0
 11 29  1  0
 13 30  1  0
 13 31  1  0
 14 32  1  0
 15 33  1  0
 15 34  1  0
 16 35  1  0
 17 36  1  0
 19 37  1  0
 20 38  1  0
M  END
$$$$
