
     RDKit          3D

 68 70  0  0  0  0  0  0  0  0999 V2000
   -3.4885    4.7987    4.0914 C   0  0  0  0  0  0  0  0  0  0  0  0
   -2.4011    3.8908    4.2131 O   0  0  0  0  0  0  0  0  0  0  0  0
   -2.4357    2.7786    3.4189 C   0  0  0  0  0  0  0  0  0  0  0  0
   -3.4858    2.3945    2.5889 C   0  0  0  0  0  0  0  0  0  0  0  0
   -3.3894    1.2260    1.8220 C   0  0  0  0  0  0  0  0  0  0  0  0
   -2.2325    0.4279    1.8484 C   0  0  0  0  0  0  0  0  0  0  0  0
   -2.1436   -0.8726    1.0422 C   0  0  0  0  0  0  0  0  0  0  0  0
   -3.0434   -0.9655   -0.2234 C   0  0  0  0  0  0  0  0  0  0  0  0
   -3.7576   -1.9483   -0.4247 O   0  0  0  0  0  0  0  0  0  0  0  0
   -2.9382    0.0835   -1.1159 N   0  0  0  0  0  0  0  0  0  0  0  0
   -3.5563    0.1356   -2.4462 C   0  0  0  0  0  0  0  0  0  0  0  0
   -3.2130    1.5007   -3.0697 C   0  0  0  0  0  0  0  0  0  0  0  0
   -2.9910   -0.9722   -3.3481 C   0  0  0  0  0  0  0  0  0  0  0  0
   -5.0858    0.0205   -2.3571 C   0  0  0  0  0  0  0  0  0  0  0  0
   -0.7592   -1.2941    0.6738 N   0  0  0  0  0  0  0  0  0  0  0  0
    0.0313   -0.4309   -0.0888 C   0  0  0  0  0  0  0  0  0  0  0  0
   -0.4153    0.6164   -0.5688 O   0  0  0  0  0  0  0  0  0  0  0  0
    1.5015   -0.7755   -0.2765 C   0  0  0  0  0  0  0  0  0  0  0  0
    2.3223    0.4863   -0.5362 C   0  0  0  0  0  0  0  0  0  0  0  0
    3.7819    0.1703   -0.7917 C   0  0  0  0  0  0  0  0  0  0  0  0
    4.2024   -0.9801   -0.8605 O   0  0  0  0  0  0  0  0  0  0  0  0
    4.5288    1.3159   -0.9465 N   0  0  0  0  0  0  0  0  0  0  0  0
    5.8747    1.3576   -1.2327 C   0  0  0  0  0  0  0  0  0  0  0  0
    6.7860    0.2989   -1.4373 C   0  0  0  0  0  0  0  0  0  0  0  0
    7.9791    0.9190   -1.7121 C   0  0  0  0  0  0  0  0  0  0  0  0
    9.3365    0.4435   -2.0321 C   0  0  0  0  0  0  0  0  0  0  0  0
    7.8014    2.2650   -1.6623 O   0  0  0  0  0  0  0  0  0  0  0  0
    6.4813    2.5427   -1.3626 N   0  0  0  0  0  0  0  0  0  0  0  0
   -0.4115   -2.6493    0.9647 C   0  0  0  0  0  0  0  0  0  0  0  0
    0.0912   -3.4993   -0.0309 C   0  0  0  0  0  0  0  0  0  0  0  0
    0.4188   -4.8283    0.2613 C   0  0  0  0  0  0  0  0  0  0  0  0
    0.2353   -5.3238    1.5487 C   0  0  0  0  0  0  0  0  0  0  0  0
   -0.2771   -4.4876    2.5314 C   0  0  0  0  0  0  0  0  0  0  0  0
   -0.4511   -4.9582    3.7739 F   0  0  0  0  0  0  0  0  0  0  0  0
   -0.6073   -3.1644    2.2514 C   0  0  0  0  0  0  0  0  0  0  0  0
   -1.2008    0.8071    2.7238 C   0  0  0  0  0  0  0  0  0  0  0  0
   -1.2997    1.9731    3.4893 C   0  0  0  0  0  0  0  0  0  0  0  0
   -3.2827    5.6556    4.7408 H   0  0  0  0  0  0  0  0  0  0  0  0
   -3.5805    5.1725    3.0660 H   0  0  0  0  0  0  0  0  0  0  0  0
   -4.4233    4.3407    4.4309 H   0  0  0  0  0  0  0  0  0  0  0  0
   -4.4007    2.9739    2.5172 H   0  0  0  0  0  0  0  0  0  0  0  0
   -4.2425    0.9538    1.2018 H   0  0  0  0  0  0  0  0  0  0  0  0
   -2.5735   -1.6216    1.7219 H   0  0  0  0  0  0  0  0  0  0  0  0
   -2.1081    0.6677   -0.9782 H   0  0  0  0  0  0  0  0  0  0  0  0
   -3.6542    1.6093   -4.0669 H   0  0  0  0  0  0  0  0  0  0  0  0
   -3.5828    2.3228   -2.4461 H   0  0  0  0  0  0  0  0  0  0  0  0
   -2.1288    1.6291   -3.1666 H   0  0  0  0  0  0  0  0  0  0  0  0
   -3.3945   -0.9005   -4.3642 H   0  0  0  0  0  0  0  0  0  0  0  0
   -3.2327   -1.9711   -2.9690 H   0  0  0  0  0  0  0  0  0  0  0  0
   -1.8983   -0.9042   -3.4133 H   0  0  0  0  0  0  0  0  0  0  0  0
   -5.4061   -0.9648   -2.0045 H   0  0  0  0  0  0  0  0  0  0  0  0
   -5.4952    0.7646   -1.6636 H   0  0  0  0  0  0  0  0  0  0  0  0
   -5.5523    0.1794   -3.3364 H   0  0  0  0  0  0  0  0  0  0  0  0
    1.5942   -1.4438   -1.1377 H   0  0  0  0  0  0  0  0  0  0  0  0
    1.8913   -1.2811    0.6131 H   0  0  0  0  0  0  0  0  0  0  0  0
    2.2500    1.1595    0.3264 H   0  0  0  0  0  0  0  0  0  0  0  0
    1.9387    1.0189   -1.4150 H   0  0  0  0  0  0  0  0  0  0  0  0
    4.1004    2.2278   -0.8670 H   0  0  0  0  0  0  0  0  0  0  0  0
    6.6012   -0.7650   -1.4081 H   0  0  0  0  0  0  0  0  0  0  0  0
    9.7817    1.0455   -2.8306 H   0  0  0  0  0  0  0  0  0  0  0  0
    9.9812    0.5078   -1.1499 H   0  0  0  0  0  0  0  0  0  0  0  0
    9.3163   -0.5988   -2.3670 H   0  0  0  0  0  0  0  0  0  0  0  0
    0.1928   -3.1603   -1.0587 H   0  0  0  0  0  0  0  0  0  0  0  0
    0.8022   -5.4779   -0.5220 H   0  0  0  0  0  0  0  0  0  0  0  0
    0.4825   -6.3529    1.7913 H   0  0  0  0  0  0  0  0  0  0  0  0
   -0.9814   -2.5482    3.0641 H   0  0  0  0  0  0  0  0  0  0  0  0
   -0.3020    0.2029    2.8240 H   0  0  0  0  0  0  0  0  0  0  0  0
   -0.4817    2.2553    4.1484 H   0  0  0  0  0  0  0  0  0  0  0  0
  1  2  1  0
  2  3  1  0
  3  4  2  0
  4  5  1  0
  5  6  2  0
  6  7  1  0
  7  8  1  0
  8  9  2  0
  8 10  1  0
 10 11  1  0
 11 12  1  0
 11 13  1  0
 11 14  1  0
  7 15  1  0
 15 16  1  0
 16 17  2  0
 16 18  1  0
 18 19  1  0
 19 20  1  0
 20 21  2  0
 20 22  1  0
 22 23  1  0
 23 24  1  0
 24 25  2  0
 25 26  1  0
 25 27  1  0
 27 28  1  0
 15 29  1  0
 29 30  2  0
 30 31  1  0
 31 32  2  0
 32 33  1  0
 33 34  1  0
 33 35  2  0
  6 36  1  0
 36 37  2  0
 37  3  1  0
 28 23  2  0
 35 29  1  0
  1 38  1  0
  1 39  1  0
  1 40  1  0
  4 41  1  0
  5 42  1  0
  7 43  1  0
 10 44  1  0
 12 45  1  0
 12 46  1  0
 12 47  1  0
 13 48  1  0
 13 49  1  0
 13 50  1  0
 14 51  1  0
 14 52  1  0
 14 53  1  0
 18 54  1  0
 18 55  1  0
 19 56  1  0
 19 57  1  0
 22 58  1  0
 24 59  1  0
 26 60  1  0
 26 61  1  0
 26 62  1  0
 30 63  1  0
 31 64  1  0
 32 65  1  0
 35 66  1  0
 36 67  1  0
 37 68  1  0
M  END
$$$$
