
     RDKit          3D

 47 50  0  0  0  0  0  0  0  0999 V2000
   -7.7289   -3.1278    1.7770 C   0  0  0  0  0  0  0  0  0  0  0  0
   -7.0808   -2.1477    0.9646 O   0  0  0  0  0  0  0  0  0  0  0  0
   -5.8951   -1.7177    1.4641 C   0  0  0  0  0  0  0  0  0  0  0  0
   -5.3802   -2.0958    2.5039 O   0  0  0  0  0  0  0  0  0  0  0  0
   -5.2828   -0.7009    0.5642 C   0  0  0  0  0  0  0  0  0  0  0  0
   -5.8932   -0.2914   -0.6261 C   0  0  0  0  0  0  0  0  0  0  0  0
   -5.2825    0.6721   -1.4287 C   0  0  0  0  0  0  0  0  0  0  0  0
   -4.0538    1.2281   -1.0591 C   0  0  0  0  0  0  0  0  0  0  0  0
   -3.4163    0.8160    0.1169 C   0  0  0  0  0  0  0  0  0  0  0  0
   -2.1666    1.3532    0.5362 N   0  0  0  0  0  0  0  0  0  0  0  0
   -1.7630    1.2111    1.8275 N   0  0  0  0  0  0  0  0  0  0  0  0
   -0.6352    1.8927    1.9498 N   0  0  0  0  0  0  0  0  0  0  0  0
   -0.2567    2.4352    0.7564 N   0  0  0  0  0  0  0  0  0  0  0  0
   -1.1738    2.0768   -0.1137 C   0  0  0  0  0  0  0  0  0  0  0  0
   -0.9993    2.3774   -1.8122 S   0  0  0  0  0  0  0  0  0  0  0  0
   -0.5602    0.7259   -2.4218 C   0  0  0  0  0  0  0  0  0  0  0  0
    0.5727    0.0974   -1.6292 C   0  0  0  0  0  0  0  0  0  0  0  0
    0.3531   -0.9122   -0.9664 O   0  0  0  0  0  0  0  0  0  0  0  0
    1.7691    0.7573   -1.7843 N   0  0  0  0  0  0  0  0  0  0  0  0
    2.9696    0.4475   -1.2012 C   0  0  0  0  0  0  0  0  0  0  0  0
    4.0275    1.2005   -1.4089 N   0  0  0  0  0  0  0  0  0  0  0  0
    5.0960    0.6797   -0.7097 C   0  0  0  0  0  0  0  0  0  0  0  0
    4.8248   -0.4634    0.0127 C   0  0  0  0  0  0  0  0  0  0  0  0
    3.1989   -0.9116   -0.1950 S   0  0  0  0  0  0  0  0  0  0  0  0
    5.8100   -1.2219    0.8328 C   0  0  0  0  0  0  0  0  0  0  0  0
    7.0609   -0.3589    1.0854 C   0  0  0  0  0  0  0  0  0  0  0  0
    7.5203    0.3852   -0.1818 C   0  0  0  0  0  0  0  0  0  0  0  0
    6.4346    1.3358   -0.7183 C   0  0  0  0  0  0  0  0  0  0  0  0
   -4.0496   -0.1408    0.9338 C   0  0  0  0  0  0  0  0  0  0  0  0
   -7.9662   -2.7132    2.7618 H   0  0  0  0  0  0  0  0  0  0  0  0
   -8.6643   -3.4096    1.2855 H   0  0  0  0  0  0  0  0  0  0  0  0
   -7.1046   -4.0219    1.8716 H   0  0  0  0  0  0  0  0  0  0  0  0
   -6.8497   -0.7057   -0.9365 H   0  0  0  0  0  0  0  0  0  0  0  0
   -5.7745    1.0024   -2.3418 H   0  0  0  0  0  0  0  0  0  0  0  0
   -3.6610    2.0121   -1.6972 H   0  0  0  0  0  0  0  0  0  0  0  0
   -0.2641    0.7968   -3.4735 H   0  0  0  0  0  0  0  0  0  0  0  0
   -1.4364    0.0715   -2.3726 H   0  0  0  0  0  0  0  0  0  0  0  0
    1.8039    1.6245   -2.3029 H   0  0  0  0  0  0  0  0  0  0  0  0
    5.3768   -1.5276    1.7917 H   0  0  0  0  0  0  0  0  0  0  0  0
    6.1001   -2.1317    0.2931 H   0  0  0  0  0  0  0  0  0  0  0  0
    7.8716   -0.9935    1.4609 H   0  0  0  0  0  0  0  0  0  0  0  0
    6.8427    0.3778    1.8694 H   0  0  0  0  0  0  0  0  0  0  0  0
    7.7742   -0.3524   -0.9540 H   0  0  0  0  0  0  0  0  0  0  0  0
    8.4326    0.9549    0.0286 H   0  0  0  0  0  0  0  0  0  0  0  0
    6.3894    2.2314   -0.0871 H   0  0  0  0  0  0  0  0  0  0  0  0
    6.6942    1.6592   -1.7322 H   0  0  0  0  0  0  0  0  0  0  0  0
   -3.5839   -0.4767    1.8620 H   0  0  0  0  0  0  0  0  0  0  0  0
  1  2  1  0
  2  3  1  0
  3  4  2  0
  3  5  1  0
  5  6  2  0
  6  7  1  0
  7  8  2  0
  8  9  1  0
  9 10  1  0
 10 11  1  0
 11 12  2  0
 12 13  1  0
 13 14  2  0
 14 15  1  0
 15 16  1  0
 16 17  1  0
 17 18  2  0
 17 19  1  0
 19 20  1  0
 20 21  2  0
 21 22  1  0
 22 23  2  0
 23 24  1  0
 23 25  1  0
 25 26  1  0
 26 27  1  0
 27 28  1  0
  9 29  2  0
 29  5  1  0
 14 10  1  0
 24 20  1  0
 28 22  1  0
  1 30  1  0
  1 31  1  0
  1 32  1  0
  6 33  1  0
  7 34  1  0
  8 35  1  0
 16 36  1  0
 16 37  1  0
 19 38  1  0
 25 39  1  0
 25 40  1  0
 26 41  1  0
 26 42  1  0
 27 43  1  0
 27 44  1  0
 28 45  1  0
 28 46  1  0
 29 47  1  0
M  END
$$$$
