
     RDKit          3D

 47 50  0  0  0  0  0  0  0  0999 V2000
   -6.7291    0.4565    1.0022 C   0  0  0  0  0  0  0  0  0  0  0  0
   -6.0055   -0.7736    0.4714 C   0  0  0  0  0  0  0  0  0  0  0  0
   -4.9895   -1.3276    1.4708 C   0  0  0  0  0  0  0  0  0  0  0  0
   -4.0133   -0.3621    1.8478 O   0  0  0  0  0  0  0  0  0  0  0  0
   -2.9424   -0.0685    1.0473 C   0  0  0  0  0  0  0  0  0  0  0  0
   -2.1997    1.0075    1.5593 C   0  0  0  0  0  0  0  0  0  0  0  0
   -1.0630    1.4836    0.9080 C   0  0  0  0  0  0  0  0  0  0  0  0
   -0.6408    0.8763   -0.2713 C   0  0  0  0  0  0  0  0  0  0  0  0
    0.5496    1.3515   -0.9825 C   0  0  0  0  0  0  0  0  0  0  0  0
    1.8165    1.2115   -0.5662 C   0  0  0  0  0  0  0  0  0  0  0  0
    2.3694    0.4327    0.9050 S   0  0  0  0  0  0  0  0  0  0  0  0
    3.9922    0.7625    0.4599 C   0  0  0  0  0  0  0  0  0  0  0  0
    5.1616    0.5317    0.9821 N   0  0  0  0  0  0  0  0  0  0  0  0
    6.0025    1.0913    0.0285 C   0  0  0  0  0  0  0  0  0  0  0  0
    7.5581    1.0716    0.1847 C   0  0  0  0  0  0  0  0  0  0  0  0
    8.2472    0.5184    1.2470 C   0  0  0  0  0  0  0  0  0  0  0  0
    9.6251    0.7181    0.9887 C   0  0  0  0  0  0  0  0  0  0  0  0
    9.6936    1.3791   -0.2145 C   0  0  0  0  0  0  0  0  0  0  0  0
    8.4488    1.5962   -0.7109 O   0  0  0  0  0  0  0  0  0  0  0  0
    5.3807    1.6448   -1.0326 N   0  0  0  0  0  0  0  0  0  0  0  0
    4.0972    1.4120   -0.7164 N   0  0  0  0  0  0  0  0  0  0  0  0
    2.9440    1.7264   -1.4026 C   0  0  0  0  0  0  0  0  0  0  0  0
    2.9150    2.3033   -2.4741 O   0  0  0  0  0  0  0  0  0  0  0  0
   -1.3753   -0.1967   -0.7943 C   0  0  0  0  0  0  0  0  0  0  0  0
   -2.5282   -0.6789   -0.1489 C   0  0  0  0  0  0  0  0  0  0  0  0
   -3.2502   -1.7380   -0.6262 O   0  0  0  0  0  0  0  0  0  0  0  0
   -2.9897   -2.2054   -1.9478 C   0  0  0  0  0  0  0  0  0  0  0  0
   -4.0443   -3.2430   -2.2885 C   0  0  0  0  0  0  0  0  0  0  0  0
   -7.2445    0.2347    1.9419 H   0  0  0  0  0  0  0  0  0  0  0  0
   -6.0328    1.2834    1.1742 H   0  0  0  0  0  0  0  0  0  0  0  0
   -7.4770    0.7937    0.2773 H   0  0  0  0  0  0  0  0  0  0  0  0
   -6.7410   -1.5522    0.2389 H   0  0  0  0  0  0  0  0  0  0  0  0
   -5.5151   -0.4972   -0.4677 H   0  0  0  0  0  0  0  0  0  0  0  0
   -4.5378   -2.2697    1.1488 H   0  0  0  0  0  0  0  0  0  0  0  0
   -5.5265   -1.5840    2.3928 H   0  0  0  0  0  0  0  0  0  0  0  0
   -2.5213    1.4833    2.4840 H   0  0  0  0  0  0  0  0  0  0  0  0
   -0.5213    2.3244    1.3338 H   0  0  0  0  0  0  0  0  0  0  0  0
    0.3415    1.8376   -1.9355 H   0  0  0  0  0  0  0  0  0  0  0  0
    7.7986    0.0329    2.1033 H   0  0  0  0  0  0  0  0  0  0  0  0
   10.4631    0.4168    1.6007 H   0  0  0  0  0  0  0  0  0  0  0  0
   10.5081    1.7460   -0.8240 H   0  0  0  0  0  0  0  0  0  0  0  0
   -1.0181   -0.6569   -1.7107 H   0  0  0  0  0  0  0  0  0  0  0  0
   -2.0003   -2.6739   -1.9937 H   0  0  0  0  0  0  0  0  0  0  0  0
   -3.0536   -1.3817   -2.6681 H   0  0  0  0  0  0  0  0  0  0  0  0
   -3.8897   -3.6407   -3.2958 H   0  0  0  0  0  0  0  0  0  0  0  0
   -4.0153   -4.0712   -1.5719 H   0  0  0  0  0  0  0  0  0  0  0  0
   -5.0476   -2.8068   -2.2299 H   0  0  0  0  0  0  0  0  0  0  0  0
  1  2  1  0
  2  3  1  0
  3  4  1  0
  4  5  1  0
  5  6  2  0
  6  7  1  0
  7  8  2  0
  8  9  1  0
  9 10  2  3
 10 11  1  0
 11 12  1  0
 12 13  2  0
 13 14  1  0
 14 15  1  0
 15 16  2  0
 16 17  1  0
 17 18  2  0
 18 19  1  0
 14 20  2  0
 20 21  1  0
 21 22  1  0
 22 23  2  0
  8 24  1  0
 24 25  2  0
 25 26  1  0
 26 27  1  0
 27 28  1  0
 25  5  1  0
 22 10  1  0
 21 12  1  0
 19 15  1  0
  1 29  1  0
  1 30  1  0
  1 31  1  0
  2 32  1  0
  2 33  1  0
  3 34  1  0
  3 35  1  0
  6 36  1  0
  7 37  1  0
  9 38  1  0
 16 39  1  0
 17 40  1  0
 18 41  1  0
 24 42  1  0
 27 43  1  0
 27 44  1  0
 28 45  1  0
 28 46  1  0
 28 47  1  0
M  END
$$$$
