
     RDKit          3D

 61 65  0  0  0  0  0  0  0  0999 V2000
   -9.0628    2.1331   -3.4703 C   0  0  0  0  0  0  0  0  0  0  0  0
   -7.9751    1.3827   -2.7607 C   0  0  0  0  0  0  0  0  0  0  0  0
   -8.0721    1.1266   -1.3919 C   0  0  0  0  0  0  0  0  0  0  0  0
   -7.0667    0.4107   -0.7301 C   0  0  0  0  0  0  0  0  0  0  0  0
   -5.9333   -0.0743   -1.4085 C   0  0  0  0  0  0  0  0  0  0  0  0
   -4.8761   -0.8164   -0.6845 C   0  0  0  0  0  0  0  0  0  0  0  0
   -3.5532   -0.8383   -1.0884 C   0  0  0  0  0  0  0  0  0  0  0  0
   -2.6369   -1.5734   -0.3333 C   0  0  0  0  0  0  0  0  0  0  0  0
   -1.2307   -1.5269   -0.7903 C   0  0  0  0  0  0  0  0  0  0  0  0
   -0.9856   -1.9097   -1.9259 O   0  0  0  0  0  0  0  0  0  0  0  0
   -0.3574   -0.9831    0.1326 N   0  0  0  0  0  0  0  0  0  0  0  0
    1.0392   -0.8400    0.0029 C   0  0  0  0  0  0  0  0  0  0  0  0
    1.7667   -1.2890   -1.1045 C   0  0  0  0  0  0  0  0  0  0  0  0
    3.1566   -1.1352   -1.1540 C   0  0  0  0  0  0  0  0  0  0  0  0
    3.8200   -0.5222   -0.0908 C   0  0  0  0  0  0  0  0  0  0  0  0
    5.5841   -0.3479   -0.1201 S   0  0  0  0  0  6  0  0  0  0  0  0
    6.0665   -0.8312   -1.3991 O   0  0  0  0  0  0  0  0  0  0  0  0
    6.0954   -0.8766    1.1246 O   0  0  0  0  0  0  0  0  0  0  0  0
    5.7600    1.3375   -0.2030 N   0  0  0  0  0  0  0  0  0  0  0  0
    6.5492    1.8651    0.8993 C   0  0  0  0  0  0  0  0  0  0  0  0
    6.0562    2.0833    2.1451 O   0  0  0  0  0  0  0  0  0  0  0  0
    7.0509    2.5993    2.9512 N   0  0  0  0  0  0  0  0  0  0  0  0
    8.1405    2.6828    2.1761 C   0  0  0  0  0  0  0  0  0  0  0  0
    9.4152    3.1915    2.7365 C   0  0  0  0  0  0  0  0  0  0  0  0
    7.8758    2.2389    0.8508 C   0  0  0  0  0  0  0  0  0  0  0  0
    8.8109    2.1652   -0.2944 C   0  0  0  0  0  0  0  0  0  0  0  0
    3.1090   -0.0655    1.0192 C   0  0  0  0  0  0  0  0  0  0  0  0
    1.7212   -0.2235    1.0625 C   0  0  0  0  0  0  0  0  0  0  0  0
   -3.0394   -2.3115    0.7997 C   0  0  0  0  0  0  0  0  0  0  0  0
   -2.1924   -3.1432    1.5815 C   0  0  0  0  0  0  0  0  0  0  0  0
   -2.6800   -3.8197    2.6986 C   0  0  0  0  0  0  0  0  0  0  0  0
   -4.0149   -3.6825    3.0483 C   0  0  0  0  0  0  0  0  0  0  0  0
   -4.8560   -2.8846    2.2672 C   0  0  0  0  0  0  0  0  0  0  0  0
   -4.3971   -2.2054    1.1446 C   0  0  0  0  0  0  0  0  0  0  0  0
   -5.2756   -1.4741    0.4347 N   0  0  0  0  0  0  0  0  0  0  0  0
   -5.8684    0.1697   -2.7910 C   0  0  0  0  0  0  0  0  0  0  0  0
   -6.8727    0.8847   -3.4579 C   0  0  0  0  0  0  0  0  0  0  0  0
   -9.9136    1.4712   -3.6629 H   0  0  0  0  0  0  0  0  0  0  0  0
   -8.7104    2.5346   -4.4281 H   0  0  0  0  0  0  0  0  0  0  0  0
   -9.3993    2.9809   -2.8655 H   0  0  0  0  0  0  0  0  0  0  0  0
   -8.9305    1.4806   -0.8256 H   0  0  0  0  0  0  0  0  0  0  0  0
   -7.1736    0.2308    0.3388 H   0  0  0  0  0  0  0  0  0  0  0  0
   -3.2146   -0.2862   -1.9587 H   0  0  0  0  0  0  0  0  0  0  0  0
   -0.7657   -0.6346    0.9927 H   0  0  0  0  0  0  0  0  0  0  0  0
    1.2809   -1.7765   -1.9449 H   0  0  0  0  0  0  0  0  0  0  0  0
    3.7015   -1.5063   -2.0175 H   0  0  0  0  0  0  0  0  0  0  0  0
    6.1303    1.5666   -1.1251 H   0  0  0  0  0  0  0  0  0  0  0  0
   10.1922    2.4230    2.6685 H   0  0  0  0  0  0  0  0  0  0  0  0
    9.3150    3.4785    3.7902 H   0  0  0  0  0  0  0  0  0  0  0  0
    9.7487    4.0734    2.1769 H   0  0  0  0  0  0  0  0  0  0  0  0
    8.8908    1.1345   -0.6528 H   0  0  0  0  0  0  0  0  0  0  0  0
    8.4604    2.7917   -1.1204 H   0  0  0  0  0  0  0  0  0  0  0  0
    9.8144    2.5024   -0.0215 H   0  0  0  0  0  0  0  0  0  0  0  0
    3.6259    0.4017    1.8556 H   0  0  0  0  0  0  0  0  0  0  0  0
    1.1839    0.1373    1.9364 H   0  0  0  0  0  0  0  0  0  0  0  0
   -1.1464   -3.2840    1.3157 H   0  0  0  0  0  0  0  0  0  0  0  0
   -2.0225   -4.4561    3.2873 H   0  0  0  0  0  0  0  0  0  0  0  0
   -4.4103   -4.1992    3.9213 H   0  0  0  0  0  0  0  0  0  0  0  0
   -5.9058   -2.7961    2.5395 H   0  0  0  0  0  0  0  0  0  0  0  0
   -5.0395   -0.2103   -3.3840 H   0  0  0  0  0  0  0  0  0  0  0  0
   -6.7831    1.0452   -4.5294 H   0  0  0  0  0  0  0  0  0  0  0  0
  1  2  1  0
  2  3  2  0
  3  4  1  0
  4  5  2  0
  5  6  1  0
  6  7  2  0
  7  8  1  0
  8  9  1  0
  9 10  2  0
  9 11  1  0
 11 12  1  0
 12 13  2  0
 13 14  1  0
 14 15  2  0
 15 16  1  0
 16 17  2  0
 16 18  2  0
 16 19  1  0
 19 20  1  0
 20 21  1  0
 21 22  1  0
 22 23  2  0
 23 24  1  0
 23 25  1  0
 25 26  1  0
 15 27  1  0
 27 28  2  0
  8 29  2  0
 29 30  1  0
 30 31  2  0
 31 32  1  0
 32 33  2  0
 33 34  1  0
 34 35  2  0
  5 36  1  0
 36 37  2  0
 37  2  1  0
 35  6  1  0
 28 12  1  0
 34 29  1  0
 25 20  2  0
  1 38  1  0
  1 39  1  0
  1 40  1  0
  3 41  1  0
  4 42  1  0
  7 43  1  0
 11 44  1  0
 13 45  1  0
 14 46  1  0
 19 47  1  0
 24 48  1  0
 24 49  1  0
 24 50  1  0
 26 51  1  0
 26 52  1  0
 26 53  1  0
 27 54  1  0
 28 55  1  0
 30 56  1  0
 31 57  1  0
 32 58  1  0
 33 59  1  0
 36 60  1  0
 37 61  1  0
M  END
$$$$
