
     RDKit          3D

 26 27  0  0  0  0  0  0  0  0999 V2000
   -0.8601    0.2702   -2.6165 O   0  0  0  0  0  0  0  0  0  0  0  0
   -1.0334    0.6026   -1.4415 C   0  0  0  0  0  0  0  0  0  0  0  0
   -0.2224    1.7545   -0.8366 C   0  0  0  0  0  0  0  0  0  0  0  0
    0.4627    1.4887    0.3748 O   0  0  0  0  0  0  0  0  0  0  0  0
    1.4791    0.5702    0.3670 C   0  0  0  0  0  0  0  0  0  0  0  0
    2.1125    0.0945   -0.7858 C   0  0  0  0  0  0  0  0  0  0  0  0
    3.1484   -0.8414   -0.6901 C   0  0  0  0  0  0  0  0  0  0  0  0
    3.5661   -1.3060    0.5548 C   0  0  0  0  0  0  0  0  0  0  0  0
    2.9498   -0.8334    1.7112 C   0  0  0  0  0  0  0  0  0  0  0  0
    1.9143    0.1009    1.6180 C   0  0  0  0  0  0  0  0  0  0  0  0
    1.1811    0.6465    3.0874 Cl  0  0  0  0  0  0  0  0  0  0  0  0
   -2.0264   -0.0526   -0.6100 C   0  0  0  0  0  0  0  0  0  0  0  0
   -2.4024    0.1543    0.7065 C   0  0  0  0  0  0  0  0  0  0  0  0
   -3.4291   -0.7702    1.0193 C   0  0  0  0  0  0  0  0  0  0  0  0
   -3.6602   -1.5212   -0.1091 C   0  0  0  0  0  0  0  0  0  0  0  0
   -2.8078   -1.0840   -1.0862 N   0  0  0  0  0  0  0  0  0  0  0  0
   -0.9337    2.5643   -0.6321 H   0  0  0  0  0  0  0  0  0  0  0  0
    0.4660    2.1597   -1.5882 H   0  0  0  0  0  0  0  0  0  0  0  0
    1.8350    0.4314   -1.7800 H   0  0  0  0  0  0  0  0  0  0  0  0
    3.6311   -1.2063   -1.5943 H   0  0  0  0  0  0  0  0  0  0  0  0
    4.3712   -2.0332    0.6243 H   0  0  0  0  0  0  0  0  0  0  0  0
    3.2773   -1.1955    2.6822 H   0  0  0  0  0  0  0  0  0  0  0  0
   -1.9820    0.8872    1.3849 H   0  0  0  0  0  0  0  0  0  0  0  0
   -3.9405   -0.8767    1.9676 H   0  0  0  0  0  0  0  0  0  0  0  0
   -4.3532   -2.3300   -0.2993 H   0  0  0  0  0  0  0  0  0  0  0  0
   -2.7433   -1.4514   -2.0284 H   0  0  0  0  0  0  0  0  0  0  0  0
  1  2  2  0
  2  3  1  0
  3  4  1  0
  4  5  1  0
  5  6  2  0
  6  7  1  0
  7  8  2  0
  8  9  1  0
  9 10  2  0
 10 11  1  0
  2 12  1  0
 12 13  2  0
 13 14  1  0
 14 15  2  0
 15 16  1  0
 10  5  1  0
 16 12  1  0
  3 17  1  0
  3 18  1  0
  6 19  1  0
  7 20  1  0
  8 21  1  0
  9 22  1  0
 13 23  1  0
 14 24  1  0
 15 25  1  0
 16 26  1  0
M  END
$$$$
