
     RDKit          3D

 43 45  0  0  0  0  0  0  0  0999 V2000
   -7.7377    0.5989   -0.1801 C   0  0  0  0  0  0  0  0  0  0  0  0
   -6.8051   -0.5246   -0.1068 N   0  0  0  0  0  0  0  0  0  0  0  0
   -7.1673   -1.6962   -0.9029 C   0  0  0  0  0  0  0  0  0  0  0  0
   -5.4509   -0.2659    0.1387 C   0  0  0  0  0  0  0  0  0  0  0  0
   -4.4564   -1.2414   -0.0486 C   0  0  0  0  0  0  0  0  0  0  0  0
   -3.0982   -0.9926    0.2092 C   0  0  0  0  0  0  0  0  0  0  0  0
   -2.6772    0.2538    0.6700 C   0  0  0  0  0  0  0  0  0  0  0  0
   -1.2728    0.5510    0.9835 C   0  0  0  0  0  0  0  0  0  0  0  0
   -0.2330    0.1023    0.2620 C   0  0  0  0  0  0  0  0  0  0  0  0
    1.1422    0.4215    0.5949 C   0  0  0  0  0  0  0  0  0  0  0  0
    2.2395    0.0183   -0.0628 C   0  0  0  0  0  0  0  0  0  0  0  0
    2.3255   -0.9790   -1.4498 S   0  0  0  0  0  0  0  0  0  0  0  0
    4.0810   -0.8343   -1.5649 C   0  0  0  0  0  0  0  0  0  0  0  0
    4.8656   -1.4406   -2.9152 S   0  0  0  0  0  0  0  0  0  0  0  0
    4.5712   -0.1180   -0.4771 N   0  0  0  0  0  0  0  0  0  0  0  0
    5.9633    0.1090   -0.2093 C   0  0  0  0  0  0  0  0  0  0  0  0
    6.4074    1.3509    0.2738 C   0  0  0  0  0  0  0  0  0  0  0  0
    7.7599    1.5814    0.5457 C   0  0  0  0  0  0  0  0  0  0  0  0
    8.6933    0.5693    0.3500 C   0  0  0  0  0  0  0  0  0  0  0  0
    8.2730   -0.6744   -0.1092 C   0  0  0  0  0  0  0  0  0  0  0  0
    6.9197   -0.9035   -0.3813 C   0  0  0  0  0  0  0  0  0  0  0  0
    3.6060    0.4129    0.3806 C   0  0  0  0  0  0  0  0  0  0  0  0
    3.7810    1.0864    1.3899 O   0  0  0  0  0  0  0  0  0  0  0  0
   -3.6471    1.2285    0.8981 C   0  0  0  0  0  0  0  0  0  0  0  0
   -5.0023    0.9696    0.6362 C   0  0  0  0  0  0  0  0  0  0  0  0
   -7.7888    1.1351    0.7736 H   0  0  0  0  0  0  0  0  0  0  0  0
   -8.7581    0.2555   -0.3846 H   0  0  0  0  0  0  0  0  0  0  0  0
   -7.4564    1.2933   -0.9795 H   0  0  0  0  0  0  0  0  0  0  0  0
   -6.7212   -1.6470   -1.9024 H   0  0  0  0  0  0  0  0  0  0  0  0
   -8.2533   -1.7705   -1.0294 H   0  0  0  0  0  0  0  0  0  0  0  0
   -6.8604   -2.6232   -0.4069 H   0  0  0  0  0  0  0  0  0  0  0  0
   -4.7099   -2.2383   -0.3955 H   0  0  0  0  0  0  0  0  0  0  0  0
   -2.3857   -1.7993    0.0566 H   0  0  0  0  0  0  0  0  0  0  0  0
   -1.1137    1.1912    1.8485 H   0  0  0  0  0  0  0  0  0  0  0  0
   -0.4125   -0.5140   -0.6161 H   0  0  0  0  0  0  0  0  0  0  0  0
    1.2769    1.0551    1.4730 H   0  0  0  0  0  0  0  0  0  0  0  0
    5.7141    2.1753    0.4269 H   0  0  0  0  0  0  0  0  0  0  0  0
    8.0799    2.5541    0.9111 H   0  0  0  0  0  0  0  0  0  0  0  0
    9.7442    0.7468    0.5630 H   0  0  0  0  0  0  0  0  0  0  0  0
    8.9960   -1.4748   -0.2476 H   0  0  0  0  0  0  0  0  0  0  0  0
    6.6353   -1.9067   -0.6871 H   0  0  0  0  0  0  0  0  0  0  0  0
   -3.3673    2.2081    1.2787 H   0  0  0  0  0  0  0  0  0  0  0  0
   -5.6996    1.7758    0.8418 H   0  0  0  0  0  0  0  0  0  0  0  0
  1  2  1  0
  2  3  1  0
  2  4  1  0
  4  5  2  0
  5  6  1  0
  6  7  2  0
  7  8  1  0
  8  9  2  3
  9 10  1  0
 10 11  2  3
 11 12  1  0
 12 13  1  0
 13 14  2  0
 13 15  1  0
 15 16  1  0
 16 17  2  0
 17 18  1  0
 18 19  2  0
 19 20  1  0
 20 21  2  0
 15 22  1  0
 22 23  2  0
  7 24  1  0
 24 25  2  0
 25  4  1  0
 22 11  1  0
 21 16  1  0
  1 26  1  0
  1 27  1  0
  1 28  1  0
  3 29  1  0
  3 30  1  0
  3 31  1  0
  5 32  1  0
  6 33  1  0
  8 34  1  0
  9 35  1  0
 10 36  1  0
 17 37  1  0
 18 38  1  0
 19 39  1  0
 20 40  1  0
 21 41  1  0
 24 42  1  0
 25 43  1  0
M  END
$$$$
