
     RDKit          3D

 31 32  0  0  0  0  0  0  0  0999 V2000
    2.4780   -2.2885    0.8360 C   0  0  0  0  0  0  0  0  0  0  0  0
    2.7294   -1.7762   -0.5746 C   0  0  0  0  0  0  0  0  0  0  0  0
    2.8576   -0.3210   -0.6064 N   0  0  0  0  0  0  0  0  0  0  0  0
    1.8719    0.6201   -0.5416 C   0  0  0  0  0  0  0  0  0  0  0  0
    0.4555    0.3384   -0.6281 C   0  0  0  0  0  0  0  0  0  0  0  0
   -0.1370   -0.4698   -1.5781 C   0  0  0  0  0  0  0  0  0  0  0  0
   -1.8313   -0.5851   -1.3942 S   0  0  0  0  0  0  0  0  0  0  0  0
   -1.8303    0.5006   -0.0694 C   0  0  0  0  0  0  0  0  0  0  0  0
   -3.1055    0.9056    0.6368 C   0  0  0  0  0  0  0  0  0  0  0  0
   -3.7973   -0.2855    1.3014 C   0  0  0  0  0  0  0  0  0  0  0  0
   -4.0636    1.6545   -0.2906 C   0  0  0  0  0  0  0  0  0  0  0  0
   -0.5464    0.9237    0.2185 C   0  0  0  0  0  0  0  0  0  0  0  0
    2.2897    1.8418   -0.3625 N   0  0  0  0  0  0  0  0  0  0  0  0
    3.6472    1.7241   -0.3190 N   0  0  0  0  0  0  0  0  0  0  0  0
    4.0205    0.3943   -0.4354 C   0  0  0  0  0  0  0  0  0  0  0  0
    5.5931   -0.1216   -0.3508 S   0  0  0  0  0  0  0  0  0  0  0  0
    1.5495   -1.8793    1.2468 H   0  0  0  0  0  0  0  0  0  0  0  0
    2.3975   -3.3799    0.8344 H   0  0  0  0  0  0  0  0  0  0  0  0
    3.2927   -2.0067    1.5106 H   0  0  0  0  0  0  0  0  0  0  0  0
    1.9118   -2.0895   -1.2252 H   0  0  0  0  0  0  0  0  0  0  0  0
    3.6440   -2.2300   -0.9686 H   0  0  0  0  0  0  0  0  0  0  0  0
    0.3359   -0.9982   -2.3940 H   0  0  0  0  0  0  0  0  0  0  0  0
   -2.8285    1.6027    1.4401 H   0  0  0  0  0  0  0  0  0  0  0  0
   -3.1103   -0.8155    1.9706 H   0  0  0  0  0  0  0  0  0  0  0  0
   -4.6529    0.0504    1.8973 H   0  0  0  0  0  0  0  0  0  0  0  0
   -4.1694   -1.0061    0.5650 H   0  0  0  0  0  0  0  0  0  0  0  0
   -4.9249    2.0326    0.2708 H   0  0  0  0  0  0  0  0  0  0  0  0
   -4.4464    1.0110   -1.0902 H   0  0  0  0  0  0  0  0  0  0  0  0
   -3.5670    2.5113   -0.7595 H   0  0  0  0  0  0  0  0  0  0  0  0
   -0.3193    1.6247    1.0146 H   0  0  0  0  0  0  0  0  0  0  0  0
    4.2559    2.5170   -0.1546 H   0  0  0  0  0  0  0  0  0  0  0  0
  1  2  1  0
  2  3  1  0
  3  4  1  0
  4  5  1  0
  5  6  2  0
  6  7  1  0
  7  8  1  0
  8  9  1  0
  9 10  1  0
  9 11  1  0
  8 12  2  0
  4 13  2  0
 13 14  1  0
 14 15  1  0
 15 16  2  0
 15  3  1  0
 12  5  1  0
  1 17  1  0
  1 18  1  0
  1 19  1  0
  2 20  1  0
  2 21  1  0
  6 22  1  0
  9 23  1  0
 10 24  1  0
 10 25  1  0
 10 26  1  0
 11 27  1  0
 11 28  1  0
 11 29  1  0
 12 30  1  0
 14 31  1  0
M  END
$$$$
