
     RDKit          3D

 46 49  0  0  0  0  0  0  0  0999 V2000
    0.6102    0.9548   -0.4683 O   0  0  0  0  0  0  0  0  0  0  0  0
    0.8507    0.1137    0.3912 C   0  0  0  0  0  0  0  0  0  0  0  0
   -0.2291   -0.8035    0.9437 C   0  0  0  0  0  0  0  0  0  0  0  0
   -0.8439   -1.6181   -0.0896 N   0  0  0  0  0  0  0  0  0  0  0  0
   -2.1312   -1.5103   -0.5792 C   0  0  0  0  0  0  0  0  0  0  0  0
   -3.1248   -0.4740   -0.1530 C   0  0  0  0  0  0  0  0  0  0  0  0
   -2.5075    0.7980   -0.3137 O   0  0  0  0  0  0  0  0  0  0  0  0
   -3.1874    1.8870    0.1527 C   0  0  0  0  0  0  0  0  0  0  0  0
   -4.4990    1.8958    0.6286 C   0  0  0  0  0  0  0  0  0  0  0  0
   -5.0703    3.0890    1.0821 C   0  0  0  0  0  0  0  0  0  0  0  0
   -4.3362    4.2742    1.0576 C   0  0  0  0  0  0  0  0  0  0  0  0
   -3.0298    4.2706    0.5751 C   0  0  0  0  0  0  0  0  0  0  0  0
   -2.4601    3.0799    0.1229 C   0  0  0  0  0  0  0  0  0  0  0  0
   -2.3799   -2.4781   -1.4431 N   0  0  0  0  0  0  0  0  0  0  0  0
   -1.2283   -3.2133   -1.5333 C   0  0  0  0  0  0  0  0  0  0  0  0
   -0.9547   -4.3440   -2.3170 C   0  0  0  0  0  0  0  0  0  0  0  0
    0.3085   -4.9391   -2.2262 C   0  0  0  0  0  0  0  0  0  0  0  0
    1.2794   -4.4193   -1.3696 C   0  0  0  0  0  0  0  0  0  0  0  0
    1.0240   -3.2920   -0.5793 C   0  0  0  0  0  0  0  0  0  0  0  0
   -0.2458   -2.7083   -0.6879 C   0  0  0  0  0  0  0  0  0  0  0  0
    2.0939   -0.0993    0.9700 N   0  0  0  0  0  0  0  0  0  0  0  0
    3.3176    0.5519    0.6720 C   0  0  0  0  0  0  0  0  0  0  0  0
    3.4461    1.5552   -0.2935 C   0  0  0  0  0  0  0  0  0  0  0  0
    4.6895    2.1557   -0.5394 C   0  0  0  0  0  0  0  0  0  0  0  0
    4.7619    3.3900   -1.7475 Cl  0  0  0  0  0  0  0  0  0  0  0  0
    5.8191    1.7540    0.1815 C   0  0  0  0  0  0  0  0  0  0  0  0
    7.3790    2.4515   -0.0711 Cl  0  0  0  0  0  0  0  0  0  0  0  0
    5.7066    0.7539    1.1469 C   0  0  0  0  0  0  0  0  0  0  0  0
    4.4663    0.1602    1.3871 C   0  0  0  0  0  0  0  0  0  0  0  0
    4.3783   -1.0808    2.5926 Cl  0  0  0  0  0  0  0  0  0  0  0  0
    0.1724   -1.4937    1.6941 H   0  0  0  0  0  0  0  0  0  0  0  0
   -0.9857   -0.1986    1.4490 H   0  0  0  0  0  0  0  0  0  0  0  0
   -3.3971   -0.6536    0.8941 H   0  0  0  0  0  0  0  0  0  0  0  0
   -4.0152   -0.5424   -0.7885 H   0  0  0  0  0  0  0  0  0  0  0  0
   -5.1089    0.9989    0.6501 H   0  0  0  0  0  0  0  0  0  0  0  0
   -6.0940    3.0946    1.4486 H   0  0  0  0  0  0  0  0  0  0  0  0
   -4.7848    5.2006    1.4069 H   0  0  0  0  0  0  0  0  0  0  0  0
   -2.4548    5.1922    0.5445 H   0  0  0  0  0  0  0  0  0  0  0  0
   -1.4412    3.0782   -0.2602 H   0  0  0  0  0  0  0  0  0  0  0  0
   -1.7163   -4.7407   -2.9791 H   0  0  0  0  0  0  0  0  0  0  0  0
    0.5322   -5.8140   -2.8321 H   0  0  0  0  0  0  0  0  0  0  0  0
    2.2555   -4.8979   -1.3184 H   0  0  0  0  0  0  0  0  0  0  0  0
    1.7911   -2.8980    0.0761 H   0  0  0  0  0  0  0  0  0  0  0  0
    2.1672   -0.8113    1.6916 H   0  0  0  0  0  0  0  0  0  0  0  0
    2.5943    1.8925   -0.8772 H   0  0  0  0  0  0  0  0  0  0  0  0
    6.5823    0.4376    1.7086 H   0  0  0  0  0  0  0  0  0  0  0  0
  1  2  2  0
  2  3  1  0
  3  4  1  0
  4  5  1  0
  5  6  1  0
  6  7  1  0
  7  8  1  0
  8  9  2  0
  9 10  1  0
 10 11  2  0
 11 12  1  0
 12 13  2  0
  5 14  2  0
 14 15  1  0
 15 16  2  0
 16 17  1  0
 17 18  2  0
 18 19  1  0
 19 20  2  0
  2 21  1  0
 21 22  1  0
 22 23  2  0
 23 24  1  0
 24 25  1  0
 24 26  2  0
 26 27  1  0
 26 28  1  0
 28 29  2  0
 29 30  1  0
 20  4  1  0
 29 22  1  0
 13  8  1  0
 20 15  1  0
  3 31  1  0
  3 32  1  0
  6 33  1  0
  6 34  1  0
  9 35  1  0
 10 36  1  0
 11 37  1  0
 12 38  1  0
 13 39  1  0
 16 40  1  0
 17 41  1  0
 18 42  1  0
 19 43  1  0
 21 44  1  0
 23 45  1  0
 28 46  1  0
M  END
$$$$
