
     RDKit          3D

 44 46  0  0  0  0  0  0  0  0999 V2000
   -7.1240   -0.6626    0.1228 C   0  0  0  0  0  0  0  0  0  0  0  0
   -5.7717   -0.1796   -0.3128 C   0  0  0  0  0  0  0  0  0  0  0  0
   -5.2188   -0.6189   -1.5227 C   0  0  0  0  0  0  0  0  0  0  0  0
   -3.9733   -0.1473   -1.9611 C   0  0  0  0  0  0  0  0  0  0  0  0
   -3.4090   -0.6389   -3.2623 C   0  0  0  0  0  0  0  0  0  0  0  0
   -3.2727    0.7555   -1.1477 C   0  0  0  0  0  0  0  0  0  0  0  0
   -2.0400    1.2125   -1.5394 O   0  0  0  0  0  0  0  0  0  0  0  0
   -1.0103    0.3388   -1.0831 C   0  0  0  0  0  0  0  0  0  0  0  0
    0.2229    1.1113   -0.5953 C   0  0  0  0  0  0  0  0  0  0  0  0
    0.2123    2.3263   -0.4320 O   0  0  0  0  0  0  0  0  0  0  0  0
    1.2868    0.2589   -0.3649 N   0  0  0  0  0  0  0  0  0  0  0  0
    2.5389    0.5934    0.0817 C   0  0  0  0  0  0  0  0  0  0  0  0
    3.4535   -0.3334    0.2491 N   0  0  0  0  0  0  0  0  0  0  0  0
    4.6337    0.2494    0.7070 C   0  0  0  0  0  0  0  0  0  0  0  0
    5.8363   -0.5344    0.9847 C   0  0  0  0  0  0  0  0  0  0  0  0
    5.8381   -1.9145    0.8009 C   0  0  0  0  0  0  0  0  0  0  0  0
    7.0025   -2.6281    1.0753 C   0  0  0  0  0  0  0  0  0  0  0  0
    8.1276   -1.9473    1.5234 C   0  0  0  0  0  0  0  0  0  0  0  0
    8.0422   -0.5743    1.6796 C   0  0  0  0  0  0  0  0  0  0  0  0
    6.9279    0.1452    1.4222 N   0  0  0  0  0  0  0  0  0  0  0  0
    4.5683    1.6203    0.8743 C   0  0  0  0  0  0  0  0  0  0  0  0
    3.0092    2.1854    0.4505 S   0  0  0  0  0  0  0  0  0  0  0  0
   -3.8321    1.2540    0.0390 C   0  0  0  0  0  0  0  0  0  0  0  0
   -3.1052    2.2672    0.8773 C   0  0  0  0  0  0  0  0  0  0  0  0
   -5.0801    0.7684    0.4516 C   0  0  0  0  0  0  0  0  0  0  0  0
   -7.1989   -0.6806    1.2152 H   0  0  0  0  0  0  0  0  0  0  0  0
   -7.3072   -1.6825   -0.2311 H   0  0  0  0  0  0  0  0  0  0  0  0
   -7.9024   -0.0044   -0.2751 H   0  0  0  0  0  0  0  0  0  0  0  0
   -5.7705   -1.3301   -2.1348 H   0  0  0  0  0  0  0  0  0  0  0  0
   -4.2005   -1.0157   -3.9190 H   0  0  0  0  0  0  0  0  0  0  0  0
   -2.6964   -1.4491   -3.0805 H   0  0  0  0  0  0  0  0  0  0  0  0
   -2.9061    0.1702   -3.8019 H   0  0  0  0  0  0  0  0  0  0  0  0
   -1.3360   -0.3069   -0.2556 H   0  0  0  0  0  0  0  0  0  0  0  0
   -0.7068   -0.2931   -1.9258 H   0  0  0  0  0  0  0  0  0  0  0  0
    1.1851   -0.7320   -0.5317 H   0  0  0  0  0  0  0  0  0  0  0  0
    4.9500   -2.4299    0.4498 H   0  0  0  0  0  0  0  0  0  0  0  0
    7.0287   -3.7055    0.9396 H   0  0  0  0  0  0  0  0  0  0  0  0
    9.0494   -2.4734    1.7454 H   0  0  0  0  0  0  0  0  0  0  0  0
    8.8950    0.0024    2.0267 H   0  0  0  0  0  0  0  0  0  0  0  0
    5.3416    2.2947    1.2151 H   0  0  0  0  0  0  0  0  0  0  0  0
   -2.7138    3.0769    0.2529 H   0  0  0  0  0  0  0  0  0  0  0  0
   -3.7724    2.7246    1.6157 H   0  0  0  0  0  0  0  0  0  0  0  0
   -2.2793    1.7895    1.4132 H   0  0  0  0  0  0  0  0  0  0  0  0
   -5.5220    1.1376    1.3755 H   0  0  0  0  0  0  0  0  0  0  0  0
  1  2  1  0
  2  3  2  0
  3  4  1  0
  4  5  1  0
  4  6  2  0
  6  7  1  0
  7  8  1  0
  8  9  1  0
  9 10  2  0
  9 11  1  0
 11 12  1  0
 12 13  2  0
 13 14  1  0
 14 15  1  0
 15 16  2  0
 16 17  1  0
 17 18  2  0
 18 19  1  0
 19 20  2  0
 14 21  2  0
 21 22  1  0
  6 23  1  0
 23 24  1  0
 23 25  2  0
 25  2  1  0
 22 12  1  0
 20 15  1  0
  1 26  1  0
  1 27  1  0
  1 28  1  0
  3 29  1  0
  5 30  1  0
  5 31  1  0
  5 32  1  0
  8 33  1  0
  8 34  1  0
 11 35  1  0
 16 36  1  0
 17 37  1  0
 18 38  1  0
 19 39  1  0
 21 40  1  0
 24 41  1  0
 24 42  1  0
 24 43  1  0
 25 44  1  0
M  END
$$$$
