
     RDKit          3D

 57 60  0  0  0  0  0  0  0  0999 V2000
    8.4164    3.5198   -0.3413 C   0  0  0  0  0  0  0  0  0  0  0  0
    7.6177    2.2407   -0.1562 C   0  0  0  0  0  0  0  0  0  0  0  0
    6.2530    2.5992    0.0541 O   0  0  0  0  0  0  0  0  0  0  0  0
    5.3821    1.5810    0.3319 C   0  0  0  0  0  0  0  0  0  0  0  0
    4.1052    1.9905    0.7147 C   0  0  0  0  0  0  0  0  0  0  0  0
    3.1229    1.0469    1.0387 C   0  0  0  0  0  0  0  0  0  0  0  0
    3.4016   -0.3204    0.9701 C   0  0  0  0  0  0  0  0  0  0  0  0
    2.3682   -1.2040    1.3330 N   0  0  0  0  0  0  0  0  0  0  0  0
    2.3481   -2.5823    1.2168 C   0  0  0  0  0  0  0  0  0  0  0  0
    3.2200   -3.2768    0.7011 O   0  0  0  0  0  0  0  0  0  0  0  0
    1.1065   -3.2211    1.8229 C   0  0  0  0  0  0  0  0  0  0  0  0
   -0.2878   -3.2057    0.6572 S   0  0  0  0  0  0  0  0  0  0  0  0
   -0.9437   -1.6209    0.9232 C   0  0  0  0  0  0  0  0  0  0  0  0
   -0.3445   -0.7029    1.6445 N   0  0  0  0  0  0  0  0  0  0  0  0
   -1.1651    0.3788    1.7186 N   0  0  0  0  0  0  0  0  0  0  0  0
   -2.2691    0.1113    1.0466 C   0  0  0  0  0  0  0  0  0  0  0  0
   -3.3407    1.1188    0.7642 C   0  0  0  0  0  0  0  0  0  0  0  0
   -3.5672    1.3766   -0.6980 C   0  0  0  0  0  0  0  0  0  0  0  0
   -2.6610    1.4077   -1.7463 C   0  0  0  0  0  0  0  0  0  0  0  0
   -3.3726    1.6749   -2.9353 C   0  0  0  0  0  0  0  0  0  0  0  0
   -4.6945    1.8317   -2.5898 C   0  0  0  0  0  0  0  0  0  0  0  0
   -4.8029    1.6779   -1.2324 N   0  0  0  0  0  0  0  0  0  0  0  0
   -6.0346    1.8544   -0.4960 C   0  0  0  0  0  0  0  0  0  0  0  0
   -2.2040   -1.1866    0.5432 N   0  0  0  0  0  0  0  0  0  0  0  0
   -3.2140   -1.8944   -0.1630 C   0  0  0  0  0  0  0  0  0  0  0  0
   -4.5424   -1.8408    0.2843 C   0  0  0  0  0  0  0  0  0  0  0  0
   -5.5402   -2.5301   -0.4083 C   0  0  0  0  0  0  0  0  0  0  0  0
   -5.2088   -3.2665   -1.5394 C   0  0  0  0  0  0  0  0  0  0  0  0
   -6.1684   -3.9279   -2.1984 F   0  0  0  0  0  0  0  0  0  0  0  0
   -3.8967   -3.3313   -1.9913 C   0  0  0  0  0  0  0  0  0  0  0  0
   -2.8939   -2.6470   -1.3036 C   0  0  0  0  0  0  0  0  0  0  0  0
    4.6761   -0.7274    0.5771 C   0  0  0  0  0  0  0  0  0  0  0  0
    5.6626    0.2168    0.2605 C   0  0  0  0  0  0  0  0  0  0  0  0
    8.3170    4.1681    0.5373 H   0  0  0  0  0  0  0  0  0  0  0  0
    9.4748    3.2986   -0.4988 H   0  0  0  0  0  0  0  0  0  0  0  0
    8.0413    4.0872   -1.2004 H   0  0  0  0  0  0  0  0  0  0  0  0
    8.0087    1.6993    0.7123 H   0  0  0  0  0  0  0  0  0  0  0  0
    7.7141    1.6265   -1.0587 H   0  0  0  0  0  0  0  0  0  0  0  0
    3.8728    3.0519    0.7680 H   0  0  0  0  0  0  0  0  0  0  0  0
    2.1388    1.4002    1.3376 H   0  0  0  0  0  0  0  0  0  0  0  0
    1.4990   -0.7648    1.6394 H   0  0  0  0  0  0  0  0  0  0  0  0
    1.3466   -4.2650    2.0543 H   0  0  0  0  0  0  0  0  0  0  0  0
    0.8493   -2.7420    2.7748 H   0  0  0  0  0  0  0  0  0  0  0  0
   -3.0460    2.0711    1.2201 H   0  0  0  0  0  0  0  0  0  0  0  0
   -4.2611    0.8217    1.2729 H   0  0  0  0  0  0  0  0  0  0  0  0
   -1.5934    1.2383   -1.6640 H   0  0  0  0  0  0  0  0  0  0  0  0
   -2.9651    1.7530   -3.9340 H   0  0  0  0  0  0  0  0  0  0  0  0
   -5.5579    2.0553   -3.2029 H   0  0  0  0  0  0  0  0  0  0  0  0
   -5.8740    2.6205    0.2672 H   0  0  0  0  0  0  0  0  0  0  0  0
   -6.3078    0.9023   -0.0394 H   0  0  0  0  0  0  0  0  0  0  0  0
   -6.8281    2.1747   -1.1773 H   0  0  0  0  0  0  0  0  0  0  0  0
   -4.8192   -1.3131    1.1915 H   0  0  0  0  0  0  0  0  0  0  0  0
   -6.5703   -2.5078   -0.0674 H   0  0  0  0  0  0  0  0  0  0  0  0
   -3.6646   -3.9072   -2.8822 H   0  0  0  0  0  0  0  0  0  0  0  0
   -1.8838   -2.6809   -1.7050 H   0  0  0  0  0  0  0  0  0  0  0  0
    4.9432   -1.7767    0.5192 H   0  0  0  0  0  0  0  0  0  0  0  0
    6.6377   -0.1522   -0.0396 H   0  0  0  0  0  0  0  0  0  0  0  0
  1  2  1  0
  2  3  1  0
  3  4  1  0
  4  5  2  0
  5  6  1  0
  6  7  2  0
  7  8  1  0
  8  9  1  0
  9 10  2  0
  9 11  1  0
 11 12  1  0
 12 13  1  0
 13 14  2  0
 14 15  1  0
 15 16  2  0
 16 17  1  0
 17 18  1  0
 18 19  2  0
 19 20  1  0
 20 21  2  0
 21 22  1  0
 22 23  1  0
 16 24  1  0
 24 25  1  0
 25 26  2  0
 26 27  1  0
 27 28  2  0
 28 29  1  0
 28 30  1  0
 30 31  2  0
  7 32  1  0
 32 33  2  0
 33  4  1  0
 24 13  1  0
 31 25  1  0
 22 18  1  0
  1 34  1  0
  1 35  1  0
  1 36  1  0
  2 37  1  0
  2 38  1  0
  5 39  1  0
  6 40  1  0
  8 41  1  0
 11 42  1  0
 11 43  1  0
 17 44  1  0
 17 45  1  0
 19 46  1  0
 20 47  1  0
 21 48  1  0
 23 49  1  0
 23 50  1  0
 23 51  1  0
 26 52  1  0
 27 53  1  0
 30 54  1  0
 31 55  1  0
 32 56  1  0
 33 57  1  0
M  END
$$$$
