
     RDKit          3D

 46 48  0  0  0  0  0  0  0  0999 V2000
   -8.0754   -0.9026   -0.9190 C   0  0  0  0  0  0  0  0  0  0  0  0
   -7.5487    0.3754   -0.5858 O   0  0  0  0  0  0  0  0  0  0  0  0
   -6.2961    0.4044   -0.0357 C   0  0  0  0  0  0  0  0  0  0  0  0
   -5.7931    1.6867    0.1952 C   0  0  0  0  0  0  0  0  0  0  0  0
   -4.5324    1.8658    0.7685 C   0  0  0  0  0  0  0  0  0  0  0  0
   -3.7525    0.7568    1.1113 C   0  0  0  0  0  0  0  0  0  0  0  0
   -2.4413    0.9826    1.7286 C   0  0  0  0  0  0  0  0  0  0  0  0
   -1.2564    0.8483    1.1158 C   0  0  0  0  0  0  0  0  0  0  0  0
    0.2500    1.1162    1.9580 S   0  0  0  0  0  0  0  0  0  0  0  0
    1.1609    0.7250    0.5377 C   0  0  0  0  0  0  0  0  0  0  0  0
    2.4981    0.7271    0.5067 C   0  0  0  0  0  0  0  0  0  0  0  0
    3.2587    0.3876   -0.7262 C   0  0  0  0  0  0  0  0  0  0  0  0
    2.7003    0.2392   -1.8097 O   0  0  0  0  0  0  0  0  0  0  0  0
    4.7370    0.2630   -0.6265 C   0  0  0  0  0  0  0  0  0  0  0  0
    5.3788   -0.1800    0.5358 C   0  0  0  0  0  0  0  0  0  0  0  0
    6.7732   -0.2827    0.5699 C   0  0  0  0  0  0  0  0  0  0  0  0
    7.5390    0.0351   -0.5584 C   0  0  0  0  0  0  0  0  0  0  0  0
    9.0366   -0.0462   -0.5082 C   0  0  0  0  0  0  0  0  0  0  0  0
    6.8929    0.4745   -1.7194 C   0  0  0  0  0  0  0  0  0  0  0  0
    5.5004    0.5775   -1.7572 C   0  0  0  0  0  0  0  0  0  0  0  0
    0.3490    0.4242   -0.5112 N   0  0  0  0  0  0  0  0  0  0  0  0
   -1.0069    0.4717   -0.3099 C   0  0  0  0  0  0  0  0  0  0  0  0
   -1.8402    0.2462   -1.1709 O   0  0  0  0  0  0  0  0  0  0  0  0
   -4.2492   -0.5331    0.8641 C   0  0  0  0  0  0  0  0  0  0  0  0
   -3.4767   -1.6034    1.2486 O   0  0  0  0  0  0  0  0  0  0  0  0
   -3.3478   -2.5928    0.2287 C   0  0  0  0  0  0  0  0  0  0  0  0
   -5.5247   -0.7069    0.3090 C   0  0  0  0  0  0  0  0  0  0  0  0
   -9.0523   -0.7497   -1.3876 H   0  0  0  0  0  0  0  0  0  0  0  0
   -7.4361   -1.4188   -1.6429 H   0  0  0  0  0  0  0  0  0  0  0  0
   -8.2286   -1.5106   -0.0214 H   0  0  0  0  0  0  0  0  0  0  0  0
   -6.3903    2.5551   -0.0722 H   0  0  0  0  0  0  0  0  0  0  0  0
   -4.1660    2.8750    0.9388 H   0  0  0  0  0  0  0  0  0  0  0  0
   -2.4899    1.2678    2.7762 H   0  0  0  0  0  0  0  0  0  0  0  0
    3.0623    0.9996    1.3901 H   0  0  0  0  0  0  0  0  0  0  0  0
    4.8189   -0.4728    1.4192 H   0  0  0  0  0  0  0  0  0  0  0  0
    7.2598   -0.6234    1.4819 H   0  0  0  0  0  0  0  0  0  0  0  0
    9.4484   -0.2826   -1.4950 H   0  0  0  0  0  0  0  0  0  0  0  0
    9.4516    0.9085   -0.1707 H   0  0  0  0  0  0  0  0  0  0  0  0
    9.3622   -0.8362    0.1768 H   0  0  0  0  0  0  0  0  0  0  0  0
    7.4687    0.7348   -2.6053 H   0  0  0  0  0  0  0  0  0  0  0  0
    5.0138    0.9089   -2.6730 H   0  0  0  0  0  0  0  0  0  0  0  0
    0.7310    0.2000   -1.4274 H   0  0  0  0  0  0  0  0  0  0  0  0
   -2.4460   -3.1747    0.4417 H   0  0  0  0  0  0  0  0  0  0  0  0
   -3.2352   -2.1514   -0.7679 H   0  0  0  0  0  0  0  0  0  0  0  0
   -4.2013   -3.2774    0.2521 H   0  0  0  0  0  0  0  0  0  0  0  0
   -5.9044   -1.7114    0.1727 H   0  0  0  0  0  0  0  0  0  0  0  0
  1  2  1  0
  2  3  1  0
  3  4  2  0
  4  5  1  0
  5  6  2  0
  6  7  1  0
  7  8  2  3
  8  9  1  0
  9 10  1  0
 10 11  2  3
 11 12  1  0
 12 13  2  0
 12 14  1  0
 14 15  2  0
 15 16  1  0
 16 17  2  0
 17 18  1  0
 17 19  1  0
 19 20  2  0
 10 21  1  0
 21 22  1  0
 22 23  2  0
  6 24  1  0
 24 25  1  0
 25 26  1  0
 24 27  2  0
 27  3  1  0
 22  8  1  0
 20 14  1  0
  1 28  1  0
  1 29  1  0
  1 30  1  0
  4 31  1  0
  5 32  1  0
  7 33  1  0
 11 34  1  0
 15 35  1  0
 16 36  1  0
 18 37  1  0
 18 38  1  0
 18 39  1  0
 19 40  1  0
 20 41  1  0
 21 42  1  0
 26 43  1  0
 26 44  1  0
 26 45  1  0
 27 46  1  0
M  END
$$$$
