
     RDKit          3D

 37 39  0  0  0  0  0  0  0  0999 V2000
    3.8175    1.2797    0.4817 N   0  0  0  0  0  0  0  0  0  0  0  0
    3.4107    0.0370    1.1264 C   0  0  0  0  0  0  0  0  0  0  0  0
    1.8946   -0.1533    1.1158 C   0  0  0  0  0  0  0  0  0  0  0  0
    1.3234   -0.3323   -0.2974 C   0  0  0  0  0  0  0  0  0  0  0  0
   -0.1415   -0.5596   -0.2722 N   0  0  0  0  0  0  0  0  0  0  0  0
   -0.5919   -1.9122   -0.2459 C   0  0  0  0  0  0  0  0  0  0  0  0
    0.2616   -2.9854    0.0999 C   0  0  0  0  0  0  0  0  0  0  0  0
   -0.1741   -4.3159    0.1400 C   0  0  0  0  0  0  0  0  0  0  0  0
   -1.4893   -4.6225   -0.1626 C   0  0  0  0  0  0  0  0  0  0  0  0
   -2.3615   -3.5948   -0.5001 C   0  0  0  0  0  0  0  0  0  0  0  0
   -1.9278   -2.2542   -0.5392 C   0  0  0  0  0  0  0  0  0  0  0  0
   -3.1639   -1.0699   -1.0140 S   0  0  0  0  0  0  0  0  0  0  0  0
   -2.3504    0.4760   -0.6928 C   0  0  0  0  0  0  0  0  0  0  0  0
   -3.1688    1.6182   -0.7919 C   0  0  0  0  0  0  0  0  0  0  0  0
   -2.6537    2.8939   -0.5877 C   0  0  0  0  0  0  0  0  0  0  0  0
   -1.3042    3.0498   -0.2833 C   0  0  0  0  0  0  0  0  0  0  0  0
   -0.7112    4.4148   -0.0355 C   0  0  0  0  0  0  0  0  0  0  0  0
    0.4619    4.6063   -0.7010 F   0  0  0  0  0  0  0  0  0  0  0  0
   -0.4369    4.6315    1.2799 F   0  0  0  0  0  0  0  0  0  0  0  0
   -1.5253    5.4376   -0.4205 F   0  0  0  0  0  0  0  0  0  0  0  0
   -0.4929    1.9012   -0.1819 C   0  0  0  0  0  0  0  0  0  0  0  0
   -0.9794    0.5883   -0.3888 C   0  0  0  0  0  0  0  0  0  0  0  0
    4.8028    1.4564    0.6828 H   0  0  0  0  0  0  0  0  0  0  0  0
    3.7608    1.1932   -0.5324 H   0  0  0  0  0  0  0  0  0  0  0  0
    3.9096   -0.8111    0.6448 H   0  0  0  0  0  0  0  0  0  0  0  0
    3.7500    0.0618    2.1680 H   0  0  0  0  0  0  0  0  0  0  0  0
    1.6562   -1.0289    1.7306 H   0  0  0  0  0  0  0  0  0  0  0  0
    1.4179    0.6928    1.6242 H   0  0  0  0  0  0  0  0  0  0  0  0
    1.8408   -1.1517   -0.8131 H   0  0  0  0  0  0  0  0  0  0  0  0
    1.5680    0.5279   -0.9328 H   0  0  0  0  0  0  0  0  0  0  0  0
    1.2993   -2.8224    0.3702 H   0  0  0  0  0  0  0  0  0  0  0  0
    0.5203   -5.1060    0.4143 H   0  0  0  0  0  0  0  0  0  0  0  0
   -1.8379   -5.6509   -0.1343 H   0  0  0  0  0  0  0  0  0  0  0  0
   -3.3944   -3.8436   -0.7366 H   0  0  0  0  0  0  0  0  0  0  0  0
   -4.2258    1.5145   -1.0327 H   0  0  0  0  0  0  0  0  0  0  0  0
   -3.3115    3.7575   -0.6674 H   0  0  0  0  0  0  0  0  0  0  0  0
    0.5472    2.0764    0.0853 H   0  0  0  0  0  0  0  0  0  0  0  0
  1  2  1  0
  2  3  1  0
  3  4  1  0
  4  5  1  0
  5  6  1  0
  6  7  2  0
  7  8  1  0
  8  9  2  0
  9 10  1  0
 10 11  2  0
 11 12  1  0
 12 13  1  0
 13 14  2  0
 14 15  1  0
 15 16  2  0
 16 17  1  0
 17 18  1  0
 17 19  1  0
 17 20  1  0
 16 21  1  0
 21 22  2  0
 22  5  1  0
 11  6  1  0
 22 13  1  0
  1 23  1  0
  1 24  1  0
  2 25  1  0
  2 26  1  0
  3 27  1  0
  3 28  1  0
  4 29  1  0
  4 30  1  0
  7 31  1  0
  8 32  1  0
  9 33  1  0
 10 34  1  0
 14 35  1  0
 15 36  1  0
 21 37  1  0
M  END
$$$$
