
     RDKit          3D

 87 91  0  0  0  0  0  0  0  0999 V2000
    5.8541    2.7356   -1.6710 C   0  0  0  0  0  0  0  0  0  0  0  0
    4.5284    3.3146   -2.1312 C   0  0  0  0  0  0  0  0  0  0  0  0
    3.4900    3.2806   -1.0361 C   0  0  0  0  0  0  0  0  0  0  0  0
    3.7087    3.0735    0.1468 O   0  0  0  0  0  0  0  0  0  0  0  0
    2.2605    3.5268   -1.5725 O   0  0  0  0  0  0  0  0  0  0  0  0
    1.1668    3.3699   -0.6572 C   0  0  0  0  0  0  0  0  0  0  0  0
   -0.1341    3.2011   -1.4543 C   0  0  1  0  0  0  0  0  0  0  0  0
   -0.0659    2.0793   -2.5163 C   0  0  0  0  0  0  0  0  0  0  0  0
   -0.7190    0.8493   -1.8442 C   0  0  2  0  0  0  0  0  0  0  0  0
    0.1710    0.3563   -0.8298 O   0  0  0  0  0  0  0  0  0  0  0  0
    1.3228   -0.2325   -1.2431 C   0  0  0  0  0  0  0  0  0  0  0  0
    1.6885   -0.3877   -2.3958 O   0  0  0  0  0  0  0  0  0  0  0  0
    2.0695   -0.6691   -0.0494 C   0  0  0  0  0  0  0  0  0  0  0  0
    3.1621   -1.4334   -0.1987 C   0  0  0  0  0  0  0  0  0  0  0  0
    3.9915   -1.9345    0.9057 C   0  0  0  0  0  0  0  0  0  0  0  0
    5.3500   -2.1843    0.6627 C   0  0  0  0  0  0  0  0  0  0  0  0
    6.1725   -2.6959    1.6704 C   0  0  0  0  0  0  0  0  0  0  0  0
    5.6446   -2.9728    2.9298 C   0  0  0  0  0  0  0  0  0  0  0  0
    4.2923   -2.7461    3.1790 C   0  0  0  0  0  0  0  0  0  0  0  0
    3.4683   -2.2342    2.1720 C   0  0  0  0  0  0  0  0  0  0  0  0
   -1.2614   -0.1737   -2.8827 C   0  0  0  0  0  0  0  0  0  0  0  0
   -1.8068    0.2380   -3.9175 O   0  0  0  0  0  0  0  0  0  0  0  0
   -1.1068   -1.6764   -2.7261 C   0  0  0  0  0  0  0  0  0  0  0  0
   -0.7819   -2.2940   -4.0735 C   0  0  0  0  0  0  0  0  0  0  0  0
   -1.2094   -2.4964   -1.6551 C   0  0  0  0  0  0  0  0  0  0  0  0
   -1.5112   -2.3129   -0.2204 C   0  0  0  0  0  0  0  0  0  0  0  0
   -2.9163   -2.4693    0.3531 C   0  0  2  0  0  0  0  0  0  0  0  0
   -3.4341   -1.6232    1.5009 C   0  0  0  0  0  0  0  0  0  0  0  0
   -4.5166   -0.5891    1.1204 C   0  0  0  0  0  0  0  0  0  0  0  0
   -4.1132    0.4641    0.1030 C   0  0  2  0  0  0  0  0  0  0  0  0
   -5.1256    1.5173   -0.2087 C   0  0  0  0  0  0  0  0  0  0  0  0
   -3.5512   -0.1491   -1.0454 O   0  0  0  0  0  0  0  0  0  0  0  0
   -2.6468    0.6615   -0.2651 C   0  0  1  0  0  0  0  0  0  0  0  0
   -1.9453    1.5786   -1.1976 C   0  0  1  0  0  0  0  0  0  0  0  0
   -1.3732    2.8672   -0.5823 C   0  0  1  0  0  0  0  0  0  0  0  0
   -0.9911    2.6879    0.7934 O   0  0  0  0  0  0  0  0  0  0  0  0
   -1.9182    3.0451    1.7298 C   0  0  0  0  0  0  0  0  0  0  0  0
   -3.0275    3.4915    1.4809 O   0  0  0  0  0  0  0  0  0  0  0  0
   -1.3779    2.7617    3.1099 C   0  0  0  0  0  0  0  0  0  0  0  0
   -2.1978    3.4485    4.1907 C   0  0  0  0  0  0  0  0  0  0  0  0
   -1.8790   -3.5469    0.6167 C   0  0  0  0  0  0  0  0  0  0  0  0
   -2.1669   -4.8947   -0.0062 C   0  0  0  0  0  0  0  0  0  0  0  0
   -1.2113   -3.6650    1.9678 C   0  0  0  0  0  0  0  0  0  0  0  0
    5.7283    1.7090   -1.3042 H   0  0  0  0  0  0  0  0  0  0  0  0
    6.5728    2.7166   -2.4972 H   0  0  0  0  0  0  0  0  0  0  0  0
    6.2830    3.3293   -0.8591 H   0  0  0  0  0  0  0  0  0  0  0  0
    4.1589    2.7225   -2.9763 H   0  0  0  0  0  0  0  0  0  0  0  0
    4.6600    4.3542   -2.4523 H   0  0  0  0  0  0  0  0  0  0  0  0
    1.1076    4.2663   -0.0293 H   0  0  0  0  0  0  0  0  0  0  0  0
    1.3438    2.5012   -0.0144 H   0  0  0  0  0  0  0  0  0  0  0  0
   -0.3121    4.1366   -2.0020 H   0  0  0  0  0  0  0  0  0  0  0  0
    0.9529    1.9011   -2.8683 H   0  0  0  0  0  0  0  0  0  0  0  0
   -0.6432    2.3943   -3.3956 H   0  0  0  0  0  0  0  0  0  0  0  0
    1.7010   -0.3401    0.9126 H   0  0  0  0  0  0  0  0  0  0  0  0
    3.4980   -1.7102   -1.1973 H   0  0  0  0  0  0  0  0  0  0  0  0
    5.7810   -1.9795   -0.3152 H   0  0  0  0  0  0  0  0  0  0  0  0
    7.2252   -2.8787    1.4720 H   0  0  0  0  0  0  0  0  0  0  0  0
    6.2856   -3.3672    3.7136 H   0  0  0  0  0  0  0  0  0  0  0  0
    3.8790   -2.9641    4.1610 H   0  0  0  0  0  0  0  0  0  0  0  0
    2.4138   -2.0842    2.3926 H   0  0  0  0  0  0  0  0  0  0  0  0
    0.0468   -1.7573   -4.5483 H   0  0  0  0  0  0  0  0  0  0  0  0
   -1.6511   -2.2524   -4.7371 H   0  0  0  0  0  0  0  0  0  0  0  0
   -0.4734   -3.3422   -3.9962 H   0  0  0  0  0  0  0  0  0  0  0  0
   -1.0027   -3.5405   -1.8940 H   0  0  0  0  0  0  0  0  0  0  0  0
   -0.8287   -1.6315    0.2720 H   0  0  0  0  0  0  0  0  0  0  0  0
   -3.7184   -2.7170   -0.3367 H   0  0  0  0  0  0  0  0  0  0  0  0
   -3.8786   -2.3000    2.2424 H   0  0  0  0  0  0  0  0  0  0  0  0
   -2.6079   -1.1164    2.0119 H   0  0  0  0  0  0  0  0  0  0  0  0
   -5.4022   -1.1204    0.7446 H   0  0  0  0  0  0  0  0  0  0  0  0
   -4.8225   -0.0722    2.0390 H   0  0  0  0  0  0  0  0  0  0  0  0
   -6.0226    1.0662   -0.6392 H   0  0  0  0  0  0  0  0  0  0  0  0
   -4.7495    2.2582   -0.9206 H   0  0  0  0  0  0  0  0  0  0  0  0
   -5.4172    2.0445    0.7030 H   0  0  0  0  0  0  0  0  0  0  0  0
   -1.9466    0.2294    0.4342 H   0  0  0  0  0  0  0  0  0  0  0  0
   -2.6341    1.8862   -1.9992 H   0  0  0  0  0  0  0  0  0  0  0  0
   -2.0986    3.6864   -0.6734 H   0  0  0  0  0  0  0  0  0  0  0  0
   -0.3435    3.1202    3.1599 H   0  0  0  0  0  0  0  0  0  0  0  0
   -1.3874    1.6760    3.2690 H   0  0  0  0  0  0  0  0  0  0  0  0
   -1.7673    3.2501    5.1771 H   0  0  0  0  0  0  0  0  0  0  0  0
   -2.2226    4.5328    4.0323 H   0  0  0  0  0  0  0  0  0  0  0  0
   -3.2304    3.0840    4.1938 H   0  0  0  0  0  0  0  0  0  0  0  0
   -2.7352   -5.5183    0.6922 H   0  0  0  0  0  0  0  0  0  0  0  0
   -2.7609   -4.8162   -0.9232 H   0  0  0  0  0  0  0  0  0  0  0  0
   -1.2303   -5.4124   -0.2456 H   0  0  0  0  0  0  0  0  0  0  0  0
   -0.3106   -4.2838    1.8885 H   0  0  0  0  0  0  0  0  0  0  0  0
   -0.9032   -2.6951    2.3703 H   0  0  0  0  0  0  0  0  0  0  0  0
   -1.8902   -4.1325    2.6897 H   0  0  0  0  0  0  0  0  0  0  0  0
  1  2  1  0
  2  3  1  0
  3  4  2  0
  3  5  1  0
  5  6  1  0
  6  7  1  0
  7  8  1  0
  8  9  1  0
  9 10  1  1
 10 11  1  0
 11 12  2  0
 11 13  1  0
 13 14  2  0
 14 15  1  0
 15 16  2  0
 16 17  1  0
 17 18  2  0
 18 19  1  0
 19 20  2  0
  9 21  1  0
 21 22  2  0
 21 23  1  0
 23 24  1  0
 23 25  2  3
 25 26  1  0
 26 27  1  0
 27 28  1  0
 28 29  1  0
 29 30  1  0
 30 31  1  6
 30 32  1  0
 32 33  1  0
 33 34  1  0
 34 35  1  0
 35 36  1  0
 36 37  1  0
 37 38  2  0
 37 39  1  0
 39 40  1  0
 27 41  1  0
 41 42  1  0
 41 43  1  0
 35  7  1  0
 34  9  1  0
 20 15  1  0
 41 26  1  0
 33 30  1  0
  1 44  1  0
  1 45  1  0
  1 46  1  0
  2 47  1  0
  2 48  1  0
  6 49  1  0
  6 50  1  0
  7 51  1  6
  8 52  1  0
  8 53  1  0
 13 54  1  0
 14 55  1  0
 16 56  1  0
 17 57  1  0
 18 58  1  0
 19 59  1  0
 20 60  1  0
 24 61  1  0
 24 62  1  0
 24 63  1  0
 25 64  1  0
 26 65  1  0
 27 66  1  6
 28 67  1  0
 28 68  1  0
 29 69  1  0
 29 70  1  0
 31 71  1  0
 31 72  1  0
 31 73  1  0
 33 74  1  1
 34 75  1  6
 35 76  1  1
 39 77  1  0
 39 78  1  0
 40 79  1  0
 40 80  1  0
 40 81  1  0
 42 82  1  0
 42 83  1  0
 42 84  1  0
 43 85  1  0
 43 86  1  0
 43 87  1  0
M  END
$$$$
