
     RDKit          3D

 69 71  0  0  0  0  0  0  0  0999 V2000
   -0.8937    2.9769   -4.9639 C   0  0  0  0  0  0  0  0  0  0  0  0
   -0.4191    1.7446   -4.4257 O   0  0  0  0  0  0  0  0  0  0  0  0
   -1.3041    1.1164   -3.5892 C   0  0  0  0  0  0  0  0  0  0  0  0
   -2.6399    0.9485   -3.9671 C   0  0  0  0  0  0  0  0  0  0  0  0
   -3.5401    0.3230   -3.1110 C   0  0  0  0  0  0  0  0  0  0  0  0
   -3.1104   -0.1525   -1.8735 C   0  0  0  0  0  0  0  0  0  0  0  0
   -1.7669   -0.0412   -1.4791 C   0  0  0  0  0  0  0  0  0  0  0  0
   -1.2609   -0.5317   -0.1158 C   0  0  0  0  0  0  0  0  0  0  0  0
   -2.0340   -1.6776    0.6027 C   0  0  0  0  0  0  0  0  0  0  0  0
   -2.9627   -2.3121    0.1087 O   0  0  0  0  0  0  0  0  0  0  0  0
   -1.4951   -2.0124    1.8408 N   0  0  0  0  0  0  0  0  0  0  0  0
   -1.9543   -3.1071    2.7036 C   0  0  0  0  0  0  0  0  0  0  0  0
   -1.1112   -3.0722    3.9924 C   0  0  0  0  0  0  0  0  0  0  0  0
   -1.7440   -4.4680    2.0225 C   0  0  0  0  0  0  0  0  0  0  0  0
   -3.4299   -2.9249    3.0905 C   0  0  0  0  0  0  0  0  0  0  0  0
   -1.0067    0.5875    0.8323 N   0  0  0  0  0  0  0  0  0  0  0  0
    0.2253    0.6350    1.4765 C   0  0  0  0  0  0  0  0  0  0  0  0
    0.9688   -0.3509    1.5480 O   0  0  0  0  0  0  0  0  0  0  0  0
    0.5948    1.9494    2.1453 C   0  0  0  0  0  0  0  0  0  0  0  0
    2.0817    2.0080    2.4744 C   0  0  0  0  0  0  0  0  0  0  0  0
    2.8940    2.1317    1.1959 C   0  0  0  0  0  0  0  0  0  0  0  0
    2.8382    3.1624    0.5303 O   0  0  0  0  0  0  0  0  0  0  0  0
    3.6261    0.9973    0.9214 N   0  0  0  0  0  0  0  0  0  0  0  0
    4.4856    0.8550   -0.1498 C   0  0  0  0  0  0  0  0  0  0  0  0
    5.2455   -0.3178   -0.3894 C   0  0  0  0  0  0  0  0  0  0  0  0
    5.9717   -0.0397   -1.5203 C   0  0  0  0  0  0  0  0  0  0  0  0
    6.9669   -0.7769   -2.3201 C   0  0  0  0  0  0  0  0  0  0  0  0
    5.6552    1.2094   -1.9499 O   0  0  0  0  0  0  0  0  0  0  0  0
    4.7340    1.7726   -1.0897 N   0  0  0  0  0  0  0  0  0  0  0  0
   -1.9810    1.6496    0.9333 C   0  0  0  0  0  0  0  0  0  0  0  0
   -3.4595    1.4138    1.0859 C   0  0  0  0  0  0  0  0  0  0  0  0
   -2.6745    1.9284    2.2471 C   0  0  0  0  0  0  0  0  0  0  0  0
   -0.8526    0.5907   -2.3629 C   0  0  0  0  0  0  0  0  0  0  0  0
    0.4277    0.6916   -1.8734 O   0  0  0  0  0  0  0  0  0  0  0  0
    1.4967    0.7724   -2.8073 C   0  0  0  0  0  0  0  0  0  0  0  0
   -1.3965    3.5893   -4.2062 H   0  0  0  0  0  0  0  0  0  0  0  0
   -0.0271    3.5354   -5.3282 H   0  0  0  0  0  0  0  0  0  0  0  0
   -1.5529    2.8011   -5.8187 H   0  0  0  0  0  0  0  0  0  0  0  0
   -2.9946    1.2941   -4.9342 H   0  0  0  0  0  0  0  0  0  0  0  0
   -4.5773    0.1991   -3.4094 H   0  0  0  0  0  0  0  0  0  0  0  0
   -3.8504   -0.6179   -1.2268 H   0  0  0  0  0  0  0  0  0  0  0  0
   -0.3004   -1.0217   -0.3353 H   0  0  0  0  0  0  0  0  0  0  0  0
   -0.5613   -1.6466    2.0143 H   0  0  0  0  0  0  0  0  0  0  0  0
   -1.4295   -3.8461    4.6993 H   0  0  0  0  0  0  0  0  0  0  0  0
   -0.0503   -3.2302    3.7718 H   0  0  0  0  0  0  0  0  0  0  0  0
   -1.1996   -2.1031    4.4932 H   0  0  0  0  0  0  0  0  0  0  0  0
   -2.0054   -5.2903    2.6940 H   0  0  0  0  0  0  0  0  0  0  0  0
   -2.3545   -4.5720    1.1184 H   0  0  0  0  0  0  0  0  0  0  0  0
   -0.6981   -4.5983    1.7234 H   0  0  0  0  0  0  0  0  0  0  0  0
   -4.0995   -3.0212    2.2291 H   0  0  0  0  0  0  0  0  0  0  0  0
   -3.7420   -3.6793    3.8212 H   0  0  0  0  0  0  0  0  0  0  0  0
   -3.5982   -1.9347    3.5313 H   0  0  0  0  0  0  0  0  0  0  0  0
    0.3291    2.7890    1.4948 H   0  0  0  0  0  0  0  0  0  0  0  0
    0.0237    2.0274    3.0751 H   0  0  0  0  0  0  0  0  0  0  0  0
    2.2983    2.8927    3.0867 H   0  0  0  0  0  0  0  0  0  0  0  0
    2.3969    1.1365    3.0615 H   0  0  0  0  0  0  0  0  0  0  0  0
    3.4845    0.1756    1.4960 H   0  0  0  0  0  0  0  0  0  0  0  0
    5.2749   -1.2285    0.1902 H   0  0  0  0  0  0  0  0  0  0  0  0
    6.5300   -1.0991   -3.2710 H   0  0  0  0  0  0  0  0  0  0  0  0
    7.3149   -1.6645   -1.7855 H   0  0  0  0  0  0  0  0  0  0  0  0
    7.8342   -0.1408   -2.5364 H   0  0  0  0  0  0  0  0  0  0  0  0
   -1.7149    2.5069    0.3151 H   0  0  0  0  0  0  0  0  0  0  0  0
   -3.8466    0.4051    1.1533 H   0  0  0  0  0  0  0  0  0  0  0  0
   -4.1317    2.1019    0.5860 H   0  0  0  0  0  0  0  0  0  0  0  0
   -2.5263    1.2495    3.0776 H   0  0  0  0  0  0  0  0  0  0  0  0
   -2.8100    2.9631    2.5378 H   0  0  0  0  0  0  0  0  0  0  0  0
    1.6499    1.8054   -3.1355 H   0  0  0  0  0  0  0  0  0  0  0  0
    1.3533    0.0902   -3.6524 H   0  0  0  0  0  0  0  0  0  0  0  0
    2.4060    0.4530   -2.2945 H   0  0  0  0  0  0  0  0  0  0  0  0
  1  2  1  0
  2  3  1  0
  3  4  2  0
  4  5  1  0
  5  6  2  0
  6  7  1  0
  7  8  1  0
  8  9  1  0
  9 10  2  0
  9 11  1  0
 11 12  1  0
 12 13  1  0
 12 14  1  0
 12 15  1  0
  8 16  1  0
 16 17  1  0
 17 18  2  0
 17 19  1  0
 19 20  1  0
 20 21  1  0
 21 22  2  0
 21 23  1  0
 23 24  1  0
 24 25  1  0
 25 26  2  0
 26 27  1  0
 26 28  1  0
 28 29  1  0
 16 30  1  0
 30 31  1  0
 31 32  1  0
  7 33  2  0
 33 34  1  0
 34 35  1  0
 33  3  1  0
 29 24  2  0
 32 30  1  0
  1 36  1  0
  1 37  1  0
  1 38  1  0
  4 39  1  0
  5 40  1  0
  6 41  1  0
  8 42  1  0
 11 43  1  0
 13 44  1  0
 13 45  1  0
 13 46  1  0
 14 47  1  0
 14 48  1  0
 14 49  1  0
 15 50  1  0
 15 51  1  0
 15 52  1  0
 19 53  1  0
 19 54  1  0
 20 55  1  0
 20 56  1  0
 23 57  1  0
 25 58  1  0
 27 59  1  0
 27 60  1  0
 27 61  1  0
 30 62  1  0
 31 63  1  0
 31 64  1  0
 32 65  1  0
 32 66  1  0
 35 67  1  0
 35 68  1  0
 35 69  1  0
M  END
$$$$
