
     RDKit          3D

 52 55  0  0  0  0  0  0  0  0999 V2000
    7.9923   -2.2648    2.9333 C   0  0  0  0  0  0  0  0  0  0  0  0
    6.9548   -2.7745    2.1051 O   0  0  0  0  0  0  0  0  0  0  0  0
    5.8552   -1.9802    1.9363 C   0  0  0  0  0  0  0  0  0  0  0  0
    4.8776   -2.5056    1.0914 C   0  0  0  0  0  0  0  0  0  0  0  0
    3.7036   -1.7926    0.8296 C   0  0  0  0  0  0  0  0  0  0  0  0
    3.4876   -0.5401    1.4138 C   0  0  0  0  0  0  0  0  0  0  0  0
    2.2863    0.1197    1.0938 N   0  0  0  0  0  0  0  0  0  0  0  0
    1.8097    1.3192    1.5932 C   0  0  0  0  0  0  0  0  0  0  0  0
    2.3728    2.0261    2.4261 O   0  0  0  0  0  0  0  0  0  0  0  0
    0.5085    1.7871    0.9521 C   0  0  0  0  0  0  0  0  0  0  0  0
   -0.6352    0.4101    0.6263 S   0  0  0  0  0  0  0  0  0  0  0  0
   -1.9561    1.2618   -0.1750 C   0  0  0  0  0  0  0  0  0  0  0  0
   -1.9348    2.5592   -0.1261 N   0  0  0  0  0  0  0  0  0  0  0  0
   -2.9181    3.2130   -0.8056 C   0  0  0  0  0  0  0  0  0  0  0  0
   -3.8888    2.6285   -1.5035 C   0  0  0  0  0  0  0  0  0  0  0  0
   -3.9645    1.1550   -1.5473 C   0  0  0  0  0  0  0  0  0  0  0  0
   -4.9003    0.5908   -2.1129 O   0  0  0  0  0  0  0  0  0  0  0  0
   -2.9299    0.5161   -0.8480 N   0  0  0  0  0  0  0  0  0  0  0  0
   -2.9349   -0.9119   -0.8666 C   0  0  0  0  0  0  0  0  0  0  0  0
   -3.1653   -1.6291    0.3172 C   0  0  0  0  0  0  0  0  0  0  0  0
   -3.2012   -3.0243    0.2977 C   0  0  0  0  0  0  0  0  0  0  0  0
   -3.0080   -3.7113   -0.9001 C   0  0  0  0  0  0  0  0  0  0  0  0
   -2.7835   -3.0075   -2.0850 C   0  0  0  0  0  0  0  0  0  0  0  0
   -2.7642   -1.6097   -2.0755 C   0  0  0  0  0  0  0  0  0  0  0  0
   -2.4707   -0.8847   -3.2044 O   0  0  0  0  0  0  0  0  0  0  0  0
   -3.2828   -1.2486   -4.3214 C   0  0  0  0  0  0  0  0  0  0  0  0
   -4.9875    3.6924   -2.2814 S   0  0  0  0  0  0  0  0  0  0  0  0
   -4.3138    5.1364   -1.3866 C   0  0  0  0  0  0  0  0  0  0  0  0
   -2.9478    4.7122   -0.8368 C   0  0  0  0  0  0  0  0  0  0  0  0
    4.4656   -0.0173    2.2599 C   0  0  0  0  0  0  0  0  0  0  0  0
    5.6434   -0.7330    2.5208 C   0  0  0  0  0  0  0  0  0  0  0  0
    7.6442   -2.1282    3.9624 H   0  0  0  0  0  0  0  0  0  0  0  0
    8.4020   -1.3339    2.5270 H   0  0  0  0  0  0  0  0  0  0  0  0
    8.7992   -3.0035    2.9505 H   0  0  0  0  0  0  0  0  0  0  0  0
    5.0317   -3.4785    0.6304 H   0  0  0  0  0  0  0  0  0  0  0  0
    2.9664   -2.2350    0.1650 H   0  0  0  0  0  0  0  0  0  0  0  0
    1.6528   -0.3736    0.4727 H   0  0  0  0  0  0  0  0  0  0  0  0
    0.7629    2.2995    0.0183 H   0  0  0  0  0  0  0  0  0  0  0  0
    0.0305    2.4917    1.6409 H   0  0  0  0  0  0  0  0  0  0  0  0
   -3.3359   -1.1096    1.2568 H   0  0  0  0  0  0  0  0  0  0  0  0
   -3.3817   -3.5760    1.2176 H   0  0  0  0  0  0  0  0  0  0  0  0
   -3.0275   -4.7985   -0.9109 H   0  0  0  0  0  0  0  0  0  0  0  0
   -2.6064   -3.5612   -3.0021 H   0  0  0  0  0  0  0  0  0  0  0  0
   -4.3251   -1.4284   -4.0344 H   0  0  0  0  0  0  0  0  0  0  0  0
   -2.8659   -2.1250   -4.8273 H   0  0  0  0  0  0  0  0  0  0  0  0
   -3.2675   -0.4146   -5.0293 H   0  0  0  0  0  0  0  0  0  0  0  0
   -4.2339    6.0036   -2.0483 H   0  0  0  0  0  0  0  0  0  0  0  0
   -4.9972    5.3851   -0.5681 H   0  0  0  0  0  0  0  0  0  0  0  0
   -2.1434    5.0827   -1.4832 H   0  0  0  0  0  0  0  0  0  0  0  0
   -2.7954    5.1388    0.1605 H   0  0  0  0  0  0  0  0  0  0  0  0
    4.3490    0.9521    2.7350 H   0  0  0  0  0  0  0  0  0  0  0  0
    6.3707   -0.2801    3.1865 H   0  0  0  0  0  0  0  0  0  0  0  0
  1  2  1  0
  2  3  1  0
  3  4  2  0
  4  5  1  0
  5  6  2  0
  6  7  1  0
  7  8  1  0
  8  9  2  0
  8 10  1  0
 10 11  1  0
 11 12  1  0
 12 13  2  0
 13 14  1  0
 14 15  2  0
 15 16  1  0
 16 17  2  0
 16 18  1  0
 18 19  1  0
 19 20  2  0
 20 21  1  0
 21 22  2  0
 22 23  1  0
 23 24  2  0
 24 25  1  0
 25 26  1  0
 15 27  1  0
 27 28  1  0
 28 29  1  0
  6 30  1  0
 30 31  2  0
 31  3  1  0
 18 12  1  0
 24 19  1  0
 29 14  1  0
  1 32  1  0
  1 33  1  0
  1 34  1  0
  4 35  1  0
  5 36  1  0
  7 37  1  0
 10 38  1  0
 10 39  1  0
 20 40  1  0
 21 41  1  0
 22 42  1  0
 23 43  1  0
 26 44  1  0
 26 45  1  0
 26 46  1  0
 28 47  1  0
 28 48  1  0
 29 49  1  0
 29 50  1  0
 30 51  1  0
 31 52  1  0
M  END
$$$$
