
     RDKit          3D

102104  0  0  0  0  0  0  0  0999 V2000
    6.5618    3.8537   -2.2743 C   0  0  0  0  0  0  0  0  0  0  0  0
    5.9045    3.8171   -0.9020 C   0  0  0  0  0  0  0  0  0  0  0  0
    5.1982    2.4909   -0.6043 C   0  0  0  0  0  0  0  0  0  0  0  0
    3.9352    2.2897   -1.4429 C   0  0  0  0  0  0  0  0  0  0  0  0
    3.2401    0.9524   -1.1811 C   0  0  0  0  0  0  0  0  0  0  0  0
    2.7442    0.7113    0.2550 C   0  0  0  0  0  0  0  0  0  0  0  0
    1.9072    1.8215    0.8990 C   0  0  0  0  0  0  0  0  0  0  0  0
    0.7110    2.3165    0.1076 C   0  0  0  0  0  0  0  0  0  0  0  0
    0.4794    2.0572   -1.0686 O   0  0  0  0  0  0  0  0  0  0  0  0
   -0.1086    3.1475    0.8508 N   0  0  0  0  0  0  0  0  0  0  0  0
   -1.3433    3.6909    0.2821 C   0  0  0  0  0  0  0  0  0  0  0  0
   -1.7839    4.9483    1.0436 C   0  0  0  0  0  0  0  0  0  0  0  0
   -0.7857    6.1233    0.9763 C   0  0  0  0  0  0  0  0  0  0  0  0
   -0.5373    6.6046   -0.4542 C   0  0  0  0  0  0  0  0  0  0  0  0
   -1.2917    7.2882    1.8320 C   0  0  0  0  0  0  0  0  0  0  0  0
   -2.4180    2.5812    0.3639 C   0  0  0  0  0  0  0  0  0  0  0  0
   -3.2247    2.4780    1.2806 O   0  0  0  0  0  0  0  0  0  0  0  0
   -2.2994    1.6490   -0.6504 N   0  0  0  0  0  0  0  0  0  0  0  0
   -2.9783    0.3550   -0.5599 C   0  0  0  0  0  0  0  0  0  0  0  0
   -3.1697   -0.2029   -1.9784 C   0  0  0  0  0  0  0  0  0  0  0  0
   -4.2228   -1.2783   -2.0959 C   0  0  0  0  0  0  0  0  0  0  0  0
   -3.8671   -2.5805   -2.4821 C   0  0  0  0  0  0  0  0  0  0  0  0
   -4.8400   -3.5746   -2.5896 C   0  0  0  0  0  0  0  0  0  0  0  0
   -6.1754   -3.2764   -2.3172 C   0  0  0  0  0  0  0  0  0  0  0  0
   -6.5394   -1.9839   -1.9407 C   0  0  0  0  0  0  0  0  0  0  0  0
   -5.5688   -0.9870   -1.8324 C   0  0  0  0  0  0  0  0  0  0  0  0
   -2.0986   -0.5698    0.3234 C   0  0  0  0  0  0  0  0  0  0  0  0
   -1.0201   -0.2068    0.7972 O   0  0  0  0  0  0  0  0  0  0  0  0
   -2.5858   -1.8359    0.5424 N   0  0  0  0  0  0  0  0  0  0  0  0
   -1.9919   -2.8258    1.4483 C   0  0  0  0  0  0  0  0  0  0  0  0
   -1.8620   -2.3516    2.9094 C   0  0  0  0  0  0  0  0  0  0  0  0
   -3.1564   -2.3265    3.7504 C   0  0  0  0  0  0  0  0  0  0  0  0
   -4.2214   -1.3707    3.2112 C   0  0  0  0  0  0  0  0  0  0  0  0
   -3.7439   -3.7242    3.9510 C   0  0  0  0  0  0  0  0  0  0  0  0
   -0.6412   -3.4125    0.9567 C   0  0  0  0  0  0  0  0  0  0  0  0
   -0.4269   -4.6229    0.9732 O   0  0  0  0  0  0  0  0  0  0  0  0
    0.3347   -2.5086    0.6212 N   0  0  0  0  0  0  0  0  0  0  0  0
    1.7180   -2.8969    0.3166 C   0  0  0  0  0  0  0  0  0  0  0  0
    1.8110   -3.5533   -1.0727 C   0  0  0  0  0  0  0  0  0  0  0  0
    3.0180   -4.4500   -1.2281 C   0  0  0  0  0  0  0  0  0  0  0  0
    3.0284   -5.7260   -0.6453 C   0  0  0  0  0  0  0  0  0  0  0  0
    4.1468   -6.5529   -0.7691 C   0  0  0  0  0  0  0  0  0  0  0  0
    5.2650   -6.1099   -1.4726 C   0  0  0  0  0  0  0  0  0  0  0  0
    5.2660   -4.8410   -2.0536 C   0  0  0  0  0  0  0  0  0  0  0  0
    4.1476   -4.0156   -1.9335 C   0  0  0  0  0  0  0  0  0  0  0  0
    2.6631   -1.6835    0.3644 C   0  0  0  0  0  0  0  0  0  0  0  0
    3.8876   -1.7537    0.4009 O   0  0  0  0  0  0  0  0  0  0  0  0
    1.9662   -0.5095    0.2914 O   0  0  0  0  0  0  0  0  0  0  0  0
    7.1411    4.7765   -2.3893 H   0  0  0  0  0  0  0  0  0  0  0  0
    5.8179    3.8280   -3.0738 H   0  0  0  0  0  0  0  0  0  0  0  0
    7.2438    3.0059   -2.4049 H   0  0  0  0  0  0  0  0  0  0  0  0
    5.1964    4.6505   -0.8146 H   0  0  0  0  0  0  0  0  0  0  0  0
    6.6806    3.9785   -0.1460 H   0  0  0  0  0  0  0  0  0  0  0  0
    4.9365    2.4841    0.4603 H   0  0  0  0  0  0  0  0  0  0  0  0
    5.8939    1.6574   -0.7657 H   0  0  0  0  0  0  0  0  0  0  0  0
    3.2354    3.1187   -1.2777 H   0  0  0  0  0  0  0  0  0  0  0  0
    4.1963    2.3150   -2.5078 H   0  0  0  0  0  0  0  0  0  0  0  0
    3.9311    0.1434   -1.4526 H   0  0  0  0  0  0  0  0  0  0  0  0
    2.4090    0.8331   -1.8872 H   0  0  0  0  0  0  0  0  0  0  0  0
    3.6152    0.5832    0.9109 H   0  0  0  0  0  0  0  0  0  0  0  0
    1.5354    1.4596    1.8676 H   0  0  0  0  0  0  0  0  0  0  0  0
    2.5430    2.6938    1.0974 H   0  0  0  0  0  0  0  0  0  0  0  0
   -0.1137    2.9934    1.8523 H   0  0  0  0  0  0  0  0  0  0  0  0
   -1.1878    3.9261   -0.7763 H   0  0  0  0  0  0  0  0  0  0  0  0
   -2.7599    5.2744    0.6580 H   0  0  0  0  0  0  0  0  0  0  0  0
   -1.9463    4.6939    2.0999 H   0  0  0  0  0  0  0  0  0  0  0  0
    0.1757    5.8012    1.3941 H   0  0  0  0  0  0  0  0  0  0  0  0
    0.1050    7.4921   -0.4633 H   0  0  0  0  0  0  0  0  0  0  0  0
   -1.4758    6.8629   -0.9568 H   0  0  0  0  0  0  0  0  0  0  0  0
   -0.0303    5.8411   -1.0523 H   0  0  0  0  0  0  0  0  0  0  0  0
   -0.5676    8.1115    1.8337 H   0  0  0  0  0  0  0  0  0  0  0  0
   -1.4352    6.9735    2.8720 H   0  0  0  0  0  0  0  0  0  0  0  0
   -2.2473    7.6735    1.4557 H   0  0  0  0  0  0  0  0  0  0  0  0
   -1.3746    1.6299   -1.0854 H   0  0  0  0  0  0  0  0  0  0  0  0
   -3.9339    0.4978   -0.0433 H   0  0  0  0  0  0  0  0  0  0  0  0
   -3.4644    0.6094   -2.6584 H   0  0  0  0  0  0  0  0  0  0  0  0
   -2.2101   -0.5740   -2.3621 H   0  0  0  0  0  0  0  0  0  0  0  0
   -2.8304   -2.8324   -2.7045 H   0  0  0  0  0  0  0  0  0  0  0  0
   -4.5580   -4.5796   -2.8952 H   0  0  0  0  0  0  0  0  0  0  0  0
   -6.9335   -4.0503   -2.4118 H   0  0  0  0  0  0  0  0  0  0  0  0
   -7.5844   -1.7497   -1.7437 H   0  0  0  0  0  0  0  0  0  0  0  0
   -5.8753    0.0222   -1.5558 H   0  0  0  0  0  0  0  0  0  0  0  0
   -3.5216   -2.0449    0.2122 H   0  0  0  0  0  0  0  0  0  0  0  0
   -2.6829   -3.6751    1.4021 H   0  0  0  0  0  0  0  0  0  0  0  0
   -1.4066   -1.3549    2.9508 H   0  0  0  0  0  0  0  0  0  0  0  0
   -1.1534   -3.0127    3.4272 H   0  0  0  0  0  0  0  0  0  0  0  0
   -2.8674   -1.9572    4.7440 H   0  0  0  0  0  0  0  0  0  0  0  0
   -4.6591   -1.7354    2.2786 H   0  0  0  0  0  0  0  0  0  0  0  0
   -3.7989   -0.3756    3.0363 H   0  0  0  0  0  0  0  0  0  0  0  0
   -5.0375   -1.2672    3.9339 H   0  0  0  0  0  0  0  0  0  0  0  0
   -2.9807   -4.4145    4.3290 H   0  0  0  0  0  0  0  0  0  0  0  0
   -4.5604   -3.6957    4.6796 H   0  0  0  0  0  0  0  0  0  0  0  0
   -4.1425   -4.1343    3.0193 H   0  0  0  0  0  0  0  0  0  0  0  0
    0.1174   -1.5084    0.6750 H   0  0  0  0  0  0  0  0  0  0  0  0
    2.0240   -3.5841    1.1154 H   0  0  0  0  0  0  0  0  0  0  0  0
    0.9198   -4.1641   -1.2869 H   0  0  0  0  0  0  0  0  0  0  0  0
    1.8220   -2.7796   -1.8559 H   0  0  0  0  0  0  0  0  0  0  0  0
    2.1641   -6.0825   -0.0885 H   0  0  0  0  0  0  0  0  0  0  0  0
    4.1487   -7.5373   -0.3088 H   0  0  0  0  0  0  0  0  0  0  0  0
    6.1385   -6.7502   -1.5640 H   0  0  0  0  0  0  0  0  0  0  0  0
    6.1445   -4.4925   -2.5927 H   0  0  0  0  0  0  0  0  0  0  0  0
    4.1724   -3.0231   -2.3797 H   0  0  0  0  0  0  0  0  0  0  0  0
  1  2  1  0
  2  3  1  0
  3  4  1  0
  4  5  1  0
  5  6  1  0
  6  7  1  0
  7  8  1  0
  8  9  2  0
  8 10  1  0
 10 11  1  0
 11 12  1  0
 12 13  1  0
 13 14  1  0
 13 15  1  0
 11 16  1  0
 16 17  2  0
 16 18  1  0
 18 19  1  0
 19 20  1  0
 20 21  1  0
 21 22  2  0
 22 23  1  0
 23 24  2  0
 24 25  1  0
 25 26  2  0
 19 27  1  0
 27 28  2  0
 27 29  1  0
 29 30  1  0
 30 31  1  0
 31 32  1  0
 32 33  1  0
 32 34  1  0
 30 35  1  0
 35 36  2  0
 35 37  1  0
 37 38  1  0
 38 39  1  0
 39 40  1  0
 40 41  2  0
 41 42  1  0
 42 43  2  0
 43 44  1  0
 44 45  2  0
 38 46  1  0
 46 47  2  0
 46 48  1  0
 48  6  1  0
 26 21  1  0
 45 40  1  0
  1 49  1  0
  1 50  1  0
  1 51  1  0
  2 52  1  0
  2 53  1  0
  3 54  1  0
  3 55  1  0
  4 56  1  0
  4 57  1  0
  5 58  1  0
  5 59  1  0
  6 60  1  0
  7 61  1  0
  7 62  1  0
 10 63  1  0
 11 64  1  0
 12 65  1  0
 12 66  1  0
 13 67  1  0
 14 68  1  0
 14 69  1  0
 14 70  1  0
 15 71  1  0
 15 72  1  0
 15 73  1  0
 18 74  1  0
 19 75  1  0
 20 76  1  0
 20 77  1  0
 22 78  1  0
 23 79  1  0
 24 80  1  0
 25 81  1  0
 26 82  1  0
 29 83  1  0
 30 84  1  0
 31 85  1  0
 31 86  1  0
 32 87  1  0
 33 88  1  0
 33 89  1  0
 33 90  1  0
 34 91  1  0
 34 92  1  0
 34 93  1  0
 37 94  1  0
 38 95  1  0
 39 96  1  0
 39 97  1  0
 41 98  1  0
 42 99  1  0
 43100  1  0
 44101  1  0
 45102  1  0
M  END
$$$$
