
     RDKit          3D

 46 48  0  0  0  0  0  0  0  0999 V2000
   -2.8319   -2.4046   -0.9876 C   0  0  0  0  0  0  0  0  0  0  0  0
   -2.7137   -2.5276    0.3414 C   0  0  0  0  0  0  0  0  0  0  0  0
   -2.3677   -1.4695    1.3558 C   0  0  0  0  0  0  0  0  0  0  0  0
   -2.2350   -0.1221    0.8332 N   0  0  0  0  0  0  0  0  0  0  0  0
   -1.0780    0.5140    0.4612 C   0  0  0  0  0  0  0  0  0  0  0  0
    0.4992   -0.1810    0.5885 S   0  0  0  0  0  0  0  0  0  0  0  0
    1.4759    1.0564   -0.3187 C   0  0  0  0  0  0  0  0  0  0  0  0
    2.9391    0.6817   -0.3488 C   0  0  0  0  0  0  0  0  0  0  0  0
    3.8358    1.2427    0.5723 C   0  0  0  0  0  0  0  0  0  0  0  0
    5.1867    0.8841    0.5578 C   0  0  0  0  0  0  0  0  0  0  0  0
    5.6604   -0.0433   -0.3786 C   0  0  0  0  0  0  0  0  0  0  0  0
    7.0878   -0.4610   -0.4347 C   0  0  0  0  0  0  0  0  0  0  0  0
    7.5019   -1.3652   -1.1439 O   0  0  0  0  0  0  0  0  0  0  0  0
    7.8425    0.3077    0.3913 O   0  0  0  0  0  0  0  0  0  0  0  0
    9.2344   -0.0159    0.3741 C   0  0  0  0  0  0  0  0  0  0  0  0
    4.7669   -0.6116   -1.2944 C   0  0  0  0  0  0  0  0  0  0  0  0
    3.4174   -0.2496   -1.2809 C   0  0  0  0  0  0  0  0  0  0  0  0
   -1.3551    1.7005   -0.0249 N   0  0  0  0  0  0  0  0  0  0  0  0
   -2.7167    1.8579    0.0164 N   0  0  0  0  0  0  0  0  0  0  0  0
   -3.2449    0.7737    0.5517 C   0  0  0  0  0  0  0  0  0  0  0  0
   -4.6550    0.5900    0.7038 C   0  0  0  0  0  0  0  0  0  0  0  0
   -5.3968    0.2096    2.2006 S   0  0  0  0  0  0  0  0  0  0  0  0
   -6.9334    0.2289    1.4455 C   0  0  0  0  0  0  0  0  0  0  0  0
   -8.0575   -0.0341    2.1335 N   0  0  0  0  0  0  0  0  0  0  0  0
   -6.9322    0.5358    0.1741 N   0  0  0  0  0  0  0  0  0  0  0  0
   -5.6350    0.7682   -0.2622 C   0  0  0  0  0  0  0  0  0  0  0  0
   -5.4306    1.1630   -1.6822 C   0  0  0  0  0  0  0  0  0  0  0  0
   -2.6744   -1.4682   -1.5135 H   0  0  0  0  0  0  0  0  0  0  0  0
   -3.0923   -3.2653   -1.6000 H   0  0  0  0  0  0  0  0  0  0  0  0
   -2.8869   -3.5152    0.7684 H   0  0  0  0  0  0  0  0  0  0  0  0
   -1.4366   -1.7433    1.8615 H   0  0  0  0  0  0  0  0  0  0  0  0
   -3.1286   -1.4561    2.1404 H   0  0  0  0  0  0  0  0  0  0  0  0
    1.3568    2.0372    0.1558 H   0  0  0  0  0  0  0  0  0  0  0  0
    1.1018    1.1420   -1.3456 H   0  0  0  0  0  0  0  0  0  0  0  0
    3.4858    1.9605    1.3116 H   0  0  0  0  0  0  0  0  0  0  0  0
    5.8559    1.3329    1.2866 H   0  0  0  0  0  0  0  0  0  0  0  0
    9.3925   -1.0490    0.7015 H   0  0  0  0  0  0  0  0  0  0  0  0
    9.7467    0.6513    1.0741 H   0  0  0  0  0  0  0  0  0  0  0  0
    9.6513    0.1442   -0.6252 H   0  0  0  0  0  0  0  0  0  0  0  0
    5.1181   -1.3387   -2.0236 H   0  0  0  0  0  0  0  0  0  0  0  0
    2.7384   -0.7108   -1.9959 H   0  0  0  0  0  0  0  0  0  0  0  0
   -8.0453    0.1738    3.1245 H   0  0  0  0  0  0  0  0  0  0  0  0
   -8.9067    0.2746    1.6726 H   0  0  0  0  0  0  0  0  0  0  0  0
   -5.0852    2.2002   -1.7443 H   0  0  0  0  0  0  0  0  0  0  0  0
   -4.6905    0.5153   -2.1623 H   0  0  0  0  0  0  0  0  0  0  0  0
   -6.3653    1.0857   -2.2472 H   0  0  0  0  0  0  0  0  0  0  0  0
  1  2  2  0
  2  3  1  0
  3  4  1  0
  4  5  1  0
  5  6  1  0
  6  7  1  0
  7  8  1  0
  8  9  2  0
  9 10  1  0
 10 11  2  0
 11 12  1  0
 12 13  2  0
 12 14  1  0
 14 15  1  0
 11 16  1  0
 16 17  2  0
  5 18  2  0
 18 19  1  0
 19 20  2  0
 20 21  1  0
 21 22  1  0
 22 23  1  0
 23 24  1  0
 23 25  2  0
 25 26  1  0
 26 27  1  0
 20  4  1  0
 26 21  2  0
 17  8  1  0
  1 28  1  0
  1 29  1  0
  2 30  1  0
  3 31  1  0
  3 32  1  0
  7 33  1  0
  7 34  1  0
  9 35  1  0
 10 36  1  0
 15 37  1  0
 15 38  1  0
 15 39  1  0
 16 40  1  0
 17 41  1  0
 24 42  1  0
 24 43  1  0
 27 44  1  0
 27 45  1  0
 27 46  1  0
M  END
$$$$
