
     RDKit          3D

 33 34  0  0  0  0  0  0  0  0999 V2000
   -2.0468    3.7433    1.6381 C   0  0  0  0  0  0  0  0  0  0  0  0
   -1.2730    2.5717    1.3797 O   0  0  0  0  0  0  0  0  0  0  0  0
   -0.3022    2.7613    0.4548 C   0  0  0  0  0  0  0  0  0  0  0  0
    0.0442    3.8072   -0.0644 O   0  0  0  0  0  0  0  0  0  0  0  0
    0.4069    1.4897    0.2707 C   0  0  0  0  0  0  0  0  0  0  0  0
    1.7533    1.4768    0.6297 C   0  0  0  0  0  0  0  0  0  0  0  0
    2.4245    0.2807    0.5315 C   0  0  0  0  0  0  0  0  0  0  0  0
    3.7513    0.2872    0.9032 O   0  0  0  0  0  0  0  0  0  0  0  0
    4.3849   -0.9803    0.7599 C   0  0  0  0  0  0  0  0  0  0  0  0
    1.8440   -0.8626    0.1151 N   0  0  0  0  0  0  0  0  0  0  0  0
    0.5361   -0.8294   -0.2493 C   0  0  0  0  0  0  0  0  0  0  0  0
   -0.2125    0.3316   -0.2067 C   0  0  0  0  0  0  0  0  0  0  0  0
   -1.5897    0.2910   -0.7119 C   0  0  0  0  0  0  0  0  0  0  0  0
   -2.1839    1.3357   -0.9585 O   0  0  0  0  0  0  0  0  0  0  0  0
   -2.1328   -0.9647   -0.9372 N   0  0  0  0  0  0  0  0  0  0  0  0
   -3.5209   -1.0286   -1.3597 C   0  0  0  0  0  0  0  0  0  0  0  0
   -1.3871   -2.1325   -1.0248 C   0  0  0  0  0  0  0  0  0  0  0  0
   -1.8889   -3.1928   -1.4024 O   0  0  0  0  0  0  0  0  0  0  0  0
   -0.0522   -2.0344   -0.6837 N   0  0  0  0  0  0  0  0  0  0  0  0
    0.7977   -3.2155   -0.7368 C   0  0  0  0  0  0  0  0  0  0  0  0
   -2.4924    4.1253    0.7141 H   0  0  0  0  0  0  0  0  0  0  0  0
   -1.4276    4.5096    2.1145 H   0  0  0  0  0  0  0  0  0  0  0  0
   -2.8539    3.4718    2.3240 H   0  0  0  0  0  0  0  0  0  0  0  0
    2.2566    2.3699    0.9859 H   0  0  0  0  0  0  0  0  0  0  0  0
    3.9251   -1.7286    1.4144 H   0  0  0  0  0  0  0  0  0  0  0  0
    5.4295   -0.8673    1.0656 H   0  0  0  0  0  0  0  0  0  0  0  0
    4.3769   -1.3124   -0.2840 H   0  0  0  0  0  0  0  0  0  0  0  0
   -3.9808   -1.9659   -1.0320 H   0  0  0  0  0  0  0  0  0  0  0  0
   -4.0964   -0.1935   -0.9491 H   0  0  0  0  0  0  0  0  0  0  0  0
   -3.5524   -0.9811   -2.4530 H   0  0  0  0  0  0  0  0  0  0  0  0
    1.6441   -3.0267   -1.4055 H   0  0  0  0  0  0  0  0  0  0  0  0
    0.2587   -4.0896   -1.1125 H   0  0  0  0  0  0  0  0  0  0  0  0
    1.1594   -3.4471    0.2704 H   0  0  0  0  0  0  0  0  0  0  0  0
  1  2  1  0
  2  3  1  0
  3  4  2  0
  3  5  1  0
  5  6  2  0
  6  7  1  0
  7  8  1  0
  8  9  1  0
  7 10  2  0
 10 11  1  0
 11 12  2  0
 12 13  1  0
 13 14  2  0
 13 15  1  0
 15 16  1  0
 15 17  1  0
 17 18  2  0
 17 19  1  0
 19 20  1  0
 12  5  1  0
 19 11  1  0
  1 21  1  0
  1 22  1  0
  1 23  1  0
  6 24  1  0
  9 25  1  0
  9 26  1  0
  9 27  1  0
 16 28  1  0
 16 29  1  0
 16 30  1  0
 20 31  1  0
 20 32  1  0
 20 33  1  0
M  END
$$$$
