
     RDKit          3D

 33 33  0  0  0  0  0  0  0  0999 V2000
   -3.5287   -1.3650    1.5158 C   0  0  0  0  0  0  0  0  0  0  0  0
   -2.9516   -1.5328    0.1095 C   0  0  0  0  0  0  0  0  0  0  0  0
   -4.0037   -1.2353   -0.9598 C   0  0  0  0  0  0  0  0  0  0  0  0
   -1.7019   -0.7812   -0.0836 N   0  0  0  0  0  0  0  0  0  0  0  0
   -1.8316    0.6749   -0.0120 C   0  0  0  0  0  0  0  0  0  0  0  0
   -0.4537    1.3315   -0.0926 C   0  0  0  0  0  0  0  0  0  0  0  0
    0.4091    1.0383    1.1343 C   0  0  0  0  0  0  0  0  0  0  0  0
    1.6737    1.6941    1.0180 O   0  0  0  0  0  0  0  0  0  0  0  0
    2.7189    1.0416    0.4223 C   0  0  0  0  0  0  0  0  0  0  0  0
    2.6256   -0.2009   -0.2139 C   0  0  0  0  0  0  0  0  0  0  0  0
    3.7536   -0.7853   -0.8009 C   0  0  0  0  0  0  0  0  0  0  0  0
    4.9807   -0.1291   -0.7585 C   0  0  0  0  0  0  0  0  0  0  0  0
    6.3619   -0.8540   -1.4837 Cl  0  0  0  0  0  0  0  0  0  0  0  0
    5.0948    1.1090   -0.1362 C   0  0  0  0  0  0  0  0  0  0  0  0
    3.9662    1.6902    0.4496 C   0  0  0  0  0  0  0  0  0  0  0  0
    4.1843    3.3862    1.2833 Br  0  0  0  0  0  0  0  0  0  0  0  0
   -4.3436   -2.0790    1.6793 H   0  0  0  0  0  0  0  0  0  0  0  0
   -3.9352   -0.3619    1.6797 H   0  0  0  0  0  0  0  0  0  0  0  0
   -2.7660   -1.5563    2.2786 H   0  0  0  0  0  0  0  0  0  0  0  0
   -2.6803   -2.5913    0.0071 H   0  0  0  0  0  0  0  0  0  0  0  0
   -4.4007   -0.2185   -0.8735 H   0  0  0  0  0  0  0  0  0  0  0  0
   -4.8478   -1.9275   -0.8666 H   0  0  0  0  0  0  0  0  0  0  0  0
   -3.5873   -1.3574   -1.9656 H   0  0  0  0  0  0  0  0  0  0  0  0
   -1.3148   -1.0297   -0.9954 H   0  0  0  0  0  0  0  0  0  0  0  0
   -2.4382    1.0430   -0.8466 H   0  0  0  0  0  0  0  0  0  0  0  0
   -2.3138    0.9897    0.9189 H   0  0  0  0  0  0  0  0  0  0  0  0
    0.0619    1.0244   -1.0106 H   0  0  0  0  0  0  0  0  0  0  0  0
   -0.5776    2.4185   -0.1823 H   0  0  0  0  0  0  0  0  0  0  0  0
   -0.0784    1.4719    2.0158 H   0  0  0  0  0  0  0  0  0  0  0  0
    0.5173   -0.0290    1.3551 H   0  0  0  0  0  0  0  0  0  0  0  0
    1.6881   -0.7441   -0.2792 H   0  0  0  0  0  0  0  0  0  0  0  0
    3.6641   -1.7522   -1.2900 H   0  0  0  0  0  0  0  0  0  0  0  0
    6.0545    1.6173   -0.1079 H   0  0  0  0  0  0  0  0  0  0  0  0
  1  2  1  0
  2  3  1  0
  2  4  1  0
  4  5  1  0
  5  6  1  0
  6  7  1  0
  7  8  1  0
  8  9  1  0
  9 10  2  0
 10 11  1  0
 11 12  2  0
 12 13  1  0
 12 14  1  0
 14 15  2  0
 15 16  1  0
 15  9  1  0
  1 17  1  0
  1 18  1  0
  1 19  1  0
  2 20  1  0
  3 21  1  0
  3 22  1  0
  3 23  1  0
  4 24  1  0
  5 25  1  0
  5 26  1  0
  6 27  1  0
  6 28  1  0
  7 29  1  0
  7 30  1  0
 10 31  1  0
 11 32  1  0
 14 33  1  0
M  END
$$$$
