
     RDKit          3D

 54 57  0  0  0  0  0  0  0  0999 V2000
   -4.5982    3.3655   -3.8099 C   0  0  0  0  0  0  0  0  0  0  0  0
   -3.8054    2.4443   -2.9305 C   0  0  0  0  0  0  0  0  0  0  0  0
   -2.7148    2.9311   -2.2072 C   0  0  0  0  0  0  0  0  0  0  0  0
   -1.9768    2.0917   -1.3543 C   0  0  0  0  0  0  0  0  0  0  0  0
   -0.8243    2.7061   -0.5968 C   0  0  0  0  0  0  0  0  0  0  0  0
   -2.3361    0.7245   -1.2212 C   0  0  0  0  0  0  0  0  0  0  0  0
   -1.5570   -0.0553   -0.3326 N   0  0  0  0  0  0  0  0  0  0  0  0
   -1.9729   -1.0989    0.4741 C   0  0  0  0  0  0  0  0  0  0  0  0
   -3.1236   -1.5110    0.5956 O   0  0  0  0  0  0  0  0  0  0  0  0
   -0.8478   -1.7252    1.3151 C   0  0  0  0  0  0  0  0  0  0  0  0
    0.5143   -1.2670    0.9950 N   0  0  0  0  0  0  0  0  0  0  0  0
    1.0512   -0.2574    1.7864 C   0  0  0  0  0  0  0  0  0  0  0  0
    0.3631    0.3037    2.6448 O   0  0  0  0  0  0  0  0  0  0  0  0
    2.3625    0.1116    1.5369 N   0  0  0  0  0  0  0  0  0  0  0  0
    2.9561    1.1193    2.4074 C   0  0  0  0  0  0  0  0  0  0  0  0
    3.4740    0.4666    3.6426 C   0  0  0  0  0  0  0  0  0  0  0  0
    2.8922    0.1168    4.8440 C   0  0  0  0  0  0  0  0  0  0  0  0
    3.9135   -0.4700    5.6303 C   0  0  0  0  0  0  0  0  0  0  0  0
    5.0507   -0.4440    4.8580 C   0  0  0  0  0  0  0  0  0  0  0  0
    4.7941    0.1237    3.6513 O   0  0  0  0  0  0  0  0  0  0  0  0
    3.1422   -0.3822    0.5048 C   0  0  0  0  0  0  0  0  0  0  0  0
    4.2708    0.0236    0.2422 O   0  0  0  0  0  0  0  0  0  0  0  0
    2.5424   -1.4303   -0.3376 C   0  0  0  0  0  0  0  0  0  0  0  0
    3.2912   -1.9801   -1.3926 C   0  0  0  0  0  0  0  0  0  0  0  0
    2.7326   -2.9587   -2.2089 C   0  0  0  0  0  0  0  0  0  0  0  0
    1.4283   -3.3827   -1.9734 C   0  0  0  0  0  0  0  0  0  0  0  0
    0.6859   -2.8348   -0.9213 C   0  0  0  0  0  0  0  0  0  0  0  0
    1.2376   -1.8526   -0.0817 C   0  0  0  0  0  0  0  0  0  0  0  0
   -3.3901    0.2109   -2.0081 C   0  0  0  0  0  0  0  0  0  0  0  0
   -3.7637   -1.2437   -2.1013 C   0  0  0  0  0  0  0  0  0  0  0  0
   -4.1357    1.0915   -2.8204 C   0  0  0  0  0  0  0  0  0  0  0  0
   -5.0985    4.1280   -3.2037 H   0  0  0  0  0  0  0  0  0  0  0  0
   -3.9394    3.8553   -4.5352 H   0  0  0  0  0  0  0  0  0  0  0  0
   -5.3635    2.8231   -4.3727 H   0  0  0  0  0  0  0  0  0  0  0  0
   -2.4430    3.9826   -2.3014 H   0  0  0  0  0  0  0  0  0  0  0  0
    0.1242    2.2918   -0.9592 H   0  0  0  0  0  0  0  0  0  0  0  0
   -0.9258    2.5184    0.4791 H   0  0  0  0  0  0  0  0  0  0  0  0
   -0.7829    3.7943   -0.7282 H   0  0  0  0  0  0  0  0  0  0  0  0
   -0.6865    0.3619   -0.0289 H   0  0  0  0  0  0  0  0  0  0  0  0
   -0.8992   -2.8155    1.2207 H   0  0  0  0  0  0  0  0  0  0  0  0
   -1.0776   -1.5048    2.3662 H   0  0  0  0  0  0  0  0  0  0  0  0
    3.7659    1.6510    1.8944 H   0  0  0  0  0  0  0  0  0  0  0  0
    2.2034    1.8695    2.6753 H   0  0  0  0  0  0  0  0  0  0  0  0
    1.8559    0.2687    5.1145 H   0  0  0  0  0  0  0  0  0  0  0  0
    3.8326   -0.8621    6.6366 H   0  0  0  0  0  0  0  0  0  0  0  0
    6.0696   -0.7701    5.0131 H   0  0  0  0  0  0  0  0  0  0  0  0
    4.3096   -1.6427   -1.5794 H   0  0  0  0  0  0  0  0  0  0  0  0
    3.3108   -3.3819   -3.0274 H   0  0  0  0  0  0  0  0  0  0  0  0
    0.9814   -4.1434   -2.6111 H   0  0  0  0  0  0  0  0  0  0  0  0
   -0.3291   -3.1989   -0.8018 H   0  0  0  0  0  0  0  0  0  0  0  0
   -4.0858   -1.4848   -3.1204 H   0  0  0  0  0  0  0  0  0  0  0  0
   -2.9127   -1.9006   -1.9082 H   0  0  0  0  0  0  0  0  0  0  0  0
   -4.5904   -1.4765   -1.4241 H   0  0  0  0  0  0  0  0  0  0  0  0
   -4.9756    0.6998   -3.3954 H   0  0  0  0  0  0  0  0  0  0  0  0
  1  2  1  0
  2  3  2  0
  3  4  1  0
  4  5  1  0
  4  6  2  0
  6  7  1  0
  7  8  1  0
  8  9  2  0
  8 10  1  0
 10 11  1  0
 11 12  1  0
 12 13  2  0
 12 14  1  0
 14 15  1  0
 15 16  1  0
 16 17  2  0
 17 18  1  0
 18 19  2  0
 19 20  1  0
 14 21  1  0
 21 22  2  0
 21 23  1  0
 23 24  2  0
 24 25  1  0
 25 26  2  0
 26 27  1  0
 27 28  2  0
  6 29  1  0
 29 30  1  0
 29 31  2  0
 31  2  1  0
 28 11  1  0
 20 16  1  0
 28 23  1  0
  1 32  1  0
  1 33  1  0
  1 34  1  0
  3 35  1  0
  5 36  1  0
  5 37  1  0
  5 38  1  0
  7 39  1  0
 10 40  1  0
 10 41  1  0
 15 42  1  0
 15 43  1  0
 17 44  1  0
 18 45  1  0
 19 46  1  0
 24 47  1  0
 25 48  1  0
 26 49  1  0
 27 50  1  0
 30 51  1  0
 30 52  1  0
 30 53  1  0
 31 54  1  0
M  END
$$$$
