
     RDKit          3D

 47 49  0  0  0  0  0  0  0  0999 V2000
    8.1088   -1.0576   -0.3354 C   0  0  0  0  0  0  0  0  0  0  0  0
    6.7233   -1.5203   -0.7713 C   0  0  0  0  0  0  0  0  0  0  0  0
    5.6327   -0.7412   -0.0805 C   0  0  0  0  0  0  0  0  0  0  0  0
    5.0507   -1.2217    1.0989 C   0  0  0  0  0  0  0  0  0  0  0  0
    4.0620   -0.4806    1.7511 C   0  0  0  0  0  0  0  0  0  0  0  0
    3.6387    0.7445    1.2310 C   0  0  0  0  0  0  0  0  0  0  0  0
    2.6477    1.4882    1.8830 N   0  0  0  0  0  0  0  0  0  0  0  0
    1.4172    1.3216    1.5401 C   0  0  0  0  0  0  0  0  0  0  0  0
    0.9245    0.4699    0.6027 N   0  0  0  0  0  0  0  0  0  0  0  0
   -0.4259    0.4618    0.3966 C   0  0  0  0  0  0  0  0  0  0  0  0
   -0.9828   -0.2701   -0.4055 O   0  0  0  0  0  0  0  0  0  0  0  0
   -1.0814    1.4608    1.2932 C   0  0  0  0  0  0  0  0  0  0  0  0
   -2.3828    1.7729    1.3680 C   0  0  0  0  0  0  0  0  0  0  0  0
   -3.4456    1.1656    0.5636 C   0  0  0  0  0  0  0  0  0  0  0  0
   -3.9659   -0.0893    0.9098 C   0  0  0  0  0  0  0  0  0  0  0  0
   -4.9938   -0.6531    0.1524 C   0  0  0  0  0  0  0  0  0  0  0  0
   -5.6139   -1.8544    0.4013 O   0  0  0  0  0  0  0  0  0  0  0  0
   -5.0956   -2.6283    1.4760 C   0  0  0  0  0  0  0  0  0  0  0  0
   -5.4832    0.0418   -0.9656 C   0  0  0  0  0  0  0  0  0  0  0  0
   -6.5154   -0.5077   -1.6808 O   0  0  0  0  0  0  0  0  0  0  0  0
   -4.9564    1.2814   -1.3259 C   0  0  0  0  0  0  0  0  0  0  0  0
   -5.4126    2.0262   -2.3808 O   0  0  0  0  0  0  0  0  0  0  0  0
   -5.2089    1.3588   -3.6281 C   0  0  0  0  0  0  0  0  0  0  0  0
   -3.9530    1.8541   -0.5451 C   0  0  0  0  0  0  0  0  0  0  0  0
    0.1225    2.2275    2.2781 S   0  0  0  0  0  0  0  0  0  0  0  0
    4.2323    1.2362    0.0670 C   0  0  0  0  0  0  0  0  0  0  0  0
    5.2196    0.4984   -0.5882 C   0  0  0  0  0  0  0  0  0  0  0  0
    8.2502   -1.1827    0.7457 H   0  0  0  0  0  0  0  0  0  0  0  0
    8.8803   -1.6381   -0.8491 H   0  0  0  0  0  0  0  0  0  0  0  0
    8.2690    0.0014   -0.5769 H   0  0  0  0  0  0  0  0  0  0  0  0
    6.6186   -1.4069   -1.8577 H   0  0  0  0  0  0  0  0  0  0  0  0
    6.6056   -2.5928   -0.5640 H   0  0  0  0  0  0  0  0  0  0  0  0
    5.3715   -2.1701    1.5238 H   0  0  0  0  0  0  0  0  0  0  0  0
    3.6279   -0.8552    2.6742 H   0  0  0  0  0  0  0  0  0  0  0  0
    1.5172   -0.1483    0.0709 H   0  0  0  0  0  0  0  0  0  0  0  0
   -2.7269    2.5426    2.0562 H   0  0  0  0  0  0  0  0  0  0  0  0
   -3.5606   -0.6017    1.7781 H   0  0  0  0  0  0  0  0  0  0  0  0
   -5.1904   -2.0971    2.4298 H   0  0  0  0  0  0  0  0  0  0  0  0
   -5.6949   -3.5426    1.5454 H   0  0  0  0  0  0  0  0  0  0  0  0
   -4.0569   -2.9217    1.2867 H   0  0  0  0  0  0  0  0  0  0  0  0
   -6.7337   -1.3345   -1.2108 H   0  0  0  0  0  0  0  0  0  0  0  0
   -4.2020    0.9240   -3.6962 H   0  0  0  0  0  0  0  0  0  0  0  0
   -5.3028    2.1072   -4.4223 H   0  0  0  0  0  0  0  0  0  0  0  0
   -5.9744    0.5900   -3.8067 H   0  0  0  0  0  0  0  0  0  0  0  0
   -3.5665    2.8338   -0.8172 H   0  0  0  0  0  0  0  0  0  0  0  0
    3.9317    2.2046   -0.3271 H   0  0  0  0  0  0  0  0  0  0  0  0
    5.6745    0.9027   -1.4902 H   0  0  0  0  0  0  0  0  0  0  0  0
  1  2  1  0
  2  3  1  0
  3  4  2  0
  4  5  1  0
  5  6  2  0
  6  7  1  0
  7  8  2  3
  8  9  1  0
  9 10  1  0
 10 11  2  0
 10 12  1  0
 12 13  2  3
 13 14  1  0
 14 15  2  0
 15 16  1  0
 16 17  1  0
 17 18  1  0
 16 19  2  0
 19 20  1  0
 19 21  1  0
 21 22  1  0
 22 23  1  0
 21 24  2  0
 12 25  1  0
  6 26  1  0
 26 27  2  0
 27  3  1  0
 25  8  1  0
 24 14  1  0
  1 28  1  0
  1 29  1  0
  1 30  1  0
  2 31  1  0
  2 32  1  0
  4 33  1  0
  5 34  1  0
  9 35  1  0
 13 36  1  0
 15 37  1  0
 18 38  1  0
 18 39  1  0
 18 40  1  0
 20 41  1  0
 23 42  1  0
 23 43  1  0
 23 44  1  0
 24 45  1  0
 26 46  1  0
 27 47  1  0
M  END
$$$$
