
     RDKit          3D

 56 61  0  0  0  0  0  0  0  0999 V2000
    8.2019    3.1392   -0.5802 C   0  0  0  0  0  0  0  0  0  0  0  0
    8.6953    1.8899   -0.1112 O   0  0  0  0  0  0  0  0  0  0  0  0
    7.7793    0.8907    0.0710 C   0  0  0  0  0  0  0  0  0  0  0  0
    8.3151   -0.3134    0.5207 C   0  0  0  0  0  0  0  0  0  0  0  0
    7.4866   -1.4103    0.7452 C   0  0  0  0  0  0  0  0  0  0  0  0
    6.1068   -1.3083    0.5202 C   0  0  0  0  0  0  0  0  0  0  0  0
    5.2601   -2.4057    0.7425 C   0  0  0  0  0  0  0  0  0  0  0  0
    3.8928   -2.2300    0.4982 C   0  0  0  0  0  0  0  0  0  0  0  0
    2.7255   -3.0270    0.5790 C   0  0  0  0  0  0  0  0  0  0  0  0
    1.6627   -2.2243    0.2000 C   0  0  0  0  0  0  0  0  0  0  0  0
    0.2555   -2.5536    0.0525 C   0  0  0  0  0  0  0  0  0  0  0  0
   -0.0971   -3.7243   -0.1052 O   0  0  0  0  0  0  0  0  0  0  0  0
   -0.6909   -1.5189    0.0642 N   0  0  0  0  0  0  0  0  0  0  0  0
   -0.5554   -0.3387    0.9261 C   0  0  0  0  0  0  0  0  0  0  0  0
   -1.4208    0.8351    0.4344 C   0  0  0  0  0  0  0  0  0  0  0  0
   -2.8403    0.4526    0.2770 N   0  0  0  0  0  0  0  0  0  0  0  0
   -3.6231    1.6033   -0.2035 C   0  0  0  0  0  0  0  0  0  0  0  0
   -5.1192    1.3692   -0.1518 C   0  0  0  0  0  0  0  0  0  0  0  0
   -5.8987    1.4623   -1.3285 C   0  0  0  0  0  0  0  0  0  0  0  0
   -7.2818    1.2563   -1.2940 C   0  0  0  0  0  0  0  0  0  0  0  0
   -7.8564    0.9628   -0.0768 C   0  0  0  0  0  0  0  0  0  0  0  0
   -7.1098    0.8726    1.0738 C   0  0  0  0  0  0  0  0  0  0  0  0
   -5.7457    1.0707    1.0713 C   0  0  0  0  0  0  0  0  0  0  0  0
   -7.8682    0.5750    2.1627 O   0  0  0  0  0  0  0  0  0  0  0  0
   -9.1771    0.4836    1.5637 C   0  0  0  0  0  0  0  0  0  0  0  0
   -9.1787    0.7330    0.1427 O   0  0  0  0  0  0  0  0  0  0  0  0
   -2.9340   -0.6949   -0.6536 C   0  0  0  0  0  0  0  0  0  0  0  0
   -2.0816   -1.8929   -0.1955 C   0  0  0  0  0  0  0  0  0  0  0  0
    2.1317   -0.9863   -0.1481 O   0  0  0  0  0  0  0  0  0  0  0  0
    3.4777   -0.9836    0.0483 C   0  0  0  0  0  0  0  0  0  0  0  0
    4.2439    0.0946   -0.1769 N   0  0  0  0  0  0  0  0  0  0  0  0
    5.5489   -0.0889    0.0631 C   0  0  0  0  0  0  0  0  0  0  0  0
    6.4032    0.9857   -0.1512 C   0  0  0  0  0  0  0  0  0  0  0  0
    7.7446    3.0365   -1.5698 H   0  0  0  0  0  0  0  0  0  0  0  0
    9.0534    3.8198   -0.6760 H   0  0  0  0  0  0  0  0  0  0  0  0
    7.5016    3.5807    0.1365 H   0  0  0  0  0  0  0  0  0  0  0  0
    9.3852   -0.3971    0.6964 H   0  0  0  0  0  0  0  0  0  0  0  0
    7.9274   -2.3408    1.0956 H   0  0  0  0  0  0  0  0  0  0  0  0
    5.6424   -3.3598    1.0908 H   0  0  0  0  0  0  0  0  0  0  0  0
    2.6486   -4.0651    0.8729 H   0  0  0  0  0  0  0  0  0  0  0  0
   -0.8722   -0.6431    1.9323 H   0  0  0  0  0  0  0  0  0  0  0  0
    0.4778   -0.0070    1.0202 H   0  0  0  0  0  0  0  0  0  0  0  0
   -1.3376    1.6488    1.1648 H   0  0  0  0  0  0  0  0  0  0  0  0
   -1.0173    1.2028   -0.5186 H   0  0  0  0  0  0  0  0  0  0  0  0
   -3.3144    1.8864   -1.2186 H   0  0  0  0  0  0  0  0  0  0  0  0
   -3.4261    2.4779    0.4313 H   0  0  0  0  0  0  0  0  0  0  0  0
   -5.4250    1.6944   -2.2802 H   0  0  0  0  0  0  0  0  0  0  0  0
   -7.8837    1.3243   -2.1929 H   0  0  0  0  0  0  0  0  0  0  0  0
   -5.1729    0.9885    1.9893 H   0  0  0  0  0  0  0  0  0  0  0  0
   -9.5754   -0.5217    1.7434 H   0  0  0  0  0  0  0  0  0  0  0  0
   -9.8357    1.2138    2.0480 H   0  0  0  0  0  0  0  0  0  0  0  0
   -3.9713   -1.0384   -0.7354 H   0  0  0  0  0  0  0  0  0  0  0  0
   -2.6072   -0.3922   -1.6576 H   0  0  0  0  0  0  0  0  0  0  0  0
   -2.4887   -2.3211    0.7292 H   0  0  0  0  0  0  0  0  0  0  0  0
   -2.1167   -2.6731   -0.9645 H   0  0  0  0  0  0  0  0  0  0  0  0
    5.9545    1.9100   -0.5019 H   0  0  0  0  0  0  0  0  0  0  0  0
  1  2  1  0
  2  3  1  0
  3  4  2  0
  4  5  1  0
  5  6  2  0
  6  7  1  0
  7  8  2  0
  8  9  1  0
  9 10  2  0
 10 11  1  0
 11 12  2  0
 11 13  1  0
 13 14  1  0
 14 15  1  0
 15 16  1  0
 16 17  1  0
 17 18  1  0
 18 19  2  0
 19 20  1  0
 20 21  2  0
 21 22  1  0
 22 23  2  0
 22 24  1  0
 24 25  1  0
 25 26  1  0
 16 27  1  0
 27 28  1  0
 10 29  1  0
 29 30  1  0
 30 31  2  0
 31 32  1  0
 32 33  2  0
 33  3  1  0
 32  6  1  0
 30  8  1  0
 28 13  1  0
 23 18  1  0
 26 21  1  0
  1 34  1  0
  1 35  1  0
  1 36  1  0
  4 37  1  0
  5 38  1  0
  7 39  1  0
  9 40  1  0
 14 41  1  0
 14 42  1  0
 15 43  1  0
 15 44  1  0
 17 45  1  0
 17 46  1  0
 19 47  1  0
 20 48  1  0
 23 49  1  0
 25 50  1  0
 25 51  1  0
 27 52  1  0
 27 53  1  0
 28 54  1  0
 28 55  1  0
 33 56  1  0
M  END
$$$$
