
     RDKit          3D

 43 45  0  0  0  0  0  0  0  0999 V2000
    6.7532   -0.0044    2.7662 C   0  0  0  0  0  0  0  0  0  0  0  0
    5.8432   -0.1778    1.6793 O   0  0  0  0  0  0  0  0  0  0  0  0
    4.5828    0.2487    1.9427 C   0  0  0  0  0  0  0  0  0  0  0  0
    4.2015    0.7461    2.9908 O   0  0  0  0  0  0  0  0  0  0  0  0
    3.6966    0.0328    0.7667 C   0  0  0  0  0  0  0  0  0  0  0  0
    2.3542    0.4203    0.8688 C   0  0  0  0  0  0  0  0  0  0  0  0
    1.4747    0.2391   -0.2060 C   0  0  0  0  0  0  0  0  0  0  0  0
    1.9298   -0.3338   -1.3939 C   0  0  0  0  0  0  0  0  0  0  0  0
    1.1879   -0.5684   -2.5184 O   0  0  0  0  0  0  0  0  0  0  0  0
   -0.2162   -0.3295   -2.4553 C   0  0  0  0  0  0  0  0  0  0  0  0
   -0.9985   -1.3904   -1.6600 C   0  0  0  0  0  0  0  0  0  0  0  0
   -0.5802   -2.5535   -1.6075 O   0  0  0  0  0  0  0  0  0  0  0  0
   -2.1148   -0.9916   -0.9090 N   0  0  0  0  0  0  0  0  0  0  0  0
   -2.4137   -1.8602    0.2337 C   0  0  0  0  0  0  0  0  0  0  0  0
   -3.6228   -1.4640    1.0649 C   0  0  0  0  0  0  0  0  0  0  0  0
   -3.5803    0.0266    1.3423 C   0  0  0  0  0  0  0  0  0  0  0  0
   -3.5762    0.7456    0.0213 C   0  0  0  0  0  0  0  0  0  0  0  0
   -4.2750    1.9566   -0.1056 C   0  0  0  0  0  0  0  0  0  0  0  0
   -4.3333    2.6101   -1.3324 C   0  0  0  0  0  0  0  0  0  0  0  0
   -3.7100    2.0485   -2.4403 C   0  0  0  0  0  0  0  0  0  0  0  0
   -2.9954    0.8532   -2.3135 C   0  0  0  0  0  0  0  0  0  0  0  0
   -2.8713    0.2105   -1.0749 C   0  0  0  0  0  0  0  0  0  0  0  0
    3.2704   -0.7161   -1.4968 C   0  0  0  0  0  0  0  0  0  0  0  0
    4.1523   -0.5377   -0.4264 C   0  0  0  0  0  0  0  0  0  0  0  0
    6.8527    1.0562    3.0175 H   0  0  0  0  0  0  0  0  0  0  0  0
    6.4250   -0.5808    3.6369 H   0  0  0  0  0  0  0  0  0  0  0  0
    7.7313   -0.3789    2.4520 H   0  0  0  0  0  0  0  0  0  0  0  0
    1.9836    0.8673    1.7899 H   0  0  0  0  0  0  0  0  0  0  0  0
    0.4474    0.5604   -0.0727 H   0  0  0  0  0  0  0  0  0  0  0  0
   -0.5718   -0.3908   -3.4893 H   0  0  0  0  0  0  0  0  0  0  0  0
   -0.3950    0.6898   -2.1038 H   0  0  0  0  0  0  0  0  0  0  0  0
   -1.5190   -1.8704    0.8709 H   0  0  0  0  0  0  0  0  0  0  0  0
   -2.5510   -2.8852   -0.1329 H   0  0  0  0  0  0  0  0  0  0  0  0
   -4.5422   -1.7194    0.5217 H   0  0  0  0  0  0  0  0  0  0  0  0
   -3.6354   -2.0301    2.0028 H   0  0  0  0  0  0  0  0  0  0  0  0
   -4.4586    0.3065    1.9351 H   0  0  0  0  0  0  0  0  0  0  0  0
   -2.6852    0.3015    1.9123 H   0  0  0  0  0  0  0  0  0  0  0  0
   -4.7935    2.3851    0.7495 H   0  0  0  0  0  0  0  0  0  0  0  0
   -4.8869    3.5405   -1.4296 H   0  0  0  0  0  0  0  0  0  0  0  0
   -3.7896    2.5328   -3.4107 H   0  0  0  0  0  0  0  0  0  0  0  0
   -2.5873    0.4221   -3.2212 H   0  0  0  0  0  0  0  0  0  0  0  0
    3.6303   -1.1657   -2.4198 H   0  0  0  0  0  0  0  0  0  0  0  0
    5.1864   -0.8518   -0.5411 H   0  0  0  0  0  0  0  0  0  0  0  0
  1  2  1  0
  2  3  1  0
  3  4  2  0
  3  5  1  0
  5  6  2  0
  6  7  1  0
  7  8  2  0
  8  9  1  0
  9 10  1  0
 10 11  1  0
 11 12  2  0
 11 13  1  0
 13 14  1  0
 14 15  1  0
 15 16  1  0
 16 17  1  0
 17 18  2  0
 18 19  1  0
 19 20  2  0
 20 21  1  0
 21 22  2  0
  8 23  1  0
 23 24  2  0
 24  5  1  0
 22 13  1  0
 22 17  1  0
  1 25  1  0
  1 26  1  0
  1 27  1  0
  6 28  1  0
  7 29  1  0
 10 30  1  0
 10 31  1  0
 14 32  1  0
 14 33  1  0
 15 34  1  0
 15 35  1  0
 16 36  1  0
 16 37  1  0
 18 38  1  0
 19 39  1  0
 20 40  1  0
 21 41  1  0
 23 42  1  0
 24 43  1  0
M  END
$$$$
