
     RDKit          3D

 39 41  0  0  0  0  0  0  0  0999 V2000
   -2.7309    1.6251    4.5195 C   0  0  0  0  0  0  0  0  0  0  0  0
   -2.5700    2.1647    3.2139 O   0  0  0  0  0  0  0  0  0  0  0  0
   -2.6855    1.2958    2.1643 C   0  0  0  0  0  0  0  0  0  0  0  0
   -2.5143    1.8796    0.9044 C   0  0  0  0  0  0  0  0  0  0  0  0
   -2.6053    1.1112   -0.2572 C   0  0  0  0  0  0  0  0  0  0  0  0
   -2.8545   -0.2580   -0.1520 C   0  0  0  0  0  0  0  0  0  0  0  0
   -2.9718   -1.2536   -1.6216 S   0  0  0  0  0  6  0  0  0  0  0  0
   -3.2534   -0.3804   -2.7402 O   0  0  0  0  0  0  0  0  0  0  0  0
   -3.8293   -2.3799   -1.3152 O   0  0  0  0  0  0  0  0  0  0  0  0
   -1.4114   -1.8865   -1.7767 N   0  0  0  0  0  0  0  0  0  0  0  0
   -0.3004   -0.9982   -1.8030 C   0  0  0  0  0  0  0  0  0  0  0  0
   -0.1314   -0.1009   -2.8546 C   0  0  0  0  0  0  0  0  0  0  0  0
    0.9390    0.7916   -2.8380 C   0  0  0  0  0  0  0  0  0  0  0  0
    1.8402    0.7803   -1.7744 C   0  0  0  0  0  0  0  0  0  0  0  0
    2.8595    1.6889   -1.8497 O   0  0  0  0  0  0  0  0  0  0  0  0
    1.6813   -0.1132   -0.7056 C   0  0  0  0  0  0  0  0  0  0  0  0
    2.7208   -0.1290    0.7475 S   0  0  0  0  0  0  0  0  0  0  0  0
    4.2621   -0.5891    0.0878 C   0  0  0  0  0  0  0  0  0  0  0  0
    4.9212    0.1829   -0.8345 N   0  0  0  0  0  0  0  0  0  0  0  0
    6.0244   -0.4967   -1.0474 C   0  0  0  0  0  0  0  0  0  0  0  0
    6.0236   -1.6178   -0.2781 N   0  0  0  0  0  0  0  0  0  0  0  0
    4.9063   -1.6968    0.4619 N   0  0  0  0  0  0  0  0  0  0  0  0
    0.5972   -1.0034   -0.7321 C   0  0  0  0  0  0  0  0  0  0  0  0
   -3.0456   -0.8514    1.0991 C   0  0  0  0  0  0  0  0  0  0  0  0
   -2.9559   -0.0718    2.2571 C   0  0  0  0  0  0  0  0  0  0  0  0
   -1.9646    0.8727    4.7331 H   0  0  0  0  0  0  0  0  0  0  0  0
   -3.7371    1.2152    4.6557 H   0  0  0  0  0  0  0  0  0  0  0  0
   -2.6045    2.4418    5.2368 H   0  0  0  0  0  0  0  0  0  0  0  0
   -2.3099    2.9456    0.8292 H   0  0  0  0  0  0  0  0  0  0  0  0
   -2.4736    1.5847   -1.2275 H   0  0  0  0  0  0  0  0  0  0  0  0
   -1.3095   -2.7661   -1.2734 H   0  0  0  0  0  0  0  0  0  0  0  0
   -0.8238   -0.0888   -3.6930 H   0  0  0  0  0  0  0  0  0  0  0  0
    1.0744    1.4950   -3.6556 H   0  0  0  0  0  0  0  0  0  0  0  0
    3.6098    1.3525   -1.3157 H   0  0  0  0  0  0  0  0  0  0  0  0
    6.8303   -0.2362   -1.7193 H   0  0  0  0  0  0  0  0  0  0  0  0
    6.7242   -2.3477   -0.2049 H   0  0  0  0  0  0  0  0  0  0  0  0
    0.4440   -1.6894    0.0973 H   0  0  0  0  0  0  0  0  0  0  0  0
   -3.2683   -1.9128    1.1833 H   0  0  0  0  0  0  0  0  0  0  0  0
   -3.1072   -0.5600    3.2144 H   0  0  0  0  0  0  0  0  0  0  0  0
  1  2  1  0
  2  3  1  0
  3  4  2  0
  4  5  1  0
  5  6  2  0
  6  7  1  0
  7  8  2  0
  7  9  2  0
  7 10  1  0
 10 11  1  0
 11 12  2  0
 12 13  1  0
 13 14  2  0
 14 15  1  0
 14 16  1  0
 16 17  1  0
 17 18  1  0
 18 19  1  0
 19 20  2  0
 20 21  1  0
 21 22  1  0
 16 23  2  0
  6 24  1  0
 24 25  2  0
 25  3  1  0
 23 11  1  0
 22 18  2  0
  1 26  1  0
  1 27  1  0
  1 28  1  0
  4 29  1  0
  5 30  1  0
 10 31  1  0
 12 32  1  0
 13 33  1  0
 15 34  1  0
 20 35  1  0
 21 36  1  0
 23 37  1  0
 24 38  1  0
 25 39  1  0
M  END
$$$$
