
     RDKit          3D

 39 41  0  0  0  0  0  0  0  0999 V2000
    5.4227   -0.8826   -1.4367 C   0  0  0  0  0  0  0  0  0  0  0  0
    4.8893   -0.2962   -0.1416 C   0  0  0  0  0  0  0  0  0  0  0  0
    4.1597    0.9432   -0.3573 N   0  0  0  0  0  0  0  0  0  0  0  0
    4.8584    2.1024   -0.3286 N   0  0  0  0  0  0  0  0  0  0  0  0
    3.9353    3.0370   -0.5492 C   0  0  0  0  0  0  0  0  0  0  0  0
    2.6595    2.4811   -0.6912 C   0  0  0  0  0  0  0  0  0  0  0  0
    1.1388    3.5066   -1.0692 Br  0  0  0  0  0  0  0  0  0  0  0  0
    2.8011    1.1149   -0.5429 C   0  0  0  0  0  0  0  0  0  0  0  0
    1.8412    0.0282   -0.5981 C   0  0  0  0  0  0  0  0  0  0  0  0
    2.1827   -1.0918   -0.9585 O   0  0  0  0  0  0  0  0  0  0  0  0
    0.5766    0.3817   -0.1669 N   0  0  0  0  0  0  0  0  0  0  0  0
   -0.5635   -0.4112   -0.1235 C   0  0  0  0  0  0  0  0  0  0  0  0
   -0.5769   -1.9902   -0.7958 S   0  0  0  0  0  0  0  0  0  0  0  0
   -2.1768   -2.1912   -0.3819 C   0  0  0  0  0  0  0  0  0  0  0  0
   -2.7284   -1.1120    0.2474 C   0  0  0  0  0  0  0  0  0  0  0  0
   -1.7994   -0.0460    0.4215 C   0  0  0  0  0  0  0  0  0  0  0  0
   -2.0364    1.2421    1.0671 C   0  0  0  0  0  0  0  0  0  0  0  0
   -1.1643    2.0973    1.1866 O   0  0  0  0  0  0  0  0  0  0  0  0
   -3.3152    1.3849    1.5202 O   0  0  0  0  0  0  0  0  0  0  0  0
   -3.5731    2.6365    2.1564 C   0  0  0  0  0  0  0  0  0  0  0  0
   -4.1536   -1.3708    0.5837 C   0  0  0  0  0  0  0  0  0  0  0  0
   -4.4694   -2.6513   -0.2516 C   0  0  0  0  0  0  0  0  0  0  0  0
   -3.1037   -3.3298   -0.5716 C   0  0  0  0  0  0  0  0  0  0  0  0
    5.9638   -1.8126   -1.2374 H   0  0  0  0  0  0  0  0  0  0  0  0
    6.1110   -0.1871   -1.9287 H   0  0  0  0  0  0  0  0  0  0  0  0
    4.6144   -1.1014   -2.1415 H   0  0  0  0  0  0  0  0  0  0  0  0
    4.2374   -1.0013    0.3815 H   0  0  0  0  0  0  0  0  0  0  0  0
    5.7195   -0.0713    0.5386 H   0  0  0  0  0  0  0  0  0  0  0  0
    4.2398    4.0744   -0.6011 H   0  0  0  0  0  0  0  0  0  0  0  0
    0.4573    1.3200    0.2107 H   0  0  0  0  0  0  0  0  0  0  0  0
   -2.9408    2.7542    3.0420 H   0  0  0  0  0  0  0  0  0  0  0  0
   -4.6192    2.6451    2.4748 H   0  0  0  0  0  0  0  0  0  0  0  0
   -3.4181    3.4626    1.4553 H   0  0  0  0  0  0  0  0  0  0  0  0
   -4.8156   -0.5486    0.2989 H   0  0  0  0  0  0  0  0  0  0  0  0
   -4.2632   -1.5749    1.6539 H   0  0  0  0  0  0  0  0  0  0  0  0
   -5.1583   -3.3258    0.2665 H   0  0  0  0  0  0  0  0  0  0  0  0
   -4.9483   -2.3523   -1.1935 H   0  0  0  0  0  0  0  0  0  0  0  0
   -3.0911   -3.7363   -1.5865 H   0  0  0  0  0  0  0  0  0  0  0  0
   -2.8932   -4.1276    0.1479 H   0  0  0  0  0  0  0  0  0  0  0  0
  1  2  1  0
  2  3  1  0
  3  4  1  0
  4  5  2  0
  5  6  1  0
  6  7  1  0
  6  8  2  0
  8  9  1  0
  9 10  2  0
  9 11  1  0
 11 12  1  0
 12 13  1  0
 13 14  1  0
 14 15  2  0
 15 16  1  0
 16 17  1  0
 17 18  2  0
 17 19  1  0
 19 20  1  0
 15 21  1  0
 21 22  1  0
 22 23  1  0
  8  3  1  0
 16 12  2  0
 23 14  1  0
  1 24  1  0
  1 25  1  0
  1 26  1  0
  2 27  1  0
  2 28  1  0
  5 29  1  0
 11 30  1  0
 20 31  1  0
 20 32  1  0
 20 33  1  0
 21 34  1  0
 21 35  1  0
 22 36  1  0
 22 37  1  0
 23 38  1  0
 23 39  1  0
M  END
$$$$
