
     RDKit          3D

 36 37  0  0  0  0  0  0  0  0999 V2000
   -2.0365    0.5718    2.9273 O   0  0  0  0  0  0  0  0  0  0  0  0
   -0.9121    0.6700    2.4465 C   0  0  0  0  0  0  0  0  0  0  0  0
    0.3443    0.2329    3.2048 C   0  0  0  0  0  0  0  0  0  0  0  0
    1.4783   -0.0487    2.3790 O   0  0  0  0  0  0  0  0  0  0  0  0
    1.3931   -1.2199    1.7038 C   0  0  0  0  0  0  0  0  0  0  0  0
    0.4695   -2.0103    1.6963 O   0  0  0  0  0  0  0  0  0  0  0  0
    2.6275   -1.3862    0.9288 C   0  0  0  0  0  0  0  0  0  0  0  0
    3.7864   -1.7749    1.6152 C   0  0  0  0  0  0  0  0  0  0  0  0
    4.9727   -1.9659    0.9115 C   0  0  0  0  0  0  0  0  0  0  0  0
    4.9973   -1.7705   -0.4698 C   0  0  0  0  0  0  0  0  0  0  0  0
    3.8375   -1.3817   -1.1532 C   0  0  0  0  0  0  0  0  0  0  0  0
    3.9646   -1.1543   -2.8628 Cl  0  0  0  0  0  0  0  0  0  0  0  0
    2.6369   -1.1861   -0.4568 C   0  0  0  0  0  0  0  0  0  0  0  0
    1.1984   -0.6727   -1.2795 Cl  0  0  0  0  0  0  0  0  0  0  0  0
   -0.6691    1.2236    1.2080 N   0  0  0  0  0  0  0  0  0  0  0  0
   -1.7404    1.6577    0.3312 C   0  0  0  0  0  0  0  0  0  0  0  0
   -2.5826    0.4922   -0.2087 C   0  0  0  0  0  0  0  0  0  0  0  0
   -3.3466    0.8687   -1.3853 N   0  0  0  0  0  0  0  0  0  0  0  0
   -2.8714    0.8825   -2.6766 C   0  0  0  0  0  0  0  0  0  0  0  0
   -1.6312    0.4177   -2.9951 O   0  0  0  0  0  0  0  0  0  0  0  0
   -3.7129    1.3984   -3.5766 C   0  0  0  0  0  0  0  0  0  0  0  0
   -5.1946    1.9154   -2.8411 S   0  0  0  0  0  0  0  0  0  0  0  0
   -4.6081    1.4400   -1.2369 C   0  0  0  0  0  0  0  0  0  0  0  0
   -5.2346    1.6292   -0.2083 O   0  0  0  0  0  0  0  0  0  0  0  0
    0.6247    1.0534    3.8735 H   0  0  0  0  0  0  0  0  0  0  0  0
    0.1066   -0.6378    3.8273 H   0  0  0  0  0  0  0  0  0  0  0  0
    3.7634   -1.9350    2.6915 H   0  0  0  0  0  0  0  0  0  0  0  0
    5.8771   -2.2703    1.4349 H   0  0  0  0  0  0  0  0  0  0  0  0
    5.9283   -1.9230   -1.0132 H   0  0  0  0  0  0  0  0  0  0  0  0
    0.2872    1.2739    0.8781 H   0  0  0  0  0  0  0  0  0  0  0  0
   -2.3775    2.3621    0.8780 H   0  0  0  0  0  0  0  0  0  0  0  0
   -1.2639    2.2064   -0.4884 H   0  0  0  0  0  0  0  0  0  0  0  0
   -3.2798    0.1590    0.5697 H   0  0  0  0  0  0  0  0  0  0  0  0
   -1.9579   -0.3762   -0.4416 H   0  0  0  0  0  0  0  0  0  0  0  0
   -1.3642   -0.2367   -2.3310 H   0  0  0  0  0  0  0  0  0  0  0  0
   -3.5106    1.4954   -4.6337 H   0  0  0  0  0  0  0  0  0  0  0  0
  1  2  2  0
  2  3  1  0
  3  4  1  0
  4  5  1  0
  5  6  2  0
  5  7  1  0
  7  8  2  0
  8  9  1  0
  9 10  2  0
 10 11  1  0
 11 12  1  0
 11 13  2  0
 13 14  1  0
  2 15  1  0
 15 16  1  0
 16 17  1  0
 17 18  1  0
 18 19  1  0
 19 20  1  0
 19 21  2  0
 21 22  1  0
 22 23  1  0
 23 24  2  0
 13  7  1  0
 23 18  1  0
  3 25  1  0
  3 26  1  0
  8 27  1  0
  9 28  1  0
 10 29  1  0
 15 30  1  0
 16 31  1  0
 16 32  1  0
 17 33  1  0
 17 34  1  0
 20 35  1  0
 21 36  1  0
M  END
$$$$
