
     RDKit          3D

 51 55  0  0  0  0  0  0  0  0999 V2000
   -3.6232   -1.6799   -2.2604 C   0  0  0  0  0  0  0  0  0  0  0  0
   -2.9630   -1.3428   -0.9455 C   0  0  0  0  0  0  0  0  0  0  0  0
   -1.5858   -1.1807   -1.0198 N   0  0  0  0  0  0  0  0  0  0  0  0
   -0.8327   -0.8808    0.0593 C   0  0  0  0  0  0  0  0  0  0  0  0
    0.5134   -0.6587    0.2536 C   0  0  0  0  0  0  0  0  0  0  0  0
    1.5320   -0.6964   -0.7787 C   0  0  0  0  0  0  0  0  0  0  0  0
    1.2725   -1.0031   -1.9395 O   0  0  0  0  0  0  0  0  0  0  0  0
    2.8005   -0.3536   -0.3720 N   0  0  0  0  0  0  0  0  0  0  0  0
    3.8751   -0.2600   -1.3305 C   0  0  0  0  0  0  0  0  0  0  0  0
    5.1895   -0.0365   -0.6321 C   0  0  0  0  0  0  0  0  0  0  0  0
    5.9167   -1.1371   -0.1213 C   0  0  0  0  0  0  0  0  0  0  0  0
    7.1247   -0.9492    0.5578 C   0  0  0  0  0  0  0  0  0  0  0  0
    7.5751    0.3425    0.7179 C   0  0  0  0  0  0  0  0  0  0  0  0
    6.8711    1.4194    0.2341 C   0  0  0  0  0  0  0  0  0  0  0  0
    5.6777    1.2663   -0.4399 C   0  0  0  0  0  0  0  0  0  0  0  0
    7.4834    2.6032    0.5036 O   0  0  0  0  0  0  0  0  0  0  0  0
    8.6593    2.1468    1.2050 C   0  0  0  0  0  0  0  0  0  0  0  0
    8.7201    0.7127    1.3506 O   0  0  0  0  0  0  0  0  0  0  0  0
    0.5990   -0.4175    1.6462 C   0  0  0  0  0  0  0  0  0  0  0  0
   -0.5803   -0.4684    2.2733 N   0  0  0  0  0  0  0  0  0  0  0  0
   -1.4615   -0.7534    1.2753 N   0  0  0  0  0  0  0  0  0  0  0  0
   -2.8420   -0.9078    1.4794 C   0  0  0  0  0  0  0  0  0  0  0  0
   -3.3293   -0.8189    2.6003 O   0  0  0  0  0  0  0  0  0  0  0  0
   -3.6339   -1.1997    0.2265 C   0  0  0  0  0  0  0  0  0  0  0  0
   -5.1211   -1.3365    0.4448 C   0  0  0  0  0  0  0  0  0  0  0  0
   -5.8570   -0.0175    0.3961 C   0  0  0  0  0  0  0  0  0  0  0  0
   -5.9817    0.7811    1.5428 C   0  0  0  0  0  0  0  0  0  0  0  0
   -6.6483    2.0084    1.4865 C   0  0  0  0  0  0  0  0  0  0  0  0
   -7.1988    2.4540    0.2856 C   0  0  0  0  0  0  0  0  0  0  0  0
   -7.0830    1.6706   -0.8601 C   0  0  0  0  0  0  0  0  0  0  0  0
   -6.4169    0.4491   -0.7971 C   0  0  0  0  0  0  0  0  0  0  0  0
   -6.3264   -0.2869   -1.9136 F   0  0  0  0  0  0  0  0  0  0  0  0
   -4.6423   -2.0550   -2.1575 H   0  0  0  0  0  0  0  0  0  0  0  0
   -3.6455   -0.7953   -2.9051 H   0  0  0  0  0  0  0  0  0  0  0  0
   -3.0571   -2.4640   -2.7764 H   0  0  0  0  0  0  0  0  0  0  0  0
   -1.1469   -1.2877   -1.9392 H   0  0  0  0  0  0  0  0  0  0  0  0
    2.9526    0.0437    0.5431 H   0  0  0  0  0  0  0  0  0  0  0  0
    3.9072   -1.1767   -1.9312 H   0  0  0  0  0  0  0  0  0  0  0  0
    3.6530    0.5643   -2.0184 H   0  0  0  0  0  0  0  0  0  0  0  0
    5.5365   -2.1488   -0.2546 H   0  0  0  0  0  0  0  0  0  0  0  0
    7.6882   -1.7893    0.9479 H   0  0  0  0  0  0  0  0  0  0  0  0
    5.1422    2.1358   -0.8070 H   0  0  0  0  0  0  0  0  0  0  0  0
    9.5470    2.4818    0.6561 H   0  0  0  0  0  0  0  0  0  0  0  0
    8.6704    2.6010    2.2025 H   0  0  0  0  0  0  0  0  0  0  0  0
    1.4771   -0.2081    2.2436 H   0  0  0  0  0  0  0  0  0  0  0  0
   -5.3200   -1.8224    1.4097 H   0  0  0  0  0  0  0  0  0  0  0  0
   -5.5689   -2.0282   -0.2772 H   0  0  0  0  0  0  0  0  0  0  0  0
   -5.5594    0.4535    2.4921 H   0  0  0  0  0  0  0  0  0  0  0  0
   -6.7352    2.6165    2.3841 H   0  0  0  0  0  0  0  0  0  0  0  0
   -7.7166    3.4087    0.2444 H   0  0  0  0  0  0  0  0  0  0  0  0
   -7.5074    2.0018   -1.8024 H   0  0  0  0  0  0  0  0  0  0  0  0
  1  2  1  0
  2  3  1  0
  3  4  1  0
  4  5  2  0
  5  6  1  0
  6  7  2  0
  6  8  1  0
  8  9  1  0
  9 10  1  0
 10 11  2  0
 11 12  1  0
 12 13  2  0
 13 14  1  0
 14 15  2  0
 14 16  1  0
 16 17  1  0
 17 18  1  0
  5 19  1  0
 19 20  2  0
 20 21  1  0
 21 22  1  0
 22 23  2  0
 22 24  1  0
 24 25  1  0
 25 26  1  0
 26 27  2  0
 27 28  1  0
 28 29  2  0
 29 30  1  0
 30 31  2  0
 31 32  1  0
 24  2  2  0
 31 26  1  0
 21  4  1  0
 15 10  1  0
 18 13  1  0
  1 33  1  0
  1 34  1  0
  1 35  1  0
  3 36  1  0
  8 37  1  0
  9 38  1  0
  9 39  1  0
 11 40  1  0
 12 41  1  0
 15 42  1  0
 17 43  1  0
 17 44  1  0
 19 45  1  0
 25 46  1  0
 25 47  1  0
 27 48  1  0
 28 49  1  0
 29 50  1  0
 30 51  1  0
M  END
$$$$
