
     RDKit          3D

 55 58  0  0  0  0  0  0  0  0999 V2000
    3.0754   -3.4867    0.3415 O   0  0  0  0  0  0  0  0  0  0  0  0
    2.4448   -2.7480    1.0999 C   0  0  0  0  0  0  0  0  0  0  0  0
    1.2721   -3.2359    1.9289 C   0  0  0  0  0  0  0  0  0  0  0  0
   -0.2758   -3.1326    0.9844 S   0  0  0  0  0  0  0  0  0  0  0  0
   -0.5872   -1.4368    1.0569 C   0  0  0  0  0  0  0  0  0  0  0  0
    0.1242   -0.5693    1.7337 N   0  0  0  0  0  0  0  0  0  0  0  0
   -0.3926    0.6684    1.4869 N   0  0  0  0  0  0  0  0  0  0  0  0
   -1.4479    0.5417    0.6977 C   0  0  0  0  0  0  0  0  0  0  0  0
   -2.2083    1.6717    0.1665 C   0  0  0  0  0  0  0  0  0  0  0  0
   -3.6089    1.6871    0.1797 C   0  0  0  0  0  0  0  0  0  0  0  0
   -4.3165    2.7681   -0.3553 C   0  0  0  0  0  0  0  0  0  0  0  0
   -3.6334    3.8538   -0.8985 C   0  0  0  0  0  0  0  0  0  0  0  0
   -2.2409    3.8723   -0.8870 C   0  0  0  0  0  0  0  0  0  0  0  0
   -1.5375    2.7974   -0.3440 C   0  0  0  0  0  0  0  0  0  0  0  0
   -0.1716    2.9096   -0.3492 O   0  0  0  0  0  0  0  0  0  0  0  0
   -1.6077   -0.7985    0.4028 N   0  0  0  0  0  0  0  0  0  0  0  0
   -2.5610   -1.3913   -0.5197 C   0  0  0  0  0  0  0  0  0  0  0  0
   -3.8336   -1.9057    0.1200 C   0  0  0  0  0  0  0  0  0  0  0  0
   -4.8584   -2.3547   -0.7317 C   0  0  0  0  0  0  0  0  0  0  0  0
   -6.0565   -2.8535   -0.2147 C   0  0  0  0  0  0  0  0  0  0  0  0
   -6.2493   -2.9133    1.1613 C   0  0  0  0  0  0  0  0  0  0  0  0
   -5.2447   -2.4779    2.0207 C   0  0  0  0  0  0  0  0  0  0  0  0
   -4.0450   -1.9792    1.5054 C   0  0  0  0  0  0  0  0  0  0  0  0
    2.7708   -1.4139    1.2797 N   0  0  0  0  0  0  0  0  0  0  0  0
    3.7558   -0.8837    0.4314 N   0  0  0  0  0  0  0  0  0  0  0  0
    3.8737    0.4869    0.3297 C   0  0  0  0  0  0  0  0  0  0  0  0
    3.1188    1.2731    0.9031 O   0  0  0  0  0  0  0  0  0  0  0  0
    5.0062    1.0166   -0.4776 C   0  0  0  0  0  0  0  0  0  0  0  0
    5.6305    0.2460   -1.4711 C   0  0  0  0  0  0  0  0  0  0  0  0
    6.7093    0.7657   -2.1942 C   0  0  0  0  0  0  0  0  0  0  0  0
    7.1685    2.0544   -1.9352 C   0  0  0  0  0  0  0  0  0  0  0  0
    6.5431    2.8352   -0.9641 C   0  0  0  0  0  0  0  0  0  0  0  0
    5.4633    2.3232   -0.2475 C   0  0  0  0  0  0  0  0  0  0  0  0
    4.8996    3.1652    0.6744 O   0  0  0  0  0  0  0  0  0  0  0  0
    1.2067   -2.6873    2.8739 H   0  0  0  0  0  0  0  0  0  0  0  0
    1.4573   -4.2842    2.1812 H   0  0  0  0  0  0  0  0  0  0  0  0
   -4.1745    0.8724    0.6230 H   0  0  0  0  0  0  0  0  0  0  0  0
   -5.4026    2.7648   -0.3397 H   0  0  0  0  0  0  0  0  0  0  0  0
   -4.1830    4.6977   -1.3102 H   0  0  0  0  0  0  0  0  0  0  0  0
   -1.6993    4.7269   -1.2871 H   0  0  0  0  0  0  0  0  0  0  0  0
    0.2089    2.2363    0.2540 H   0  0  0  0  0  0  0  0  0  0  0  0
   -2.8035   -0.6380   -1.2778 H   0  0  0  0  0  0  0  0  0  0  0  0
   -2.0597   -2.2100   -1.0449 H   0  0  0  0  0  0  0  0  0  0  0  0
   -4.7317   -2.3228   -1.8119 H   0  0  0  0  0  0  0  0  0  0  0  0
   -6.8392   -3.1982   -0.8870 H   0  0  0  0  0  0  0  0  0  0  0  0
   -7.1792   -3.3061    1.5649 H   0  0  0  0  0  0  0  0  0  0  0  0
   -5.3901   -2.5307    3.0973 H   0  0  0  0  0  0  0  0  0  0  0  0
   -3.2879   -1.6555    2.2176 H   0  0  0  0  0  0  0  0  0  0  0  0
    2.0578   -0.7455    1.6043 H   0  0  0  0  0  0  0  0  0  0  0  0
    4.4140   -1.5527    0.0446 H   0  0  0  0  0  0  0  0  0  0  0  0
    5.2848   -0.7519   -1.7201 H   0  0  0  0  0  0  0  0  0  0  0  0
    7.1896    0.1657   -2.9644 H   0  0  0  0  0  0  0  0  0  0  0  0
    8.0071    2.4575   -2.4961 H   0  0  0  0  0  0  0  0  0  0  0  0
    6.8875    3.8461   -0.7707 H   0  0  0  0  0  0  0  0  0  0  0  0
    4.0577    2.7602    0.9833 H   0  0  0  0  0  0  0  0  0  0  0  0
  1  2  2  0
  2  3  1  0
  3  4  1  0
  4  5  1  0
  5  6  2  0
  6  7  1  0
  7  8  2  0
  8  9  1  0
  9 10  2  0
 10 11  1  0
 11 12  2  0
 12 13  1  0
 13 14  2  0
 14 15  1  0
  8 16  1  0
 16 17  1  0
 17 18  1  0
 18 19  2  0
 19 20  1  0
 20 21  2  0
 21 22  1  0
 22 23  2  0
  2 24  1  0
 24 25  1  0
 25 26  1  0
 26 27  2  0
 26 28  1  0
 28 29  2  0
 29 30  1  0
 30 31  2  0
 31 32  1  0
 32 33  2  0
 33 34  1  0
 16  5  1  0
 23 18  1  0
 33 28  1  0
 14  9  1  0
  3 35  1  0
  3 36  1  0
 10 37  1  0
 11 38  1  0
 12 39  1  0
 13 40  1  0
 15 41  1  0
 17 42  1  0
 17 43  1  0
 19 44  1  0
 20 45  1  0
 21 46  1  0
 22 47  1  0
 23 48  1  0
 24 49  1  0
 25 50  1  0
 29 51  1  0
 30 52  1  0
 31 53  1  0
 32 54  1  0
 34 55  1  0
M  END
$$$$
