
     RDKit          3D

 60 64  0  0  0  0  0  0  0  0999 V2000
   -2.0775   -0.4904    2.1608 C   0  0  0  0  0  0  0  0  0  0  0  0
   -2.2785   -0.8495    0.7608 N   0  0  0  0  0  0  0  0  0  0  0  0
   -3.5028   -1.4364    0.4270 C   0  0  0  0  0  0  0  0  0  0  0  0
   -4.3382   -1.7542    1.2750 O   0  0  0  0  0  0  0  0  0  0  0  0
   -3.8039   -1.6399   -1.0271 C   0  0  0  0  0  0  0  0  0  0  0  0
   -5.0190   -1.4185   -1.5615 C   0  0  0  0  0  0  0  0  0  0  0  0
   -6.1852   -0.8663   -0.8660 C   0  0  0  0  0  0  0  0  0  0  0  0
   -6.1983    0.4636   -0.4315 C   0  0  0  0  0  0  0  0  0  0  0  0
   -7.3214    0.9815    0.2196 C   0  0  0  0  0  0  0  0  0  0  0  0
   -8.4477    0.1768    0.4469 C   0  0  0  0  0  0  0  0  0  0  0  0
   -9.6690    0.7282    1.1398 C   0  0  0  0  0  0  0  0  0  0  0  0
   -9.4299    1.8792    1.8302 F   0  0  0  0  0  0  0  0  0  0  0  0
  -10.2054   -0.1410    2.0417 F   0  0  0  0  0  0  0  0  0  0  0  0
  -10.6709    1.0217    0.2640 F   0  0  0  0  0  0  0  0  0  0  0  0
   -8.4332   -1.1517   -0.0058 C   0  0  0  0  0  0  0  0  0  0  0  0
   -7.3106   -1.6689   -0.6579 C   0  0  0  0  0  0  0  0  0  0  0  0
   -2.5272   -2.2469   -2.0147 S   0  0  0  0  0  0  0  0  0  0  0  0
   -1.2571   -1.1253   -1.4775 C   0  0  0  0  0  0  0  0  0  0  0  0
   -0.2265   -0.8463   -2.3913 C   0  0  0  0  0  0  0  0  0  0  0  0
    0.8337   -0.0165   -2.0351 C   0  0  0  0  0  0  0  0  0  0  0  0
    0.8777    0.5198   -0.7496 C   0  0  0  0  0  0  0  0  0  0  0  0
    1.9759    1.4291   -0.3421 C   0  0  0  0  0  0  0  0  0  0  0  0
    1.6756    2.4579    0.2587 O   0  0  0  0  0  0  0  0  0  0  0  0
    3.2861    1.0920   -0.6813 N   0  0  0  0  0  0  0  0  0  0  0  0
    3.7705   -0.3002   -0.6146 C   0  0  0  0  0  0  0  0  0  0  0  0
    4.3774   -0.6047    0.7769 C   0  0  0  0  0  0  0  0  0  0  0  0
    5.3924    0.3971    1.1851 N   0  0  0  0  0  0  0  0  0  0  0  0
    6.6717    0.1802    0.6462 C   0  0  0  0  0  0  0  0  0  0  0  0
    7.7640    0.8946    1.1442 C   0  0  0  0  0  0  0  0  0  0  0  0
    9.0392    0.6784    0.6235 C   0  0  0  0  0  0  0  0  0  0  0  0
    9.2072   -0.2583   -0.3829 C   0  0  0  0  0  0  0  0  0  0  0  0
    8.0878   -0.9420   -0.8161 C   0  0  0  0  0  0  0  0  0  0  0  0
    6.8431   -0.7448   -0.3242 N   0  0  0  0  0  0  0  0  0  0  0  0
    4.9018    1.7946    1.0653 C   0  0  0  0  0  0  0  0  0  0  0  0
    4.3321    2.0645   -0.3434 C   0  0  0  0  0  0  0  0  0  0  0  0
   -0.1567    0.2613    0.1602 C   0  0  0  0  0  0  0  0  0  0  0  0
   -1.2398   -0.5658   -0.1865 C   0  0  0  0  0  0  0  0  0  0  0  0
   -2.1120    0.5992    2.2594 H   0  0  0  0  0  0  0  0  0  0  0  0
   -2.8513   -0.9074    2.8113 H   0  0  0  0  0  0  0  0  0  0  0  0
   -1.1146   -0.8780    2.5086 H   0  0  0  0  0  0  0  0  0  0  0  0
   -5.2002   -1.6320   -2.6130 H   0  0  0  0  0  0  0  0  0  0  0  0
   -5.3357    1.1065   -0.5929 H   0  0  0  0  0  0  0  0  0  0  0  0
   -7.3097    2.0178    0.5549 H   0  0  0  0  0  0  0  0  0  0  0  0
   -9.2970   -1.7949    0.1572 H   0  0  0  0  0  0  0  0  0  0  0  0
   -7.3164   -2.7059   -0.9866 H   0  0  0  0  0  0  0  0  0  0  0  0
   -0.2455   -1.2754   -3.3919 H   0  0  0  0  0  0  0  0  0  0  0  0
    1.6136    0.2099   -2.7582 H   0  0  0  0  0  0  0  0  0  0  0  0
    2.9663   -1.0143   -0.8038 H   0  0  0  0  0  0  0  0  0  0  0  0
    4.5124   -0.4194   -1.4108 H   0  0  0  0  0  0  0  0  0  0  0  0
    4.7750   -1.6268    0.8137 H   0  0  0  0  0  0  0  0  0  0  0  0
    3.5714   -0.5717    1.5219 H   0  0  0  0  0  0  0  0  0  0  0  0
    7.6341    1.5994    1.9588 H   0  0  0  0  0  0  0  0  0  0  0  0
    9.8898    1.2298    1.0130 H   0  0  0  0  0  0  0  0  0  0  0  0
   10.1828   -0.4585   -0.8101 H   0  0  0  0  0  0  0  0  0  0  0  0
    8.1603   -1.6948   -1.5957 H   0  0  0  0  0  0  0  0  0  0  0  0
    5.6743    2.5332    1.3038 H   0  0  0  0  0  0  0  0  0  0  0  0
    4.1074    1.9327    1.8094 H   0  0  0  0  0  0  0  0  0  0  0  0
    3.9347    3.0835   -0.3994 H   0  0  0  0  0  0  0  0  0  0  0  0
    5.1188    1.9755   -1.1016 H   0  0  0  0  0  0  0  0  0  0  0  0
   -0.0957    0.7393    1.1345 H   0  0  0  0  0  0  0  0  0  0  0  0
  1  2  1  0
  2  3  1  0
  3  4  2  0
  3  5  1  0
  5  6  2  3
  6  7  1  0
  7  8  2  0
  8  9  1  0
  9 10  2  0
 10 11  1  0
 11 12  1  0
 11 13  1  0
 11 14  1  0
 10 15  1  0
 15 16  2  0
  5 17  1  0
 17 18  1  0
 18 19  2  0
 19 20  1  0
 20 21  2  0
 21 22  1  0
 22 23  2  0
 22 24  1  0
 24 25  1  0
 25 26  1  0
 26 27  1  0
 27 28  1  0
 28 29  2  0
 29 30  1  0
 30 31  2  0
 31 32  1  0
 32 33  2  0
 27 34  1  0
 34 35  1  0
 21 36  1  0
 36 37  2  0
 37  2  1  0
 16  7  1  0
 37 18  1  0
 35 24  1  0
 33 28  1  0
  1 38  1  0
  1 39  1  0
  1 40  1  0
  6 41  1  0
  8 42  1  0
  9 43  1  0
 15 44  1  0
 16 45  1  0
 19 46  1  0
 20 47  1  0
 25 48  1  0
 25 49  1  0
 26 50  1  0
 26 51  1  0
 29 52  1  0
 30 53  1  0
 31 54  1  0
 32 55  1  0
 34 56  1  0
 34 57  1  0
 35 58  1  0
 35 59  1  0
 36 60  1  0
M  END
$$$$
