
     RDKit          3D

 43 45  0  0  0  0  0  0  0  0999 V2000
   -2.8621   -1.6694    1.0046 C   0  0  0  0  0  0  0  0  0  0  0  0
   -3.3067   -0.6705   -0.0224 C   0  0  0  0  0  0  0  0  0  0  0  0
   -3.8348   -0.9656   -1.0865 O   0  0  0  0  0  0  0  0  0  0  0  0
   -3.0353    0.6065    0.4546 O   0  0  0  0  0  0  0  0  0  0  0  0
   -3.2891    1.6142   -0.4839 C   0  0  0  0  0  0  0  0  0  0  0  0
   -4.4541    2.3653   -0.3147 C   0  0  0  0  0  0  0  0  0  0  0  0
   -4.7412    3.3933   -1.2099 C   0  0  0  0  0  0  0  0  0  0  0  0
   -3.8631    3.6690   -2.2586 C   0  0  0  0  0  0  0  0  0  0  0  0
   -2.6890    2.9237   -2.4111 C   0  0  0  0  0  0  0  0  0  0  0  0
   -2.3750    1.8953   -1.5136 C   0  0  0  0  0  0  0  0  0  0  0  0
   -1.1327    1.1383   -1.7238 C   0  0  0  0  0  0  0  0  0  0  0  0
   -0.2244    0.9519   -0.7527 C   0  0  0  0  0  0  0  0  0  0  0  0
    0.9975    0.1542   -0.8806 C   0  0  0  0  0  0  0  0  0  0  0  0
    1.7214    0.0563   -2.0593 C   0  0  0  0  0  0  0  0  0  0  0  0
    2.8796   -0.7146   -2.0664 C   0  0  0  0  0  0  0  0  0  0  0  0
    3.2959   -1.3603   -0.8970 C   0  0  0  0  0  0  0  0  0  0  0  0
    4.4576   -2.1569   -0.8714 C   0  0  0  0  0  0  0  0  0  0  0  0
    4.8550   -2.8012    0.3005 C   0  0  0  0  0  0  0  0  0  0  0  0
    4.1011   -2.6480    1.4566 C   0  0  0  0  0  0  0  0  0  0  0  0
    2.9628   -1.8378    1.4221 C   0  0  0  0  0  0  0  0  0  0  0  0
    2.2113   -1.7250    2.6012 O   0  0  0  0  0  0  0  0  0  0  0  0
    2.4540   -0.5233    3.2524 C   0  0  0  0  0  0  0  0  0  0  0  0
    1.4567   -0.3678    4.3616 C   0  0  0  0  0  0  0  0  0  0  0  0
    3.3523    0.2756    3.0197 O   0  0  0  0  0  0  0  0  0  0  0  0
    2.5157   -1.1924    0.2644 C   0  0  0  0  0  0  0  0  0  0  0  0
    1.3846   -0.4494    0.2659 N   0  0  0  0  0  0  0  0  0  0  0  0
   -3.0275   -2.6803    0.6214 H   0  0  0  0  0  0  0  0  0  0  0  0
   -3.4432   -1.5418    1.9212 H   0  0  0  0  0  0  0  0  0  0  0  0
   -1.7945   -1.5464    1.2043 H   0  0  0  0  0  0  0  0  0  0  0  0
   -5.1362    2.1448    0.5006 H   0  0  0  0  0  0  0  0  0  0  0  0
   -5.6505    3.9774   -1.0941 H   0  0  0  0  0  0  0  0  0  0  0  0
   -4.0910    4.4680   -2.9601 H   0  0  0  0  0  0  0  0  0  0  0  0
   -2.0171    3.1610   -3.2329 H   0  0  0  0  0  0  0  0  0  0  0  0
   -1.0089    0.7168   -2.7174 H   0  0  0  0  0  0  0  0  0  0  0  0
   -0.3804    1.3656    0.2409 H   0  0  0  0  0  0  0  0  0  0  0  0
    1.4082    0.5707   -2.9608 H   0  0  0  0  0  0  0  0  0  0  0  0
    3.4533   -0.8035   -2.9854 H   0  0  0  0  0  0  0  0  0  0  0  0
    5.0584   -2.2815   -1.7701 H   0  0  0  0  0  0  0  0  0  0  0  0
    5.7510   -3.4166    0.3090 H   0  0  0  0  0  0  0  0  0  0  0  0
    4.3974   -3.1409    2.3773 H   0  0  0  0  0  0  0  0  0  0  0  0
    1.6269   -1.1332    5.1225 H   0  0  0  0  0  0  0  0  0  0  0  0
    1.5744    0.6191    4.8183 H   0  0  0  0  0  0  0  0  0  0  0  0
    0.4420   -0.4407    3.9614 H   0  0  0  0  0  0  0  0  0  0  0  0
  1  2  1  0
  2  3  2  0
  2  4  1  0
  4  5  1  0
  5  6  2  0
  6  7  1  0
  7  8  2  0
  8  9  1  0
  9 10  2  0
 10 11  1  0
 11 12  2  0
 12 13  1  0
 13 14  2  0
 14 15  1  0
 15 16  2  0
 16 17  1  0
 17 18  2  0
 18 19  1  0
 19 20  2  0
 20 21  1  0
 21 22  1  0
 22 23  1  0
 22 24  2  0
 20 25  1  0
 25 26  2  0
 10  5  1  0
 26 13  1  0
 25 16  1  0
  1 27  1  0
  1 28  1  0
  1 29  1  0
  6 30  1  0
  7 31  1  0
  8 32  1  0
  9 33  1  0
 11 34  1  0
 12 35  1  0
 14 36  1  0
 15 37  1  0
 17 38  1  0
 18 39  1  0
 19 40  1  0
 23 41  1  0
 23 42  1  0
 23 43  1  0
M  END
$$$$
