
     RDKit          3D

 33 34  0  0  0  0  0  0  0  0999 V2000
   -2.1638    1.7643   -1.2872 N   0  0  0  0  0  0  0  0  0  0  0  0
   -2.2966    0.5744   -0.7828 C   0  0  0  0  0  0  0  0  0  0  0  0
   -1.5576   -0.5034   -1.2435 N   0  0  0  0  0  0  0  0  0  0  0  0
   -0.3788   -0.0857   -1.8960 O   0  0  0  0  0  0  0  0  0  0  0  0
    0.7303   -0.2615   -1.1032 C   0  0  0  0  0  0  0  0  0  0  0  0
    0.7044   -0.8626   -0.0343 O   0  0  0  0  0  0  0  0  0  0  0  0
    1.9186    0.4068   -1.7537 C   0  0  0  0  0  0  0  0  0  0  0  0
    3.2464    0.0436   -1.1345 C   0  0  0  0  0  0  0  0  0  0  0  0
    4.0677   -0.9254   -1.7298 C   0  0  0  0  0  0  0  0  0  0  0  0
    5.2935   -1.2640   -1.1542 C   0  0  0  0  0  0  0  0  0  0  0  0
    5.7073   -0.6423    0.0229 C   0  0  0  0  0  0  0  0  0  0  0  0
    4.8959    0.3175    0.6273 C   0  0  0  0  0  0  0  0  0  0  0  0
    3.6706    0.6595    0.0524 C   0  0  0  0  0  0  0  0  0  0  0  0
   -3.2855    0.3136    0.3068 C   0  0  0  0  0  0  0  0  0  0  0  0
   -4.1336   -0.7949    0.1548 C   0  0  0  0  0  0  0  0  0  0  0  0
   -5.0849   -1.0932    1.1319 C   0  0  0  0  0  0  0  0  0  0  0  0
   -5.1942   -0.2905    2.2654 C   0  0  0  0  0  0  0  0  0  0  0  0
   -4.3519    0.8116    2.4239 C   0  0  0  0  0  0  0  0  0  0  0  0
   -3.3948    1.1169    1.4492 C   0  0  0  0  0  0  0  0  0  0  0  0
   -2.3690    2.4736    1.7446 Cl  0  0  0  0  0  0  0  0  0  0  0  0
   -2.7900    2.4345   -0.8268 H   0  0  0  0  0  0  0  0  0  0  0  0
   -1.3545   -1.2114   -0.5317 H   0  0  0  0  0  0  0  0  0  0  0  0
    1.7768    1.4916   -1.6975 H   0  0  0  0  0  0  0  0  0  0  0  0
    1.9320    0.1323   -2.8159 H   0  0  0  0  0  0  0  0  0  0  0  0
    3.7617   -1.4236   -2.6471 H   0  0  0  0  0  0  0  0  0  0  0  0
    5.9244   -2.0140   -1.6247 H   0  0  0  0  0  0  0  0  0  0  0  0
    6.6609   -0.9090    0.4721 H   0  0  0  0  0  0  0  0  0  0  0  0
    5.2160    0.7983    1.5505 H   0  0  0  0  0  0  0  0  0  0  0  0
    3.0454    1.4052    0.5401 H   0  0  0  0  0  0  0  0  0  0  0  0
   -4.0736   -1.4178   -0.7359 H   0  0  0  0  0  0  0  0  0  0  0  0
   -5.7436   -1.9495    1.0062 H   0  0  0  0  0  0  0  0  0  0  0  0
   -5.9367   -0.5212    3.0263 H   0  0  0  0  0  0  0  0  0  0  0  0
   -4.4428    1.4265    3.3167 H   0  0  0  0  0  0  0  0  0  0  0  0
  1  2  2  3
  2  3  1  0
  3  4  1  0
  4  5  1  0
  5  6  2  0
  5  7  1  0
  7  8  1  0
  8  9  2  0
  9 10  1  0
 10 11  2  0
 11 12  1  0
 12 13  2  0
  2 14  1  0
 14 15  2  0
 15 16  1  0
 16 17  2  0
 17 18  1  0
 18 19  2  0
 19 20  1  0
 13  8  1  0
 19 14  1  0
  1 21  1  0
  3 22  1  0
  7 23  1  0
  7 24  1  0
  9 25  1  0
 10 26  1  0
 11 27  1  0
 12 28  1  0
 13 29  1  0
 15 30  1  0
 16 31  1  0
 17 32  1  0
 18 33  1  0
M  END
$$$$
