
     RDKit          3D

 52 55  0  0  0  0  0  0  0  0999 V2000
    7.6625   -2.4252    3.2167 C   0  0  0  0  0  0  0  0  0  0  0  0
    6.4513   -3.0171    2.7657 O   0  0  0  0  0  0  0  0  0  0  0  0
    5.4621   -2.1636    2.3624 C   0  0  0  0  0  0  0  0  0  0  0  0
    5.5463   -0.7735    2.3097 C   0  0  0  0  0  0  0  0  0  0  0  0
    4.4507   -0.0123    1.8763 C   0  0  0  0  0  0  0  0  0  0  0  0
    3.2624   -0.6312    1.4870 C   0  0  0  0  0  0  0  0  0  0  0  0
    2.1208    0.0598    1.0422 N   0  0  0  0  0  0  0  0  0  0  0  0
    1.9534    1.4194    0.8642 C   0  0  0  0  0  0  0  0  0  0  0  0
    2.8064    2.2786    1.0826 O   0  0  0  0  0  0  0  0  0  0  0  0
    0.5586    1.8466    0.4132 C   0  0  0  0  0  0  0  0  0  0  0  0
   -0.4302    0.4875   -0.2887 S   0  0  0  0  0  0  0  0  0  0  0  0
   -1.9623    1.3123   -0.5902 C   0  0  0  0  0  0  0  0  0  0  0  0
   -1.9610    2.6081   -0.4984 N   0  0  0  0  0  0  0  0  0  0  0  0
   -3.1635    3.2306   -0.6449 C   0  0  0  0  0  0  0  0  0  0  0  0
   -4.3315    2.6146   -0.8160 C   0  0  0  0  0  0  0  0  0  0  0  0
   -4.3706    1.1406   -0.8899 C   0  0  0  0  0  0  0  0  0  0  0  0
   -5.4394    0.5442   -1.0116 O   0  0  0  0  0  0  0  0  0  0  0  0
   -3.1077    0.5401   -0.8263 N   0  0  0  0  0  0  0  0  0  0  0  0
   -3.0515   -0.8706   -1.0583 C   0  0  0  0  0  0  0  0  0  0  0  0
   -3.7153   -1.7367   -0.1761 C   0  0  0  0  0  0  0  0  0  0  0  0
   -3.6632   -3.1156   -0.3714 C   0  0  0  0  0  0  0  0  0  0  0  0
   -2.9617   -3.6360   -1.4549 C   0  0  0  0  0  0  0  0  0  0  0  0
   -2.3255   -2.7817   -2.3606 C   0  0  0  0  0  0  0  0  0  0  0  0
   -2.3759   -1.3952   -2.1813 C   0  0  0  0  0  0  0  0  0  0  0  0
   -1.8411   -0.4774   -3.0506 O   0  0  0  0  0  0  0  0  0  0  0  0
   -1.2524   -0.9736   -4.2469 C   0  0  0  0  0  0  0  0  0  0  0  0
   -5.7001    3.6423   -0.9363 S   0  0  0  0  0  0  0  0  0  0  0  0
   -4.6437    5.1254   -1.0914 C   0  0  0  0  0  0  0  0  0  0  0  0
   -3.2550    4.7268   -0.5795 C   0  0  0  0  0  0  0  0  0  0  0  0
    3.1831   -2.0268    1.5383 C   0  0  0  0  0  0  0  0  0  0  0  0
    4.2748   -2.7851    1.9725 C   0  0  0  0  0  0  0  0  0  0  0  0
    8.3312   -3.2310    3.5350 H   0  0  0  0  0  0  0  0  0  0  0  0
    7.4896   -1.7744    4.0809 H   0  0  0  0  0  0  0  0  0  0  0  0
    8.1579   -1.8820    2.4041 H   0  0  0  0  0  0  0  0  0  0  0  0
    6.4481   -0.2413    2.5943 H   0  0  0  0  0  0  0  0  0  0  0  0
    4.5645    1.0668    1.8554 H   0  0  0  0  0  0  0  0  0  0  0  0
    1.3253   -0.5095    0.7706 H   0  0  0  0  0  0  0  0  0  0  0  0
    0.0477    2.2665    1.2863 H   0  0  0  0  0  0  0  0  0  0  0  0
    0.6865    2.6214   -0.3501 H   0  0  0  0  0  0  0  0  0  0  0  0
   -4.2720   -1.3421    0.6709 H   0  0  0  0  0  0  0  0  0  0  0  0
   -4.1750   -3.7812    0.3190 H   0  0  0  0  0  0  0  0  0  0  0  0
   -2.9229   -4.7118   -1.6090 H   0  0  0  0  0  0  0  0  0  0  0  0
   -1.8100   -3.2330   -3.2016 H   0  0  0  0  0  0  0  0  0  0  0  0
   -0.3744   -1.5889   -4.0270 H   0  0  0  0  0  0  0  0  0  0  0  0
   -0.9161   -0.1141   -4.8344 H   0  0  0  0  0  0  0  0  0  0  0  0
   -1.9833   -1.5224   -4.8489 H   0  0  0  0  0  0  0  0  0  0  0  0
   -5.0599    5.9651   -0.5269 H   0  0  0  0  0  0  0  0  0  0  0  0
   -4.5961    5.4070   -2.1491 H   0  0  0  0  0  0  0  0  0  0  0  0
   -3.1194    5.0588    0.4572 H   0  0  0  0  0  0  0  0  0  0  0  0
   -2.4783    5.2055   -1.1869 H   0  0  0  0  0  0  0  0  0  0  0  0
    2.2772   -2.5462    1.2393 H   0  0  0  0  0  0  0  0  0  0  0  0
    4.1985   -3.8685    2.0036 H   0  0  0  0  0  0  0  0  0  0  0  0
  1  2  1  0
  2  3  1  0
  3  4  2  0
  4  5  1  0
  5  6  2  0
  6  7  1  0
  7  8  1  0
  8  9  2  0
  8 10  1  0
 10 11  1  0
 11 12  1  0
 12 13  2  0
 13 14  1  0
 14 15  2  0
 15 16  1  0
 16 17  2  0
 16 18  1  0
 18 19  1  0
 19 20  2  0
 20 21  1  0
 21 22  2  0
 22 23  1  0
 23 24  2  0
 24 25  1  0
 25 26  1  0
 15 27  1  0
 27 28  1  0
 28 29  1  0
  6 30  1  0
 30 31  2  0
 31  3  1  0
 18 12  1  0
 24 19  1  0
 29 14  1  0
  1 32  1  0
  1 33  1  0
  1 34  1  0
  4 35  1  0
  5 36  1  0
  7 37  1  0
 10 38  1  0
 10 39  1  0
 20 40  1  0
 21 41  1  0
 22 42  1  0
 23 43  1  0
 26 44  1  0
 26 45  1  0
 26 46  1  0
 28 47  1  0
 28 48  1  0
 29 49  1  0
 29 50  1  0
 30 51  1  0
 31 52  1  0
M  END
$$$$
