
     RDKit          3D

 36 37  0  0  0  0  0  0  0  0999 V2000
    0.5592    1.6218    0.7834 O   0  0  0  0  0  0  0  0  0  0  0  0
   -0.2379    0.6880    0.7382 C   0  0  0  0  0  0  0  0  0  0  0  0
    0.1646   -0.7819    0.8402 C   0  0  0  0  0  0  0  0  0  0  0  0
    1.5830   -0.9107    0.7477 O   0  0  0  0  0  0  0  0  0  0  0  0
    2.0529   -2.1241    1.1157 C   0  0  0  0  0  0  0  0  0  0  0  0
    1.3953   -3.0734    1.5002 O   0  0  0  0  0  0  0  0  0  0  0  0
    3.5233   -2.1106    0.9842 C   0  0  0  0  0  0  0  0  0  0  0  0
    4.2323   -1.0742    1.6170 C   0  0  0  0  0  0  0  0  0  0  0  0
    5.6227   -1.0351    1.5527 C   0  0  0  0  0  0  0  0  0  0  0  0
    6.3086   -2.0298    0.8593 C   0  0  0  0  0  0  0  0  0  0  0  0
    5.6069   -3.0620    0.2231 C   0  0  0  0  0  0  0  0  0  0  0  0
    6.5481   -4.2428   -0.6238 Cl  0  0  0  0  0  0  0  0  0  0  0  0
    4.2047   -3.1122    0.2785 C   0  0  0  0  0  0  0  0  0  0  0  0
    3.3393   -4.3604   -0.5592 Cl  0  0  0  0  0  0  0  0  0  0  0  0
   -1.5971    0.8838    0.6037 N   0  0  0  0  0  0  0  0  0  0  0  0
   -2.1483    2.2151    0.4370 C   0  0  0  0  0  0  0  0  0  0  0  0
   -3.6745    2.2282    0.2948 C   0  0  0  0  0  0  0  0  0  0  0  0
   -4.1301    1.6475   -0.9590 N   0  0  0  0  0  0  0  0  0  0  0  0
   -4.5721    2.3479   -2.0567 C   0  0  0  0  0  0  0  0  0  0  0  0
   -4.5403    3.7085   -2.1006 O   0  0  0  0  0  0  0  0  0  0  0  0
   -5.0158    1.5880   -3.0622 C   0  0  0  0  0  0  0  0  0  0  0  0
   -4.8802   -0.1015   -2.6921 S   0  0  0  0  0  0  0  0  0  0  0  0
   -4.1896    0.2652   -1.1069 C   0  0  0  0  0  0  0  0  0  0  0  0
   -3.8109   -0.5791   -0.3080 O   0  0  0  0  0  0  0  0  0  0  0  0
   -0.1993   -1.1564    1.8042 H   0  0  0  0  0  0  0  0  0  0  0  0
   -0.2982   -1.3343    0.0151 H   0  0  0  0  0  0  0  0  0  0  0  0
    3.6997   -0.2965    2.1631 H   0  0  0  0  0  0  0  0  0  0  0  0
    6.1702   -0.2323    2.0421 H   0  0  0  0  0  0  0  0  0  0  0  0
    7.3953   -1.9951    0.8122 H   0  0  0  0  0  0  0  0  0  0  0  0
   -2.2062    0.0733    0.4753 H   0  0  0  0  0  0  0  0  0  0  0  0
   -1.8556    2.8004    1.3161 H   0  0  0  0  0  0  0  0  0  0  0  0
   -1.6737    2.6712   -0.4396 H   0  0  0  0  0  0  0  0  0  0  0  0
   -4.0523    3.2519    0.3863 H   0  0  0  0  0  0  0  0  0  0  0  0
   -4.1201    1.6506    1.1147 H   0  0  0  0  0  0  0  0  0  0  0  0
   -3.8039    4.0111   -1.5479 H   0  0  0  0  0  0  0  0  0  0  0  0
   -5.4001    1.9596   -4.0017 H   0  0  0  0  0  0  0  0  0  0  0  0
  1  2  2  0
  2  3  1  0
  3  4  1  0
  4  5  1  0
  5  6  2  0
  5  7  1  0
  7  8  2  0
  8  9  1  0
  9 10  2  0
 10 11  1  0
 11 12  1  0
 11 13  2  0
 13 14  1  0
  2 15  1  0
 15 16  1  0
 16 17  1  0
 17 18  1  0
 18 19  1  0
 19 20  1  0
 19 21  2  0
 21 22  1  0
 22 23  1  0
 23 24  2  0
 13  7  1  0
 23 18  1  0
  3 25  1  0
  3 26  1  0
  8 27  1  0
  9 28  1  0
 10 29  1  0
 15 30  1  0
 16 31  1  0
 16 32  1  0
 17 33  1  0
 17 34  1  0
 20 35  1  0
 21 36  1  0
M  END
$$$$
