
     RDKit          3D

 43 45  0  0  0  0  0  0  0  0999 V2000
    6.0914   -1.9380    2.0418 C   0  0  0  0  0  0  0  0  0  0  0  0
    5.4409   -0.9069    1.1678 C   0  0  0  0  0  0  0  0  0  0  0  0
    6.2172    0.0476    0.5027 C   0  0  0  0  0  0  0  0  0  0  0  0
    5.6129    1.0360   -0.2823 C   0  0  0  0  0  0  0  0  0  0  0  0
    6.4505    2.0327   -1.0288 C   0  0  0  0  0  0  0  0  0  0  0  0
    4.2153    1.0556   -0.4105 C   0  0  0  0  0  0  0  0  0  0  0  0
    3.4223    0.1236    0.2605 C   0  0  0  0  0  0  0  0  0  0  0  0
    2.0133    0.0874    0.1850 N   0  0  0  0  0  0  0  0  0  0  0  0
    1.1831    0.9862   -0.4597 C   0  0  0  0  0  0  0  0  0  0  0  0
    1.5091    2.0201   -1.0286 O   0  0  0  0  0  0  0  0  0  0  0  0
   -0.2648    0.6416   -0.4024 C   0  0  0  0  0  0  0  0  0  0  0  0
   -1.1964    1.6712   -0.2481 C   0  0  0  0  0  0  0  0  0  0  0  0
   -2.5661    1.3845   -0.1914 C   0  0  0  0  0  0  0  0  0  0  0  0
   -3.0213    0.0690   -0.3021 C   0  0  0  0  0  0  0  0  0  0  0  0
   -4.3804   -0.3087   -0.2625 N   0  0  0  0  0  0  0  0  0  0  0  0
   -5.4869    0.5053   -0.0480 C   0  0  0  0  0  0  0  0  0  0  0  0
   -5.4203    1.7095    0.1792 O   0  0  0  0  0  0  0  0  0  0  0  0
   -6.7620   -0.2024   -0.1019 C   0  0  0  0  0  0  0  0  0  0  0  0
   -7.1276   -1.5043   -0.4103 C   0  0  0  0  0  0  0  0  0  0  0  0
   -8.5378   -1.5816   -0.2842 C   0  0  0  0  0  0  0  0  0  0  0  0
   -8.9554   -0.3290    0.0903 C   0  0  0  0  0  0  0  0  0  0  0  0
   -7.8963    0.5087    0.2019 O   0  0  0  0  0  0  0  0  0  0  0  0
   -2.0816   -0.9573   -0.4802 C   0  0  0  0  0  0  0  0  0  0  0  0
   -0.7112   -0.6771   -0.5320 C   0  0  0  0  0  0  0  0  0  0  0  0
    4.0449   -0.8518    1.0513 C   0  0  0  0  0  0  0  0  0  0  0  0
    7.0881   -2.1953    1.6682 H   0  0  0  0  0  0  0  0  0  0  0  0
    6.1838   -1.5575    3.0637 H   0  0  0  0  0  0  0  0  0  0  0  0
    5.5037   -2.8619    2.0594 H   0  0  0  0  0  0  0  0  0  0  0  0
    7.3014    0.0229    0.5958 H   0  0  0  0  0  0  0  0  0  0  0  0
    7.3955    2.2189   -0.5076 H   0  0  0  0  0  0  0  0  0  0  0  0
    5.9319    2.9936   -1.1119 H   0  0  0  0  0  0  0  0  0  0  0  0
    6.6693    1.6590   -2.0337 H   0  0  0  0  0  0  0  0  0  0  0  0
    3.7687    1.8159   -1.0445 H   0  0  0  0  0  0  0  0  0  0  0  0
    1.5674   -0.6412    0.7257 H   0  0  0  0  0  0  0  0  0  0  0  0
   -0.8619    2.7045   -0.1704 H   0  0  0  0  0  0  0  0  0  0  0  0
   -3.2470    2.2217   -0.0698 H   0  0  0  0  0  0  0  0  0  0  0  0
   -4.5622   -1.2935   -0.3834 H   0  0  0  0  0  0  0  0  0  0  0  0
   -6.4720   -2.3120   -0.7008 H   0  0  0  0  0  0  0  0  0  0  0  0
   -9.1718   -2.4415   -0.4495 H   0  0  0  0  0  0  0  0  0  0  0  0
   -9.9208    0.1089    0.3044 H   0  0  0  0  0  0  0  0  0  0  0  0
   -2.4015   -1.9908   -0.5897 H   0  0  0  0  0  0  0  0  0  0  0  0
   -0.0111   -1.4900   -0.7056 H   0  0  0  0  0  0  0  0  0  0  0  0
    3.4459   -1.5838    1.5874 H   0  0  0  0  0  0  0  0  0  0  0  0
  1  2  1  0
  2  3  2  0
  3  4  1  0
  4  5  1  0
  4  6  2  0
  6  7  1  0
  7  8  1  0
  8  9  1  0
  9 10  2  0
  9 11  1  0
 11 12  2  0
 12 13  1  0
 13 14  2  0
 14 15  1  0
 15 16  1  0
 16 17  2  0
 16 18  1  0
 18 19  2  0
 19 20  1  0
 20 21  2  0
 21 22  1  0
 14 23  1  0
 23 24  2  0
  7 25  2  0
 25  2  1  0
 24 11  1  0
 22 18  1  0
  1 26  1  0
  1 27  1  0
  1 28  1  0
  3 29  1  0
  5 30  1  0
  5 31  1  0
  5 32  1  0
  6 33  1  0
  8 34  1  0
 12 35  1  0
 13 36  1  0
 15 37  1  0
 19 38  1  0
 20 39  1  0
 21 40  1  0
 23 41  1  0
 24 42  1  0
 25 43  1  0
M  END
$$$$
