
     RDKit          3D

 40 42  0  0  0  0  0  0  0  0999 V2000
    4.7199   -0.6763    0.2138 N   0  0  0  0  0  0  0  0  0  0  0  0
    3.7158    0.1522    0.8720 C   0  0  0  0  0  0  0  0  0  0  0  0
    2.5426    0.4845   -0.0527 C   0  0  0  0  0  0  0  0  0  0  0  0
    1.7309   -0.7439   -0.4729 C   0  0  0  0  0  0  0  0  0  0  0  0
    0.5256   -0.4274   -1.3764 C   0  0  0  0  0  0  0  0  0  0  0  0
   -0.5702    0.2735   -0.6596 N   0  0  0  0  0  0  0  0  0  0  0  0
   -0.6935    1.6860   -0.8470 C   0  0  0  0  0  0  0  0  0  0  0  0
    0.2265    2.4438   -1.6104 C   0  0  0  0  0  0  0  0  0  0  0  0
    0.1097    3.8284   -1.7990 C   0  0  0  0  0  0  0  0  0  0  0  0
   -0.9400    4.5190   -1.2246 C   0  0  0  0  0  0  0  0  0  0  0  0
   -1.8625    3.8182   -0.4606 C   0  0  0  0  0  0  0  0  0  0  0  0
   -1.7471    2.4242   -0.2677 C   0  0  0  0  0  0  0  0  0  0  0  0
   -3.0177    1.7170    0.7474 S   0  0  0  0  0  0  0  0  0  0  0  0
   -2.5765    0.0013    0.7797 C   0  0  0  0  0  0  0  0  0  0  0  0
   -3.4423   -0.8130    1.5396 C   0  0  0  0  0  0  0  0  0  0  0  0
   -3.2320   -2.1816    1.6567 C   0  0  0  0  0  0  0  0  0  0  0  0
   -2.1495   -2.7631    1.0067 C   0  0  0  0  0  0  0  0  0  0  0  0
   -1.8723   -4.2412    1.1272 C   0  0  0  0  0  0  0  0  0  0  0  0
   -0.9012   -4.5107    2.0426 F   0  0  0  0  0  0  0  0  0  0  0  0
   -1.4450   -4.7945   -0.0424 F   0  0  0  0  0  0  0  0  0  0  0  0
   -2.9592   -4.9684    1.5071 F   0  0  0  0  0  0  0  0  0  0  0  0
   -1.2845   -1.9398    0.2549 C   0  0  0  0  0  0  0  0  0  0  0  0
   -1.4620   -0.5411    0.1104 C   0  0  0  0  0  0  0  0  0  0  0  0
    5.5179   -0.7901    0.8389 H   0  0  0  0  0  0  0  0  0  0  0  0
    4.3511   -1.6148    0.0680 H   0  0  0  0  0  0  0  0  0  0  0  0
    4.1903    1.0879    1.1876 H   0  0  0  0  0  0  0  0  0  0  0  0
    3.3578   -0.3521    1.7764 H   0  0  0  0  0  0  0  0  0  0  0  0
    2.9193    1.0012   -0.9435 H   0  0  0  0  0  0  0  0  0  0  0  0
    1.8936    1.1880    0.4805 H   0  0  0  0  0  0  0  0  0  0  0  0
    2.3798   -1.4314   -1.0284 H   0  0  0  0  0  0  0  0  0  0  0  0
    1.4128   -1.2769    0.4294 H   0  0  0  0  0  0  0  0  0  0  0  0
    0.1468   -1.3591   -1.8159 H   0  0  0  0  0  0  0  0  0  0  0  0
    0.8632    0.0942   -2.2761 H   0  0  0  0  0  0  0  0  0  0  0  0
    1.0917    1.9975   -2.0856 H   0  0  0  0  0  0  0  0  0  0  0  0
    0.8492    4.3572   -2.3953 H   0  0  0  0  0  0  0  0  0  0  0  0
   -1.0407    5.5913   -1.3635 H   0  0  0  0  0  0  0  0  0  0  0  0
   -2.6850    4.3683   -0.0065 H   0  0  0  0  0  0  0  0  0  0  0  0
   -4.2976   -0.3732    2.0511 H   0  0  0  0  0  0  0  0  0  0  0  0
   -3.9159   -2.7825    2.2531 H   0  0  0  0  0  0  0  0  0  0  0  0
   -0.4498   -2.4527   -0.2150 H   0  0  0  0  0  0  0  0  0  0  0  0
  1  2  1  0
  2  3  1  0
  3  4  1  0
  4  5  1  0
  5  6  1  0
  6  7  1  0
  7  8  2  0
  8  9  1  0
  9 10  2  0
 10 11  1  0
 11 12  2  0
 12 13  1  0
 13 14  1  0
 14 15  2  0
 15 16  1  0
 16 17  2  0
 17 18  1  0
 18 19  1  0
 18 20  1  0
 18 21  1  0
 17 22  1  0
 22 23  2  0
 23  6  1  0
 12  7  1  0
 23 14  1  0
  1 24  1  0
  1 25  1  0
  2 26  1  0
  2 27  1  0
  3 28  1  0
  3 29  1  0
  4 30  1  0
  4 31  1  0
  5 32  1  0
  5 33  1  0
  8 34  1  0
  9 35  1  0
 10 36  1  0
 11 37  1  0
 15 38  1  0
 16 39  1  0
 22 40  1  0
M  END
$$$$
