
     RDKit          3D

 33 34  0  0  0  0  0  0  0  0999 V2000
   -2.0192    3.7843    1.5830 C   0  0  0  0  0  0  0  0  0  0  0  0
   -1.2543    2.6035    1.3407 O   0  0  0  0  0  0  0  0  0  0  0  0
   -0.2903    2.7697    0.4041 C   0  0  0  0  0  0  0  0  0  0  0  0
    0.0559    3.8029   -0.1400 O   0  0  0  0  0  0  0  0  0  0  0  0
    0.4126    1.4919    0.2423 C   0  0  0  0  0  0  0  0  0  0  0  0
    1.7596    1.4796    0.5990 C   0  0  0  0  0  0  0  0  0  0  0  0
    2.4254    0.2789    0.5210 C   0  0  0  0  0  0  0  0  0  0  0  0
    3.7528    0.2862    0.8904 O   0  0  0  0  0  0  0  0  0  0  0  0
    4.3819   -0.9853    0.7638 C   0  0  0  0  0  0  0  0  0  0  0  0
    1.8390   -0.8691    0.1262 N   0  0  0  0  0  0  0  0  0  0  0  0
    0.5304   -0.8368   -0.2356 C   0  0  0  0  0  0  0  0  0  0  0  0
   -0.2132    0.3280   -0.2119 C   0  0  0  0  0  0  0  0  0  0  0  0
   -1.5923    0.2843   -0.7118 C   0  0  0  0  0  0  0  0  0  0  0  0
   -2.1832    1.3272   -0.9732 O   0  0  0  0  0  0  0  0  0  0  0  0
   -2.1405   -0.9728   -0.9156 N   0  0  0  0  0  0  0  0  0  0  0  0
   -3.5297   -1.0386   -1.3338 C   0  0  0  0  0  0  0  0  0  0  0  0
   -1.3995   -2.1448   -0.9863 C   0  0  0  0  0  0  0  0  0  0  0  0
   -1.9057   -3.2086   -1.3480 O   0  0  0  0  0  0  0  0  0  0  0  0
   -0.0640   -2.0468   -0.6475 N   0  0  0  0  0  0  0  0  0  0  0  0
    0.7810   -3.2321   -0.6812 C   0  0  0  0  0  0  0  0  0  0  0  0
   -2.8188    3.5320    2.2849 H   0  0  0  0  0  0  0  0  0  0  0  0
   -1.3907    4.5577    2.0353 H   0  0  0  0  0  0  0  0  0  0  0  0
   -2.4749    4.1480    0.6564 H   0  0  0  0  0  0  0  0  0  0  0  0
    2.2676    2.3767    0.9375 H   0  0  0  0  0  0  0  0  0  0  0  0
    4.3731   -1.3304   -0.2760 H   0  0  0  0  0  0  0  0  0  0  0  0
    3.9191   -1.7241    1.4273 H   0  0  0  0  0  0  0  0  0  0  0  0
    5.4268   -0.8721    1.0684 H   0  0  0  0  0  0  0  0  0  0  0  0
   -3.5636   -1.0106   -2.4277 H   0  0  0  0  0  0  0  0  0  0  0  0
   -3.9923   -1.9683   -0.9885 H   0  0  0  0  0  0  0  0  0  0  0  0
   -4.1011   -0.1942   -0.9370 H   0  0  0  0  0  0  0  0  0  0  0  0
    1.1493   -3.4438    0.3280 H   0  0  0  0  0  0  0  0  0  0  0  0
    1.6230   -3.0608   -1.3599 H   0  0  0  0  0  0  0  0  0  0  0  0
    0.2358   -4.1118   -1.0343 H   0  0  0  0  0  0  0  0  0  0  0  0
  1  2  1  0
  2  3  1  0
  3  4  2  0
  3  5  1  0
  5  6  2  0
  6  7  1  0
  7  8  1  0
  8  9  1  0
  7 10  2  0
 10 11  1  0
 11 12  2  0
 12 13  1  0
 13 14  2  0
 13 15  1  0
 15 16  1  0
 15 17  1  0
 17 18  2  0
 17 19  1  0
 19 20  1  0
 12  5  1  0
 19 11  1  0
  1 21  1  0
  1 22  1  0
  1 23  1  0
  6 24  1  0
  9 25  1  0
  9 26  1  0
  9 27  1  0
 16 28  1  0
 16 29  1  0
 16 30  1  0
 20 31  1  0
 20 32  1  0
 20 33  1  0
M  END
$$$$
