
     RDKit          3D

 68 69  0  0  0  0  0  0  0  0999 V2000
    1.1603    2.4334   -3.7019 C   0  0  0  0  0  0  0  0  0  0  0  0
    0.9245    2.2356   -2.3141 O   0  0  0  0  0  0  0  0  0  0  0  0
   -0.3908    1.7331   -2.0688 C   0  0  0  0  0  0  0  0  0  0  0  0
   -0.5944    1.5347   -0.5586 C   0  0  0  0  0  0  0  0  0  0  0  0
   -0.4666    0.1309   -0.1139 N   0  0  0  0  0  0  0  0  0  0  0  0
    0.7464   -0.5166    0.0924 C   0  0  0  0  0  0  0  0  0  0  0  0
    0.7958   -1.6633    0.5479 O   0  0  0  0  0  0  0  0  0  0  0  0
    2.0280    0.2052   -0.2822 C   0  0  0  0  0  0  0  0  0  0  0  0
    3.2523   -0.5336    0.2557 C   0  0  0  0  0  0  0  0  0  0  0  0
    4.5504    0.1286   -0.1602 C   0  0  0  0  0  0  0  0  0  0  0  0
    4.5973    1.0310   -0.9888 O   0  0  0  0  0  0  0  0  0  0  0  0
    5.6345   -0.4257    0.4857 N   0  0  0  0  0  0  0  0  0  0  0  0
    6.9441   -0.0388    0.3109 C   0  0  0  0  0  0  0  0  0  0  0  0
    7.4809    0.9581   -0.5320 C   0  0  0  0  0  0  0  0  0  0  0  0
    8.8327    0.9195   -0.2963 C   0  0  0  0  0  0  0  0  0  0  0  0
    9.9887    1.6720   -0.8110 C   0  0  0  0  0  0  0  0  0  0  0  0
    9.0955   -0.0463    0.6222 O   0  0  0  0  0  0  0  0  0  0  0  0
    7.9115   -0.6514    1.0025 N   0  0  0  0  0  0  0  0  0  0  0  0
   -1.7062   -0.6134    0.2152 C   0  0  0  0  0  0  0  0  0  0  0  0
   -2.7678   -0.6682   -0.9282 C   0  0  0  0  0  0  0  0  0  0  0  0
   -2.8956    0.2113   -1.7755 O   0  0  0  0  0  0  0  0  0  0  0  0
   -3.5954   -1.7790   -0.8711 N   0  0  0  0  0  0  0  0  0  0  0  0
   -4.6888   -2.0717   -1.8095 C   0  0  0  0  0  0  0  0  0  0  0  0
   -4.1516   -2.2412   -3.2402 C   0  0  0  0  0  0  0  0  0  0  0  0
   -5.3430   -3.3982   -1.3788 C   0  0  0  0  0  0  0  0  0  0  0  0
   -5.7603   -0.9697   -1.7696 C   0  0  0  0  0  0  0  0  0  0  0  0
   -2.2921   -0.1526    1.5516 C   0  0  0  0  0  0  0  0  0  0  0  0
   -3.3609    0.7511    1.6355 C   0  0  0  0  0  0  0  0  0  0  0  0
   -3.8558    1.1499    2.8808 C   0  0  0  0  0  0  0  0  0  0  0  0
   -3.2938    0.6676    4.0638 C   0  0  0  0  0  0  0  0  0  0  0  0
   -3.8765    1.1380    5.2084 O   0  0  0  0  0  0  0  0  0  0  0  0
   -3.2838    0.7430    6.4392 C   0  0  0  0  0  0  0  0  0  0  0  0
   -2.2249   -0.2232    3.9933 C   0  0  0  0  0  0  0  0  0  0  0  0
   -1.7273   -0.6261    2.7482 C   0  0  0  0  0  0  0  0  0  0  0  0
    1.0218    1.4984   -4.2560 H   0  0  0  0  0  0  0  0  0  0  0  0
    0.4886    3.2023   -4.0949 H   0  0  0  0  0  0  0  0  0  0  0  0
    2.1933    2.7675   -3.8339 H   0  0  0  0  0  0  0  0  0  0  0  0
   -1.1108    2.4739   -2.4343 H   0  0  0  0  0  0  0  0  0  0  0  0
   -0.5288    0.7962   -2.6180 H   0  0  0  0  0  0  0  0  0  0  0  0
   -1.5933    1.8918   -0.2861 H   0  0  0  0  0  0  0  0  0  0  0  0
    0.1149    2.1415    0.0131 H   0  0  0  0  0  0  0  0  0  0  0  0
    2.0275    1.2222    0.1182 H   0  0  0  0  0  0  0  0  0  0  0  0
    2.0834    0.2436   -1.3744 H   0  0  0  0  0  0  0  0  0  0  0  0
    3.2084   -0.5734    1.3519 H   0  0  0  0  0  0  0  0  0  0  0  0
    3.2720   -1.5643   -0.1199 H   0  0  0  0  0  0  0  0  0  0  0  0
    5.5131   -1.1790    1.1480 H   0  0  0  0  0  0  0  0  0  0  0  0
    6.9631    1.6163   -1.2138 H   0  0  0  0  0  0  0  0  0  0  0  0
   10.4454    2.2650   -0.0121 H   0  0  0  0  0  0  0  0  0  0  0  0
   10.7459    0.9906   -1.2104 H   0  0  0  0  0  0  0  0  0  0  0  0
    9.6883    2.3536   -1.6133 H   0  0  0  0  0  0  0  0  0  0  0  0
   -1.4370   -1.6691    0.3552 H   0  0  0  0  0  0  0  0  0  0  0  0
   -3.4888   -2.3998   -0.0746 H   0  0  0  0  0  0  0  0  0  0  0  0
   -3.3701   -3.0098   -3.2768 H   0  0  0  0  0  0  0  0  0  0  0  0
   -3.7154   -1.3146   -3.6283 H   0  0  0  0  0  0  0  0  0  0  0  0
   -4.9491   -2.5402   -3.9311 H   0  0  0  0  0  0  0  0  0  0  0  0
   -4.6151   -4.2197   -1.3716 H   0  0  0  0  0  0  0  0  0  0  0  0
   -5.7545   -3.3207   -0.3643 H   0  0  0  0  0  0  0  0  0  0  0  0
   -6.1580   -3.6804   -2.0545 H   0  0  0  0  0  0  0  0  0  0  0  0
   -6.1312   -0.8186   -0.7490 H   0  0  0  0  0  0  0  0  0  0  0  0
   -6.6155   -1.2298   -2.4042 H   0  0  0  0  0  0  0  0  0  0  0  0
   -5.3771   -0.0070   -2.1212 H   0  0  0  0  0  0  0  0  0  0  0  0
   -3.8232    1.1638    0.7403 H   0  0  0  0  0  0  0  0  0  0  0  0
   -4.6858    1.8508    2.9286 H   0  0  0  0  0  0  0  0  0  0  0  0
   -3.8373    1.2278    7.2481 H   0  0  0  0  0  0  0  0  0  0  0  0
   -3.3584   -0.3401    6.5839 H   0  0  0  0  0  0  0  0  0  0  0  0
   -2.2432    1.0786    6.5019 H   0  0  0  0  0  0  0  0  0  0  0  0
   -1.7550   -0.6245    4.8845 H   0  0  0  0  0  0  0  0  0  0  0  0
   -0.8854   -1.3172    2.7165 H   0  0  0  0  0  0  0  0  0  0  0  0
  1  2  1  0
  2  3  1  0
  3  4  1  0
  4  5  1  0
  5  6  1  0
  6  7  2  0
  6  8  1  0
  8  9  1  0
  9 10  1  0
 10 11  2  0
 10 12  1  0
 12 13  1  0
 13 14  1  0
 14 15  2  0
 15 16  1  0
 15 17  1  0
 17 18  1  0
  5 19  1  0
 19 20  1  0
 20 21  2  0
 20 22  1  0
 22 23  1  0
 23 24  1  0
 23 25  1  0
 23 26  1  0
 19 27  1  0
 27 28  2  0
 28 29  1  0
 29 30  2  0
 30 31  1  0
 31 32  1  0
 30 33  1  0
 33 34  2  0
 18 13  2  0
 34 27  1  0
  1 35  1  0
  1 36  1  0
  1 37  1  0
  3 38  1  0
  3 39  1  0
  4 40  1  0
  4 41  1  0
  8 42  1  0
  8 43  1  0
  9 44  1  0
  9 45  1  0
 12 46  1  0
 14 47  1  0
 16 48  1  0
 16 49  1  0
 16 50  1  0
 19 51  1  0
 22 52  1  0
 24 53  1  0
 24 54  1  0
 24 55  1  0
 25 56  1  0
 25 57  1  0
 25 58  1  0
 26 59  1  0
 26 60  1  0
 26 61  1  0
 28 62  1  0
 29 63  1  0
 32 64  1  0
 32 65  1  0
 32 66  1  0
 33 67  1  0
 34 68  1  0
M  END
$$$$
