
     RDKit          3D

 50 53  0  0  0  0  0  0  0  0999 V2000
   -1.7674    1.5823    5.3187 C   0  0  0  0  0  0  0  0  0  0  0  0
   -1.1600    0.8399    4.1382 C   0  0  0  0  0  0  0  0  0  0  0  0
   -1.5226    1.4734    2.8026 C   0  0  0  0  0  0  0  0  0  0  0  0
   -2.2703    2.4528    2.7572 O   0  0  0  0  0  0  0  0  0  0  0  0
   -0.9998    0.8923    1.6482 N   0  0  0  0  0  0  0  0  0  0  0  0
   -1.4065    1.4664    0.3588 C   0  0  0  0  0  0  0  0  0  0  0  0
   -2.3605    0.5826   -0.4133 C   0  0  0  0  0  0  0  0  0  0  0  0
   -3.5878    0.1989    0.1439 C   0  0  0  0  0  0  0  0  0  0  0  0
   -4.4701   -0.6151   -0.5698 C   0  0  0  0  0  0  0  0  0  0  0  0
   -4.1516   -1.0440   -1.8626 C   0  0  0  0  0  0  0  0  0  0  0  0
   -5.0868   -1.9418   -2.6170 C   0  0  0  0  0  0  0  0  0  0  0  0
   -2.9283   -0.6610   -2.4232 C   0  0  0  0  0  0  0  0  0  0  0  0
   -2.0455    0.1535   -1.7096 C   0  0  0  0  0  0  0  0  0  0  0  0
   -0.2133   -0.3506    1.6400 C   0  0  0  0  0  0  0  0  0  0  0  0
    1.0790   -0.1991    0.8913 C   0  0  0  0  0  0  0  0  0  0  0  0
    1.2961   -0.7439   -0.3199 C   0  0  0  0  0  0  0  0  0  0  0  0
    2.5727   -0.5683   -1.0110 C   0  0  0  0  0  0  0  0  0  0  0  0
    2.7901   -1.1112   -2.2820 C   0  0  0  0  0  0  0  0  0  0  0  0
    4.0207   -0.8935   -2.8666 C   0  0  0  0  0  0  0  0  0  0  0  0
    5.0102   -0.1721   -2.2379 C   0  0  0  0  0  0  0  0  0  0  0  0
    4.8309    0.3761   -0.9860 C   0  0  0  0  0  0  0  0  0  0  0  0
    3.5934    0.1703   -0.3736 C   0  0  0  0  0  0  0  0  0  0  0  0
    3.3537    0.6962    0.9005 N   0  0  0  0  0  0  0  0  0  0  0  0
    2.1777    0.5384    1.5844 C   0  0  0  0  0  0  0  0  0  0  0  0
    2.0469    0.9773    2.7224 O   0  0  0  0  0  0  0  0  0  0  0  0
    6.1400   -0.0794   -2.9893 O   0  0  0  0  0  0  0  0  0  0  0  0
    5.7507   -0.8233   -4.1630 C   0  0  0  0  0  0  0  0  0  0  0  0
    4.4061   -1.3429   -4.0910 O   0  0  0  0  0  0  0  0  0  0  0  0
   -2.8607    1.5927    5.2571 H   0  0  0  0  0  0  0  0  0  0  0  0
   -1.4222    2.6211    5.3498 H   0  0  0  0  0  0  0  0  0  0  0  0
   -1.4832    1.0993    6.2587 H   0  0  0  0  0  0  0  0  0  0  0  0
   -1.5283   -0.1913    4.1497 H   0  0  0  0  0  0  0  0  0  0  0  0
   -0.0726    0.8399    4.2525 H   0  0  0  0  0  0  0  0  0  0  0  0
   -1.8840    2.4440    0.4908 H   0  0  0  0  0  0  0  0  0  0  0  0
   -0.4997    1.6631   -0.2241 H   0  0  0  0  0  0  0  0  0  0  0  0
   -3.8648    0.5392    1.1404 H   0  0  0  0  0  0  0  0  0  0  0  0
   -5.4129   -0.9042   -0.1105 H   0  0  0  0  0  0  0  0  0  0  0  0
   -5.0014   -1.7767   -3.6962 H   0  0  0  0  0  0  0  0  0  0  0  0
   -6.1276   -1.7433   -2.3401 H   0  0  0  0  0  0  0  0  0  0  0  0
   -4.8563   -2.9892   -2.3997 H   0  0  0  0  0  0  0  0  0  0  0  0
   -2.6591   -0.9876   -3.4252 H   0  0  0  0  0  0  0  0  0  0  0  0
   -1.1101    0.4530   -2.1769 H   0  0  0  0  0  0  0  0  0  0  0  0
   -0.8408   -1.1280    1.1874 H   0  0  0  0  0  0  0  0  0  0  0  0
    0.0008   -0.7084    2.6494 H   0  0  0  0  0  0  0  0  0  0  0  0
    0.5220   -1.3153   -0.8227 H   0  0  0  0  0  0  0  0  0  0  0  0
    2.0303   -1.6836   -2.8020 H   0  0  0  0  0  0  0  0  0  0  0  0
    5.6253    0.9391   -0.5115 H   0  0  0  0  0  0  0  0  0  0  0  0
    4.0773    1.2091    1.3866 H   0  0  0  0  0  0  0  0  0  0  0  0
    6.4443   -1.6620   -4.2928 H   0  0  0  0  0  0  0  0  0  0  0  0
    5.8260   -0.1653   -5.0364 H   0  0  0  0  0  0  0  0  0  0  0  0
  1  2  1  0
  2  3  1  0
  3  4  2  0
  3  5  1  0
  5  6  1  0
  6  7  1  0
  7  8  2  0
  8  9  1  0
  9 10  2  0
 10 11  1  0
 10 12  1  0
 12 13  2  0
  5 14  1  0
 14 15  1  0
 15 16  2  0
 16 17  1  0
 17 18  2  0
 18 19  1  0
 19 20  2  0
 20 21  1  0
 21 22  2  0
 22 23  1  0
 23 24  1  0
 24 25  2  0
 20 26  1  0
 26 27  1  0
 27 28  1  0
 13  7  1  0
 24 15  1  0
 22 17  1  0
 28 19  1  0
  1 29  1  0
  1 30  1  0
  1 31  1  0
  2 32  1  0
  2 33  1  0
  6 34  1  0
  6 35  1  0
  8 36  1  0
  9 37  1  0
 11 38  1  0
 11 39  1  0
 11 40  1  0
 12 41  1  0
 13 42  1  0
 14 43  1  0
 14 44  1  0
 16 45  1  0
 18 46  1  0
 21 47  1  0
 23 48  1  0
 27 49  1  0
 27 50  1  0
M  END
$$$$
