
     RDKit          3D

 38 39  0  0  0  0  0  0  0  0999 V2000
    0.5932   -0.4889    1.5429 O   0  0  0  0  0  0  0  0  0  0  0  0
    0.0720    0.3593    0.8316 C   0  0  0  0  0  0  0  0  0  0  0  0
   -1.3473    0.7645    0.9762 C   0  0  0  0  0  0  0  0  0  0  0  0
   -2.1651    0.0433    1.7575 C   0  0  0  0  0  0  0  0  0  0  0  0
   -3.5747    0.3914    1.9703 C   0  0  0  0  0  0  0  0  0  0  0  0
   -3.9619    0.7474    3.2701 C   0  0  0  0  0  0  0  0  0  0  0  0
   -5.2927    1.0740    3.5591 C   0  0  0  0  0  0  0  0  0  0  0  0
   -6.2637    1.0430    2.5573 C   0  0  0  0  0  0  0  0  0  0  0  0
   -5.9091    0.6833    1.2596 C   0  0  0  0  0  0  0  0  0  0  0  0
   -4.5724    0.3642    0.9836 C   0  0  0  0  0  0  0  0  0  0  0  0
   -4.2543   -0.0238   -0.3728 N   0  0  0  0  0  4  0  0  0  0  0  0
   -4.5326   -1.1828   -0.7058 O   0  0  0  0  0  0  0  0  0  0  0  0
   -3.7595    0.8442   -1.1065 O   0  0  0  0  0  1  0  0  0  0  0  0
    0.7137    1.0229   -0.1840 N   0  0  0  0  0  0  0  0  0  0  0  0
    2.0901    0.7207   -0.5287 C   0  0  0  0  0  0  0  0  0  0  0  0
    2.2078   -0.5487   -1.3755 C   0  0  0  0  0  0  0  0  0  0  0  0
    3.6418   -0.8461   -1.7395 C   0  0  0  0  0  0  0  0  0  0  0  0
    4.1821   -0.3841   -2.9490 C   0  0  0  0  0  0  0  0  0  0  0  0
    5.5147   -0.6475   -3.2693 C   0  0  0  0  0  0  0  0  0  0  0  0
    6.3050   -1.3674   -2.3811 C   0  0  0  0  0  0  0  0  0  0  0  0
    7.5842   -1.6177   -2.6906 F   0  0  0  0  0  0  0  0  0  0  0  0
    5.7894   -1.8287   -1.1765 C   0  0  0  0  0  0  0  0  0  0  0  0
    4.4575   -1.5672   -0.8536 C   0  0  0  0  0  0  0  0  0  0  0  0
   -1.6814    1.6486    0.4471 H   0  0  0  0  0  0  0  0  0  0  0  0
   -1.7978   -0.8267    2.3006 H   0  0  0  0  0  0  0  0  0  0  0  0
   -3.2277    0.7762    4.0743 H   0  0  0  0  0  0  0  0  0  0  0  0
   -5.5712    1.3501    4.5745 H   0  0  0  0  0  0  0  0  0  0  0  0
   -7.2959    1.2931    2.7929 H   0  0  0  0  0  0  0  0  0  0  0  0
   -6.6659    0.6474    0.4793 H   0  0  0  0  0  0  0  0  0  0  0  0
    0.1902    1.6338   -0.7970 H   0  0  0  0  0  0  0  0  0  0  0  0
    2.6676    0.6212    0.3982 H   0  0  0  0  0  0  0  0  0  0  0  0
    2.4816    1.5876   -1.0729 H   0  0  0  0  0  0  0  0  0  0  0  0
    1.6076   -0.4459   -2.2891 H   0  0  0  0  0  0  0  0  0  0  0  0
    1.7829   -1.4094   -0.8435 H   0  0  0  0  0  0  0  0  0  0  0  0
    3.5690    0.1804   -3.6478 H   0  0  0  0  0  0  0  0  0  0  0  0
    5.9411   -0.2963   -4.2034 H   0  0  0  0  0  0  0  0  0  0  0  0
    6.4252   -2.3872   -0.4972 H   0  0  0  0  0  0  0  0  0  0  0  0
    4.0562   -1.9283    0.0920 H   0  0  0  0  0  0  0  0  0  0  0  0
  1  2  2  0
  2  3  1  0
  3  4  2  3
  4  5  1  0
  5  6  2  0
  6  7  1  0
  7  8  2  0
  8  9  1  0
  9 10  2  0
 10 11  1  0
 11 12  2  0
 11 13  1  0
  2 14  1  0
 14 15  1  0
 15 16  1  0
 16 17  1  0
 17 18  2  0
 18 19  1  0
 19 20  2  0
 20 21  1  0
 20 22  1  0
 22 23  2  0
 10  5  1  0
 23 17  1  0
  3 24  1  0
  4 25  1  0
  6 26  1  0
  7 27  1  0
  8 28  1  0
  9 29  1  0
 14 30  1  0
 15 31  1  0
 15 32  1  0
 16 33  1  0
 16 34  1  0
 18 35  1  0
 19 36  1  0
 22 37  1  0
 23 38  1  0
M  CHG  2  11   1  13  -1
M  END
$$$$
