
     RDKit          3D

 60 65  0  0  0  0  0  0  0  0999 V2000
    0.5843   -1.8378    2.4094 O   0  0  0  0  0  0  0  0  0  0  0  0
    1.1138   -1.5245    1.3478 C   0  0  0  0  0  0  0  0  0  0  0  0
    0.7516   -0.3835    0.6308 N   0  0  0  0  0  0  0  0  0  0  0  0
    1.3301   -0.0080   -0.5772 C   0  0  0  0  0  0  0  0  0  0  0  0
    0.8020    1.2374   -1.2776 C   0  0  0  0  0  0  0  0  0  0  0  0
   -0.5611    0.9574   -1.9126 C   0  0  0  0  0  0  0  0  0  0  0  0
   -1.7172    1.1627   -0.9520 C   0  0  0  0  0  0  0  0  0  0  0  0
   -1.6404    2.4535   -0.2307 N   0  0  0  0  0  0  0  0  0  0  0  0
   -2.0651    2.4034    1.4151 S   0  0  0  0  0  6  0  0  0  0  0  0
   -1.2100    1.4041    2.0115 O   0  0  0  0  0  0  0  0  0  0  0  0
   -2.1121    3.7604    1.9135 O   0  0  0  0  0  0  0  0  0  0  0  0
   -3.7230    1.7793    1.3638 C   0  0  0  0  0  0  0  0  0  0  0  0
   -4.7089    2.5074    0.6925 C   0  0  0  0  0  0  0  0  0  0  0  0
   -6.0019    1.9943    0.5881 C   0  0  0  0  0  0  0  0  0  0  0  0
   -6.2995    0.7556    1.1433 C   0  0  0  0  0  0  0  0  0  0  0  0
   -5.3169    0.0530    1.8537 C   0  0  0  0  0  0  0  0  0  0  0  0
   -4.0248    0.5602    1.9614 C   0  0  0  0  0  0  0  0  0  0  0  0
   -5.5368   -1.1655    2.4443 O   0  0  0  0  0  0  0  0  0  0  0  0
   -6.9337   -1.5045    2.4785 C   0  0  0  0  0  0  0  0  0  0  0  0
   -7.5985   -1.1554    1.1574 C   0  0  0  0  0  0  0  0  0  0  0  0
   -7.5687    0.2647    0.9430 O   0  0  0  0  0  0  0  0  0  0  0  0
   -0.4503    3.2962   -0.5390 C   0  0  0  0  0  0  0  0  0  0  0  0
    0.8295    2.4866   -0.3876 C   0  0  0  0  0  0  0  0  0  0  0  0
    2.2698   -0.6796   -1.1806 N   0  0  0  0  0  0  0  0  0  0  0  0
    2.6434   -1.7908   -0.5004 C   0  0  0  0  0  0  0  0  0  0  0  0
    2.1525   -2.2705    0.6891 C   0  0  0  0  0  0  0  0  0  0  0  0
    2.7746   -3.4366    1.0295 N   0  0  0  0  0  0  0  0  0  0  0  0
    3.6637   -3.7068    0.0716 N   0  0  0  0  0  0  0  0  0  0  0  0
    3.6041   -2.6998   -0.8389 N   0  0  0  0  0  0  0  0  0  0  0  0
    4.4466   -2.7128   -2.0166 C   0  0  0  0  0  0  0  0  0  0  0  0
    5.7487   -1.9958   -1.7697 C   0  0  0  0  0  0  0  0  0  0  0  0
    5.8546   -0.6024   -1.9480 C   0  0  0  0  0  0  0  0  0  0  0  0
    7.0695    0.0485   -1.6994 C   0  0  0  0  0  0  0  0  0  0  0  0
    8.1714   -0.6888   -1.2703 C   0  0  0  0  0  0  0  0  0  0  0  0
    9.3311   -0.0571   -1.0353 F   0  0  0  0  0  0  0  0  0  0  0  0
    8.0853   -2.0649   -1.0801 C   0  0  0  0  0  0  0  0  0  0  0  0
    6.8726   -2.7182   -1.3257 C   0  0  0  0  0  0  0  0  0  0  0  0
    0.0564    0.1866    1.1010 H   0  0  0  0  0  0  0  0  0  0  0  0
    1.4882    1.4258   -2.1148 H   0  0  0  0  0  0  0  0  0  0  0  0
   -0.6938    1.6288   -2.7624 H   0  0  0  0  0  0  0  0  0  0  0  0
   -0.5974   -0.0562   -2.3229 H   0  0  0  0  0  0  0  0  0  0  0  0
   -2.6546    1.1476   -1.4996 H   0  0  0  0  0  0  0  0  0  0  0  0
   -1.7483    0.3250   -0.2646 H   0  0  0  0  0  0  0  0  0  0  0  0
   -4.4617    3.4579    0.2350 H   0  0  0  0  0  0  0  0  0  0  0  0
   -6.7650    2.5428    0.0516 H   0  0  0  0  0  0  0  0  0  0  0  0
   -3.2658   -0.0036    2.4949 H   0  0  0  0  0  0  0  0  0  0  0  0
   -7.0008   -2.5884    2.6686 H   0  0  0  0  0  0  0  0  0  0  0  0
   -7.4106   -0.9770    3.3209 H   0  0  0  0  0  0  0  0  0  0  0  0
   -8.6474   -1.4737    1.1656 H   0  0  0  0  0  0  0  0  0  0  0  0
   -7.0975   -1.6415    0.3099 H   0  0  0  0  0  0  0  0  0  0  0  0
   -0.4171    4.1873    0.1004 H   0  0  0  0  0  0  0  0  0  0  0  0
   -0.5498    3.6817   -1.5632 H   0  0  0  0  0  0  0  0  0  0  0  0
    0.9961    2.2305    0.6682 H   0  0  0  0  0  0  0  0  0  0  0  0
    1.6906    3.1150   -0.6723 H   0  0  0  0  0  0  0  0  0  0  0  0
    4.6272   -3.7548   -2.3003 H   0  0  0  0  0  0  0  0  0  0  0  0
    3.8979   -2.2517   -2.8462 H   0  0  0  0  0  0  0  0  0  0  0  0
    4.9912   -0.0137   -2.2701 H   0  0  0  0  0  0  0  0  0  0  0  0
    7.1706    1.1279   -1.8295 H   0  0  0  0  0  0  0  0  0  0  0  0
    8.9558   -2.6231   -0.7356 H   0  0  0  0  0  0  0  0  0  0  0  0
    6.8052   -3.7947   -1.1599 H   0  0  0  0  0  0  0  0  0  0  0  0
  1  2  2  0
  2  3  1  0
  3  4  1  0
  4  5  1  0
  5  6  1  0
  6  7  1  0
  7  8  1  0
  8  9  1  0
  9 10  2  0
  9 11  2  0
  9 12  1  0
 12 13  2  0
 13 14  1  0
 14 15  2  0
 15 16  1  0
 16 17  2  0
 16 18  1  0
 18 19  1  0
 19 20  1  0
 20 21  1  0
  8 22  1  0
 22 23  1  0
  4 24  2  0
 24 25  1  0
 25 26  2  0
 26 27  1  0
 27 28  2  0
 28 29  1  0
 29 30  1  0
 30 31  1  0
 31 32  2  0
 32 33  1  0
 33 34  2  0
 34 35  1  0
 34 36  1  0
 36 37  2  0
 26  2  1  0
 37 31  1  0
 23  5  1  0
 29 25  1  0
 17 12  1  0
 21 15  1  0
  3 38  1  0
  5 39  1  0
  6 40  1  0
  6 41  1  0
  7 42  1  0
  7 43  1  0
 13 44  1  0
 14 45  1  0
 17 46  1  0
 19 47  1  0
 19 48  1  0
 20 49  1  0
 20 50  1  0
 22 51  1  0
 22 52  1  0
 23 53  1  0
 23 54  1  0
 30 55  1  0
 30 56  1  0
 32 57  1  0
 33 58  1  0
 36 59  1  0
 37 60  1  0
M  END
$$$$
