
     RDKit          3D

 60 64  0  0  0  0  0  0  0  0999 V2000
   -0.7818   -1.4260   -2.9017 C   0  0  0  0  0  0  0  0  0  0  0  0
   -1.6570   -1.0592   -1.7921 N   0  0  0  0  0  0  0  0  0  0  0  0
   -2.9834   -1.4888   -1.8709 C   0  0  0  0  0  0  0  0  0  0  0  0
   -3.3937   -2.1717   -2.8148 O   0  0  0  0  0  0  0  0  0  0  0  0
   -3.9524   -1.0645   -0.8077 C   0  0  0  0  0  0  0  0  0  0  0  0
   -5.2482   -0.9766   -1.1653 C   0  0  0  0  0  0  0  0  0  0  0  0
   -6.3649   -0.6159   -0.2863 C   0  0  0  0  0  0  0  0  0  0  0  0
   -6.6038    0.7202    0.0496 C   0  0  0  0  0  0  0  0  0  0  0  0
   -7.6711    1.0545    0.8873 C   0  0  0  0  0  0  0  0  0  0  0  0
   -8.5188    0.0580    1.3961 C   0  0  0  0  0  0  0  0  0  0  0  0
   -9.6577    0.4268    2.3148 C   0  0  0  0  0  0  0  0  0  0  0  0
  -10.6105   -0.5433    2.4138 F   0  0  0  0  0  0  0  0  0  0  0  0
   -9.2389    0.6710    3.5876 F   0  0  0  0  0  0  0  0  0  0  0  0
  -10.3151    1.5518    1.9149 F   0  0  0  0  0  0  0  0  0  0  0  0
   -8.2691   -1.2807    1.0579 C   0  0  0  0  0  0  0  0  0  0  0  0
   -7.2021   -1.6146    0.2192 C   0  0  0  0  0  0  0  0  0  0  0  0
   -3.3854   -0.8307    0.7964 S   0  0  0  0  0  0  0  0  0  0  0  0
   -1.8551   -0.0116    0.4409 C   0  0  0  0  0  0  0  0  0  0  0  0
   -1.3397    0.8270    1.4458 C   0  0  0  0  0  0  0  0  0  0  0  0
   -0.1130    1.4643    1.2824 C   0  0  0  0  0  0  0  0  0  0  0  0
    0.6144    1.2430    0.1178 C   0  0  0  0  0  0  0  0  0  0  0  0
    1.9095    1.9345   -0.0578 C   0  0  0  0  0  0  0  0  0  0  0  0
    1.9184    3.1583    0.0420 O   0  0  0  0  0  0  0  0  0  0  0  0
    3.0384    1.1762   -0.3357 N   0  0  0  0  0  0  0  0  0  0  0  0
    4.2978    1.8809   -0.6169 C   0  0  0  0  0  0  0  0  0  0  0  0
    5.2936    0.9839   -1.3653 C   0  0  0  0  0  0  0  0  0  0  0  0
    5.6167   -0.2491   -0.6068 N   0  0  0  0  0  0  0  0  0  0  0  0
    6.8393   -0.1716    0.0976 C   0  0  0  0  0  0  0  0  0  0  0  0
    7.4416   -1.3516    0.5416 C   0  0  0  0  0  0  0  0  0  0  0  0
    8.6418   -1.2967    1.2476 C   0  0  0  0  0  0  0  0  0  0  0  0
    9.2211   -0.0628    1.4982 C   0  0  0  0  0  0  0  0  0  0  0  0
    8.5713    1.0617    1.0255 C   0  0  0  0  0  0  0  0  0  0  0  0
    7.4067    1.0297    0.3387 N   0  0  0  0  0  0  0  0  0  0  0  0
    4.5368   -0.7327    0.2882 C   0  0  0  0  0  0  0  0  0  0  0  0
    3.1411   -0.2849   -0.1877 C   0  0  0  0  0  0  0  0  0  0  0  0
    0.0992    0.4276   -0.8990 C   0  0  0  0  0  0  0  0  0  0  0  0
   -1.1440   -0.2152   -0.7535 C   0  0  0  0  0  0  0  0  0  0  0  0
   -1.2085   -2.2215   -3.5199 H   0  0  0  0  0  0  0  0  0  0  0  0
    0.1738   -1.7968   -2.5160 H   0  0  0  0  0  0  0  0  0  0  0  0
   -0.6265   -0.5499   -3.5398 H   0  0  0  0  0  0  0  0  0  0  0  0
   -5.5489   -1.1860   -2.1913 H   0  0  0  0  0  0  0  0  0  0  0  0
   -5.9612    1.5090   -0.3356 H   0  0  0  0  0  0  0  0  0  0  0  0
   -7.8407    2.0998    1.1422 H   0  0  0  0  0  0  0  0  0  0  0  0
   -8.9069   -2.0736    1.4463 H   0  0  0  0  0  0  0  0  0  0  0  0
   -7.0266   -2.6587   -0.0319 H   0  0  0  0  0  0  0  0  0  0  0  0
   -1.8956    0.9888    2.3683 H   0  0  0  0  0  0  0  0  0  0  0  0
    0.2721    2.1244    2.0563 H   0  0  0  0  0  0  0  0  0  0  0  0
    4.7101    2.2056    0.3455 H   0  0  0  0  0  0  0  0  0  0  0  0
    4.0821    2.7781   -1.2076 H   0  0  0  0  0  0  0  0  0  0  0  0
    6.1837    1.5509   -1.6633 H   0  0  0  0  0  0  0  0  0  0  0  0
    4.8302    0.6631   -2.3076 H   0  0  0  0  0  0  0  0  0  0  0  0
    6.9895   -2.3125    0.3203 H   0  0  0  0  0  0  0  0  0  0  0  0
    9.1192   -2.2106    1.5882 H   0  0  0  0  0  0  0  0  0  0  0  0
   10.1554    0.0217    2.0410 H   0  0  0  0  0  0  0  0  0  0  0  0
    8.9812    2.0541    1.1891 H   0  0  0  0  0  0  0  0  0  0  0  0
    4.6802   -0.3521    1.3095 H   0  0  0  0  0  0  0  0  0  0  0  0
    4.5612   -1.8280    0.3306 H   0  0  0  0  0  0  0  0  0  0  0  0
    2.3861   -0.6472    0.5165 H   0  0  0  0  0  0  0  0  0  0  0  0
    2.9281   -0.7195   -1.1713 H   0  0  0  0  0  0  0  0  0  0  0  0
    0.6799    0.3403   -1.8126 H   0  0  0  0  0  0  0  0  0  0  0  0
  1  2  1  0
  2  3  1  0
  3  4  2  0
  3  5  1  0
  5  6  2  3
  6  7  1  0
  7  8  2  0
  8  9  1  0
  9 10  2  0
 10 11  1  0
 11 12  1  0
 11 13  1  0
 11 14  1  0
 10 15  1  0
 15 16  2  0
  5 17  1  0
 17 18  1  0
 18 19  2  0
 19 20  1  0
 20 21  2  0
 21 22  1  0
 22 23  2  0
 22 24  1  0
 24 25  1  0
 25 26  1  0
 26 27  1  0
 27 28  1  0
 28 29  2  0
 29 30  1  0
 30 31  2  0
 31 32  1  0
 32 33  2  0
 27 34  1  0
 34 35  1  0
 21 36  1  0
 36 37  2  0
 37  2  1  0
 16  7  1  0
 37 18  1  0
 35 24  1  0
 33 28  1  0
  1 38  1  0
  1 39  1  0
  1 40  1  0
  6 41  1  0
  8 42  1  0
  9 43  1  0
 15 44  1  0
 16 45  1  0
 19 46  1  0
 20 47  1  0
 25 48  1  0
 25 49  1  0
 26 50  1  0
 26 51  1  0
 29 52  1  0
 30 53  1  0
 31 54  1  0
 32 55  1  0
 34 56  1  0
 34 57  1  0
 35 58  1  0
 35 59  1  0
 36 60  1  0
M  END
$$$$
