
     RDKit          3D

 43 45  0  0  0  0  0  0  0  0999 V2000
    8.0454   -1.7250    0.8813 C   0  0  0  0  0  0  0  0  0  0  0  0
    6.6708   -1.3660    0.7336 O   0  0  0  0  0  0  0  0  0  0  0  0
    6.3463   -0.1842    1.3163 C   0  0  0  0  0  0  0  0  0  0  0  0
    7.1134    0.5461    1.9233 O   0  0  0  0  0  0  0  0  0  0  0  0
    4.9023    0.1193    1.1190 C   0  0  0  0  0  0  0  0  0  0  0  0
    4.0405   -0.7354    0.4186 C   0  0  0  0  0  0  0  0  0  0  0  0
    2.6876   -0.4061    0.2591 C   0  0  0  0  0  0  0  0  0  0  0  0
    2.1856    0.7788    0.7981 C   0  0  0  0  0  0  0  0  0  0  0  0
    0.8950    1.2189    0.7164 O   0  0  0  0  0  0  0  0  0  0  0  0
   -0.0397    0.3908    0.0329 C   0  0  0  0  0  0  0  0  0  0  0  0
   -1.4497    1.0179    0.0178 C   0  0  0  0  0  0  0  0  0  0  0  0
   -1.6271    2.1135    0.5530 O   0  0  0  0  0  0  0  0  0  0  0  0
   -2.4597    0.2532   -0.6240 N   0  0  0  0  0  0  0  0  0  0  0  0
   -2.2040   -1.1572   -0.9509 C   0  0  0  0  0  0  0  0  0  0  0  0
   -3.2059   -1.7902   -1.8974 C   0  0  0  0  0  0  0  0  0  0  0  0
   -4.5950   -1.6290   -1.3238 C   0  0  0  0  0  0  0  0  0  0  0  0
   -4.8638   -0.1698   -1.0857 C   0  0  0  0  0  0  0  0  0  0  0  0
   -6.1970    0.2749   -1.1723 C   0  0  0  0  0  0  0  0  0  0  0  0
   -6.5126    1.6135   -0.9754 C   0  0  0  0  0  0  0  0  0  0  0  0
   -5.4982    2.5160   -0.6937 C   0  0  0  0  0  0  0  0  0  0  0  0
   -4.1725    2.0774   -0.5887 C   0  0  0  0  0  0  0  0  0  0  0  0
   -3.8236    0.7277   -0.7528 C   0  0  0  0  0  0  0  0  0  0  0  0
    3.0454    1.6307    1.4956 C   0  0  0  0  0  0  0  0  0  0  0  0
    4.3951    1.3068    1.6575 C   0  0  0  0  0  0  0  0  0  0  0  0
    8.6900   -0.9784    0.4068 H   0  0  0  0  0  0  0  0  0  0  0  0
    8.2004   -2.6845    0.3802 H   0  0  0  0  0  0  0  0  0  0  0  0
    8.2997   -1.8420    1.9395 H   0  0  0  0  0  0  0  0  0  0  0  0
    4.4073   -1.6645   -0.0114 H   0  0  0  0  0  0  0  0  0  0  0  0
    2.0595   -1.0978   -0.2918 H   0  0  0  0  0  0  0  0  0  0  0  0
   -0.1020   -0.5737    0.5484 H   0  0  0  0  0  0  0  0  0  0  0  0
    0.2796    0.2775   -1.0093 H   0  0  0  0  0  0  0  0  0  0  0  0
   -2.1722   -1.7080   -0.0021 H   0  0  0  0  0  0  0  0  0  0  0  0
   -1.2166   -1.2517   -1.4124 H   0  0  0  0  0  0  0  0  0  0  0  0
   -2.9743   -2.8519   -2.0366 H   0  0  0  0  0  0  0  0  0  0  0  0
   -3.1422   -1.3103   -2.8826 H   0  0  0  0  0  0  0  0  0  0  0  0
   -5.3217   -2.0468   -2.0304 H   0  0  0  0  0  0  0  0  0  0  0  0
   -4.6951   -2.1732   -0.3771 H   0  0  0  0  0  0  0  0  0  0  0  0
   -6.9961   -0.4266   -1.4028 H   0  0  0  0  0  0  0  0  0  0  0  0
   -7.5421    1.9524   -1.0499 H   0  0  0  0  0  0  0  0  0  0  0  0
   -5.7272    3.5693   -0.5523 H   0  0  0  0  0  0  0  0  0  0  0  0
   -3.4302    2.8441   -0.3927 H   0  0  0  0  0  0  0  0  0  0  0  0
    2.6595    2.5567    1.9176 H   0  0  0  0  0  0  0  0  0  0  0  0
    5.0451    1.9867    2.2052 H   0  0  0  0  0  0  0  0  0  0  0  0
  1  2  1  0
  2  3  1  0
  3  4  2  0
  3  5  1  0
  5  6  2  0
  6  7  1  0
  7  8  2  0
  8  9  1  0
  9 10  1  0
 10 11  1  0
 11 12  2  0
 11 13  1  0
 13 14  1  0
 14 15  1  0
 15 16  1  0
 16 17  1  0
 17 18  2  0
 18 19  1  0
 19 20  2  0
 20 21  1  0
 21 22  2  0
  8 23  1  0
 23 24  2  0
 24  5  1  0
 22 13  1  0
 22 17  1  0
  1 25  1  0
  1 26  1  0
  1 27  1  0
  6 28  1  0
  7 29  1  0
 10 30  1  0
 10 31  1  0
 14 32  1  0
 14 33  1  0
 15 34  1  0
 15 35  1  0
 16 36  1  0
 16 37  1  0
 18 38  1  0
 19 39  1  0
 20 40  1  0
 21 41  1  0
 23 42  1  0
 24 43  1  0
M  END
$$$$
