
     RDKit          3D

 81 84  0  0  0  0  0  0  0  0999 V2000
   -1.0563    6.1606    2.7124 C   0  0  0  0  0  0  0  0  0  0  0  0
   -2.1526    5.2909    2.9760 O   0  0  0  0  0  0  0  0  0  0  0  0
   -2.2613    4.1879    2.1748 C   0  0  0  0  0  0  0  0  0  0  0  0
   -1.2758    3.7018    1.3161 C   0  0  0  0  0  0  0  0  0  0  0  0
   -1.5249    2.5729    0.5283 C   0  0  0  0  0  0  0  0  0  0  0  0
   -2.7522    1.9149    0.6196 C   0  0  0  0  0  0  0  0  0  0  0  0
   -3.0962    0.5376   -0.4519 S   0  0  0  0  0  6  0  0  0  0  0  0
   -2.2263    0.6664   -1.6034 O   0  0  0  0  0  0  0  0  0  0  0  0
   -4.5324    0.4570   -0.6036 O   0  0  0  0  0  0  0  0  0  0  0  0
   -2.5860   -0.8205    0.4452 N   0  0  0  0  0  0  0  0  0  0  0  0
   -3.2959   -1.0778    1.7119 C   0  0  0  0  0  0  0  0  0  0  0  0
   -1.1321   -1.1161    0.4897 C   0  0  0  0  0  0  0  0  0  0  0  0
   -0.6503   -1.9635   -0.7308 C   0  0  0  0  0  0  0  0  0  0  0  0
    0.7861   -1.9766   -0.9690 O   0  0  0  0  0  0  0  0  0  0  0  0
    1.5635   -1.9863    0.1602 C   0  0  0  0  0  0  0  0  0  0  0  0
    2.0784   -0.7500    0.6109 C   0  0  0  0  0  0  0  0  0  0  0  0
    1.8385    0.3735   -0.2181 N   0  0  0  0  0  0  0  0  0  0  0  0
    2.2564    1.6793   -0.0370 C   0  0  0  0  0  0  0  0  0  0  0  0
    2.8329    2.0946    0.9587 O   0  0  0  0  0  0  0  0  0  0  0  0
    1.8947    2.4546   -1.1323 N   0  0  0  0  0  0  0  0  0  0  0  0
    2.2475    3.7943   -1.3928 C   0  0  0  0  0  0  0  0  0  0  0  0
    1.6694    4.3988   -2.5160 C   0  0  0  0  0  0  0  0  0  0  0  0
    1.9911    5.7165   -2.8619 C   0  0  0  0  0  0  0  0  0  0  0  0
    2.9109    6.4492   -2.1011 C   0  0  0  0  0  0  0  0  0  0  0  0
    3.2515    7.8704   -2.4746 C   0  0  0  0  0  0  0  0  0  0  0  0
    2.3764    8.7675   -1.9425 F   0  0  0  0  0  0  0  0  0  0  0  0
    3.2343    8.0825   -3.8194 F   0  0  0  0  0  0  0  0  0  0  0  0
    4.4875    8.2570   -2.0540 F   0  0  0  0  0  0  0  0  0  0  0  0
    3.4762    5.8454   -0.9674 C   0  0  0  0  0  0  0  0  0  0  0  0
    3.1477    4.5286   -0.6205 C   0  0  0  0  0  0  0  0  0  0  0  0
    2.8095   -0.7053    1.7991 C   0  0  0  0  0  0  0  0  0  0  0  0
    3.1187   -1.8880    2.4766 C   0  0  0  0  0  0  0  0  0  0  0  0
    2.7106   -3.1186    1.9619 C   0  0  0  0  0  0  0  0  0  0  0  0
    1.9303   -3.1715    0.7987 C   0  0  0  0  0  0  0  0  0  0  0  0
    1.7425   -4.5032    0.1916 C   0  0  0  0  0  0  0  0  0  0  0  0
    2.7710   -5.0943   -0.1435 O   0  0  0  0  0  0  0  0  0  0  0  0
    0.4709   -5.0686    0.0915 N   0  0  0  0  0  0  0  0  0  0  0  0
    0.3915   -6.4557   -0.4432 C   0  0  0  0  0  0  0  0  0  0  0  0
   -0.5251   -7.3714    0.3735 C   0  0  0  0  0  0  0  0  0  0  0  0
    0.0820   -6.5091   -1.9519 C   0  0  0  0  0  0  0  0  0  0  0  0
   -1.3050   -6.3038   -2.2178 O   0  0  0  0  0  0  0  0  0  0  0  0
   -0.7657   -4.3200    0.3394 C   0  0  0  0  0  0  0  0  0  0  0  0
   -1.1842   -3.4150   -0.8362 C   0  0  0  0  0  0  0  0  0  0  0  0
   -2.7044   -3.4745   -1.0236 C   0  0  0  0  0  0  0  0  0  0  0  0
   -3.7489    2.3953    1.4720 C   0  0  0  0  0  0  0  0  0  0  0  0
   -3.4925    3.5235    2.2564 C   0  0  0  0  0  0  0  0  0  0  0  0
   -1.1760    7.0492    3.3394 H   0  0  0  0  0  0  0  0  0  0  0  0
   -0.1074    5.6838    2.9831 H   0  0  0  0  0  0  0  0  0  0  0  0
   -1.0508    6.4858    1.6648 H   0  0  0  0  0  0  0  0  0  0  0  0
   -0.3064    4.1813    1.2306 H   0  0  0  0  0  0  0  0  0  0  0  0
   -0.7590    2.2257   -0.1554 H   0  0  0  0  0  0  0  0  0  0  0  0
   -2.9631   -0.3860    2.4887 H   0  0  0  0  0  0  0  0  0  0  0  0
   -4.3789   -0.9991    1.5834 H   0  0  0  0  0  0  0  0  0  0  0  0
   -3.0920   -2.0985    2.0566 H   0  0  0  0  0  0  0  0  0  0  0  0
   -0.5959   -0.1674    0.5297 H   0  0  0  0  0  0  0  0  0  0  0  0
   -0.8826   -1.6154    1.4290 H   0  0  0  0  0  0  0  0  0  0  0  0
   -1.0249   -1.4563   -1.6261 H   0  0  0  0  0  0  0  0  0  0  0  0
    1.4659    0.1298   -1.1244 H   0  0  0  0  0  0  0  0  0  0  0  0
    1.2619    2.0310   -1.7952 H   0  0  0  0  0  0  0  0  0  0  0  0
    0.9612    3.8591   -3.1381 H   0  0  0  0  0  0  0  0  0  0  0  0
    1.5264    6.1659   -3.7400 H   0  0  0  0  0  0  0  0  0  0  0  0
    4.1935    6.3884   -0.3541 H   0  0  0  0  0  0  0  0  0  0  0  0
    3.6306    4.1004    0.2514 H   0  0  0  0  0  0  0  0  0  0  0  0
    3.1982    0.2263    2.1980 H   0  0  0  0  0  0  0  0  0  0  0  0
    3.7464   -1.8550    3.3663 H   0  0  0  0  0  0  0  0  0  0  0  0
    3.0374   -4.0395    2.4421 H   0  0  0  0  0  0  0  0  0  0  0  0
    1.3953   -6.8884   -0.3425 H   0  0  0  0  0  0  0  0  0  0  0  0
   -1.5868   -7.1268    0.2532 H   0  0  0  0  0  0  0  0  0  0  0  0
   -0.2781   -7.3107    1.4412 H   0  0  0  0  0  0  0  0  0  0  0  0
   -0.3974   -8.4102    0.0522 H   0  0  0  0  0  0  0  0  0  0  0  0
    0.3414   -7.4984   -2.3438 H   0  0  0  0  0  0  0  0  0  0  0  0
    0.6640   -5.7605   -2.5037 H   0  0  0  0  0  0  0  0  0  0  0  0
   -1.3968   -6.2545   -3.1852 H   0  0  0  0  0  0  0  0  0  0  0  0
   -1.5614   -5.0368    0.5630 H   0  0  0  0  0  0  0  0  0  0  0  0
   -0.6349   -3.7435    1.2583 H   0  0  0  0  0  0  0  0  0  0  0  0
   -0.7447   -3.8217   -1.7577 H   0  0  0  0  0  0  0  0  0  0  0  0
   -3.0347   -2.7705   -1.7915 H   0  0  0  0  0  0  0  0  0  0  0  0
   -3.0115   -4.4724   -1.3507 H   0  0  0  0  0  0  0  0  0  0  0  0
   -3.2511   -3.2673   -0.1003 H   0  0  0  0  0  0  0  0  0  0  0  0
   -4.7229    1.9159    1.5235 H   0  0  0  0  0  0  0  0  0  0  0  0
   -4.2669    3.9048    2.9179 H   0  0  0  0  0  0  0  0  0  0  0  0
  1  2  1  0
  2  3  1  0
  3  4  2  0
  4  5  1  0
  5  6  2  0
  6  7  1  0
  7  8  2  0
  7  9  2  0
  7 10  1  0
 10 11  1  0
 10 12  1  0
 12 13  1  0
 13 14  1  0
 14 15  1  0
 15 16  2  0
 16 17  1  0
 17 18  1  0
 18 19  2  0
 18 20  1  0
 20 21  1  0
 21 22  2  0
 22 23  1  0
 23 24  2  0
 24 25  1  0
 25 26  1  0
 25 27  1  0
 25 28  1  0
 24 29  1  0
 29 30  2  0
 16 31  1  0
 31 32  2  0
 32 33  1  0
 33 34  2  0
 34 35  1  0
 35 36  2  0
 35 37  1  0
 37 38  1  0
 38 39  1  0
 38 40  1  0
 40 41  1  0
 37 42  1  0
 42 43  1  0
 43 44  1  0
  6 45  1  0
 45 46  2  0
 46  3  1  0
 43 13  1  0
 34 15  1  0
 30 21  1  0
  1 47  1  0
  1 48  1  0
  1 49  1  0
  4 50  1  0
  5 51  1  0
 11 52  1  0
 11 53  1  0
 11 54  1  0
 12 55  1  0
 12 56  1  0
 13 57  1  0
 17 58  1  0
 20 59  1  0
 22 60  1  0
 23 61  1  0
 29 62  1  0
 30 63  1  0
 31 64  1  0
 32 65  1  0
 33 66  1  0
 38 67  1  0
 39 68  1  0
 39 69  1  0
 39 70  1  0
 40 71  1  0
 40 72  1  0
 41 73  1  0
 42 74  1  0
 42 75  1  0
 43 76  1  0
 44 77  1  0
 44 78  1  0
 44 79  1  0
 45 80  1  0
 46 81  1  0
M  END
$$$$
