
     RDKit          3D

 59 62  0  0  0  0  0  0  0  0999 V2000
   -6.1346   -3.4073   -0.8443 C   0  0  0  0  0  0  0  0  0  0  0  0
   -6.0564   -2.3385   -1.9197 C   0  0  0  0  0  0  0  0  0  0  0  0
   -5.1379   -1.2665   -1.5671 N   0  0  0  0  0  0  0  0  0  0  0  0
   -5.4937   -0.1241   -0.8746 C   0  0  0  0  0  0  0  0  0  0  0  0
   -6.7237    0.2865   -0.3327 C   0  0  0  0  0  0  0  0  0  0  0  0
   -6.7782    1.5197    0.3231 C   0  0  0  0  0  0  0  0  0  0  0  0
   -5.6468    2.3196    0.4382 C   0  0  0  0  0  0  0  0  0  0  0  0
   -4.4263    1.9022   -0.1011 C   0  0  0  0  0  0  0  0  0  0  0  0
   -4.3439    0.6605   -0.7673 C   0  0  0  0  0  0  0  0  0  0  0  0
   -3.2775   -0.0452   -1.4064 C   0  0  0  0  0  0  0  0  0  0  0  0
   -1.9083    0.2369   -1.6106 C   0  0  0  0  0  0  0  0  0  0  0  0
   -1.0849   -0.6804   -2.2820 C   0  0  0  0  0  0  0  0  0  0  0  0
    0.2675   -0.3164   -2.4396 N   0  0  0  0  0  0  0  0  0  0  0  0
    1.2941   -1.0517   -3.0104 C   0  0  0  0  0  0  0  0  0  0  0  0
    1.1903   -2.1746   -3.4975 O   0  0  0  0  0  0  0  0  0  0  0  0
    2.6447   -0.2937   -2.9967 C   0  0  0  0  0  0  0  0  0  0  0  0
    3.6795   -1.0145   -3.8548 C   0  0  0  0  0  0  0  0  0  0  0  0
    3.2100   -0.1907   -1.6792 O   0  0  0  0  0  0  0  0  0  0  0  0
    2.7216    0.7972   -0.8943 C   0  0  0  0  0  0  0  0  0  0  0  0
    1.8179    1.5593   -1.2053 O   0  0  0  0  0  0  0  0  0  0  0  0
    3.4249    0.8349    0.4149 C   0  0  0  0  0  0  0  0  0  0  0  0
    4.4269   -0.0789    0.7583 C   0  0  0  0  0  0  0  0  0  0  0  0
    5.0584    0.0066    2.0054 C   0  0  0  0  0  0  0  0  0  0  0  0
    4.6996    0.9995    2.9276 C   0  0  0  0  0  0  0  0  0  0  0  0
    5.3826    1.0072    4.1631 N   0  0  0  0  0  0  0  0  0  0  0  0
    5.2120    1.8986    5.2130 C   0  0  0  0  0  0  0  0  0  0  0  0
    4.4377    2.8507    5.2379 O   0  0  0  0  0  0  0  0  0  0  0  0
    6.0892    1.5962    6.4070 C   0  0  0  0  0  0  0  0  0  0  0  0
    7.4068    2.2003    6.2286 C   0  0  0  0  0  0  0  0  0  0  0  0
    8.4713    2.6417    6.0911 N   0  0  0  0  0  0  0  0  0  0  0  0
    3.6986    1.9078    2.5800 C   0  0  0  0  0  0  0  0  0  0  0  0
    3.0662    1.8280    1.3326 C   0  0  0  0  0  0  0  0  0  0  0  0
   -1.6313   -1.8729   -2.7478 C   0  0  0  0  0  0  0  0  0  0  0  0
   -2.9872   -2.1768   -2.5619 C   0  0  0  0  0  0  0  0  0  0  0  0
   -3.7944   -1.2464   -1.8897 C   0  0  0  0  0  0  0  0  0  0  0  0
   -5.1554   -3.8635   -0.6666 H   0  0  0  0  0  0  0  0  0  0  0  0
   -6.4845   -2.9893    0.1052 H   0  0  0  0  0  0  0  0  0  0  0  0
   -6.8293   -4.1974   -1.1448 H   0  0  0  0  0  0  0  0  0  0  0  0
   -7.0422   -1.8978   -2.0992 H   0  0  0  0  0  0  0  0  0  0  0  0
   -5.7295   -2.7707   -2.8710 H   0  0  0  0  0  0  0  0  0  0  0  0
   -7.6143   -0.3281   -0.4122 H   0  0  0  0  0  0  0  0  0  0  0  0
   -7.7201    1.8568    0.7495 H   0  0  0  0  0  0  0  0  0  0  0  0
   -5.7084    3.2756    0.9517 H   0  0  0  0  0  0  0  0  0  0  0  0
   -3.5466    2.5314   -0.0046 H   0  0  0  0  0  0  0  0  0  0  0  0
   -1.5054    1.1728   -1.2346 H   0  0  0  0  0  0  0  0  0  0  0  0
    0.5285    0.5907   -2.0507 H   0  0  0  0  0  0  0  0  0  0  0  0
    2.4914    0.7042   -3.4278 H   0  0  0  0  0  0  0  0  0  0  0  0
    4.6227   -0.4575   -3.8648 H   0  0  0  0  0  0  0  0  0  0  0  0
    3.3315   -1.1326   -4.8858 H   0  0  0  0  0  0  0  0  0  0  0  0
    3.9043   -2.0081   -3.4500 H   0  0  0  0  0  0  0  0  0  0  0  0
    4.7265   -0.8662    0.0696 H   0  0  0  0  0  0  0  0  0  0  0  0
    5.8340   -0.7182    2.2392 H   0  0  0  0  0  0  0  0  0  0  0  0
    6.0958    0.2948    4.2673 H   0  0  0  0  0  0  0  0  0  0  0  0
    6.1700    0.5116    6.5398 H   0  0  0  0  0  0  0  0  0  0  0  0
    5.5983    1.9871    7.3053 H   0  0  0  0  0  0  0  0  0  0  0  0
    3.3800    2.6988    3.2539 H   0  0  0  0  0  0  0  0  0  0  0  0
    2.2898    2.5514    1.0880 H   0  0  0  0  0  0  0  0  0  0  0  0
   -1.0260   -2.6056   -3.2731 H   0  0  0  0  0  0  0  0  0  0  0  0
   -3.3856   -3.1151   -2.9348 H   0  0  0  0  0  0  0  0  0  0  0  0
  1  2  1  0
  2  3  1  0
  3  4  1  0
  4  5  2  0
  5  6  1  0
  6  7  2  0
  7  8  1  0
  8  9  2  0
  9 10  1  0
 10 11  2  0
 11 12  1  0
 12 13  1  0
 13 14  1  0
 14 15  2  0
 14 16  1  0
 16 17  1  0
 16 18  1  0
 18 19  1  0
 19 20  2  0
 19 21  1  0
 21 22  2  0
 22 23  1  0
 23 24  2  0
 24 25  1  0
 25 26  1  0
 26 27  2  0
 26 28  1  0
 28 29  1  0
 29 30  3  0
 24 31  1  0
 31 32  2  0
 12 33  2  0
 33 34  1  0
 34 35  2  0
 35  3  1  0
  9  4  1  0
 35 10  1  0
 32 21  1  0
  1 36  1  0
  1 37  1  0
  1 38  1  0
  2 39  1  0
  2 40  1  0
  5 41  1  0
  6 42  1  0
  7 43  1  0
  8 44  1  0
 11 45  1  0
 13 46  1  0
 16 47  1  0
 17 48  1  0
 17 49  1  0
 17 50  1  0
 22 51  1  0
 23 52  1  0
 25 53  1  0
 28 54  1  0
 28 55  1  0
 31 56  1  0
 32 57  1  0
 33 58  1  0
 34 59  1  0
M  END
$$$$
