
     RDKit          3D

 41 43  0  0  0  0  0  0  0  0999 V2000
   -3.2243   -0.4716    1.8086 C   0  0  0  0  0  0  0  0  0  0  0  0
   -3.0810    0.1502    0.5169 N   0  0  0  0  0  0  0  0  0  0  0  0
   -1.9145    0.4788   -0.1166 C   0  0  0  0  0  0  0  0  0  0  0  0
   -0.3433    0.0573    0.4632 S   0  0  0  0  0  0  0  0  0  0  0  0
    0.6793    1.1050   -0.6132 C   0  0  0  0  0  0  0  0  0  0  0  0
    2.1423    0.8514   -0.3052 C   0  0  0  0  0  0  0  0  0  0  0  0
    2.7650    1.5313    0.5079 O   0  0  0  0  0  0  0  0  0  0  0  0
    2.6678   -0.2180   -1.0333 N   0  0  0  0  0  0  0  0  0  0  0  0
    3.9178   -0.7534   -0.8296 N   0  0  0  0  0  0  0  0  0  0  0  0
    4.8973    0.0600   -0.5776 C   0  0  0  0  0  0  0  0  0  0  0  0
    6.2170   -0.4641   -0.3117 C   0  0  0  0  0  0  0  0  0  0  0  0
    6.6336   -1.7807   -0.2453 C   0  0  0  0  0  0  0  0  0  0  0  0
    8.0268   -1.8941    0.0450 C   0  0  0  0  0  0  0  0  0  0  0  0
    8.6121   -0.6543    0.1866 C   0  0  0  0  0  0  0  0  0  0  0  0
    9.9965   -0.3881    0.4806 N   0  0  0  0  0  4  0  0  0  0  0  0
   10.3658    0.7905    0.5580 O   0  0  0  0  0  0  0  0  0  0  0  0
   10.7245   -1.3787    0.6333 O   0  0  0  0  0  1  0  0  0  0  0  0
    7.5095    0.6214   -0.0245 S   0  0  0  0  0  0  0  0  0  0  0  0
   -2.1752    1.1348   -1.2201 N   0  0  0  0  0  0  0  0  0  0  0  0
   -3.5397    1.2278   -1.3319 N   0  0  0  0  0  0  0  0  0  0  0  0
   -4.0923    0.5992   -0.3083 C   0  0  0  0  0  0  0  0  0  0  0  0
   -5.5298    0.4518   -0.0912 C   0  0  0  0  0  0  0  0  0  0  0  0
   -6.1051   -0.7882    0.2222 C   0  0  0  0  0  0  0  0  0  0  0  0
   -7.4858   -0.9010    0.4151 C   0  0  0  0  0  0  0  0  0  0  0  0
   -8.2988    0.2231    0.2844 C   0  0  0  0  0  0  0  0  0  0  0  0
   -9.9962    0.0821    0.5232 Cl  0  0  0  0  0  0  0  0  0  0  0  0
   -7.7451    1.4575   -0.0454 C   0  0  0  0  0  0  0  0  0  0  0  0
   -6.3652    1.5686   -0.2385 C   0  0  0  0  0  0  0  0  0  0  0  0
   -2.4240   -0.1359    2.4723 H   0  0  0  0  0  0  0  0  0  0  0  0
   -3.1805   -1.5552    1.6750 H   0  0  0  0  0  0  0  0  0  0  0  0
   -4.1762   -0.1814    2.2590 H   0  0  0  0  0  0  0  0  0  0  0  0
    0.4842    0.8857   -1.6684 H   0  0  0  0  0  0  0  0  0  0  0  0
    0.4628    2.1639   -0.4376 H   0  0  0  0  0  0  0  0  0  0  0  0
    1.9998   -0.8956   -1.3946 H   0  0  0  0  0  0  0  0  0  0  0  0
    4.7793    1.1576   -0.5890 H   0  0  0  0  0  0  0  0  0  0  0  0
    5.9658   -2.6222   -0.3966 H   0  0  0  0  0  0  0  0  0  0  0  0
    8.5600   -2.8334    0.1431 H   0  0  0  0  0  0  0  0  0  0  0  0
   -5.4916   -1.6829    0.2973 H   0  0  0  0  0  0  0  0  0  0  0  0
   -7.9207   -1.8679    0.6553 H   0  0  0  0  0  0  0  0  0  0  0  0
   -8.3773    2.3340   -0.1608 H   0  0  0  0  0  0  0  0  0  0  0  0
   -5.9407    2.5346   -0.5094 H   0  0  0  0  0  0  0  0  0  0  0  0
  1  2  1  0
  2  3  1  0
  3  4  1  0
  4  5  1  0
  5  6  1  0
  6  7  2  0
  6  8  1  0
  8  9  1  0
  9 10  2  3
 10 11  1  0
 11 12  2  0
 12 13  1  0
 13 14  2  0
 14 15  1  0
 15 16  2  0
 15 17  1  0
 14 18  1  0
  3 19  2  0
 19 20  1  0
 20 21  2  0
 21 22  1  0
 22 23  2  0
 23 24  1  0
 24 25  2  0
 25 26  1  0
 25 27  1  0
 27 28  2  0
 21  2  1  0
 28 22  1  0
 18 11  1  0
  1 29  1  0
  1 30  1  0
  1 31  1  0
  5 32  1  0
  5 33  1  0
  8 34  1  0
 10 35  1  0
 12 36  1  0
 13 37  1  0
 23 38  1  0
 24 39  1  0
 27 40  1  0
 28 41  1  0
M  CHG  2  15   1  17  -1
M  END
$$$$
