
     RDKit          3D

 37 38  0  0  0  0  0  0  0  0999 V2000
   -5.3969   -0.6332   -2.6108 C   0  0  0  0  0  0  0  0  0  0  0  0
   -5.0151   -0.0028   -1.3476 N   0  0  0  0  0  0  0  0  0  0  0  0
   -6.0775    0.0968   -0.3474 C   0  0  0  0  0  0  0  0  0  0  0  0
   -3.6827   -0.0631   -0.9284 C   0  0  0  0  0  0  0  0  0  0  0  0
   -3.2945    0.2606    0.3829 C   0  0  0  0  0  0  0  0  0  0  0  0
   -1.9551    0.2235    0.8026 C   0  0  0  0  0  0  0  0  0  0  0  0
   -0.9392   -0.1204   -0.0873 C   0  0  0  0  0  0  0  0  0  0  0  0
    0.4491   -0.1690    0.3913 C   0  0  0  0  0  0  0  0  0  0  0  0
    1.4926    0.2718   -0.3302 C   0  0  0  0  0  0  0  0  0  0  0  0
    2.8837    0.2378    0.1353 C   0  0  0  0  0  0  0  0  0  0  0  0
    3.8994   -0.0266   -0.7820 C   0  0  0  0  0  0  0  0  0  0  0  0
    5.2250   -0.0357   -0.3624 C   0  0  0  0  0  0  0  0  0  0  0  0
    5.5404    0.2171    0.9271 N   0  0  0  0  0  4  0  0  0  0  0  0
    6.9522    0.2133    1.3464 C   0  0  0  0  0  0  0  0  0  0  0  0
    4.5757    0.5012    1.8299 C   0  0  0  0  0  0  0  0  0  0  0  0
    3.2370    0.5189    1.4544 C   0  0  0  0  0  0  0  0  0  0  0  0
   -1.2953   -0.4504   -1.3940 C   0  0  0  0  0  0  0  0  0  0  0  0
   -2.6385   -0.4114   -1.8021 C   0  0  0  0  0  0  0  0  0  0  0  0
   -4.8834   -0.1657   -3.4578 H   0  0  0  0  0  0  0  0  0  0  0  0
   -5.1803   -1.7070   -2.5953 H   0  0  0  0  0  0  0  0  0  0  0  0
   -6.4685   -0.5153   -2.8079 H   0  0  0  0  0  0  0  0  0  0  0  0
   -6.0691   -0.7702    0.3223 H   0  0  0  0  0  0  0  0  0  0  0  0
   -7.0658    0.1411   -0.8187 H   0  0  0  0  0  0  0  0  0  0  0  0
   -5.9842    1.0170    0.2393 H   0  0  0  0  0  0  0  0  0  0  0  0
   -4.0304    0.5568    1.1246 H   0  0  0  0  0  0  0  0  0  0  0  0
   -1.7277    0.4832    1.8337 H   0  0  0  0  0  0  0  0  0  0  0  0
    0.5752   -0.5825    1.3886 H   0  0  0  0  0  0  0  0  0  0  0  0
    1.3330    0.6824   -1.3263 H   0  0  0  0  0  0  0  0  0  0  0  0
    3.6663   -0.2344   -1.8250 H   0  0  0  0  0  0  0  0  0  0  0  0
    6.0394   -0.2409   -1.0516 H   0  0  0  0  0  0  0  0  0  0  0  0
    7.0139   -0.0929    2.3939 H   0  0  0  0  0  0  0  0  0  0  0  0
    7.5075   -0.4975    0.7290 H   0  0  0  0  0  0  0  0  0  0  0  0
    7.3357    1.2278    1.2135 H   0  0  0  0  0  0  0  0  0  0  0  0
    4.8845    0.7195    2.8484 H   0  0  0  0  0  0  0  0  0  0  0  0
    2.4797    0.7665    2.1957 H   0  0  0  0  0  0  0  0  0  0  0  0
   -0.5445   -0.7503   -2.1200 H   0  0  0  0  0  0  0  0  0  0  0  0
   -2.8416   -0.6657   -2.8381 H   0  0  0  0  0  0  0  0  0  0  0  0
  1  2  1  0
  2  3  1  0
  2  4  1  0
  4  5  2  0
  5  6  1  0
  6  7  2  0
  7  8  1  0
  8  9  2  3
  9 10  1  0
 10 11  2  0
 11 12  1  0
 12 13  2  0
 13 14  1  0
 13 15  1  0
 15 16  2  0
  7 17  1  0
 17 18  2  0
 18  4  1  0
 16 10  1  0
  1 19  1  0
  1 20  1  0
  1 21  1  0
  3 22  1  0
  3 23  1  0
  3 24  1  0
  5 25  1  0
  6 26  1  0
  8 27  1  0
  9 28  1  0
 11 29  1  0
 12 30  1  0
 14 31  1  0
 14 32  1  0
 14 33  1  0
 15 34  1  0
 16 35  1  0
 17 36  1  0
 18 37  1  0
M  CHG  1  13   1
M  END
$$$$
