
     RDKit          3D

 39 39  0  0  0  0  0  0  0  0999 V2000
   -2.5659   -3.8348    0.7619 C   0  0  0  0  0  0  0  0  0  0  0  0
   -2.0579   -2.7946    1.7423 C   0  0  0  0  0  0  0  0  0  0  0  0
   -1.6785   -1.5988    1.0401 O   0  0  0  0  0  0  0  0  0  0  0  0
   -0.3862   -1.5658    0.5561 C   0  0  0  0  0  0  0  0  0  0  0  0
    0.3826   -2.5103    0.6824 O   0  0  0  0  0  0  0  0  0  0  0  0
   -0.1004   -0.2158   -0.1758 C   0  0  0  0  0  0  0  0  0  0  0  0
   -1.3114    0.6339    0.0243 N   0  0  0  0  0  0  0  0  0  0  0  0
   -1.4914    1.8692   -0.5366 C   0  0  0  0  0  0  0  0  0  0  0  0
   -0.5797    2.4758   -1.0830 O   0  0  0  0  0  0  0  0  0  0  0  0
   -2.8938    2.4132   -0.3602 C   0  0  0  0  0  0  0  0  0  0  0  0
   -3.0714    3.7724   -1.0124 C   0  0  0  0  0  0  0  0  0  0  0  0
    0.9580    0.5856    0.4943 N   0  0  0  0  0  0  0  0  0  0  0  0
    2.3309    0.4111    0.3032 C   0  0  0  0  0  0  0  0  0  0  0  0
    3.1564    1.5396    0.4656 C   0  0  0  0  0  0  0  0  0  0  0  0
    4.5486    1.4621    0.3602 C   0  0  0  0  0  0  0  0  0  0  0  0
    5.1552    0.2372    0.1195 C   0  0  0  0  0  0  0  0  0  0  0  0
    4.3659   -0.9008    0.0025 C   0  0  0  0  0  0  0  0  0  0  0  0
    2.9707   -0.8131    0.1105 C   0  0  0  0  0  0  0  0  0  0  0  0
    0.1037   -0.6157   -1.6705 C   0  0  0  0  0  0  0  0  0  0  0  0
    0.5042    0.4166   -2.4485 F   0  0  0  0  0  0  0  0  0  0  0  0
   -1.0770   -1.0548   -2.1967 F   0  0  0  0  0  0  0  0  0  0  0  0
    0.9926   -1.6163   -1.8612 F   0  0  0  0  0  0  0  0  0  0  0  0
   -3.3922   -3.4311    0.1677 H   0  0  0  0  0  0  0  0  0  0  0  0
   -1.7814   -4.1281    0.0573 H   0  0  0  0  0  0  0  0  0  0  0  0
   -2.9134   -4.7276    1.2892 H   0  0  0  0  0  0  0  0  0  0  0  0
   -2.8611   -2.5164    2.4325 H   0  0  0  0  0  0  0  0  0  0  0  0
   -1.2316   -3.1804    2.3500 H   0  0  0  0  0  0  0  0  0  0  0  0
   -2.1175    0.1476    0.4020 H   0  0  0  0  0  0  0  0  0  0  0  0
   -3.1042    2.4899    0.7123 H   0  0  0  0  0  0  0  0  0  0  0  0
   -3.6008    1.7014   -0.8007 H   0  0  0  0  0  0  0  0  0  0  0  0
   -4.0951    4.1322   -0.8714 H   0  0  0  0  0  0  0  0  0  0  0  0
   -2.8710    3.7214   -2.0877 H   0  0  0  0  0  0  0  0  0  0  0  0
   -2.3870    4.5091   -0.5787 H   0  0  0  0  0  0  0  0  0  0  0  0
    0.7419    1.5646    0.2834 H   0  0  0  0  0  0  0  0  0  0  0  0
    2.7133    2.5125    0.6710 H   0  0  0  0  0  0  0  0  0  0  0  0
    5.1518    2.3587    0.4732 H   0  0  0  0  0  0  0  0  0  0  0  0
    6.2359    0.1657    0.0381 H   0  0  0  0  0  0  0  0  0  0  0  0
    4.8309   -1.8696   -0.1628 H   0  0  0  0  0  0  0  0  0  0  0  0
    2.4262   -1.7459    0.0421 H   0  0  0  0  0  0  0  0  0  0  0  0
  1  2  1  0
  2  3  1  0
  3  4  1  0
  4  5  2  0
  4  6  1  0
  6  7  1  0
  7  8  1  0
  8  9  2  0
  8 10  1  0
 10 11  1  0
  6 12  1  0
 12 13  1  0
 13 14  2  0
 14 15  1  0
 15 16  2  0
 16 17  1  0
 17 18  2  0
  6 19  1  0
 19 20  1  0
 19 21  1  0
 19 22  1  0
 18 13  1  0
  1 23  1  0
  1 24  1  0
  1 25  1  0
  2 26  1  0
  2 27  1  0
  7 28  1  0
 10 29  1  0
 10 30  1  0
 11 31  1  0
 11 32  1  0
 11 33  1  0
 12 34  1  0
 14 35  1  0
 15 36  1  0
 16 37  1  0
 17 38  1  0
 18 39  1  0
M  END
$$$$
