
     RDKit          3D

 51 53  0  0  0  0  0  0  0  0999 V2000
    7.7273   -2.0811    1.4316 C   0  0  0  0  0  0  0  0  0  0  0  0
    7.4308   -0.7420    1.0657 O   0  0  0  0  0  0  0  0  0  0  0  0
    6.3470   -0.5287    0.2508 C   0  0  0  0  0  0  0  0  0  0  0  0
    5.6048   -1.5451   -0.3610 C   0  0  0  0  0  0  0  0  0  0  0  0
    4.5204   -1.2339   -1.1878 C   0  0  0  0  0  0  0  0  0  0  0  0
    4.1685    0.0990   -1.4240 C   0  0  0  0  0  0  0  0  0  0  0  0
    3.0071    0.4461   -2.3244 C   0  0  0  0  0  0  0  0  0  0  0  0
    1.7342    0.7751   -1.5524 C   0  0  0  0  0  0  0  0  0  0  0  0
    1.6911    1.7325   -0.7852 O   0  0  0  0  0  0  0  0  0  0  0  0
    0.6889   -0.0898   -1.8421 N   0  0  0  0  0  0  0  0  0  0  0  0
   -0.6103   -0.0791   -1.2929 C   0  0  0  0  0  0  0  0  0  0  0  0
   -1.0235    0.7723   -0.2695 C   0  0  0  0  0  0  0  0  0  0  0  0
   -2.3352    0.7132    0.2266 C   0  0  0  0  0  0  0  0  0  0  0  0
   -3.2541   -0.1967   -0.2939 C   0  0  0  0  0  0  0  0  0  0  0  0
   -4.5901   -0.3092    0.1430 N   0  0  0  0  0  0  0  0  0  0  0  0
   -5.1713    0.3284    1.2246 C   0  0  0  0  0  0  0  0  0  0  0  0
   -4.6170    1.0460    2.0480 O   0  0  0  0  0  0  0  0  0  0  0  0
   -6.6227    0.0448    1.4011 C   0  0  0  0  0  0  0  0  0  0  0  0
   -7.4937   -0.0289    0.3041 C   0  0  0  0  0  0  0  0  0  0  0  0
   -8.8503   -0.2980    0.5074 C   0  0  0  0  0  0  0  0  0  0  0  0
   -9.3325   -0.4861    1.8031 C   0  0  0  0  0  0  0  0  0  0  0  0
  -11.1665   -0.8566    2.0725 Br  0  0  0  0  0  0  0  0  0  0  0  0
   -8.4749   -0.3971    2.9004 C   0  0  0  0  0  0  0  0  0  0  0  0
   -7.1195   -0.1243    2.6998 C   0  0  0  0  0  0  0  0  0  0  0  0
   -2.8421   -1.0481   -1.3232 C   0  0  0  0  0  0  0  0  0  0  0  0
   -1.5314   -0.9942   -1.8130 C   0  0  0  0  0  0  0  0  0  0  0  0
    4.9052    1.1184   -0.7998 C   0  0  0  0  0  0  0  0  0  0  0  0
    5.9870    0.8159    0.0371 C   0  0  0  0  0  0  0  0  0  0  0  0
    6.7605    1.7637    0.6643 O   0  0  0  0  0  0  0  0  0  0  0  0
    6.2028    3.0650    0.7912 C   0  0  0  0  0  0  0  0  0  0  0  0
    8.0387   -2.6664    0.5619 H   0  0  0  0  0  0  0  0  0  0  0  0
    6.8801   -2.5488    1.9425 H   0  0  0  0  0  0  0  0  0  0  0  0
    8.5670   -2.0589    2.1322 H   0  0  0  0  0  0  0  0  0  0  0  0
    5.8482   -2.5927   -0.2179 H   0  0  0  0  0  0  0  0  0  0  0  0
    3.9616   -2.0460   -1.6485 H   0  0  0  0  0  0  0  0  0  0  0  0
    2.8363   -0.3711   -3.0360 H   0  0  0  0  0  0  0  0  0  0  0  0
    3.2592    1.3199   -2.9392 H   0  0  0  0  0  0  0  0  0  0  0  0
    0.8571   -0.7934   -2.5490 H   0  0  0  0  0  0  0  0  0  0  0  0
   -0.3494    1.4953    0.1827 H   0  0  0  0  0  0  0  0  0  0  0  0
   -2.6037    1.4040    1.0200 H   0  0  0  0  0  0  0  0  0  0  0  0
   -5.1565   -0.9926   -0.3441 H   0  0  0  0  0  0  0  0  0  0  0  0
   -7.1368    0.1506   -0.7068 H   0  0  0  0  0  0  0  0  0  0  0  0
   -9.5236   -0.3490   -0.3459 H   0  0  0  0  0  0  0  0  0  0  0  0
   -8.8488   -0.5345    3.9114 H   0  0  0  0  0  0  0  0  0  0  0  0
   -6.4490   -0.0473    3.5552 H   0  0  0  0  0  0  0  0  0  0  0  0
   -3.5269   -1.7741   -1.7531 H   0  0  0  0  0  0  0  0  0  0  0  0
   -1.2482   -1.6790   -2.6070 H   0  0  0  0  0  0  0  0  0  0  0  0
    4.6146    2.1493   -0.9850 H   0  0  0  0  0  0  0  0  0  0  0  0
    6.1732    3.5749   -0.1787 H   0  0  0  0  0  0  0  0  0  0  0  0
    5.2093    3.0307    1.2523 H   0  0  0  0  0  0  0  0  0  0  0  0
    6.8574    3.6478    1.4498 H   0  0  0  0  0  0  0  0  0  0  0  0
  1  2  1  0
  2  3  1  0
  3  4  2  0
  4  5  1  0
  5  6  2  0
  6  7  1  0
  7  8  1  0
  8  9  2  0
  8 10  1  0
 10 11  1  0
 11 12  2  0
 12 13  1  0
 13 14  2  0
 14 15  1  0
 15 16  1  0
 16 17  2  0
 16 18  1  0
 18 19  2  0
 19 20  1  0
 20 21  2  0
 21 22  1  0
 21 23  1  0
 23 24  2  0
 14 25  1  0
 25 26  2  0
  6 27  1  0
 27 28  2  0
 28 29  1  0
 29 30  1  0
 28  3  1  0
 26 11  1  0
 24 18  1  0
  1 31  1  0
  1 32  1  0
  1 33  1  0
  4 34  1  0
  5 35  1  0
  7 36  1  0
  7 37  1  0
 10 38  1  0
 12 39  1  0
 13 40  1  0
 15 41  1  0
 19 42  1  0
 20 43  1  0
 23 44  1  0
 24 45  1  0
 25 46  1  0
 26 47  1  0
 27 48  1  0
 30 49  1  0
 30 50  1  0
 30 51  1  0
M  END
$$$$
