
     RDKit          3D

 65 70  0  0  0  0  0  0  0  0999 V2000
   -6.1468   -3.6808   -2.2099 C   0  0  0  0  0  0  0  0  0  0  0  0
   -4.7525   -3.6119   -2.4813 O   0  0  0  0  0  0  0  0  0  0  0  0
   -3.9882   -2.8976   -1.5998 C   0  0  0  0  0  0  0  0  0  0  0  0
   -2.6203   -2.8839   -1.8901 C   0  0  0  0  0  0  0  0  0  0  0  0
   -1.7152   -2.2051   -1.0671 C   0  0  0  0  0  0  0  0  0  0  0  0
   -2.1744   -1.5061    0.0506 C   0  0  0  0  0  0  0  0  0  0  0  0
   -3.5482   -1.5148    0.3193 C   0  0  0  0  0  0  0  0  0  0  0  0
   -4.4525   -2.2147   -0.4782 C   0  0  0  0  0  0  0  0  0  0  0  0
   -4.0341   -0.8611    1.4242 O   0  0  0  0  0  0  0  0  0  0  0  0
   -3.4772    0.4545    1.5109 C   0  0  0  0  0  0  0  0  0  0  0  0
   -1.9462    0.4800    1.5324 C   0  0  0  0  0  0  0  0  0  0  0  0
   -1.2919   -0.8186    1.0643 C   0  0  0  0  0  0  0  0  0  0  0  0
    0.0281   -0.4136    0.5724 N   0  0  0  0  0  0  0  0  0  0  0  0
    1.0721   -1.3129    0.6283 C   0  0  0  0  0  0  0  0  0  0  0  0
    0.9270   -2.4310    1.1240 O   0  0  0  0  0  0  0  0  0  0  0  0
    2.4057   -0.9832    0.0617 C   0  0  0  0  0  0  0  0  0  0  0  0
    3.4802   -1.7444    0.5720 C   0  0  0  0  0  0  0  0  0  0  0  0
    4.7648   -1.6551    0.0313 C   0  0  0  0  0  0  0  0  0  0  0  0
    5.8503   -2.3614    0.4831 O   0  0  0  0  0  0  0  0  0  0  0  0
    5.6377   -3.3129    1.5173 C   0  0  0  0  0  0  0  0  0  0  0  0
    4.9902   -0.8006   -1.0574 C   0  0  0  0  0  0  0  0  0  0  0  0
    6.2720   -0.7691   -1.5451 O   0  0  0  0  0  0  0  0  0  0  0  0
    6.5323    0.0280   -2.6913 C   0  0  0  0  0  0  0  0  0  0  0  0
    3.9282   -0.0450   -1.5663 C   0  0  0  0  0  0  0  0  0  0  0  0
    2.6391   -0.1047   -1.0005 C   0  0  0  0  0  0  0  0  0  0  0  0
    1.7003    0.7489   -1.5966 N   0  0  0  0  0  0  0  0  0  0  0  0
    0.5403    1.2794   -1.1155 C   0  0  0  0  0  0  0  0  0  0  0  0
   -0.0598    2.0498   -1.8708 O   0  0  0  0  0  0  0  0  0  0  0  0
    0.1172    1.0426    0.3464 C   0  0  0  0  0  0  0  0  0  0  0  0
    1.0922    1.7199    1.3264 C   0  0  0  0  0  0  0  0  0  0  0  0
   -1.3625    1.5320    0.5596 C   0  0  0  0  0  0  0  0  0  0  0  0
   -1.5815    2.9811    0.9724 C   0  0  0  0  0  0  0  0  0  0  0  0
   -1.5531    3.4136    2.3078 C   0  0  0  0  0  0  0  0  0  0  0  0
   -1.7627    4.7569    2.6331 C   0  0  0  0  0  0  0  0  0  0  0  0
   -2.0041    5.6913    1.6307 C   0  0  0  0  0  0  0  0  0  0  0  0
   -2.0352    5.2833    0.3015 C   0  0  0  0  0  0  0  0  0  0  0  0
   -1.8261    3.9414   -0.0235 C   0  0  0  0  0  0  0  0  0  0  0  0
   -6.6098   -4.2898   -2.9924 H   0  0  0  0  0  0  0  0  0  0  0  0
   -6.3389   -4.1706   -1.2496 H   0  0  0  0  0  0  0  0  0  0  0  0
   -6.6054   -2.6871   -2.2467 H   0  0  0  0  0  0  0  0  0  0  0  0
   -2.2513   -3.4264   -2.7576 H   0  0  0  0  0  0  0  0  0  0  0  0
   -0.6569   -2.2545   -1.3049 H   0  0  0  0  0  0  0  0  0  0  0  0
   -5.5002   -2.1990   -0.2026 H   0  0  0  0  0  0  0  0  0  0  0  0
   -3.8557    0.9008    2.4380 H   0  0  0  0  0  0  0  0  0  0  0  0
   -3.8969    1.0612    0.6975 H   0  0  0  0  0  0  0  0  0  0  0  0
   -1.6023    0.6694    2.5565 H   0  0  0  0  0  0  0  0  0  0  0  0
   -1.1713   -1.5027    1.9145 H   0  0  0  0  0  0  0  0  0  0  0  0
    3.2785   -2.4268    1.3940 H   0  0  0  0  0  0  0  0  0  0  0  0
    5.3107   -2.8240    2.4408 H   0  0  0  0  0  0  0  0  0  0  0  0
    6.5944   -3.8029    1.7222 H   0  0  0  0  0  0  0  0  0  0  0  0
    4.9285   -4.0863    1.2044 H   0  0  0  0  0  0  0  0  0  0  0  0
    6.3699    1.0894   -2.4772 H   0  0  0  0  0  0  0  0  0  0  0  0
    5.9325   -0.3003   -3.5466 H   0  0  0  0  0  0  0  0  0  0  0  0
    7.5864   -0.1000   -2.9558 H   0  0  0  0  0  0  0  0  0  0  0  0
    4.0982    0.6302   -2.3995 H   0  0  0  0  0  0  0  0  0  0  0  0
    1.9329    1.1512   -2.4984 H   0  0  0  0  0  0  0  0  0  0  0  0
    1.1503    2.7989    1.1456 H   0  0  0  0  0  0  0  0  0  0  0  0
    2.1178    1.3540    1.2431 H   0  0  0  0  0  0  0  0  0  0  0  0
    0.7908    1.5524    2.3660 H   0  0  0  0  0  0  0  0  0  0  0  0
   -1.9069    1.3953   -0.3885 H   0  0  0  0  0  0  0  0  0  0  0  0
   -1.3576    2.7239    3.1240 H   0  0  0  0  0  0  0  0  0  0  0  0
   -1.7353    5.0738    3.6727 H   0  0  0  0  0  0  0  0  0  0  0  0
   -2.1668    6.7352    1.8845 H   0  0  0  0  0  0  0  0  0  0  0  0
   -2.2224    6.0076   -0.4871 H   0  0  0  0  0  0  0  0  0  0  0  0
   -1.8586    3.6524   -1.0734 H   0  0  0  0  0  0  0  0  0  0  0  0
  1  2  1  0
  2  3  1  0
  3  4  2  0
  4  5  1  0
  5  6  2  0
  6  7  1  0
  7  8  2  0
  7  9  1  0
  9 10  1  0
 10 11  1  0
 11 12  1  0
 12 13  1  0
 13 14  1  0
 14 15  2  0
 14 16  1  0
 16 17  2  0
 17 18  1  0
 18 19  1  0
 19 20  1  0
 18 21  2  0
 21 22  1  0
 22 23  1  0
 21 24  1  0
 24 25  2  0
 25 26  1  0
 26 27  1  0
 27 28  2  0
 27 29  1  0
 29 30  1  0
 29 31  1  0
 31 32  1  0
 32 33  2  0
 33 34  1  0
 34 35  2  0
 35 36  1  0
 36 37  2  0
  8  3  1  0
 31 11  1  0
 37 32  1  0
 12  6  1  0
 29 13  1  0
 25 16  1  0
  1 38  1  0
  1 39  1  0
  1 40  1  0
  4 41  1  0
  5 42  1  0
  8 43  1  0
 10 44  1  0
 10 45  1  0
 11 46  1  0
 12 47  1  0
 17 48  1  0
 20 49  1  0
 20 50  1  0
 20 51  1  0
 23 52  1  0
 23 53  1  0
 23 54  1  0
 24 55  1  0
 26 56  1  0
 30 57  1  0
 30 58  1  0
 30 59  1  0
 31 60  1  0
 33 61  1  0
 34 62  1  0
 35 63  1  0
 36 64  1  0
 37 65  1  0
M  END
$$$$
