
     RDKit          3D

 47 50  0  0  0  0  0  0  0  0999 V2000
   -3.7168    4.8362   -0.1604 N   0  0  0  0  0  0  0  0  0  0  0  0
   -4.3227    3.7063    0.2510 C   0  0  0  0  0  0  0  0  0  0  0  0
   -5.6310    3.5981    0.4783 N   0  0  0  0  0  0  0  0  0  0  0  0
   -5.8288    2.2869    0.8968 O   0  0  0  0  0  0  0  0  0  0  0  0
   -4.6287    1.5799    0.9282 N   0  0  0  0  0  0  0  0  0  0  0  0
   -3.7184    2.4616    0.5144 C   0  0  0  0  0  0  0  0  0  0  0  0
   -2.3484    2.1107    0.3979 N   0  0  0  0  0  0  0  0  0  0  0  0
   -1.4140    3.0290    0.0050 N   0  0  0  0  0  0  0  0  0  0  0  0
   -0.2199    2.4659    0.0108 N   0  0  0  0  0  0  0  0  0  0  0  0
   -0.3630    1.1578    0.3924 C   0  0  0  0  0  0  0  0  0  0  0  0
    0.7798    0.2532    0.4981 C   0  0  0  0  0  0  0  0  0  0  0  0
    0.6721   -0.8993    0.9047 O   0  0  0  0  0  0  0  0  0  0  0  0
    1.9647    0.8579    0.1037 N   0  0  0  0  0  0  0  0  0  0  0  0
    3.1438    0.1755    0.1432 N   0  0  0  0  0  0  0  0  0  0  0  0
    4.1835    0.8399   -0.2489 C   0  0  0  0  0  0  0  0  0  0  0  0
    5.5313    0.2372   -0.2636 C   0  0  0  0  0  0  0  0  0  0  0  0
    5.7299   -1.0846    0.1473 C   0  0  0  0  0  0  0  0  0  0  0  0
    7.0138   -1.6307    0.1241 C   0  0  0  0  0  0  0  0  0  0  0  0
    8.0854   -0.8558   -0.3075 C   0  0  0  0  0  0  0  0  0  0  0  0
    9.3209   -1.4315   -0.3130 O   0  0  0  0  0  0  0  0  0  0  0  0
    7.8976    0.4615   -0.7188 C   0  0  0  0  0  0  0  0  0  0  0  0
    6.6132    1.0120   -0.6970 C   0  0  0  0  0  0  0  0  0  0  0  0
   -1.7042    0.8979    0.6286 C   0  0  0  0  0  0  0  0  0  0  0  0
   -2.3899   -0.3637    1.0046 C   0  0  0  0  0  0  0  0  0  0  0  0
   -3.0528   -0.8030   -0.1778 O   0  0  0  0  0  0  0  0  0  0  0  0
   -3.8344   -1.9204   -0.0755 C   0  0  0  0  0  0  0  0  0  0  0  0
   -4.5814   -2.2135   -1.2226 C   0  0  0  0  0  0  0  0  0  0  0  0
   -5.4220   -3.3268   -1.2571 C   0  0  0  0  0  0  0  0  0  0  0  0
   -5.5093   -4.1476   -0.1411 C   0  0  0  0  0  0  0  0  0  0  0  0
   -6.3140   -5.2178   -0.1685 F   0  0  0  0  0  0  0  0  0  0  0  0
   -4.7705   -3.8747    1.0041 C   0  0  0  0  0  0  0  0  0  0  0  0
   -3.9288   -2.7586    1.0386 C   0  0  0  0  0  0  0  0  0  0  0  0
   -4.2842    5.6019   -0.5084 H   0  0  0  0  0  0  0  0  0  0  0  0
   -2.7564    4.8292   -0.4990 H   0  0  0  0  0  0  0  0  0  0  0  0
    1.9401    1.8232   -0.2115 H   0  0  0  0  0  0  0  0  0  0  0  0
    4.1067    1.8883   -0.5899 H   0  0  0  0  0  0  0  0  0  0  0  0
    4.8930   -1.6926    0.4849 H   0  0  0  0  0  0  0  0  0  0  0  0
    7.1761   -2.6572    0.4417 H   0  0  0  0  0  0  0  0  0  0  0  0
    9.9693   -0.7847   -0.6358 H   0  0  0  0  0  0  0  0  0  0  0  0
    8.7320    1.0685   -1.0562 H   0  0  0  0  0  0  0  0  0  0  0  0
    6.4701    2.0400   -1.0185 H   0  0  0  0  0  0  0  0  0  0  0  0
   -3.0921   -0.1976    1.8289 H   0  0  0  0  0  0  0  0  0  0  0  0
   -1.6697   -1.1211    1.3260 H   0  0  0  0  0  0  0  0  0  0  0  0
   -4.5084   -1.5670   -2.0937 H   0  0  0  0  0  0  0  0  0  0  0  0
   -6.0040   -3.5560   -2.1434 H   0  0  0  0  0  0  0  0  0  0  0  0
   -4.8509   -4.5339    1.8627 H   0  0  0  0  0  0  0  0  0  0  0  0
   -3.3585   -2.5804    1.9443 H   0  0  0  0  0  0  0  0  0  0  0  0
  1  2  1  0
  2  3  2  0
  3  4  1  0
  4  5  1  0
  5  6  2  0
  6  7  1  0
  7  8  1  0
  8  9  2  0
  9 10  1  0
 10 11  1  0
 11 12  2  0
 11 13  1  0
 13 14  1  0
 14 15  2  3
 15 16  1  0
 16 17  2  0
 17 18  1  0
 18 19  2  0
 19 20  1  0
 19 21  1  0
 21 22  2  0
 10 23  2  0
 23 24  1  0
 24 25  1  0
 25 26  1  0
 26 27  2  0
 27 28  1  0
 28 29  2  0
 29 30  1  0
 29 31  1  0
 31 32  2  0
  6  2  1  0
 23  7  1  0
 32 26  1  0
 22 16  1  0
  1 33  1  0
  1 34  1  0
 13 35  1  0
 15 36  1  0
 17 37  1  0
 18 38  1  0
 20 39  1  0
 21 40  1  0
 22 41  1  0
 24 42  1  0
 24 43  1  0
 27 44  1  0
 28 45  1  0
 31 46  1  0
 32 47  1  0
M  END
$$$$
