
     RDKit          3D

 51 53  0  0  0  0  0  0  0  0999 V2000
    6.0030    2.6899   -2.9747 C   0  0  0  0  0  0  0  0  0  0  0  0
    6.1257    2.2394   -1.6338 O   0  0  0  0  0  0  0  0  0  0  0  0
    5.4725    1.0813   -1.2893 C   0  0  0  0  0  0  0  0  0  0  0  0
    4.7803    0.2668   -2.1912 C   0  0  0  0  0  0  0  0  0  0  0  0
    4.1409   -0.8939   -1.7483 C   0  0  0  0  0  0  0  0  0  0  0  0
    4.1752   -1.2548   -0.3962 C   0  0  0  0  0  0  0  0  0  0  0  0
    3.4694   -2.5047    0.0779 C   0  0  0  0  0  0  0  0  0  0  0  0
    1.9770   -2.5120   -0.2276 C   0  0  0  0  0  0  0  0  0  0  0  0
    1.4925   -3.3723   -0.9582 O   0  0  0  0  0  0  0  0  0  0  0  0
    1.2903   -1.4971    0.4180 N   0  0  0  0  0  0  0  0  0  0  0  0
   -0.0936   -1.2338    0.3811 C   0  0  0  0  0  0  0  0  0  0  0  0
   -1.0141   -1.9883   -0.3437 C   0  0  0  0  0  0  0  0  0  0  0  0
   -2.3766   -1.6617   -0.3191 C   0  0  0  0  0  0  0  0  0  0  0  0
   -2.8438   -0.5781    0.4325 C   0  0  0  0  0  0  0  0  0  0  0  0
   -4.2320   -0.3303    0.4127 N   0  0  0  0  0  0  0  0  0  0  0  0
   -4.9090    0.7004    1.0384 C   0  0  0  0  0  0  0  0  0  0  0  0
   -4.4180    1.6284    1.6688 O   0  0  0  0  0  0  0  0  0  0  0  0
   -6.3906    0.6673    0.8733 C   0  0  0  0  0  0  0  0  0  0  0  0
   -7.1052   -0.5392    0.8564 C   0  0  0  0  0  0  0  0  0  0  0  0
   -8.4949   -0.5254    0.7018 C   0  0  0  0  0  0  0  0  0  0  0  0
   -9.1669    0.6918    0.5748 C   0  0  0  0  0  0  0  0  0  0  0  0
  -11.0460    0.7047    0.3690 Br  0  0  0  0  0  0  0  0  0  0  0  0
   -8.4658    1.8964    0.6058 C   0  0  0  0  0  0  0  0  0  0  0  0
   -7.0775    1.8849    0.7603 C   0  0  0  0  0  0  0  0  0  0  0  0
   -1.9238    0.1761    1.1579 C   0  0  0  0  0  0  0  0  0  0  0  0
   -0.5602   -0.1474    1.1289 C   0  0  0  0  0  0  0  0  0  0  0  0
    4.8854   -0.4485    0.5072 C   0  0  0  0  0  0  0  0  0  0  0  0
    5.5339    0.7154    0.0717 C   0  0  0  0  0  0  0  0  0  0  0  0
    6.2409    1.5618    0.8913 O   0  0  0  0  0  0  0  0  0  0  0  0
    6.3967    1.1924    2.2553 C   0  0  0  0  0  0  0  0  0  0  0  0
    6.4774    1.9896   -3.6703 H   0  0  0  0  0  0  0  0  0  0  0  0
    4.9555    2.8629   -3.2427 H   0  0  0  0  0  0  0  0  0  0  0  0
    6.5278    3.6472   -3.0539 H   0  0  0  0  0  0  0  0  0  0  0  0
    4.7221    0.5051   -3.2489 H   0  0  0  0  0  0  0  0  0  0  0  0
    3.6114   -1.5139   -2.4708 H   0  0  0  0  0  0  0  0  0  0  0  0
    3.9336   -3.3764   -0.3995 H   0  0  0  0  0  0  0  0  0  0  0  0
    3.5895   -2.6385    1.1600 H   0  0  0  0  0  0  0  0  0  0  0  0
    1.8486   -0.8423    0.9564 H   0  0  0  0  0  0  0  0  0  0  0  0
   -0.7086   -2.8387   -0.9453 H   0  0  0  0  0  0  0  0  0  0  0  0
   -3.0607   -2.2753   -0.9003 H   0  0  0  0  0  0  0  0  0  0  0  0
   -4.7747   -0.9492   -0.1750 H   0  0  0  0  0  0  0  0  0  0  0  0
   -6.6021   -1.4930    0.9950 H   0  0  0  0  0  0  0  0  0  0  0  0
   -9.0441   -1.4644    0.6944 H   0  0  0  0  0  0  0  0  0  0  0  0
   -8.9874    2.8468    0.5198 H   0  0  0  0  0  0  0  0  0  0  0  0
   -6.5316    2.8269    0.7957 H   0  0  0  0  0  0  0  0  0  0  0  0
   -2.2316    1.0246    1.7626 H   0  0  0  0  0  0  0  0  0  0  0  0
    0.1240    0.4673    1.7088 H   0  0  0  0  0  0  0  0  0  0  0  0
    4.9239   -0.7468    1.5505 H   0  0  0  0  0  0  0  0  0  0  0  0
    7.0149    1.9545    2.7405 H   0  0  0  0  0  0  0  0  0  0  0  0
    6.9166    0.2318    2.3503 H   0  0  0  0  0  0  0  0  0  0  0  0
    5.4303    1.1725    2.7705 H   0  0  0  0  0  0  0  0  0  0  0  0
  1  2  1  0
  2  3  1  0
  3  4  2  0
  4  5  1  0
  5  6  2  0
  6  7  1  0
  7  8  1  0
  8  9  2  0
  8 10  1  0
 10 11  1  0
 11 12  2  0
 12 13  1  0
 13 14  2  0
 14 15  1  0
 15 16  1  0
 16 17  2  0
 16 18  1  0
 18 19  2  0
 19 20  1  0
 20 21  2  0
 21 22  1  0
 21 23  1  0
 23 24  2  0
 14 25  1  0
 25 26  2  0
  6 27  1  0
 27 28  2  0
 28 29  1  0
 29 30  1  0
 28  3  1  0
 26 11  1  0
 24 18  1  0
  1 31  1  0
  1 32  1  0
  1 33  1  0
  4 34  1  0
  5 35  1  0
  7 36  1  0
  7 37  1  0
 10 38  1  0
 12 39  1  0
 13 40  1  0
 15 41  1  0
 19 42  1  0
 20 43  1  0
 23 44  1  0
 24 45  1  0
 25 46  1  0
 26 47  1  0
 27 48  1  0
 30 49  1  0
 30 50  1  0
 30 51  1  0
M  END
$$$$
