
     RDKit          3D

 32 33  0  0  0  0  0  0  0  0999 V2000
   -5.0960   -1.1470    0.8047 C   0  0  0  0  0  0  0  0  0  0  0  0
   -3.8798   -0.5396    0.1693 C   0  0  0  0  0  0  0  0  0  0  0  0
   -3.1252    0.4198    0.8559 C   0  0  0  0  0  0  0  0  0  0  0  0
   -1.9752    0.9644    0.2765 C   0  0  0  0  0  0  0  0  0  0  0  0
   -1.1139    2.1769    1.1570 Cl  0  0  0  0  0  0  0  0  0  0  0  0
   -1.5464    0.5333   -0.9854 C   0  0  0  0  0  0  0  0  0  0  0  0
   -0.4320    1.0905   -1.5619 O   0  0  0  0  0  0  0  0  0  0  0  0
    0.7510    0.3684   -1.1876 C   0  0  0  0  0  0  0  0  0  0  0  0
    1.9472    1.2728   -1.4721 C   0  0  0  0  0  0  0  0  0  0  0  0
    3.2871    0.5725   -1.2741 C   0  0  0  0  0  0  0  0  0  0  0  0
    3.5213    0.1320    0.0842 N   0  0  0  0  0  0  0  0  0  0  0  0
    3.4843   -1.1575    0.5348 C   0  0  0  0  0  0  0  0  0  0  0  0
    3.7823   -1.0712    1.8749 C   0  0  0  0  0  0  0  0  0  0  0  0
    4.0039    0.2311    2.2407 N   0  0  0  0  0  0  0  0  0  0  0  0
    3.8455    0.9328    1.1412 C   0  0  0  0  0  0  0  0  0  0  0  0
   -2.3075   -0.4123   -1.6809 C   0  0  0  0  0  0  0  0  0  0  0  0
   -1.8350   -0.9883   -3.4273 Br  0  0  0  0  0  0  0  0  0  0  0  0
   -3.4586   -0.9563   -1.1002 C   0  0  0  0  0  0  0  0  0  0  0  0
   -5.5841   -0.4328    1.4760 H   0  0  0  0  0  0  0  0  0  0  0  0
   -5.8314   -1.4334    0.0456 H   0  0  0  0  0  0  0  0  0  0  0  0
   -4.8137   -2.0356    1.3776 H   0  0  0  0  0  0  0  0  0  0  0  0
   -3.4382    0.7515    1.8440 H   0  0  0  0  0  0  0  0  0  0  0  0
    0.8209   -0.5452   -1.7889 H   0  0  0  0  0  0  0  0  0  0  0  0
    0.7314    0.0908   -0.1268 H   0  0  0  0  0  0  0  0  0  0  0  0
    1.8808    2.1660   -0.8379 H   0  0  0  0  0  0  0  0  0  0  0  0
    1.8843    1.6379   -2.5050 H   0  0  0  0  0  0  0  0  0  0  0  0
    3.3666   -0.3011   -1.9315 H   0  0  0  0  0  0  0  0  0  0  0  0
    4.1076    1.2514   -1.5345 H   0  0  0  0  0  0  0  0  0  0  0  0
    3.2597   -2.0004   -0.1034 H   0  0  0  0  0  0  0  0  0  0  0  0
    3.8519   -1.8764    2.5947 H   0  0  0  0  0  0  0  0  0  0  0  0
    3.9495    2.0072    1.0597 H   0  0  0  0  0  0  0  0  0  0  0  0
   -4.0381   -1.7022   -1.6412 H   0  0  0  0  0  0  0  0  0  0  0  0
  1  2  1  0
  2  3  2  0
  3  4  1  0
  4  5  1  0
  4  6  2  0
  6  7  1  0
  7  8  1  0
  8  9  1  0
  9 10  1  0
 10 11  1  0
 11 12  1  0
 12 13  2  0
 13 14  1  0
 14 15  2  0
  6 16  1  0
 16 17  1  0
 16 18  2  0
 18  2  1  0
 15 11  1  0
  1 19  1  0
  1 20  1  0
  1 21  1  0
  3 22  1  0
  8 23  1  0
  8 24  1  0
  9 25  1  0
  9 26  1  0
 10 27  1  0
 10 28  1  0
 12 29  1  0
 13 30  1  0
 15 31  1  0
 18 32  1  0
M  END
$$$$
