
     RDKit          3D

 49 53  0  0  0  0  0  0  0  0999 V2000
   -4.9157   -3.6397    0.9769 C   0  0  0  0  0  0  0  0  0  0  0  0
   -4.9002   -2.3232    0.2553 C   0  0  0  0  0  0  0  0  0  0  0  0
   -6.0997   -1.7158   -0.1445 C   0  0  0  0  0  0  0  0  0  0  0  0
   -6.0891   -0.5086   -0.8486 C   0  0  0  0  0  0  0  0  0  0  0  0
   -4.8787    0.1088   -1.1625 C   0  0  0  0  0  0  0  0  0  0  0  0
   -3.6818   -0.4962   -0.7695 C   0  0  0  0  0  0  0  0  0  0  0  0
   -2.1315    0.2683   -1.1692 S   0  0  0  0  0  6  0  0  0  0  0  0
   -2.3978    1.4280   -1.9921 O   0  0  0  0  0  0  0  0  0  0  0  0
   -1.2255   -0.7768   -1.6024 O   0  0  0  0  0  0  0  0  0  0  0  0
   -1.6400    0.8057    0.3540 N   0  0  0  0  0  0  0  0  0  0  0  0
   -0.4062    1.5189    0.3265 C   0  0  0  0  0  0  0  0  0  0  0  0
   -0.6248    2.8216    0.6032 N   0  0  0  0  0  0  0  0  0  0  0  0
    0.4625    3.6113    0.5882 C   0  0  0  0  0  0  0  0  0  0  0  0
    0.3243    4.9720    0.8408 C   0  0  0  0  0  0  0  0  0  0  0  0
    1.4265    5.8281    0.8330 C   0  0  0  0  0  0  0  0  0  0  0  0
    2.6902    5.3157    0.5672 C   0  0  0  0  0  0  0  0  0  0  0  0
    2.8406    3.9509    0.3118 C   0  0  0  0  0  0  0  0  0  0  0  0
    1.7512    3.0888    0.3179 C   0  0  0  0  0  0  0  0  0  0  0  0
    1.9435    1.7784    0.0716 N   0  0  0  0  0  0  0  0  0  0  0  0
    0.8646    0.9621    0.0697 C   0  0  0  0  0  0  0  0  0  0  0  0
    1.0176   -0.4347   -0.1118 N   0  0  0  0  0  0  0  0  0  0  0  0
    2.2058   -1.1913   -0.2379 C   0  0  0  0  0  0  0  0  0  0  0  0
    2.1429   -2.4313   -0.9208 C   0  0  0  0  0  0  0  0  0  0  0  0
    3.2647   -3.2591   -1.0421 C   0  0  0  0  0  0  0  0  0  0  0  0
    4.4362   -2.8370   -0.4570 C   0  0  0  0  0  0  0  0  0  0  0  0
    4.5064   -1.6554    0.2393 C   0  0  0  0  0  0  0  0  0  0  0  0
    3.4126   -0.8234    0.3749 C   0  0  0  0  0  0  0  0  0  0  0  0
    5.7446   -1.4338    0.7607 O   0  0  0  0  0  0  0  0  0  0  0  0
    6.4494   -2.5996    0.2883 C   0  0  0  0  0  0  0  0  0  0  0  0
    5.6222   -3.5030   -0.4766 O   0  0  0  0  0  0  0  0  0  0  0  0
   -3.6838   -1.7134   -0.0755 C   0  0  0  0  0  0  0  0  0  0  0  0
   -4.0863   -3.7012    1.6876 H   0  0  0  0  0  0  0  0  0  0  0  0
   -4.8327   -4.4593    0.2580 H   0  0  0  0  0  0  0  0  0  0  0  0
   -5.8424   -3.7623    1.5488 H   0  0  0  0  0  0  0  0  0  0  0  0
   -7.0556   -2.1850    0.0829 H   0  0  0  0  0  0  0  0  0  0  0  0
   -7.0272   -0.0549   -1.1615 H   0  0  0  0  0  0  0  0  0  0  0  0
   -4.8829    1.0448   -1.7187 H   0  0  0  0  0  0  0  0  0  0  0  0
   -2.3274    1.4698    0.7153 H   0  0  0  0  0  0  0  0  0  0  0  0
   -0.6652    5.3755    1.0444 H   0  0  0  0  0  0  0  0  0  0  0  0
    1.2950    6.8900    1.0308 H   0  0  0  0  0  0  0  0  0  0  0  0
    3.5589    5.9712    0.5566 H   0  0  0  0  0  0  0  0  0  0  0  0
    3.8295    3.5478    0.1022 H   0  0  0  0  0  0  0  0  0  0  0  0
    0.2866   -0.7813   -0.7425 H   0  0  0  0  0  0  0  0  0  0  0  0
    1.2071   -2.7526   -1.3741 H   0  0  0  0  0  0  0  0  0  0  0  0
    3.2124   -4.2039   -1.5704 H   0  0  0  0  0  0  0  0  0  0  0  0
    3.5044    0.0879    0.9527 H   0  0  0  0  0  0  0  0  0  0  0  0
    7.2862   -2.2736   -0.3394 H   0  0  0  0  0  0  0  0  0  0  0  0
    6.8506   -3.1435    1.1519 H   0  0  0  0  0  0  0  0  0  0  0  0
   -2.7419   -2.1857    0.2057 H   0  0  0  0  0  0  0  0  0  0  0  0
  1  2  1  0
  2  3  2  0
  3  4  1  0
  4  5  2  0
  5  6  1  0
  6  7  1  0
  7  8  2  0
  7  9  2  0
  7 10  1  0
 10 11  1  0
 11 12  2  0
 12 13  1  0
 13 14  2  0
 14 15  1  0
 15 16  2  0
 16 17  1  0
 17 18  2  0
 18 19  1  0
 19 20  2  0
 20 21  1  0
 21 22  1  0
 22 23  2  0
 23 24  1  0
 24 25  2  0
 25 26  1  0
 26 27  2  0
 26 28  1  0
 28 29  1  0
 29 30  1  0
  6 31  2  0
 31  2  1  0
 20 11  1  0
 27 22  1  0
 18 13  1  0
 30 25  1  0
  1 32  1  0
  1 33  1  0
  1 34  1  0
  3 35  1  0
  4 36  1  0
  5 37  1  0
 10 38  1  0
 14 39  1  0
 15 40  1  0
 16 41  1  0
 17 42  1  0
 21 43  1  0
 23 44  1  0
 24 45  1  0
 27 46  1  0
 29 47  1  0
 29 48  1  0
 31 49  1  0
M  END
$$$$
