
     RDKit          3D

 57 60  0  0  0  0  0  0  0  0999 V2000
   -3.3506   -3.2563    0.7472 C   0  0  0  0  0  0  0  0  0  0  0  0
   -4.5506   -2.3600    0.4630 C   0  0  0  0  0  0  0  0  0  0  0  0
   -5.1043   -2.5285   -0.9483 C   0  0  0  0  0  0  0  0  0  0  0  0
   -4.3662   -0.8884    0.8475 C   0  0  0  0  0  0  0  0  0  0  0  0
   -5.2293   -0.3655    1.5639 O   0  0  0  0  0  0  0  0  0  0  0  0
   -3.2935   -0.1470    0.3889 N   0  0  0  0  0  0  0  0  0  0  0  0
   -3.1817    1.2507    0.8381 C   0  0  0  0  0  0  0  0  0  0  0  0
   -1.7256    1.7362    0.9510 C   0  0  0  0  0  0  0  0  0  0  0  0
   -0.9352    1.5115   -0.2864 N   0  0  0  0  0  0  0  0  0  0  0  0
   -0.5255    2.7022   -0.9485 C   0  0  0  0  0  0  0  0  0  0  0  0
   -1.4276    3.7132   -1.3109 C   0  0  0  0  0  0  0  0  0  0  0  0
   -0.9835    4.8493   -1.9898 C   0  0  0  0  0  0  0  0  0  0  0  0
    0.3644    4.9857   -2.3161 C   0  0  0  0  0  0  0  0  0  0  0  0
    1.2781    3.9892   -1.9667 C   0  0  0  0  0  0  0  0  0  0  0  0
    0.8428    2.8517   -1.2874 C   0  0  0  0  0  0  0  0  0  0  0  0
    1.6923    1.8051   -0.8720 N   0  0  0  0  0  0  0  0  0  0  0  0
    3.0355    1.6416   -1.1213 C   0  0  0  0  0  0  0  0  0  0  0  0
    3.7436    2.3563   -1.8205 O   0  0  0  0  0  0  0  0  0  0  0  0
    3.6469    0.4355   -0.4926 C   0  0  0  0  0  0  0  0  0  0  0  0
    4.6923   -0.2115   -1.1677 C   0  0  0  0  0  0  0  0  0  0  0  0
    5.2953   -1.3425   -0.6129 C   0  0  0  0  0  0  0  0  0  0  0  0
    4.8642   -1.8206    0.6221 C   0  0  0  0  0  0  0  0  0  0  0  0
    3.8159   -1.1830    1.2949 C   0  0  0  0  0  0  0  0  0  0  0  0
    3.2184   -0.0461    0.7513 C   0  0  0  0  0  0  0  0  0  0  0  0
    3.3291   -1.6109    2.5045 O   0  0  0  0  0  0  0  0  0  0  0  0
    3.7736   -2.9380    2.8095 C   0  0  0  0  0  0  0  0  0  0  0  0
    5.2570   -3.0921    2.5157 C   0  0  0  0  0  0  0  0  0  0  0  0
    5.5136   -2.9220    1.1168 O   0  0  0  0  0  0  0  0  0  0  0  0
   -1.5391    0.5604   -1.2515 C   0  0  0  0  0  0  0  0  0  0  0  0
   -2.2286   -0.6024   -0.5141 C   0  0  0  0  0  0  0  0  0  0  0  0
   -3.6753   -4.2987    0.8447 H   0  0  0  0  0  0  0  0  0  0  0  0
   -2.8529   -2.9706    1.6809 H   0  0  0  0  0  0  0  0  0  0  0  0
   -2.6091   -3.2339   -0.0567 H   0  0  0  0  0  0  0  0  0  0  0  0
   -5.3403   -2.7141    1.1438 H   0  0  0  0  0  0  0  0  0  0  0  0
   -5.9300   -1.8310   -1.1292 H   0  0  0  0  0  0  0  0  0  0  0  0
   -4.3535   -2.3563   -1.7229 H   0  0  0  0  0  0  0  0  0  0  0  0
   -5.4877   -3.5452   -1.0864 H   0  0  0  0  0  0  0  0  0  0  0  0
   -3.6764    1.3820    1.8068 H   0  0  0  0  0  0  0  0  0  0  0  0
   -3.7293    1.8577    0.1073 H   0  0  0  0  0  0  0  0  0  0  0  0
   -1.2317    1.1625    1.7454 H   0  0  0  0  0  0  0  0  0  0  0  0
   -1.7038    2.7838    1.2754 H   0  0  0  0  0  0  0  0  0  0  0  0
   -2.4846    3.6227   -1.0813 H   0  0  0  0  0  0  0  0  0  0  0  0
   -1.6896    5.6278   -2.2673 H   0  0  0  0  0  0  0  0  0  0  0  0
    0.7105    5.8708   -2.8444 H   0  0  0  0  0  0  0  0  0  0  0  0
    2.3220    4.1289   -2.2284 H   0  0  0  0  0  0  0  0  0  0  0  0
    1.1806    1.0877   -0.3668 H   0  0  0  0  0  0  0  0  0  0  0  0
    5.0390    0.1672   -2.1281 H   0  0  0  0  0  0  0  0  0  0  0  0
    6.1078   -1.8387   -1.1368 H   0  0  0  0  0  0  0  0  0  0  0  0
    2.4382    0.4580    1.3138 H   0  0  0  0  0  0  0  0  0  0  0  0
    3.5775   -3.1165    3.8715 H   0  0  0  0  0  0  0  0  0  0  0  0
    3.1731   -3.6480    2.2269 H   0  0  0  0  0  0  0  0  0  0  0  0
    5.8555   -2.3603    3.0723 H   0  0  0  0  0  0  0  0  0  0  0  0
    5.5963   -4.0938    2.7957 H   0  0  0  0  0  0  0  0  0  0  0  0
   -2.2809    1.0613   -1.8881 H   0  0  0  0  0  0  0  0  0  0  0  0
   -0.7552    0.1559   -1.9032 H   0  0  0  0  0  0  0  0  0  0  0  0
   -1.4941   -1.1328    0.1031 H   0  0  0  0  0  0  0  0  0  0  0  0
   -2.6280   -1.3000   -1.2486 H   0  0  0  0  0  0  0  0  0  0  0  0
  1  2  1  0
  2  3  1  0
  2  4  1  0
  4  5  2  0
  4  6  1  0
  6  7  1  0
  7  8  1  0
  8  9  1  0
  9 10  1  0
 10 11  2  0
 11 12  1  0
 12 13  2  0
 13 14  1  0
 14 15  2  0
 15 16  1  0
 16 17  1  0
 17 18  2  0
 17 19  1  0
 19 20  2  0
 20 21  1  0
 21 22  2  0
 22 23  1  0
 23 24  2  0
 23 25  1  0
 25 26  1  0
 26 27  1  0
 27 28  1  0
  9 29  1  0
 29 30  1  0
 30  6  1  0
 15 10  1  0
 24 19  1  0
 28 22  1  0
  1 31  1  0
  1 32  1  0
  1 33  1  0
  2 34  1  0
  3 35  1  0
  3 36  1  0
  3 37  1  0
  7 38  1  0
  7 39  1  0
  8 40  1  0
  8 41  1  0
 11 42  1  0
 12 43  1  0
 13 44  1  0
 14 45  1  0
 16 46  1  0
 20 47  1  0
 21 48  1  0
 24 49  1  0
 26 50  1  0
 26 51  1  0
 27 52  1  0
 27 53  1  0
 29 54  1  0
 29 55  1  0
 30 56  1  0
 30 57  1  0
M  END
$$$$
