
     RDKit          3D

 74 79  0  0  0  0  0  0  0  0999 V2000
    9.2644   -3.5141   -2.3564 C   0  0  0  0  0  0  0  0  0  0  0  0
    7.9652   -3.5692   -2.9308 O   0  0  0  0  0  0  0  0  0  0  0  0
    7.0306   -2.7081   -2.4223 C   0  0  0  0  0  0  0  0  0  0  0  0
    5.7670   -2.8095   -3.0053 C   0  0  0  0  0  0  0  0  0  0  0  0
    4.7142   -1.9883   -2.5821 C   0  0  0  0  0  0  0  0  0  0  0  0
    4.8931   -1.0436   -1.5565 C   0  0  0  0  0  0  0  0  0  0  0  0
    3.7947   -0.1691   -1.0893 C   0  0  0  0  0  0  0  0  0  0  0  0
    2.4630   -0.5444   -1.1239 C   0  0  0  0  0  0  0  0  0  0  0  0
    1.5002    0.3555   -0.6623 C   0  0  0  0  0  0  0  0  0  0  0  0
    0.1003   -0.1282   -0.6917 C   0  0  0  0  0  0  0  0  0  0  0  0
   -0.3424   -0.5519   -1.7511 O   0  0  0  0  0  0  0  0  0  0  0  0
   -0.5494   -0.0752    0.5193 N   0  0  0  0  0  0  0  0  0  0  0  0
   -1.8640   -0.4880    0.8161 C   0  0  0  0  0  0  0  0  0  0  0  0
   -2.6789   -1.1735   -0.0824 C   0  0  0  0  0  0  0  0  0  0  0  0
   -3.9867   -1.4973    0.2843 C   0  0  0  0  0  0  0  0  0  0  0  0
   -5.0195   -2.3644   -0.8758 S   0  0  0  0  0  6  0  0  0  0  0  0
   -4.1679   -3.2836   -1.6009 O   0  0  0  0  0  0  0  0  0  0  0  0
   -6.1725   -2.8427   -0.1404 O   0  0  0  0  0  0  0  0  0  0  0  0
   -5.5458   -1.1617   -1.9287 N   0  0  0  0  0  0  0  0  0  0  0  0
   -6.5586   -0.1778   -1.4776 C   0  0  0  0  0  0  0  0  0  0  0  0
   -5.9162    1.1775   -1.1826 C   0  0  0  0  0  0  0  0  0  0  0  0
   -5.1969    1.6675   -2.3223 O   0  0  0  0  0  0  0  0  0  0  0  0
   -4.1350    0.7707   -2.6749 C   0  0  0  0  0  0  0  0  0  0  0  0
   -4.6492   -0.6400   -2.9910 C   0  0  0  0  0  0  0  0  0  0  0  0
   -4.4628   -1.2058    1.5638 C   0  0  0  0  0  0  0  0  0  0  0  0
   -3.6362   -0.5452    2.4752 C   0  0  0  0  0  0  0  0  0  0  0  0
   -2.3330   -0.1707    2.1143 C   0  0  0  0  0  0  0  0  0  0  0  0
   -1.4718    0.5420    2.9860 N   0  0  0  0  0  0  0  0  0  0  0  0
   -1.1593   -0.1614    4.2585 C   0  0  0  0  0  0  0  0  0  0  0  0
   -1.7646    0.5559    5.4751 C   0  0  0  0  0  0  0  0  0  0  0  0
   -1.3577    1.9283    5.5974 O   0  0  0  0  0  0  0  0  0  0  0  0
   -1.1212    2.5730    4.3363 C   0  0  0  0  0  0  0  0  0  0  0  0
   -1.9130    1.9457    3.1795 C   0  0  0  0  0  0  0  0  0  0  0  0
    1.8609    1.6442   -0.2114 C   0  0  0  0  0  0  0  0  0  0  0  0
    0.9516    2.6570    0.1924 C   0  0  0  0  0  0  0  0  0  0  0  0
    1.4059    3.9043    0.6159 C   0  0  0  0  0  0  0  0  0  0  0  0
    2.7670    4.1661    0.6358 C   0  0  0  0  0  0  0  0  0  0  0  0
    3.6622    3.1759    0.2250 C   0  0  0  0  0  0  0  0  0  0  0  0
    3.2390    1.9244   -0.2013 C   0  0  0  0  0  0  0  0  0  0  0  0
    4.1686    1.0415   -0.6057 N   0  0  0  0  0  0  0  0  0  0  0  0
    6.1792   -0.9513   -0.9898 C   0  0  0  0  0  0  0  0  0  0  0  0
    7.2363   -1.7715   -1.4129 C   0  0  0  0  0  0  0  0  0  0  0  0
    9.7332   -2.5420   -2.5348 H   0  0  0  0  0  0  0  0  0  0  0  0
    9.8805   -4.2771   -2.8402 H   0  0  0  0  0  0  0  0  0  0  0  0
    9.2356   -3.7469   -1.2869 H   0  0  0  0  0  0  0  0  0  0  0  0
    5.5977   -3.5301   -3.8027 H   0  0  0  0  0  0  0  0  0  0  0  0
    3.7561   -2.0908   -3.0871 H   0  0  0  0  0  0  0  0  0  0  0  0
    2.1558   -1.5226   -1.4845 H   0  0  0  0  0  0  0  0  0  0  0  0
   -0.0745    0.3201    1.3293 H   0  0  0  0  0  0  0  0  0  0  0  0
   -2.3196   -1.4601   -1.0634 H   0  0  0  0  0  0  0  0  0  0  0  0
   -7.2888   -0.0745   -2.2906 H   0  0  0  0  0  0  0  0  0  0  0  0
   -7.1075   -0.5349   -0.5994 H   0  0  0  0  0  0  0  0  0  0  0  0
   -6.6946    1.9100   -0.9488 H   0  0  0  0  0  0  0  0  0  0  0  0
   -5.2375    1.1293   -0.3248 H   0  0  0  0  0  0  0  0  0  0  0  0
   -3.6364    1.1809   -3.5607 H   0  0  0  0  0  0  0  0  0  0  0  0
   -3.4006    0.7706   -1.8648 H   0  0  0  0  0  0  0  0  0  0  0  0
   -3.8088   -1.3131   -3.1837 H   0  0  0  0  0  0  0  0  0  0  0  0
   -5.2411   -0.6079   -3.9149 H   0  0  0  0  0  0  0  0  0  0  0  0
   -5.4700   -1.4915    1.8616 H   0  0  0  0  0  0  0  0  0  0  0  0
   -4.0217   -0.3207    3.4651 H   0  0  0  0  0  0  0  0  0  0  0  0
   -1.4718   -1.2126    4.2383 H   0  0  0  0  0  0  0  0  0  0  0  0
   -0.0679   -0.1564    4.3588 H   0  0  0  0  0  0  0  0  0  0  0  0
   -1.4685    0.0439    6.3970 H   0  0  0  0  0  0  0  0  0  0  0  0
   -2.8588    0.5368    5.4345 H   0  0  0  0  0  0  0  0  0  0  0  0
   -0.0443    2.5284    4.1359 H   0  0  0  0  0  0  0  0  0  0  0  0
   -1.3918    3.6279    4.4495 H   0  0  0  0  0  0  0  0  0  0  0  0
   -2.9830    1.9948    3.4159 H   0  0  0  0  0  0  0  0  0  0  0  0
   -1.7392    2.5143    2.2599 H   0  0  0  0  0  0  0  0  0  0  0  0
   -0.1237    2.4898    0.1556 H   0  0  0  0  0  0  0  0  0  0  0  0
    0.6991    4.6734    0.9176 H   0  0  0  0  0  0  0  0  0  0  0  0
    3.1346    5.1420    0.9398 H   0  0  0  0  0  0  0  0  0  0  0  0
    4.7276    3.3948    0.2241 H   0  0  0  0  0  0  0  0  0  0  0  0
    6.3668   -0.2236   -0.2002 H   0  0  0  0  0  0  0  0  0  0  0  0
    8.2023   -1.6450   -0.9343 H   0  0  0  0  0  0  0  0  0  0  0  0
  1  2  1  0
  2  3  1  0
  3  4  2  0
  4  5  1  0
  5  6  2  0
  6  7  1  0
  7  8  2  0
  8  9  1  0
  9 10  1  0
 10 11  2  0
 10 12  1  0
 12 13  1  0
 13 14  2  0
 14 15  1  0
 15 16  1  0
 16 17  2  0
 16 18  2  0
 16 19  1  0
 19 20  1  0
 20 21  1  0
 21 22  1  0
 22 23  1  0
 23 24  1  0
 15 25  2  0
 25 26  1  0
 26 27  2  0
 27 28  1  0
 28 29  1  0
 29 30  1  0
 30 31  1  0
 31 32  1  0
 32 33  1  0
  9 34  2  0
 34 35  1  0
 35 36  2  0
 36 37  1  0
 37 38  2  0
 38 39  1  0
 39 40  2  0
  6 41  1  0
 41 42  2  0
 42  3  1  0
 40  7  1  0
 27 13  1  0
 33 28  1  0
 39 34  1  0
 24 19  1  0
  1 43  1  0
  1 44  1  0
  1 45  1  0
  4 46  1  0
  5 47  1  0
  8 48  1  0
 12 49  1  0
 14 50  1  0
 20 51  1  0
 20 52  1  0
 21 53  1  0
 21 54  1  0
 23 55  1  0
 23 56  1  0
 24 57  1  0
 24 58  1  0
 25 59  1  0
 26 60  1  0
 29 61  1  0
 29 62  1  0
 30 63  1  0
 30 64  1  0
 32 65  1  0
 32 66  1  0
 33 67  1  0
 33 68  1  0
 35 69  1  0
 36 70  1  0
 37 71  1  0
 38 72  1  0
 41 73  1  0
 42 74  1  0
M  END
$$$$
