
     RDKit          3D

 36 37  0  0  0  0  0  0  0  0999 V2000
   -1.9595    2.4845    0.8014 O   0  0  0  0  0  0  0  0  0  0  0  0
   -0.9880    1.7434    0.6454 C   0  0  0  0  0  0  0  0  0  0  0  0
   -0.3768    0.9430    1.7939 C   0  0  0  0  0  0  0  0  0  0  0  0
    0.8572    0.3275    1.4097 O   0  0  0  0  0  0  0  0  0  0  0  0
    1.1477   -0.8185    2.0660 C   0  0  0  0  0  0  0  0  0  0  0  0
    0.4896   -1.3345    2.9535 O   0  0  0  0  0  0  0  0  0  0  0  0
    2.4757   -1.3183    1.6528 C   0  0  0  0  0  0  0  0  0  0  0  0
    3.3388   -1.6950    2.6970 C   0  0  0  0  0  0  0  0  0  0  0  0
    4.6193   -2.1658    2.4196 C   0  0  0  0  0  0  0  0  0  0  0  0
    5.0426   -2.2689    1.0959 C   0  0  0  0  0  0  0  0  0  0  0  0
    4.1816   -1.9167    0.0489 C   0  0  0  0  0  0  0  0  0  0  0  0
    4.7943   -2.0952   -1.5615 Cl  0  0  0  0  0  0  0  0  0  0  0  0
    2.8844   -1.4454    0.3158 C   0  0  0  0  0  0  0  0  0  0  0  0
    1.8054   -1.0841   -0.9962 Cl  0  0  0  0  0  0  0  0  0  0  0  0
   -0.4003    1.5426   -0.5837 N   0  0  0  0  0  0  0  0  0  0  0  0
   -0.9568    2.0906   -1.8063 C   0  0  0  0  0  0  0  0  0  0  0  0
   -1.8845    1.1195   -2.5499 C   0  0  0  0  0  0  0  0  0  0  0  0
   -2.8291    0.3912   -1.7205 N   0  0  0  0  0  0  0  0  0  0  0  0
   -3.8720    0.9678   -1.0392 C   0  0  0  0  0  0  0  0  0  0  0  0
   -3.9910    2.3224   -0.9880 O   0  0  0  0  0  0  0  0  0  0  0  0
   -4.6771    0.1101   -0.4078 C   0  0  0  0  0  0  0  0  0  0  0  0
   -4.1483   -1.5274   -0.6320 S   0  0  0  0  0  0  0  0  0  0  0  0
   -2.7799   -0.9925   -1.6275 C   0  0  0  0  0  0  0  0  0  0  0  0
   -1.9640   -1.7552   -2.1179 O   0  0  0  0  0  0  0  0  0  0  0  0
   -0.1706    1.6365    2.6147 H   0  0  0  0  0  0  0  0  0  0  0  0
   -1.1272    0.2050    2.0991 H   0  0  0  0  0  0  0  0  0  0  0  0
    3.0092   -1.6206    3.7340 H   0  0  0  0  0  0  0  0  0  0  0  0
    5.2840   -2.4549    3.2319 H   0  0  0  0  0  0  0  0  0  0  0  0
    6.0449   -2.6369    0.8836 H   0  0  0  0  0  0  0  0  0  0  0  0
    0.3248    0.8321   -0.6487 H   0  0  0  0  0  0  0  0  0  0  0  0
   -1.4891    3.0185   -1.5733 H   0  0  0  0  0  0  0  0  0  0  0  0
   -0.1155    2.3585   -2.4544 H   0  0  0  0  0  0  0  0  0  0  0  0
   -1.2571    0.3925   -3.0793 H   0  0  0  0  0  0  0  0  0  0  0  0
   -2.4480    1.6586   -3.3201 H   0  0  0  0  0  0  0  0  0  0  0  0
   -3.3361    2.6043   -0.3065 H   0  0  0  0  0  0  0  0  0  0  0  0
   -5.5288    0.3813    0.1963 H   0  0  0  0  0  0  0  0  0  0  0  0
  1  2  2  0
  2  3  1  0
  3  4  1  0
  4  5  1  0
  5  6  2  0
  5  7  1  0
  7  8  2  0
  8  9  1  0
  9 10  2  0
 10 11  1  0
 11 12  1  0
 11 13  2  0
 13 14  1  0
  2 15  1  0
 15 16  1  0
 16 17  1  0
 17 18  1  0
 18 19  1  0
 19 20  1  0
 19 21  2  0
 21 22  1  0
 22 23  1  0
 23 24  2  0
 13  7  1  0
 23 18  1  0
  3 25  1  0
  3 26  1  0
  8 27  1  0
  9 28  1  0
 10 29  1  0
 15 30  1  0
 16 31  1  0
 16 32  1  0
 17 33  1  0
 17 34  1  0
 20 35  1  0
 21 36  1  0
M  END
$$$$
