
     RDKit          3D

 32 33  0  0  0  0  0  0  0  0999 V2000
    4.1322   -1.2572   -1.4710 C   0  0  0  0  0  0  0  0  0  0  0  0
    4.3683   -0.3643   -0.2649 C   0  0  0  0  0  0  0  0  0  0  0  0
    3.0383   -0.5251    0.9631 S   0  0  0  0  0  0  0  0  0  0  0  0
    1.7082    0.2953    0.2088 C   0  0  0  0  0  0  0  0  0  0  0  0
    1.6571    1.3547   -0.6650 C   0  0  0  0  0  0  0  0  0  0  0  0
    0.3647    1.6517   -1.0000 N   0  0  0  0  0  0  0  0  0  0  0  0
   -0.3925    0.8131   -0.3167 C   0  0  0  0  0  0  0  0  0  0  0  0
   -1.8511    0.7753   -0.3845 C   0  0  0  0  0  0  0  0  0  0  0  0
   -2.4813    0.2887   -1.5359 C   0  0  0  0  0  0  0  0  0  0  0  0
   -3.8746    0.2385   -1.6098 C   0  0  0  0  0  0  0  0  0  0  0  0
   -4.6458    0.6840   -0.5370 C   0  0  0  0  0  0  0  0  0  0  0  0
   -4.0262    1.1883    0.6059 C   0  0  0  0  0  0  0  0  0  0  0  0
   -2.6326    1.2386    0.6805 C   0  0  0  0  0  0  0  0  0  0  0  0
    0.3934   -0.0426    0.4407 N   0  0  0  0  0  0  0  0  0  0  0  0
   -0.0981   -1.1427    1.2536 C   0  0  0  0  0  0  0  0  0  0  0  0
   -0.2059   -0.7911    2.7283 C   0  0  0  0  0  0  0  0  0  0  0  0
    3.2266   -0.9765   -2.0180 H   0  0  0  0  0  0  0  0  0  0  0  0
    4.0504   -2.3100   -1.1803 H   0  0  0  0  0  0  0  0  0  0  0  0
    4.9745   -1.1715   -2.1658 H   0  0  0  0  0  0  0  0  0  0  0  0
    4.4864    0.6800   -0.5692 H   0  0  0  0  0  0  0  0  0  0  0  0
    5.3023   -0.6624    0.2227 H   0  0  0  0  0  0  0  0  0  0  0  0
    2.4786    1.9220   -1.0805 H   0  0  0  0  0  0  0  0  0  0  0  0
   -1.8845   -0.0460   -2.3818 H   0  0  0  0  0  0  0  0  0  0  0  0
   -4.3566   -0.1395   -2.5076 H   0  0  0  0  0  0  0  0  0  0  0  0
   -5.7307    0.6512   -0.5976 H   0  0  0  0  0  0  0  0  0  0  0  0
   -4.6278    1.5531    1.4344 H   0  0  0  0  0  0  0  0  0  0  0  0
   -2.1604    1.6580    1.5654 H   0  0  0  0  0  0  0  0  0  0  0  0
    0.5684   -1.9994    1.1076 H   0  0  0  0  0  0  0  0  0  0  0  0
   -1.0751   -1.4516    0.8682 H   0  0  0  0  0  0  0  0  0  0  0  0
   -0.5912   -1.6464    3.2922 H   0  0  0  0  0  0  0  0  0  0  0  0
   -0.8819    0.0535    2.8901 H   0  0  0  0  0  0  0  0  0  0  0  0
    0.7667   -0.5196    3.1501 H   0  0  0  0  0  0  0  0  0  0  0  0
  1  2  1  0
  2  3  1  0
  3  4  1  0
  4  5  2  0
  5  6  1  0
  6  7  2  0
  7  8  1  0
  8  9  2  0
  9 10  1  0
 10 11  2  0
 11 12  1  0
 12 13  2  0
  7 14  1  0
 14 15  1  0
 15 16  1  0
 14  4  1  0
 13  8  1  0
  1 17  1  0
  1 18  1  0
  1 19  1  0
  2 20  1  0
  2 21  1  0
  5 22  1  0
  9 23  1  0
 10 24  1  0
 11 25  1  0
 12 26  1  0
 13 27  1  0
 15 28  1  0
 15 29  1  0
 16 30  1  0
 16 31  1  0
 16 32  1  0
M  END
$$$$
