
     RDKit          3D

 56 58  0  0  0  0  0  0  0  0999 V2000
    9.1118    0.4521   -2.0588 C   0  0  0  0  0  0  0  0  0  0  0  0
    8.6480   -0.0819   -0.8251 O   0  0  0  0  0  0  0  0  0  0  0  0
    7.3906    0.2839   -0.4296 C   0  0  0  0  0  0  0  0  0  0  0  0
    6.9761   -0.2687    0.7844 C   0  0  0  0  0  0  0  0  0  0  0  0
    5.7130    0.0203    1.3074 C   0  0  0  0  0  0  0  0  0  0  0  0
    4.8449    0.8786    0.6225 C   0  0  0  0  0  0  0  0  0  0  0  0
    3.4715    1.1797    1.1625 C   0  0  0  0  0  0  0  0  0  0  0  0
    2.4964    0.2718    0.6216 N   0  0  0  0  0  0  0  0  0  0  0  0
    1.7260    0.5801   -0.4732 C   0  0  0  0  0  0  0  0  0  0  0  0
    1.6889    1.6533   -1.0591 O   0  0  0  0  0  0  0  0  0  0  0  0
    0.8508   -0.6004   -0.9553 C   0  0  0  0  0  0  0  0  0  0  0  0
    1.0456   -1.7272   -0.5197 O   0  0  0  0  0  0  0  0  0  0  0  0
   -0.1205   -0.2335   -1.8615 N   0  0  0  0  0  0  0  0  0  0  0  0
   -1.1810   -1.1431   -2.2457 C   0  0  0  0  0  0  0  0  0  0  0  0
   -2.4521   -1.0667   -1.3688 C   0  0  0  0  0  0  0  0  0  0  0  0
   -3.3433   -2.1263   -1.7674 O   0  0  0  0  0  0  0  0  0  0  0  0
   -3.8430   -2.7303   -0.5700 C   0  0  0  0  0  0  0  0  0  0  0  0
   -2.7360   -2.5553    0.4438 C   0  0  0  0  0  0  0  0  0  0  0  0
   -2.1463   -1.2779    0.0524 N   0  0  0  0  0  0  0  0  0  0  0  0
   -2.2015    0.0352    1.0877 S   0  0  0  0  0  6  0  0  0  0  0  0
   -1.7436   -0.4025    2.3891 O   0  0  0  0  0  0  0  0  0  0  0  0
   -1.5780    1.1574    0.4178 O   0  0  0  0  0  0  0  0  0  0  0  0
   -3.9393    0.3996    1.2336 C   0  0  0  0  0  0  0  0  0  0  0  0
   -4.6848   -0.1924    2.2571 C   0  0  0  0  0  0  0  0  0  0  0  0
   -6.0424    0.1065    2.3837 C   0  0  0  0  0  0  0  0  0  0  0  0
   -6.6582    1.0007    1.4980 C   0  0  0  0  0  0  0  0  0  0  0  0
   -8.1093    1.3496    1.6601 C   0  0  0  0  0  0  0  0  0  0  0  0
   -5.8892    1.6224    0.5052 C   0  0  0  0  0  0  0  0  0  0  0  0
   -4.5307    1.3288    0.3739 C   0  0  0  0  0  0  0  0  0  0  0  0
    5.2603    1.4227   -0.6005 C   0  0  0  0  0  0  0  0  0  0  0  0
    6.5256    1.1308   -1.1220 C   0  0  0  0  0  0  0  0  0  0  0  0
   10.1236    0.0716   -2.2283 H   0  0  0  0  0  0  0  0  0  0  0  0
    9.1701    1.5449   -2.0196 H   0  0  0  0  0  0  0  0  0  0  0  0
    8.4866    0.1184   -2.8936 H   0  0  0  0  0  0  0  0  0  0  0  0
    7.6432   -0.9347    1.3265 H   0  0  0  0  0  0  0  0  0  0  0  0
    5.4143   -0.4308    2.2507 H   0  0  0  0  0  0  0  0  0  0  0  0
    3.4571    1.0688    2.2524 H   0  0  0  0  0  0  0  0  0  0  0  0
    3.1939    2.2160    0.9378 H   0  0  0  0  0  0  0  0  0  0  0  0
    2.4912   -0.7002    0.9165 H   0  0  0  0  0  0  0  0  0  0  0  0
   -0.2309    0.7702   -1.9897 H   0  0  0  0  0  0  0  0  0  0  0  0
   -0.7904   -2.1684   -2.2404 H   0  0  0  0  0  0  0  0  0  0  0  0
   -1.4452   -0.9167   -3.2848 H   0  0  0  0  0  0  0  0  0  0  0  0
   -2.9669   -0.1188   -1.5466 H   0  0  0  0  0  0  0  0  0  0  0  0
   -4.0884   -3.7799   -0.7534 H   0  0  0  0  0  0  0  0  0  0  0  0
   -4.7549   -2.2003   -0.2744 H   0  0  0  0  0  0  0  0  0  0  0  0
   -3.1010   -2.5983    1.4715 H   0  0  0  0  0  0  0  0  0  0  0  0
   -1.9717   -3.3312    0.3233 H   0  0  0  0  0  0  0  0  0  0  0  0
   -4.2178   -0.8741    2.9649 H   0  0  0  0  0  0  0  0  0  0  0  0
   -6.6167   -0.3537    3.1856 H   0  0  0  0  0  0  0  0  0  0  0  0
   -8.6699    0.5052    2.0749 H   0  0  0  0  0  0  0  0  0  0  0  0
   -8.5614    1.5956    0.6935 H   0  0  0  0  0  0  0  0  0  0  0  0
   -8.2150    2.2084    2.3299 H   0  0  0  0  0  0  0  0  0  0  0  0
   -6.3444    2.3488   -0.1657 H   0  0  0  0  0  0  0  0  0  0  0  0
   -3.9459    1.8368   -0.3893 H   0  0  0  0  0  0  0  0  0  0  0  0
    4.5916    2.0767   -1.1592 H   0  0  0  0  0  0  0  0  0  0  0  0
    6.7986    1.5784   -2.0714 H   0  0  0  0  0  0  0  0  0  0  0  0
  1  2  1  0
  2  3  1  0
  3  4  2  0
  4  5  1  0
  5  6  2  0
  6  7  1  0
  7  8  1  0
  8  9  1  0
  9 10  2  0
  9 11  1  0
 11 12  2  0
 11 13  1  0
 13 14  1  0
 14 15  1  0
 15 16  1  0
 16 17  1  0
 17 18  1  0
 18 19  1  0
 19 20  1  0
 20 21  2  0
 20 22  2  0
 20 23  1  0
 23 24  2  0
 24 25  1  0
 25 26  2  0
 26 27  1  0
 26 28  1  0
 28 29  2  0
  6 30  1  0
 30 31  2  0
 31  3  1  0
 19 15  1  0
 29 23  1  0
  1 32  1  0
  1 33  1  0
  1 34  1  0
  4 35  1  0
  5 36  1  0
  7 37  1  0
  7 38  1  0
  8 39  1  0
 13 40  1  0
 14 41  1  0
 14 42  1  0
 15 43  1  0
 17 44  1  0
 17 45  1  0
 18 46  1  0
 18 47  1  0
 24 48  1  0
 25 49  1  0
 27 50  1  0
 27 51  1  0
 27 52  1  0
 28 53  1  0
 29 54  1  0
 30 55  1  0
 31 56  1  0
M  END
$$$$
