
     RDKit          3D

 37 39  0  0  0  0  0  0  0  0999 V2000
   -7.5782    1.7435    0.5852 C   0  0  0  0  0  0  0  0  0  0  0  0
   -7.0597    0.7907   -0.4803 C   0  0  0  0  0  0  0  0  0  0  0  0
   -5.5702    0.8208   -0.5635 C   0  0  0  0  0  0  0  0  0  0  0  0
   -4.8757    1.6843   -1.2751 N   0  0  0  0  0  0  0  0  0  0  0  0
   -3.5165    1.4716   -1.1591 N   0  0  0  0  0  0  0  0  0  0  0  0
   -3.2370    0.4594   -0.3679 C   0  0  0  0  0  0  0  0  0  0  0  0
   -1.9506    0.0695   -0.1079 N   0  0  0  0  0  0  0  0  0  0  0  0
   -1.5313   -0.9646    0.6954 C   0  0  0  0  0  0  0  0  0  0  0  0
   -2.2386   -1.7379    1.3350 O   0  0  0  0  0  0  0  0  0  0  0  0
   -0.0057   -1.0972    0.7433 C   0  0  0  0  0  0  0  0  0  0  0  0
    0.6229   -0.1077   -0.0679 O   0  0  0  0  0  0  0  0  0  0  0  0
    1.9901   -0.1165   -0.1106 C   0  0  0  0  0  0  0  0  0  0  0  0
    2.5514    0.8727   -0.9179 C   0  0  0  0  0  0  0  0  0  0  0  0
    3.9371    0.9793   -1.0527 C   0  0  0  0  0  0  0  0  0  0  0  0
    4.7888    0.0939   -0.3785 C   0  0  0  0  0  0  0  0  0  0  0  0
    6.1846    0.1857   -0.5013 C   0  0  0  0  0  0  0  0  0  0  0  0
    7.0196   -0.7035    0.1765 C   0  0  0  0  0  0  0  0  0  0  0  0
    6.4701   -1.6946    0.9840 C   0  0  0  0  0  0  0  0  0  0  0  0
    5.0842   -1.7983    1.1161 C   0  0  0  0  0  0  0  0  0  0  0  0
    4.2282   -0.9117    0.4415 C   0  0  0  0  0  0  0  0  0  0  0  0
    2.8287   -1.0049    0.5658 C   0  0  0  0  0  0  0  0  0  0  0  0
   -4.6040   -0.3108    0.2939 S   0  0  0  0  0  0  0  0  0  0  0  0
   -7.2046    1.4715    1.5783 H   0  0  0  0  0  0  0  0  0  0  0  0
   -7.2670    2.7737    0.3807 H   0  0  0  0  0  0  0  0  0  0  0  0
   -8.6721    1.7190    0.6157 H   0  0  0  0  0  0  0  0  0  0  0  0
   -7.4187   -0.2241   -0.2729 H   0  0  0  0  0  0  0  0  0  0  0  0
   -7.4757    1.0778   -1.4533 H   0  0  0  0  0  0  0  0  0  0  0  0
   -1.2384    0.6220   -0.5730 H   0  0  0  0  0  0  0  0  0  0  0  0
    0.2404   -2.0999    0.3750 H   0  0  0  0  0  0  0  0  0  0  0  0
    0.2936   -0.9733    1.7905 H   0  0  0  0  0  0  0  0  0  0  0  0
    1.9090    1.5704   -1.4498 H   0  0  0  0  0  0  0  0  0  0  0  0
    4.3454    1.7610   -1.6893 H   0  0  0  0  0  0  0  0  0  0  0  0
    6.6328    0.9536   -1.1280 H   0  0  0  0  0  0  0  0  0  0  0  0
    8.0985   -0.6215    0.0728 H   0  0  0  0  0  0  0  0  0  0  0  0
    7.1194   -2.3879    1.5123 H   0  0  0  0  0  0  0  0  0  0  0  0
    4.6769   -2.5806    1.7528 H   0  0  0  0  0  0  0  0  0  0  0  0
    2.4223   -1.7855    1.2013 H   0  0  0  0  0  0  0  0  0  0  0  0
  1  2  1  0
  2  3  1  0
  3  4  2  0
  4  5  1  0
  5  6  2  0
  6  7  1  0
  7  8  1  0
  8  9  2  0
  8 10  1  0
 10 11  1  0
 11 12  1  0
 12 13  2  0
 13 14  1  0
 14 15  2  0
 15 16  1  0
 16 17  2  0
 17 18  1  0
 18 19  2  0
 19 20  1  0
 20 21  2  0
  6 22  1  0
 22  3  1  0
 21 12  1  0
 20 15  1  0
  1 23  1  0
  1 24  1  0
  1 25  1  0
  2 26  1  0
  2 27  1  0
  7 28  1  0
 10 29  1  0
 10 30  1  0
 13 31  1  0
 14 32  1  0
 16 33  1  0
 17 34  1  0
 18 35  1  0
 19 36  1  0
 21 37  1  0
M  END
$$$$
