
     RDKit          3D

 38 38  0  0  0  0  0  0  0  0999 V2000
    6.9263    1.5956    2.0784 C   0  0  0  0  0  0  0  0  0  0  0  0
    6.0134    1.7427    0.9980 O   0  0  0  0  0  0  0  0  0  0  0  0
    4.7028    1.3017    1.3574 C   0  0  0  0  0  0  0  0  0  0  0  0
    3.7564    1.5591    0.1835 C   0  0  0  0  0  0  0  0  0  0  0  0
    2.4577    0.9285    0.3399 N   0  0  0  0  0  0  0  0  0  0  0  0
    1.5282    1.4083    1.2365 C   0  0  0  0  0  0  0  0  0  0  0  0
    1.7224    2.3769    1.9604 O   0  0  0  0  0  0  0  0  0  0  0  0
    0.2612    0.6247    1.3067 C   0  0  0  0  0  0  0  0  0  0  0  0
   -0.1772    0.2640    2.6079 C   0  0  0  0  0  0  0  0  0  0  0  0
   -0.5312   -0.0675    3.6631 N   0  0  0  0  0  0  0  0  0  0  0  0
   -0.3914    0.3880    0.1495 C   0  0  0  0  0  0  0  0  0  0  0  0
   -1.6421   -0.3284   -0.1329 C   0  0  0  0  0  0  0  0  0  0  0  0
   -2.3360   -1.0917    0.9694 C   0  0  0  0  0  0  0  0  0  0  0  0
   -2.1148   -0.2950   -1.3984 C   0  0  0  0  0  0  0  0  0  0  0  0
   -3.3460   -0.9375   -1.8681 C   0  0  0  0  0  0  0  0  0  0  0  0
   -4.5913   -0.3479   -1.6241 C   0  0  0  0  0  0  0  0  0  0  0  0
   -5.7596   -0.9642   -2.0759 C   0  0  0  0  0  0  0  0  0  0  0  0
   -5.6878   -2.1692   -2.7739 C   0  0  0  0  0  0  0  0  0  0  0  0
   -4.4489   -2.7596   -3.0213 C   0  0  0  0  0  0  0  0  0  0  0  0
   -3.2791   -2.1452   -2.5703 C   0  0  0  0  0  0  0  0  0  0  0  0
    6.6139    2.2080    2.9298 H   0  0  0  0  0  0  0  0  0  0  0  0
    7.0016    0.5453    2.3760 H   0  0  0  0  0  0  0  0  0  0  0  0
    7.9105    1.9363    1.7460 H   0  0  0  0  0  0  0  0  0  0  0  0
    4.3597    1.8370    2.2500 H   0  0  0  0  0  0  0  0  0  0  0  0
    4.7351    0.2297    1.5857 H   0  0  0  0  0  0  0  0  0  0  0  0
    3.6139    2.6382    0.0526 H   0  0  0  0  0  0  0  0  0  0  0  0
    4.1928    1.1794   -0.7469 H   0  0  0  0  0  0  0  0  0  0  0  0
    2.2959    0.0533   -0.1424 H   0  0  0  0  0  0  0  0  0  0  0  0
    0.0618    0.8145   -0.7496 H   0  0  0  0  0  0  0  0  0  0  0  0
   -2.7384   -0.4036    1.7195 H   0  0  0  0  0  0  0  0  0  0  0  0
   -3.1761   -1.6961    0.6148 H   0  0  0  0  0  0  0  0  0  0  0  0
   -1.6450   -1.7941    1.4473 H   0  0  0  0  0  0  0  0  0  0  0  0
   -1.5931    0.2462   -2.1860 H   0  0  0  0  0  0  0  0  0  0  0  0
   -4.6589    0.5913   -1.0802 H   0  0  0  0  0  0  0  0  0  0  0  0
   -6.7253   -0.5043   -1.8827 H   0  0  0  0  0  0  0  0  0  0  0  0
   -6.5982   -2.6487   -3.1246 H   0  0  0  0  0  0  0  0  0  0  0  0
   -4.3941   -3.6994   -3.5646 H   0  0  0  0  0  0  0  0  0  0  0  0
   -2.3193   -2.6165   -2.7666 H   0  0  0  0  0  0  0  0  0  0  0  0
  1  2  1  0
  2  3  1  0
  3  4  1  0
  4  5  1  0
  5  6  1  0
  6  7  2  0
  6  8  1  0
  8  9  1  0
  9 10  3  0
  8 11  2  3
 11 12  1  0
 12 13  1  0
 12 14  2  3
 14 15  1  0
 15 16  2  0
 16 17  1  0
 17 18  2  0
 18 19  1  0
 19 20  2  0
 20 15  1  0
  1 21  1  0
  1 22  1  0
  1 23  1  0
  3 24  1  0
  3 25  1  0
  4 26  1  0
  4 27  1  0
  5 28  1  0
 11 29  1  0
 13 30  1  0
 13 31  1  0
 13 32  1  0
 14 33  1  0
 16 34  1  0
 17 35  1  0
 18 36  1  0
 19 37  1  0
 20 38  1  0
M  END
$$$$
