
     RDKit          3D

 23 24  0  0  0  0  0  0  0  0999 V2000
    0.0151    2.1550   -0.8175 O   0  0  0  0  0  0  0  0  0  0  0  0
    1.1091    1.6602   -0.6327 C   0  0  0  0  0  0  0  0  0  0  0  0
    2.2837    2.3561   -0.6115 O   0  0  0  0  0  0  0  0  0  0  0  0
    3.3513    1.4893   -0.2289 C   0  0  0  0  0  0  0  0  0  0  0  0
    2.9082    0.0974   -0.5958 C   0  0  0  0  0  0  0  0  0  0  0  0
    1.4379    0.2256   -0.4287 C   0  0  0  0  0  0  0  0  0  0  0  0
    0.6090   -0.7880   -0.1358 C   0  0  0  0  0  0  0  0  0  0  0  0
   -0.8412   -0.7228    0.0735 C   0  0  0  0  0  0  0  0  0  0  0  0
   -1.4125    0.1210    1.0326 C   0  0  0  0  0  0  0  0  0  0  0  0
   -2.7941    0.1234    1.2399 C   0  0  0  0  0  0  0  0  0  0  0  0
   -3.6136   -0.7269    0.5002 C   0  0  0  0  0  0  0  0  0  0  0  0
   -3.0528   -1.5816   -0.4465 C   0  0  0  0  0  0  0  0  0  0  0  0
   -1.6716   -1.5833   -0.6555 C   0  0  0  0  0  0  0  0  0  0  0  0
    3.5257    1.6032    0.8474 H   0  0  0  0  0  0  0  0  0  0  0  0
    4.2636    1.7764   -0.7606 H   0  0  0  0  0  0  0  0  0  0  0  0
    3.3732   -0.6618    0.0389 H   0  0  0  0  0  0  0  0  0  0  0  0
    3.1416   -0.1189   -1.6444 H   0  0  0  0  0  0  0  0  0  0  0  0
    1.0196   -1.7921   -0.0437 H   0  0  0  0  0  0  0  0  0  0  0  0
   -0.7921    0.7927    1.6203 H   0  0  0  0  0  0  0  0  0  0  0  0
   -3.2290    0.7948    1.9756 H   0  0  0  0  0  0  0  0  0  0  0  0
   -4.6886   -0.7199    0.6593 H   0  0  0  0  0  0  0  0  0  0  0  0
   -3.6905   -2.2444   -1.0254 H   0  0  0  0  0  0  0  0  0  0  0  0
   -1.2518   -2.2556   -1.3998 H   0  0  0  0  0  0  0  0  0  0  0  0
  1  2  2  0
  2  3  1  0
  3  4  1  0
  4  5  1  0
  5  6  1  0
  6  7  2  3
  7  8  1  0
  8  9  2  0
  9 10  1  0
 10 11  2  0
 11 12  1  0
 12 13  2  0
  6  2  1  0
 13  8  1  0
  4 14  1  0
  4 15  1  0
  5 16  1  0
  5 17  1  0
  7 18  1  0
  9 19  1  0
 10 20  1  0
 11 21  1  0
 12 22  1  0
 13 23  1  0
M  END
$$$$
