
     RDKit          3D

 55 58  0  0  0  0  0  0  0  0999 V2000
    8.7498    0.9490    1.7422 C   0  0  0  0  0  0  0  0  0  0  0  0
    8.0159   -0.0270    1.0172 O   0  0  0  0  0  0  0  0  0  0  0  0
    6.6823    0.2087    0.7944 C   0  0  0  0  0  0  0  0  0  0  0  0
    5.9978    1.3480    1.2307 C   0  0  0  0  0  0  0  0  0  0  0  0
    4.6360    1.5067    0.9551 C   0  0  0  0  0  0  0  0  0  0  0  0
    3.9496    0.5291    0.2301 C   0  0  0  0  0  0  0  0  0  0  0  0
    2.4974    0.6560   -0.0865 C   0  0  0  0  0  0  0  0  0  0  0  0
    1.9820    2.0343   -0.3692 C   0  0  0  0  0  0  0  0  0  0  0  0
    0.6680    2.1375   -0.6504 C   0  0  0  0  0  0  0  0  0  0  0  0
   -0.0120    3.4159   -0.9581 C   0  0  0  0  0  0  0  0  0  0  0  0
   -0.5396    3.4470   -2.2069 F   0  0  0  0  0  0  0  0  0  0  0  0
   -1.0062    3.7081   -0.0821 F   0  0  0  0  0  0  0  0  0  0  0  0
    0.8561    4.4659   -0.8951 F   0  0  0  0  0  0  0  0  0  0  0  0
   -0.1230    0.9951   -0.6707 N   0  0  0  0  0  0  0  0  0  0  0  0
   -1.4479    0.8958   -0.9302 N   0  0  0  0  0  0  0  0  0  0  0  0
   -1.7494   -0.4101   -0.8189 C   0  0  0  0  0  0  0  0  0  0  0  0
   -3.0927   -0.9943   -1.0490 C   0  0  0  0  0  0  0  0  0  0  0  0
   -3.1873   -2.2057   -1.2611 O   0  0  0  0  0  0  0  0  0  0  0  0
   -4.2302   -0.1761   -1.0289 N   0  0  0  0  0  0  0  0  0  0  0  0
   -4.2338    1.2223   -0.6234 C   0  0  0  0  0  0  0  0  0  0  0  0
   -5.5067   -0.7514   -1.4385 C   0  0  0  0  0  0  0  0  0  0  0  0
   -6.4085   -1.0640   -0.2658 C   0  0  0  0  0  0  0  0  0  0  0  0
   -7.5613   -0.3022   -0.0245 C   0  0  0  0  0  0  0  0  0  0  0  0
   -8.3891   -0.5928    1.0617 C   0  0  0  0  0  0  0  0  0  0  0  0
   -8.0748   -1.6471    1.9170 C   0  0  0  0  0  0  0  0  0  0  0  0
   -6.9334   -2.4124    1.6873 C   0  0  0  0  0  0  0  0  0  0  0  0
   -6.1049   -2.1234    0.6019 C   0  0  0  0  0  0  0  0  0  0  0  0
   -0.5866   -1.1612   -0.5132 C   0  0  0  0  0  0  0  0  0  0  0  0
    0.4385   -0.2549   -0.4108 C   0  0  0  0  0  0  0  0  0  0  0  0
    1.7620   -0.4192   -0.1239 N   0  0  0  0  0  0  0  0  0  0  0  0
    4.6255   -0.6236   -0.1932 C   0  0  0  0  0  0  0  0  0  0  0  0
    5.9873   -0.7902    0.0823 C   0  0  0  0  0  0  0  0  0  0  0  0
    6.7275   -1.8801   -0.3051 O   0  0  0  0  0  0  0  0  0  0  0  0
    6.0358   -2.9665   -0.9056 C   0  0  0  0  0  0  0  0  0  0  0  0
    8.7652    1.9064    1.2109 H   0  0  0  0  0  0  0  0  0  0  0  0
    8.3570    1.0650    2.7577 H   0  0  0  0  0  0  0  0  0  0  0  0
    9.7831    0.5981    1.8241 H   0  0  0  0  0  0  0  0  0  0  0  0
    6.4954    2.1292    1.7963 H   0  0  0  0  0  0  0  0  0  0  0  0
    4.1309    2.3889    1.3383 H   0  0  0  0  0  0  0  0  0  0  0  0
    2.6500    2.8861   -0.3723 H   0  0  0  0  0  0  0  0  0  0  0  0
   -3.8834    1.8334   -1.4600 H   0  0  0  0  0  0  0  0  0  0  0  0
   -5.2449    1.5439   -0.3583 H   0  0  0  0  0  0  0  0  0  0  0  0
   -3.5989    1.3683    0.2541 H   0  0  0  0  0  0  0  0  0  0  0  0
   -5.3560   -1.6692   -2.0192 H   0  0  0  0  0  0  0  0  0  0  0  0
   -5.9887   -0.0416   -2.1226 H   0  0  0  0  0  0  0  0  0  0  0  0
   -7.8220    0.5250   -0.6808 H   0  0  0  0  0  0  0  0  0  0  0  0
   -9.2799    0.0035    1.2406 H   0  0  0  0  0  0  0  0  0  0  0  0
   -8.7194   -1.8733    2.7621 H   0  0  0  0  0  0  0  0  0  0  0  0
   -6.6866   -3.2360    2.3520 H   0  0  0  0  0  0  0  0  0  0  0  0
   -5.2181   -2.7317    0.4321 H   0  0  0  0  0  0  0  0  0  0  0  0
   -0.5146   -2.2319   -0.3829 H   0  0  0  0  0  0  0  0  0  0  0  0
    4.0685   -1.3751   -0.7443 H   0  0  0  0  0  0  0  0  0  0  0  0
    5.6153   -2.6770   -1.8742 H   0  0  0  0  0  0  0  0  0  0  0  0
    5.2623   -3.3626   -0.2391 H   0  0  0  0  0  0  0  0  0  0  0  0
    6.7609   -3.7665   -1.0845 H   0  0  0  0  0  0  0  0  0  0  0  0
  1  2  1  0
  2  3  1  0
  3  4  2  0
  4  5  1  0
  5  6  2  0
  6  7  1  0
  7  8  1  0
  8  9  2  0
  9 10  1  0
 10 11  1  0
 10 12  1  0
 10 13  1  0
  9 14  1  0
 14 15  1  0
 15 16  2  0
 16 17  1  0
 17 18  2  0
 17 19  1  0
 19 20  1  0
 19 21  1  0
 21 22  1  0
 22 23  2  0
 23 24  1  0
 24 25  2  0
 25 26  1  0
 26 27  2  0
 16 28  1  0
 28 29  2  0
 29 30  1  0
  6 31  1  0
 31 32  2  0
 32 33  1  0
 33 34  1  0
 32  3  1  0
 30  7  2  0
 29 14  1  0
 27 22  1  0
  1 35  1  0
  1 36  1  0
  1 37  1  0
  4 38  1  0
  5 39  1  0
  8 40  1  0
 20 41  1  0
 20 42  1  0
 20 43  1  0
 21 44  1  0
 21 45  1  0
 23 46  1  0
 24 47  1  0
 25 48  1  0
 26 49  1  0
 27 50  1  0
 28 51  1  0
 31 52  1  0
 34 53  1  0
 34 54  1  0
 34 55  1  0
M  END
$$$$
