
     RDKit          3D

 39 41  0  0  0  0  0  0  0  0999 V2000
    3.7137   -2.6765   -0.7297 O   0  0  0  0  0  0  0  0  0  0  0  0
    3.3573   -1.5424   -0.4504 C   0  0  0  0  0  0  0  0  0  0  0  0
    2.0771   -1.1293   -0.3050 O   0  0  0  0  0  0  0  0  0  0  0  0
    1.1105   -2.1615   -0.5103 C   0  0  0  0  0  0  0  0  0  0  0  0
   -0.2559   -1.5568   -0.3189 C   0  0  0  0  0  0  0  0  0  0  0  0
   -0.9637   -1.0348   -1.4074 C   0  0  0  0  0  0  0  0  0  0  0  0
   -2.2238   -0.4562   -1.2232 C   0  0  0  0  0  0  0  0  0  0  0  0
   -2.8054   -0.3740    0.0517 C   0  0  0  0  0  0  0  0  0  0  0  0
   -4.1308    0.2375    0.2433 C   0  0  0  0  0  0  0  0  0  0  0  0
   -4.3203    1.2813    1.1644 C   0  0  0  0  0  0  0  0  0  0  0  0
   -5.5781    1.8628    1.3466 C   0  0  0  0  0  0  0  0  0  0  0  0
   -6.6693    1.4087    0.6103 C   0  0  0  0  0  0  0  0  0  0  0  0
   -6.5037    0.3749   -0.3078 C   0  0  0  0  0  0  0  0  0  0  0  0
   -5.2449   -0.2046   -0.4895 C   0  0  0  0  0  0  0  0  0  0  0  0
   -2.0811   -0.8880    1.1387 C   0  0  0  0  0  0  0  0  0  0  0  0
   -0.8215   -1.4687    0.9584 C   0  0  0  0  0  0  0  0  0  0  0  0
    4.3026   -0.4171   -0.2218 C   0  0  0  0  0  0  0  0  0  0  0  0
    5.6772   -0.6744   -0.3343 C   0  0  0  0  0  0  0  0  0  0  0  0
    6.6062    0.3484   -0.1290 C   0  0  0  0  0  0  0  0  0  0  0  0
    6.1690    1.6338    0.1899 C   0  0  0  0  0  0  0  0  0  0  0  0
    4.8041    1.8846    0.3005 C   0  0  0  0  0  0  0  0  0  0  0  0
    4.3363    3.1274    0.6107 O   0  0  0  0  0  0  0  0  0  0  0  0
    3.8681    0.8747    0.0984 C   0  0  0  0  0  0  0  0  0  0  0  0
    1.2022   -2.5715   -1.5237 H   0  0  0  0  0  0  0  0  0  0  0  0
    1.2629   -2.9745    0.2105 H   0  0  0  0  0  0  0  0  0  0  0  0
   -0.5371   -1.0682   -2.4076 H   0  0  0  0  0  0  0  0  0  0  0  0
   -2.7465   -0.0508   -2.0875 H   0  0  0  0  0  0  0  0  0  0  0  0
   -3.4783    1.6589    1.7412 H   0  0  0  0  0  0  0  0  0  0  0  0
   -5.7024    2.6717    2.0616 H   0  0  0  0  0  0  0  0  0  0  0  0
   -7.6476    1.8601    0.7516 H   0  0  0  0  0  0  0  0  0  0  0  0
   -7.3535    0.0157   -0.8823 H   0  0  0  0  0  0  0  0  0  0  0  0
   -5.1394   -1.0187   -1.2039 H   0  0  0  0  0  0  0  0  0  0  0  0
   -2.5007   -0.8461    2.1420 H   0  0  0  0  0  0  0  0  0  0  0  0
   -0.2843   -1.8502    1.8240 H   0  0  0  0  0  0  0  0  0  0  0  0
    6.0290   -1.6744   -0.5828 H   0  0  0  0  0  0  0  0  0  0  0  0
    7.6697    0.1401   -0.2182 H   0  0  0  0  0  0  0  0  0  0  0  0
    6.9008    2.4202    0.3472 H   0  0  0  0  0  0  0  0  0  0  0  0
    5.0907    3.7295    0.7204 H   0  0  0  0  0  0  0  0  0  0  0  0
    2.8110    1.1084    0.1930 H   0  0  0  0  0  0  0  0  0  0  0  0
  1  2  2  0
  2  3  1  0
  3  4  1  0
  4  5  1  0
  5  6  2  0
  6  7  1  0
  7  8  2  0
  8  9  1  0
  9 10  2  0
 10 11  1  0
 11 12  2  0
 12 13  1  0
 13 14  2  0
  8 15  1  0
 15 16  2  0
  2 17  1  0
 17 18  2  0
 18 19  1  0
 19 20  2  0
 20 21  1  0
 21 22  1  0
 21 23  2  0
 16  5  1  0
 23 17  1  0
 14  9  1  0
  4 24  1  0
  4 25  1  0
  6 26  1  0
  7 27  1  0
 10 28  1  0
 11 29  1  0
 12 30  1  0
 13 31  1  0
 14 32  1  0
 15 33  1  0
 16 34  1  0
 18 35  1  0
 19 36  1  0
 20 37  1  0
 22 38  1  0
 23 39  1  0
M  END
$$$$
