
     RDKit          3D

 64 67  0  0  0  0  0  0  0  0999 V2000
    8.3269   -3.3575    0.5087 C   0  0  0  0  0  0  0  0  0  0  0  0
    7.7798   -2.1009    0.1286 O   0  0  0  0  0  0  0  0  0  0  0  0
    6.5194   -1.8139    0.5747 C   0  0  0  0  0  0  0  0  0  0  0  0
    5.7195   -2.6438    1.3610 C   0  0  0  0  0  0  0  0  0  0  0  0
    4.4434   -2.2274    1.7672 C   0  0  0  0  0  0  0  0  0  0  0  0
    3.9503   -0.9823    1.3824 C   0  0  0  0  0  0  0  0  0  0  0  0
    2.6831   -0.4819    1.7466 N   0  0  0  0  0  0  0  0  0  0  0  0
    1.6683   -1.1227    2.4138 C   0  0  0  0  0  0  0  0  0  0  0  0
    1.7132   -2.2846    2.8255 O   0  0  0  0  0  0  0  0  0  0  0  0
    0.4124   -0.3056    2.6943 C   0  0  0  0  0  0  0  0  0  0  0  0
    0.3123    1.3369    1.9311 S   0  0  0  0  0  0  0  0  0  0  0  0
   -0.0082    0.8920    0.2958 C   0  0  0  0  0  0  0  0  0  0  0  0
    0.8975    0.4831   -0.5569 N   0  0  0  0  0  0  0  0  0  0  0  0
    0.2656    0.2337   -1.7460 N   0  0  0  0  0  0  0  0  0  0  0  0
   -1.0220    0.4831   -1.5914 C   0  0  0  0  0  0  0  0  0  0  0  0
   -2.0685    0.3027   -2.6403 C   0  0  0  0  0  0  0  0  0  0  0  0
   -2.9130   -0.9201   -2.4316 C   0  0  0  0  0  0  0  0  0  0  0  0
   -4.2809   -1.0090   -2.2225 C   0  0  0  0  0  0  0  0  0  0  0  0
   -4.6145   -2.3738   -2.0801 C   0  0  0  0  0  0  0  0  0  0  0  0
   -3.4497   -3.0919   -2.2157 C   0  0  0  0  0  0  0  0  0  0  0  0
   -2.4232   -2.2097   -2.4428 N   0  0  0  0  0  0  0  0  0  0  0  0
   -1.0484   -2.6143   -2.6591 C   0  0  0  0  0  0  0  0  0  0  0  0
   -1.2348    0.9310   -0.3050 N   0  0  0  0  0  0  0  0  0  0  0  0
   -2.4964    1.3341    0.2804 C   0  0  0  0  0  0  0  0  0  0  0  0
   -2.7714    2.8248    0.0917 C   0  0  0  0  0  0  0  0  0  0  0  0
   -4.1026    3.2062    0.6863 C   0  0  0  0  0  0  0  0  0  0  0  0
   -4.1890    3.6390    2.0154 C   0  0  0  0  0  0  0  0  0  0  0  0
   -5.4273    3.9572    2.5749 C   0  0  0  0  0  0  0  0  0  0  0  0
   -6.5885    3.8413    1.8142 C   0  0  0  0  0  0  0  0  0  0  0  0
   -6.5129    3.4091    0.4925 C   0  0  0  0  0  0  0  0  0  0  0  0
   -5.2763    3.0919   -0.0702 C   0  0  0  0  0  0  0  0  0  0  0  0
    4.7528   -0.1637    0.5731 C   0  0  0  0  0  0  0  0  0  0  0  0
    4.2695    1.0727    0.2111 O   0  0  0  0  0  0  0  0  0  0  0  0
    4.0553    1.1398   -1.1994 C   0  0  0  0  0  0  0  0  0  0  0  0
    6.0322   -0.5659    0.1863 C   0  0  0  0  0  0  0  0  0  0  0  0
    8.4165   -3.4357    1.5973 H   0  0  0  0  0  0  0  0  0  0  0  0
    7.7368   -4.1847    0.1005 H   0  0  0  0  0  0  0  0  0  0  0  0
    9.3344   -3.4266    0.0857 H   0  0  0  0  0  0  0  0  0  0  0  0
    6.0557   -3.6230    1.6844 H   0  0  0  0  0  0  0  0  0  0  0  0
    3.8628   -2.9005    2.3899 H   0  0  0  0  0  0  0  0  0  0  0  0
    2.4766    0.4365    1.3566 H   0  0  0  0  0  0  0  0  0  0  0  0
   -0.4580   -0.8975    2.3885 H   0  0  0  0  0  0  0  0  0  0  0  0
    0.3603   -0.1622    3.7791 H   0  0  0  0  0  0  0  0  0  0  0  0
   -1.5868    0.2386   -3.6234 H   0  0  0  0  0  0  0  0  0  0  0  0
   -2.7061    1.1940   -2.6765 H   0  0  0  0  0  0  0  0  0  0  0  0
   -4.9684   -0.1749   -2.1754 H   0  0  0  0  0  0  0  0  0  0  0  0
   -5.5983   -2.7903   -1.9055 H   0  0  0  0  0  0  0  0  0  0  0  0
   -3.2710   -4.1587   -2.1759 H   0  0  0  0  0  0  0  0  0  0  0  0
   -0.5075   -2.5017   -1.7155 H   0  0  0  0  0  0  0  0  0  0  0  0
   -1.0285   -3.6607   -2.9756 H   0  0  0  0  0  0  0  0  0  0  0  0
   -0.6099   -1.9956   -3.4449 H   0  0  0  0  0  0  0  0  0  0  0  0
   -2.4880    1.0630    1.3421 H   0  0  0  0  0  0  0  0  0  0  0  0
   -3.2897    0.7324   -0.1703 H   0  0  0  0  0  0  0  0  0  0  0  0
   -1.9759    3.4266    0.5484 H   0  0  0  0  0  0  0  0  0  0  0  0
   -2.7620    3.0890   -0.9736 H   0  0  0  0  0  0  0  0  0  0  0  0
   -3.2940    3.7317    2.6273 H   0  0  0  0  0  0  0  0  0  0  0  0
   -5.4858    4.2944    3.6062 H   0  0  0  0  0  0  0  0  0  0  0  0
   -7.5524    4.0879    2.2517 H   0  0  0  0  0  0  0  0  0  0  0  0
   -7.4186    3.3181   -0.1011 H   0  0  0  0  0  0  0  0  0  0  0  0
   -5.2384    2.7550   -1.1030 H   0  0  0  0  0  0  0  0  0  0  0  0
    3.4134    2.0028   -1.3995 H   0  0  0  0  0  0  0  0  0  0  0  0
    3.5502    0.2450   -1.5780 H   0  0  0  0  0  0  0  0  0  0  0  0
    5.0019    1.2942   -1.7247 H   0  0  0  0  0  0  0  0  0  0  0  0
    6.6566    0.0931   -0.4092 H   0  0  0  0  0  0  0  0  0  0  0  0
  1  2  1  0
  2  3  1  0
  3  4  2  0
  4  5  1  0
  5  6  2  0
  6  7  1  0
  7  8  1  0
  8  9  2  0
  8 10  1  0
 10 11  1  0
 11 12  1  0
 12 13  2  0
 13 14  1  0
 14 15  2  0
 15 16  1  0
 16 17  1  0
 17 18  2  0
 18 19  1  0
 19 20  2  0
 20 21  1  0
 21 22  1  0
 15 23  1  0
 23 24  1  0
 24 25  1  0
 25 26  1  0
 26 27  2  0
 27 28  1  0
 28 29  2  0
 29 30  1  0
 30 31  2  0
  6 32  1  0
 32 33  1  0
 33 34  1  0
 32 35  2  0
 35  3  1  0
 23 12  1  0
 31 26  1  0
 21 17  1  0
  1 36  1  0
  1 37  1  0
  1 38  1  0
  4 39  1  0
  5 40  1  0
  7 41  1  0
 10 42  1  0
 10 43  1  0
 16 44  1  0
 16 45  1  0
 18 46  1  0
 19 47  1  0
 20 48  1  0
 22 49  1  0
 22 50  1  0
 22 51  1  0
 24 52  1  0
 24 53  1  0
 25 54  1  0
 25 55  1  0
 27 56  1  0
 28 57  1  0
 29 58  1  0
 30 59  1  0
 31 60  1  0
 34 61  1  0
 34 62  1  0
 34 63  1  0
 35 64  1  0
M  END
$$$$
