
     RDKit          3D

 62 66  0  0  0  0  0  0  0  0999 V2000
   -5.0709    6.0335   -2.0878 C   0  0  0  0  0  0  0  0  0  0  0  0
   -4.0521    5.0650   -1.8751 O   0  0  0  0  0  0  0  0  0  0  0  0
   -4.4250    3.8936   -1.2742 C   0  0  0  0  0  0  0  0  0  0  0  0
   -5.7088    3.5591   -0.8642 C   0  0  0  0  0  0  0  0  0  0  0  0
   -5.9651    2.3241   -0.2572 C   0  0  0  0  0  0  0  0  0  0  0  0
   -4.9046    1.4181   -0.0645 C   0  0  0  0  0  0  0  0  0  0  0  0
   -4.9957   -0.1386    0.6577 S   0  0  0  0  0  0  0  0  0  0  0  0
   -3.3251   -0.4301    0.4439 C   0  0  0  0  0  0  0  0  0  0  0  0
   -2.7740   -1.7138    0.8983 C   0  0  0  0  0  0  0  0  0  0  0  0
   -2.4913   -1.8844    2.2641 C   0  0  0  0  0  0  0  0  0  0  0  0
   -1.9477   -3.0794    2.7318 C   0  0  0  0  0  0  0  0  0  0  0  0
   -1.6818   -4.1133    1.8392 C   0  0  0  0  0  0  0  0  0  0  0  0
   -1.9566   -3.9567    0.4774 C   0  0  0  0  0  0  0  0  0  0  0  0
   -2.4988   -2.7599   -0.0063 C   0  0  0  0  0  0  0  0  0  0  0  0
   -2.8096   -2.5294   -1.3234 O   0  0  0  0  0  0  0  0  0  0  0  0
   -2.3429   -3.4710   -2.2799 C   0  0  0  0  0  0  0  0  0  0  0  0
   -2.6933    0.6418   -0.1638 C   0  0  0  0  0  0  0  0  0  0  0  0
   -1.2645    0.6235   -0.4463 C   0  0  0  0  0  0  0  0  0  0  0  0
   -0.8077    0.2829   -1.7209 C   0  0  0  0  0  0  0  0  0  0  0  0
    0.5630    0.2670   -1.9874 C   0  0  0  0  0  0  0  0  0  0  0  0
    1.4890    0.5970   -0.9928 C   0  0  0  0  0  0  0  0  0  0  0  0
    2.7943    0.5308   -1.3932 O   0  0  0  0  0  0  0  0  0  0  0  0
    3.8131    0.9730   -0.4905 C   0  0  0  0  0  0  0  0  0  0  0  0
    4.2880   -0.1848    0.4054 C   0  0  0  0  0  0  0  0  0  0  0  0
    5.2923    0.2352    1.4024 N   0  0  0  0  0  0  0  0  0  0  0  0
    6.6241    0.4414    0.8095 C   0  0  0  0  0  0  0  0  0  0  0  0
    7.2888   -0.9279    0.7656 C   0  0  0  0  0  0  0  0  0  0  0  0
    6.5371   -1.7687    1.7874 C   0  0  0  0  0  0  0  0  0  0  0  0
    5.5213   -0.8199    2.4038 C   0  0  0  0  0  0  0  0  0  0  0  0
    1.0293    0.9397    0.2794 C   0  0  0  0  0  0  0  0  0  0  0  0
   -0.3436    0.9550    0.5519 C   0  0  0  0  0  0  0  0  0  0  0  0
   -3.6033    1.7218   -0.4665 C   0  0  0  0  0  0  0  0  0  0  0  0
   -3.3797    2.9832   -1.0780 C   0  0  0  0  0  0  0  0  0  0  0  0
   -5.5016    6.3686   -1.1385 H   0  0  0  0  0  0  0  0  0  0  0  0
   -4.6114    6.9023   -2.5691 H   0  0  0  0  0  0  0  0  0  0  0  0
   -5.8450    5.6510   -2.7611 H   0  0  0  0  0  0  0  0  0  0  0  0
   -6.5463    4.2358   -0.9996 H   0  0  0  0  0  0  0  0  0  0  0  0
   -6.9723    2.0688    0.0608 H   0  0  0  0  0  0  0  0  0  0  0  0
   -2.6931   -1.0797    2.9676 H   0  0  0  0  0  0  0  0  0  0  0  0
   -1.7333   -3.2020    3.7901 H   0  0  0  0  0  0  0  0  0  0  0  0
   -1.2609   -5.0478    2.2021 H   0  0  0  0  0  0  0  0  0  0  0  0
   -1.7418   -4.7923   -0.1800 H   0  0  0  0  0  0  0  0  0  0  0  0
   -2.8570   -4.4314   -2.1679 H   0  0  0  0  0  0  0  0  0  0  0  0
   -2.5809   -3.0825   -3.2753 H   0  0  0  0  0  0  0  0  0  0  0  0
   -1.2555   -3.5927   -2.2224 H   0  0  0  0  0  0  0  0  0  0  0  0
   -1.5129    0.0192   -2.5055 H   0  0  0  0  0  0  0  0  0  0  0  0
    0.9123   -0.0047   -2.9802 H   0  0  0  0  0  0  0  0  0  0  0  0
    3.5026    1.8536    0.0841 H   0  0  0  0  0  0  0  0  0  0  0  0
    4.6416    1.3096   -1.1232 H   0  0  0  0  0  0  0  0  0  0  0  0
    4.6446   -1.0102   -0.2245 H   0  0  0  0  0  0  0  0  0  0  0  0
    3.4101   -0.5815    0.9303 H   0  0  0  0  0  0  0  0  0  0  0  0
    6.6122    0.9267   -0.1708 H   0  0  0  0  0  0  0  0  0  0  0  0
    7.1970    1.1009    1.4736 H   0  0  0  0  0  0  0  0  0  0  0  0
    8.3553   -0.8606    1.0048 H   0  0  0  0  0  0  0  0  0  0  0  0
    7.1948   -1.3777   -0.2294 H   0  0  0  0  0  0  0  0  0  0  0  0
    6.0343   -2.6033    1.2855 H   0  0  0  0  0  0  0  0  0  0  0  0
    7.2090   -2.1870    2.5433 H   0  0  0  0  0  0  0  0  0  0  0  0
    5.9502   -0.3579    3.3020 H   0  0  0  0  0  0  0  0  0  0  0  0
    4.6065   -1.3317    2.7215 H   0  0  0  0  0  0  0  0  0  0  0  0
    1.7063    1.1925    1.0887 H   0  0  0  0  0  0  0  0  0  0  0  0
   -0.6874    1.2238    1.5479 H   0  0  0  0  0  0  0  0  0  0  0  0
   -2.3756    3.2504   -1.4012 H   0  0  0  0  0  0  0  0  0  0  0  0
  1  2  1  0
  2  3  1  0
  3  4  2  0
  4  5  1  0
  5  6  2  0
  6  7  1  0
  7  8  1  0
  8  9  1  0
  9 10  2  0
 10 11  1  0
 11 12  2  0
 12 13  1  0
 13 14  2  0
 14 15  1  0
 15 16  1  0
  8 17  2  0
 17 18  1  0
 18 19  2  0
 19 20  1  0
 20 21  2  0
 21 22  1  0
 22 23  1  0
 23 24  1  0
 24 25  1  0
 25 26  1  0
 26 27  1  0
 27 28  1  0
 28 29  1  0
 21 30  1  0
 30 31  2  0
 17 32  1  0
 32 33  2  0
 33  3  1  0
 32  6  1  0
 14  9  1  0
 31 18  1  0
 29 25  1  0
  1 34  1  0
  1 35  1  0
  1 36  1  0
  4 37  1  0
  5 38  1  0
 10 39  1  0
 11 40  1  0
 12 41  1  0
 13 42  1  0
 16 43  1  0
 16 44  1  0
 16 45  1  0
 19 46  1  0
 20 47  1  0
 23 48  1  0
 23 49  1  0
 24 50  1  0
 24 51  1  0
 26 52  1  0
 26 53  1  0
 27 54  1  0
 27 55  1  0
 28 56  1  0
 28 57  1  0
 29 58  1  0
 29 59  1  0
 30 60  1  0
 31 61  1  0
 33 62  1  0
M  END
$$$$
