
     RDKit          3D

 53 55  0  0  0  0  0  0  0  0999 V2000
    9.2778   -1.1801    0.9246 C   0  0  0  0  0  0  0  0  0  0  0  0
    8.0075   -1.7821    0.7048 O   0  0  0  0  0  0  0  0  0  0  0  0
    6.9063   -1.0373    1.0282 C   0  0  0  0  0  0  0  0  0  0  0  0
    6.9174    0.2444    1.5841 C   0  0  0  0  0  0  0  0  0  0  0  0
    5.7137    0.8992    1.8659 C   0  0  0  0  0  0  0  0  0  0  0  0
    4.5009    0.2686    1.5845 C   0  0  0  0  0  0  0  0  0  0  0  0
    2.9659    1.0845    1.9359 S   0  0  0  0  0  6  0  0  0  0  0  0
    3.2523    2.4140    2.4334 O   0  0  0  0  0  0  0  0  0  0  0  0
    2.1417    0.1631    2.6854 O   0  0  0  0  0  0  0  0  0  0  0  0
    2.2857    1.2659    0.4012 N   0  0  0  0  0  0  0  0  0  0  0  0
    2.9774    2.1674   -0.5430 C   0  0  0  0  0  0  0  0  0  0  0  0
    1.9908    3.2938   -0.7523 C   0  0  0  0  0  0  0  0  0  0  0  0
    0.7210    2.6475   -0.6456 O   0  0  0  0  0  0  0  0  0  0  0  0
    0.8734    1.7100    0.4423 C   0  0  0  0  0  0  0  0  0  0  0  0
   -0.0889    0.5322    0.2215 C   0  0  0  0  0  0  0  0  0  0  0  0
   -1.4745    0.9605    0.1242 N   0  0  0  0  0  0  0  0  0  0  0  0
   -2.5146    0.0649    0.1915 C   0  0  0  0  0  0  0  0  0  0  0  0
   -2.4341   -1.1117    0.5116 O   0  0  0  0  0  0  0  0  0  0  0  0
   -3.8807    0.6678   -0.2103 C   0  0  0  0  0  0  0  0  0  0  0  0
   -3.9652    1.8473   -0.5202 O   0  0  0  0  0  0  0  0  0  0  0  0
   -4.9110   -0.2419   -0.1882 N   0  0  0  0  0  0  0  0  0  0  0  0
   -6.2845    0.1539   -0.3606 C   0  0  0  0  0  0  0  0  0  0  0  0
   -7.0990   -0.9611   -0.9596 C   0  0  0  0  0  0  0  0  0  0  0  0
   -7.2611   -1.0037   -2.3555 C   0  0  0  0  0  0  0  0  0  0  0  0
   -7.9954   -2.0227   -2.9621 C   0  0  0  0  0  0  0  0  0  0  0  0
   -8.5720   -3.0216   -2.1850 C   0  0  0  0  0  0  0  0  0  0  0  0
   -8.4085   -3.0046   -0.8011 C   0  0  0  0  0  0  0  0  0  0  0  0
   -7.6729   -1.9845   -0.1909 C   0  0  0  0  0  0  0  0  0  0  0  0
   -7.4927   -2.0450    1.5267 Cl  0  0  0  0  0  0  0  0  0  0  0  0
    4.4774   -1.0144    1.0385 C   0  0  0  0  0  0  0  0  0  0  0  0
    5.6835   -1.6595    0.7595 C   0  0  0  0  0  0  0  0  0  0  0  0
   10.0455   -1.8955    0.6125 H   0  0  0  0  0  0  0  0  0  0  0  0
    9.3967   -0.2770    0.3166 H   0  0  0  0  0  0  0  0  0  0  0  0
    9.4361   -0.9656    1.9868 H   0  0  0  0  0  0  0  0  0  0  0  0
    7.8440    0.7575    1.8151 H   0  0  0  0  0  0  0  0  0  0  0  0
    5.7346    1.8947    2.3038 H   0  0  0  0  0  0  0  0  0  0  0  0
    3.9481    2.5330   -0.2001 H   0  0  0  0  0  0  0  0  0  0  0  0
    3.1331    1.6091   -1.4726 H   0  0  0  0  0  0  0  0  0  0  0  0
    2.0652    4.0554    0.0320 H   0  0  0  0  0  0  0  0  0  0  0  0
    2.0894    3.7696   -1.7320 H   0  0  0  0  0  0  0  0  0  0  0  0
    0.6278    2.2482    1.3660 H   0  0  0  0  0  0  0  0  0  0  0  0
   -0.0015   -0.2067    1.0253 H   0  0  0  0  0  0  0  0  0  0  0  0
    0.1431    0.0234   -0.7225 H   0  0  0  0  0  0  0  0  0  0  0  0
   -1.6786    1.8483   -0.3343 H   0  0  0  0  0  0  0  0  0  0  0  0
   -4.6934   -1.1633    0.1853 H   0  0  0  0  0  0  0  0  0  0  0  0
   -6.6776    0.4626    0.6145 H   0  0  0  0  0  0  0  0  0  0  0  0
   -6.3354    1.0469   -0.9976 H   0  0  0  0  0  0  0  0  0  0  0  0
   -6.8101   -0.2357   -2.9808 H   0  0  0  0  0  0  0  0  0  0  0  0
   -8.1143   -2.0371   -4.0426 H   0  0  0  0  0  0  0  0  0  0  0  0
   -9.1449   -3.8151   -2.6573 H   0  0  0  0  0  0  0  0  0  0  0  0
   -8.8536   -3.7937   -0.2017 H   0  0  0  0  0  0  0  0  0  0  0  0
    3.5342   -1.5131    0.8325 H   0  0  0  0  0  0  0  0  0  0  0  0
    5.6738   -2.6608    0.3339 H   0  0  0  0  0  0  0  0  0  0  0  0
  1  2  1  0
  2  3  1  0
  3  4  2  0
  4  5  1  0
  5  6  2  0
  6  7  1  0
  7  8  2  0
  7  9  2  0
  7 10  1  0
 10 11  1  0
 11 12  1  0
 12 13  1  0
 13 14  1  0
 14 15  1  0
 15 16  1  0
 16 17  1  0
 17 18  2  0
 17 19  1  0
 19 20  2  0
 19 21  1  0
 21 22  1  0
 22 23  1  0
 23 24  2  0
 24 25  1  0
 25 26  2  0
 26 27  1  0
 27 28  2  0
 28 29  1  0
  6 30  1  0
 30 31  2  0
 31  3  1  0
 14 10  1  0
 28 23  1  0
  1 32  1  0
  1 33  1  0
  1 34  1  0
  4 35  1  0
  5 36  1  0
 11 37  1  0
 11 38  1  0
 12 39  1  0
 12 40  1  0
 14 41  1  0
 15 42  1  0
 15 43  1  0
 16 44  1  0
 21 45  1  0
 22 46  1  0
 22 47  1  0
 24 48  1  0
 25 49  1  0
 26 50  1  0
 27 51  1  0
 30 52  1  0
 31 53  1  0
M  END
$$$$
