
     RDKit          3D

 60 63  0  0  0  0  0  0  0  0999 V2000
   10.0329   -2.8003   -0.1825 C   0  0  0  0  0  0  0  0  0  0  0  0
    8.9492   -1.7433   -0.0423 C   0  0  0  0  0  0  0  0  0  0  0  0
    7.7005   -2.4146    0.1332 O   0  0  0  0  0  0  0  0  0  0  0  0
    6.6133   -1.6301    0.4103 C   0  0  0  0  0  0  0  0  0  0  0  0
    6.5713   -0.2371    0.3562 C   0  0  0  0  0  0  0  0  0  0  0  0
    5.3918    0.4434    0.6782 C   0  0  0  0  0  0  0  0  0  0  0  0
    4.2420   -0.2583    1.0664 C   0  0  0  0  0  0  0  0  0  0  0  0
    2.9808    0.4829    1.4195 C   0  0  0  0  0  0  0  0  0  0  0  0
    2.1414    0.6701    0.2621 N   0  0  0  0  0  0  0  0  0  0  0  0
    2.1920    1.8121   -0.5107 C   0  0  0  0  0  0  0  0  0  0  0  0
    2.9222    2.7673   -0.2514 O   0  0  0  0  0  0  0  0  0  0  0  0
    1.2965    1.7839   -1.7482 C   0  0  0  0  0  0  0  0  0  0  0  0
   -0.1147    1.7725   -1.3747 N   0  0  0  0  0  0  0  0  0  0  0  0
   -0.7686    3.0094   -1.4054 N   0  0  0  0  0  0  0  0  0  0  0  0
   -2.0270    3.1167   -1.0824 C   0  0  0  0  0  0  0  0  0  0  0  0
   -2.6653    4.4751   -1.1341 C   0  0  0  0  0  0  0  0  0  0  0  0
   -2.7577    1.9375   -0.6860 C   0  0  0  0  0  0  0  0  0  0  0  0
   -4.0445    1.7066   -0.2303 C   0  0  0  0  0  0  0  0  0  0  0  0
   -5.1102    2.6712    0.1457 C   0  0  0  0  0  0  0  0  0  0  0  0
   -4.1525    0.3154   -0.1139 N   0  0  0  0  0  0  0  0  0  0  0  0
   -5.2980   -0.5136    0.0961 C   0  0  0  0  0  0  0  0  0  0  0  0
   -5.1085   -1.8387    0.5239 C   0  0  0  0  0  0  0  0  0  0  0  0
   -6.2020   -2.6862    0.7310 C   0  0  0  0  0  0  0  0  0  0  0  0
   -7.5042   -2.2297    0.5077 C   0  0  0  0  0  0  0  0  0  0  0  0
   -8.6736   -3.1502    0.6940 C   0  0  0  0  0  0  0  0  0  0  0  0
   -7.6924   -0.9243    0.0405 C   0  0  0  0  0  0  0  0  0  0  0  0
   -6.5998   -0.0706   -0.1637 C   0  0  0  0  0  0  0  0  0  0  0  0
   -2.9325   -0.2772   -0.2411 N   0  0  0  0  0  0  0  0  0  0  0  0
   -2.1187    0.6934   -0.6595 C   0  0  0  0  0  0  0  0  0  0  0  0
   -0.7132    0.5521   -1.0112 C   0  0  0  0  0  0  0  0  0  0  0  0
   -0.0940   -0.5118   -0.9717 O   0  0  0  0  0  0  0  0  0  0  0  0
    4.2819   -1.6562    1.0894 C   0  0  0  0  0  0  0  0  0  0  0  0
    5.4602   -2.3334    0.7639 C   0  0  0  0  0  0  0  0  0  0  0  0
   10.0639   -3.4415    0.7044 H   0  0  0  0  0  0  0  0  0  0  0  0
    9.8294   -3.4526   -1.0373 H   0  0  0  0  0  0  0  0  0  0  0  0
   11.0148   -2.3354   -0.3178 H   0  0  0  0  0  0  0  0  0  0  0  0
    8.9258   -1.1322   -0.9524 H   0  0  0  0  0  0  0  0  0  0  0  0
    9.1752   -1.1159    0.8289 H   0  0  0  0  0  0  0  0  0  0  0  0
    7.4333    0.3526    0.0640 H   0  0  0  0  0  0  0  0  0  0  0  0
    5.3714    1.5314    0.6224 H   0  0  0  0  0  0  0  0  0  0  0  0
    3.2232    1.4511    1.8754 H   0  0  0  0  0  0  0  0  0  0  0  0
    2.4022   -0.0828    2.1595 H   0  0  0  0  0  0  0  0  0  0  0  0
    1.6095   -0.1296   -0.0797 H   0  0  0  0  0  0  0  0  0  0  0  0
    1.5355    0.8925   -2.3400 H   0  0  0  0  0  0  0  0  0  0  0  0
    1.5036    2.6662   -2.3630 H   0  0  0  0  0  0  0  0  0  0  0  0
   -3.6216    4.4259   -1.6583 H   0  0  0  0  0  0  0  0  0  0  0  0
   -2.0153    5.1781   -1.6618 H   0  0  0  0  0  0  0  0  0  0  0  0
   -2.8204    4.8443   -0.1168 H   0  0  0  0  0  0  0  0  0  0  0  0
   -5.7479    2.2862    0.9468 H   0  0  0  0  0  0  0  0  0  0  0  0
   -4.6776    3.5970    0.5362 H   0  0  0  0  0  0  0  0  0  0  0  0
   -5.7262    2.9285   -0.7210 H   0  0  0  0  0  0  0  0  0  0  0  0
   -4.1087   -2.2291    0.7112 H   0  0  0  0  0  0  0  0  0  0  0  0
   -6.0262   -3.7071    1.0658 H   0  0  0  0  0  0  0  0  0  0  0  0
   -8.4812   -3.8659    1.5006 H   0  0  0  0  0  0  0  0  0  0  0  0
   -9.5717   -2.5883    0.9671 H   0  0  0  0  0  0  0  0  0  0  0  0
   -8.8667   -3.7027   -0.2299 H   0  0  0  0  0  0  0  0  0  0  0  0
   -8.6957   -0.5654   -0.1829 H   0  0  0  0  0  0  0  0  0  0  0  0
   -6.8075    0.9097   -0.5779 H   0  0  0  0  0  0  0  0  0  0  0  0
    3.3997   -2.2292    1.3630 H   0  0  0  0  0  0  0  0  0  0  0  0
    5.4804   -3.4198    0.7905 H   0  0  0  0  0  0  0  0  0  0  0  0
  1  2  1  0
  2  3  1  0
  3  4  1  0
  4  5  2  0
  5  6  1  0
  6  7  2  0
  7  8  1  0
  8  9  1  0
  9 10  1  0
 10 11  2  0
 10 12  1  0
 12 13  1  0
 13 14  1  0
 14 15  2  0
 15 16  1  0
 15 17  1  0
 17 18  2  0
 18 19  1  0
 18 20  1  0
 20 21  1  0
 21 22  2  0
 22 23  1  0
 23 24  2  0
 24 25  1  0
 24 26  1  0
 26 27  2  0
 20 28  1  0
 28 29  2  0
 29 30  1  0
 30 31  2  0
  7 32  1  0
 32 33  2  0
 33  4  1  0
 30 13  1  0
 29 17  1  0
 27 21  1  0
  1 34  1  0
  1 35  1  0
  1 36  1  0
  2 37  1  0
  2 38  1  0
  5 39  1  0
  6 40  1  0
  8 41  1  0
  8 42  1  0
  9 43  1  0
 12 44  1  0
 12 45  1  0
 16 46  1  0
 16 47  1  0
 16 48  1  0
 19 49  1  0
 19 50  1  0
 19 51  1  0
 22 52  1  0
 23 53  1  0
 25 54  1  0
 25 55  1  0
 25 56  1  0
 26 57  1  0
 27 58  1  0
 32 59  1  0
 33 60  1  0
M  END
$$$$
