
     RDKit          3D

 43 45  0  0  0  0  0  0  0  0999 V2000
    6.5863   -1.9182   -0.0117 C   0  0  0  0  0  0  0  0  0  0  0  0
    5.6701   -0.7390    0.1383 C   0  0  0  0  0  0  0  0  0  0  0  0
    6.1902    0.5334    0.4011 C   0  0  0  0  0  0  0  0  0  0  0  0
    5.3386    1.6310    0.5625 C   0  0  0  0  0  0  0  0  0  0  0  0
    5.8999    2.9883    0.8674 C   0  0  0  0  0  0  0  0  0  0  0  0
    3.9522    1.4341    0.4952 C   0  0  0  0  0  0  0  0  0  0  0  0
    3.4121    0.1637    0.2519 C   0  0  0  0  0  0  0  0  0  0  0  0
    2.0051    0.0641    0.1946 N   0  0  0  0  0  0  0  0  0  0  0  0
    1.2484   -1.0832    0.0413 C   0  0  0  0  0  0  0  0  0  0  0  0
    1.6569   -2.2375   -0.0019 O   0  0  0  0  0  0  0  0  0  0  0  0
   -0.2241   -0.8589   -0.0324 C   0  0  0  0  0  0  0  0  0  0  0  0
   -0.7741    0.2682   -0.6511 C   0  0  0  0  0  0  0  0  0  0  0  0
   -2.1642    0.4400   -0.6973 C   0  0  0  0  0  0  0  0  0  0  0  0
   -3.0198   -0.5123   -0.1384 C   0  0  0  0  0  0  0  0  0  0  0  0
   -4.4276   -0.4171   -0.1439 N   0  0  0  0  0  0  0  0  0  0  0  0
   -5.2109    0.6254   -0.6253 C   0  0  0  0  0  0  0  0  0  0  0  0
   -4.7565    1.6606   -1.1037 O   0  0  0  0  0  0  0  0  0  0  0  0
   -6.6464    0.3936   -0.5038 C   0  0  0  0  0  0  0  0  0  0  0  0
   -7.4151   -0.6783   -0.0753 C   0  0  0  0  0  0  0  0  0  0  0  0
   -8.7736   -0.2905   -0.1956 C   0  0  0  0  0  0  0  0  0  0  0  0
   -8.7615    0.9897   -0.6902 C   0  0  0  0  0  0  0  0  0  0  0  0
   -7.4878    1.4110   -0.8804 O   0  0  0  0  0  0  0  0  0  0  0  0
   -2.4624   -1.6508    0.4590 C   0  0  0  0  0  0  0  0  0  0  0  0
   -1.0756   -1.8260    0.5095 C   0  0  0  0  0  0  0  0  0  0  0  0
    4.2791   -0.9155    0.0745 C   0  0  0  0  0  0  0  0  0  0  0  0
    6.7493   -2.3909    0.9617 H   0  0  0  0  0  0  0  0  0  0  0  0
    6.1622   -2.6576   -0.6990 H   0  0  0  0  0  0  0  0  0  0  0  0
    7.5540   -1.6118   -0.4226 H   0  0  0  0  0  0  0  0  0  0  0  0
    7.2674    0.6692    0.4773 H   0  0  0  0  0  0  0  0  0  0  0  0
    5.9936    3.1197    1.9497 H   0  0  0  0  0  0  0  0  0  0  0  0
    6.8859    3.1158    0.4085 H   0  0  0  0  0  0  0  0  0  0  0  0
    5.2529    3.7770    0.4693 H   0  0  0  0  0  0  0  0  0  0  0  0
    3.2948    2.2878    0.6407 H   0  0  0  0  0  0  0  0  0  0  0  0
    1.5039    0.9290    0.3462 H   0  0  0  0  0  0  0  0  0  0  0  0
   -0.1442    1.0114   -1.1331 H   0  0  0  0  0  0  0  0  0  0  0  0
   -2.5430    1.3277   -1.1953 H   0  0  0  0  0  0  0  0  0  0  0  0
   -4.9161   -1.1947    0.2742 H   0  0  0  0  0  0  0  0  0  0  0  0
   -7.0578   -1.6343    0.2783 H   0  0  0  0  0  0  0  0  0  0  0  0
   -9.6525   -0.8724    0.0449 H   0  0  0  0  0  0  0  0  0  0  0  0
   -9.5323    1.7022   -0.9506 H   0  0  0  0  0  0  0  0  0  0  0  0
   -3.0939   -2.4215    0.8941 H   0  0  0  0  0  0  0  0  0  0  0  0
   -0.6605   -2.7188    0.9739 H   0  0  0  0  0  0  0  0  0  0  0  0
    3.8968   -1.9136   -0.1172 H   0  0  0  0  0  0  0  0  0  0  0  0
  1  2  1  0
  2  3  2  0
  3  4  1  0
  4  5  1  0
  4  6  2  0
  6  7  1  0
  7  8  1  0
  8  9  1  0
  9 10  2  0
  9 11  1  0
 11 12  2  0
 12 13  1  0
 13 14  2  0
 14 15  1  0
 15 16  1  0
 16 17  2  0
 16 18  1  0
 18 19  2  0
 19 20  1  0
 20 21  2  0
 21 22  1  0
 14 23  1  0
 23 24  2  0
  7 25  2  0
 25  2  1  0
 24 11  1  0
 22 18  1  0
  1 26  1  0
  1 27  1  0
  1 28  1  0
  3 29  1  0
  5 30  1  0
  5 31  1  0
  5 32  1  0
  6 33  1  0
  8 34  1  0
 12 35  1  0
 13 36  1  0
 15 37  1  0
 19 38  1  0
 20 39  1  0
 21 40  1  0
 23 41  1  0
 24 42  1  0
 25 43  1  0
M  END
$$$$
