
     RDKit          3D

 57 59  0  0  0  0  0  0  0  0999 V2000
    4.2801   -1.1220    3.7508 C   0  0  0  0  0  0  0  0  0  0  0  0
    4.6017   -0.4543    2.4173 C   0  0  0  0  0  0  0  0  0  0  0  0
    5.4181    1.1631    2.7263 S   0  0  0  0  0  0  0  0  0  0  0  0
    5.7988    1.6619    1.0113 C   0  0  0  0  0  0  0  0  0  0  0  0
    6.8214    0.7785    0.3444 C   0  0  0  0  0  0  0  0  0  0  0  0
    6.4441   -0.1047   -0.6774 C   0  0  0  0  0  0  0  0  0  0  0  0
    7.3922   -0.9254   -1.2915 C   0  0  0  0  0  0  0  0  0  0  0  0
    8.7266   -0.8705   -0.8942 C   0  0  0  0  0  0  0  0  0  0  0  0
    9.1152    0.0039    0.1179 C   0  0  0  0  0  0  0  0  0  0  0  0
    8.1687    0.8243    0.7344 C   0  0  0  0  0  0  0  0  0  0  0  0
    3.3356   -0.2828    1.5725 C   0  0  0  0  0  0  0  0  0  0  0  0
    3.1770   -0.9373    0.5426 O   0  0  0  0  0  0  0  0  0  0  0  0
    2.4282    0.6341    2.0982 N   0  0  0  0  0  0  0  0  0  0  0  0
    1.1592    0.8820    1.6484 N   0  0  0  0  0  0  0  0  0  0  0  0
    0.9028    0.7396    0.3870 C   0  0  0  0  0  0  0  0  0  0  0  0
   -0.4578    0.9482   -0.1521 C   0  0  0  0  0  0  0  0  0  0  0  0
   -1.5195    1.3034    0.6831 C   0  0  0  0  0  0  0  0  0  0  0  0
   -2.7987    1.4998    0.1496 C   0  0  0  0  0  0  0  0  0  0  0  0
   -3.0177    1.3440   -1.2201 C   0  0  0  0  0  0  0  0  0  0  0  0
   -4.2111    1.4927   -1.8714 O   0  0  0  0  0  0  0  0  0  0  0  0
   -5.3224    1.9827   -1.1294 C   0  0  0  0  0  0  0  0  0  0  0  0
   -6.0629    0.9342   -0.2922 C   0  0  0  0  0  0  0  0  0  0  0  0
   -6.8285    1.2491    0.6152 O   0  0  0  0  0  0  0  0  0  0  0  0
   -5.8192   -0.3656   -0.6651 N   0  0  0  0  0  0  0  0  0  0  0  0
   -6.5350   -1.4839   -0.1012 C   0  0  0  0  0  0  0  0  0  0  0  0
   -7.6431   -1.8393   -1.0198 C   0  0  0  0  0  0  0  0  0  0  0  0
   -8.9745   -1.4821   -1.0789 C   0  0  0  0  0  0  0  0  0  0  0  0
   -9.5161   -2.1477   -2.2046 C   0  0  0  0  0  0  0  0  0  0  0  0
   -8.4820   -2.8643   -2.7618 C   0  0  0  0  0  0  0  0  0  0  0  0
   -7.3394   -2.6822   -2.0512 O   0  0  0  0  0  0  0  0  0  0  0  0
   -1.9502    0.9815   -2.0481 C   0  0  0  0  0  0  0  0  0  0  0  0
   -0.6715    0.7843   -1.5212 C   0  0  0  0  0  0  0  0  0  0  0  0
    3.7625   -2.0742    3.5841 H   0  0  0  0  0  0  0  0  0  0  0  0
    3.6267   -0.5088    4.3821 H   0  0  0  0  0  0  0  0  0  0  0  0
    5.1943   -1.3382    4.3148 H   0  0  0  0  0  0  0  0  0  0  0  0
    5.2981   -1.0996    1.8722 H   0  0  0  0  0  0  0  0  0  0  0  0
    6.1880    2.6869    1.0407 H   0  0  0  0  0  0  0  0  0  0  0  0
    4.8738    1.7116    0.4269 H   0  0  0  0  0  0  0  0  0  0  0  0
    5.4060   -0.1680   -0.9997 H   0  0  0  0  0  0  0  0  0  0  0  0
    7.0872   -1.6092   -2.0789 H   0  0  0  0  0  0  0  0  0  0  0  0
    9.4631   -1.5107   -1.3726 H   0  0  0  0  0  0  0  0  0  0  0  0
   10.1556    0.0468    0.4297 H   0  0  0  0  0  0  0  0  0  0  0  0
    8.4873    1.4998    1.5257 H   0  0  0  0  0  0  0  0  0  0  0  0
    2.6097    0.9989    3.0302 H   0  0  0  0  0  0  0  0  0  0  0  0
    1.6746    0.4926   -0.3600 H   0  0  0  0  0  0  0  0  0  0  0  0
   -1.3606    1.4280    1.7519 H   0  0  0  0  0  0  0  0  0  0  0  0
   -3.5937    1.7670    0.8378 H   0  0  0  0  0  0  0  0  0  0  0  0
   -5.0437    2.8378   -0.5019 H   0  0  0  0  0  0  0  0  0  0  0  0
   -6.0477    2.3560   -1.8617 H   0  0  0  0  0  0  0  0  0  0  0  0
   -5.2689   -0.5262   -1.5014 H   0  0  0  0  0  0  0  0  0  0  0  0
   -5.8283   -2.3145   -0.0058 H   0  0  0  0  0  0  0  0  0  0  0  0
   -6.9162   -1.2351    0.8942 H   0  0  0  0  0  0  0  0  0  0  0  0
   -9.4823   -0.8174   -0.3925 H   0  0  0  0  0  0  0  0  0  0  0  0
  -10.5328   -2.1080   -2.5686 H   0  0  0  0  0  0  0  0  0  0  0  0
   -8.3993   -3.5175   -3.6201 H   0  0  0  0  0  0  0  0  0  0  0  0
   -2.1155    0.8541   -3.1160 H   0  0  0  0  0  0  0  0  0  0  0  0
    0.1419    0.5028   -2.1847 H   0  0  0  0  0  0  0  0  0  0  0  0
  1  2  1  0
  2  3  1  0
  3  4  1  0
  4  5  1  0
  5  6  2  0
  6  7  1  0
  7  8  2  0
  8  9  1  0
  9 10  2  0
  2 11  1  0
 11 12  2  0
 11 13  1  0
 13 14  1  0
 14 15  2  3
 15 16  1  0
 16 17  2  0
 17 18  1  0
 18 19  2  0
 19 20  1  0
 20 21  1  0
 21 22  1  0
 22 23  2  0
 22 24  1  0
 24 25  1  0
 25 26  1  0
 26 27  2  0
 27 28  1  0
 28 29  2  0
 29 30  1  0
 19 31  1  0
 31 32  2  0
 10  5  1  0
 32 16  1  0
 30 26  1  0
  1 33  1  0
  1 34  1  0
  1 35  1  0
  2 36  1  0
  4 37  1  0
  4 38  1  0
  6 39  1  0
  7 40  1  0
  8 41  1  0
  9 42  1  0
 10 43  1  0
 13 44  1  0
 15 45  1  0
 17 46  1  0
 18 47  1  0
 21 48  1  0
 21 49  1  0
 24 50  1  0
 25 51  1  0
 25 52  1  0
 27 53  1  0
 28 54  1  0
 29 55  1  0
 31 56  1  0
 32 57  1  0
M  END
$$$$
