
     RDKit          3D

 60 63  0  0  0  0  0  0  0  0999 V2000
    8.0215    2.2736    1.4257 C   0  0  0  0  0  0  0  0  0  0  0  0
    7.8358    0.8881    1.1706 O   0  0  0  0  0  0  0  0  0  0  0  0
    6.7282    0.5339    0.4504 C   0  0  0  0  0  0  0  0  0  0  0  0
    5.7432    1.4014   -0.0237 C   0  0  0  0  0  0  0  0  0  0  0  0
    4.6564    0.9032   -0.7526 C   0  0  0  0  0  0  0  0  0  0  0  0
    4.5448   -0.4671   -1.0225 C   0  0  0  0  0  0  0  0  0  0  0  0
    3.3648   -1.0126   -1.7839 C   0  0  0  0  0  0  0  0  0  0  0  0
    2.3360   -1.4533   -0.8754 N   0  0  0  0  0  0  0  0  0  0  0  0
    2.1924   -2.7731   -0.5023 C   0  0  0  0  0  0  0  0  0  0  0  0
    2.8780   -3.6783   -0.9748 O   0  0  0  0  0  0  0  0  0  0  0  0
    1.2384   -3.0039    0.6831 C   0  0  0  0  0  0  0  0  0  0  0  0
    2.0456   -3.0214    1.9805 C   0  0  0  0  0  0  0  0  0  0  0  0
    0.1679   -1.9887    0.6949 N   0  0  0  0  0  0  0  0  0  0  0  0
    0.4546   -0.7556    1.3109 N   0  0  0  0  0  0  0  0  0  0  0  0
   -0.4294    0.2032    1.3482 C   0  0  0  0  0  0  0  0  0  0  0  0
   -0.0603    1.4871    2.0354 C   0  0  0  0  0  0  0  0  0  0  0  0
   -1.7132    0.0063    0.7257 C   0  0  0  0  0  0  0  0  0  0  0  0
   -2.8715    0.7615    0.6446 C   0  0  0  0  0  0  0  0  0  0  0  0
   -3.2331    2.0290    1.3323 C   0  0  0  0  0  0  0  0  0  0  0  0
   -3.7258    0.0412   -0.2004 N   0  0  0  0  0  0  0  0  0  0  0  0
   -4.9646    0.4133   -0.8091 C   0  0  0  0  0  0  0  0  0  0  0  0
   -5.3595    1.7473   -0.9546 C   0  0  0  0  0  0  0  0  0  0  0  0
   -6.5800    2.0626   -1.5658 C   0  0  0  0  0  0  0  0  0  0  0  0
   -7.4146    1.0554   -2.0595 C   0  0  0  0  0  0  0  0  0  0  0  0
   -8.7334    1.3879   -2.6913 C   0  0  0  0  0  0  0  0  0  0  0  0
   -7.0160   -0.2775   -1.9273 C   0  0  0  0  0  0  0  0  0  0  0  0
   -5.7979   -0.5962   -1.3201 C   0  0  0  0  0  0  0  0  0  0  0  0
   -3.2291   -1.2019   -0.4435 N   0  0  0  0  0  0  0  0  0  0  0  0
   -1.9943   -1.1909    0.0606 C   0  0  0  0  0  0  0  0  0  0  0  0
   -1.0236   -2.2755   -0.0086 C   0  0  0  0  0  0  0  0  0  0  0  0
   -1.2221   -3.3284   -0.6088 O   0  0  0  0  0  0  0  0  0  0  0  0
    5.5301   -1.3333   -0.5334 C   0  0  0  0  0  0  0  0  0  0  0  0
    6.6125   -0.8337    0.1937 C   0  0  0  0  0  0  0  0  0  0  0  0
    8.1218    2.8384    0.4924 H   0  0  0  0  0  0  0  0  0  0  0  0
    8.9549    2.3879    1.9853 H   0  0  0  0  0  0  0  0  0  0  0  0
    7.2108    2.6720    2.0449 H   0  0  0  0  0  0  0  0  0  0  0  0
    5.7893    2.4700    0.1562 H   0  0  0  0  0  0  0  0  0  0  0  0
    3.8980    1.5960   -1.1101 H   0  0  0  0  0  0  0  0  0  0  0  0
    3.6785   -1.8296   -2.4427 H   0  0  0  0  0  0  0  0  0  0  0  0
    2.9287   -0.2333   -2.4185 H   0  0  0  0  0  0  0  0  0  0  0  0
    1.9000   -0.7714   -0.2618 H   0  0  0  0  0  0  0  0  0  0  0  0
    0.7801   -3.9893    0.5386 H   0  0  0  0  0  0  0  0  0  0  0  0
    2.7736   -3.8388    1.9687 H   0  0  0  0  0  0  0  0  0  0  0  0
    2.6067   -2.0919    2.1252 H   0  0  0  0  0  0  0  0  0  0  0  0
    1.3904   -3.1603    2.8468 H   0  0  0  0  0  0  0  0  0  0  0  0
    1.0154    1.5167    2.2315 H   0  0  0  0  0  0  0  0  0  0  0  0
   -0.5882    1.5550    2.9899 H   0  0  0  0  0  0  0  0  0  0  0  0
   -0.3215    2.3423    1.4068 H   0  0  0  0  0  0  0  0  0  0  0  0
   -2.7363    2.1001    2.3045 H   0  0  0  0  0  0  0  0  0  0  0  0
   -4.3040    2.0867    1.5481 H   0  0  0  0  0  0  0  0  0  0  0  0
   -2.9305    2.8950    0.7360 H   0  0  0  0  0  0  0  0  0  0  0  0
   -4.7317    2.5752   -0.6508 H   0  0  0  0  0  0  0  0  0  0  0  0
   -6.8671    3.1072   -1.6673 H   0  0  0  0  0  0  0  0  0  0  0  0
   -8.8981    0.7730   -3.5827 H   0  0  0  0  0  0  0  0  0  0  0  0
   -8.7693    2.4361   -3.0066 H   0  0  0  0  0  0  0  0  0  0  0  0
   -9.5454    1.2102   -1.9791 H   0  0  0  0  0  0  0  0  0  0  0  0
   -7.6479   -1.0811   -2.2995 H   0  0  0  0  0  0  0  0  0  0  0  0
   -5.5182   -1.6462   -1.2412 H   0  0  0  0  0  0  0  0  0  0  0  0
    5.4564   -2.4047   -0.7143 H   0  0  0  0  0  0  0  0  0  0  0  0
    7.3719   -1.5189    0.5637 H   0  0  0  0  0  0  0  0  0  0  0  0
  1  2  1  0
  2  3  1  0
  3  4  2  0
  4  5  1  0
  5  6  2  0
  6  7  1  0
  7  8  1  0
  8  9  1  0
  9 10  2  0
  9 11  1  0
 11 12  1  0
 11 13  1  0
 13 14  1  0
 14 15  2  0
 15 16  1  0
 15 17  1  0
 17 18  2  0
 18 19  1  0
 18 20  1  0
 20 21  1  0
 21 22  2  0
 22 23  1  0
 23 24  2  0
 24 25  1  0
 24 26  1  0
 26 27  2  0
 20 28  1  0
 28 29  2  0
 29 30  1  0
 30 31  2  0
  6 32  1  0
 32 33  2  0
 33  3  1  0
 30 13  1  0
 29 17  1  0
 27 21  1  0
  1 34  1  0
  1 35  1  0
  1 36  1  0
  4 37  1  0
  5 38  1  0
  7 39  1  0
  7 40  1  0
  8 41  1  0
 11 42  1  0
 12 43  1  0
 12 44  1  0
 12 45  1  0
 16 46  1  0
 16 47  1  0
 16 48  1  0
 19 49  1  0
 19 50  1  0
 19 51  1  0
 22 52  1  0
 23 53  1  0
 25 54  1  0
 25 55  1  0
 25 56  1  0
 26 57  1  0
 27 58  1  0
 32 59  1  0
 33 60  1  0
M  END
$$$$
