
     RDKit          3D

 37 39  0  0  0  0  0  0  0  0999 V2000
   -5.7376    1.6265   -0.7328 C   0  0  0  0  0  0  0  0  0  0  0  0
   -5.1415    0.6635    0.2540 C   0  0  0  0  0  0  0  0  0  0  0  0
   -5.9613    0.0359    1.2039 C   0  0  0  0  0  0  0  0  0  0  0  0
   -5.4184   -0.8552    2.1318 C   0  0  0  0  0  0  0  0  0  0  0  0
   -4.0526   -1.1304    2.1165 C   0  0  0  0  0  0  0  0  0  0  0  0
   -3.2245   -0.5083    1.1811 C   0  0  0  0  0  0  0  0  0  0  0  0
   -3.7605    0.4048    0.2672 C   0  0  0  0  0  0  0  0  0  0  0  0
   -2.9963    1.0278   -0.6850 O   0  0  0  0  0  0  0  0  0  0  0  0
   -1.8026    1.6218   -0.1961 C   0  0  0  0  0  0  0  0  0  0  0  0
   -0.5186    0.8171   -0.4553 C   0  0  0  0  0  0  0  0  0  0  0  0
   -0.5396   -0.3288   -0.8920 O   0  0  0  0  0  0  0  0  0  0  0  0
    0.6105    1.5417   -0.1227 N   0  0  0  0  0  0  0  0  0  0  0  0
    1.9134    1.1164   -0.2030 C   0  0  0  0  0  0  0  0  0  0  0  0
    2.9182    1.8968    0.1226 N   0  0  0  0  0  0  0  0  0  0  0  0
    4.1342    1.2601   -0.0193 N   0  0  0  0  0  0  0  0  0  0  0  0
    4.0125    0.0150   -0.4476 C   0  0  0  0  0  0  0  0  0  0  0  0
    5.1427   -0.9039   -0.6702 C   0  0  0  0  0  0  0  0  0  0  0  0
    6.4382   -0.4732   -0.3527 C   0  0  0  0  0  0  0  0  0  0  0  0
    7.5053   -1.3337   -0.5512 C   0  0  0  0  0  0  0  0  0  0  0  0
    7.3754   -2.5830   -1.0391 N   0  0  0  0  0  0  0  0  0  0  0  0
    6.1262   -2.9866   -1.3449 C   0  0  0  0  0  0  0  0  0  0  0  0
    4.9967   -2.1982   -1.1825 C   0  0  0  0  0  0  0  0  0  0  0  0
    2.3716   -0.4414   -0.7030 S   0  0  0  0  0  0  0  0  0  0  0  0
   -5.4196    2.6473   -0.4953 H   0  0  0  0  0  0  0  0  0  0  0  0
   -6.8331    1.5974   -0.7108 H   0  0  0  0  0  0  0  0  0  0  0  0
   -5.4253    1.3776   -1.7522 H   0  0  0  0  0  0  0  0  0  0  0  0
   -7.0318    0.2312    1.2218 H   0  0  0  0  0  0  0  0  0  0  0  0
   -6.0636   -1.3428    2.8586 H   0  0  0  0  0  0  0  0  0  0  0  0
   -3.6327   -1.8432    2.8226 H   0  0  0  0  0  0  0  0  0  0  0  0
   -2.1705   -0.7723    1.1625 H   0  0  0  0  0  0  0  0  0  0  0  0
   -1.8655    1.8687    0.8730 H   0  0  0  0  0  0  0  0  0  0  0  0
   -1.6969    2.5732   -0.7313 H   0  0  0  0  0  0  0  0  0  0  0  0
    0.5227    2.4953    0.2038 H   0  0  0  0  0  0  0  0  0  0  0  0
    6.6209    0.5203    0.0479 H   0  0  0  0  0  0  0  0  0  0  0  0
    8.5212   -1.0302   -0.3147 H   0  0  0  0  0  0  0  0  0  0  0  0
    6.0500   -3.9972   -1.7362 H   0  0  0  0  0  0  0  0  0  0  0  0
    4.0327   -2.6100   -1.4625 H   0  0  0  0  0  0  0  0  0  0  0  0
  1  2  1  0
  2  3  2  0
  3  4  1  0
  4  5  2  0
  5  6  1  0
  6  7  2  0
  7  8  1  0
  8  9  1  0
  9 10  1  0
 10 11  2  0
 10 12  1  0
 12 13  1  0
 13 14  2  0
 14 15  1  0
 15 16  2  0
 16 17  1  0
 17 18  2  0
 18 19  1  0
 19 20  2  0
 20 21  1  0
 21 22  2  0
 16 23  1  0
  7  2  1  0
 23 13  1  0
 22 17  1  0
  1 24  1  0
  1 25  1  0
  1 26  1  0
  3 27  1  0
  4 28  1  0
  5 29  1  0
  6 30  1  0
  9 31  1  0
  9 32  1  0
 12 33  1  0
 18 34  1  0
 19 35  1  0
 21 36  1  0
 22 37  1  0
M  END
$$$$
