
     RDKit          3D

 39 40  0  0  0  0  0  0  0  0999 V2000
   -1.8232    1.0945   -1.0829 O   0  0  0  0  0  0  0  0  0  0  0  0
   -1.4897   -0.0058   -0.6490 C   0  0  0  0  0  0  0  0  0  0  0  0
   -2.4333   -1.1647   -0.6063 C   0  0  0  0  0  0  0  0  0  0  0  0
   -3.7745   -1.1157   -0.6166 C   0  0  0  0  0  0  0  0  0  0  0  0
   -4.6453    0.0646   -0.6283 C   0  0  0  0  0  0  0  0  0  0  0  0
   -5.6443    0.1610   -1.6057 C   0  0  0  0  0  0  0  0  0  0  0  0
   -6.5227    1.2467   -1.6151 C   0  0  0  0  0  0  0  0  0  0  0  0
   -6.4075    2.2328   -0.6438 C   0  0  0  0  0  0  0  0  0  0  0  0
   -7.2819    3.2779   -0.6912 O   0  0  0  0  0  0  0  0  0  0  0  0
   -5.4315    2.1490    0.3435 C   0  0  0  0  0  0  0  0  0  0  0  0
   -4.5558    1.0592    0.3539 C   0  0  0  0  0  0  0  0  0  0  0  0
   -0.1062   -0.2202   -0.0855 C   0  0  0  0  0  0  0  0  0  0  0  0
    0.7757   -1.1177   -0.9151 C   0  0  0  0  0  0  0  0  0  0  0  0
    0.3291   -1.8744   -1.7768 O   0  0  0  0  0  0  0  0  0  0  0  0
    2.2455   -1.1434   -0.6673 C   0  0  0  0  0  0  0  0  0  0  0  0
    2.8654   -0.4909    0.3272 C   0  0  0  0  0  0  0  0  0  0  0  0
    4.3184   -0.5521    0.5452 C   0  0  0  0  0  0  0  0  0  0  0  0
    5.2349   -0.5226   -0.5150 C   0  0  0  0  0  0  0  0  0  0  0  0
    6.6091   -0.5533   -0.2648 C   0  0  0  0  0  0  0  0  0  0  0  0
    7.0711   -0.6026    1.0440 C   0  0  0  0  0  0  0  0  0  0  0  0
    8.4192   -0.6310    1.2408 O   0  0  0  0  0  0  0  0  0  0  0  0
    6.1810   -0.6168    2.1115 C   0  0  0  0  0  0  0  0  0  0  0  0
    4.8058   -0.5854    1.8599 C   0  0  0  0  0  0  0  0  0  0  0  0
   -1.9549   -2.1398   -0.5775 H   0  0  0  0  0  0  0  0  0  0  0  0
   -4.3175   -2.0599   -0.6255 H   0  0  0  0  0  0  0  0  0  0  0  0
   -5.7403   -0.6021   -2.3742 H   0  0  0  0  0  0  0  0  0  0  0  0
   -7.2892    1.3237   -2.3806 H   0  0  0  0  0  0  0  0  0  0  0  0
   -7.0348    3.9150   -0.0014 H   0  0  0  0  0  0  0  0  0  0  0  0
   -5.3343    2.9135    1.1070 H   0  0  0  0  0  0  0  0  0  0  0  0
   -3.7977    0.9994    1.1299 H   0  0  0  0  0  0  0  0  0  0  0  0
   -0.1998   -0.6359    0.9236 H   0  0  0  0  0  0  0  0  0  0  0  0
    0.3592    0.7690   -0.0055 H   0  0  0  0  0  0  0  0  0  0  0  0
    2.7918   -1.7716   -1.3659 H   0  0  0  0  0  0  0  0  0  0  0  0
    2.3195    0.1085    1.0500 H   0  0  0  0  0  0  0  0  0  0  0  0
    4.8964   -0.4642   -1.5467 H   0  0  0  0  0  0  0  0  0  0  0  0
    7.3157   -0.5331   -1.0899 H   0  0  0  0  0  0  0  0  0  0  0  0
    8.5952   -0.6652    2.1952 H   0  0  0  0  0  0  0  0  0  0  0  0
    6.5329   -0.6502    3.1377 H   0  0  0  0  0  0  0  0  0  0  0  0
    4.1186   -0.5963    2.7032 H   0  0  0  0  0  0  0  0  0  0  0  0
  1  2  2  0
  2  3  1  0
  3  4  2  3
  4  5  1  0
  5  6  2  0
  6  7  1  0
  7  8  2  0
  8  9  1  0
  8 10  1  0
 10 11  2  0
  2 12  1  0
 12 13  1  0
 13 14  2  0
 13 15  1  0
 15 16  2  3
 16 17  1  0
 17 18  2  0
 18 19  1  0
 19 20  2  0
 20 21  1  0
 20 22  1  0
 22 23  2  0
 11  5  1  0
 23 17  1  0
  3 24  1  0
  4 25  1  0
  6 26  1  0
  7 27  1  0
  9 28  1  0
 10 29  1  0
 11 30  1  0
 12 31  1  0
 12 32  1  0
 15 33  1  0
 16 34  1  0
 18 35  1  0
 19 36  1  0
 21 37  1  0
 22 38  1  0
 23 39  1  0
M  END
$$$$
