
     RDKit          3D

 40 41  0  0  0  0  0  0  0  0999 V2000
   -6.6570    1.5945   -1.7308 C   0  0  0  0  0  0  0  0  0  0  0  0
   -5.7364    2.5693   -1.2539 O   0  0  0  0  0  0  0  0  0  0  0  0
   -4.5989    2.1073   -0.6535 C   0  0  0  0  0  0  0  0  0  0  0  0
   -3.7151    3.1055   -0.2346 C   0  0  0  0  0  0  0  0  0  0  0  0
   -2.5114    2.7773    0.3968 C   0  0  0  0  0  0  0  0  0  0  0  0
   -2.1798    1.4362    0.6148 C   0  0  0  0  0  0  0  0  0  0  0  0
   -0.9179    1.0240    1.2848 C   0  0  0  0  0  0  0  0  0  0  0  0
   -0.5918   -0.1427    1.4523 O   0  0  0  0  0  0  0  0  0  0  0  0
   -0.1979    2.1035    1.6719 O   0  0  0  0  0  0  0  0  0  0  0  0
    1.0199    1.8114    2.3583 C   0  0  0  0  0  0  0  0  0  0  0  0
    2.1396    1.3212    1.4358 C   0  0  0  0  0  0  0  0  0  0  0  0
    2.9540    2.0844    0.9246 O   0  0  0  0  0  0  0  0  0  0  0  0
    2.1401   -0.0453    1.2342 N   0  0  0  0  0  0  0  0  0  0  0  0
    3.0487   -0.6462    0.2744 C   0  0  0  0  0  0  0  0  0  0  0  0
    3.1121   -2.1677    0.4159 C   0  0  0  0  0  0  0  0  0  0  0  0
    3.9972   -2.7779   -0.5577 N   0  0  0  0  0  0  0  0  0  0  0  0
    3.6056   -3.1246   -1.8271 C   0  0  0  0  0  0  0  0  0  0  0  0
    2.3106   -2.9217   -2.1961 O   0  0  0  0  0  0  0  0  0  0  0  0
    4.5794   -3.6325   -2.5908 C   0  0  0  0  0  0  0  0  0  0  0  0
    6.0893   -3.6850   -1.7310 S   0  0  0  0  0  0  0  0  0  0  0  0
    5.3417   -2.9733   -0.2864 C   0  0  0  0  0  0  0  0  0  0  0  0
    5.9528   -2.7183    0.7373 O   0  0  0  0  0  0  0  0  0  0  0  0
   -3.0641    0.4353    0.1924 C   0  0  0  0  0  0  0  0  0  0  0  0
   -4.2695    0.7698   -0.4377 C   0  0  0  0  0  0  0  0  0  0  0  0
   -6.2013    0.9658   -2.5049 H   0  0  0  0  0  0  0  0  0  0  0  0
   -7.4975    2.1259   -2.1861 H   0  0  0  0  0  0  0  0  0  0  0  0
   -7.0513    0.9875   -0.9080 H   0  0  0  0  0  0  0  0  0  0  0  0
   -3.9670    4.1508   -0.4030 H   0  0  0  0  0  0  0  0  0  0  0  0
   -1.8474    3.5813    0.7046 H   0  0  0  0  0  0  0  0  0  0  0  0
    1.3613    2.7351    2.8398 H   0  0  0  0  0  0  0  0  0  0  0  0
    0.8460    1.0872    3.1643 H   0  0  0  0  0  0  0  0  0  0  0  0
    1.2287   -0.4904    1.3574 H   0  0  0  0  0  0  0  0  0  0  0  0
    4.0446   -0.2096    0.4111 H   0  0  0  0  0  0  0  0  0  0  0  0
    2.7057   -0.3591   -0.7253 H   0  0  0  0  0  0  0  0  0  0  0  0
    2.1128   -2.6106    0.3288 H   0  0  0  0  0  0  0  0  0  0  0  0
    3.4732   -2.4180    1.4219 H   0  0  0  0  0  0  0  0  0  0  0  0
    2.2035   -3.2317   -3.1122 H   0  0  0  0  0  0  0  0  0  0  0  0
    4.4848   -3.9647   -3.6143 H   0  0  0  0  0  0  0  0  0  0  0  0
   -2.8220   -0.6149    0.3505 H   0  0  0  0  0  0  0  0  0  0  0  0
   -4.9253   -0.0390   -0.7452 H   0  0  0  0  0  0  0  0  0  0  0  0
  1  2  1  0
  2  3  1  0
  3  4  2  0
  4  5  1  0
  5  6  2  0
  6  7  1  0
  7  8  2  0
  7  9  1  0
  9 10  1  0
 10 11  1  0
 11 12  2  0
 11 13  1  0
 13 14  1  0
 14 15  1  0
 15 16  1  0
 16 17  1  0
 17 18  1  0
 17 19  2  0
 19 20  1  0
 20 21  1  0
 21 22  2  0
  6 23  1  0
 23 24  2  0
 24  3  1  0
 21 16  1  0
  1 25  1  0
  1 26  1  0
  1 27  1  0
  4 28  1  0
  5 29  1  0
 10 30  1  0
 10 31  1  0
 13 32  1  0
 14 33  1  0
 14 34  1  0
 15 35  1  0
 15 36  1  0
 18 37  1  0
 19 38  1  0
 23 39  1  0
 24 40  1  0
M  END
$$$$
