
     RDKit          3D

 68 69  0  0  0  0  0  0  0  0999 V2000
    0.4093   -2.0286   -4.2046 C   0  0  0  0  0  0  0  0  0  0  0  0
    0.4267   -0.7977   -3.4944 O   0  0  0  0  0  0  0  0  0  0  0  0
   -0.8736   -0.2152   -3.4128 C   0  0  0  0  0  0  0  0  0  0  0  0
   -0.8753    0.9052   -2.3633 C   0  0  0  0  0  0  0  0  0  0  0  0
   -0.7979    0.3996   -0.9822 N   0  0  0  0  0  0  0  0  0  0  0  0
    0.3979    0.2031   -0.2979 C   0  0  0  0  0  0  0  0  0  0  0  0
    0.4546   -0.4246    0.7611 O   0  0  0  0  0  0  0  0  0  0  0  0
    1.6481    0.8456   -0.8735 C   0  0  0  0  0  0  0  0  0  0  0  0
    2.8771    0.5280   -0.0276 C   0  0  0  0  0  0  0  0  0  0  0  0
    4.1116    1.2493   -0.5301 C   0  0  0  0  0  0  0  0  0  0  0  0
    4.0693    2.0939   -1.4191 O   0  0  0  0  0  0  0  0  0  0  0  0
    5.2427    0.8520    0.1472 N   0  0  0  0  0  0  0  0  0  0  0  0
    6.5132    1.3354   -0.0716 C   0  0  0  0  0  0  0  0  0  0  0  0
    6.9572    2.3118   -0.9892 C   0  0  0  0  0  0  0  0  0  0  0  0
    8.3091    2.4013   -0.7724 C   0  0  0  0  0  0  0  0  0  0  0  0
    9.3948    3.2034   -1.3603 C   0  0  0  0  0  0  0  0  0  0  0  0
    8.6610    1.5271    0.2068 O   0  0  0  0  0  0  0  0  0  0  0  0
    7.5342    0.8613    0.6516 N   0  0  0  0  0  0  0  0  0  0  0  0
   -2.0417   -0.1315   -0.3879 C   0  0  0  0  0  0  0  0  0  0  0  0
   -2.0672   -1.6859   -0.2246 C   0  0  0  0  0  0  0  0  0  0  0  0
   -1.3549   -2.4253   -0.9054 O   0  0  0  0  0  0  0  0  0  0  0  0
   -3.0525   -2.1828    0.6161 N   0  0  0  0  0  0  0  0  0  0  0  0
   -3.2293   -3.6040    0.9506 C   0  0  0  0  0  0  0  0  0  0  0  0
   -4.4072   -3.7148    1.9371 C   0  0  0  0  0  0  0  0  0  0  0  0
   -1.9712   -4.1662    1.6308 C   0  0  0  0  0  0  0  0  0  0  0  0
   -3.5739   -4.4314   -0.2981 C   0  0  0  0  0  0  0  0  0  0  0  0
   -2.5096    0.7080    0.8035 C   0  0  0  0  0  0  0  0  0  0  0  0
   -3.3812    1.7899    0.5872 C   0  0  0  0  0  0  0  0  0  0  0  0
   -3.8328    2.5816    1.6507 C   0  0  0  0  0  0  0  0  0  0  0  0
   -3.4126    2.3130    2.9515 C   0  0  0  0  0  0  0  0  0  0  0  0
   -3.7754    3.0023    4.0747 O   0  0  0  0  0  0  0  0  0  0  0  0
   -4.6736    4.0907    3.9005 C   0  0  0  0  0  0  0  0  0  0  0  0
   -2.5342    1.2528    3.1749 C   0  0  0  0  0  0  0  0  0  0  0  0
   -2.0824    0.4614    2.1154 C   0  0  0  0  0  0  0  0  0  0  0  0
   -0.2003   -2.7670   -3.6750 H   0  0  0  0  0  0  0  0  0  0  0  0
    0.0259   -1.8798   -5.2187 H   0  0  0  0  0  0  0  0  0  0  0  0
    1.4338   -2.4050   -4.2677 H   0  0  0  0  0  0  0  0  0  0  0  0
   -1.6233   -0.9748   -3.1679 H   0  0  0  0  0  0  0  0  0  0  0  0
   -1.1179    0.2082   -4.3933 H   0  0  0  0  0  0  0  0  0  0  0  0
   -0.0421    1.5858   -2.5558 H   0  0  0  0  0  0  0  0  0  0  0  0
   -1.7937    1.4970   -2.4493 H   0  0  0  0  0  0  0  0  0  0  0  0
    1.4892    1.9297   -0.9033 H   0  0  0  0  0  0  0  0  0  0  0  0
    1.8220    0.4880   -1.8908 H   0  0  0  0  0  0  0  0  0  0  0  0
    2.7128    0.8320    1.0140 H   0  0  0  0  0  0  0  0  0  0  0  0
    3.0676   -0.5526   -0.0385 H   0  0  0  0  0  0  0  0  0  0  0  0
    5.1876    0.1456    0.8689 H   0  0  0  0  0  0  0  0  0  0  0  0
    6.3780    2.8750   -1.7054 H   0  0  0  0  0  0  0  0  0  0  0  0
   10.0220    2.5816   -2.0066 H   0  0  0  0  0  0  0  0  0  0  0  0
   10.0264    3.6343   -0.5773 H   0  0  0  0  0  0  0  0  0  0  0  0
    8.9928    4.0250   -1.9615 H   0  0  0  0  0  0  0  0  0  0  0  0
   -2.8225    0.0063   -1.1525 H   0  0  0  0  0  0  0  0  0  0  0  0
   -3.5186   -1.5165    1.2210 H   0  0  0  0  0  0  0  0  0  0  0  0
   -5.3264   -3.3061    1.5026 H   0  0  0  0  0  0  0  0  0  0  0  0
   -4.2043   -3.1532    2.8560 H   0  0  0  0  0  0  0  0  0  0  0  0
   -4.6003   -4.7564    2.2168 H   0  0  0  0  0  0  0  0  0  0  0  0
   -1.6964   -3.5666    2.5059 H   0  0  0  0  0  0  0  0  0  0  0  0
   -1.1098   -4.1708    0.9560 H   0  0  0  0  0  0  0  0  0  0  0  0
   -2.1294   -5.1978    1.9652 H   0  0  0  0  0  0  0  0  0  0  0  0
   -2.7500   -4.4596   -1.0166 H   0  0  0  0  0  0  0  0  0  0  0  0
   -3.8059   -5.4692   -0.0326 H   0  0  0  0  0  0  0  0  0  0  0  0
   -4.4449   -4.0147   -0.8161 H   0  0  0  0  0  0  0  0  0  0  0  0
   -3.7185    2.0314   -0.4190 H   0  0  0  0  0  0  0  0  0  0  0  0
   -4.5072    3.4010    1.4268 H   0  0  0  0  0  0  0  0  0  0  0  0
   -5.6348    3.7469    3.5049 H   0  0  0  0  0  0  0  0  0  0  0  0
   -4.2375    4.8671    3.2636 H   0  0  0  0  0  0  0  0  0  0  0  0
   -4.8580    4.5326    4.8846 H   0  0  0  0  0  0  0  0  0  0  0  0
   -2.1890    1.0430    4.1849 H   0  0  0  0  0  0  0  0  0  0  0  0
   -1.3877   -0.3490    2.3323 H   0  0  0  0  0  0  0  0  0  0  0  0
  1  2  1  0
  2  3  1  0
  3  4  1  0
  4  5  1  0
  5  6  1  0
  6  7  2  0
  6  8  1  0
  8  9  1  0
  9 10  1  0
 10 11  2  0
 10 12  1  0
 12 13  1  0
 13 14  1  0
 14 15  2  0
 15 16  1  0
 15 17  1  0
 17 18  1  0
  5 19  1  0
 19 20  1  0
 20 21  2  0
 20 22  1  0
 22 23  1  0
 23 24  1  0
 23 25  1  0
 23 26  1  0
 19 27  1  0
 27 28  2  0
 28 29  1  0
 29 30  2  0
 30 31  1  0
 31 32  1  0
 30 33  1  0
 33 34  2  0
 18 13  2  0
 34 27  1  0
  1 35  1  0
  1 36  1  0
  1 37  1  0
  3 38  1  0
  3 39  1  0
  4 40  1  0
  4 41  1  0
  8 42  1  0
  8 43  1  0
  9 44  1  0
  9 45  1  0
 12 46  1  0
 14 47  1  0
 16 48  1  0
 16 49  1  0
 16 50  1  0
 19 51  1  0
 22 52  1  0
 24 53  1  0
 24 54  1  0
 24 55  1  0
 25 56  1  0
 25 57  1  0
 25 58  1  0
 26 59  1  0
 26 60  1  0
 26 61  1  0
 28 62  1  0
 29 63  1  0
 32 64  1  0
 32 65  1  0
 32 66  1  0
 33 67  1  0
 34 68  1  0
M  END
$$$$
