
     RDKit          3D

 64 67  0  0  0  0  0  0  0  0999 V2000
    8.0693    1.1751   -0.7358 C   0  0  0  0  0  0  0  0  0  0  0  0
    7.9204    0.3939    0.4434 O   0  0  0  0  0  0  0  0  0  0  0  0
    6.6497    0.0122    0.7774 C   0  0  0  0  0  0  0  0  0  0  0  0
    5.4846    0.3489    0.0891 C   0  0  0  0  0  0  0  0  0  0  0  0
    4.2403   -0.1112    0.5370 C   0  0  0  0  0  0  0  0  0  0  0  0
    4.1508   -0.9085    1.6777 C   0  0  0  0  0  0  0  0  0  0  0  0
    2.9366   -1.4075    2.1990 N   0  0  0  0  0  0  0  0  0  0  0  0
    1.6455   -1.2011    1.7350 C   0  0  0  0  0  0  0  0  0  0  0  0
    1.3408   -0.5244    0.7548 O   0  0  0  0  0  0  0  0  0  0  0  0
    0.6220   -1.9337    2.6015 C   0  0  0  0  0  0  0  0  0  0  0  0
   -1.0274   -1.1827    2.4987 S   0  0  0  0  0  0  0  0  0  0  0  0
   -1.5392   -1.8121    0.9724 C   0  0  0  0  0  0  0  0  0  0  0  0
   -1.3113   -3.0263    0.5303 N   0  0  0  0  0  0  0  0  0  0  0  0
   -1.8636   -3.1214   -0.7232 N   0  0  0  0  0  0  0  0  0  0  0  0
   -2.4187   -1.9599   -1.0204 C   0  0  0  0  0  0  0  0  0  0  0  0
   -3.1128   -1.6232   -2.3000 C   0  0  0  0  0  0  0  0  0  0  0  0
   -4.6054   -1.7814   -2.2161 C   0  0  0  0  0  0  0  0  0  0  0  0
   -5.3354   -2.8663   -1.7511 C   0  0  0  0  0  0  0  0  0  0  0  0
   -6.7079   -2.5753   -1.9129 C   0  0  0  0  0  0  0  0  0  0  0  0
   -6.7920   -1.3202   -2.4706 C   0  0  0  0  0  0  0  0  0  0  0  0
   -5.5170   -0.8455   -2.6594 N   0  0  0  0  0  0  0  0  0  0  0  0
   -5.2151    0.4353   -3.2626 C   0  0  0  0  0  0  0  0  0  0  0  0
   -2.2303   -1.0968    0.0367 N   0  0  0  0  0  0  0  0  0  0  0  0
   -2.6547    0.2851    0.1104 C   0  0  0  0  0  0  0  0  0  0  0  0
   -1.5809    1.2473   -0.4012 C   0  0  0  0  0  0  0  0  0  0  0  0
   -2.1109    2.6549   -0.5191 C   0  0  0  0  0  0  0  0  0  0  0  0
   -2.5850    3.1370   -1.7479 C   0  0  0  0  0  0  0  0  0  0  0  0
   -3.0969    4.4309   -1.8487 C   0  0  0  0  0  0  0  0  0  0  0  0
   -3.1357    5.2554   -0.7249 C   0  0  0  0  0  0  0  0  0  0  0  0
   -2.6643    4.7863    0.5003 C   0  0  0  0  0  0  0  0  0  0  0  0
   -2.1569    3.4910    0.6047 C   0  0  0  0  0  0  0  0  0  0  0  0
    5.3267   -1.2449    2.3796 C   0  0  0  0  0  0  0  0  0  0  0  0
    5.1496   -2.0425    3.4893 O   0  0  0  0  0  0  0  0  0  0  0  0
    6.2371   -2.0928    4.4078 C   0  0  0  0  0  0  0  0  0  0  0  0
    6.5654   -0.7871    1.9214 C   0  0  0  0  0  0  0  0  0  0  0  0
    7.5399    2.1295   -0.6459 H   0  0  0  0  0  0  0  0  0  0  0  0
    9.1334    1.3955   -0.8583 H   0  0  0  0  0  0  0  0  0  0  0  0
    7.7411    0.6180   -1.6197 H   0  0  0  0  0  0  0  0  0  0  0  0
    5.5033    0.9657   -0.8049 H   0  0  0  0  0  0  0  0  0  0  0  0
    3.3585    0.1750   -0.0277 H   0  0  0  0  0  0  0  0  0  0  0  0
    3.0691   -1.9962    3.0171 H   0  0  0  0  0  0  0  0  0  0  0  0
    0.6042   -2.9908    2.3191 H   0  0  0  0  0  0  0  0  0  0  0  0
    0.9333   -1.8713    3.6493 H   0  0  0  0  0  0  0  0  0  0  0  0
   -2.7485   -2.3000   -3.0823 H   0  0  0  0  0  0  0  0  0  0  0  0
   -2.8277   -0.6162   -2.6185 H   0  0  0  0  0  0  0  0  0  0  0  0
   -4.9090   -3.7791   -1.3458 H   0  0  0  0  0  0  0  0  0  0  0  0
   -7.5417   -3.2227   -1.6640 H   0  0  0  0  0  0  0  0  0  0  0  0
   -7.6553   -0.7354   -2.7575 H   0  0  0  0  0  0  0  0  0  0  0  0
   -4.8531    1.0999   -2.4737 H   0  0  0  0  0  0  0  0  0  0  0  0
   -4.4592    0.2924   -4.0393 H   0  0  0  0  0  0  0  0  0  0  0  0
   -6.1230    0.8492   -3.7122 H   0  0  0  0  0  0  0  0  0  0  0  0
   -3.5795    0.3821   -0.4681 H   0  0  0  0  0  0  0  0  0  0  0  0
   -2.9319    0.5121    1.1462 H   0  0  0  0  0  0  0  0  0  0  0  0
   -1.2025    0.9190   -1.3780 H   0  0  0  0  0  0  0  0  0  0  0  0
   -0.7086    1.2430    0.2636 H   0  0  0  0  0  0  0  0  0  0  0  0
   -2.5534    2.5113   -2.6373 H   0  0  0  0  0  0  0  0  0  0  0  0
   -3.4607    4.8004   -2.8044 H   0  0  0  0  0  0  0  0  0  0  0  0
   -3.5286    6.2652   -0.8060 H   0  0  0  0  0  0  0  0  0  0  0  0
   -2.6866    5.4315    1.3746 H   0  0  0  0  0  0  0  0  0  0  0  0
   -1.7887    3.1411    1.5679 H   0  0  0  0  0  0  0  0  0  0  0  0
    6.5167   -1.0870    4.7364 H   0  0  0  0  0  0  0  0  0  0  0  0
    7.0891   -2.6314    3.9801 H   0  0  0  0  0  0  0  0  0  0  0  0
    5.9022   -2.6497    5.2881 H   0  0  0  0  0  0  0  0  0  0  0  0
    7.4897   -1.0402    2.4286 H   0  0  0  0  0  0  0  0  0  0  0  0
  1  2  1  0
  2  3  1  0
  3  4  2  0
  4  5  1  0
  5  6  2  0
  6  7  1  0
  7  8  1  0
  8  9  2  0
  8 10  1  0
 10 11  1  0
 11 12  1  0
 12 13  2  0
 13 14  1  0
 14 15  2  0
 15 16  1  0
 16 17  1  0
 17 18  2  0
 18 19  1  0
 19 20  2  0
 20 21  1  0
 21 22  1  0
 15 23  1  0
 23 24  1  0
 24 25  1  0
 25 26  1  0
 26 27  2  0
 27 28  1  0
 28 29  2  0
 29 30  1  0
 30 31  2  0
  6 32  1  0
 32 33  1  0
 33 34  1  0
 32 35  2  0
 35  3  1  0
 23 12  1  0
 31 26  1  0
 21 17  1  0
  1 36  1  0
  1 37  1  0
  1 38  1  0
  4 39  1  0
  5 40  1  0
  7 41  1  0
 10 42  1  0
 10 43  1  0
 16 44  1  0
 16 45  1  0
 18 46  1  0
 19 47  1  0
 20 48  1  0
 22 49  1  0
 22 50  1  0
 22 51  1  0
 24 52  1  0
 24 53  1  0
 25 54  1  0
 25 55  1  0
 27 56  1  0
 28 57  1  0
 29 58  1  0
 30 59  1  0
 31 60  1  0
 34 61  1  0
 34 62  1  0
 34 63  1  0
 35 64  1  0
M  END
$$$$
