
     RDKit          3D

 57 60  0  0  0  0  0  0  0  0999 V2000
   -1.7449    2.4187   -1.6211 C   0  0  0  0  0  0  0  0  0  0  0  0
   -1.7789    2.0665   -0.1378 C   0  0  0  0  0  0  0  0  0  0  0  0
   -0.5949    1.2251    0.3723 C   0  0  0  0  0  0  0  0  0  0  0  0
   -0.3296   -0.3502   -0.5215 S   0  0  0  0  0  0  0  0  0  0  0  0
   -1.8247   -1.2007   -0.1647 C   0  0  0  0  0  0  0  0  0  0  0  0
   -2.3166   -1.0056    1.0231 N   0  0  0  0  0  0  0  0  0  0  0  0
   -3.5048   -1.6817    1.2840 C   0  0  0  0  0  0  0  0  0  0  0  0
   -4.1942   -1.6201    2.5148 C   0  0  0  0  0  0  0  0  0  0  0  0
   -5.3431   -2.3866    2.4727 C   0  0  0  0  0  0  0  0  0  0  0  0
   -5.5527   -3.1539    0.9458 S   0  0  0  0  0  0  0  0  0  0  0  0
   -4.1179   -2.4677    0.3572 C   0  0  0  0  0  0  0  0  0  0  0  0
   -3.5862   -2.6750   -0.9562 C   0  0  0  0  0  0  0  0  0  0  0  0
   -4.1396   -3.3578   -1.8158 O   0  0  0  0  0  0  0  0  0  0  0  0
   -2.3685   -2.0113   -1.1670 N   0  0  0  0  0  0  0  0  0  0  0  0
   -1.7421   -2.2263   -2.4777 C   0  0  0  0  0  0  0  0  0  0  0  0
   -0.6987   -3.3286   -2.4605 C   0  0  0  0  0  0  0  0  0  0  0  0
    0.6565   -3.0329   -2.6753 C   0  0  0  0  0  0  0  0  0  0  0  0
    1.6224   -4.0445   -2.6554 C   0  0  0  0  0  0  0  0  0  0  0  0
    1.2448   -5.3715   -2.4277 C   0  0  0  0  0  0  0  0  0  0  0  0
    2.2312   -6.4780   -2.3949 C   0  0  0  0  0  0  0  0  0  0  0  0
    1.9847   -7.6470   -2.1616 O   0  0  0  0  0  0  0  0  0  0  0  0
    3.4840   -6.0698   -2.6624 O   0  0  0  0  0  0  0  0  0  0  0  0
   -0.1049   -5.6784   -2.2260 C   0  0  0  0  0  0  0  0  0  0  0  0
   -1.0685   -4.6657   -2.2467 C   0  0  0  0  0  0  0  0  0  0  0  0
    0.6952    2.0675    0.3420 C   0  0  0  0  0  0  0  0  0  0  0  0
    1.4540    2.0753   -0.6232 O   0  0  0  0  0  0  0  0  0  0  0  0
    0.8494    2.8351    1.4927 N   0  0  0  0  0  0  0  0  0  0  0  0
    1.8952    3.7344    1.7944 C   0  0  0  0  0  0  0  0  0  0  0  0
    2.9674    4.0037    0.9451 C   0  0  0  0  0  0  0  0  0  0  0  0
    3.9660    4.9106    1.3218 C   0  0  0  0  0  0  0  0  0  0  0  0
    3.9140    5.5689    2.5571 C   0  0  0  0  0  0  0  0  0  0  0  0
    5.0025    6.5341    2.9311 C   0  0  0  0  0  0  0  0  0  0  0  0
    2.8353    5.2959    3.4075 C   0  0  0  0  0  0  0  0  0  0  0  0
    2.6868    6.0597    4.9511 Cl  0  0  0  0  0  0  0  0  0  0  0  0
    1.8375    4.3890    3.0300 C   0  0  0  0  0  0  0  0  0  0  0  0
   -2.5982    3.0592   -1.8684 H   0  0  0  0  0  0  0  0  0  0  0  0
   -0.8347    2.9655   -1.8837 H   0  0  0  0  0  0  0  0  0  0  0  0
   -1.8117    1.5282   -2.2526 H   0  0  0  0  0  0  0  0  0  0  0  0
   -1.8210    3.0047    0.4305 H   0  0  0  0  0  0  0  0  0  0  0  0
   -2.7220    1.5486    0.0727 H   0  0  0  0  0  0  0  0  0  0  0  0
   -0.7770    0.9653    1.4219 H   0  0  0  0  0  0  0  0  0  0  0  0
   -3.8770   -1.0557    3.3822 H   0  0  0  0  0  0  0  0  0  0  0  0
   -6.0716   -2.5375    3.2580 H   0  0  0  0  0  0  0  0  0  0  0  0
   -1.3072   -1.2890   -2.8409 H   0  0  0  0  0  0  0  0  0  0  0  0
   -2.4986   -2.4894   -3.2274 H   0  0  0  0  0  0  0  0  0  0  0  0
    0.9798   -2.0090   -2.8575 H   0  0  0  0  0  0  0  0  0  0  0  0
    2.6658   -3.7834   -2.8170 H   0  0  0  0  0  0  0  0  0  0  0  0
    4.0138   -6.8927   -2.6088 H   0  0  0  0  0  0  0  0  0  0  0  0
   -0.4140   -6.7083   -2.0557 H   0  0  0  0  0  0  0  0  0  0  0  0
   -2.1128   -4.9386   -2.1033 H   0  0  0  0  0  0  0  0  0  0  0  0
    0.1423    2.7319    2.2105 H   0  0  0  0  0  0  0  0  0  0  0  0
    3.0656    3.5249   -0.0246 H   0  0  0  0  0  0  0  0  0  0  0  0
    4.7886    5.0944    0.6326 H   0  0  0  0  0  0  0  0  0  0  0  0
    5.5194    6.1956    3.8353 H   0  0  0  0  0  0  0  0  0  0  0  0
    5.7525    6.6195    2.1368 H   0  0  0  0  0  0  0  0  0  0  0  0
    4.5869    7.5337    3.0971 H   0  0  0  0  0  0  0  0  0  0  0  0
    1.0151    4.2008    3.7152 H   0  0  0  0  0  0  0  0  0  0  0  0
  1  2  1  0
  2  3  1  0
  3  4  1  0
  4  5  1  0
  5  6  2  0
  6  7  1  0
  7  8  1  0
  8  9  2  0
  9 10  1  0
 10 11  1  0
 11 12  1  0
 12 13  2  0
 12 14  1  0
 14 15  1  0
 15 16  1  0
 16 17  2  0
 17 18  1  0
 18 19  2  0
 19 20  1  0
 20 21  2  0
 20 22  1  0
 19 23  1  0
 23 24  2  0
  3 25  1  0
 25 26  2  0
 25 27  1  0
 27 28  1  0
 28 29  2  0
 29 30  1  0
 30 31  2  0
 31 32  1  0
 31 33  1  0
 33 34  1  0
 33 35  2  0
 14  5  1  0
 24 16  1  0
 35 28  1  0
 11  7  2  0
  1 36  1  0
  1 37  1  0
  1 38  1  0
  2 39  1  0
  2 40  1  0
  3 41  1  0
  8 42  1  0
  9 43  1  0
 15 44  1  0
 15 45  1  0
 17 46  1  0
 18 47  1  0
 22 48  1  0
 23 49  1  0
 24 50  1  0
 27 51  1  0
 29 52  1  0
 30 53  1  0
 32 54  1  0
 32 55  1  0
 32 56  1  0
 35 57  1  0
M  END
$$$$
