
     RDKit          3D

 43 46  0  0  0  0  0  0  0  0999 V2000
    6.4052    2.0656    0.8286 C   0  0  0  0  0  0  0  0  0  0  0  0
    5.0394    1.5279    0.5134 C   0  0  0  0  0  0  0  0  0  0  0  0
    4.5725    0.3674    1.1377 C   0  0  0  0  0  0  0  0  0  0  0  0
    3.2887   -0.1191    0.8701 C   0  0  0  0  0  0  0  0  0  0  0  0
    2.4535    0.5561   -0.0202 C   0  0  0  0  0  0  0  0  0  0  0  0
    1.0091    0.0215   -0.3292 C   0  0  0  0  0  0  0  0  0  0  0  0
    0.0559    0.6379   -1.1319 C   0  0  0  0  0  0  0  0  0  0  0  0
   -1.1121   -0.1277   -1.1226 N   0  0  0  0  0  4  0  0  0  0  0  0
   -2.3538    0.1634   -1.8345 C   0  0  0  0  0  0  0  0  0  0  0  0
   -3.4795    0.3173   -0.8418 C   0  0  0  0  0  0  0  0  0  0  0  0
   -4.6602   -0.4257   -0.9821 C   0  0  0  0  0  0  0  0  0  0  0  0
   -5.7034   -0.2812   -0.0616 C   0  0  0  0  0  0  0  0  0  0  0  0
   -5.5861    0.6099    1.0088 C   0  0  0  0  0  0  0  0  0  0  0  0
   -6.9077    0.7235    2.1117 Cl  0  0  0  0  0  0  0  0  0  0  0  0
   -4.4203    1.3658    1.1523 C   0  0  0  0  0  0  0  0  0  0  0  0
   -4.1889    2.4840    2.4468 Cl  0  0  0  0  0  0  0  0  0  0  0  0
   -3.3779    1.2234    0.2276 C   0  0  0  0  0  0  0  0  0  0  0  0
   -0.8770   -1.1936   -0.3636 C   0  0  0  0  0  0  0  0  0  0  0  0
    0.3677   -1.1271    0.0984 N   0  0  0  0  0  0  0  0  0  0  0  0
    0.7020   -2.2777    0.9263 C   0  0  0  0  0  0  0  0  0  0  0  0
   -0.4613   -3.2708    0.6528 C   0  0  0  0  0  0  0  0  0  0  0  0
   -1.6030   -2.4044    0.0852 C   0  0  0  0  0  0  0  0  0  0  0  0
    2.9084    1.7297   -0.6323 C   0  0  0  0  0  0  0  0  0  0  0  0
    4.1926    2.2125   -0.3627 C   0  0  0  0  0  0  0  0  0  0  0  0
    6.3504    2.7480    1.6823 H   0  0  0  0  0  0  0  0  0  0  0  0
    6.8204    2.6040   -0.0298 H   0  0  0  0  0  0  0  0  0  0  0  0
    7.0988    1.2528    1.0683 H   0  0  0  0  0  0  0  0  0  0  0  0
    5.2101   -0.1648    1.8423 H   0  0  0  0  0  0  0  0  0  0  0  0
    2.9757   -1.0155    1.3890 H   0  0  0  0  0  0  0  0  0  0  0  0
    0.0546    1.5499   -1.7047 H   0  0  0  0  0  0  0  0  0  0  0  0
   -2.5387   -0.6634   -2.5294 H   0  0  0  0  0  0  0  0  0  0  0  0
   -2.2449    1.0834   -2.4188 H   0  0  0  0  0  0  0  0  0  0  0  0
   -4.7911   -1.1230   -1.8093 H   0  0  0  0  0  0  0  0  0  0  0  0
   -6.6141   -0.8656   -0.1859 H   0  0  0  0  0  0  0  0  0  0  0  0
   -2.4793    1.8261    0.3492 H   0  0  0  0  0  0  0  0  0  0  0  0
    1.6616   -2.7084    0.6317 H   0  0  0  0  0  0  0  0  0  0  0  0
    0.7169   -1.9654    1.9745 H   0  0  0  0  0  0  0  0  0  0  0  0
   -0.1428   -3.9892   -0.1119 H   0  0  0  0  0  0  0  0  0  0  0  0
   -0.7553   -3.8349    1.5419 H   0  0  0  0  0  0  0  0  0  0  0  0
   -2.3048   -2.0829    0.8575 H   0  0  0  0  0  0  0  0  0  0  0  0
   -2.1084   -2.8552   -0.7696 H   0  0  0  0  0  0  0  0  0  0  0  0
    2.2952    2.2959   -1.3267 H   0  0  0  0  0  0  0  0  0  0  0  0
    4.5319    3.1296   -0.8426 H   0  0  0  0  0  0  0  0  0  0  0  0
  1  2  1  0
  2  3  2  0
  3  4  1  0
  4  5  2  0
  5  6  1  0
  6  7  2  0
  7  8  1  0
  8  9  1  0
  9 10  1  0
 10 11  2  0
 11 12  1  0
 12 13  2  0
 13 14  1  0
 13 15  1  0
 15 16  1  0
 15 17  2  0
  8 18  2  0
 18 19  1  0
 19 20  1  0
 20 21  1  0
 21 22  1  0
  5 23  1  0
 23 24  2  0
 24  2  1  0
 19  6  1  0
 17 10  1  0
 22 18  1  0
  1 25  1  0
  1 26  1  0
  1 27  1  0
  3 28  1  0
  4 29  1  0
  7 30  1  0
  9 31  1  0
  9 32  1  0
 11 33  1  0
 12 34  1  0
 17 35  1  0
 20 36  1  0
 20 37  1  0
 21 38  1  0
 21 39  1  0
 22 40  1  0
 22 41  1  0
 23 42  1  0
 24 43  1  0
M  CHG  1   8   1
M  END
$$$$
