
     RDKit          3D

 67 72  0  0  0  0  0  0  0  0999 V2000
    2.5481   -2.1176    1.2312 O   0  0  0  0  0  0  0  0  0  0  0  0
    2.5284   -1.0804    0.5611 C   0  0  0  0  0  0  0  0  0  0  0  0
    3.7267   -0.1112    0.5739 C   0  0  0  0  0  0  0  0  0  0  0  0
    3.5312    0.9910    1.6343 C   0  0  0  0  0  0  0  0  0  0  0  0
    4.0438    0.5837    2.9989 C   0  0  0  0  0  0  0  0  0  0  0  0
    5.3229    0.9748    3.4219 C   0  0  0  0  0  0  0  0  0  0  0  0
    5.8119    0.5720    4.6674 C   0  0  0  0  0  0  0  0  0  0  0  0
    5.0318   -0.2289    5.4975 C   0  0  0  0  0  0  0  0  0  0  0  0
    3.7610   -0.6261    5.0858 C   0  0  0  0  0  0  0  0  0  0  0  0
    3.2673   -0.2179    3.8440 C   0  0  0  0  0  0  0  0  0  0  0  0
    3.9187    0.4589   -0.7634 N   0  0  0  0  0  0  0  0  0  0  0  0
    2.7715    1.0056   -1.3314 C   0  0  0  0  0  0  0  0  0  0  0  0
    3.0000    2.0182   -2.1766 N   0  0  0  0  0  0  0  0  0  0  0  0
    1.9223    2.5274   -2.7699 C   0  0  0  0  0  0  0  0  0  0  0  0
    0.6564    2.1589   -2.5513 N   0  0  0  0  0  0  0  0  0  0  0  0
    0.4376    1.1615   -1.6677 C   0  0  0  0  0  0  0  0  0  0  0  0
   -0.9077    0.9021   -1.3233 N   0  0  0  0  0  0  0  0  0  0  0  0
   -1.8747    1.2939   -2.3838 C   0  0  0  0  0  0  0  0  0  0  0  0
   -3.3044    0.8756   -1.9694 C   0  0  0  0  0  0  0  0  0  0  0  0
   -3.6750    1.5016   -0.6762 N   0  0  0  0  0  0  0  0  0  0  0  0
   -5.0098    1.3769   -0.2492 C   0  0  0  0  0  0  0  0  0  0  0  0
   -5.9088    0.4299   -0.7629 C   0  0  0  0  0  0  0  0  0  0  0  0
   -7.2249    0.3416   -0.2901 C   0  0  0  0  0  0  0  0  0  0  0  0
   -7.6752    1.2100    0.7005 C   0  0  0  0  0  0  0  0  0  0  0  0
   -6.8126    2.1732    1.2106 C   0  0  0  0  0  0  0  0  0  0  0  0
   -5.4978    2.2533    0.7365 C   0  0  0  0  0  0  0  0  0  0  0  0
   -2.6907    1.2118    0.4011 C   0  0  0  0  0  0  0  0  0  0  0  0
   -1.2516    1.5784   -0.0415 C   0  0  0  0  0  0  0  0  0  0  0  0
    1.5017    0.4822   -1.0515 C   0  0  0  0  0  0  0  0  0  0  0  0
    1.4065   -0.6682   -0.1807 N   0  0  0  0  0  0  0  0  0  0  0  0
    0.3047   -1.6208   -0.2872 C   0  0  0  0  0  0  0  0  0  0  0  0
    0.4893   -2.6253   -1.4099 C   0  0  0  0  0  0  0  0  0  0  0  0
    1.0648   -3.8845   -1.1525 C   0  0  0  0  0  0  0  0  0  0  0  0
    1.2255   -4.8231   -2.1757 C   0  0  0  0  0  0  0  0  0  0  0  0
    0.8177   -4.5040   -3.4694 C   0  0  0  0  0  0  0  0  0  0  0  0
    1.0291   -5.7703   -4.8599 Br  0  0  0  0  0  0  0  0  0  0  0  0
    0.2574   -3.2549   -3.7488 C   0  0  0  0  0  0  0  0  0  0  0  0
    0.0936   -2.3212   -2.7208 C   0  0  0  0  0  0  0  0  0  0  0  0
    4.6241   -0.7029    0.7957 H   0  0  0  0  0  0  0  0  0  0  0  0
    2.4742    1.2761    1.7287 H   0  0  0  0  0  0  0  0  0  0  0  0
    4.0552    1.9076    1.3318 H   0  0  0  0  0  0  0  0  0  0  0  0
    5.9521    1.5934    2.7859 H   0  0  0  0  0  0  0  0  0  0  0  0
    6.8015    0.8844    4.9921 H   0  0  0  0  0  0  0  0  0  0  0  0
    5.4195   -0.5564    6.4604 H   0  0  0  0  0  0  0  0  0  0  0  0
    3.1550   -1.2590    5.7288 H   0  0  0  0  0  0  0  0  0  0  0  0
    2.2748   -0.5430    3.5382 H   0  0  0  0  0  0  0  0  0  0  0  0
    4.7095    1.0771   -0.9091 H   0  0  0  0  0  0  0  0  0  0  0  0
    2.0847    3.3198   -3.4888 H   0  0  0  0  0  0  0  0  0  0  0  0
   -1.6220    0.7949   -3.3270 H   0  0  0  0  0  0  0  0  0  0  0  0
   -1.8593    2.3790   -2.5493 H   0  0  0  0  0  0  0  0  0  0  0  0
   -3.3456   -0.2184   -1.8876 H   0  0  0  0  0  0  0  0  0  0  0  0
   -3.9976    1.1981   -2.7558 H   0  0  0  0  0  0  0  0  0  0  0  0
   -5.6025   -0.2782   -1.5275 H   0  0  0  0  0  0  0  0  0  0  0  0
   -7.8930   -0.4133   -0.6968 H   0  0  0  0  0  0  0  0  0  0  0  0
   -8.6916    1.1358    1.0741 H   0  0  0  0  0  0  0  0  0  0  0  0
   -7.1569    2.8657    1.9740 H   0  0  0  0  0  0  0  0  0  0  0  0
   -4.8504    3.0341    1.1312 H   0  0  0  0  0  0  0  0  0  0  0  0
   -2.7350    0.1431    0.6549 H   0  0  0  0  0  0  0  0  0  0  0  0
   -2.9102    1.7813    1.3124 H   0  0  0  0  0  0  0  0  0  0  0  0
   -0.5612    1.2842    0.7593 H   0  0  0  0  0  0  0  0  0  0  0  0
   -1.1800    2.6686   -0.1624 H   0  0  0  0  0  0  0  0  0  0  0  0
    0.2296   -2.1727    0.6603 H   0  0  0  0  0  0  0  0  0  0  0  0
   -0.6702   -1.1432   -0.3693 H   0  0  0  0  0  0  0  0  0  0  0  0
    1.3954   -4.1408   -0.1469 H   0  0  0  0  0  0  0  0  0  0  0  0
    1.6661   -5.7932   -1.9480 H   0  0  0  0  0  0  0  0  0  0  0  0
   -0.0565   -2.9978   -4.7566 H   0  0  0  0  0  0  0  0  0  0  0  0
   -0.3463   -1.3525   -2.9542 H   0  0  0  0  0  0  0  0  0  0  0  0
  1  2  2  0
  2  3  1  0
  3  4  1  0
  4  5  1  0
  5  6  2  0
  6  7  1  0
  7  8  2  0
  8  9  1  0
  9 10  2  0
  3 11  1  0
 11 12  1  0
 12 13  2  0
 13 14  1  0
 14 15  2  0
 15 16  1  0
 16 17  1  0
 17 18  1  0
 18 19  1  0
 19 20  1  0
 20 21  1  0
 21 22  2  0
 22 23  1  0
 23 24  2  0
 24 25  1  0
 25 26  2  0
 20 27  1  0
 27 28  1  0
 16 29  2  0
 29 30  1  0
 30 31  1  0
 31 32  1  0
 32 33  2  0
 33 34  1  0
 34 35  2  0
 35 36  1  0
 35 37  1  0
 37 38  2  0
 30  2  1  0
 38 32  1  0
 10  5  1  0
 29 12  1  0
 28 17  1  0
 26 21  1  0
  3 39  1  0
  4 40  1  0
  4 41  1  0
  6 42  1  0
  7 43  1  0
  8 44  1  0
  9 45  1  0
 10 46  1  0
 11 47  1  0
 14 48  1  0
 18 49  1  0
 18 50  1  0
 19 51  1  0
 19 52  1  0
 22 53  1  0
 23 54  1  0
 24 55  1  0
 25 56  1  0
 26 57  1  0
 27 58  1  0
 27 59  1  0
 28 60  1  0
 28 61  1  0
 31 62  1  0
 31 63  1  0
 33 64  1  0
 34 65  1  0
 37 66  1  0
 38 67  1  0
M  END
$$$$
