
     RDKit          3D

 34 35  0  0  0  0  0  0  0  0999 V2000
   -3.0905    1.2586    1.5104 C   0  0  0  0  0  0  0  0  0  0  0  0
   -3.5408    0.1898    0.5505 C   0  0  0  0  0  0  0  0  0  0  0  0
   -4.8985   -0.1793    0.5564 C   0  0  0  0  0  0  0  0  0  0  0  0
   -5.3767   -1.1594   -0.3097 C   0  0  0  0  0  0  0  0  0  0  0  0
   -4.5012   -1.7916   -1.1830 C   0  0  0  0  0  0  0  0  0  0  0  0
   -3.1495   -1.4380   -1.1980 C   0  0  0  0  0  0  0  0  0  0  0  0
   -2.6552   -0.4360   -0.3550 C   0  0  0  0  0  0  0  0  0  0  0  0
   -1.2829   -0.0870   -0.3222 N   0  0  0  0  0  0  0  0  0  0  0  0
   -0.2911   -0.1837   -1.2906 C   0  0  0  0  0  0  0  0  0  0  0  0
   -0.4933   -0.3583   -2.9410 S   0  0  0  0  0  0  0  0  0  0  0  0
    0.9473   -0.0297   -0.6789 N   0  0  0  0  0  0  0  0  0  0  0  0
    2.2362   -0.1122   -1.3501 C   0  0  0  0  0  0  0  0  0  0  0  0
    3.3498    0.1884   -0.3820 C   0  0  0  0  0  0  0  0  0  0  0  0
    4.0508   -0.8506    0.2461 C   0  0  0  0  0  0  0  0  0  0  0  0
    5.0635   -0.5662    1.1637 C   0  0  0  0  0  0  0  0  0  0  0  0
    5.3797    0.7569    1.4672 C   0  0  0  0  0  0  0  0  0  0  0  0
    4.6826    1.7976    0.8562 C   0  0  0  0  0  0  0  0  0  0  0  0
    3.6697    1.5156   -0.0615 C   0  0  0  0  0  0  0  0  0  0  0  0
   -2.3812    0.8437    2.2338 H   0  0  0  0  0  0  0  0  0  0  0  0
   -2.6222    2.0861    0.9676 H   0  0  0  0  0  0  0  0  0  0  0  0
   -3.9312    1.6758    2.0751 H   0  0  0  0  0  0  0  0  0  0  0  0
   -5.5965    0.3001    1.2397 H   0  0  0  0  0  0  0  0  0  0  0  0
   -6.4279   -1.4343   -0.2967 H   0  0  0  0  0  0  0  0  0  0  0  0
   -4.8626   -2.5702   -1.8499 H   0  0  0  0  0  0  0  0  0  0  0  0
   -2.4951   -1.9962   -1.8591 H   0  0  0  0  0  0  0  0  0  0  0  0
   -1.0068    0.5019    0.4506 H   0  0  0  0  0  0  0  0  0  0  0  0
    0.9705   -0.2754    0.3017 H   0  0  0  0  0  0  0  0  0  0  0  0
    2.2609    0.5966   -2.1855 H   0  0  0  0  0  0  0  0  0  0  0  0
    2.3471   -1.1197   -1.7676 H   0  0  0  0  0  0  0  0  0  0  0  0
    3.8136   -1.8886    0.0224 H   0  0  0  0  0  0  0  0  0  0  0  0
    5.6066   -1.3773    1.6420 H   0  0  0  0  0  0  0  0  0  0  0  0
    6.1695    0.9772    2.1807 H   0  0  0  0  0  0  0  0  0  0  0  0
    4.9274    2.8295    1.0946 H   0  0  0  0  0  0  0  0  0  0  0  0
    3.1278    2.3361   -0.5278 H   0  0  0  0  0  0  0  0  0  0  0  0
  1  2  1  0
  2  3  2  0
  3  4  1  0
  4  5  2  0
  5  6  1  0
  6  7  2  0
  7  8  1  0
  8  9  1  0
  9 10  2  0
  9 11  1  0
 11 12  1  0
 12 13  1  0
 13 14  2  0
 14 15  1  0
 15 16  2  0
 16 17  1  0
 17 18  2  0
  7  2  1  0
 18 13  1  0
  1 19  1  0
  1 20  1  0
  1 21  1  0
  3 22  1  0
  4 23  1  0
  5 24  1  0
  6 25  1  0
  8 26  1  0
 11 27  1  0
 12 28  1  0
 12 29  1  0
 14 30  1  0
 15 31  1  0
 16 32  1  0
 17 33  1  0
 18 34  1  0
M  END
$$$$
