
     RDKit          3D

 54 58  0  0  0  0  0  0  0  0999 V2000
    5.9766   -0.6415    0.5476 F   0  0  0  0  0  0  0  0  0  0  0  0
    6.1221   -0.5016   -0.8040 C   0  0  0  0  0  0  0  0  0  0  0  0
    6.6920    0.7235   -0.9936 F   0  0  0  0  0  0  0  0  0  0  0  0
    7.0800   -1.4091   -1.1618 F   0  0  0  0  0  0  0  0  0  0  0  0
    4.8168   -0.6590   -1.5567 C   0  0  0  0  0  0  0  0  0  0  0  0
    4.7564   -1.5620   -2.6388 C   0  0  0  0  0  0  0  0  0  0  0  0
    3.5767   -1.7410   -3.3641 C   0  0  0  0  0  0  0  0  0  0  0  0
    2.4373   -1.0201   -3.0221 C   0  0  0  0  0  0  0  0  0  0  0  0
    2.4779   -0.1163   -1.9600 C   0  0  0  0  0  0  0  0  0  0  0  0
    3.6582    0.0829   -1.2186 C   0  0  0  0  0  0  0  0  0  0  0  0
    3.6275    1.0741   -0.0675 C   0  0  0  0  0  0  0  0  0  0  0  0
    3.0920    0.4734    1.2508 C   0  0  0  0  0  0  0  0  0  0  0  0
    1.6364    0.2722    1.2627 N   0  0  0  0  0  0  0  0  0  0  0  0
    1.2029   -0.6055    2.3589 C   0  0  0  0  0  0  0  0  0  0  0  0
   -0.3196   -0.8887    2.3071 C   0  0  0  0  0  0  0  0  0  0  0  0
   -1.1328    0.3321    2.1193 N   0  0  0  0  0  0  0  0  0  0  0  0
   -2.2348    0.2884    1.2608 C   0  0  0  0  0  0  0  0  0  0  0  0
   -2.3837    1.2465    0.3778 N   0  0  0  0  0  0  0  0  0  0  0  0
   -3.4632    1.2365   -0.5287 C   0  0  0  0  0  0  0  0  0  0  0  0
   -3.5582    2.2745   -1.4589 C   0  0  0  0  0  0  0  0  0  0  0  0
   -4.6062    2.3109   -2.3860 C   0  0  0  0  0  0  0  0  0  0  0  0
   -5.5727    1.3041   -2.3909 C   0  0  0  0  0  0  0  0  0  0  0  0
   -5.4974    0.2565   -1.4712 C   0  0  0  0  0  0  0  0  0  0  0  0
   -4.4428    0.2341   -0.5500 C   0  0  0  0  0  0  0  0  0  0  0  0
   -4.2956   -0.7750    0.4156 N   0  0  0  0  0  0  0  0  0  0  0  0
   -5.0968   -1.8649    0.6654 C   0  0  0  0  0  0  0  0  0  0  0  0
   -4.5781   -2.5396    1.7493 C   0  0  0  0  0  0  0  0  0  0  0  0
   -3.4216   -1.8377    2.1661 C   0  0  0  0  0  0  0  0  0  0  0  0
   -3.2439   -0.7644    1.3100 C   0  0  0  0  0  0  0  0  0  0  0  0
   -0.3491    1.5740    2.2076 C   0  0  0  0  0  0  0  0  0  0  0  0
    0.8680    1.5411    1.2542 C   0  0  0  0  0  0  0  0  0  0  0  0
    5.6378   -2.1393   -2.9221 H   0  0  0  0  0  0  0  0  0  0  0  0
    3.5455   -2.4455   -4.1930 H   0  0  0  0  0  0  0  0  0  0  0  0
    1.5122   -1.1618   -3.5769 H   0  0  0  0  0  0  0  0  0  0  0  0
    1.5701    0.4305   -1.7027 H   0  0  0  0  0  0  0  0  0  0  0  0
    4.6368    1.4659    0.1114 H   0  0  0  0  0  0  0  0  0  0  0  0
    3.0445    1.9537   -0.3660 H   0  0  0  0  0  0  0  0  0  0  0  0
    3.5950   -0.4881    1.4156 H   0  0  0  0  0  0  0  0  0  0  0  0
    3.3835    1.1231    2.0868 H   0  0  0  0  0  0  0  0  0  0  0  0
    1.7240   -1.5683    2.2988 H   0  0  0  0  0  0  0  0  0  0  0  0
    1.4649   -0.1634    3.3285 H   0  0  0  0  0  0  0  0  0  0  0  0
   -0.5041   -1.5914    1.4831 H   0  0  0  0  0  0  0  0  0  0  0  0
   -0.6156   -1.3778    3.2430 H   0  0  0  0  0  0  0  0  0  0  0  0
   -2.8056    3.0592   -1.4588 H   0  0  0  0  0  0  0  0  0  0  0  0
   -4.6660    3.1265   -3.1027 H   0  0  0  0  0  0  0  0  0  0  0  0
   -6.3853    1.3373   -3.1128 H   0  0  0  0  0  0  0  0  0  0  0  0
   -6.2611   -0.5137   -1.4933 H   0  0  0  0  0  0  0  0  0  0  0  0
   -5.9785   -2.0743    0.0744 H   0  0  0  0  0  0  0  0  0  0  0  0
   -4.9964   -3.4315    2.1983 H   0  0  0  0  0  0  0  0  0  0  0  0
   -2.7923   -2.0916    3.0078 H   0  0  0  0  0  0  0  0  0  0  0  0
    0.0015    1.6845    3.2420 H   0  0  0  0  0  0  0  0  0  0  0  0
   -0.9620    2.4623    2.0144 H   0  0  0  0  0  0  0  0  0  0  0  0
    1.5052    2.3961    1.5166 H   0  0  0  0  0  0  0  0  0  0  0  0
    0.5216    1.7092    0.2270 H   0  0  0  0  0  0  0  0  0  0  0  0
  1  2  1  0
  2  3  1  0
  2  4  1  0
  2  5  1  0
  5  6  2  0
  6  7  1  0
  7  8  2  0
  8  9  1  0
  9 10  2  0
 10 11  1  0
 11 12  1  0
 12 13  1  0
 13 14  1  0
 14 15  1  0
 15 16  1  0
 16 17  1  0
 17 18  2  0
 18 19  1  0
 19 20  2  0
 20 21  1  0
 21 22  2  0
 22 23  1  0
 23 24  2  0
 24 25  1  0
 25 26  1  0
 26 27  2  0
 27 28  1  0
 28 29  2  0
 16 30  1  0
 30 31  1  0
 10  5  1  0
 31 13  1  0
 29 17  1  0
 24 19  1  0
 29 25  1  0
  6 32  1  0
  7 33  1  0
  8 34  1  0
  9 35  1  0
 11 36  1  0
 11 37  1  0
 12 38  1  0
 12 39  1  0
 14 40  1  0
 14 41  1  0
 15 42  1  0
 15 43  1  0
 20 44  1  0
 21 45  1  0
 22 46  1  0
 23 47  1  0
 26 48  1  0
 27 49  1  0
 28 50  1  0
 30 51  1  0
 30 52  1  0
 31 53  1  0
 31 54  1  0
M  END
$$$$
