
     RDKit          3D

 54 57  0  0  0  0  0  0  0  0999 V2000
   -4.9584    4.6166   -1.6977 C   0  0  0  0  0  0  0  0  0  0  0  0
   -4.1606    3.3994   -1.3365 C   0  0  0  0  0  0  0  0  0  0  0  0
   -4.3892    2.1844   -1.9837 C   0  0  0  0  0  0  0  0  0  0  0  0
   -3.6822    1.0152   -1.6360 C   0  0  0  0  0  0  0  0  0  0  0  0
   -4.1077   -0.2497   -2.3327 C   0  0  0  0  0  0  0  0  0  0  0  0
   -2.6774    1.0851   -0.6480 C   0  0  0  0  0  0  0  0  0  0  0  0
   -1.8760   -0.0205   -0.2693 N   0  0  0  0  0  0  0  0  0  0  0  0
   -1.3249   -0.9678   -1.1198 C   0  0  0  0  0  0  0  0  0  0  0  0
   -1.3801   -0.9722   -2.3466 O   0  0  0  0  0  0  0  0  0  0  0  0
   -0.4997   -2.0164   -0.3713 C   0  0  0  0  0  0  0  0  0  0  0  0
    0.8796   -1.5603   -0.1908 N   0  0  0  0  0  0  0  0  0  0  0  0
    1.1328   -0.7778    0.9294 C   0  0  0  0  0  0  0  0  0  0  0  0
    0.2008   -0.4034    1.6485 O   0  0  0  0  0  0  0  0  0  0  0  0
    2.4474   -0.4219    1.1686 N   0  0  0  0  0  0  0  0  0  0  0  0
    2.7431    0.3132    2.3899 C   0  0  0  0  0  0  0  0  0  0  0  0
    3.0813   -0.6476    3.4774 C   0  0  0  0  0  0  0  0  0  0  0  0
    4.2351   -1.3250    3.8173 C   0  0  0  0  0  0  0  0  0  0  0  0
    3.9227   -2.0984    4.9605 C   0  0  0  0  0  0  0  0  0  0  0  0
    2.6024   -1.8431    5.2465 C   0  0  0  0  0  0  0  0  0  0  0  0
    2.0833   -0.9633    4.3525 O   0  0  0  0  0  0  0  0  0  0  0  0
    3.5128   -0.7286    0.3359 C   0  0  0  0  0  0  0  0  0  0  0  0
    4.6785   -0.4170    0.5725 O   0  0  0  0  0  0  0  0  0  0  0  0
    3.1994   -1.4598   -0.9018 C   0  0  0  0  0  0  0  0  0  0  0  0
    4.2296   -1.7422   -1.8129 C   0  0  0  0  0  0  0  0  0  0  0  0
    3.9482   -2.4188   -2.9953 C   0  0  0  0  0  0  0  0  0  0  0  0
    2.6406   -2.8051   -3.2666 C   0  0  0  0  0  0  0  0  0  0  0  0
    1.6172   -2.5254   -2.3531 C   0  0  0  0  0  0  0  0  0  0  0  0
    1.8851   -1.8559   -1.1492 C   0  0  0  0  0  0  0  0  0  0  0  0
   -2.4859    2.3002    0.0558 C   0  0  0  0  0  0  0  0  0  0  0  0
   -1.4754    2.4421    1.1658 C   0  0  0  0  0  0  0  0  0  0  0  0
   -3.2294    3.4399   -0.3000 C   0  0  0  0  0  0  0  0  0  0  0  0
   -4.3944    5.5314   -1.4874 H   0  0  0  0  0  0  0  0  0  0  0  0
   -5.1978    4.6223   -2.7664 H   0  0  0  0  0  0  0  0  0  0  0  0
   -5.8906    4.6372   -1.1249 H   0  0  0  0  0  0  0  0  0  0  0  0
   -5.1491    2.1350   -2.7625 H   0  0  0  0  0  0  0  0  0  0  0  0
   -3.9453   -1.1338   -1.7098 H   0  0  0  0  0  0  0  0  0  0  0  0
   -5.1844   -0.2290   -2.5386 H   0  0  0  0  0  0  0  0  0  0  0  0
   -3.5864   -0.3566   -3.2880 H   0  0  0  0  0  0  0  0  0  0  0  0
   -1.3805    0.0643    0.6184 H   0  0  0  0  0  0  0  0  0  0  0  0
   -0.5494   -2.9771   -0.8919 H   0  0  0  0  0  0  0  0  0  0  0  0
   -0.9617   -2.2022    0.6068 H   0  0  0  0  0  0  0  0  0  0  0  0
    1.8878    0.9323    2.6831 H   0  0  0  0  0  0  0  0  0  0  0  0
    3.5862    0.9940    2.2248 H   0  0  0  0  0  0  0  0  0  0  0  0
    5.1809   -1.2668    3.2943 H   0  0  0  0  0  0  0  0  0  0  0  0
    4.5777   -2.7607    5.5087 H   0  0  0  0  0  0  0  0  0  0  0  0
    1.9202   -2.1889    6.0107 H   0  0  0  0  0  0  0  0  0  0  0  0
    5.2511   -1.4298   -1.6040 H   0  0  0  0  0  0  0  0  0  0  0  0
    4.7425   -2.6335   -3.7058 H   0  0  0  0  0  0  0  0  0  0  0  0
    2.4076   -3.3183   -4.1973 H   0  0  0  0  0  0  0  0  0  0  0  0
    0.6126   -2.8255   -2.6375 H   0  0  0  0  0  0  0  0  0  0  0  0
   -0.4684    2.2280    0.7930 H   0  0  0  0  0  0  0  0  0  0  0  0
   -1.4611    3.4590    1.5734 H   0  0  0  0  0  0  0  0  0  0  0  0
   -1.7200    1.7671    1.9920 H   0  0  0  0  0  0  0  0  0  0  0  0
   -3.0703    4.3759    0.2329 H   0  0  0  0  0  0  0  0  0  0  0  0
  1  2  1  0
  2  3  2  0
  3  4  1  0
  4  5  1  0
  4  6  2  0
  6  7  1  0
  7  8  1  0
  8  9  2  0
  8 10  1  0
 10 11  1  0
 11 12  1  0
 12 13  2  0
 12 14  1  0
 14 15  1  0
 15 16  1  0
 16 17  2  0
 17 18  1  0
 18 19  2  0
 19 20  1  0
 14 21  1  0
 21 22  2  0
 21 23  1  0
 23 24  2  0
 24 25  1  0
 25 26  2  0
 26 27  1  0
 27 28  2  0
  6 29  1  0
 29 30  1  0
 29 31  2  0
 31  2  1  0
 28 11  1  0
 20 16  1  0
 28 23  1  0
  1 32  1  0
  1 33  1  0
  1 34  1  0
  3 35  1  0
  5 36  1  0
  5 37  1  0
  5 38  1  0
  7 39  1  0
 10 40  1  0
 10 41  1  0
 15 42  1  0
 15 43  1  0
 17 44  1  0
 18 45  1  0
 19 46  1  0
 24 47  1  0
 25 48  1  0
 26 49  1  0
 27 50  1  0
 30 51  1  0
 30 52  1  0
 30 53  1  0
 31 54  1  0
M  END
$$$$
