
     RDKit          3D

 46 48  0  0  0  0  0  0  0  0999 V2000
   -7.7210   -1.8473    2.2785 C   0  0  0  0  0  0  0  0  0  0  0  0
   -7.3066   -0.8161    1.3910 O   0  0  0  0  0  0  0  0  0  0  0  0
   -6.0470   -0.9229    0.8655 C   0  0  0  0  0  0  0  0  0  0  0  0
   -5.1618   -1.9777    1.0741 C   0  0  0  0  0  0  0  0  0  0  0  0
   -3.9012   -1.9612    0.4713 C   0  0  0  0  0  0  0  0  0  0  0  0
   -3.5081   -0.8854   -0.3359 C   0  0  0  0  0  0  0  0  0  0  0  0
   -2.1886   -0.9033   -0.9845 C   0  0  0  0  0  0  0  0  0  0  0  0
   -0.9942   -0.8520   -0.3777 C   0  0  0  0  0  0  0  0  0  0  0  0
    0.4958   -0.8527   -1.2835 S   0  0  0  0  0  0  0  0  0  0  0  0
    1.4418   -0.7424    0.1612 C   0  0  0  0  0  0  0  0  0  0  0  0
    2.7744   -0.6670    0.2506 C   0  0  0  0  0  0  0  0  0  0  0  0
    3.7120   -0.7339   -0.9020 C   0  0  0  0  0  0  0  0  0  0  0  0
    3.5243   -1.4803   -1.8546 O   0  0  0  0  0  0  0  0  0  0  0  0
    4.9571    0.0787   -0.8177 C   0  0  0  0  0  0  0  0  0  0  0  0
    6.0673   -0.3301   -1.5661 C   0  0  0  0  0  0  0  0  0  0  0  0
    7.2568    0.4009   -1.5214 C   0  0  0  0  0  0  0  0  0  0  0  0
    7.3529    1.5497   -0.7281 C   0  0  0  0  0  0  0  0  0  0  0  0
    8.6189    2.3553   -0.7104 C   0  0  0  0  0  0  0  0  0  0  0  0
    6.2320    1.9744   -0.0046 C   0  0  0  0  0  0  0  0  0  0  0  0
    5.0398    1.2444   -0.0462 C   0  0  0  0  0  0  0  0  0  0  0  0
    0.6459   -0.7001    1.2688 N   0  0  0  0  0  0  0  0  0  0  0  0
   -0.7135   -0.7627    1.0840 C   0  0  0  0  0  0  0  0  0  0  0  0
   -1.5179   -0.7472    1.9999 O   0  0  0  0  0  0  0  0  0  0  0  0
   -4.4039    0.1772   -0.5588 C   0  0  0  0  0  0  0  0  0  0  0  0
   -3.9577    1.1837   -1.3799 O   0  0  0  0  0  0  0  0  0  0  0  0
   -4.8119    2.3055   -1.5602 C   0  0  0  0  0  0  0  0  0  0  0  0
   -5.6654    0.1468    0.0469 C   0  0  0  0  0  0  0  0  0  0  0  0
   -7.7745   -2.8121    1.7636 H   0  0  0  0  0  0  0  0  0  0  0  0
   -7.0672   -1.9015    3.1554 H   0  0  0  0  0  0  0  0  0  0  0  0
   -8.7280   -1.6014    2.6292 H   0  0  0  0  0  0  0  0  0  0  0  0
   -5.4151   -2.8271    1.6990 H   0  0  0  0  0  0  0  0  0  0  0  0
   -3.2226   -2.7928    0.6473 H   0  0  0  0  0  0  0  0  0  0  0  0
   -2.2413   -0.9223   -2.0715 H   0  0  0  0  0  0  0  0  0  0  0  0
    3.2481   -0.5587    1.2202 H   0  0  0  0  0  0  0  0  0  0  0  0
    6.0098   -1.2203   -2.1904 H   0  0  0  0  0  0  0  0  0  0  0  0
    8.1063    0.0682   -2.1146 H   0  0  0  0  0  0  0  0  0  0  0  0
    9.4930    1.7121   -0.8566 H   0  0  0  0  0  0  0  0  0  0  0  0
    8.7459    2.8614    0.2524 H   0  0  0  0  0  0  0  0  0  0  0  0
    8.5951    3.1069   -1.5053 H   0  0  0  0  0  0  0  0  0  0  0  0
    6.2788    2.8845    0.5907 H   0  0  0  0  0  0  0  0  0  0  0  0
    4.1852    1.6192    0.5097 H   0  0  0  0  0  0  0  0  0  0  0  0
    0.9983   -0.6398    2.2127 H   0  0  0  0  0  0  0  0  0  0  0  0
   -5.0160    2.8057   -0.6077 H   0  0  0  0  0  0  0  0  0  0  0  0
   -4.2919    3.0203   -2.2054 H   0  0  0  0  0  0  0  0  0  0  0  0
   -5.7397    2.0171   -2.0650 H   0  0  0  0  0  0  0  0  0  0  0  0
   -6.3844    0.9462   -0.0980 H   0  0  0  0  0  0  0  0  0  0  0  0
  1  2  1  0
  2  3  1  0
  3  4  2  0
  4  5  1  0
  5  6  2  0
  6  7  1  0
  7  8  2  3
  8  9  1  0
  9 10  1  0
 10 11  2  3
 11 12  1  0
 12 13  2  0
 12 14  1  0
 14 15  2  0
 15 16  1  0
 16 17  2  0
 17 18  1  0
 17 19  1  0
 19 20  2  0
 10 21  1  0
 21 22  1  0
 22 23  2  0
  6 24  1  0
 24 25  1  0
 25 26  1  0
 24 27  2  0
 27  3  1  0
 22  8  1  0
 20 14  1  0
  1 28  1  0
  1 29  1  0
  1 30  1  0
  4 31  1  0
  5 32  1  0
  7 33  1  0
 11 34  1  0
 15 35  1  0
 16 36  1  0
 18 37  1  0
 18 38  1  0
 18 39  1  0
 19 40  1  0
 20 41  1  0
 21 42  1  0
 26 43  1  0
 26 44  1  0
 26 45  1  0
 27 46  1  0
M  END
$$$$
