
     RDKit          3D

 36 37  0  0  0  0  0  0  0  0999 V2000
   -3.3775   -1.6131    1.9531 C   0  0  0  0  0  0  0  0  0  0  0  0
   -2.9137   -0.1892    1.7171 C   0  0  0  0  0  0  0  0  0  0  0  0
   -2.1637   -0.1641    0.4939 O   0  0  0  0  0  0  0  0  0  0  0  0
   -1.6171    1.0422    0.1993 C   0  0  0  0  0  0  0  0  0  0  0  0
   -1.7303    2.0578    0.8672 O   0  0  0  0  0  0  0  0  0  0  0  0
   -0.8791    0.9891   -1.0904 C   0  0  0  0  0  0  0  0  0  0  0  0
   -0.7100    2.2151   -1.7578 C   0  0  0  0  0  0  0  0  0  0  0  0
   -0.0399    2.2740   -2.9798 C   0  0  0  0  0  0  0  0  0  0  0  0
    0.4670    1.1095   -3.5472 C   0  0  0  0  0  0  0  0  0  0  0  0
    0.3161   -0.1117   -2.8881 C   0  0  0  0  0  0  0  0  0  0  0  0
   -0.3426   -0.1843   -1.6542 C   0  0  0  0  0  0  0  0  0  0  0  0
   -0.4130   -1.4559   -0.9945 N   0  0  0  0  0  0  0  0  0  0  0  0
    1.0141   -2.1849   -0.4483 S   0  0  0  0  0  6  0  0  0  0  0  0
    1.8684   -2.4374   -1.5911 O   0  0  0  0  0  0  0  0  0  0  0  0
    0.6293   -3.2666    0.4316 O   0  0  0  0  0  0  0  0  0  0  0  0
    1.7800   -0.9300    0.5249 C   0  0  0  0  0  0  0  0  0  0  0  0
    2.9521   -0.3063    0.0849 C   0  0  0  0  0  0  0  0  0  0  0  0
    3.5381    0.6871    0.8715 C   0  0  0  0  0  0  0  0  0  0  0  0
    2.9582    1.0492    2.0891 C   0  0  0  0  0  0  0  0  0  0  0  0
    1.7931    0.4163    2.5242 C   0  0  0  0  0  0  0  0  0  0  0  0
    1.2113   -0.5763    1.7411 C   0  0  0  0  0  0  0  0  0  0  0  0
    0.0792   -1.1484    2.1705 F   0  0  0  0  0  0  0  0  0  0  0  0
   -3.9582   -1.6866    2.8768 H   0  0  0  0  0  0  0  0  0  0  0  0
   -3.9945   -1.9608    1.1180 H   0  0  0  0  0  0  0  0  0  0  0  0
   -2.5203   -2.2915    2.0189 H   0  0  0  0  0  0  0  0  0  0  0  0
   -2.2814    0.1370    2.5505 H   0  0  0  0  0  0  0  0  0  0  0  0
   -3.7801    0.4753    1.6278 H   0  0  0  0  0  0  0  0  0  0  0  0
   -1.1073    3.1336   -1.3271 H   0  0  0  0  0  0  0  0  0  0  0  0
    0.0804    3.2271   -3.4899 H   0  0  0  0  0  0  0  0  0  0  0  0
    0.9827    1.1476   -4.5042 H   0  0  0  0  0  0  0  0  0  0  0  0
    0.7148   -1.0112   -3.3539 H   0  0  0  0  0  0  0  0  0  0  0  0
   -1.1630   -1.5597   -0.3021 H   0  0  0  0  0  0  0  0  0  0  0  0
    3.4110   -0.5830   -0.8622 H   0  0  0  0  0  0  0  0  0  0  0  0
    4.4484    1.1796    0.5358 H   0  0  0  0  0  0  0  0  0  0  0  0
    3.4147    1.8254    2.6994 H   0  0  0  0  0  0  0  0  0  0  0  0
    1.3326    0.6950    3.4677 H   0  0  0  0  0  0  0  0  0  0  0  0
  1  2  1  0
  2  3  1  0
  3  4  1  0
  4  5  2  0
  4  6  1  0
  6  7  2  0
  7  8  1  0
  8  9  2  0
  9 10  1  0
 10 11  2  0
 11 12  1  0
 12 13  1  0
 13 14  2  0
 13 15  2  0
 13 16  1  0
 16 17  2  0
 17 18  1  0
 18 19  2  0
 19 20  1  0
 20 21  2  0
 21 22  1  0
 11  6  1  0
 21 16  1  0
  1 23  1  0
  1 24  1  0
  1 25  1  0
  2 26  1  0
  2 27  1  0
  7 28  1  0
  8 29  1  0
  9 30  1  0
 10 31  1  0
 12 32  1  0
 17 33  1  0
 18 34  1  0
 19 35  1  0
 20 36  1  0
M  END
$$$$
