
     RDKit          3D

 52 55  0  0  0  0  0  0  0  0999 V2000
   -4.5361   -2.8732   -2.4802 C   0  0  0  0  0  0  0  0  0  0  0  0
   -3.1890   -2.3964   -1.9724 C   0  0  0  0  0  0  0  0  0  0  0  0
   -3.4211   -1.5029   -0.8794 O   0  0  0  0  0  0  0  0  0  0  0  0
   -2.3018   -0.9576   -0.3308 C   0  0  0  0  0  0  0  0  0  0  0  0
   -1.1654   -1.1898   -0.7323 O   0  0  0  0  0  0  0  0  0  0  0  0
   -2.5764   -0.0492    0.7867 C   0  0  0  0  0  0  0  0  0  0  0  0
   -3.8564    0.2336    1.4032 C   0  0  0  0  0  0  0  0  0  0  0  0
   -5.1623   -0.3233    1.0861 C   0  0  0  0  0  0  0  0  0  0  0  0
   -6.0493    0.3872    0.2697 C   0  0  0  0  0  0  0  0  0  0  0  0
   -7.2975   -0.1547   -0.0414 C   0  0  0  0  0  0  0  0  0  0  0  0
   -7.6616   -1.4037    0.4621 C   0  0  0  0  0  0  0  0  0  0  0  0
   -6.7807   -2.1135    1.2772 C   0  0  0  0  0  0  0  0  0  0  0  0
   -5.5320   -1.5746    1.5909 C   0  0  0  0  0  0  0  0  0  0  0  0
   -3.7482    1.1515    2.4279 C   0  0  0  0  0  0  0  0  0  0  0  0
   -2.1446    1.6673    2.6600 S   0  0  0  0  0  0  0  0  0  0  0  0
   -1.5654    0.6811    1.4050 C   0  0  0  0  0  0  0  0  0  0  0  0
   -0.2174    0.6568    1.0798 N   0  0  0  0  0  0  0  0  0  0  0  0
    0.8165    1.3711    1.6581 C   0  0  0  0  0  0  0  0  0  0  0  0
    0.7403    2.1682    2.5861 O   0  0  0  0  0  0  0  0  0  0  0  0
    2.1148    1.0881    1.0320 C   0  0  0  0  0  0  0  0  0  0  0  0
    3.3728    1.6408    1.3811 C   0  0  0  0  0  0  0  0  0  0  0  0
    4.2650    1.0781    0.5002 C   0  0  0  0  0  0  0  0  0  0  0  0
    5.7093    1.1719    0.3102 C   0  0  0  0  0  0  0  0  0  0  0  0
    6.5268    1.2902    1.4495 C   0  0  0  0  0  0  0  0  0  0  0  0
    7.9142    1.3775    1.3333 C   0  0  0  0  0  0  0  0  0  0  0  0
    8.5040    1.3548    0.0747 C   0  0  0  0  0  0  0  0  0  0  0  0
    7.7100    1.2481   -1.0694 C   0  0  0  0  0  0  0  0  0  0  0  0
    6.3149    1.1553   -0.9657 C   0  0  0  0  0  0  0  0  0  0  0  0
    5.4764    1.0898   -2.0499 O   0  0  0  0  0  0  0  0  0  0  0  0
    6.0590    0.8680   -3.3267 C   0  0  0  0  0  0  0  0  0  0  0  0
    3.5874    0.2233   -0.3177 O   0  0  0  0  0  0  0  0  0  0  0  0
    2.2415    0.2269    0.0078 N   0  0  0  0  0  0  0  0  0  0  0  0
   -4.4155   -3.5572   -3.3247 H   0  0  0  0  0  0  0  0  0  0  0  0
   -5.0860   -3.3871   -1.6854 H   0  0  0  0  0  0  0  0  0  0  0  0
   -5.1519   -2.0246   -2.7953 H   0  0  0  0  0  0  0  0  0  0  0  0
   -2.6523   -1.8750   -2.7730 H   0  0  0  0  0  0  0  0  0  0  0  0
   -2.5998   -3.2533   -1.6277 H   0  0  0  0  0  0  0  0  0  0  0  0
   -5.7722    1.3593   -0.1322 H   0  0  0  0  0  0  0  0  0  0  0  0
   -7.9851    0.3960   -0.6785 H   0  0  0  0  0  0  0  0  0  0  0  0
   -8.6338   -1.8247    0.2173 H   0  0  0  0  0  0  0  0  0  0  0  0
   -7.0654   -3.0877    1.6659 H   0  0  0  0  0  0  0  0  0  0  0  0
   -4.8509   -2.1367    2.2259 H   0  0  0  0  0  0  0  0  0  0  0  0
   -4.5366    1.5422    3.0583 H   0  0  0  0  0  0  0  0  0  0  0  0
    0.0525    0.0344    0.3133 H   0  0  0  0  0  0  0  0  0  0  0  0
    3.5798    2.3559    2.1634 H   0  0  0  0  0  0  0  0  0  0  0  0
    6.0866    1.3013    2.4450 H   0  0  0  0  0  0  0  0  0  0  0  0
    8.5309    1.4620    2.2244 H   0  0  0  0  0  0  0  0  0  0  0  0
    9.5848    1.4266   -0.0204 H   0  0  0  0  0  0  0  0  0  0  0  0
    8.2117    1.2525   -2.0318 H   0  0  0  0  0  0  0  0  0  0  0  0
    6.6400    1.7380   -3.6478 H   0  0  0  0  0  0  0  0  0  0  0  0
    5.2457    0.7287   -4.0447 H   0  0  0  0  0  0  0  0  0  0  0  0
    6.6693   -0.0412   -3.3352 H   0  0  0  0  0  0  0  0  0  0  0  0
  1  2  1  0
  2  3  1  0
  3  4  1  0
  4  5  2  0
  4  6  1  0
  6  7  1  0
  7  8  1  0
  8  9  2  0
  9 10  1  0
 10 11  2  0
 11 12  1  0
 12 13  2  0
  7 14  2  0
 14 15  1  0
 15 16  1  0
 16 17  1  0
 17 18  1  0
 18 19  2  0
 18 20  1  0
 20 21  1  0
 21 22  2  0
 22 23  1  0
 23 24  2  0
 24 25  1  0
 25 26  2  0
 26 27  1  0
 27 28  2  0
 28 29  1  0
 29 30  1  0
 22 31  1  0
 31 32  1  0
 16  6  2  0
 32 20  2  0
 13  8  1  0
 28 23  1  0
  1 33  1  0
  1 34  1  0
  1 35  1  0
  2 36  1  0
  2 37  1  0
  9 38  1  0
 10 39  1  0
 11 40  1  0
 12 41  1  0
 13 42  1  0
 14 43  1  0
 17 44  1  0
 21 45  1  0
 24 46  1  0
 25 47  1  0
 26 48  1  0
 27 49  1  0
 30 50  1  0
 30 51  1  0
 30 52  1  0
M  END
$$$$
