
     RDKit          3D

 55 59  0  0  0  0  0  0  0  0999 V2000
    6.8485    3.3734    0.5863 C   0  0  0  0  0  0  0  0  0  0  0  0
    5.7181    2.5633    0.2787 O   0  0  0  0  0  0  0  0  0  0  0  0
    4.7506    2.4622    1.2428 C   0  0  0  0  0  0  0  0  0  0  0  0
    4.8523    2.9210    2.5613 C   0  0  0  0  0  0  0  0  0  0  0  0
    3.7828    2.7581    3.4440 C   0  0  0  0  0  0  0  0  0  0  0  0
    2.6106    2.1264    3.0166 C   0  0  0  0  0  0  0  0  0  0  0  0
    2.5031    1.6409    1.7049 C   0  0  0  0  0  0  0  0  0  0  0  0
    1.2881    0.9834    1.2314 C   0  0  0  0  0  0  0  0  0  0  0  0
    0.6220    1.3044    0.1365 N   0  0  0  0  0  0  0  0  0  0  0  0
   -0.4876    0.4994    0.0464 N   0  0  0  0  0  0  0  0  0  0  0  0
   -0.4553   -0.3295    1.0595 C   0  0  0  0  0  0  0  0  0  0  0  0
   -1.6357   -1.5347    1.4212 S   0  0  0  0  0  0  0  0  0  0  0  0
   -1.8601   -2.3470   -0.2181 C   0  0  0  0  0  0  0  0  0  0  0  0
   -2.4140   -1.3921   -1.2943 C   0  0  0  0  0  0  0  0  0  0  0  0
   -1.8629   -1.2515   -2.3893 O   0  0  0  0  0  0  0  0  0  0  0  0
   -3.6997   -0.7099   -1.0454 C   0  0  0  0  0  0  0  0  0  0  0  0
   -4.6940   -1.1069   -0.1683 C   0  0  0  0  0  0  0  0  0  0  0  0
   -5.7273   -0.2079   -0.2445 N   0  0  0  0  0  0  0  0  0  0  0  0
   -5.4441    0.7686   -1.1667 C   0  0  0  0  0  0  0  0  0  0  0  0
   -6.2028    1.8766   -1.5697 C   0  0  0  0  0  0  0  0  0  0  0  0
   -5.6551    2.7194   -2.5441 C   0  0  0  0  0  0  0  0  0  0  0  0
   -4.3965    2.4672   -3.0820 C   0  0  0  0  0  0  0  0  0  0  0  0
   -3.6518    1.3563   -2.6635 C   0  0  0  0  0  0  0  0  0  0  0  0
   -4.1822    0.4812   -1.6904 C   0  0  0  0  0  0  0  0  0  0  0  0
   -0.6161   -3.1623   -0.5775 C   0  0  0  0  0  0  0  0  0  0  0  0
    0.4890   -2.6063   -1.2435 C   0  0  0  0  0  0  0  0  0  0  0  0
    1.6265   -3.3728   -1.5122 C   0  0  0  0  0  0  0  0  0  0  0  0
    1.6835   -4.7043   -1.1135 C   0  0  0  0  0  0  0  0  0  0  0  0
    0.6043   -5.2727   -0.4419 C   0  0  0  0  0  0  0  0  0  0  0  0
   -0.5332   -4.5063   -0.1705 C   0  0  0  0  0  0  0  0  0  0  0  0
    0.6545   -0.0902    1.8227 N   0  0  0  0  0  0  0  0  0  0  0  0
    1.1123   -0.8481    2.9586 C   0  0  0  0  0  0  0  0  0  0  0  0
    3.5765    1.8248    0.8251 C   0  0  0  0  0  0  0  0  0  0  0  0
    6.5480    4.3940    0.8484 H   0  0  0  0  0  0  0  0  0  0  0  0
    7.4702    3.4314   -0.3096 H   0  0  0  0  0  0  0  0  0  0  0  0
    7.4502    2.9224    1.3820 H   0  0  0  0  0  0  0  0  0  0  0  0
    5.7486    3.4132    2.9304 H   0  0  0  0  0  0  0  0  0  0  0  0
    3.8617    3.1343    4.4682 H   0  0  0  0  0  0  0  0  0  0  0  0
    1.7794    2.0380    3.7102 H   0  0  0  0  0  0  0  0  0  0  0  0
   -2.6636   -3.0823   -0.0730 H   0  0  0  0  0  0  0  0  0  0  0  0
   -4.7638   -1.9482    0.5100 H   0  0  0  0  0  0  0  0  0  0  0  0
   -6.5779   -0.2441    0.3039 H   0  0  0  0  0  0  0  0  0  0  0  0
   -7.1812    2.0840   -1.1459 H   0  0  0  0  0  0  0  0  0  0  0  0
   -6.2195    3.5884   -2.8794 H   0  0  0  0  0  0  0  0  0  0  0  0
   -3.9829    3.1345   -3.8328 H   0  0  0  0  0  0  0  0  0  0  0  0
   -2.6658    1.1729   -3.0829 H   0  0  0  0  0  0  0  0  0  0  0  0
    0.4801   -1.5658   -1.5676 H   0  0  0  0  0  0  0  0  0  0  0  0
    2.4660   -2.9242   -2.0393 H   0  0  0  0  0  0  0  0  0  0  0  0
    2.5677   -5.2988   -1.3295 H   0  0  0  0  0  0  0  0  0  0  0  0
    0.6497   -6.3114   -0.1271 H   0  0  0  0  0  0  0  0  0  0  0  0
   -1.3591   -4.9720    0.3649 H   0  0  0  0  0  0  0  0  0  0  0  0
    0.6177   -0.4625    3.8505 H   0  0  0  0  0  0  0  0  0  0  0  0
    2.1942   -0.7553    3.0556 H   0  0  0  0  0  0  0  0  0  0  0  0
    0.8778   -1.9053    2.8194 H   0  0  0  0  0  0  0  0  0  0  0  0
    3.4980    1.4730   -0.2046 H   0  0  0  0  0  0  0  0  0  0  0  0
  1  2  1  0
  2  3  1  0
  3  4  2  0
  4  5  1  0
  5  6  2  0
  6  7  1  0
  7  8  1  0
  8  9  2  0
  9 10  1  0
 10 11  2  0
 11 12  1  0
 12 13  1  0
 13 14  1  0
 14 15  2  0
 14 16  1  0
 16 17  2  0
 17 18  1  0
 18 19  1  0
 19 20  2  0
 20 21  1  0
 21 22  2  0
 22 23  1  0
 23 24  2  0
 13 25  1  0
 25 26  2  0
 26 27  1  0
 27 28  2  0
 28 29  1  0
 29 30  2  0
 11 31  1  0
 31 32  1  0
  7 33  2  0
 33  3  1  0
 31  8  1  0
 24 16  1  0
 30 25  1  0
 24 19  1  0
  1 34  1  0
  1 35  1  0
  1 36  1  0
  4 37  1  0
  5 38  1  0
  6 39  1  0
 13 40  1  0
 17 41  1  0
 18 42  1  0
 20 43  1  0
 21 44  1  0
 22 45  1  0
 23 46  1  0
 26 47  1  0
 27 48  1  0
 28 49  1  0
 29 50  1  0
 30 51  1  0
 32 52  1  0
 32 53  1  0
 32 54  1  0
 33 55  1  0
M  END
$$$$
