
     RDKit          3D

 55 58  0  0  0  0  0  0  0  0999 V2000
    2.9926    0.4001   -3.0109 O   0  0  0  0  0  0  0  0  0  0  0  0
    2.2061   -0.4501   -2.5911 C   0  0  0  0  0  0  0  0  0  0  0  0
    0.9152   -0.7741   -3.3128 C   0  0  0  0  0  0  0  0  0  0  0  0
   -0.4636   -1.2230   -2.2189 S   0  0  0  0  0  0  0  0  0  0  0  0
   -0.7606    0.2840   -1.4260 C   0  0  0  0  0  0  0  0  0  0  0  0
    0.1438    1.2048   -1.1930 N   0  0  0  0  0  0  0  0  0  0  0  0
   -0.4928    2.2647   -0.6078 N   0  0  0  0  0  0  0  0  0  0  0  0
   -1.7788    1.9740   -0.4714 C   0  0  0  0  0  0  0  0  0  0  0  0
   -2.7807    2.9255    0.0196 C   0  0  0  0  0  0  0  0  0  0  0  0
   -2.7732    4.2229   -0.5193 C   0  0  0  0  0  0  0  0  0  0  0  0
   -3.6844    5.1892   -0.0907 C   0  0  0  0  0  0  0  0  0  0  0  0
   -4.6114    4.8757    0.8975 C   0  0  0  0  0  0  0  0  0  0  0  0
   -4.6274    3.5991    1.4601 C   0  0  0  0  0  0  0  0  0  0  0  0
   -3.7108    2.6366    1.0289 C   0  0  0  0  0  0  0  0  0  0  0  0
   -3.7226    1.3996    1.6121 O   0  0  0  0  0  0  0  0  0  0  0  0
   -1.9848    0.6950   -0.9622 N   0  0  0  0  0  0  0  0  0  0  0  0
   -3.2544    0.0100   -1.1421 C   0  0  0  0  0  0  0  0  0  0  0  0
   -3.3979   -1.2788   -0.3604 C   0  0  0  0  0  0  0  0  0  0  0  0
   -2.7620   -1.4985    0.8732 C   0  0  0  0  0  0  0  0  0  0  0  0
   -2.9371   -2.7005    1.5672 C   0  0  0  0  0  0  0  0  0  0  0  0
   -3.7649   -3.6930    1.0480 C   0  0  0  0  0  0  0  0  0  0  0  0
   -4.4205   -3.4845   -0.1661 C   0  0  0  0  0  0  0  0  0  0  0  0
   -4.2437   -2.2839   -0.8639 C   0  0  0  0  0  0  0  0  0  0  0  0
    2.5033   -1.2417   -1.5009 N   0  0  0  0  0  0  0  0  0  0  0  0
    3.5690   -0.8241   -0.6926 N   0  0  0  0  0  0  0  0  0  0  0  0
    3.9472   -1.6165    0.3657 C   0  0  0  0  0  0  0  0  0  0  0  0
    3.3851   -2.6726    0.6600 O   0  0  0  0  0  0  0  0  0  0  0  0
    5.1243   -1.1652    1.1630 C   0  0  0  0  0  0  0  0  0  0  0  0
    5.5068    0.1848    1.2055 C   0  0  0  0  0  0  0  0  0  0  0  0
    6.6248    0.5736    1.9463 C   0  0  0  0  0  0  0  0  0  0  0  0
    7.3640   -0.3774    2.6495 C   0  0  0  0  0  0  0  0  0  0  0  0
    6.9793   -1.7175    2.6307 C   0  0  0  0  0  0  0  0  0  0  0  0
    5.8596   -2.1061    1.9017 C   0  0  0  0  0  0  0  0  0  0  0  0
    5.5360   -3.4389    1.9494 O   0  0  0  0  0  0  0  0  0  0  0  0
    1.1122   -1.6133   -3.9858 H   0  0  0  0  0  0  0  0  0  0  0  0
    0.6212    0.0871   -3.9189 H   0  0  0  0  0  0  0  0  0  0  0  0
   -2.0428    4.4869   -1.2786 H   0  0  0  0  0  0  0  0  0  0  0  0
   -3.6619    6.1878   -0.5240 H   0  0  0  0  0  0  0  0  0  0  0  0
   -5.3191    5.6277    1.2284 H   0  0  0  0  0  0  0  0  0  0  0  0
   -5.3571    3.3759    2.2346 H   0  0  0  0  0  0  0  0  0  0  0  0
   -4.3297    1.4081    2.3676 H   0  0  0  0  0  0  0  0  0  0  0  0
   -4.0748    0.6853   -0.8904 H   0  0  0  0  0  0  0  0  0  0  0  0
   -3.3353   -0.1919   -2.2164 H   0  0  0  0  0  0  0  0  0  0  0  0
   -2.1142   -0.7417    1.3132 H   0  0  0  0  0  0  0  0  0  0  0  0
   -2.4218   -2.8601    2.5140 H   0  0  0  0  0  0  0  0  0  0  0  0
   -3.8954   -4.6300    1.5885 H   0  0  0  0  0  0  0  0  0  0  0  0
   -5.0699   -4.2578   -0.5714 H   0  0  0  0  0  0  0  0  0  0  0  0
   -4.7625   -2.1461   -1.8113 H   0  0  0  0  0  0  0  0  0  0  0  0
    1.7649   -1.7562   -1.0247 H   0  0  0  0  0  0  0  0  0  0  0  0
    4.1199   -0.0465   -1.0575 H   0  0  0  0  0  0  0  0  0  0  0  0
    4.9351    0.9546    0.6898 H   0  0  0  0  0  0  0  0  0  0  0  0
    6.9148    1.6221    1.9804 H   0  0  0  0  0  0  0  0  0  0  0  0
    8.2348   -0.0731    3.2326 H   0  0  0  0  0  0  0  0  0  0  0  0
    7.5447   -2.4605    3.1957 H   0  0  0  0  0  0  0  0  0  0  0  0
    4.6513   -3.5514    1.5349 H   0  0  0  0  0  0  0  0  0  0  0  0
  1  2  2  0
  2  3  1  0
  3  4  1  0
  4  5  1  0
  5  6  2  0
  6  7  1  0
  7  8  2  0
  8  9  1  0
  9 10  2  0
 10 11  1  0
 11 12  2  0
 12 13  1  0
 13 14  2  0
 14 15  1  0
  8 16  1  0
 16 17  1  0
 17 18  1  0
 18 19  2  0
 19 20  1  0
 20 21  2  0
 21 22  1  0
 22 23  2  0
  2 24  1  0
 24 25  1  0
 25 26  1  0
 26 27  2  0
 26 28  1  0
 28 29  2  0
 29 30  1  0
 30 31  2  0
 31 32  1  0
 32 33  2  0
 33 34  1  0
 16  5  1  0
 23 18  1  0
 33 28  1  0
 14  9  1  0
  3 35  1  0
  3 36  1  0
 10 37  1  0
 11 38  1  0
 12 39  1  0
 13 40  1  0
 15 41  1  0
 17 42  1  0
 17 43  1  0
 19 44  1  0
 20 45  1  0
 21 46  1  0
 22 47  1  0
 23 48  1  0
 24 49  1  0
 25 50  1  0
 29 51  1  0
 30 52  1  0
 31 53  1  0
 32 54  1  0
 34 55  1  0
M  END
$$$$
