
     RDKit          3D

 57 59  0  0  0  0  0  0  0  0999 V2000
    8.1043   -0.1249   -2.7199 C   0  0  0  0  0  0  0  0  0  0  0  0
    7.1885   -1.2056   -2.5988 O   0  0  0  0  0  0  0  0  0  0  0  0
    6.6731   -1.4422   -1.3541 C   0  0  0  0  0  0  0  0  0  0  0  0
    6.9564   -0.7179   -0.1963 C   0  0  0  0  0  0  0  0  0  0  0  0
    6.3549   -1.0673    1.0188 C   0  0  0  0  0  0  0  0  0  0  0  0
    5.4687   -2.1500    1.0933 C   0  0  0  0  0  0  0  0  0  0  0  0
    4.7986   -2.5105    2.3932 C   0  0  0  0  0  0  0  0  0  0  0  0
    3.5283   -1.8451    2.5161 N   0  0  0  0  0  0  0  0  0  0  0  0
    2.3486   -2.4411    2.1391 C   0  0  0  0  0  0  0  0  0  0  0  0
    2.1950   -3.6092    1.8112 O   0  0  0  0  0  0  0  0  0  0  0  0
    1.1463   -1.4693    2.1348 C   0  0  0  0  0  0  0  0  0  0  0  0
    1.3115   -0.2841    2.3865 O   0  0  0  0  0  0  0  0  0  0  0  0
   -0.0478   -2.0627    1.8008 N   0  0  0  0  0  0  0  0  0  0  0  0
   -1.2429   -1.2767    1.5433 C   0  0  0  0  0  0  0  0  0  0  0  0
   -1.1670   -0.4488    0.2456 C   0  0  0  0  0  0  0  0  0  0  0  0
   -0.9016   -1.3363   -0.8621 O   0  0  0  0  0  0  0  0  0  0  0  0
   -1.4265   -0.6555   -2.0026 C   0  0  0  0  0  0  0  0  0  0  0  0
   -2.7305   -0.0808   -1.4971 C   0  0  0  0  0  0  0  0  0  0  0  0
   -2.4717    0.1840   -0.0649 N   0  0  0  0  0  0  0  0  0  0  0  0
   -2.5821    1.7864    0.4570 S   0  0  0  0  0  6  0  0  0  0  0  0
   -1.7982    2.5884   -0.4587 O   0  0  0  0  0  0  0  0  0  0  0  0
   -2.3472    1.8151    1.8825 O   0  0  0  0  0  0  0  0  0  0  0  0
   -4.2991    2.1539    0.1978 C   0  0  0  0  0  0  0  0  0  0  0  0
   -4.6771    3.1561   -0.6984 C   0  0  0  0  0  0  0  0  0  0  0  0
   -6.0345    3.4293   -0.8978 C   0  0  0  0  0  0  0  0  0  0  0  0
   -7.0071    2.7061   -0.2023 C   0  0  0  0  0  0  0  0  0  0  0  0
   -8.3604    2.8722   -0.3086 O   0  0  0  0  0  0  0  0  0  0  0  0
   -8.8177    3.9091   -1.1680 C   0  0  0  0  0  0  0  0  0  0  0  0
   -6.6127    1.7088    0.6967 C   0  0  0  0  0  0  0  0  0  0  0  0
   -5.2611    1.4299    0.9041 C   0  0  0  0  0  0  0  0  0  0  0  0
    5.1804   -2.8661   -0.0747 C   0  0  0  0  0  0  0  0  0  0  0  0
    5.7819   -2.5148   -1.2854 C   0  0  0  0  0  0  0  0  0  0  0  0
    7.6270    0.8277   -2.4679 H   0  0  0  0  0  0  0  0  0  0  0  0
    8.9974   -0.2941   -2.1096 H   0  0  0  0  0  0  0  0  0  0  0  0
    8.4216   -0.0712   -3.7659 H   0  0  0  0  0  0  0  0  0  0  0  0
    7.6370    0.1268   -0.2029 H   0  0  0  0  0  0  0  0  0  0  0  0
    6.5839   -0.4832    1.9078 H   0  0  0  0  0  0  0  0  0  0  0  0
    5.4181   -2.1979    3.2410 H   0  0  0  0  0  0  0  0  0  0  0  0
    4.6696   -3.5964    2.4669 H   0  0  0  0  0  0  0  0  0  0  0  0
    3.5006   -0.8357    2.6296 H   0  0  0  0  0  0  0  0  0  0  0  0
    0.0159   -3.0074    1.4293 H   0  0  0  0  0  0  0  0  0  0  0  0
   -1.4154   -0.6246    2.4057 H   0  0  0  0  0  0  0  0  0  0  0  0
   -2.0702   -1.9933    1.4875 H   0  0  0  0  0  0  0  0  0  0  0  0
   -0.3498    0.2811    0.2801 H   0  0  0  0  0  0  0  0  0  0  0  0
   -1.5626   -1.3533   -2.8327 H   0  0  0  0  0  0  0  0  0  0  0  0
   -0.7226    0.1289   -2.3026 H   0  0  0  0  0  0  0  0  0  0  0  0
   -3.0388    0.7929   -2.0760 H   0  0  0  0  0  0  0  0  0  0  0  0
   -3.5311   -0.8268   -1.5537 H   0  0  0  0  0  0  0  0  0  0  0  0
   -3.9287    3.7300   -1.2409 H   0  0  0  0  0  0  0  0  0  0  0  0
   -6.2988    4.2136   -1.6000 H   0  0  0  0  0  0  0  0  0  0  0  0
   -9.9110    3.9222   -1.1236 H   0  0  0  0  0  0  0  0  0  0  0  0
   -8.5290    3.7159   -2.2065 H   0  0  0  0  0  0  0  0  0  0  0  0
   -8.4586    4.8877   -0.8325 H   0  0  0  0  0  0  0  0  0  0  0  0
   -7.3686    1.1491    1.2435 H   0  0  0  0  0  0  0  0  0  0  0  0
   -4.9674    0.6581    1.6116 H   0  0  0  0  0  0  0  0  0  0  0  0
    4.4803   -3.6996   -0.0493 H   0  0  0  0  0  0  0  0  0  0  0  0
    5.5498   -3.0808   -2.1843 H   0  0  0  0  0  0  0  0  0  0  0  0
  1  2  1  0
  2  3  1  0
  3  4  2  0
  4  5  1  0
  5  6  2  0
  6  7  1  0
  7  8  1  0
  8  9  1  0
  9 10  2  0
  9 11  1  0
 11 12  2  0
 11 13  1  0
 13 14  1  0
 14 15  1  0
 15 16  1  0
 16 17  1  0
 17 18  1  0
 18 19  1  0
 19 20  1  0
 20 21  2  0
 20 22  2  0
 20 23  1  0
 23 24  2  0
 24 25  1  0
 25 26  2  0
 26 27  1  0
 27 28  1  0
 26 29  1  0
 29 30  2  0
  6 31  1  0
 31 32  2  0
 32  3  1  0
 19 15  1  0
 30 23  1  0
  1 33  1  0
  1 34  1  0
  1 35  1  0
  4 36  1  0
  5 37  1  0
  7 38  1  0
  7 39  1  0
  8 40  1  0
 13 41  1  0
 14 42  1  0
 14 43  1  0
 15 44  1  0
 17 45  1  0
 17 46  1  0
 18 47  1  0
 18 48  1  0
 24 49  1  0
 25 50  1  0
 28 51  1  0
 28 52  1  0
 28 53  1  0
 29 54  1  0
 30 55  1  0
 31 56  1  0
 32 57  1  0
M  END
$$$$
