
     RDKit          3D

 48 50  0  0  0  0  0  0  0  0999 V2000
   -5.2664   -1.6174    0.5849 C   0  0  0  0  0  0  0  0  0  0  0  0
   -4.5622   -0.4899    1.1121 O   0  0  0  0  0  0  0  0  0  0  0  0
   -3.7278    0.0245    0.1544 C   0  0  0  0  0  0  0  0  0  0  0  0
   -2.3904   -0.3664    0.1712 C   0  0  0  0  0  0  0  0  0  0  0  0
   -1.5049    0.1452   -0.7815 C   0  0  0  0  0  0  0  0  0  0  0  0
   -0.0901   -0.2527   -0.8017 C   0  0  0  0  0  0  0  0  0  0  0  0
    0.3647   -1.5121   -0.9483 C   0  0  0  0  0  0  0  0  0  0  0  0
   -0.4699   -2.6437   -1.1594 C   0  0  0  0  0  0  0  0  0  0  0  0
   -1.1804   -3.5521   -1.2845 N   0  0  0  0  0  0  0  0  0  0  0  0
    1.8400   -1.7300   -0.9945 C   0  0  0  0  0  0  0  0  0  0  0  0
    2.3283   -2.3284   -1.9444 O   0  0  0  0  0  0  0  0  0  0  0  0
    2.5009   -1.2176    0.1099 N   0  0  0  0  0  0  0  0  0  0  0  0
    3.8996   -1.2214    0.3714 C   0  0  0  0  0  0  0  0  0  0  0  0
    4.8105   -1.7486   -0.5504 C   0  0  0  0  0  0  0  0  0  0  0  0
    6.1752   -1.7330   -0.2865 C   0  0  0  0  0  0  0  0  0  0  0  0
    6.6436   -1.1894    0.9043 C   0  0  0  0  0  0  0  0  0  0  0  0
    5.7837   -0.6550    1.8474 C   0  0  0  0  0  0  0  0  0  0  0  0
    6.3374   -0.1489    2.9628 N   0  0  0  0  0  0  0  0  0  0  0  0
    5.5281    0.3770    3.9014 C   0  0  0  0  0  0  0  0  0  0  0  0
    4.1577    0.4251    3.7814 C   0  0  0  0  0  0  0  0  0  0  0  0
    3.5871   -0.0956    2.6228 C   0  0  0  0  0  0  0  0  0  0  0  0
    4.3886   -0.6622    1.5988 C   0  0  0  0  0  0  0  0  0  0  0  0
   -1.9627    1.0838   -1.7217 C   0  0  0  0  0  0  0  0  0  0  0  0
   -3.3005    1.5008   -1.7276 C   0  0  0  0  0  0  0  0  0  0  0  0
   -3.8381    2.4066   -2.6046 O   0  0  0  0  0  0  0  0  0  0  0  0
   -2.9775    2.9585   -3.5929 C   0  0  0  0  0  0  0  0  0  0  0  0
   -4.1791    0.9727   -0.7694 C   0  0  0  0  0  0  0  0  0  0  0  0
   -5.5056    1.3334   -0.7769 O   0  0  0  0  0  0  0  0  0  0  0  0
   -5.7058    2.4618    0.0730 C   0  0  0  0  0  0  0  0  0  0  0  0
   -5.9057   -1.3363   -0.2611 H   0  0  0  0  0  0  0  0  0  0  0  0
   -5.9063   -2.0088    1.3758 H   0  0  0  0  0  0  0  0  0  0  0  0
   -4.5725   -2.4121    0.2882 H   0  0  0  0  0  0  0  0  0  0  0  0
   -2.0634   -1.0767    0.9255 H   0  0  0  0  0  0  0  0  0  0  0  0
    0.6084    0.5803   -0.7367 H   0  0  0  0  0  0  0  0  0  0  0  0
    1.9200   -0.8169    0.8313 H   0  0  0  0  0  0  0  0  0  0  0  0
    4.4965   -2.1804   -1.4946 H   0  0  0  0  0  0  0  0  0  0  0  0
    6.8749   -2.1459   -1.0101 H   0  0  0  0  0  0  0  0  0  0  0  0
    7.7132   -1.1820    1.1024 H   0  0  0  0  0  0  0  0  0  0  0  0
    6.0305    0.7744    4.7780 H   0  0  0  0  0  0  0  0  0  0  0  0
    3.5462    0.8573    4.5662 H   0  0  0  0  0  0  0  0  0  0  0  0
    2.5065   -0.0497    2.5477 H   0  0  0  0  0  0  0  0  0  0  0  0
   -1.2587    1.4710   -2.4519 H   0  0  0  0  0  0  0  0  0  0  0  0
   -2.5860    2.1806   -4.2564 H   0  0  0  0  0  0  0  0  0  0  0  0
   -2.1669    3.5329   -3.1315 H   0  0  0  0  0  0  0  0  0  0  0  0
   -3.5673    3.6488   -4.2028 H   0  0  0  0  0  0  0  0  0  0  0  0
   -6.7665    2.7297    0.0313 H   0  0  0  0  0  0  0  0  0  0  0  0
   -5.1270    3.3260   -0.2664 H   0  0  0  0  0  0  0  0  0  0  0  0
   -5.4600    2.2248    1.1136 H   0  0  0  0  0  0  0  0  0  0  0  0
  1  2  1  0
  2  3  1  0
  3  4  2  0
  4  5  1  0
  5  6  1  0
  6  7  2  3
  7  8  1  0
  8  9  3  0
  7 10  1  0
 10 11  2  0
 10 12  1  0
 12 13  1  0
 13 14  2  0
 14 15  1  0
 15 16  2  0
 16 17  1  0
 17 18  2  0
 18 19  1  0
 19 20  2  0
 20 21  1  0
 21 22  2  0
  5 23  2  0
 23 24  1  0
 24 25  1  0
 25 26  1  0
 24 27  2  0
 27 28  1  0
 28 29  1  0
 27  3  1  0
 22 13  1  0
 22 17  1  0
  1 30  1  0
  1 31  1  0
  1 32  1  0
  4 33  1  0
  6 34  1  0
 12 35  1  0
 14 36  1  0
 15 37  1  0
 16 38  1  0
 19 39  1  0
 20 40  1  0
 21 41  1  0
 23 42  1  0
 26 43  1  0
 26 44  1  0
 26 45  1  0
 29 46  1  0
 29 47  1  0
 29 48  1  0
M  END
$$$$
