
     RDKit          3D

 31 32  0  0  0  0  0  0  0  0999 V2000
    2.3008   -1.5248   -2.1114 C   0  0  0  0  0  0  0  0  0  0  0  0
    2.7138   -1.7678   -0.6671 C   0  0  0  0  0  0  0  0  0  0  0  0
    2.8928   -0.5144    0.0622 N   0  0  0  0  0  0  0  0  0  0  0  0
    1.9374    0.3145    0.5738 C   0  0  0  0  0  0  0  0  0  0  0  0
    0.5291   -0.0047    0.6608 C   0  0  0  0  0  0  0  0  0  0  0  0
    0.0115   -1.1887    1.1475 C   0  0  0  0  0  0  0  0  0  0  0  0
   -1.6956   -1.2361    1.1121 S   0  0  0  0  0  0  0  0  0  0  0  0
   -1.7957    0.3608    0.5009 C   0  0  0  0  0  0  0  0  0  0  0  0
   -3.1230    1.0326    0.2253 C   0  0  0  0  0  0  0  0  0  0  0  0
   -3.9545    1.2064    1.4970 C   0  0  0  0  0  0  0  0  0  0  0  0
   -3.9190    0.3079   -0.8611 C   0  0  0  0  0  0  0  0  0  0  0  0
   -0.5351    0.8992    0.3235 C   0  0  0  0  0  0  0  0  0  0  0  0
    2.3748    1.4750    0.9752 N   0  0  0  0  0  0  0  0  0  0  0  0
    3.7159    1.4242    0.7353 N   0  0  0  0  0  0  0  0  0  0  0  0
    4.0548    0.2180    0.1424 C   0  0  0  0  0  0  0  0  0  0  0  0
    5.5923   -0.1543   -0.3517 S   0  0  0  0  0  0  0  0  0  0  0  0
    1.3489   -0.9871   -2.1664 H   0  0  0  0  0  0  0  0  0  0  0  0
    2.1848   -2.4770   -2.6380 H   0  0  0  0  0  0  0  0  0  0  0  0
    3.0502   -0.9293   -2.6425 H   0  0  0  0  0  0  0  0  0  0  0  0
    3.6487   -2.3363   -0.6470 H   0  0  0  0  0  0  0  0  0  0  0  0
    1.9579   -2.3789   -0.1719 H   0  0  0  0  0  0  0  0  0  0  0  0
    0.5486   -2.0396    1.5426 H   0  0  0  0  0  0  0  0  0  0  0  0
   -2.9076    2.0407   -0.1557 H   0  0  0  0  0  0  0  0  0  0  0  0
   -4.2737    0.2443    1.9124 H   0  0  0  0  0  0  0  0  0  0  0  0
   -4.8563    1.7926    1.2894 H   0  0  0  0  0  0  0  0  0  0  0  0
   -3.3839    1.7321    2.2707 H   0  0  0  0  0  0  0  0  0  0  0  0
   -4.2366   -0.6899   -0.5394 H   0  0  0  0  0  0  0  0  0  0  0  0
   -3.3229    0.1914   -1.7731 H   0  0  0  0  0  0  0  0  0  0  0  0
   -4.8200    0.8746   -1.1199 H   0  0  0  0  0  0  0  0  0  0  0  0
   -0.3685    1.9061   -0.0441 H   0  0  0  0  0  0  0  0  0  0  0  0
    4.3302    2.2086    0.9184 H   0  0  0  0  0  0  0  0  0  0  0  0
  1  2  1  0
  2  3  1  0
  3  4  1  0
  4  5  1  0
  5  6  2  0
  6  7  1  0
  7  8  1  0
  8  9  1  0
  9 10  1  0
  9 11  1  0
  8 12  2  0
  4 13  2  0
 13 14  1  0
 14 15  1  0
 15 16  2  0
 15  3  1  0
 12  5  1  0
  1 17  1  0
  1 18  1  0
  1 19  1  0
  2 20  1  0
  2 21  1  0
  6 22  1  0
  9 23  1  0
 10 24  1  0
 10 25  1  0
 10 26  1  0
 11 27  1  0
 11 28  1  0
 11 29  1  0
 12 30  1  0
 14 31  1  0
M  END
$$$$
