
     RDKit          3D

 54 57  0  0  0  0  0  0  0  0999 V2000
    8.2390    2.7186    0.2316 C   0  0  0  0  0  0  0  0  0  0  0  0
    8.1157    1.2824   -0.0226 N   0  0  0  0  0  0  0  0  0  0  0  0
    9.2485    0.4671    0.4109 C   0  0  0  0  0  0  0  0  0  0  0  0
    6.8356    0.7173   -0.0654 C   0  0  0  0  0  0  0  0  0  0  0  0
    6.6202   -0.6666    0.0793 C   0  0  0  0  0  0  0  0  0  0  0  0
    5.3405   -1.2390    0.0195 C   0  0  0  0  0  0  0  0  0  0  0  0
    4.2307   -0.4302   -0.2015 C   0  0  0  0  0  0  0  0  0  0  0  0
    2.8911   -1.0456   -0.2649 C   0  0  0  0  0  0  0  0  0  0  0  0
    1.8238   -0.3382   -0.4575 N   0  0  0  0  0  0  0  0  0  0  0  0
    0.6563   -1.0403   -0.4963 N   0  0  0  0  0  0  0  0  0  0  0  0
   -0.5550   -0.3946   -0.6978 C   0  0  0  0  0  0  0  0  0  0  0  0
   -0.6986    0.8149   -0.8466 O   0  0  0  0  0  0  0  0  0  0  0  0
   -1.6791   -1.3277   -0.7330 C   0  0  0  0  0  0  0  0  0  0  0  0
   -1.5001   -2.6832   -0.6432 N   0  0  0  0  0  0  0  0  0  0  0  0
   -2.6850   -3.2627   -0.7041 N   0  0  0  0  0  0  0  0  0  0  0  0
   -3.6489   -2.3044   -0.8565 N   0  0  0  0  0  0  0  0  0  0  0  0
   -5.0173   -2.6547   -0.9949 C   0  0  0  0  0  0  0  0  0  0  0  0
   -5.9557   -1.7277   -1.1886 N   0  0  0  0  0  0  0  0  0  0  0  0
   -7.1430   -2.4530   -1.2623 O   0  0  0  0  0  0  0  0  0  0  0  0
   -6.9097   -3.8173   -1.1287 N   0  0  0  0  0  0  0  0  0  0  0  0
   -5.5921   -3.9403   -0.9727 C   0  0  0  0  0  0  0  0  0  0  0  0
   -4.9537   -5.1158   -0.8224 N   0  0  0  0  0  0  0  0  0  0  0  0
   -3.0337   -1.0550   -0.8471 C   0  0  0  0  0  0  0  0  0  0  0  0
   -3.7551    0.2407   -0.9096 C   0  0  0  0  0  0  0  0  0  0  0  0
   -4.3877    0.3848    0.3594 O   0  0  0  0  0  0  0  0  0  0  0  0
   -5.2054    1.4679    0.5277 C   0  0  0  0  0  0  0  0  0  0  0  0
   -5.9477    1.4569    1.7146 C   0  0  0  0  0  0  0  0  0  0  0  0
   -6.8226    2.5020    2.0140 C   0  0  0  0  0  0  0  0  0  0  0  0
   -6.9478    3.5603    1.1249 C   0  0  0  0  0  0  0  0  0  0  0  0
   -7.7859    4.5659    1.4068 F   0  0  0  0  0  0  0  0  0  0  0  0
   -6.2139    3.5902   -0.0550 C   0  0  0  0  0  0  0  0  0  0  0  0
   -5.3383    2.5419   -0.3560 C   0  0  0  0  0  0  0  0  0  0  0  0
    4.4011    0.9404   -0.3642 C   0  0  0  0  0  0  0  0  0  0  0  0
    5.6866    1.4969   -0.3009 C   0  0  0  0  0  0  0  0  0  0  0  0
    7.7538    2.9954    1.1747 H   0  0  0  0  0  0  0  0  0  0  0  0
    9.2894    3.0227    0.3014 H   0  0  0  0  0  0  0  0  0  0  0  0
    7.8111    3.3043   -0.5889 H   0  0  0  0  0  0  0  0  0  0  0  0
    9.1267    0.1481    1.4516 H   0  0  0  0  0  0  0  0  0  0  0  0
   10.1880    1.0269    0.3418 H   0  0  0  0  0  0  0  0  0  0  0  0
    9.3770   -0.4104   -0.2321 H   0  0  0  0  0  0  0  0  0  0  0  0
    7.4510   -1.3449    0.2481 H   0  0  0  0  0  0  0  0  0  0  0  0
    5.2360   -2.3124    0.1472 H   0  0  0  0  0  0  0  0  0  0  0  0
    2.8447   -2.1423   -0.1390 H   0  0  0  0  0  0  0  0  0  0  0  0
    0.6615   -2.0508   -0.3930 H   0  0  0  0  0  0  0  0  0  0  0  0
   -3.9772   -5.1591   -0.5365 H   0  0  0  0  0  0  0  0  0  0  0  0
   -5.4929   -5.9538   -0.6311 H   0  0  0  0  0  0  0  0  0  0  0  0
   -3.0607    1.0698   -1.0696 H   0  0  0  0  0  0  0  0  0  0  0  0
   -4.4804    0.2455   -1.7309 H   0  0  0  0  0  0  0  0  0  0  0  0
   -5.8456    0.6249    2.4069 H   0  0  0  0  0  0  0  0  0  0  0  0
   -7.4030    2.4947    2.9302 H   0  0  0  0  0  0  0  0  0  0  0  0
   -6.3242    4.4306   -0.7324 H   0  0  0  0  0  0  0  0  0  0  0  0
   -4.7730    2.6007   -1.2804 H   0  0  0  0  0  0  0  0  0  0  0  0
    3.5458    1.5880   -0.5460 H   0  0  0  0  0  0  0  0  0  0  0  0
    5.7594    2.5701   -0.4513 H   0  0  0  0  0  0  0  0  0  0  0  0
  1  2  1  0
  2  3  1  0
  2  4  1  0
  4  5  2  0
  5  6  1  0
  6  7  2  0
  7  8  1  0
  8  9  2  3
  9 10  1  0
 10 11  1  0
 11 12  2  0
 11 13  1  0
 13 14  1  0
 14 15  2  0
 15 16  1  0
 16 17  1  0
 17 18  2  0
 18 19  1  0
 19 20  1  0
 20 21  2  0
 21 22  1  0
 16 23  1  0
 23 24  1  0
 24 25  1  0
 25 26  1  0
 26 27  2  0
 27 28  1  0
 28 29  2  0
 29 30  1  0
 29 31  1  0
 31 32  2  0
  7 33  1  0
 33 34  2  0
 34  4  1  0
 23 13  2  0
 32 26  1  0
 21 17  1  0
  1 35  1  0
  1 36  1  0
  1 37  1  0
  3 38  1  0
  3 39  1  0
  3 40  1  0
  5 41  1  0
  6 42  1  0
  8 43  1  0
 10 44  1  0
 22 45  1  0
 22 46  1  0
 24 47  1  0
 24 48  1  0
 27 49  1  0
 28 50  1  0
 31 51  1  0
 32 52  1  0
 33 53  1  0
 34 54  1  0
M  END
$$$$
