
     RDKit          3D

 50 53  0  0  0  0  0  0  0  0999 V2000
   -5.9297   -3.1558   -1.8460 C   0  0  0  0  0  0  0  0  0  0  0  0
   -5.2197   -2.1427   -0.9660 C   0  0  0  0  0  0  0  0  0  0  0  0
   -4.1487   -1.5784   -1.7211 O   0  0  0  0  0  0  0  0  0  0  0  0
   -3.3627   -0.6540   -1.0919 C   0  0  0  0  0  0  0  0  0  0  0  0
   -3.5374   -0.1720    0.2048 C   0  0  0  0  0  0  0  0  0  0  0  0
   -2.6579    0.7852    0.7259 C   0  0  0  0  0  0  0  0  0  0  0  0
   -1.6021    1.2801   -0.0497 C   0  0  0  0  0  0  0  0  0  0  0  0
   -0.6887    2.2786    0.4931 C   0  0  0  0  0  0  0  0  0  0  0  0
    0.6596    2.1456    0.8185 C   0  0  0  0  0  0  0  0  0  0  0  0
    1.5562    1.0051    0.6206 C   0  0  0  0  0  0  0  0  0  0  0  0
    1.1966   -0.0300    0.0694 O   0  0  0  0  0  0  0  0  0  0  0  0
    2.8285    1.2469    1.1345 N   0  0  0  0  0  0  0  0  0  0  0  0
    3.8502    0.3405    1.2651 N   0  0  0  0  0  0  0  0  0  0  0  0
    3.9565   -0.6098    0.3913 C   0  0  0  0  0  0  0  0  0  0  0  0
    5.0060   -1.6454    0.5011 C   0  0  0  0  0  0  0  0  0  0  0  0
    5.9254   -1.6308    1.5562 C   0  0  0  0  0  0  0  0  0  0  0  0
    6.9088   -2.6194    1.6374 C   0  0  0  0  0  0  0  0  0  0  0  0
    6.9617   -3.6123    0.6629 C   0  0  0  0  0  0  0  0  0  0  0  0
    7.9045   -4.5961    0.7031 O   0  0  0  0  0  0  0  0  0  0  0  0
    6.0501   -3.6340   -0.3881 C   0  0  0  0  0  0  0  0  0  0  0  0
    5.0660   -2.6476   -0.4722 C   0  0  0  0  0  0  0  0  0  0  0  0
    1.0890    3.2788    1.4496 N   0  0  0  0  0  0  0  0  0  0  0  0
    0.0680    4.1042    1.5568 N   0  0  0  0  0  0  0  0  0  0  0  0
   -1.0229    3.5722    0.9234 N   0  0  0  0  0  0  0  0  0  0  0  0
   -2.2244    4.3299    0.8020 C   0  0  0  0  0  0  0  0  0  0  0  0
   -2.3360    5.4152    1.5795 N   0  0  0  0  0  0  0  0  0  0  0  0
   -3.5945    5.9246    1.3067 O   0  0  0  0  0  0  0  0  0  0  0  0
   -4.2339    5.1721    0.3376 N   0  0  0  0  0  0  0  0  0  0  0  0
   -3.3782    4.2063    0.0011 C   0  0  0  0  0  0  0  0  0  0  0  0
   -3.6544    3.3419   -0.9917 N   0  0  0  0  0  0  0  0  0  0  0  0
   -1.4172    0.7773   -1.3425 C   0  0  0  0  0  0  0  0  0  0  0  0
   -2.2969   -0.1779   -1.8582 C   0  0  0  0  0  0  0  0  0  0  0  0
   -6.3124   -2.6771   -2.7535 H   0  0  0  0  0  0  0  0  0  0  0  0
   -5.2365   -3.9401   -2.1675 H   0  0  0  0  0  0  0  0  0  0  0  0
   -6.7642   -3.6190   -1.3121 H   0  0  0  0  0  0  0  0  0  0  0  0
   -4.8319   -2.6515   -0.0759 H   0  0  0  0  0  0  0  0  0  0  0  0
   -5.9312   -1.3617   -0.6743 H   0  0  0  0  0  0  0  0  0  0  0  0
   -4.3457   -0.5190    0.8400 H   0  0  0  0  0  0  0  0  0  0  0  0
   -2.8127    1.1348    1.7447 H   0  0  0  0  0  0  0  0  0  0  0  0
    2.9289    2.0730    1.7224 H   0  0  0  0  0  0  0  0  0  0  0  0
    3.3035   -0.6890   -0.4934 H   0  0  0  0  0  0  0  0  0  0  0  0
    5.8797   -0.8537    2.3156 H   0  0  0  0  0  0  0  0  0  0  0  0
    7.6162   -2.5972    2.4604 H   0  0  0  0  0  0  0  0  0  0  0  0
    8.4628   -4.4607    1.4865 H   0  0  0  0  0  0  0  0  0  0  0  0
    6.1057   -4.4183   -1.1381 H   0  0  0  0  0  0  0  0  0  0  0  0
    4.3548   -2.6732   -1.2935 H   0  0  0  0  0  0  0  0  0  0  0  0
   -2.9322    2.8780   -1.5295 H   0  0  0  0  0  0  0  0  0  0  0  0
   -4.4816    3.5335   -1.5506 H   0  0  0  0  0  0  0  0  0  0  0  0
   -0.5830    1.1087   -1.9571 H   0  0  0  0  0  0  0  0  0  0  0  0
   -2.1421   -0.5659   -2.8624 H   0  0  0  0  0  0  0  0  0  0  0  0
  1  2  1  0
  2  3  1  0
  3  4  1  0
  4  5  2  0
  5  6  1  0
  6  7  2  0
  7  8  1  0
  8  9  2  0
  9 10  1  0
 10 11  2  0
 10 12  1  0
 12 13  1  0
 13 14  2  3
 14 15  1  0
 15 16  2  0
 16 17  1  0
 17 18  2  0
 18 19  1  0
 18 20  1  0
 20 21  2  0
  9 22  1  0
 22 23  2  0
 23 24  1  0
 24 25  1  0
 25 26  2  0
 26 27  1  0
 27 28  1  0
 28 29  2  0
 29 30  1  0
  7 31  1  0
 31 32  2  0
 32  4  1  0
 24  8  1  0
 29 25  1  0
 21 15  1  0
  1 33  1  0
  1 34  1  0
  1 35  1  0
  2 36  1  0
  2 37  1  0
  5 38  1  0
  6 39  1  0
 12 40  1  0
 14 41  1  0
 16 42  1  0
 17 43  1  0
 19 44  1  0
 20 45  1  0
 21 46  1  0
 30 47  1  0
 30 48  1  0
 31 49  1  0
 32 50  1  0
M  END
$$$$
