
     RDKit          3D

 39 40  0  0  0  0  0  0  0  0999 V2000
   -0.7467   -3.1222    0.0086 C   0  0  0  0  0  0  0  0  0  0  0  0
   -1.2046   -1.6656   -0.0803 C   0  0  0  0  0  0  0  0  0  0  0  0
   -2.4741   -1.5912    0.5744 O   0  0  0  0  0  0  0  0  0  0  0  0
   -3.3605   -0.7832   -0.0889 C   0  0  0  0  0  0  0  0  0  0  0  0
   -3.2581    0.6021    0.0477 C   0  0  0  0  0  0  0  0  0  0  0  0
   -4.1867    1.4329   -0.5789 C   0  0  0  0  0  0  0  0  0  0  0  0
   -5.2308    0.8661   -1.3236 C   0  0  0  0  0  0  0  0  0  0  0  0
   -6.2237    1.7340   -1.9732 N   0  0  0  0  0  4  0  0  0  0  0  0
   -5.9768    2.9448   -2.0316 O   0  0  0  0  0  0  0  0  0  0  0  0
   -7.2444    1.2033   -2.4272 O   0  0  0  0  0  1  0  0  0  0  0  0
   -5.3527   -0.5218   -1.4461 C   0  0  0  0  0  0  0  0  0  0  0  0
   -4.4160   -1.3431   -0.8212 C   0  0  0  0  0  0  0  0  0  0  0  0
   -4.5785   -3.0499   -0.9863 Cl  0  0  0  0  0  0  0  0  0  0  0  0
   -0.1456   -0.7565    0.5821 C   0  0  0  0  0  0  0  0  0  0  0  0
   -0.3727   -0.1621    1.6298 O   0  0  0  0  0  0  0  0  0  0  0  0
    1.0362   -0.6857   -0.1484 N   0  0  0  0  0  0  0  0  0  0  0  0
    2.2230   -0.0072    0.2050 C   0  0  0  0  0  0  0  0  0  0  0  0
    2.4106    0.6609    1.4160 C   0  0  0  0  0  0  0  0  0  0  0  0
    3.6269    1.3022    1.6950 C   0  0  0  0  0  0  0  0  0  0  0  0
    4.6750    1.2713    0.7699 C   0  0  0  0  0  0  0  0  0  0  0  0
    5.9444    1.9657    1.1107 C   0  0  0  0  0  0  0  0  0  0  0  0
    7.0849    1.5360    0.4869 N   0  0  0  0  0  0  0  0  0  0  0  0
    5.9846    2.8663    1.9384 O   0  0  0  0  0  0  0  0  0  0  0  0
    4.4924    0.6109   -0.4493 C   0  0  0  0  0  0  0  0  0  0  0  0
    3.2739   -0.0230   -0.7277 C   0  0  0  0  0  0  0  0  0  0  0  0
   -0.6627   -3.4390    1.0525 H   0  0  0  0  0  0  0  0  0  0  0  0
    0.2249   -3.2820   -0.4752 H   0  0  0  0  0  0  0  0  0  0  0  0
   -1.4789   -3.7803   -0.4686 H   0  0  0  0  0  0  0  0  0  0  0  0
   -1.2869   -1.3905   -1.1448 H   0  0  0  0  0  0  0  0  0  0  0  0
   -2.4725    1.0402    0.6622 H   0  0  0  0  0  0  0  0  0  0  0  0
   -4.0976    2.5095   -0.4618 H   0  0  0  0  0  0  0  0  0  0  0  0
   -6.1681   -0.9666   -2.0131 H   0  0  0  0  0  0  0  0  0  0  0  0
    1.0468   -1.1493   -1.0478 H   0  0  0  0  0  0  0  0  0  0  0  0
    1.6393    0.6978    2.1776 H   0  0  0  0  0  0  0  0  0  0  0  0
    3.7503    1.8198    2.6443 H   0  0  0  0  0  0  0  0  0  0  0  0
    7.1433    0.6308    0.0456 H   0  0  0  0  0  0  0  0  0  0  0  0
    7.9503    1.9383    0.8325 H   0  0  0  0  0  0  0  0  0  0  0  0
    5.2725    0.6077   -1.2066 H   0  0  0  0  0  0  0  0  0  0  0  0
    3.1593   -0.5213   -1.6864 H   0  0  0  0  0  0  0  0  0  0  0  0
  1  2  1  0
  2  3  1  0
  3  4  1  0
  4  5  2  0
  5  6  1  0
  6  7  2  0
  7  8  1  0
  8  9  2  0
  8 10  1  0
  7 11  1  0
 11 12  2  0
 12 13  1  0
  2 14  1  0
 14 15  2  0
 14 16  1  0
 16 17  1  0
 17 18  2  0
 18 19  1  0
 19 20  2  0
 20 21  1  0
 21 22  1  0
 21 23  2  0
 20 24  1  0
 24 25  2  0
 12  4  1  0
 25 17  1  0
  1 26  1  0
  1 27  1  0
  1 28  1  0
  2 29  1  0
  5 30  1  0
  6 31  1  0
 11 32  1  0
 16 33  1  0
 18 34  1  0
 19 35  1  0
 22 36  1  0
 22 37  1  0
 24 38  1  0
 25 39  1  0
M  CHG  2   8   1  10  -1
M  END
$$$$
