
     RDKit          3D

 39 40  0  0  0  0  0  0  0  0999 V2000
   -1.5284    0.4176   -2.3410 C   0  0  0  0  0  0  0  0  0  0  0  0
   -2.4221    0.1737   -1.1417 C   0  0  0  0  0  0  0  0  0  0  0  0
   -1.9325   -0.0673    0.0898 C   0  0  0  0  0  0  0  0  0  0  0  0
   -0.4765   -0.1798    0.3680 C   0  0  0  0  0  0  0  0  0  0  0  0
    0.3274   -0.9098   -0.3420 N   0  0  0  0  0  0  0  0  0  0  0  0
    1.6558   -0.8764    0.0003 N   0  0  0  0  0  0  0  0  0  0  0  0
    2.3567    0.2866    0.2969 C   0  0  0  0  0  0  0  0  0  0  0  0
    1.8404    1.3923    0.4490 O   0  0  0  0  0  0  0  0  0  0  0  0
    3.8443    0.1525    0.4239 C   0  0  0  0  0  0  0  0  0  0  0  0
    4.5453    1.2659    0.9181 C   0  0  0  0  0  0  0  0  0  0  0  0
    5.9307    1.2179    1.0663 C   0  0  0  0  0  0  0  0  0  0  0  0
    6.8569    2.7233    1.7363 Br  0  0  0  0  0  0  0  0  0  0  0  0
    6.6398    0.0690    0.7247 C   0  0  0  0  0  0  0  0  0  0  0  0
    5.9588   -1.0431    0.2286 C   0  0  0  0  0  0  0  0  0  0  0  0
    4.5690   -1.0005    0.0780 C   0  0  0  0  0  0  0  0  0  0  0  0
    3.9304   -2.1037   -0.4258 O   0  0  0  0  0  0  0  0  0  0  0  0
   -2.8611   -0.1701    1.2373 C   0  0  0  0  0  0  0  0  0  0  0  0
   -2.4112   -0.2568    2.3798 O   0  0  0  0  0  0  0  0  0  0  0  0
   -4.2092   -0.1617    0.9485 N   0  0  0  0  0  0  0  0  0  0  0  0
   -5.1467   -0.2915    2.0482 C   0  0  0  0  0  0  0  0  0  0  0  0
   -4.7339    0.0944   -0.3090 C   0  0  0  0  0  0  0  0  0  0  0  0
   -5.9484    0.2019   -0.4913 O   0  0  0  0  0  0  0  0  0  0  0  0
   -3.8063    0.2370   -1.3443 N   0  0  0  0  0  0  0  0  0  0  0  0
   -4.3471    0.4811   -2.6812 C   0  0  0  0  0  0  0  0  0  0  0  0
   -1.8704    1.2826   -2.9191 H   0  0  0  0  0  0  0  0  0  0  0  0
   -0.4955    0.6564   -2.0761 H   0  0  0  0  0  0  0  0  0  0  0  0
   -1.5193   -0.4613   -2.9940 H   0  0  0  0  0  0  0  0  0  0  0  0
   -0.1447    0.3554    1.2761 H   0  0  0  0  0  0  0  0  0  0  0  0
    2.2046   -1.6591   -0.3574 H   0  0  0  0  0  0  0  0  0  0  0  0
    4.0041    2.1708    1.1898 H   0  0  0  0  0  0  0  0  0  0  0  0
    7.7205    0.0313    0.8400 H   0  0  0  0  0  0  0  0  0  0  0  0
    6.5291   -1.9295   -0.0353 H   0  0  0  0  0  0  0  0  0  0  0  0
    4.5902   -2.7936   -0.6224 H   0  0  0  0  0  0  0  0  0  0  0  0
   -5.4705    0.7113    2.3453 H   0  0  0  0  0  0  0  0  0  0  0  0
   -4.6932   -0.7896    2.9099 H   0  0  0  0  0  0  0  0  0  0  0  0
   -6.0247   -0.8651    1.7353 H   0  0  0  0  0  0  0  0  0  0  0  0
   -5.4277    0.3196   -2.7273 H   0  0  0  0  0  0  0  0  0  0  0  0
   -3.8858   -0.2021   -3.4009 H   0  0  0  0  0  0  0  0  0  0  0  0
   -4.1486    1.5203   -2.9608 H   0  0  0  0  0  0  0  0  0  0  0  0
  1  2  1  0
  2  3  2  0
  3  4  1  0
  4  5  2  3
  5  6  1  0
  6  7  1  0
  7  8  2  0
  7  9  1  0
  9 10  2  0
 10 11  1  0
 11 12  1  0
 11 13  2  0
 13 14  1  0
 14 15  2  0
 15 16  1  0
  3 17  1  0
 17 18  2  0
 17 19  1  0
 19 20  1  0
 19 21  1  0
 21 22  2  0
 21 23  1  0
 23 24  1  0
 23  2  1  0
 15  9  1  0
  1 25  1  0
  1 26  1  0
  1 27  1  0
  4 28  1  0
  6 29  1  0
 10 30  1  0
 13 31  1  0
 14 32  1  0
 16 33  1  0
 20 34  1  0
 20 35  1  0
 20 36  1  0
 24 37  1  0
 24 38  1  0
 24 39  1  0
M  END
$$$$
