
     RDKit          3D

 55 59  0  0  0  0  0  0  0  0999 V2000
    6.3453    1.8980    4.2485 C   0  0  0  0  0  0  0  0  0  0  0  0
    5.0878    1.4265    3.7819 O   0  0  0  0  0  0  0  0  0  0  0  0
    4.6459    1.9186    2.5848 C   0  0  0  0  0  0  0  0  0  0  0  0
    5.3495    2.7806    1.7434 C   0  0  0  0  0  0  0  0  0  0  0  0
    4.7769    3.2124    0.5442 C   0  0  0  0  0  0  0  0  0  0  0  0
    3.5032    2.7764    0.1762 C   0  0  0  0  0  0  0  0  0  0  0  0
    2.7932    1.8969    1.0017 C   0  0  0  0  0  0  0  0  0  0  0  0
    1.4594    1.4249    0.6431 C   0  0  0  0  0  0  0  0  0  0  0  0
    0.3922    1.4815    1.4208 N   0  0  0  0  0  0  0  0  0  0  0  0
   -0.6784    0.9629    0.7345 N   0  0  0  0  0  0  0  0  0  0  0  0
   -0.2420    0.5717   -0.4360 C   0  0  0  0  0  0  0  0  0  0  0  0
   -1.1940   -0.1628   -1.6724 S   0  0  0  0  0  0  0  0  0  0  0  0
   -1.7574   -1.6981   -0.8236 C   0  0  0  0  0  0  0  0  0  0  0  0
   -2.6500   -1.4211    0.3985 C   0  0  0  0  0  0  0  0  0  0  0  0
   -2.4715   -2.0040    1.4718 O   0  0  0  0  0  0  0  0  0  0  0  0
   -3.7947   -0.5012    0.2826 C   0  0  0  0  0  0  0  0  0  0  0  0
   -4.2347    0.2607    1.3528 C   0  0  0  0  0  0  0  0  0  0  0  0
   -5.2783    1.0357    0.9428 N   0  0  0  0  0  0  0  0  0  0  0  0
   -5.5754    0.7702   -0.3723 C   0  0  0  0  0  0  0  0  0  0  0  0
   -6.5779    1.3159   -1.1844 C   0  0  0  0  0  0  0  0  0  0  0  0
   -6.6776    0.8534   -2.4970 C   0  0  0  0  0  0  0  0  0  0  0  0
   -5.8100   -0.1220   -2.9741 C   0  0  0  0  0  0  0  0  0  0  0  0
   -4.8114   -0.6564   -2.1491 C   0  0  0  0  0  0  0  0  0  0  0  0
   -4.6705   -0.1996   -0.8185 C   0  0  0  0  0  0  0  0  0  0  0  0
   -0.5652   -2.6358   -0.6101 C   0  0  0  0  0  0  0  0  0  0  0  0
    0.2611   -2.5625    0.5241 C   0  0  0  0  0  0  0  0  0  0  0  0
    1.3742   -3.3952    0.6560 C   0  0  0  0  0  0  0  0  0  0  0  0
    1.6847   -4.3112   -0.3452 C   0  0  0  0  0  0  0  0  0  0  0  0
    0.8834   -4.3953   -1.4806 C   0  0  0  0  0  0  0  0  0  0  0  0
   -0.2300   -3.5629   -1.6148 C   0  0  0  0  0  0  0  0  0  0  0  0
    1.0996    0.8110   -0.5388 N   0  0  0  0  0  0  0  0  0  0  0  0
    1.9764    0.4220   -1.6133 C   0  0  0  0  0  0  0  0  0  0  0  0
    3.3700    1.4861    2.2105 C   0  0  0  0  0  0  0  0  0  0  0  0
    6.5324    1.4410    5.2250 H   0  0  0  0  0  0  0  0  0  0  0  0
    7.1541    1.5914    3.5771 H   0  0  0  0  0  0  0  0  0  0  0  0
    6.3350    2.9844    4.3856 H   0  0  0  0  0  0  0  0  0  0  0  0
    6.3414    3.1413    1.9948 H   0  0  0  0  0  0  0  0  0  0  0  0
    5.3226    3.8983   -0.0993 H   0  0  0  0  0  0  0  0  0  0  0  0
    3.0651    3.1456   -0.7479 H   0  0  0  0  0  0  0  0  0  0  0  0
   -2.4158   -2.2161   -1.5299 H   0  0  0  0  0  0  0  0  0  0  0  0
   -3.8570    0.3258    2.3660 H   0  0  0  0  0  0  0  0  0  0  0  0
   -5.7710    1.7018    1.5218 H   0  0  0  0  0  0  0  0  0  0  0  0
   -7.2611    2.0714   -0.8094 H   0  0  0  0  0  0  0  0  0  0  0  0
   -7.4471    1.2575   -3.1506 H   0  0  0  0  0  0  0  0  0  0  0  0
   -5.9079   -0.4768   -3.9972 H   0  0  0  0  0  0  0  0  0  0  0  0
   -4.1642   -1.4244   -2.5567 H   0  0  0  0  0  0  0  0  0  0  0  0
    0.0452   -1.8571    1.3272 H   0  0  0  0  0  0  0  0  0  0  0  0
    1.9930   -3.3294    1.5477 H   0  0  0  0  0  0  0  0  0  0  0  0
    2.5479   -4.9625   -0.2366 H   0  0  0  0  0  0  0  0  0  0  0  0
    1.1243   -5.1113   -2.2622 H   0  0  0  0  0  0  0  0  0  0  0  0
   -0.8342   -3.6427   -2.5165 H   0  0  0  0  0  0  0  0  0  0  0  0
    2.9928    0.2875   -1.2365 H   0  0  0  0  0  0  0  0  0  0  0  0
    1.9539    1.2056   -2.3745 H   0  0  0  0  0  0  0  0  0  0  0  0
    1.6483   -0.5299   -2.0369 H   0  0  0  0  0  0  0  0  0  0  0  0
    2.8188    0.8212    2.8741 H   0  0  0  0  0  0  0  0  0  0  0  0
  1  2  1  0
  2  3  1  0
  3  4  2  0
  4  5  1  0
  5  6  2  0
  6  7  1  0
  7  8  1  0
  8  9  2  0
  9 10  1  0
 10 11  2  0
 11 12  1  0
 12 13  1  0
 13 14  1  0
 14 15  2  0
 14 16  1  0
 16 17  2  0
 17 18  1  0
 18 19  1  0
 19 20  2  0
 20 21  1  0
 21 22  2  0
 22 23  1  0
 23 24  2  0
 13 25  1  0
 25 26  2  0
 26 27  1  0
 27 28  2  0
 28 29  1  0
 29 30  2  0
 11 31  1  0
 31 32  1  0
  7 33  2  0
 33  3  1  0
 31  8  1  0
 24 16  1  0
 30 25  1  0
 24 19  1  0
  1 34  1  0
  1 35  1  0
  1 36  1  0
  4 37  1  0
  5 38  1  0
  6 39  1  0
 13 40  1  0
 17 41  1  0
 18 42  1  0
 20 43  1  0
 21 44  1  0
 22 45  1  0
 23 46  1  0
 26 47  1  0
 27 48  1  0
 28 49  1  0
 29 50  1  0
 30 51  1  0
 32 52  1  0
 32 53  1  0
 32 54  1  0
 33 55  1  0
M  END
$$$$
