
     RDKit          3D

 45 47  0  0  0  0  0  0  0  0999 V2000
    7.8087    2.3314   -0.2866 C   0  0  0  0  0  0  0  0  0  0  0  0
    7.0319    1.2059    0.3793 C   0  0  0  0  0  0  0  0  0  0  0  0
    6.9988   -0.0457   -0.5023 C   0  0  0  0  0  0  0  0  0  0  0  0
    6.3030   -1.2351    0.1650 C   0  0  0  0  0  0  0  0  0  0  0  0
    4.8365   -1.0224    0.3534 C   0  0  0  0  0  0  0  0  0  0  0  0
    4.2840   -0.5304    1.4433 N   0  0  0  0  0  0  0  0  0  0  0  0
    2.9105   -0.4489    1.3326 N   0  0  0  0  0  0  0  0  0  0  0  0
    2.4785   -0.8865    0.1705 C   0  0  0  0  0  0  0  0  0  0  0  0
    1.1483   -0.9015   -0.1529 N   0  0  0  0  0  0  0  0  0  0  0  0
    0.5725   -1.3292   -1.3253 C   0  0  0  0  0  0  0  0  0  0  0  0
    1.1491   -1.7832   -2.3091 O   0  0  0  0  0  0  0  0  0  0  0  0
   -0.9560   -1.2212   -1.3052 C   0  0  0  0  0  0  0  0  0  0  0  0
   -1.3966   -0.4611   -0.1809 O   0  0  0  0  0  0  0  0  0  0  0  0
   -2.7431   -0.2663   -0.0539 C   0  0  0  0  0  0  0  0  0  0  0  0
   -3.1149    0.5808    0.9940 C   0  0  0  0  0  0  0  0  0  0  0  0
   -4.4629    0.8677    1.2462 C   0  0  0  0  0  0  0  0  0  0  0  0
   -5.4694    0.3065    0.4555 C   0  0  0  0  0  0  0  0  0  0  0  0
   -6.9019    0.5590    0.6590 C   0  0  0  0  0  0  0  0  0  0  0  0
   -7.3592    1.4765    1.7541 C   0  0  0  0  0  0  0  0  0  0  0  0
   -7.7769   -0.0484   -0.1550 C   0  0  0  0  0  0  0  0  0  0  0  0
   -7.3794   -0.9526   -1.2444 C   0  0  0  0  0  0  0  0  0  0  0  0
   -8.2231   -1.4886   -1.9534 O   0  0  0  0  0  0  0  0  0  0  0  0
   -6.0225   -1.1585   -1.4231 O   0  0  0  0  0  0  0  0  0  0  0  0
   -5.0753   -0.5409   -0.5818 C   0  0  0  0  0  0  0  0  0  0  0  0
   -3.7334   -0.8329   -0.8494 C   0  0  0  0  0  0  0  0  0  0  0  0
    3.7071   -1.4304   -0.8751 S   0  0  0  0  0  0  0  0  0  0  0  0
    8.8475    2.0379   -0.4669 H   0  0  0  0  0  0  0  0  0  0  0  0
    7.3575    2.6045   -1.2459 H   0  0  0  0  0  0  0  0  0  0  0  0
    7.8131    3.2196    0.3518 H   0  0  0  0  0  0  0  0  0  0  0  0
    7.4961    0.9703    1.3438 H   0  0  0  0  0  0  0  0  0  0  0  0
    6.0141    1.5549    0.5830 H   0  0  0  0  0  0  0  0  0  0  0  0
    8.0296   -0.3399   -0.7350 H   0  0  0  0  0  0  0  0  0  0  0  0
    6.5141    0.1911   -1.4580 H   0  0  0  0  0  0  0  0  0  0  0  0
    6.4717   -2.1333   -0.4427 H   0  0  0  0  0  0  0  0  0  0  0  0
    6.7646   -1.4353    1.1401 H   0  0  0  0  0  0  0  0  0  0  0  0
    0.5349   -0.5363    0.5675 H   0  0  0  0  0  0  0  0  0  0  0  0
   -1.2608   -0.7268   -2.2350 H   0  0  0  0  0  0  0  0  0  0  0  0
   -1.3469   -2.2438   -1.2515 H   0  0  0  0  0  0  0  0  0  0  0  0
   -2.3495    1.0290    1.6242 H   0  0  0  0  0  0  0  0  0  0  0  0
   -4.6979    1.5340    2.0723 H   0  0  0  0  0  0  0  0  0  0  0  0
   -7.0528    1.0937    2.7337 H   0  0  0  0  0  0  0  0  0  0  0  0
   -6.9442    2.4810    1.6202 H   0  0  0  0  0  0  0  0  0  0  0  0
   -8.4502    1.5776    1.7726 H   0  0  0  0  0  0  0  0  0  0  0  0
   -8.8472    0.0943   -0.0571 H   0  0  0  0  0  0  0  0  0  0  0  0
   -3.5081   -1.5022   -1.6721 H   0  0  0  0  0  0  0  0  0  0  0  0
  1  2  1  0
  2  3  1  0
  3  4  1  0
  4  5  1  0
  5  6  2  0
  6  7  1  0
  7  8  2  0
  8  9  1  0
  9 10  1  0
 10 11  2  0
 10 12  1  0
 12 13  1  0
 13 14  1  0
 14 15  2  0
 15 16  1  0
 16 17  2  0
 17 18  1  0
 18 19  1  0
 18 20  2  0
 20 21  1  0
 21 22  2  0
 21 23  1  0
 23 24  1  0
 24 25  2  0
  8 26  1  0
 26  5  1  0
 25 14  1  0
 24 17  1  0
  1 27  1  0
  1 28  1  0
  1 29  1  0
  2 30  1  0
  2 31  1  0
  3 32  1  0
  3 33  1  0
  4 34  1  0
  4 35  1  0
  9 36  1  0
 12 37  1  0
 12 38  1  0
 15 39  1  0
 16 40  1  0
 19 41  1  0
 19 42  1  0
 19 43  1  0
 20 44  1  0
 25 45  1  0
M  END
$$$$
