
     RDKit          3D

 65 66  0  0  0  0  0  0  0  0999 V2000
   -4.1887    5.9108   -2.6576 C   0  0  0  0  0  0  0  0  0  0  0  0
   -4.6995    4.6927   -2.1309 O   0  0  0  0  0  0  0  0  0  0  0  0
   -3.7812    3.7670   -1.7210 C   0  0  0  0  0  0  0  0  0  0  0  0
   -4.3069    2.5054   -1.4379 C   0  0  0  0  0  0  0  0  0  0  0  0
   -3.4806    1.4685   -0.9901 C   0  0  0  0  0  0  0  0  0  0  0  0
   -2.1069    1.6787   -0.8164 C   0  0  0  0  0  0  0  0  0  0  0  0
   -1.1681    0.5949   -0.2826 C   0  0  0  0  0  0  0  0  0  0  0  0
   -1.6351   -0.8579   -0.5892 C   0  0  0  0  0  0  0  0  0  0  0  0
   -1.6491   -1.2829   -1.7453 O   0  0  0  0  0  0  0  0  0  0  0  0
   -2.1119   -1.5921    0.4782 N   0  0  0  0  0  0  0  0  0  0  0  0
   -2.6465   -2.9611    0.3857 C   0  0  0  0  0  0  0  0  0  0  0  0
   -3.8591   -3.0211   -0.5606 C   0  0  0  0  0  0  0  0  0  0  0  0
   -1.5588   -3.9393   -0.0911 C   0  0  0  0  0  0  0  0  0  0  0  0
   -3.1082   -3.4081    1.7861 C   0  0  0  0  0  0  0  0  0  0  0  0
   -0.7391    0.8295    1.1275 N   0  0  0  0  0  0  0  0  0  0  0  0
   -1.7076    1.3957    2.0894 C   0  0  0  0  0  0  0  0  0  0  0  0
   -1.8266    0.6221    3.4088 C   0  0  0  0  0  0  0  0  0  0  0  0
   -2.3108   -0.6958    3.1465 O   0  0  0  0  0  0  0  0  0  0  0  0
    0.5946    0.7591    1.5266 C   0  0  0  0  0  0  0  0  0  0  0  0
    0.9613    1.1574    2.6340 O   0  0  0  0  0  0  0  0  0  0  0  0
    1.6079    0.1893    0.5478 C   0  0  0  0  0  0  0  0  0  0  0  0
    2.9608   -0.0513    1.2148 C   0  0  0  0  0  0  0  0  0  0  0  0
    4.0308   -0.4088    0.2025 C   0  0  0  0  0  0  0  0  0  0  0  0
    3.8135   -0.4293   -1.0032 O   0  0  0  0  0  0  0  0  0  0  0  0
    5.2368   -0.6823    0.8058 N   0  0  0  0  0  0  0  0  0  0  0  0
    6.4064   -0.9873    0.1453 C   0  0  0  0  0  0  0  0  0  0  0  0
    6.6648   -1.0581   -1.2409 C   0  0  0  0  0  0  0  0  0  0  0  0
    7.9928   -1.3991   -1.3270 C   0  0  0  0  0  0  0  0  0  0  0  0
    8.9183   -1.6408   -2.4471 C   0  0  0  0  0  0  0  0  0  0  0  0
    8.5009   -1.5237   -0.0719 O   0  0  0  0  0  0  0  0  0  0  0  0
    7.5070   -1.2651    0.8540 N   0  0  0  0  0  0  0  0  0  0  0  0
   -1.5870    2.9547   -1.0978 C   0  0  0  0  0  0  0  0  0  0  0  0
   -2.4156    3.9889   -1.5466 C   0  0  0  0  0  0  0  0  0  0  0  0
   -5.0388    6.5226   -2.9733 H   0  0  0  0  0  0  0  0  0  0  0  0
   -3.6396    6.4774   -1.9008 H   0  0  0  0  0  0  0  0  0  0  0  0
   -3.5694    5.7252   -3.5394 H   0  0  0  0  0  0  0  0  0  0  0  0
   -5.3714    2.3241   -1.5727 H   0  0  0  0  0  0  0  0  0  0  0  0
   -3.9345    0.5022   -0.7835 H   0  0  0  0  0  0  0  0  0  0  0  0
   -0.2758    0.6834   -0.9123 H   0  0  0  0  0  0  0  0  0  0  0  0
   -2.0987   -1.1504    1.4028 H   0  0  0  0  0  0  0  0  0  0  0  0
   -3.5768   -2.8343   -1.6018 H   0  0  0  0  0  0  0  0  0  0  0  0
   -4.3360   -4.0077   -0.5368 H   0  0  0  0  0  0  0  0  0  0  0  0
   -4.6131   -2.2730   -0.2848 H   0  0  0  0  0  0  0  0  0  0  0  0
   -1.2188   -3.7201   -1.1118 H   0  0  0  0  0  0  0  0  0  0  0  0
   -0.6753   -3.8933    0.5560 H   0  0  0  0  0  0  0  0  0  0  0  0
   -1.9254   -4.9727   -0.0855 H   0  0  0  0  0  0  0  0  0  0  0  0
   -2.2751   -3.4082    2.4961 H   0  0  0  0  0  0  0  0  0  0  0  0
   -3.5243   -4.4221    1.7641 H   0  0  0  0  0  0  0  0  0  0  0  0
   -3.8796   -2.7368    2.1807 H   0  0  0  0  0  0  0  0  0  0  0  0
   -1.4122    2.4321    2.2885 H   0  0  0  0  0  0  0  0  0  0  0  0
   -2.7022    1.4019    1.6371 H   0  0  0  0  0  0  0  0  0  0  0  0
   -0.8814    0.5379    3.9481 H   0  0  0  0  0  0  0  0  0  0  0  0
   -2.5494    1.1219    4.0623 H   0  0  0  0  0  0  0  0  0  0  0  0
   -2.2571   -1.1742    3.9959 H   0  0  0  0  0  0  0  0  0  0  0  0
    1.7318    0.9132   -0.2657 H   0  0  0  0  0  0  0  0  0  0  0  0
    1.2372   -0.7545    0.1356 H   0  0  0  0  0  0  0  0  0  0  0  0
    2.8779   -0.8613    1.9504 H   0  0  0  0  0  0  0  0  0  0  0  0
    3.2967    0.8506    1.7415 H   0  0  0  0  0  0  0  0  0  0  0  0
    5.3210   -0.6956    1.8151 H   0  0  0  0  0  0  0  0  0  0  0  0
    5.9879   -0.9025   -2.0668 H   0  0  0  0  0  0  0  0  0  0  0  0
    8.6682   -2.5771   -2.9592 H   0  0  0  0  0  0  0  0  0  0  0  0
    8.8587   -0.8243   -3.1748 H   0  0  0  0  0  0  0  0  0  0  0  0
    9.9552   -1.7076   -2.0985 H   0  0  0  0  0  0  0  0  0  0  0  0
   -0.5256    3.1549   -0.9618 H   0  0  0  0  0  0  0  0  0  0  0  0
   -1.9629    4.9575   -1.7406 H   0  0  0  0  0  0  0  0  0  0  0  0
  1  2  1  0
  2  3  1  0
  3  4  2  0
  4  5  1  0
  5  6  2  0
  6  7  1  0
  7  8  1  0
  8  9  2  0
  8 10  1  0
 10 11  1  0
 11 12  1  0
 11 13  1  0
 11 14  1  0
  7 15  1  0
 15 16  1  0
 16 17  1  0
 17 18  1  0
 15 19  1  0
 19 20  2  0
 19 21  1  0
 21 22  1  0
 22 23  1  0
 23 24  2  0
 23 25  1  0
 25 26  1  0
 26 27  1  0
 27 28  2  0
 28 29  1  0
 28 30  1  0
 30 31  1  0
  6 32  1  0
 32 33  2  0
 33  3  1  0
 31 26  2  0
  1 34  1  0
  1 35  1  0
  1 36  1  0
  4 37  1  0
  5 38  1  0
  7 39  1  0
 10 40  1  0
 12 41  1  0
 12 42  1  0
 12 43  1  0
 13 44  1  0
 13 45  1  0
 13 46  1  0
 14 47  1  0
 14 48  1  0
 14 49  1  0
 16 50  1  0
 16 51  1  0
 17 52  1  0
 17 53  1  0
 18 54  1  0
 21 55  1  0
 21 56  1  0
 22 57  1  0
 22 58  1  0
 25 59  1  0
 27 60  1  0
 29 61  1  0
 29 62  1  0
 29 63  1  0
 32 64  1  0
 33 65  1  0
M  END
$$$$
