
     RDKit          3D

 30 31  0  0  0  0  0  0  0  0999 V2000
   -4.6435    1.7047   -1.1465 C   0  0  0  0  0  0  0  0  0  0  0  0
   -4.3263    0.4187   -0.4860 C   0  0  0  0  0  0  0  0  0  0  0  0
   -5.3947   -0.3418   -0.1181 O   0  0  0  0  0  0  0  0  0  0  0  0
   -4.9056   -1.4633    0.4618 C   0  0  0  0  0  0  0  0  0  0  0  0
   -3.5315   -1.4366    0.4730 C   0  0  0  0  0  0  0  0  0  0  0  0
   -3.1369   -0.2093   -0.1447 C   0  0  0  0  0  0  0  0  0  0  0  0
   -1.8109    0.3371   -0.3991 C   0  0  0  0  0  0  0  0  0  0  0  0
   -1.6259    1.4222   -0.9482 O   0  0  0  0  0  0  0  0  0  0  0  0
   -0.7634   -0.4552    0.0233 N   0  0  0  0  0  0  0  0  0  0  0  0
    0.5487   -0.0183   -0.1757 N   0  0  0  0  0  0  0  0  0  0  0  0
    1.5775   -0.8286    0.2550 C   0  0  0  0  0  0  0  0  0  0  0  0
    1.3648   -1.9104    0.8018 O   0  0  0  0  0  0  0  0  0  0  0  0
    2.9689   -0.3512    0.0367 C   0  0  0  0  0  0  0  0  0  0  0  0
    4.0289   -1.1631    0.4688 C   0  0  0  0  0  0  0  0  0  0  0  0
    5.3538   -0.7565    0.2854 C   0  0  0  0  0  0  0  0  0  0  0  0
    5.6316    0.4632   -0.3305 C   0  0  0  0  0  0  0  0  0  0  0  0
    4.5851    1.2761   -0.7629 C   0  0  0  0  0  0  0  0  0  0  0  0
    3.2650    0.8668   -0.5781 C   0  0  0  0  0  0  0  0  0  0  0  0
    2.2893    1.6804   -1.0095 F   0  0  0  0  0  0  0  0  0  0  0  0
   -4.2410    2.5419   -0.5682 H   0  0  0  0  0  0  0  0  0  0  0  0
   -5.7248    1.8480   -1.2390 H   0  0  0  0  0  0  0  0  0  0  0  0
   -4.2125    1.7355   -2.1518 H   0  0  0  0  0  0  0  0  0  0  0  0
   -5.6456   -2.1712    0.8089 H   0  0  0  0  0  0  0  0  0  0  0  0
   -2.9017   -2.2144    0.8805 H   0  0  0  0  0  0  0  0  0  0  0  0
   -0.8722   -1.3561    0.4798 H   0  0  0  0  0  0  0  0  0  0  0  0
    0.6771    0.8859   -0.6338 H   0  0  0  0  0  0  0  0  0  0  0  0
    3.8271   -2.1183    0.9514 H   0  0  0  0  0  0  0  0  0  0  0  0
    6.1679   -1.3939    0.6243 H   0  0  0  0  0  0  0  0  0  0  0  0
    6.6625    0.7793   -0.4731 H   0  0  0  0  0  0  0  0  0  0  0  0
    4.7886    2.2284   -1.2441 H   0  0  0  0  0  0  0  0  0  0  0  0
  1  2  1  0
  2  3  1  0
  3  4  1  0
  4  5  2  0
  5  6  1  0
  6  7  1  0
  7  8  2  0
  7  9  1  0
  9 10  1  0
 10 11  1  0
 11 12  2  0
 11 13  1  0
 13 14  2  0
 14 15  1  0
 15 16  2  0
 16 17  1  0
 17 18  2  0
 18 19  1  0
  6  2  2  0
 18 13  1  0
  1 20  1  0
  1 21  1  0
  1 22  1  0
  4 23  1  0
  5 24  1  0
  9 25  1  0
 10 26  1  0
 14 27  1  0
 15 28  1  0
 16 29  1  0
 17 30  1  0
M  END
$$$$
