
     RDKit          3D

 51 53  0  0  0  0  0  0  0  0999 V2000
    8.1246   -0.8484    2.2403 C   0  0  0  0  0  0  0  0  0  0  0  0
    8.7279   -0.4293    1.0219 O   0  0  0  0  0  0  0  0  0  0  0  0
    7.8859   -0.1093   -0.0089 C   0  0  0  0  0  0  0  0  0  0  0  0
    8.5315    0.3003   -1.1771 C   0  0  0  0  0  0  0  0  0  0  0  0
    7.7945    0.6555   -2.3042 C   0  0  0  0  0  0  0  0  0  0  0  0
    6.4017    0.6017   -2.2661 C   0  0  0  0  0  0  0  0  0  0  0  0
    5.7386    0.1931   -1.1029 C   0  0  0  0  0  0  0  0  0  0  0  0
    4.3332    0.1651   -1.1459 N   0  0  0  0  0  0  0  0  0  0  0  0
    3.4583   -0.1903   -0.1410 C   0  0  0  0  0  0  0  0  0  0  0  0
    3.6963   -0.5533    1.0023 O   0  0  0  0  0  0  0  0  0  0  0  0
    1.9880   -0.0888   -0.5925 C   0  0  0  0  0  0  0  0  0  0  0  0
    1.7437    0.2998   -1.7277 O   0  0  0  0  0  0  0  0  0  0  0  0
    1.1085   -0.4597    0.4092 N   0  0  0  0  0  0  0  0  0  0  0  0
   -0.2584   -0.3580    0.3974 N   0  0  0  0  0  0  0  0  0  0  0  0
   -0.8878   -0.3246   -0.7319 C   0  0  0  0  0  0  0  0  0  0  0  0
   -2.3381   -0.1948   -0.7549 C   0  0  0  0  0  0  0  0  0  0  0  0
   -3.1407   -0.2937   -1.9174 C   0  0  0  0  0  0  0  0  0  0  0  0
   -4.4652   -0.1530   -1.5555 C   0  0  0  0  0  0  0  0  0  0  0  0
   -5.6532   -0.2952   -2.4462 C   0  0  0  0  0  0  0  0  0  0  0  0
   -4.5136    0.0404   -0.1781 N   0  0  0  0  0  0  0  0  0  0  0  0
   -5.6982    0.1564    0.6080 C   0  0  0  0  0  0  0  0  0  0  0  0
   -5.8144   -0.5627    1.8041 C   0  0  0  0  0  0  0  0  0  0  0  0
   -6.9781   -0.4606    2.5709 C   0  0  0  0  0  0  0  0  0  0  0  0
   -8.0292    0.3591    2.1506 C   0  0  0  0  0  0  0  0  0  0  0  0
   -9.4374    0.4352    3.1481 Cl  0  0  0  0  0  0  0  0  0  0  0  0
   -7.9135    1.0802    0.9570 C   0  0  0  0  0  0  0  0  0  0  0  0
   -9.1674    2.1210    0.3803 Cl  0  0  0  0  0  0  0  0  0  0  0  0
   -6.7499    0.9783    0.1859 C   0  0  0  0  0  0  0  0  0  0  0  0
   -3.2030    0.0717    0.3028 C   0  0  0  0  0  0  0  0  0  0  0  0
   -2.8506    0.4238    1.7149 C   0  0  0  0  0  0  0  0  0  0  0  0
    6.4884   -0.1619    0.0242 C   0  0  0  0  0  0  0  0  0  0  0  0
    7.5021   -0.0547    2.6663 H   0  0  0  0  0  0  0  0  0  0  0  0
    8.9266   -1.0607    2.9539 H   0  0  0  0  0  0  0  0  0  0  0  0
    7.5516   -1.7709    2.1001 H   0  0  0  0  0  0  0  0  0  0  0  0
    9.6178    0.3420   -1.2057 H   0  0  0  0  0  0  0  0  0  0  0  0
    8.3055    0.9734   -3.2091 H   0  0  0  0  0  0  0  0  0  0  0  0
    5.8454    0.8834   -3.1567 H   0  0  0  0  0  0  0  0  0  0  0  0
    3.8829    0.4439   -2.0158 H   0  0  0  0  0  0  0  0  0  0  0  0
    1.5200   -0.6283    1.3285 H   0  0  0  0  0  0  0  0  0  0  0  0
   -0.4059   -0.4358   -1.7157 H   0  0  0  0  0  0  0  0  0  0  0  0
   -2.7899   -0.4851   -2.9247 H   0  0  0  0  0  0  0  0  0  0  0  0
   -5.3765   -0.8135   -3.3713 H   0  0  0  0  0  0  0  0  0  0  0  0
   -6.4459   -0.8849   -1.9762 H   0  0  0  0  0  0  0  0  0  0  0  0
   -6.0465    0.6857   -2.7283 H   0  0  0  0  0  0  0  0  0  0  0  0
   -5.0261   -1.2353    2.1359 H   0  0  0  0  0  0  0  0  0  0  0  0
   -7.0614   -1.0309    3.4935 H   0  0  0  0  0  0  0  0  0  0  0  0
   -6.6601    1.5778   -0.7160 H   0  0  0  0  0  0  0  0  0  0  0  0
   -2.6798   -0.4826    2.3036 H   0  0  0  0  0  0  0  0  0  0  0  0
   -3.6246    1.0240    2.2016 H   0  0  0  0  0  0  0  0  0  0  0  0
   -1.9424    1.0339    1.7491 H   0  0  0  0  0  0  0  0  0  0  0  0
    5.9849   -0.4795    0.9278 H   0  0  0  0  0  0  0  0  0  0  0  0
  1  2  1  0
  2  3  1  0
  3  4  2  0
  4  5  1  0
  5  6  2  0
  6  7  1  0
  7  8  1  0
  8  9  1  0
  9 10  2  0
  9 11  1  0
 11 12  2  0
 11 13  1  0
 13 14  1  0
 14 15  2  3
 15 16  1  0
 16 17  1  0
 17 18  2  0
 18 19  1  0
 18 20  1  0
 20 21  1  0
 21 22  2  0
 22 23  1  0
 23 24  2  0
 24 25  1  0
 24 26  1  0
 26 27  1  0
 26 28  2  0
 20 29  1  0
 29 30  1  0
  7 31  2  0
 31  3  1  0
 29 16  2  0
 28 21  1  0
  1 32  1  0
  1 33  1  0
  1 34  1  0
  4 35  1  0
  5 36  1  0
  6 37  1  0
  8 38  1  0
 13 39  1  0
 15 40  1  0
 17 41  1  0
 19 42  1  0
 19 43  1  0
 19 44  1  0
 22 45  1  0
 23 46  1  0
 28 47  1  0
 30 48  1  0
 30 49  1  0
 30 50  1  0
 31 51  1  0
M  END
$$$$
