
     RDKit          3D

 46 49  0  0  0  0  0  0  0  0999 V2000
    3.3533   -1.4059    0.2325 O   0  0  0  0  0  0  0  0  0  0  0  0
    2.9663   -1.7416   -0.8829 C   0  0  0  0  0  0  0  0  0  0  0  0
    2.4291   -3.1473   -1.1502 C   0  0  0  0  0  0  0  0  0  0  0  0
    0.9403   -3.4449   -0.1532 S   0  0  0  0  0  0  0  0  0  0  0  0
    0.0630   -2.0117   -0.5693 C   0  0  0  0  0  0  0  0  0  0  0  0
   -0.1946   -1.6355   -1.7965 N   0  0  0  0  0  0  0  0  0  0  0  0
   -0.6805   -0.3598   -1.7415 N   0  0  0  0  0  0  0  0  0  0  0  0
   -0.7165    0.0187   -0.4807 C   0  0  0  0  0  0  0  0  0  0  0  0
   -1.1523    1.3596    0.0037 C   0  0  0  0  0  0  0  0  0  0  0  0
   -2.5799    1.3978    0.4755 C   0  0  0  0  0  0  0  0  0  0  0  0
   -3.6478    0.6016    0.1145 C   0  0  0  0  0  0  0  0  0  0  0  0
   -4.8461    0.9353    0.8081 C   0  0  0  0  0  0  0  0  0  0  0  0
   -4.6620    2.0000    1.6621 C   0  0  0  0  0  0  0  0  0  0  0  0
   -3.0646    2.6043    1.5965 S   0  0  0  0  0  0  0  0  0  0  0  0
   -0.2590   -1.0162    0.3080 N   0  0  0  0  0  0  0  0  0  0  0  0
   -0.0081   -0.9881    1.7412 C   0  0  0  0  0  0  0  0  0  0  0  0
   -1.2437   -1.2493    2.5167 C   0  0  0  0  0  0  0  0  0  0  0  0
   -1.9187   -0.5305    3.4799 C   0  0  0  0  0  0  0  0  0  0  0  0
   -3.0499   -1.3048    3.8354 C   0  0  0  0  0  0  0  0  0  0  0  0
   -2.9746   -2.4590    3.0878 C   0  0  0  0  0  0  0  0  0  0  0  0
   -1.8772   -2.4387    2.2871 O   0  0  0  0  0  0  0  0  0  0  0  0
    2.9003   -0.9185   -1.9967 N   0  0  0  0  0  0  0  0  0  0  0  0
    3.1454    0.4725   -2.0575 C   0  0  0  0  0  0  0  0  0  0  0  0
    3.7075    1.2061   -1.0055 C   0  0  0  0  0  0  0  0  0  0  0  0
    3.8530    2.5926   -1.1087 C   0  0  0  0  0  0  0  0  0  0  0  0
    3.4725    3.2475   -2.2782 C   0  0  0  0  0  0  0  0  0  0  0  0
    3.6519    4.9506   -2.3983 Cl  0  0  0  0  0  0  0  0  0  0  0  0
    2.9376    2.5356   -3.3463 C   0  0  0  0  0  0  0  0  0  0  0  0
    2.7755    1.1548   -3.2325 C   0  0  0  0  0  0  0  0  0  0  0  0
    2.1084    0.3017   -4.5868 Cl  0  0  0  0  0  0  0  0  0  0  0  0
    3.2026   -3.8695   -0.8891 H   0  0  0  0  0  0  0  0  0  0  0  0
    2.1842   -3.2893   -2.2064 H   0  0  0  0  0  0  0  0  0  0  0  0
   -0.4790    1.6989    0.7953 H   0  0  0  0  0  0  0  0  0  0  0  0
   -1.0362    2.0795   -0.8160 H   0  0  0  0  0  0  0  0  0  0  0  0
   -3.5784   -0.2021   -0.6129 H   0  0  0  0  0  0  0  0  0  0  0  0
   -5.7940    0.4179    0.6858 H   0  0  0  0  0  0  0  0  0  0  0  0
   -5.3946    2.4634    2.3102 H   0  0  0  0  0  0  0  0  0  0  0  0
    0.4110   -0.0020    1.9847 H   0  0  0  0  0  0  0  0  0  0  0  0
    0.7632   -1.7209    1.9932 H   0  0  0  0  0  0  0  0  0  0  0  0
   -1.6431    0.4424    3.8699 H   0  0  0  0  0  0  0  0  0  0  0  0
   -3.8213   -1.0539    4.5461 H   0  0  0  0  0  0  0  0  0  0  0  0
   -3.5948   -3.3439    3.0136 H   0  0  0  0  0  0  0  0  0  0  0  0
    2.3867   -1.2776   -2.8006 H   0  0  0  0  0  0  0  0  0  0  0  0
    4.0458    0.7287   -0.0928 H   0  0  0  0  0  0  0  0  0  0  0  0
    4.2747    3.1530   -0.2760 H   0  0  0  0  0  0  0  0  0  0  0  0
    2.6445    3.0486   -4.2596 H   0  0  0  0  0  0  0  0  0  0  0  0
  1  2  2  0
  2  3  1  0
  3  4  1  0
  4  5  1  0
  5  6  2  0
  6  7  1  0
  7  8  2  0
  8  9  1  0
  9 10  1  0
 10 11  2  0
 11 12  1  0
 12 13  2  0
 13 14  1  0
  8 15  1  0
 15 16  1  0
 16 17  1  0
 17 18  2  0
 18 19  1  0
 19 20  2  0
 20 21  1  0
  2 22  1  0
 22 23  1  0
 23 24  2  0
 24 25  1  0
 25 26  2  0
 26 27  1  0
 26 28  1  0
 28 29  2  0
 29 30  1  0
 15  5  1  0
 21 17  1  0
 29 23  1  0
 14 10  1  0
  3 31  1  0
  3 32  1  0
  9 33  1  0
  9 34  1  0
 11 35  1  0
 12 36  1  0
 13 37  1  0
 16 38  1  0
 16 39  1  0
 18 40  1  0
 19 41  1  0
 20 42  1  0
 22 43  1  0
 24 44  1  0
 25 45  1  0
 28 46  1  0
M  END
$$$$
