
     RDKit          3D

 31 33  0  0  0  0  0  0  0  0999 V2000
   -2.1188    3.1931   -0.3405 N   0  0  0  0  0  0  0  0  0  0  0  0
   -2.1349    2.3118    0.7056 C   0  0  0  0  0  0  0  0  0  0  0  0
   -2.7506    2.5533    1.7329 O   0  0  0  0  0  0  0  0  0  0  0  0
   -1.3768    1.0527    0.5092 C   0  0  0  0  0  0  0  0  0  0  0  0
   -0.0745    1.1570    0.0110 C   0  0  0  0  0  0  0  0  0  0  0  0
    0.6640    0.0005   -0.1722 C   0  0  0  0  0  0  0  0  0  0  0  0
    2.0503   -0.0012   -0.6873 C   0  0  0  0  0  0  0  0  0  0  0  0
    2.5182    0.9717   -1.5910 C   0  0  0  0  0  0  0  0  0  0  0  0
    3.8358    0.9551   -2.0626 C   0  0  0  0  0  0  0  0  0  0  0  0
    4.7155   -0.0383   -1.6436 C   0  0  0  0  0  0  0  0  0  0  0  0
    4.2782   -1.0176   -0.7581 C   0  0  0  0  0  0  0  0  0  0  0  0
    2.9611   -0.9985   -0.2894 C   0  0  0  0  0  0  0  0  0  0  0  0
    0.1477   -1.2155    0.1307 N   0  0  0  0  0  0  0  0  0  0  0  0
   -1.0990   -1.3178    0.6176 C   0  0  0  0  0  0  0  0  0  0  0  0
   -1.5802   -2.5875    0.9097 C   0  0  0  0  0  0  0  0  0  0  0  0
   -2.8671   -2.7952    1.4110 C   0  0  0  0  0  0  0  0  0  0  0  0
   -3.6953   -1.7045    1.6251 C   0  0  0  0  0  0  0  0  0  0  0  0
   -5.4413   -1.9649    2.2970 Br  0  0  0  0  0  0  0  0  0  0  0  0
   -3.2409   -0.4189    1.3420 C   0  0  0  0  0  0  0  0  0  0  0  0
   -1.9315   -0.2046    0.8364 C   0  0  0  0  0  0  0  0  0  0  0  0
   -1.8195    2.9258   -1.2681 H   0  0  0  0  0  0  0  0  0  0  0  0
   -2.7246    4.0004   -0.2564 H   0  0  0  0  0  0  0  0  0  0  0  0
    0.3590    2.1316   -0.1862 H   0  0  0  0  0  0  0  0  0  0  0  0
    1.8573    1.7524   -1.9592 H   0  0  0  0  0  0  0  0  0  0  0  0
    4.1718    1.7164   -2.7620 H   0  0  0  0  0  0  0  0  0  0  0  0
    5.7383   -0.0528   -2.0105 H   0  0  0  0  0  0  0  0  0  0  0  0
    4.9575   -1.8002   -0.4301 H   0  0  0  0  0  0  0  0  0  0  0  0
    2.6421   -1.7770    0.4028 H   0  0  0  0  0  0  0  0  0  0  0  0
   -0.9320   -3.4452    0.7399 H   0  0  0  0  0  0  0  0  0  0  0  0
   -3.2034   -3.8058    1.6264 H   0  0  0  0  0  0  0  0  0  0  0  0
   -3.9065    0.4235    1.5202 H   0  0  0  0  0  0  0  0  0  0  0  0
  1  2  1  0
  2  3  2  0
  2  4  1  0
  4  5  2  0
  5  6  1  0
  6  7  1  0
  7  8  2  0
  8  9  1  0
  9 10  2  0
 10 11  1  0
 11 12  2  0
  6 13  2  0
 13 14  1  0
 14 15  2  0
 15 16  1  0
 16 17  2  0
 17 18  1  0
 17 19  1  0
 19 20  2  0
 20  4  1  0
 12  7  1  0
 20 14  1  0
  1 21  1  0
  1 22  1  0
  5 23  1  0
  8 24  1  0
  9 25  1  0
 10 26  1  0
 11 27  1  0
 12 28  1  0
 15 29  1  0
 16 30  1  0
 19 31  1  0
M  END
$$$$
