
     RDKit          3D

 42 46  0  0  0  0  0  0  0  0999 V2000
    5.0064    1.9885    0.8868 C   0  0  0  0  0  0  0  0  0  0  0  0
    5.2243    0.7280    0.3351 C   0  0  0  0  0  0  0  0  0  0  0  0
    4.1597   -0.0109   -0.2019 C   0  0  0  0  0  0  0  0  0  0  0  0
    4.3711   -1.2773   -0.7556 C   0  0  0  0  0  0  0  0  0  0  0  0
    3.3068   -2.0060   -1.2855 C   0  0  0  0  0  0  0  0  0  0  0  0
    2.0060   -1.4862   -1.2767 C   0  0  0  0  0  0  0  0  0  0  0  0
    0.9485   -2.2266   -1.8074 C   0  0  0  0  0  0  0  0  0  0  0  0
   -0.3432   -1.7113   -1.8012 C   0  0  0  0  0  0  0  0  0  0  0  0
   -0.6185   -0.4387   -1.2668 C   0  0  0  0  0  0  0  0  0  0  0  0
   -2.0665    0.0255   -1.3207 C   0  0  0  0  0  0  0  0  0  0  0  0
   -2.9599   -0.7616   -0.4548 N   0  0  0  0  0  0  0  0  0  0  0  0
   -4.3822   -0.4347   -0.6893 C   0  0  0  0  0  0  0  0  0  0  0  0
   -4.9752    0.5136    0.3642 C   0  0  0  0  0  0  0  0  0  0  0  0
   -4.9049   -0.0088    1.6974 O   0  0  0  0  0  0  0  0  0  0  0  0
   -3.8120   -0.9195    1.8879 C   0  0  0  0  0  0  0  0  0  0  0  0
   -2.6166   -0.6040    0.9770 C   0  0  0  0  0  0  0  0  0  0  0  0
    0.4423    0.3329   -0.7112 C   0  0  0  0  0  0  0  0  0  0  0  0
    0.2738    1.6118   -0.1359 C   0  0  0  0  0  0  0  0  0  0  0  0
    1.3463    2.3338    0.3960 C   0  0  0  0  0  0  0  0  0  0  0  0
    2.6383    1.8074    0.3778 C   0  0  0  0  0  0  0  0  0  0  0  0
    3.7210    2.5249    0.9085 C   0  0  0  0  0  0  0  0  0  0  0  0
    2.8507    0.5297   -0.1841 C   0  0  0  0  0  0  0  0  0  0  0  0
    1.7591   -0.2051   -0.7248 C   0  0  0  0  0  0  0  0  0  0  0  0
    5.8383    2.5524    1.3004 H   0  0  0  0  0  0  0  0  0  0  0  0
    6.2346    0.3248    0.3276 H   0  0  0  0  0  0  0  0  0  0  0  0
    5.3681   -1.7114   -0.7790 H   0  0  0  0  0  0  0  0  0  0  0  0
    3.5050   -2.9891   -1.7072 H   0  0  0  0  0  0  0  0  0  0  0  0
    1.1173   -3.2147   -2.2290 H   0  0  0  0  0  0  0  0  0  0  0  0
   -1.1539   -2.3118   -2.2112 H   0  0  0  0  0  0  0  0  0  0  0  0
   -2.1736    1.0954   -1.1199 H   0  0  0  0  0  0  0  0  0  0  0  0
   -2.3823   -0.0949   -2.3669 H   0  0  0  0  0  0  0  0  0  0  0  0
   -4.5467   -0.0298   -1.6947 H   0  0  0  0  0  0  0  0  0  0  0  0
   -4.9356   -1.3815   -0.6480 H   0  0  0  0  0  0  0  0  0  0  0  0
   -4.4592    1.4807    0.3491 H   0  0  0  0  0  0  0  0  0  0  0  0
   -6.0303    0.7059    0.1446 H   0  0  0  0  0  0  0  0  0  0  0  0
   -3.5123   -0.8538    2.9388 H   0  0  0  0  0  0  0  0  0  0  0  0
   -4.1785   -1.9387    1.7173 H   0  0  0  0  0  0  0  0  0  0  0  0
   -1.7853   -1.2716    1.2283 H   0  0  0  0  0  0  0  0  0  0  0  0
   -2.3029    0.4270    1.1848 H   0  0  0  0  0  0  0  0  0  0  0  0
   -0.7037    2.0808   -0.0801 H   0  0  0  0  0  0  0  0  0  0  0  0
    1.1560    3.3146    0.8265 H   0  0  0  0  0  0  0  0  0  0  0  0
    3.5695    3.5101    1.3440 H   0  0  0  0  0  0  0  0  0  0  0  0
  1  2  2  0
  2  3  1  0
  3  4  2  0
  4  5  1  0
  5  6  2  0
  6  7  1  0
  7  8  2  0
  8  9  1  0
  9 10  1  0
 10 11  1  0
 11 12  1  0
 12 13  1  0
 13 14  1  0
 14 15  1  0
 15 16  1  0
  9 17  2  0
 17 18  1  0
 18 19  2  0
 19 20  1  0
 20 21  2  0
 20 22  1  0
 22 23  2  0
 21  1  1  0
 22  3  1  0
 23  6  1  0
 16 11  1  0
 23 17  1  0
  1 24  1  0
  2 25  1  0
  4 26  1  0
  5 27  1  0
  7 28  1  0
  8 29  1  0
 10 30  1  0
 10 31  1  0
 12 32  1  0
 12 33  1  0
 13 34  1  0
 13 35  1  0
 15 36  1  0
 15 37  1  0
 16 38  1  0
 16 39  1  0
 18 40  1  0
 19 41  1  0
 21 42  1  0
M  END
$$$$
