
     RDKit          3D

 34 36  0  0  0  0  0  0  0  0999 V2000
    0.3857    2.1000    0.9303 O   0  0  0  0  0  0  0  0  0  0  0  0
    0.5583    0.9559    0.5320 C   0  0  0  0  0  0  0  0  0  0  0  0
    1.9140    0.3751    0.6019 C   0  0  0  0  0  0  0  0  0  0  0  0
    2.5639    0.3319    1.8395 C   0  0  0  0  0  0  0  0  0  0  0  0
    3.8527   -0.1988    1.9253 C   0  0  0  0  0  0  0  0  0  0  0  0
    4.4873   -0.6668    0.7737 C   0  0  0  0  0  0  0  0  0  0  0  0
    6.0744   -1.3218    0.8808 Cl  0  0  0  0  0  0  0  0  0  0  0  0
    3.8492   -0.6010   -0.4662 C   0  0  0  0  0  0  0  0  0  0  0  0
    2.5600   -0.0715   -0.5563 C   0  0  0  0  0  0  0  0  0  0  0  0
   -0.4646    0.1852    0.0431 N   0  0  0  0  0  0  0  0  0  0  0  0
   -0.4529   -1.2495   -0.2774 C   0  0  0  0  0  0  0  0  0  0  0  0
   -0.6771   -1.3325   -1.7670 C   0  0  0  0  0  0  0  0  0  0  0  0
   -1.9536   -0.9880   -2.0099 C   0  0  0  0  0  0  0  0  0  0  0  0
   -2.5595   -0.6013   -0.6696 C   0  0  0  0  0  0  0  0  0  0  0  0
   -1.8497   -1.6843    0.1680 C   0  0  0  0  0  0  0  0  0  0  0  0
   -1.8806    0.7177   -0.1333 C   0  0  0  0  0  0  0  0  0  0  0  0
   -2.5868    1.1929    1.1386 C   0  0  0  0  0  0  0  0  0  0  0  0
   -2.1765    2.3857    1.6050 F   0  0  0  0  0  0  0  0  0  0  0  0
   -2.4336    0.3105    2.1578 F   0  0  0  0  0  0  0  0  0  0  0  0
   -3.9251    1.2914    0.9340 F   0  0  0  0  0  0  0  0  0  0  0  0
   -2.0454    1.8766   -1.1161 C   0  0  0  0  0  0  0  0  0  0  0  0
   -1.6319    3.0686   -0.6452 F   0  0  0  0  0  0  0  0  0  0  0  0
   -3.3480    2.0241   -1.4686 F   0  0  0  0  0  0  0  0  0  0  0  0
   -1.3644    1.6709   -2.2717 F   0  0  0  0  0  0  0  0  0  0  0  0
    2.0714    0.7151    2.7309 H   0  0  0  0  0  0  0  0  0  0  0  0
    4.3580   -0.2360    2.8871 H   0  0  0  0  0  0  0  0  0  0  0  0
    4.3552   -0.9482   -1.3636 H   0  0  0  0  0  0  0  0  0  0  0  0
    2.0759    0.0101   -1.5260 H   0  0  0  0  0  0  0  0  0  0  0  0
    0.3760   -1.8315    0.1240 H   0  0  0  0  0  0  0  0  0  0  0  0
    0.0629   -1.6148   -2.5006 H   0  0  0  0  0  0  0  0  0  0  0  0
   -2.4337   -0.9157   -2.9754 H   0  0  0  0  0  0  0  0  0  0  0  0
   -3.6496   -0.6417   -0.6401 H   0  0  0  0  0  0  0  0  0  0  0  0
   -2.0049   -1.5984    1.2452 H   0  0  0  0  0  0  0  0  0  0  0  0
   -2.1071   -2.7099   -0.1301 H   0  0  0  0  0  0  0  0  0  0  0  0
  1  2  2  0
  2  3  1  0
  3  4  2  0
  4  5  1  0
  5  6  2  0
  6  7  1  0
  6  8  1  0
  8  9  2  0
  2 10  1  0
 10 11  1  0
 11 12  1  0
 12 13  2  0
 13 14  1  0
 14 15  1  0
 14 16  1  0
 16 17  1  0
 17 18  1  0
 17 19  1  0
 17 20  1  0
 16 21  1  0
 21 22  1  0
 21 23  1  0
 21 24  1  0
  9  3  1  0
 16 10  1  0
 15 11  1  0
  4 25  1  0
  5 26  1  0
  8 27  1  0
  9 28  1  0
 11 29  1  0
 12 30  1  0
 13 31  1  0
 14 32  1  0
 15 33  1  0
 15 34  1  0
M  END
$$$$
