
     RDKit          3D

 48 50  0  0  0  0  0  0  0  0999 V2000
   -3.7768    4.1572   -1.1661 C   0  0  0  0  0  0  0  0  0  0  0  0
   -4.4954    2.9343   -1.0980 O   0  0  0  0  0  0  0  0  0  0  0  0
   -3.7768    1.7704   -1.1716 C   0  0  0  0  0  0  0  0  0  0  0  0
   -2.3815    1.6920   -1.2446 C   0  0  0  0  0  0  0  0  0  0  0  0
   -1.7368    0.4456   -1.2925 C   0  0  0  0  0  0  0  0  0  0  0  0
   -0.2707    0.4001   -1.3446 C   0  0  0  0  0  0  0  0  0  0  0  0
    0.5293   -0.0182   -0.3427 C   0  0  0  0  0  0  0  0  0  0  0  0
    0.0203   -0.4705    0.9047 C   0  0  0  0  0  0  0  0  0  0  0  0
   -0.3000   -0.8605    1.9493 N   0  0  0  0  0  0  0  0  0  0  0  0
    2.0199    0.0378   -0.5739 C   0  0  0  0  0  0  0  0  0  0  0  0
    2.4506    0.5116   -1.6224 O   0  0  0  0  0  0  0  0  0  0  0  0
    2.7922   -0.4646    0.4619 N   0  0  0  0  0  0  0  0  0  0  0  0
    4.2133   -0.5282    0.5512 C   0  0  0  0  0  0  0  0  0  0  0  0
    5.0345   -0.0800   -0.4893 C   0  0  0  0  0  0  0  0  0  0  0  0
    6.4193   -0.1486   -0.3800 C   0  0  0  0  0  0  0  0  0  0  0  0
    6.9980   -0.6686    0.7717 C   0  0  0  0  0  0  0  0  0  0  0  0
    6.2305   -1.1299    1.8268 C   0  0  0  0  0  0  0  0  0  0  0  0
    6.8891   -1.6153    2.8942 N   0  0  0  0  0  0  0  0  0  0  0  0
    6.1726   -2.0667    3.9412 C   0  0  0  0  0  0  0  0  0  0  0  0
    4.7973   -2.0587    3.9778 C   0  0  0  0  0  0  0  0  0  0  0  0
    4.1179   -1.5557    2.8718 C   0  0  0  0  0  0  0  0  0  0  0  0
    4.8174   -1.0663    1.7384 C   0  0  0  0  0  0  0  0  0  0  0  0
   -2.4922   -0.7310   -1.3017 C   0  0  0  0  0  0  0  0  0  0  0  0
   -3.8832   -0.6598   -1.2595 C   0  0  0  0  0  0  0  0  0  0  0  0
   -4.5731   -1.8452   -1.2450 O   0  0  0  0  0  0  0  0  0  0  0  0
   -5.2248   -2.0638   -2.4971 C   0  0  0  0  0  0  0  0  0  0  0  0
   -4.5231    0.5812   -1.1530 C   0  0  0  0  0  0  0  0  0  0  0  0
   -5.8945    0.6383   -1.0798 O   0  0  0  0  0  0  0  0  0  0  0  0
   -6.3052    0.5766    0.2866 C   0  0  0  0  0  0  0  0  0  0  0  0
   -3.0926    4.2610   -0.3179 H   0  0  0  0  0  0  0  0  0  0  0  0
   -4.5018    4.9738   -1.1081 H   0  0  0  0  0  0  0  0  0  0  0  0
   -3.2442    4.2510   -2.1179 H   0  0  0  0  0  0  0  0  0  0  0  0
   -1.7725    2.5907   -1.2521 H   0  0  0  0  0  0  0  0  0  0  0  0
    0.1537    0.7648   -2.2803 H   0  0  0  0  0  0  0  0  0  0  0  0
    2.3071   -0.8345    1.2673 H   0  0  0  0  0  0  0  0  0  0  0  0
    4.6356    0.3282   -1.4114 H   0  0  0  0  0  0  0  0  0  0  0  0
    7.0484    0.2033   -1.1937 H   0  0  0  0  0  0  0  0  0  0  0  0
    8.0821   -0.7182    0.8480 H   0  0  0  0  0  0  0  0  0  0  0  0
    6.7561   -2.4426    4.7764 H   0  0  0  0  0  0  0  0  0  0  0  0
    4.2626   -2.4286    4.8454 H   0  0  0  0  0  0  0  0  0  0  0  0
    3.0343   -1.5548    2.9262 H   0  0  0  0  0  0  0  0  0  0  0  0
   -2.0140   -1.7068   -1.3486 H   0  0  0  0  0  0  0  0  0  0  0  0
   -5.7199   -3.0393   -2.4474 H   0  0  0  0  0  0  0  0  0  0  0  0
   -4.4959   -2.0955   -3.3165 H   0  0  0  0  0  0  0  0  0  0  0  0
   -5.9921   -1.3099   -2.7032 H   0  0  0  0  0  0  0  0  0  0  0  0
   -5.8857    1.4047    0.8688 H   0  0  0  0  0  0  0  0  0  0  0  0
   -7.3950    0.6643    0.3120 H   0  0  0  0  0  0  0  0  0  0  0  0
   -6.0338   -0.3834    0.7390 H   0  0  0  0  0  0  0  0  0  0  0  0
  1  2  1  0
  2  3  1  0
  3  4  2  0
  4  5  1  0
  5  6  1  0
  6  7  2  3
  7  8  1  0
  8  9  3  0
  7 10  1  0
 10 11  2  0
 10 12  1  0
 12 13  1  0
 13 14  2  0
 14 15  1  0
 15 16  2  0
 16 17  1  0
 17 18  2  0
 18 19  1  0
 19 20  2  0
 20 21  1  0
 21 22  2  0
  5 23  2  0
 23 24  1  0
 24 25  1  0
 25 26  1  0
 24 27  2  0
 27 28  1  0
 28 29  1  0
 27  3  1  0
 22 13  1  0
 22 17  1  0
  1 30  1  0
  1 31  1  0
  1 32  1  0
  4 33  1  0
  6 34  1  0
 12 35  1  0
 14 36  1  0
 15 37  1  0
 16 38  1  0
 19 39  1  0
 20 40  1  0
 21 41  1  0
 23 42  1  0
 26 43  1  0
 26 44  1  0
 26 45  1  0
 29 46  1  0
 29 47  1  0
 29 48  1  0
M  END
$$$$
