
     RDKit          3D

 47 50  0  0  0  0  0  0  0  0999 V2000
   -9.3285   -2.1770    2.1088 C   0  0  0  0  0  0  0  0  0  0  0  0
   -7.9228   -2.0967    1.8471 O   0  0  0  0  0  0  0  0  0  0  0  0
   -7.5810   -1.1329    0.9589 C   0  0  0  0  0  0  0  0  0  0  0  0
   -8.3466   -0.3549    0.4075 O   0  0  0  0  0  0  0  0  0  0  0  0
   -6.1169   -1.1471    0.6932 C   0  0  0  0  0  0  0  0  0  0  0  0
   -5.3062   -2.2209    1.0672 C   0  0  0  0  0  0  0  0  0  0  0  0
   -3.9464   -2.2092    0.7576 C   0  0  0  0  0  0  0  0  0  0  0  0
   -3.3867   -1.1241    0.0771 C   0  0  0  0  0  0  0  0  0  0  0  0
   -4.1807   -0.0347   -0.2991 C   0  0  0  0  0  0  0  0  0  0  0  0
   -3.6539    1.0798   -1.0083 N   0  0  0  0  0  0  0  0  0  0  0  0
   -4.4846    1.9050   -1.7046 N   0  0  0  0  0  0  0  0  0  0  0  0
   -3.7085    2.7494   -2.3693 N   0  0  0  0  0  0  0  0  0  0  0  0
   -2.3936    2.5508   -2.0612 N   0  0  0  0  0  0  0  0  0  0  0  0
   -2.3618    1.5617   -1.1968 C   0  0  0  0  0  0  0  0  0  0  0  0
   -0.9512    1.0948   -0.3021 S   0  0  0  0  0  0  0  0  0  0  0  0
    0.2881    2.2160   -1.0064 C   0  0  0  0  0  0  0  0  0  0  0  0
    1.6558    1.9329   -0.3877 C   0  0  0  0  0  0  0  0  0  0  0  0
    1.8747    2.1893    0.7943 O   0  0  0  0  0  0  0  0  0  0  0  0
    2.5545    1.4217   -1.3054 N   0  0  0  0  0  0  0  0  0  0  0  0
    3.8603    1.1403   -0.9940 C   0  0  0  0  0  0  0  0  0  0  0  0
    4.4673    1.1493    0.1745 N   0  0  0  0  0  0  0  0  0  0  0  0
    5.7594    0.6806    0.0143 C   0  0  0  0  0  0  0  0  0  0  0  0
    6.1298    0.3986   -1.2849 C   0  0  0  0  0  0  0  0  0  0  0  0
    4.8303    0.6989   -2.3417 S   0  0  0  0  0  0  0  0  0  0  0  0
    7.4528   -0.1729   -1.6768 C   0  0  0  0  0  0  0  0  0  0  0  0
    7.9917   -0.9912   -0.4900 C   0  0  0  0  0  0  0  0  0  0  0  0
    7.9987   -0.1468    0.7987 C   0  0  0  0  0  0  0  0  0  0  0  0
    6.5967    0.3450    1.1986 C   0  0  0  0  0  0  0  0  0  0  0  0
   -5.5527   -0.0651   -0.0024 C   0  0  0  0  0  0  0  0  0  0  0  0
   -9.4972   -3.0306    2.7704 H   0  0  0  0  0  0  0  0  0  0  0  0
   -9.6734   -1.2697    2.6139 H   0  0  0  0  0  0  0  0  0  0  0  0
   -9.8869   -2.3432    1.1846 H   0  0  0  0  0  0  0  0  0  0  0  0
   -5.7206   -3.0868    1.5819 H   0  0  0  0  0  0  0  0  0  0  0  0
   -3.3229   -3.0572    1.0311 H   0  0  0  0  0  0  0  0  0  0  0  0
   -2.3379   -1.2014   -0.1832 H   0  0  0  0  0  0  0  0  0  0  0  0
    0.3251    2.0656   -2.0905 H   0  0  0  0  0  0  0  0  0  0  0  0
    0.0357    3.2667   -0.8228 H   0  0  0  0  0  0  0  0  0  0  0  0
    2.3009    1.2981   -2.2731 H   0  0  0  0  0  0  0  0  0  0  0  0
    8.1537    0.6427   -1.8862 H   0  0  0  0  0  0  0  0  0  0  0  0
    7.3709   -0.7979   -2.5704 H   0  0  0  0  0  0  0  0  0  0  0  0
    7.3582   -1.8728   -0.3329 H   0  0  0  0  0  0  0  0  0  0  0  0
    8.9990   -1.3609   -0.6995 H   0  0  0  0  0  0  0  0  0  0  0  0
    8.4308   -0.7248    1.6243 H   0  0  0  0  0  0  0  0  0  0  0  0
    8.6526    0.7190    0.6421 H   0  0  0  0  0  0  0  0  0  0  0  0
    6.0941   -0.4598    1.7521 H   0  0  0  0  0  0  0  0  0  0  0  0
    6.6816    1.2075    1.8698 H   0  0  0  0  0  0  0  0  0  0  0  0
   -6.2017    0.7649   -0.2834 H   0  0  0  0  0  0  0  0  0  0  0  0
  1  2  1  0
  2  3  1  0
  3  4  2  0
  3  5  1  0
  5  6  2  0
  6  7  1  0
  7  8  2  0
  8  9  1  0
  9 10  1  0
 10 11  1  0
 11 12  2  0
 12 13  1  0
 13 14  2  0
 14 15  1  0
 15 16  1  0
 16 17  1  0
 17 18  2  0
 17 19  1  0
 19 20  1  0
 20 21  2  0
 21 22  1  0
 22 23  2  0
 23 24  1  0
 23 25  1  0
 25 26  1  0
 26 27  1  0
 27 28  1  0
  9 29  2  0
 29  5  1  0
 14 10  1  0
 24 20  1  0
 28 22  1  0
  1 30  1  0
  1 31  1  0
  1 32  1  0
  6 33  1  0
  7 34  1  0
  8 35  1  0
 16 36  1  0
 16 37  1  0
 19 38  1  0
 25 39  1  0
 25 40  1  0
 26 41  1  0
 26 42  1  0
 27 43  1  0
 27 44  1  0
 28 45  1  0
 28 46  1  0
 29 47  1  0
M  END
$$$$
