
     RDKit          3D

 31 31  0  0  0  0  0  0  0  0999 V2000
    2.6560   -1.1617    2.8626 C   0  0  0  0  0  0  0  0  0  0  0  0
    3.4200   -0.0342    2.4526 O   0  0  0  0  0  0  0  0  0  0  0  0
    2.9965    0.4505    1.1790 C   0  0  0  0  0  0  0  0  0  0  0  0
    1.6524    0.9273    1.2201 O   0  0  0  0  0  0  0  0  0  0  0  0
    1.2064    1.2985   -0.0232 C   0  0  0  0  0  0  0  0  0  0  0  0
    0.0526    0.8717   -0.5673 C   0  0  0  0  0  0  0  0  0  0  0  0
   -0.3252    1.3384   -1.8113 N   0  0  0  0  0  0  0  0  0  0  0  0
   -1.4689    1.0241   -2.5274 C   0  0  0  0  0  0  0  0  0  0  0  0
   -1.5412    1.7573   -3.8443 C   0  0  0  0  0  0  0  0  0  0  0  0
   -2.3463    0.2314   -2.2072 O   0  0  0  0  0  0  0  0  0  0  0  0
   -0.7665   -0.1025    0.1764 C   0  0  0  0  0  0  0  0  0  0  0  0
   -0.6607   -1.4729   -0.1001 C   0  0  0  0  0  0  0  0  0  0  0  0
   -1.4023   -2.4007    0.6343 C   0  0  0  0  0  0  0  0  0  0  0  0
   -2.2491   -1.9670    1.6536 C   0  0  0  0  0  0  0  0  0  0  0  0
   -2.3571   -0.6066    1.9395 C   0  0  0  0  0  0  0  0  0  0  0  0
   -1.6175    0.3230    1.2052 C   0  0  0  0  0  0  0  0  0  0  0  0
    1.6096   -0.8857    3.0234 H   0  0  0  0  0  0  0  0  0  0  0  0
    3.0646   -1.5244    3.8097 H   0  0  0  0  0  0  0  0  0  0  0  0
    2.7258   -1.9659    2.1236 H   0  0  0  0  0  0  0  0  0  0  0  0
    3.6674    1.2753    0.9128 H   0  0  0  0  0  0  0  0  0  0  0  0
    3.1082   -0.3474    0.4329 H   0  0  0  0  0  0  0  0  0  0  0  0
    1.8710    2.0061   -0.5026 H   0  0  0  0  0  0  0  0  0  0  0  0
    0.2984    2.0103   -2.2400 H   0  0  0  0  0  0  0  0  0  0  0  0
   -1.0672    2.7409   -3.7785 H   0  0  0  0  0  0  0  0  0  0  0  0
   -1.0444    1.1627   -4.6154 H   0  0  0  0  0  0  0  0  0  0  0  0
   -2.5900    1.9068   -4.1171 H   0  0  0  0  0  0  0  0  0  0  0  0
   -0.0108   -1.8200   -0.8985 H   0  0  0  0  0  0  0  0  0  0  0  0
   -1.3261   -3.4598    0.4044 H   0  0  0  0  0  0  0  0  0  0  0  0
   -2.8311   -2.6886    2.2204 H   0  0  0  0  0  0  0  0  0  0  0  0
   -3.0191   -0.2676    2.7314 H   0  0  0  0  0  0  0  0  0  0  0  0
   -1.7052    1.3808    1.4386 H   0  0  0  0  0  0  0  0  0  0  0  0
  1  2  1  0
  2  3  1  0
  3  4  1  0
  4  5  1  0
  5  6  2  3
  6  7  1  0
  7  8  1  0
  8  9  1  0
  8 10  2  0
  6 11  1  0
 11 12  2  0
 12 13  1  0
 13 14  2  0
 14 15  1  0
 15 16  2  0
 16 11  1  0
  1 17  1  0
  1 18  1  0
  1 19  1  0
  3 20  1  0
  3 21  1  0
  5 22  1  0
  7 23  1  0
  9 24  1  0
  9 25  1  0
  9 26  1  0
 12 27  1  0
 13 28  1  0
 14 29  1  0
 15 30  1  0
 16 31  1  0
M  END
$$$$
