
     RDKit          3D

 43 46  0  0  0  0  0  0  0  0999 V2000
    6.4036    1.9129   -1.2891 C   0  0  0  0  0  0  0  0  0  0  0  0
    5.0214    1.3812   -1.0431 C   0  0  0  0  0  0  0  0  0  0  0  0
    4.2382    0.9206   -2.1049 C   0  0  0  0  0  0  0  0  0  0  0  0
    2.9630    0.3967   -1.8719 C   0  0  0  0  0  0  0  0  0  0  0  0
    2.4618    0.3142   -0.5677 C   0  0  0  0  0  0  0  0  0  0  0  0
    1.0273   -0.2744   -0.3167 C   0  0  0  0  0  0  0  0  0  0  0  0
    0.1215   -0.6817   -1.2895 C   0  0  0  0  0  0  0  0  0  0  0  0
   -1.0537   -1.1072   -0.6685 N   0  0  0  0  0  4  0  0  0  0  0  0
   -2.2553   -1.6138   -1.3264 C   0  0  0  0  0  0  0  0  0  0  0  0
   -3.4275   -0.7375   -0.9697 C   0  0  0  0  0  0  0  0  0  0  0  0
   -3.4300    0.6288   -1.2947 C   0  0  0  0  0  0  0  0  0  0  0  0
   -4.5153    1.4391   -0.9542 C   0  0  0  0  0  0  0  0  0  0  0  0
   -5.6121    0.8949   -0.2872 C   0  0  0  0  0  0  0  0  0  0  0  0
   -5.6222   -0.4597    0.0315 C   0  0  0  0  0  0  0  0  0  0  0  0
   -6.9682   -1.1360    0.8596 Cl  0  0  0  0  0  0  0  0  0  0  0  0
   -4.5425   -1.2766   -0.3086 C   0  0  0  0  0  0  0  0  0  0  0  0
   -0.8720   -0.9865    0.6429 C   0  0  0  0  0  0  0  0  0  0  0  0
    0.3515   -0.5154    0.8659 N   0  0  0  0  0  0  0  0  0  0  0  0
    0.6308   -0.3827    2.2888 C   0  0  0  0  0  0  0  0  0  0  0  0
   -0.5307   -1.1659    2.9606 C   0  0  0  0  0  0  0  0  0  0  0  0
   -1.6342   -1.2429    1.8873 C   0  0  0  0  0  0  0  0  0  0  0  0
    3.2451    0.7630    0.4958 C   0  0  0  0  0  0  0  0  0  0  0  0
    4.5199    1.2875    0.2587 C   0  0  0  0  0  0  0  0  0  0  0  0
    7.1351    1.1027   -1.2117 H   0  0  0  0  0  0  0  0  0  0  0  0
    6.4784    2.3624   -2.2848 H   0  0  0  0  0  0  0  0  0  0  0  0
    6.6565    2.6913   -0.5616 H   0  0  0  0  0  0  0  0  0  0  0  0
    4.6199    0.9676   -3.1237 H   0  0  0  0  0  0  0  0  0  0  0  0
    2.3956    0.0556   -2.7326 H   0  0  0  0  0  0  0  0  0  0  0  0
    0.1587   -0.7079   -2.3654 H   0  0  0  0  0  0  0  0  0  0  0  0
   -2.1130   -1.6234   -2.4126 H   0  0  0  0  0  0  0  0  0  0  0  0
   -2.4052   -2.6477   -0.9964 H   0  0  0  0  0  0  0  0  0  0  0  0
   -2.5874    1.0765   -1.8191 H   0  0  0  0  0  0  0  0  0  0  0  0
   -4.5115    2.4964   -1.2131 H   0  0  0  0  0  0  0  0  0  0  0  0
   -6.4561    1.5296   -0.0263 H   0  0  0  0  0  0  0  0  0  0  0  0
   -4.5818   -2.3345   -0.0555 H   0  0  0  0  0  0  0  0  0  0  0  0
    0.5998    0.6774    2.5569 H   0  0  0  0  0  0  0  0  0  0  0  0
    1.5976   -0.8230    2.5424 H   0  0  0  0  0  0  0  0  0  0  0  0
   -0.1865   -2.1806    3.1938 H   0  0  0  0  0  0  0  0  0  0  0  0
   -0.8715   -0.7044    3.8914 H   0  0  0  0  0  0  0  0  0  0  0  0
   -2.1086   -2.2226    1.8208 H   0  0  0  0  0  0  0  0  0  0  0  0
   -2.3630   -0.4355    1.9828 H   0  0  0  0  0  0  0  0  0  0  0  0
    2.8994    0.7328    1.5206 H   0  0  0  0  0  0  0  0  0  0  0  0
    5.1231    1.6283    1.0993 H   0  0  0  0  0  0  0  0  0  0  0  0
  1  2  1  0
  2  3  2  0
  3  4  1  0
  4  5  2  0
  5  6  1  0
  6  7  2  0
  7  8  1  0
  8  9  1  0
  9 10  1  0
 10 11  2  0
 11 12  1  0
 12 13  2  0
 13 14  1  0
 14 15  1  0
 14 16  2  0
  8 17  2  0
 17 18  1  0
 18 19  1  0
 19 20  1  0
 20 21  1  0
  5 22  1  0
 22 23  2  0
 23  2  1  0
 18  6  1  0
 16 10  1  0
 21 17  1  0
  1 24  1  0
  1 25  1  0
  1 26  1  0
  3 27  1  0
  4 28  1  0
  7 29  1  0
  9 30  1  0
  9 31  1  0
 11 32  1  0
 12 33  1  0
 13 34  1  0
 16 35  1  0
 19 36  1  0
 19 37  1  0
 20 38  1  0
 20 39  1  0
 21 40  1  0
 21 41  1  0
 22 42  1  0
 23 43  1  0
M  CHG  1   8   1
M  END
$$$$
