
     RDKit          3D

 47 51  0  0  0  0  0  0  0  0999 V2000
    0.3138   -0.5249   -2.7000 C   0  0  0  0  0  0  0  0  0  0  0  0
   -0.7771    0.1276   -1.9093 C   0  0  0  0  0  0  0  0  0  0  0  0
   -1.9190    0.3880   -2.4960 N   0  0  0  0  0  0  0  0  0  0  0  0
   -2.8914    0.9866   -1.7443 C   0  0  0  0  0  0  0  0  0  0  0  0
   -4.4255    1.3891   -2.3839 S   0  0  0  0  0  0  0  0  0  0  0  0
   -4.9457    2.0422   -0.8926 C   0  0  0  0  0  0  0  0  0  0  0  0
   -3.9860    1.9565    0.1011 C   0  0  0  0  0  0  0  0  0  0  0  0
   -2.8198    1.3552   -0.4176 C   0  0  0  0  0  0  0  0  0  0  0  0
   -1.4684    1.0308    0.2230 C   0  0  0  0  0  0  0  0  0  0  0  0
   -1.0460    1.2349    1.4436 N   0  0  0  0  0  0  0  0  0  0  0  0
    0.2384    0.7542    1.4988 N   0  0  0  0  0  0  0  0  0  0  0  0
    0.5560    0.2781    0.3103 C   0  0  0  0  0  0  0  0  0  0  0  0
    2.0867   -0.4403   -0.0509 S   0  0  0  0  0  0  0  0  0  0  0  0
    2.9976   -0.0778    1.4808 C   0  0  0  0  0  0  0  0  0  0  0  0
    4.3936   -0.6602    1.3716 C   0  0  0  0  0  0  0  0  0  0  0  0
    5.3721    0.0218    1.0761 O   0  0  0  0  0  0  0  0  0  0  0  0
    4.4614   -2.0145    1.6343 N   0  0  0  0  0  0  0  0  0  0  0  0
    5.6772   -2.7577    1.3896 C   0  0  0  0  0  0  0  0  0  0  0  0
    5.6327   -3.2769    0.0010 C   0  0  0  0  0  0  0  0  0  0  0  0
    6.1306   -2.8113   -1.1983 C   0  0  0  0  0  0  0  0  0  0  0  0
    5.7429   -3.7518   -2.1824 C   0  0  0  0  0  0  0  0  0  0  0  0
    5.0291   -4.7251   -1.5238 C   0  0  0  0  0  0  0  0  0  0  0  0
    4.9517   -4.4440   -0.1971 O   0  0  0  0  0  0  0  0  0  0  0  0
   -0.5050    0.4277   -0.5580 N   0  0  0  0  0  0  0  0  0  0  0  0
   -4.2152    2.4750    1.4862 C   0  0  0  0  0  0  0  0  0  0  0  0
   -5.7079    2.7243    1.7579 C   0  0  0  0  0  0  0  0  0  0  0  0
   -6.3930    3.4368    0.5817 C   0  0  0  0  0  0  0  0  0  0  0  0
   -6.3204    2.6080   -0.7114 C   0  0  0  0  0  0  0  0  0  0  0  0
    1.1899    0.1260   -2.7542 H   0  0  0  0  0  0  0  0  0  0  0  0
   -0.0292   -0.7000   -3.7254 H   0  0  0  0  0  0  0  0  0  0  0  0
    0.5692   -1.4968   -2.2713 H   0  0  0  0  0  0  0  0  0  0  0  0
    2.4909   -0.5148    2.3480 H   0  0  0  0  0  0  0  0  0  0  0  0
    3.0786    1.0034    1.6327 H   0  0  0  0  0  0  0  0  0  0  0  0
    3.6003   -2.5465    1.5924 H   0  0  0  0  0  0  0  0  0  0  0  0
    5.7114   -3.5810    2.1102 H   0  0  0  0  0  0  0  0  0  0  0  0
    6.5552   -2.1220    1.5444 H   0  0  0  0  0  0  0  0  0  0  0  0
    6.6964   -1.8994   -1.3362 H   0  0  0  0  0  0  0  0  0  0  0  0
    5.9541   -3.7225   -3.2417 H   0  0  0  0  0  0  0  0  0  0  0  0
    4.5351   -5.6342   -1.8387 H   0  0  0  0  0  0  0  0  0  0  0  0
   -3.8262    1.7699    2.2292 H   0  0  0  0  0  0  0  0  0  0  0  0
   -3.6627    3.4153    1.6035 H   0  0  0  0  0  0  0  0  0  0  0  0
   -6.2124    1.7659    1.9371 H   0  0  0  0  0  0  0  0  0  0  0  0
   -5.8179    3.3192    2.6714 H   0  0  0  0  0  0  0  0  0  0  0  0
   -5.9098    4.4098    0.4221 H   0  0  0  0  0  0  0  0  0  0  0  0
   -7.4423    3.6377    0.8270 H   0  0  0  0  0  0  0  0  0  0  0  0
   -6.6045    3.2363   -1.5632 H   0  0  0  0  0  0  0  0  0  0  0  0
   -7.0395    1.7814   -0.6531 H   0  0  0  0  0  0  0  0  0  0  0  0
  1  2  1  0
  2  3  2  0
  3  4  1  0
  4  5  1  0
  5  6  1  0
  6  7  2  0
  7  8  1  0
  8  9  1  0
  9 10  2  0
 10 11  1  0
 11 12  2  0
 12 13  1  0
 13 14  1  0
 14 15  1  0
 15 16  2  0
 15 17  1  0
 17 18  1  0
 18 19  1  0
 19 20  2  0
 20 21  1  0
 21 22  2  0
 22 23  1  0
 12 24  1  0
  7 25  1  0
 25 26  1  0
 26 27  1  0
 27 28  1  0
 24  2  1  0
  8  4  2  0
 24  9  1  0
 28  6  1  0
 23 19  1  0
  1 29  1  0
  1 30  1  0
  1 31  1  0
 14 32  1  0
 14 33  1  0
 17 34  1  0
 18 35  1  0
 18 36  1  0
 20 37  1  0
 21 38  1  0
 22 39  1  0
 25 40  1  0
 25 41  1  0
 26 42  1  0
 26 43  1  0
 27 44  1  0
 27 45  1  0
 28 46  1  0
 28 47  1  0
M  END
$$$$
