
     RDKit          3D

 38 38  0  0  0  0  0  0  0  0999 V2000
    6.5107   -0.0643    2.3467 C   0  0  0  0  0  0  0  0  0  0  0  0
    5.8640    1.2001    2.3950 O   0  0  0  0  0  0  0  0  0  0  0  0
    4.7659    1.3035    1.4864 C   0  0  0  0  0  0  0  0  0  0  0  0
    3.4721    0.7750    2.1150 C   0  0  0  0  0  0  0  0  0  0  0  0
    2.3685    0.6951    1.1740 N   0  0  0  0  0  0  0  0  0  0  0  0
    1.6942    1.8239    0.7603 C   0  0  0  0  0  0  0  0  0  0  0  0
    1.9621    2.9542    1.1471 O   0  0  0  0  0  0  0  0  0  0  0  0
    0.6221    1.5790   -0.2470 C   0  0  0  0  0  0  0  0  0  0  0  0
    0.6486    2.4057   -1.4007 C   0  0  0  0  0  0  0  0  0  0  0  0
    0.6749    3.0492   -2.3672 N   0  0  0  0  0  0  0  0  0  0  0  0
   -0.3127    0.6525    0.0509 C   0  0  0  0  0  0  0  0  0  0  0  0
   -1.4852    0.1784   -0.6959 C   0  0  0  0  0  0  0  0  0  0  0  0
   -1.7079    0.6393   -2.1162 C   0  0  0  0  0  0  0  0  0  0  0  0
   -2.3183   -0.6869   -0.0769 C   0  0  0  0  0  0  0  0  0  0  0  0
   -3.5389   -1.2586   -0.6536 C   0  0  0  0  0  0  0  0  0  0  0  0
   -3.5297   -2.5649   -1.1532 C   0  0  0  0  0  0  0  0  0  0  0  0
   -4.6905   -3.1138   -1.7016 C   0  0  0  0  0  0  0  0  0  0  0  0
   -5.8633   -2.3608   -1.7509 C   0  0  0  0  0  0  0  0  0  0  0  0
   -5.8779   -1.0587   -1.2523 C   0  0  0  0  0  0  0  0  0  0  0  0
   -4.7186   -0.5077   -0.7035 C   0  0  0  0  0  0  0  0  0  0  0  0
    6.9306   -0.2404    1.3516 H   0  0  0  0  0  0  0  0  0  0  0  0
    7.3293   -0.0581    3.0714 H   0  0  0  0  0  0  0  0  0  0  0  0
    5.8203   -0.8696    2.6113 H   0  0  0  0  0  0  0  0  0  0  0  0
    4.9940    0.7867    0.5461 H   0  0  0  0  0  0  0  0  0  0  0  0
    4.6474    2.3648    1.2433 H   0  0  0  0  0  0  0  0  0  0  0  0
    3.6166   -0.2302    2.5228 H   0  0  0  0  0  0  0  0  0  0  0  0
    3.1810    1.4183    2.9537 H   0  0  0  0  0  0  0  0  0  0  0  0
    2.1878   -0.1944    0.7258 H   0  0  0  0  0  0  0  0  0  0  0  0
   -0.2123    0.1706    1.0273 H   0  0  0  0  0  0  0  0  0  0  0  0
   -1.9510    1.7063   -2.1409 H   0  0  0  0  0  0  0  0  0  0  0  0
   -0.8192    0.4501   -2.7277 H   0  0  0  0  0  0  0  0  0  0  0  0
   -2.5294    0.1182   -2.6165 H   0  0  0  0  0  0  0  0  0  0  0  0
   -2.1348   -1.0223    0.9424 H   0  0  0  0  0  0  0  0  0  0  0  0
   -2.6209   -3.1605   -1.1233 H   0  0  0  0  0  0  0  0  0  0  0  0
   -4.6800   -4.1283   -2.0916 H   0  0  0  0  0  0  0  0  0  0  0  0
   -6.7664   -2.7886   -2.1789 H   0  0  0  0  0  0  0  0  0  0  0  0
   -6.7918   -0.4716   -1.2913 H   0  0  0  0  0  0  0  0  0  0  0  0
   -4.7410    0.5090   -0.3183 H   0  0  0  0  0  0  0  0  0  0  0  0
  1  2  1  0
  2  3  1  0
  3  4  1  0
  4  5  1  0
  5  6  1  0
  6  7  2  0
  6  8  1  0
  8  9  1  0
  9 10  3  0
  8 11  2  3
 11 12  1  0
 12 13  1  0
 12 14  2  3
 14 15  1  0
 15 16  2  0
 16 17  1  0
 17 18  2  0
 18 19  1  0
 19 20  2  0
 20 15  1  0
  1 21  1  0
  1 22  1  0
  1 23  1  0
  3 24  1  0
  3 25  1  0
  4 26  1  0
  4 27  1  0
  5 28  1  0
 11 29  1  0
 13 30  1  0
 13 31  1  0
 13 32  1  0
 14 33  1  0
 16 34  1  0
 17 35  1  0
 18 36  1  0
 19 37  1  0
 20 38  1  0
M  END
$$$$
