
     RDKit          3D

 39 39  0  0  0  0  0  0  0  0999 V2000
   -2.8127    4.5814    0.6092 C   0  0  0  0  0  0  0  0  0  0  0  0
   -1.7219    3.6966    0.0891 C   0  0  0  0  0  0  0  0  0  0  0  0
   -0.8504    4.0555   -0.6890 O   0  0  0  0  0  0  0  0  0  0  0  0
   -1.8498    2.4439    0.6078 O   0  0  0  0  0  0  0  0  0  0  0  0
   -0.8366    1.5254    0.1720 C   0  0  0  0  0  0  0  0  0  0  0  0
   -1.1659    0.1506    0.7469 C   0  0  0  0  0  0  0  0  0  0  0  0
   -0.1812   -0.9324    0.2713 C   0  0  0  0  0  0  0  0  0  0  0  0
    1.1230   -0.7109    0.9273 N   0  0  0  0  0  0  0  0  0  0  0  0
    2.4700   -0.6372   -0.0634 S   0  0  0  0  0  6  0  0  0  0  0  0
    2.3905   -1.7159   -1.0195 O   0  0  0  0  0  0  0  0  0  0  0  0
    3.6124   -0.4844    0.8056 O   0  0  0  0  0  0  0  0  0  0  0  0
    2.2589    0.7521   -0.8647 O   0  0  0  0  0  0  0  0  0  0  0  0
    3.2926    1.1492   -1.7633 C   0  0  0  0  0  0  0  0  0  0  0  0
    2.9610    2.4822   -2.4479 C   0  0  0  0  0  0  0  0  0  0  0  0
    2.8178    3.7910   -1.2389 Cl  0  0  0  0  0  0  0  0  0  0  0  0
    1.4320    2.3465   -3.3697 Cl  0  0  0  0  0  0  0  0  0  0  0  0
    4.2773    2.9036   -3.5911 Cl  0  0  0  0  0  0  0  0  0  0  0  0
   -0.6804   -2.3392    0.5661 C   0  0  0  0  0  0  0  0  0  0  0  0
   -1.2368   -2.6892    1.8077 C   0  0  0  0  0  0  0  0  0  0  0  0
   -1.6596   -3.9968    2.0570 C   0  0  0  0  0  0  0  0  0  0  0  0
   -1.5216   -4.9751    1.0756 C   0  0  0  0  0  0  0  0  0  0  0  0
   -0.9556   -4.6491   -0.1539 C   0  0  0  0  0  0  0  0  0  0  0  0
   -0.5337   -3.3423   -0.4057 C   0  0  0  0  0  0  0  0  0  0  0  0
   -3.7858    4.1882    0.3045 H   0  0  0  0  0  0  0  0  0  0  0  0
   -2.6955    5.5851    0.1908 H   0  0  0  0  0  0  0  0  0  0  0  0
   -2.7480    4.6486    1.6981 H   0  0  0  0  0  0  0  0  0  0  0  0
   -0.8280    1.4822   -0.9233 H   0  0  0  0  0  0  0  0  0  0  0  0
    0.1362    1.8727    0.5369 H   0  0  0  0  0  0  0  0  0  0  0  0
   -1.1853    0.2244    1.8421 H   0  0  0  0  0  0  0  0  0  0  0  0
   -2.1898   -0.1125    0.4483 H   0  0  0  0  0  0  0  0  0  0  0  0
   -0.0915   -0.8190   -0.8169 H   0  0  0  0  0  0  0  0  0  0  0  0
    1.3032   -1.3440    1.7072 H   0  0  0  0  0  0  0  0  0  0  0  0
    4.2335    1.2357   -1.2052 H   0  0  0  0  0  0  0  0  0  0  0  0
    3.4226    0.3611   -2.5159 H   0  0  0  0  0  0  0  0  0  0  0  0
   -1.3457   -1.9512    2.5991 H   0  0  0  0  0  0  0  0  0  0  0  0
   -2.0936   -4.2535    3.0202 H   0  0  0  0  0  0  0  0  0  0  0  0
   -1.8483   -5.9932    1.2712 H   0  0  0  0  0  0  0  0  0  0  0  0
   -0.8353   -5.4140   -0.9172 H   0  0  0  0  0  0  0  0  0  0  0  0
   -0.0776   -3.1164   -1.3686 H   0  0  0  0  0  0  0  0  0  0  0  0
  1  2  1  0
  2  3  2  0
  2  4  1  0
  4  5  1  0
  5  6  1  0
  6  7  1  0
  7  8  1  0
  8  9  1  0
  9 10  2  0
  9 11  2  0
  9 12  1  0
 12 13  1  0
 13 14  1  0
 14 15  1  0
 14 16  1  0
 14 17  1  0
  7 18  1  0
 18 19  2  0
 19 20  1  0
 20 21  2  0
 21 22  1  0
 22 23  2  0
 23 18  1  0
  1 24  1  0
  1 25  1  0
  1 26  1  0
  5 27  1  0
  5 28  1  0
  6 29  1  0
  6 30  1  0
  7 31  1  0
  8 32  1  0
 13 33  1  0
 13 34  1  0
 19 35  1  0
 20 36  1  0
 21 37  1  0
 22 38  1  0
 23 39  1  0
M  END
$$$$
