
     RDKit          3D

 74 75  0  0  0  0  0  0  0  0999 V2000
   -0.2972    6.3314   -0.0106 C   0  0  0  0  0  0  0  0  0  0  0  0
   -1.0003    5.0969   -0.0292 O   0  0  0  0  0  0  0  0  0  0  0  0
   -0.3489    3.9885    0.4481 C   0  0  0  0  0  0  0  0  0  0  0  0
    0.9166    4.0140    1.0362 C   0  0  0  0  0  0  0  0  0  0  0  0
    1.5314    2.8264    1.4313 C   0  0  0  0  0  0  0  0  0  0  0  0
    0.8897    1.6014    1.2456 C   0  0  0  0  0  0  0  0  0  0  0  0
   -0.3926    1.5332    0.6868 C   0  0  0  0  0  0  0  0  0  0  0  0
   -1.1111    0.2071    0.4256 C   0  0  0  0  0  0  0  0  0  0  0  0
   -2.4734    0.0510    1.1654 C   0  0  0  0  0  0  0  0  0  0  0  0
   -2.8323    0.7612    2.1008 O   0  0  0  0  0  0  0  0  0  0  0  0
   -3.2768   -0.9408    0.6195 N   0  0  0  0  0  0  0  0  0  0  0  0
   -4.6293   -1.2852    1.0803 C   0  0  0  0  0  0  0  0  0  0  0  0
   -5.5784   -0.0835    0.9432 C   0  0  0  0  0  0  0  0  0  0  0  0
   -4.6113   -1.7785    2.5354 C   0  0  0  0  0  0  0  0  0  0  0  0
   -5.1591   -2.4226    0.1874 C   0  0  0  0  0  0  0  0  0  0  0  0
   -0.2455   -1.0235    0.3875 N   0  0  0  0  0  0  0  0  0  0  0  0
    0.2906   -1.4492   -0.8393 C   0  0  0  0  0  0  0  0  0  0  0  0
    0.6621   -2.6080   -1.0389 O   0  0  0  0  0  0  0  0  0  0  0  0
    0.4032   -0.4364   -1.9755 C   0  0  0  0  0  0  0  0  0  0  0  0
    1.5194   -0.8258   -2.9442 C   0  0  0  0  0  0  0  0  0  0  0  0
    2.8880   -0.7259   -2.2865 C   0  0  0  0  0  0  0  0  0  0  0  0
    3.0548   -0.1941   -1.1933 O   0  0  0  0  0  0  0  0  0  0  0  0
    3.8788   -1.2599   -3.0788 N   0  0  0  0  0  0  0  0  0  0  0  0
    5.2120   -1.3290   -2.7417 C   0  0  0  0  0  0  0  0  0  0  0  0
    5.8625   -0.9168   -1.5574 C   0  0  0  0  0  0  0  0  0  0  0  0
    7.1839   -1.2254   -1.7630 C   0  0  0  0  0  0  0  0  0  0  0  0
    8.4117   -1.0748   -0.9646 C   0  0  0  0  0  0  0  0  0  0  0  0
    7.3234   -1.7820   -2.9957 O   0  0  0  0  0  0  0  0  0  0  0  0
    6.0851   -1.8572   -3.6069 N   0  0  0  0  0  0  0  0  0  0  0  0
   -0.0256   -1.8991    1.6122 C   0  0  0  0  0  0  0  0  0  0  0  0
   -0.4531   -1.2632    2.9568 C   0  0  0  0  0  0  0  0  0  0  0  0
    1.4842   -2.2326    1.7789 C   0  0  0  0  0  0  0  0  0  0  0  0
   -0.7933   -3.2359    1.4874 C   0  0  0  0  0  0  0  0  0  0  0  0
   -1.0070    2.7492    0.3025 C   0  0  0  0  0  0  0  0  0  0  0  0
   -2.2344    2.6512   -0.3192 O   0  0  0  0  0  0  0  0  0  0  0  0
   -3.2496    3.3922    0.3626 C   0  0  0  0  0  0  0  0  0  0  0  0
   -0.0903    6.6511    1.0153 H   0  0  0  0  0  0  0  0  0  0  0  0
    0.6214    6.2740   -0.6041 H   0  0  0  0  0  0  0  0  0  0  0  0
   -0.9400    7.0882   -0.4693 H   0  0  0  0  0  0  0  0  0  0  0  0
    1.4615    4.9394    1.1872 H   0  0  0  0  0  0  0  0  0  0  0  0
    2.5272    2.8505    1.8683 H   0  0  0  0  0  0  0  0  0  0  0  0
    1.4260    0.7026    1.5267 H   0  0  0  0  0  0  0  0  0  0  0  0
   -1.4533    0.3137   -0.6132 H   0  0  0  0  0  0  0  0  0  0  0  0
   -2.8426   -1.5492   -0.0646 H   0  0  0  0  0  0  0  0  0  0  0  0
   -5.5695    0.3089   -0.0798 H   0  0  0  0  0  0  0  0  0  0  0  0
   -5.3015    0.7385    1.6101 H   0  0  0  0  0  0  0  0  0  0  0  0
   -6.6089   -0.3646    1.1889 H   0  0  0  0  0  0  0  0  0  0  0  0
   -4.2850   -0.9971    3.2288 H   0  0  0  0  0  0  0  0  0  0  0  0
   -3.9292   -2.6266    2.6569 H   0  0  0  0  0  0  0  0  0  0  0  0
   -5.6086   -2.1025    2.8547 H   0  0  0  0  0  0  0  0  0  0  0  0
   -4.5162   -3.3083    0.2564 H   0  0  0  0  0  0  0  0  0  0  0  0
   -5.1854   -2.1202   -0.8666 H   0  0  0  0  0  0  0  0  0  0  0  0
   -6.1729   -2.7203    0.4777 H   0  0  0  0  0  0  0  0  0  0  0  0
    0.6051    0.5662   -1.5947 H   0  0  0  0  0  0  0  0  0  0  0  0
   -0.5509   -0.4254   -2.5132 H   0  0  0  0  0  0  0  0  0  0  0  0
    1.3738   -1.8438   -3.3250 H   0  0  0  0  0  0  0  0  0  0  0  0
    1.5107   -0.1396   -3.7995 H   0  0  0  0  0  0  0  0  0  0  0  0
    3.6614   -1.6649   -3.9785 H   0  0  0  0  0  0  0  0  0  0  0  0
    5.4352   -0.4584   -0.6789 H   0  0  0  0  0  0  0  0  0  0  0  0
    9.0712   -0.3276   -1.4159 H   0  0  0  0  0  0  0  0  0  0  0  0
    8.9531   -2.0235   -0.9055 H   0  0  0  0  0  0  0  0  0  0  0  0
    8.1796   -0.7519    0.0545 H   0  0  0  0  0  0  0  0  0  0  0  0
   -1.5376   -1.2268    3.0719 H   0  0  0  0  0  0  0  0  0  0  0  0
   -0.0951   -1.8630    3.8035 H   0  0  0  0  0  0  0  0  0  0  0  0
   -0.0517   -0.2571    3.0924 H   0  0  0  0  0  0  0  0  0  0  0  0
    1.6600   -2.8251    2.6842 H   0  0  0  0  0  0  0  0  0  0  0  0
    2.0904   -1.3266    1.8580 H   0  0  0  0  0  0  0  0  0  0  0  0
    1.8875   -2.8196    0.9498 H   0  0  0  0  0  0  0  0  0  0  0  0
   -0.6768   -3.8401    2.3957 H   0  0  0  0  0  0  0  0  0  0  0  0
   -0.4407   -3.8508    0.6546 H   0  0  0  0  0  0  0  0  0  0  0  0
   -1.8627   -3.0744    1.3373 H   0  0  0  0  0  0  0  0  0  0  0  0
   -3.0382    3.5367    1.4287 H   0  0  0  0  0  0  0  0  0  0  0  0
   -3.4026    4.3561   -0.1320 H   0  0  0  0  0  0  0  0  0  0  0  0
   -4.1827    2.8277    0.2798 H   0  0  0  0  0  0  0  0  0  0  0  0
  1  2  1  0
  2  3  1  0
  3  4  2  0
  4  5  1  0
  5  6  2  0
  6  7  1  0
  7  8  1  0
  8  9  1  0
  9 10  2  0
  9 11  1  0
 11 12  1  0
 12 13  1  0
 12 14  1  0
 12 15  1  0
  8 16  1  0
 16 17  1  0
 17 18  2  0
 17 19  1  0
 19 20  1  0
 20 21  1  0
 21 22  2  0
 21 23  1  0
 23 24  1  0
 24 25  1  0
 25 26  2  0
 26 27  1  0
 26 28  1  0
 28 29  1  0
 16 30  1  0
 30 31  1  0
 30 32  1  0
 30 33  1  0
  7 34  2  0
 34 35  1  0
 35 36  1  0
 34  3  1  0
 29 24  2  0
  1 37  1  0
  1 38  1  0
  1 39  1  0
  4 40  1  0
  5 41  1  0
  6 42  1  0
  8 43  1  0
 11 44  1  0
 13 45  1  0
 13 46  1  0
 13 47  1  0
 14 48  1  0
 14 49  1  0
 14 50  1  0
 15 51  1  0
 15 52  1  0
 15 53  1  0
 19 54  1  0
 19 55  1  0
 20 56  1  0
 20 57  1  0
 23 58  1  0
 25 59  1  0
 27 60  1  0
 27 61  1  0
 27 62  1  0
 31 63  1  0
 31 64  1  0
 31 65  1  0
 32 66  1  0
 32 67  1  0
 32 68  1  0
 33 69  1  0
 33 70  1  0
 33 71  1  0
 36 72  1  0
 36 73  1  0
 36 74  1  0
M  END
$$$$
