
     RDKit          3D

 24 24  0  0  0  0  0  0  0  0999 V2000
   -4.1639   -0.2973    0.3945 C   0  0  0  0  0  0  0  0  0  0  0  0
   -3.4665   -0.9613   -0.6846 N   0  0  0  0  0  0  0  0  0  0  0  0
   -2.1159   -0.9876   -0.9262 C   0  0  0  0  0  0  0  0  0  0  0  0
   -1.6023   -2.0695   -2.0888 S   0  0  0  0  0  0  0  0  0  0  0  0
   -1.3859   -0.0873   -0.1907 N   0  0  0  0  0  0  0  0  0  0  0  0
    0.0037    0.0469    0.0267 C   0  0  0  0  0  0  0  0  0  0  0  0
    0.9405   -0.9669   -0.1661 C   0  0  0  0  0  0  0  0  0  0  0  0
    2.2977   -0.7465    0.1019 C   0  0  0  0  0  0  0  0  0  0  0  0
    2.7391    0.4858    0.5915 C   0  0  0  0  0  0  0  0  0  0  0  0
    4.1973    0.7282    0.8421 C   0  0  0  0  0  0  0  0  0  0  0  0
    1.8028    1.5017    0.7948 C   0  0  0  0  0  0  0  0  0  0  0  0
    0.4481    1.2784    0.5270 C   0  0  0  0  0  0  0  0  0  0  0  0
   -4.1400    0.7822    0.2252 H   0  0  0  0  0  0  0  0  0  0  0  0
   -5.1997   -0.6445    0.4054 H   0  0  0  0  0  0  0  0  0  0  0  0
   -3.6794   -0.5343    1.3452 H   0  0  0  0  0  0  0  0  0  0  0  0
   -3.9858   -1.6491   -1.2207 H   0  0  0  0  0  0  0  0  0  0  0  0
   -1.9308    0.6987    0.1322 H   0  0  0  0  0  0  0  0  0  0  0  0
    0.6528   -1.9581   -0.4957 H   0  0  0  0  0  0  0  0  0  0  0  0
    3.0052   -1.5553   -0.0690 H   0  0  0  0  0  0  0  0  0  0  0  0
    4.6997   -0.1951    1.1495 H   0  0  0  0  0  0  0  0  0  0  0  0
    4.3398    1.4580    1.6461 H   0  0  0  0  0  0  0  0  0  0  0  0
    4.6755    1.1057   -0.0669 H   0  0  0  0  0  0  0  0  0  0  0  0
    2.1192    2.4749    1.1630 H   0  0  0  0  0  0  0  0  0  0  0  0
   -0.2512    2.0921    0.7004 H   0  0  0  0  0  0  0  0  0  0  0  0
  1  2  1  0
  2  3  1  0
  3  4  2  0
  3  5  1  0
  5  6  1  0
  6  7  2  0
  7  8  1  0
  8  9  2  0
  9 10  1  0
  9 11  1  0
 11 12  2  0
 12  6  1  0
  1 13  1  0
  1 14  1  0
  1 15  1  0
  2 16  1  0
  5 17  1  0
  7 18  1  0
  8 19  1  0
 10 20  1  0
 10 21  1  0
 10 22  1  0
 11 23  1  0
 12 24  1  0
M  END
$$$$
