
     RDKit          3D

 46 48  0  0  0  0  0  0  0  0999 V2000
   -1.2282   -3.3550   -0.5962 C   0  0  0  0  0  0  0  0  0  0  0  0
   -2.0342   -2.3435   -0.2470 C   0  0  0  0  0  0  0  0  0  0  0  0
   -2.6810   -1.3959   -1.2211 C   0  0  0  0  0  0  0  0  0  0  0  0
   -2.2350   -0.0290   -1.0218 N   0  0  0  0  0  0  0  0  0  0  0  0
   -1.1630    0.5971   -1.5986 C   0  0  0  0  0  0  0  0  0  0  0  0
   -0.1527   -0.1302   -2.7976 S   0  0  0  0  0  0  0  0  0  0  0  0
    1.1993    1.0788   -2.9238 C   0  0  0  0  0  0  0  0  0  0  0  0
    2.2871    0.8455   -1.9008 C   0  0  0  0  0  0  0  0  0  0  0  0
    2.3291    1.5968   -0.7200 C   0  0  0  0  0  0  0  0  0  0  0  0
    3.3448    1.3872    0.2215 C   0  0  0  0  0  0  0  0  0  0  0  0
    4.3320    0.4193   -0.0042 C   0  0  0  0  0  0  0  0  0  0  0  0
    5.4024    0.2529    1.0171 C   0  0  0  0  0  0  0  0  0  0  0  0
    5.4291    0.8593    2.0784 O   0  0  0  0  0  0  0  0  0  0  0  0
    6.3274   -0.6461    0.5964 O   0  0  0  0  0  0  0  0  0  0  0  0
    7.3986   -0.8524    1.5183 C   0  0  0  0  0  0  0  0  0  0  0  0
    4.2850   -0.3460   -1.1778 C   0  0  0  0  0  0  0  0  0  0  0  0
    3.2703   -0.1335   -2.1159 C   0  0  0  0  0  0  0  0  0  0  0  0
   -1.0445    1.8117   -1.1136 N   0  0  0  0  0  0  0  0  0  0  0  0
   -2.0505    2.0015   -0.2013 N   0  0  0  0  0  0  0  0  0  0  0  0
   -2.7836    0.9057   -0.1734 C   0  0  0  0  0  0  0  0  0  0  0  0
   -3.9336    0.7378    0.6528 C   0  0  0  0  0  0  0  0  0  0  0  0
   -5.5197    0.6917    0.0008 S   0  0  0  0  0  0  0  0  0  0  0  0
   -6.1549    0.4831    1.5799 C   0  0  0  0  0  0  0  0  0  0  0  0
   -7.4787    0.3707    1.7913 N   0  0  0  0  0  0  0  0  0  0  0  0
   -5.2713    0.4636    2.5462 N   0  0  0  0  0  0  0  0  0  0  0  0
   -3.9915    0.6396    2.0329 C   0  0  0  0  0  0  0  0  0  0  0  0
   -2.8455    0.6815    2.9846 C   0  0  0  0  0  0  0  0  0  0  0  0
   -0.7965   -4.0077    0.1609 H   0  0  0  0  0  0  0  0  0  0  0  0
   -0.9713   -3.5575   -1.6323 H   0  0  0  0  0  0  0  0  0  0  0  0
   -2.2576   -2.1948    0.8083 H   0  0  0  0  0  0  0  0  0  0  0  0
   -3.7688   -1.4349   -1.0978 H   0  0  0  0  0  0  0  0  0  0  0  0
   -2.4862   -1.6757   -2.2621 H   0  0  0  0  0  0  0  0  0  0  0  0
    1.6361    0.9767   -3.9256 H   0  0  0  0  0  0  0  0  0  0  0  0
    0.8201    2.1077   -2.8753 H   0  0  0  0  0  0  0  0  0  0  0  0
    1.5701    2.3546   -0.5220 H   0  0  0  0  0  0  0  0  0  0  0  0
    3.3618    1.9887    1.1272 H   0  0  0  0  0  0  0  0  0  0  0  0
    7.0224   -1.3090    2.4393 H   0  0  0  0  0  0  0  0  0  0  0  0
    7.9166    0.0889    1.7317 H   0  0  0  0  0  0  0  0  0  0  0  0
    8.1126   -1.5395    1.0574 H   0  0  0  0  0  0  0  0  0  0  0  0
    5.0325   -1.1094   -1.3793 H   0  0  0  0  0  0  0  0  0  0  0  0
    3.2518   -0.7352   -3.0237 H   0  0  0  0  0  0  0  0  0  0  0  0
   -8.0760    0.8354    1.1143 H   0  0  0  0  0  0  0  0  0  0  0  0
   -7.7579    0.5492    2.7520 H   0  0  0  0  0  0  0  0  0  0  0  0
   -2.2074    1.5535    2.7957 H   0  0  0  0  0  0  0  0  0  0  0  0
   -2.2379   -0.2263    2.8889 H   0  0  0  0  0  0  0  0  0  0  0  0
   -3.2015    0.7433    4.0184 H   0  0  0  0  0  0  0  0  0  0  0  0
  1  2  2  0
  2  3  1  0
  3  4  1  0
  4  5  1  0
  5  6  1  0
  6  7  1  0
  7  8  1  0
  8  9  2  0
  9 10  1  0
 10 11  2  0
 11 12  1  0
 12 13  2  0
 12 14  1  0
 14 15  1  0
 11 16  1  0
 16 17  2  0
  5 18  2  0
 18 19  1  0
 19 20  2  0
 20 21  1  0
 21 22  1  0
 22 23  1  0
 23 24  1  0
 23 25  2  0
 25 26  1  0
 26 27  1  0
 20  4  1  0
 26 21  2  0
 17  8  1  0
  1 28  1  0
  1 29  1  0
  2 30  1  0
  3 31  1  0
  3 32  1  0
  7 33  1  0
  7 34  1  0
  9 35  1  0
 10 36  1  0
 15 37  1  0
 15 38  1  0
 15 39  1  0
 16 40  1  0
 17 41  1  0
 24 42  1  0
 24 43  1  0
 27 44  1  0
 27 45  1  0
 27 46  1  0
M  END
$$$$
