
     RDKit          3D

 38 39  0  0  0  0  0  0  0  0999 V2000
   -2.9227    2.6427    2.1355 C   0  0  0  0  0  0  0  0  0  0  0  0
   -3.9332    2.1285    1.4205 C   0  0  0  0  0  0  0  0  0  0  0  0
   -4.0596    0.7358    0.8599 C   0  0  0  0  0  0  0  0  0  0  0  0
   -2.9064   -0.2033    1.1262 C   0  0  0  0  0  0  0  0  0  0  0  0
   -2.8974   -1.0158    2.2643 C   0  0  0  0  0  0  0  0  0  0  0  0
   -1.8279   -1.8759    2.5045 C   0  0  0  0  0  0  0  0  0  0  0  0
   -0.7544   -1.9166    1.6113 C   0  0  0  0  0  0  0  0  0  0  0  0
    0.2689   -2.7985    1.8496 O   0  0  0  0  0  0  0  0  0  0  0  0
   -0.7091   -1.1035    0.4656 C   0  0  0  0  0  0  0  0  0  0  0  0
    0.4333   -1.0795   -0.4828 C   0  0  0  0  0  0  0  0  0  0  0  0
    1.0192    0.1595   -0.8233 C   0  0  0  0  0  0  0  0  0  0  0  0
    2.0594    0.2638   -1.7643 C   0  0  0  0  0  0  0  0  0  0  0  0
    2.6689    1.6064   -2.0909 C   0  0  0  0  0  0  0  0  0  0  0  0
    3.9230    1.8691   -1.3060 C   0  0  0  0  0  0  0  0  0  0  0  0
    5.1214    2.1114   -1.8534 C   0  0  0  0  0  0  0  0  0  0  0  0
    2.5382   -0.8990   -2.3755 C   0  0  0  0  0  0  0  0  0  0  0  0
    1.9881   -2.1365   -2.0516 C   0  0  0  0  0  0  0  0  0  0  0  0
    0.9618   -2.2222   -1.1102 C   0  0  0  0  0  0  0  0  0  0  0  0
    0.5153   -3.4887   -0.8400 O   0  0  0  0  0  0  0  0  0  0  0  0
   -1.8127   -0.2540    0.2441 C   0  0  0  0  0  0  0  0  0  0  0  0
   -2.0410    2.0656    2.3960 H   0  0  0  0  0  0  0  0  0  0  0  0
   -2.9577    3.6716    2.4809 H   0  0  0  0  0  0  0  0  0  0  0  0
   -4.7794    2.7795    1.2042 H   0  0  0  0  0  0  0  0  0  0  0  0
   -4.2113    0.8109   -0.2247 H   0  0  0  0  0  0  0  0  0  0  0  0
   -4.9809    0.2868    1.2530 H   0  0  0  0  0  0  0  0  0  0  0  0
   -3.7281   -0.9848    2.9660 H   0  0  0  0  0  0  0  0  0  0  0  0
   -1.8527   -2.5131    3.3834 H   0  0  0  0  0  0  0  0  0  0  0  0
    0.2247   -3.0770    2.7809 H   0  0  0  0  0  0  0  0  0  0  0  0
    0.6581    1.0674   -0.3410 H   0  0  0  0  0  0  0  0  0  0  0  0
    2.8568    1.6607   -3.1709 H   0  0  0  0  0  0  0  0  0  0  0  0
    1.9453    2.4025   -1.8755 H   0  0  0  0  0  0  0  0  0  0  0  0
    3.8314    1.8603   -0.2216 H   0  0  0  0  0  0  0  0  0  0  0  0
    5.9899    2.2923   -1.2274 H   0  0  0  0  0  0  0  0  0  0  0  0
    5.2656    2.1299   -2.9291 H   0  0  0  0  0  0  0  0  0  0  0  0
    3.3483   -0.8480   -3.0989 H   0  0  0  0  0  0  0  0  0  0  0  0
    2.3661   -3.0407   -2.5203 H   0  0  0  0  0  0  0  0  0  0  0  0
    0.2157   -3.4714    0.0897 H   0  0  0  0  0  0  0  0  0  0  0  0
   -1.8249    0.3838   -0.6397 H   0  0  0  0  0  0  0  0  0  0  0  0
  1  2  2  0
  2  3  1  0
  3  4  1  0
  4  5  2  0
  5  6  1  0
  6  7  2  0
  7  8  1  0
  7  9  1  0
  9 10  1  0
 10 11  2  0
 11 12  1  0
 12 13  1  0
 13 14  1  0
 14 15  2  0
 12 16  2  0
 16 17  1  0
 17 18  2  0
 18 19  1  0
  9 20  2  0
 20  4  1  0
 18 10  1  0
  1 21  1  0
  1 22  1  0
  2 23  1  0
  3 24  1  0
  3 25  1  0
  5 26  1  0
  6 27  1  0
  8 28  1  0
 11 29  1  0
 13 30  1  0
 13 31  1  0
 14 32  1  0
 15 33  1  0
 15 34  1  0
 16 35  1  0
 17 36  1  0
 19 37  1  0
 20 38  1  0
M  END
$$$$
