
     RDKit          3D

 97 99  0  0  0  0  0  0  0  0999 V2000
   -1.9083   -0.2483   -2.3750 C   0  0  0  0  0  0  0  0  0  0  0  0
   -1.5895    0.1497   -1.1241 C   0  0  0  0  0  0  0  0  0  0  0  0
   -2.2266   -0.4274    0.1450 C   0  0  1  0  0  0  0  0  0  0  0  0
   -3.4266    0.3714    0.3324 O   0  0  0  0  0  0  0  0  0  0  0  0
   -3.7379    0.7212    1.6135 C   0  0  0  0  0  0  0  0  0  0  0  0
   -3.0854    0.4158    2.6018 O   0  0  0  0  0  0  0  0  0  0  0  0
   -5.0479    1.4900    1.6398 C   0  0  0  0  0  0  0  0  0  0  0  0
   -5.5646    1.6311    3.0706 C   0  0  0  0  0  0  0  0  0  0  0  0
   -4.8757    2.8589    0.9971 C   0  0  0  0  0  0  0  0  0  0  0  0
   -2.5939   -1.9377    0.0927 C   0  0  0  0  0  0  0  0  0  0  0  0
   -3.6384   -2.2590    1.0521 O   0  0  0  0  0  0  0  0  0  0  0  0
   -4.8990   -2.3625    0.5627 C   0  0  0  0  0  0  0  0  0  0  0  0
   -5.8586   -2.6799    1.6694 C   0  0  0  0  0  0  0  0  0  0  0  0
   -5.2213   -2.2189   -0.6071 O   0  0  0  0  0  0  0  0  0  0  0  0
   -1.4196   -2.8236    0.5278 C   0  0  0  0  0  0  0  0  0  0  0  0
   -1.0492   -2.8380    1.7117 O   0  0  0  0  0  0  0  0  0  0  0  0
   -0.6896   -3.7095   -0.5261 C   0  0  0  0  0  0  0  0  0  0  0  0
   -0.1081   -4.9441    0.2067 C   0  0  0  0  0  0  0  0  0  0  0  0
   -1.6334   -4.2649   -1.6132 C   0  0  0  0  0  0  0  0  0  0  0  0
    0.3956   -2.8626   -1.1713 C   0  0  0  0  0  0  0  0  0  0  0  0
    1.6097   -2.6094   -0.6503 C   0  0  0  0  0  0  0  0  0  0  0  0
    2.6283   -1.6965   -1.2924 C   0  0  2  0  0  0  0  0  0  0  0  0
    3.9150   -2.4936   -1.5426 C   0  0  0  0  0  0  0  0  0  0  0  0
    2.9235   -0.4103   -0.4626 C   0  0  2  0  0  0  0  0  0  0  0  0
    3.5559   -0.8072    0.7885 O   0  0  0  0  0  0  0  0  0  0  0  0
    4.7982   -0.3211    1.0309 C   0  0  0  0  0  0  0  0  0  0  0  0
    5.4388    0.3997    0.2833 O   0  0  0  0  0  0  0  0  0  0  0  0
    5.2717   -0.7494    2.3748 C   0  0  0  0  0  0  0  0  0  0  0  0
    4.5683   -1.6740    3.1600 C   0  0  0  0  0  0  0  0  0  0  0  0
    5.0470   -2.0250    4.4246 C   0  0  0  0  0  0  0  0  0  0  0  0
    6.2286   -1.4608    4.9072 C   0  0  0  0  0  0  0  0  0  0  0  0
    6.9379   -0.5486    4.1278 C   0  0  0  0  0  0  0  0  0  0  0  0
    6.4623   -0.1931    2.8641 C   0  0  0  0  0  0  0  0  0  0  0  0
    1.6785    0.4688   -0.0902 C   0  0  1  0  0  0  0  0  0  0  0  0
    0.8629   -0.2309    0.8430 O   0  0  0  0  0  0  0  0  0  0  0  0
    2.0978    1.8045    0.5607 C   0  0  0  0  0  0  0  0  0  0  0  0
    2.3566    2.7780   -0.5984 C   0  0  2  0  0  0  0  0  0  0  0  0
    1.8503    4.1821   -0.2952 C   0  0  0  0  0  0  0  0  0  0  0  0
    1.7535    2.0930   -1.8422 C   0  0  2  0  0  0  0  0  0  0  0  0
    1.1731    3.0114   -2.7661 O   0  0  0  0  0  0  0  0  0  0  0  0
    0.9323    2.5041   -4.0074 C   0  0  0  0  0  0  0  0  0  0  0  0
    0.3448    3.5545   -4.8953 C   0  0  0  0  0  0  0  0  0  0  0  0
    1.1325    1.3477   -4.3560 O   0  0  0  0  0  0  0  0  0  0  0  0
    0.8437    0.9647   -1.3025 C   0  0  2  0  0  0  0  0  0  0  0  0
   -0.6288    1.3332   -0.9117 C   0  0  1  0  0  0  0  0  0  0  0  0
   -1.1361    2.3965   -1.7471 O   0  0  0  0  0  0  0  0  0  0  0  0
   -1.7143    3.4505   -1.1193 C   0  0  0  0  0  0  0  0  0  0  0  0
   -2.1789    4.4567   -2.1230 C   0  0  0  0  0  0  0  0  0  0  0  0
   -1.8194    3.6049    0.0901 O   0  0  0  0  0  0  0  0  0  0  0  0
   -2.6470   -1.0116   -2.5937 H   0  0  0  0  0  0  0  0  0  0  0  0
   -1.4620    0.2278   -3.2449 H   0  0  0  0  0  0  0  0  0  0  0  0
   -1.5455   -0.2660    0.9855 H   0  0  0  0  0  0  0  0  0  0  0  0
   -5.7844    0.9050    1.0764 H   0  0  0  0  0  0  0  0  0  0  0  0
   -5.7015    0.6474    3.5335 H   0  0  0  0  0  0  0  0  0  0  0  0
   -4.8614    2.1986    3.6943 H   0  0  0  0  0  0  0  0  0  0  0  0
   -6.5314    2.1480    3.0872 H   0  0  0  0  0  0  0  0  0  0  0  0
   -4.1231    3.4522    1.5253 H   0  0  0  0  0  0  0  0  0  0  0  0
   -4.5548    2.7636   -0.0439 H   0  0  0  0  0  0  0  0  0  0  0  0
   -5.8192    3.4177    1.0012 H   0  0  0  0  0  0  0  0  0  0  0  0
   -2.9334   -2.2374   -0.8934 H   0  0  0  0  0  0  0  0  0  0  0  0
   -5.5895   -3.6343    2.1297 H   0  0  0  0  0  0  0  0  0  0  0  0
   -5.8483   -1.8779    2.4109 H   0  0  0  0  0  0  0  0  0  0  0  0
   -6.8683   -2.7612    1.2566 H   0  0  0  0  0  0  0  0  0  0  0  0
    0.4842   -5.5690   -0.4723 H   0  0  0  0  0  0  0  0  0  0  0  0
   -0.9131   -5.5665    0.6183 H   0  0  0  0  0  0  0  0  0  0  0  0
    0.5370   -4.6711    1.0488 H   0  0  0  0  0  0  0  0  0  0  0  0
   -1.1390   -5.0444   -2.2064 H   0  0  0  0  0  0  0  0  0  0  0  0
   -1.9579   -3.4932   -2.3199 H   0  0  0  0  0  0  0  0  0  0  0  0
   -2.5355   -4.7005   -1.1666 H   0  0  0  0  0  0  0  0  0  0  0  0
    0.1415   -2.3991   -2.1263 H   0  0  0  0  0  0  0  0  0  0  0  0
    1.8857   -3.0272    0.3176 H   0  0  0  0  0  0  0  0  0  0  0  0
    2.2607   -1.3839   -2.2782 H   0  0  0  0  0  0  0  0  0  0  0  0
    4.3396   -2.8891   -0.6119 H   0  0  0  0  0  0  0  0  0  0  0  0
    4.6737   -1.8656   -2.0237 H   0  0  0  0  0  0  0  0  0  0  0  0
    3.7244   -3.3469   -2.2047 H   0  0  0  0  0  0  0  0  0  0  0  0
    3.6159    0.1926   -1.0607 H   0  0  0  0  0  0  0  0  0  0  0  0
    3.6460   -2.1270    2.8064 H   0  0  0  0  0  0  0  0  0  0  0  0
    4.4935   -2.7338    5.0359 H   0  0  0  0  0  0  0  0  0  0  0  0
    6.5963   -1.7358    5.8933 H   0  0  0  0  0  0  0  0  0  0  0  0
    7.8566   -0.1079    4.5065 H   0  0  0  0  0  0  0  0  0  0  0  0
    7.0210    0.5274    2.2703 H   0  0  0  0  0  0  0  0  0  0  0  0
    1.4511   -0.6196    1.5196 H   0  0  0  0  0  0  0  0  0  0  0  0
    2.9738    1.7154    1.2075 H   0  0  0  0  0  0  0  0  0  0  0  0
    1.2982    2.1764    1.2139 H   0  0  0  0  0  0  0  0  0  0  0  0
    3.4413    2.8560   -0.7559 H   0  0  0  0  0  0  0  0  0  0  0  0
    1.9820    4.8462   -1.1536 H   0  0  0  0  0  0  0  0  0  0  0  0
    0.7938    4.1797   -0.0247 H   0  0  0  0  0  0  0  0  0  0  0  0
    2.4087    4.6136    0.5423 H   0  0  0  0  0  0  0  0  0  0  0  0
    2.6019    1.6243   -2.3624 H   0  0  0  0  0  0  0  0  0  0  0  0
    0.9040    4.4878   -4.7932 H   0  0  0  0  0  0  0  0  0  0  0  0
   -0.7071    3.7036   -4.6437 H   0  0  0  0  0  0  0  0  0  0  0  0
    0.4209    3.2313   -5.9378 H   0  0  0  0  0  0  0  0  0  0  0  0
    0.7877    0.1893   -2.0702 H   0  0  0  0  0  0  0  0  0  0  0  0
   -0.6636    1.6445    0.1367 H   0  0  0  0  0  0  0  0  0  0  0  0
   -2.7188    3.9588   -2.9324 H   0  0  0  0  0  0  0  0  0  0  0  0
   -2.8669    5.1590   -1.6426 H   0  0  0  0  0  0  0  0  0  0  0  0
   -1.3233    5.0107   -2.5142 H   0  0  0  0  0  0  0  0  0  0  0  0
  1  2  2  0
  2  3  1  0
  3  4  1  0
  4  5  1  0
  5  6  2  0
  5  7  1  0
  7  8  1  0
  7  9  1  0
  3 10  1  0
 10 11  1  0
 11 12  1  0
 12 13  1  0
 12 14  2  0
 10 15  1  0
 15 16  2  0
 15 17  1  0
 17 18  1  0
 17 19  1  0
 17 20  1  0
 20 21  2  0
 21 22  1  0
 22 23  1  0
 22 24  1  0
 24 25  1  0
 25 26  1  0
 26 27  2  0
 26 28  1  0
 28 29  2  0
 29 30  1  0
 30 31  2  0
 31 32  1  0
 32 33  2  0
 24 34  1  0
 34 35  1  1
 34 36  1  0
 36 37  1  0
 37 38  1  0
 37 39  1  0
 39 40  1  0
 40 41  1  0
 41 42  1  0
 41 43  2  0
 39 44  1  0
 44 45  1  0
 45 46  1  0
 46 47  1  0
 47 48  1  0
 47 49  2  0
 45  2  1  0
 33 28  1  0
 44 34  1  0
  1 50  1  0
  1 51  1  0
  3 52  1  1
  7 53  1  0
  8 54  1  0
  8 55  1  0
  8 56  1  0
  9 57  1  0
  9 58  1  0
  9 59  1  0
 10 60  1  0
 13 61  1  0
 13 62  1  0
 13 63  1  0
 18 64  1  0
 18 65  1  0
 18 66  1  0
 19 67  1  0
 19 68  1  0
 19 69  1  0
 20 70  1  0
 21 71  1  0
 22 72  1  6
 23 73  1  0
 23 74  1  0
 23 75  1  0
 24 76  1  6
 29 77  1  0
 30 78  1  0
 31 79  1  0
 32 80  1  0
 33 81  1  0
 35 82  1  0
 36 83  1  0
 36 84  1  0
 37 85  1  6
 38 86  1  0
 38 87  1  0
 38 88  1  0
 39 89  1  6
 42 90  1  0
 42 91  1  0
 42 92  1  0
 44 93  1  6
 45 94  1  1
 48 95  1  0
 48 96  1  0
 48 97  1  0
M  END
$$$$
