
     RDKit          3D

 23 23  0  0  0  0  0  0  0  0999 V2000
   -2.1489    1.3994   -1.1257 C   0  0  0  0  0  0  0  0  0  0  0  0
   -1.7706    0.2203   -0.2575 C   0  0  0  0  0  0  0  0  0  0  0  0
   -0.3464   -0.0090   -0.0148 C   0  0  0  0  0  0  0  0  0  0  0  0
    0.6670    0.7337   -0.4932 C   0  0  0  0  0  0  0  0  0  0  0  0
    2.0227    0.4177   -0.1919 C   0  0  0  0  0  0  0  0  0  0  0  0
    3.1755    1.0788   -0.6040 C   0  0  0  0  0  0  0  0  0  0  0  0
    4.2903    0.4010   -0.0559 C   0  0  0  0  0  0  0  0  0  0  0  0
    3.7729   -0.6427    0.6661 C   0  0  0  0  0  0  0  0  0  0  0  0
    2.4209   -0.6435    0.5927 O   0  0  0  0  0  0  0  0  0  0  0  0
   -2.7624   -0.5476    0.2402 C   0  0  0  0  0  0  0  0  0  0  0  0
   -2.6554   -1.7396    1.1029 C   0  0  0  0  0  0  0  0  0  0  0  0
   -1.6662   -2.2833    1.5478 O   0  0  0  0  0  0  0  0  0  0  0  0
   -3.8886   -2.2066    1.3711 O   0  0  0  0  0  0  0  0  0  0  0  0
   -3.2335    1.4928   -1.2522 H   0  0  0  0  0  0  0  0  0  0  0  0
   -1.7188    1.2969   -2.1281 H   0  0  0  0  0  0  0  0  0  0  0  0
   -1.7980    2.3371   -0.6809 H   0  0  0  0  0  0  0  0  0  0  0  0
   -0.0895   -0.8618    0.6123 H   0  0  0  0  0  0  0  0  0  0  0  0
    0.4920    1.5977   -1.1238 H   0  0  0  0  0  0  0  0  0  0  0  0
    3.1999    1.9572   -1.2341 H   0  0  0  0  0  0  0  0  0  0  0  0
    5.3367    0.6434   -0.1728 H   0  0  0  0  0  0  0  0  0  0  0  0
    4.2078   -1.4348    1.2592 H   0  0  0  0  0  0  0  0  0  0  0  0
   -3.7929   -0.2950    0.0023 H   0  0  0  0  0  0  0  0  0  0  0  0
   -3.7146   -2.9854    1.9404 H   0  0  0  0  0  0  0  0  0  0  0  0
  1  2  1  0
  2  3  1  0
  3  4  2  3
  4  5  1  0
  5  6  2  0
  6  7  1  0
  7  8  2  0
  8  9  1  0
  2 10  2  3
 10 11  1  0
 11 12  2  0
 11 13  1  0
  9  5  1  0
  1 14  1  0
  1 15  1  0
  1 16  1  0
  3 17  1  0
  4 18  1  0
  6 19  1  0
  7 20  1  0
  8 21  1  0
 10 22  1  0
 13 23  1  0
M  END
$$$$
