
     RDKit          3D

 44 46  0  0  0  0  0  0  0  0999 V2000
   -4.3790    1.6599   -3.0464 C   0  0  0  0  0  0  0  0  0  0  0  0
   -4.0426    1.6370   -1.5534 C   0  0  0  0  0  0  0  0  0  0  0  0
   -3.3398    2.9299   -1.1319 C   0  0  0  0  0  0  0  0  0  0  0  0
   -3.2239    0.4114   -1.1836 C   0  0  0  0  0  0  0  0  0  0  0  0
   -1.9477    0.1898   -1.7271 C   0  0  0  0  0  0  0  0  0  0  0  0
   -1.2084   -0.9405   -1.3753 C   0  0  0  0  0  0  0  0  0  0  0  0
   -1.7388   -1.8519   -0.4604 C   0  0  0  0  0  0  0  0  0  0  0  0
   -0.8010   -3.2909   -0.0010 S   0  0  0  0  0  6  0  0  0  0  0  0
    0.1978   -3.5264   -1.0208 O   0  0  0  0  0  0  0  0  0  0  0  0
   -1.7434   -4.3236    0.3777 O   0  0  0  0  0  0  0  0  0  0  0  0
   -0.0408   -2.8089    1.4313 N   0  0  0  0  0  0  0  0  0  0  0  0
    0.7314   -1.6137    1.4430 C   0  0  0  0  0  0  0  0  0  0  0  0
    0.2846   -0.5325    2.2013 C   0  0  0  0  0  0  0  0  0  0  0  0
    1.0032    0.6614    2.1932 C   0  0  0  0  0  0  0  0  0  0  0  0
    2.1692    0.7680    1.4363 C   0  0  0  0  0  0  0  0  0  0  0  0
    2.8076    1.9761    1.4979 O   0  0  0  0  0  0  0  0  0  0  0  0
    2.6311   -0.3088    0.6660 C   0  0  0  0  0  0  0  0  0  0  0  0
    4.0492   -0.2257   -0.4177 S   0  0  0  0  0  0  0  0  0  0  0  0
    5.3583    0.0279    0.6980 C   0  0  0  0  0  0  0  0  0  0  0  0
    5.4023    1.1082    1.5433 N   0  0  0  0  0  0  0  0  0  0  0  0
    6.5419    0.9383    2.1735 C   0  0  0  0  0  0  0  0  0  0  0  0
    7.1531   -0.1856    1.7135 N   0  0  0  0  0  0  0  0  0  0  0  0
    6.4190   -0.7801    0.7609 N   0  0  0  0  0  0  0  0  0  0  0  0
    1.8948   -1.5028    0.6780 C   0  0  0  0  0  0  0  0  0  0  0  0
   -3.0139   -1.6616    0.0762 C   0  0  0  0  0  0  0  0  0  0  0  0
   -3.7489   -0.5302   -0.2832 C   0  0  0  0  0  0  0  0  0  0  0  0
   -5.0387    2.5028   -3.2792 H   0  0  0  0  0  0  0  0  0  0  0  0
   -4.8925    0.7395   -3.3461 H   0  0  0  0  0  0  0  0  0  0  0  0
   -3.4820    1.7589   -3.6674 H   0  0  0  0  0  0  0  0  0  0  0  0
   -4.9956    1.5970   -1.0091 H   0  0  0  0  0  0  0  0  0  0  0  0
   -3.9799    3.7970   -1.3276 H   0  0  0  0  0  0  0  0  0  0  0  0
   -2.4002    3.0816   -1.6742 H   0  0  0  0  0  0  0  0  0  0  0  0
   -3.1088    2.9186   -0.0608 H   0  0  0  0  0  0  0  0  0  0  0  0
   -1.5173    0.8976   -2.4329 H   0  0  0  0  0  0  0  0  0  0  0  0
   -0.2236   -1.0955   -1.8111 H   0  0  0  0  0  0  0  0  0  0  0  0
   -0.6166   -3.0124    2.2464 H   0  0  0  0  0  0  0  0  0  0  0  0
   -0.6264   -0.5977    2.7890 H   0  0  0  0  0  0  0  0  0  0  0  0
    0.6581    1.5121    2.7750 H   0  0  0  0  0  0  0  0  0  0  0  0
    3.7581    1.8236    1.3089 H   0  0  0  0  0  0  0  0  0  0  0  0
    6.9626    1.5726    2.9411 H   0  0  0  0  0  0  0  0  0  0  0  0
    8.0406   -0.5936    1.9867 H   0  0  0  0  0  0  0  0  0  0  0  0
    2.2305   -2.3524    0.0858 H   0  0  0  0  0  0  0  0  0  0  0  0
   -3.4427   -2.3843    0.7663 H   0  0  0  0  0  0  0  0  0  0  0  0
   -4.7409   -0.3898    0.1422 H   0  0  0  0  0  0  0  0  0  0  0  0
  1  2  1  0
  2  3  1  0
  2  4  1  0
  4  5  2  0
  5  6  1  0
  6  7  2  0
  7  8  1  0
  8  9  2  0
  8 10  2  0
  8 11  1  0
 11 12  1  0
 12 13  2  0
 13 14  1  0
 14 15  2  0
 15 16  1  0
 15 17  1  0
 17 18  1  0
 18 19  1  0
 19 20  1  0
 20 21  2  0
 21 22  1  0
 22 23  1  0
 17 24  2  0
  7 25  1  0
 25 26  2  0
 26  4  1  0
 24 12  1  0
 23 19  2  0
  1 27  1  0
  1 28  1  0
  1 29  1  0
  2 30  1  0
  3 31  1  0
  3 32  1  0
  3 33  1  0
  5 34  1  0
  6 35  1  0
 11 36  1  0
 13 37  1  0
 14 38  1  0
 16 39  1  0
 21 40  1  0
 22 41  1  0
 24 42  1  0
 25 43  1  0
 26 44  1  0
M  END
$$$$
