
     RDKit          3D

 47 51  0  0  0  0  0  0  0  0999 V2000
   -0.2414   -1.5440   -2.3490 C   0  0  0  0  0  0  0  0  0  0  0  0
   -1.1761   -0.5993   -1.6597 C   0  0  0  0  0  0  0  0  0  0  0  0
   -2.2766   -0.2356   -2.2698 N   0  0  0  0  0  0  0  0  0  0  0  0
   -3.1076    0.6259   -1.6092 C   0  0  0  0  0  0  0  0  0  0  0  0
   -4.5722    1.1875   -2.2901 S   0  0  0  0  0  0  0  0  0  0  0  0
   -4.9245    2.1320   -0.9101 C   0  0  0  0  0  0  0  0  0  0  0  0
   -3.9597    2.0309    0.0769 C   0  0  0  0  0  0  0  0  0  0  0  0
   -2.9299    1.1682   -0.3539 C   0  0  0  0  0  0  0  0  0  0  0  0
   -1.6304    0.7162    0.3166 C   0  0  0  0  0  0  0  0  0  0  0  0
   -1.1361    1.0257    1.4870 N   0  0  0  0  0  0  0  0  0  0  0  0
    0.0548    0.3523    1.5992 N   0  0  0  0  0  0  0  0  0  0  0  0
    0.2449   -0.3437    0.4954 C   0  0  0  0  0  0  0  0  0  0  0  0
    1.6408   -1.3239    0.2154 S   0  0  0  0  0  0  0  0  0  0  0  0
    2.3888   -1.3236    1.8724 C   0  0  0  0  0  0  0  0  0  0  0  0
    3.6560   -2.1555    1.8347 C   0  0  0  0  0  0  0  0  0  0  0  0
    3.6673   -3.3528    2.1088 O   0  0  0  0  0  0  0  0  0  0  0  0
    4.7820   -1.4525    1.4578 N   0  0  0  0  0  0  0  0  0  0  0  0
    6.0277   -2.1332    1.1842 C   0  0  0  0  0  0  0  0  0  0  0  0
    6.0723   -2.4534   -0.2631 C   0  0  0  0  0  0  0  0  0  0  0  0
    5.7328   -3.5721   -0.9954 C   0  0  0  0  0  0  0  0  0  0  0  0
    5.9885   -3.2545   -2.3504 C   0  0  0  0  0  0  0  0  0  0  0  0
    6.4619   -1.9636   -2.3591 C   0  0  0  0  0  0  0  0  0  0  0  0
    6.5115   -1.4655   -1.0967 O   0  0  0  0  0  0  0  0  0  0  0  0
   -0.8091   -0.1506   -0.3730 N   0  0  0  0  0  0  0  0  0  0  0  0
   -4.0512    2.7805    1.3692 C   0  0  0  0  0  0  0  0  0  0  0  0
   -5.4710    3.3184    1.6125 C   0  0  0  0  0  0  0  0  0  0  0  0
   -6.0645    3.9568    0.3473 C   0  0  0  0  0  0  0  0  0  0  0  0
   -6.1777    2.9452   -0.8050 C   0  0  0  0  0  0  0  0  0  0  0  0
   -0.1319   -2.4649   -1.7713 H   0  0  0  0  0  0  0  0  0  0  0  0
    0.7267   -1.0675   -2.5208 H   0  0  0  0  0  0  0  0  0  0  0  0
   -0.6503   -1.8178   -3.3276 H   0  0  0  0  0  0  0  0  0  0  0  0
    2.6290   -0.3031    2.1886 H   0  0  0  0  0  0  0  0  0  0  0  0
    1.7048   -1.7613    2.6067 H   0  0  0  0  0  0  0  0  0  0  0  0
    4.6546   -0.5596    0.9984 H   0  0  0  0  0  0  0  0  0  0  0  0
    6.8416   -1.4532    1.4544 H   0  0  0  0  0  0  0  0  0  0  0  0
    6.1147   -3.0393    1.7918 H   0  0  0  0  0  0  0  0  0  0  0  0
    5.3415   -4.4968   -0.5927 H   0  0  0  0  0  0  0  0  0  0  0  0
    5.8434   -3.8869   -3.2148 H   0  0  0  0  0  0  0  0  0  0  0  0
    6.7884   -1.2911   -3.1401 H   0  0  0  0  0  0  0  0  0  0  0  0
   -3.7593    2.1386    2.2078 H   0  0  0  0  0  0  0  0  0  0  0  0
   -3.3461    3.6203    1.3364 H   0  0  0  0  0  0  0  0  0  0  0  0
   -5.4489    4.0512    2.4269 H   0  0  0  0  0  0  0  0  0  0  0  0
   -6.1230    2.4975    1.9378 H   0  0  0  0  0  0  0  0  0  0  0  0
   -7.0548    4.3717    0.5666 H   0  0  0  0  0  0  0  0  0  0  0  0
   -5.4274    4.7954    0.0381 H   0  0  0  0  0  0  0  0  0  0  0  0
   -7.0225    2.2719   -0.6148 H   0  0  0  0  0  0  0  0  0  0  0  0
   -6.3818    3.4794   -1.7398 H   0  0  0  0  0  0  0  0  0  0  0  0
  1  2  1  0
  2  3  2  0
  3  4  1  0
  4  5  1  0
  5  6  1  0
  6  7  2  0
  7  8  1  0
  8  9  1  0
  9 10  2  0
 10 11  1  0
 11 12  2  0
 12 13  1  0
 13 14  1  0
 14 15  1  0
 15 16  2  0
 15 17  1  0
 17 18  1  0
 18 19  1  0
 19 20  2  0
 20 21  1  0
 21 22  2  0
 22 23  1  0
 12 24  1  0
  7 25  1  0
 25 26  1  0
 26 27  1  0
 27 28  1  0
 24  2  1  0
  8  4  2  0
 24  9  1  0
 28  6  1  0
 23 19  1  0
  1 29  1  0
  1 30  1  0
  1 31  1  0
 14 32  1  0
 14 33  1  0
 17 34  1  0
 18 35  1  0
 18 36  1  0
 20 37  1  0
 21 38  1  0
 22 39  1  0
 25 40  1  0
 25 41  1  0
 26 42  1  0
 26 43  1  0
 27 44  1  0
 27 45  1  0
 28 46  1  0
 28 47  1  0
M  END
$$$$
