
     RDKit          3D

 48 49  0  0  0  0  0  0  0  0999 V2000
   -4.8710    1.5528   -0.0449 C   0  0  0  0  0  0  0  0  0  0  0  0
   -4.8204    0.1811   -0.7015 C   0  0  0  0  0  0  0  0  0  0  0  0
   -4.5921   -0.9145    0.2488 N   0  0  0  0  0  0  0  0  0  0  0  0
   -5.7647   -1.6173    0.7724 C   0  0  0  0  0  0  0  0  0  0  0  0
   -6.3887   -0.9405    1.9820 C   0  0  0  0  0  0  0  0  0  0  0  0
   -3.3639   -1.1819    0.8634 C   0  0  0  0  0  0  0  0  0  0  0  0
   -3.2360   -1.9201    1.8382 O   0  0  0  0  0  0  0  0  0  0  0  0
   -2.1355   -0.5555    0.3329 C   0  0  0  0  0  0  0  0  0  0  0  0
   -1.6789   -0.8575   -0.9514 C   0  0  0  0  0  0  0  0  0  0  0  0
   -0.4939   -0.2818   -1.4234 C   0  0  0  0  0  0  0  0  0  0  0  0
    0.2488    0.5782   -0.6097 C   0  0  0  0  0  0  0  0  0  0  0  0
    1.4492    1.1942   -1.0088 N   0  0  0  0  0  0  0  0  0  0  0  0
    2.1197    1.0556   -2.2123 C   0  0  0  0  0  0  0  0  0  0  0  0
    1.7730    0.3819   -3.1773 O   0  0  0  0  0  0  0  0  0  0  0  0
    3.4031    1.8914   -2.2620 C   0  0  0  0  0  0  0  0  0  0  0  0
    4.0465    2.0414   -1.0026 O   0  0  0  0  0  0  0  0  0  0  0  0
    4.7569    0.9871   -0.4885 C   0  0  0  0  0  0  0  0  0  0  0  0
    4.9528   -0.2376   -1.1372 C   0  0  0  0  0  0  0  0  0  0  0  0
    5.6951   -1.2545   -0.5238 C   0  0  0  0  0  0  0  0  0  0  0  0
    6.2444   -1.0476    0.7474 C   0  0  0  0  0  0  0  0  0  0  0  0
    7.0231   -2.1147    1.3876 N   0  0  0  0  0  4  0  0  0  0  0  0
    7.2310   -3.1462    0.7339 O   0  0  0  0  0  0  0  0  0  0  0  0
    7.4261   -1.9183    2.5420 O   0  0  0  0  0  1  0  0  0  0  0  0
    6.0556    0.1666    1.4127 C   0  0  0  0  0  0  0  0  0  0  0  0
    5.3135    1.1740    0.7915 C   0  0  0  0  0  0  0  0  0  0  0  0
    5.0846    2.6561    1.6549 Cl  0  0  0  0  0  0  0  0  0  0  0  0
   -0.2047    0.8499    0.6892 C   0  0  0  0  0  0  0  0  0  0  0  0
   -1.3878    0.2782    1.1651 C   0  0  0  0  0  0  0  0  0  0  0  0
   -5.7016    1.6310    0.6606 H   0  0  0  0  0  0  0  0  0  0  0  0
   -5.0075    2.3271   -0.8065 H   0  0  0  0  0  0  0  0  0  0  0  0
   -3.9505    1.7759    0.5007 H   0  0  0  0  0  0  0  0  0  0  0  0
   -4.0286    0.1796   -1.4543 H   0  0  0  0  0  0  0  0  0  0  0  0
   -5.7550   -0.0099   -1.2405 H   0  0  0  0  0  0  0  0  0  0  0  0
   -6.5019   -1.7258   -0.0305 H   0  0  0  0  0  0  0  0  0  0  0  0
   -5.4626   -2.6324    1.0574 H   0  0  0  0  0  0  0  0  0  0  0  0
   -7.1952   -1.5611    2.3854 H   0  0  0  0  0  0  0  0  0  0  0  0
   -6.8185    0.0296    1.7188 H   0  0  0  0  0  0  0  0  0  0  0  0
   -5.6519   -0.7798    2.7755 H   0  0  0  0  0  0  0  0  0  0  0  0
   -2.2341   -1.5449   -1.5845 H   0  0  0  0  0  0  0  0  0  0  0  0
   -0.1750   -0.5346   -2.4297 H   0  0  0  0  0  0  0  0  0  0  0  0
    1.9117    1.7789   -0.3185 H   0  0  0  0  0  0  0  0  0  0  0  0
    4.0903    1.5012   -3.0210 H   0  0  0  0  0  0  0  0  0  0  0  0
    3.1098    2.8941   -2.5935 H   0  0  0  0  0  0  0  0  0  0  0  0
    4.5432   -0.4470   -2.1221 H   0  0  0  0  0  0  0  0  0  0  0  0
    5.8310   -2.1983   -1.0509 H   0  0  0  0  0  0  0  0  0  0  0  0
    6.4749    0.3370    2.4022 H   0  0  0  0  0  0  0  0  0  0  0  0
    0.3590    1.5011    1.3529 H   0  0  0  0  0  0  0  0  0  0  0  0
   -1.7233    0.4776    2.1801 H   0  0  0  0  0  0  0  0  0  0  0  0
  1  2  1  0
  2  3  1  0
  3  4  1  0
  4  5  1  0
  3  6  1  0
  6  7  2  0
  6  8  1  0
  8  9  2  0
  9 10  1  0
 10 11  2  0
 11 12  1  0
 12 13  1  0
 13 14  2  0
 13 15  1  0
 15 16  1  0
 16 17  1  0
 17 18  2  0
 18 19  1  0
 19 20  2  0
 20 21  1  0
 21 22  2  0
 21 23  1  0
 20 24  1  0
 24 25  2  0
 25 26  1  0
 11 27  1  0
 27 28  2  0
 28  8  1  0
 25 17  1  0
  1 29  1  0
  1 30  1  0
  1 31  1  0
  2 32  1  0
  2 33  1  0
  4 34  1  0
  4 35  1  0
  5 36  1  0
  5 37  1  0
  5 38  1  0
  9 39  1  0
 10 40  1  0
 12 41  1  0
 15 42  1  0
 15 43  1  0
 18 44  1  0
 19 45  1  0
 24 46  1  0
 27 47  1  0
 28 48  1  0
M  CHG  2  21   1  23  -1
M  END
$$$$
