
     RDKit          3D

 36 37  0  0  0  0  0  0  0  0999 V2000
    7.5501    0.8679    0.0876 C   0  0  0  0  0  0  0  0  0  0  0  0
    6.0804    0.8575   -0.2526 C   0  0  0  0  0  0  0  0  0  0  0  0
    5.6435    1.5433   -1.1698 O   0  0  0  0  0  0  0  0  0  0  0  0
    5.3620   -0.0025    0.5587 N   0  0  0  0  0  0  0  0  0  0  0  0
    3.9796   -0.2741    0.5099 C   0  0  0  0  0  0  0  0  0  0  0  0
    3.1060    0.2858   -0.4251 C   0  0  0  0  0  0  0  0  0  0  0  0
    1.7415   -0.0333   -0.4102 C   0  0  0  0  0  0  0  0  0  0  0  0
    1.2346   -0.9114    0.5532 C   0  0  0  0  0  0  0  0  0  0  0  0
   -0.2077   -1.2792    0.6147 C   0  0  0  0  0  0  0  0  0  0  0  0
   -0.5222   -2.3862    1.0413 O   0  0  0  0  0  0  0  0  0  0  0  0
   -1.0909   -0.2910    0.2047 N   0  0  0  0  0  0  0  0  0  0  0  0
   -2.4326   -0.5285    0.2444 N   0  0  0  0  0  0  0  0  0  0  0  0
   -3.1904    0.4630   -0.0968 C   0  0  0  0  0  0  0  0  0  0  0  0
   -4.6625    0.3449   -0.0977 C   0  0  0  0  0  0  0  0  0  0  0  0
   -5.2840   -0.8530    0.2763 C   0  0  0  0  0  0  0  0  0  0  0  0
   -6.6768   -0.9428    0.2686 C   0  0  0  0  0  0  0  0  0  0  0  0
   -7.4326    0.1612   -0.1115 C   0  0  0  0  0  0  0  0  0  0  0  0
   -8.7690    0.0752   -0.1188 F   0  0  0  0  0  0  0  0  0  0  0  0
   -6.8229    1.3557   -0.4847 C   0  0  0  0  0  0  0  0  0  0  0  0
   -5.4298    1.4518   -0.4790 C   0  0  0  0  0  0  0  0  0  0  0  0
    2.1089   -1.4898    1.4788 C   0  0  0  0  0  0  0  0  0  0  0  0
    3.4703   -1.1698    1.4585 C   0  0  0  0  0  0  0  0  0  0  0  0
    8.0027    1.7921   -0.2833 H   0  0  0  0  0  0  0  0  0  0  0  0
    7.6998    0.8277    1.1703 H   0  0  0  0  0  0  0  0  0  0  0  0
    8.0375    0.0108   -0.3844 H   0  0  0  0  0  0  0  0  0  0  0  0
    5.8844   -0.4944    1.2731 H   0  0  0  0  0  0  0  0  0  0  0  0
    3.4571    0.9672   -1.1945 H   0  0  0  0  0  0  0  0  0  0  0  0
    1.1047    0.3910   -1.1813 H   0  0  0  0  0  0  0  0  0  0  0  0
   -0.7625    0.6416   -0.0128 H   0  0  0  0  0  0  0  0  0  0  0  0
   -2.7701    1.4381   -0.4021 H   0  0  0  0  0  0  0  0  0  0  0  0
   -4.6892   -1.7153    0.5733 H   0  0  0  0  0  0  0  0  0  0  0  0
   -7.1733   -1.8644    0.5558 H   0  0  0  0  0  0  0  0  0  0  0  0
   -7.4381    2.2012   -0.7769 H   0  0  0  0  0  0  0  0  0  0  0  0
   -4.9593    2.3866   -0.7715 H   0  0  0  0  0  0  0  0  0  0  0  0
    1.7304   -2.1917    2.2203 H   0  0  0  0  0  0  0  0  0  0  0  0
    4.1203   -1.6350    2.1953 H   0  0  0  0  0  0  0  0  0  0  0  0
  1  2  1  0
  2  3  2  0
  2  4  1  0
  4  5  1  0
  5  6  2  0
  6  7  1  0
  7  8  2  0
  8  9  1  0
  9 10  2  0
  9 11  1  0
 11 12  1  0
 12 13  2  3
 13 14  1  0
 14 15  2  0
 15 16  1  0
 16 17  2  0
 17 18  1  0
 17 19  1  0
 19 20  2  0
  8 21  1  0
 21 22  2  0
 22  5  1  0
 20 14  1  0
  1 23  1  0
  1 24  1  0
  1 25  1  0
  4 26  1  0
  6 27  1  0
  7 28  1  0
 11 29  1  0
 13 30  1  0
 15 31  1  0
 16 32  1  0
 19 33  1  0
 20 34  1  0
 21 35  1  0
 22 36  1  0
M  END
$$$$
