
     RDKit          3D

 32 33  0  0  0  0  0  0  0  0999 V2000
    4.2544   -0.7621   -1.6284 C   0  0  0  0  0  0  0  0  0  0  0  0
    4.2757   -1.1152   -0.1510 C   0  0  0  0  0  0  0  0  0  0  0  0
    3.1417   -0.0684    0.8086 S   0  0  0  0  0  0  0  0  0  0  0  0
    1.5776   -0.6673    0.3547 C   0  0  0  0  0  0  0  0  0  0  0  0
    1.1441   -1.9174   -0.0166 C   0  0  0  0  0  0  0  0  0  0  0  0
   -0.2010   -1.9162   -0.2645 N   0  0  0  0  0  0  0  0  0  0  0  0
   -0.6110   -0.6781   -0.0569 C   0  0  0  0  0  0  0  0  0  0  0  0
   -1.9961   -0.2343   -0.1958 C   0  0  0  0  0  0  0  0  0  0  0  0
   -2.9645   -0.6866    0.7081 C   0  0  0  0  0  0  0  0  0  0  0  0
   -4.2913   -0.2686    0.5888 C   0  0  0  0  0  0  0  0  0  0  0  0
   -4.6599    0.5952   -0.4417 C   0  0  0  0  0  0  0  0  0  0  0  0
   -3.7058    1.0351   -1.3585 C   0  0  0  0  0  0  0  0  0  0  0  0
   -2.3784    0.6177   -1.2396 C   0  0  0  0  0  0  0  0  0  0  0  0
    0.4471    0.1190    0.3539 N   0  0  0  0  0  0  0  0  0  0  0  0
    0.3490    1.5139    0.7497 C   0  0  0  0  0  0  0  0  0  0  0  0
    0.0577    1.6775    2.2321 C   0  0  0  0  0  0  0  0  0  0  0  0
    3.2740   -0.9449   -2.0795 H   0  0  0  0  0  0  0  0  0  0  0  0
    4.5229    0.2868   -1.7936 H   0  0  0  0  0  0  0  0  0  0  0  0
    4.9828   -1.3777   -2.1667 H   0  0  0  0  0  0  0  0  0  0  0  0
    5.2847   -0.9503    0.2410 H   0  0  0  0  0  0  0  0  0  0  0  0
    4.0433   -2.1735    0.0009 H   0  0  0  0  0  0  0  0  0  0  0  0
    1.7215   -2.8266   -0.1133 H   0  0  0  0  0  0  0  0  0  0  0  0
   -2.6852   -1.3732    1.5046 H   0  0  0  0  0  0  0  0  0  0  0  0
   -5.0372   -0.6250    1.2946 H   0  0  0  0  0  0  0  0  0  0  0  0
   -5.6944    0.9151   -0.5379 H   0  0  0  0  0  0  0  0  0  0  0  0
   -3.9972    1.6944   -2.1720 H   0  0  0  0  0  0  0  0  0  0  0  0
   -1.6464    0.9494   -1.9720 H   0  0  0  0  0  0  0  0  0  0  0  0
   -0.4345    1.9925    0.1559 H   0  0  0  0  0  0  0  0  0  0  0  0
    1.2806    2.0209    0.4801 H   0  0  0  0  0  0  0  0  0  0  0  0
   -0.8910    1.2037    2.5049 H   0  0  0  0  0  0  0  0  0  0  0  0
   -0.0065    2.7391    2.4901 H   0  0  0  0  0  0  0  0  0  0  0  0
    0.8436    1.2253    2.8456 H   0  0  0  0  0  0  0  0  0  0  0  0
  1  2  1  0
  2  3  1  0
  3  4  1  0
  4  5  2  0
  5  6  1  0
  6  7  2  0
  7  8  1  0
  8  9  2  0
  9 10  1  0
 10 11  2  0
 11 12  1  0
 12 13  2  0
  7 14  1  0
 14 15  1  0
 15 16  1  0
 14  4  1  0
 13  8  1  0
  1 17  1  0
  1 18  1  0
  1 19  1  0
  2 20  1  0
  2 21  1  0
  5 22  1  0
  9 23  1  0
 10 24  1  0
 11 25  1  0
 12 26  1  0
 13 27  1  0
 15 28  1  0
 15 29  1  0
 16 30  1  0
 16 31  1  0
 16 32  1  0
M  END
$$$$
