
     RDKit          3D

 56 61  0  0  0  0  0  0  0  0999 V2000
    6.5273    3.3055   -2.4432 C   0  0  0  0  0  0  0  0  0  0  0  0
    7.3140    2.2008   -2.0137 O   0  0  0  0  0  0  0  0  0  0  0  0
    6.6557    1.1759   -1.3912 C   0  0  0  0  0  0  0  0  0  0  0  0
    7.4715    0.1222   -0.9879 C   0  0  0  0  0  0  0  0  0  0  0  0
    6.9228   -0.9833   -0.3423 C   0  0  0  0  0  0  0  0  0  0  0  0
    5.5446   -1.0412   -0.0941 C   0  0  0  0  0  0  0  0  0  0  0  0
    4.9783   -2.1478    0.5578 C   0  0  0  0  0  0  0  0  0  0  0  0
    3.5952   -2.1355    0.7742 C   0  0  0  0  0  0  0  0  0  0  0  0
    2.6411   -2.9984    1.3654 C   0  0  0  0  0  0  0  0  0  0  0  0
    1.4107   -2.3708    1.2628 C   0  0  0  0  0  0  0  0  0  0  0  0
    0.0949   -2.8390    1.6644 C   0  0  0  0  0  0  0  0  0  0  0  0
   -0.1086   -4.0429    1.8386 O   0  0  0  0  0  0  0  0  0  0  0  0
   -0.9445   -1.9123    1.8294 N   0  0  0  0  0  0  0  0  0  0  0  0
   -2.2691   -2.4539    2.1415 C   0  0  0  0  0  0  0  0  0  0  0  0
   -3.4034   -1.4671    1.8045 C   0  0  0  0  0  0  0  0  0  0  0  0
   -3.1812   -0.1451    2.4144 N   0  0  0  0  0  0  0  0  0  0  0  0
   -4.3008    0.7871    2.2332 C   0  0  0  0  0  0  0  0  0  0  0  0
   -4.6621    1.1658    0.8112 C   0  0  0  0  0  0  0  0  0  0  0  0
   -4.0390    2.2694    0.1813 C   0  0  0  0  0  0  0  0  0  0  0  0
   -4.3586    2.6278   -1.1325 C   0  0  0  0  0  0  0  0  0  0  0  0
   -5.3038    1.8728   -1.7903 C   0  0  0  0  0  0  0  0  0  0  0  0
   -5.9221    0.8037   -1.1880 C   0  0  0  0  0  0  0  0  0  0  0  0
   -5.6280    0.4272    0.1053 C   0  0  0  0  0  0  0  0  0  0  0  0
   -6.8238    0.1968   -2.0056 O   0  0  0  0  0  0  0  0  0  0  0  0
   -6.6911    0.9994   -3.1969 C   0  0  0  0  0  0  0  0  0  0  0  0
   -5.7371    2.0734   -3.0634 O   0  0  0  0  0  0  0  0  0  0  0  0
   -1.8804    0.3969    1.9888 C   0  0  0  0  0  0  0  0  0  0  0  0
   -0.7261   -0.5565    2.3521 C   0  0  0  0  0  0  0  0  0  0  0  0
    1.5628   -1.1853    0.5964 O   0  0  0  0  0  0  0  0  0  0  0  0
    2.8857   -1.0320    0.3195 C   0  0  0  0  0  0  0  0  0  0  0  0
    3.3785    0.0486   -0.3044 N   0  0  0  0  0  0  0  0  0  0  0  0
    4.7032    0.0238   -0.5004 C   0  0  0  0  0  0  0  0  0  0  0  0
    5.2826    1.1112   -1.1425 C   0  0  0  0  0  0  0  0  0  0  0  0
    7.1989    4.0309   -2.9127 H   0  0  0  0  0  0  0  0  0  0  0  0
    5.7915    2.9977   -3.1936 H   0  0  0  0  0  0  0  0  0  0  0  0
    6.0446    3.8001   -1.5936 H   0  0  0  0  0  0  0  0  0  0  0  0
    8.5415    0.1631   -1.1780 H   0  0  0  0  0  0  0  0  0  0  0  0
    7.5791   -1.7949   -0.0373 H   0  0  0  0  0  0  0  0  0  0  0  0
    5.5829   -2.9870    0.8865 H   0  0  0  0  0  0  0  0  0  0  0  0
    2.8106   -3.9668    1.8158 H   0  0  0  0  0  0  0  0  0  0  0  0
   -2.4286   -3.3856    1.5867 H   0  0  0  0  0  0  0  0  0  0  0  0
   -2.2815   -2.7004    3.2110 H   0  0  0  0  0  0  0  0  0  0  0  0
   -3.4690   -1.3830    0.7127 H   0  0  0  0  0  0  0  0  0  0  0  0
   -4.3470   -1.8935    2.1642 H   0  0  0  0  0  0  0  0  0  0  0  0
   -5.1908    0.3669    2.7213 H   0  0  0  0  0  0  0  0  0  0  0  0
   -4.0973    1.7055    2.8005 H   0  0  0  0  0  0  0  0  0  0  0  0
   -3.2951    2.8532    0.7203 H   0  0  0  0  0  0  0  0  0  0  0  0
   -3.8793    3.4697   -1.6184 H   0  0  0  0  0  0  0  0  0  0  0  0
   -6.1334   -0.4206    0.5552 H   0  0  0  0  0  0  0  0  0  0  0  0
   -6.3755    0.3510   -4.0225 H   0  0  0  0  0  0  0  0  0  0  0  0
   -7.6696    1.4281   -3.4415 H   0  0  0  0  0  0  0  0  0  0  0  0
   -1.6965    1.3592    2.4811 H   0  0  0  0  0  0  0  0  0  0  0  0
   -1.8624    0.5650    0.9048 H   0  0  0  0  0  0  0  0  0  0  0  0
    0.2127   -0.1228    2.0121 H   0  0  0  0  0  0  0  0  0  0  0  0
   -0.6442   -0.6479    3.4432 H   0  0  0  0  0  0  0  0  0  0  0  0
    4.6194    1.9148   -1.4472 H   0  0  0  0  0  0  0  0  0  0  0  0
  1  2  1  0
  2  3  1  0
  3  4  2  0
  4  5  1  0
  5  6  2  0
  6  7  1  0
  7  8  2  0
  8  9  1  0
  9 10  2  0
 10 11  1  0
 11 12  2  0
 11 13  1  0
 13 14  1  0
 14 15  1  0
 15 16  1  0
 16 17  1  0
 17 18  1  0
 18 19  2  0
 19 20  1  0
 20 21  2  0
 21 22  1  0
 22 23  2  0
 22 24  1  0
 24 25  1  0
 25 26  1  0
 16 27  1  0
 27 28  1  0
 10 29  1  0
 29 30  1  0
 30 31  2  0
 31 32  1  0
 32 33  2  0
 33  3  1  0
 32  6  1  0
 30  8  1  0
 28 13  1  0
 23 18  1  0
 26 21  1  0
  1 34  1  0
  1 35  1  0
  1 36  1  0
  4 37  1  0
  5 38  1  0
  7 39  1  0
  9 40  1  0
 14 41  1  0
 14 42  1  0
 15 43  1  0
 15 44  1  0
 17 45  1  0
 17 46  1  0
 19 47  1  0
 20 48  1  0
 23 49  1  0
 25 50  1  0
 25 51  1  0
 27 52  1  0
 27 53  1  0
 28 54  1  0
 28 55  1  0
 33 56  1  0
M  END
$$$$
