
     RDKit          3D

 52 56  0  0  0  0  0  0  0  0999 V2000
    3.6469   -1.9583   -1.0743 O   0  0  0  0  0  0  0  0  0  0  0  0
    2.6340   -1.2610   -1.1045 C   0  0  0  0  0  0  0  0  0  0  0  0
    1.4392   -1.6725   -1.9523 C   0  0  0  0  0  0  0  0  0  0  0  0
    0.1572   -2.4926   -0.9594 S   0  0  0  0  0  0  0  0  0  0  0  0
   -0.7987   -1.1342   -0.4649 C   0  0  0  0  0  0  0  0  0  0  0  0
   -0.3222    0.0811   -0.3236 N   0  0  0  0  0  0  0  0  0  0  0  0
   -1.3622    0.9069   -0.0242 N   0  0  0  0  0  0  0  0  0  0  0  0
   -2.4751    0.1902   -0.0002 C   0  0  0  0  0  0  0  0  0  0  0  0
   -3.8005    0.7009    0.4766 C   0  0  0  0  0  0  0  0  0  0  0  0
   -4.6755    1.3176   -0.5853 C   0  0  0  0  0  0  0  0  0  0  0  0
   -6.0237    1.0840   -0.8084 C   0  0  0  0  0  0  0  0  0  0  0  0
   -6.5503    1.8804   -1.8680 C   0  0  0  0  0  0  0  0  0  0  0  0
   -5.5880    2.6960   -2.4221 C   0  0  0  0  0  0  0  0  0  0  0  0
   -4.0690    2.5152   -1.6561 S   0  0  0  0  0  0  0  0  0  0  0  0
   -2.1764   -1.1346   -0.2899 N   0  0  0  0  0  0  0  0  0  0  0  0
   -3.0781   -2.2229   -0.3736 C   0  0  0  0  0  0  0  0  0  0  0  0
   -2.8172   -3.4110    0.3094 C   0  0  0  0  0  0  0  0  0  0  0  0
   -3.7217   -4.4724    0.2380 C   0  0  0  0  0  0  0  0  0  0  0  0
   -4.8852   -4.3467   -0.5213 C   0  0  0  0  0  0  0  0  0  0  0  0
   -5.1388   -3.1660   -1.2251 C   0  0  0  0  0  0  0  0  0  0  0  0
   -4.2401   -2.1008   -1.1484 C   0  0  0  0  0  0  0  0  0  0  0  0
    2.4529   -0.0586   -0.4445 N   0  0  0  0  0  0  0  0  0  0  0  0
    3.4106    0.6831    0.2778 C   0  0  0  0  0  0  0  0  0  0  0  0
    2.9456    1.8003    0.9872 C   0  0  0  0  0  0  0  0  0  0  0  0
    3.8330    2.6213    1.6897 C   0  0  0  0  0  0  0  0  0  0  0  0
    5.1937    2.3362    1.6761 C   0  0  0  0  0  0  0  0  0  0  0  0
    5.6631    1.2095    0.9946 C   0  0  0  0  0  0  0  0  0  0  0  0
    4.7766    0.3908    0.2892 C   0  0  0  0  0  0  0  0  0  0  0  0
    6.9888    0.8571    0.9543 O   0  0  0  0  0  0  0  0  0  0  0  0
    7.7532    1.5585    1.9398 C   0  0  0  0  0  0  0  0  0  0  0  0
    7.3824    3.0319    1.9633 C   0  0  0  0  0  0  0  0  0  0  0  0
    6.0136    3.2049    2.3501 O   0  0  0  0  0  0  0  0  0  0  0  0
    1.7961   -2.3928   -2.7013 H   0  0  0  0  0  0  0  0  0  0  0  0
    1.0436   -0.8098   -2.5056 H   0  0  0  0  0  0  0  0  0  0  0  0
   -3.6167    1.4607    1.2486 H   0  0  0  0  0  0  0  0  0  0  0  0
   -4.3508   -0.0998    0.9884 H   0  0  0  0  0  0  0  0  0  0  0  0
   -6.6132    0.3789   -0.2289 H   0  0  0  0  0  0  0  0  0  0  0  0
   -7.5792    1.8569   -2.2023 H   0  0  0  0  0  0  0  0  0  0  0  0
   -5.7059    3.4048   -3.2355 H   0  0  0  0  0  0  0  0  0  0  0  0
   -1.9283   -3.5305    0.9307 H   0  0  0  0  0  0  0  0  0  0  0  0
   -3.5245   -5.3973    0.7778 H   0  0  0  0  0  0  0  0  0  0  0  0
   -5.5850   -5.1759   -0.5812 H   0  0  0  0  0  0  0  0  0  0  0  0
   -6.0290   -3.0819   -1.8390 H   0  0  0  0  0  0  0  0  0  0  0  0
   -4.4388   -1.2142   -1.7400 H   0  0  0  0  0  0  0  0  0  0  0  0
    1.4943    0.2944   -0.4052 H   0  0  0  0  0  0  0  0  0  0  0  0
    1.8873    2.0495    0.9948 H   0  0  0  0  0  0  0  0  0  0  0  0
    3.4638    3.4909    2.2261 H   0  0  0  0  0  0  0  0  0  0  0  0
    5.1838   -0.4588   -0.2499 H   0  0  0  0  0  0  0  0  0  0  0  0
    7.5861    1.0853    2.9168 H   0  0  0  0  0  0  0  0  0  0  0  0
    8.8114    1.4410    1.6784 H   0  0  0  0  0  0  0  0  0  0  0  0
    7.5330    3.4983    0.9793 H   0  0  0  0  0  0  0  0  0  0  0  0
    8.0038    3.5658    2.6916 H   0  0  0  0  0  0  0  0  0  0  0  0
  1  2  2  0
  2  3  1  0
  3  4  1  0
  4  5  1  0
  5  6  2  0
  6  7  1  0
  7  8  2  0
  8  9  1  0
  9 10  1  0
 10 11  2  0
 11 12  1  0
 12 13  2  0
 13 14  1  0
  8 15  1  0
 15 16  1  0
 16 17  2  0
 17 18  1  0
 18 19  2  0
 19 20  1  0
 20 21  2  0
  2 22  1  0
 22 23  1  0
 23 24  2  0
 24 25  1  0
 25 26  2  0
 26 27  1  0
 27 28  2  0
 27 29  1  0
 29 30  1  0
 30 31  1  0
 31 32  1  0
 15  5  1  0
 21 16  1  0
 28 23  1  0
 14 10  1  0
 32 26  1  0
  3 33  1  0
  3 34  1  0
  9 35  1  0
  9 36  1  0
 11 37  1  0
 12 38  1  0
 13 39  1  0
 17 40  1  0
 18 41  1  0
 19 42  1  0
 20 43  1  0
 21 44  1  0
 22 45  1  0
 24 46  1  0
 25 47  1  0
 28 48  1  0
 30 49  1  0
 30 50  1  0
 31 51  1  0
 31 52  1  0
M  END
$$$$
