
     RDKit          3D

 73 75  0  0  0  0  0  0  0  0999 V2000
   -3.1162    1.5720   -3.8054 C   0  0  0  0  0  0  0  0  0  0  0  0
   -1.9616    0.7853   -3.1931 C   0  0  0  0  0  0  0  0  0  0  0  0
   -2.3453    0.1577   -1.8446 C   0  0  0  0  0  0  0  0  0  0  0  0
   -0.8300   -0.4020   -0.9616 S   0  0  0  0  0  0  0  0  0  0  0  0
   -0.2640    1.0827   -0.2168 C   0  0  0  0  0  0  0  0  0  0  0  0
   -0.9220    2.1711   -0.4423 N   0  0  0  0  0  0  0  0  0  0  0  0
   -0.4766    3.3636    0.1332 C   0  0  0  0  0  0  0  0  0  0  0  0
   -1.2055    4.5340   -0.0922 C   0  0  0  0  0  0  0  0  0  0  0  0
   -0.7927    5.7523    0.4616 C   0  0  0  0  0  0  0  0  0  0  0  0
   -1.4531    6.9438    0.2916 O   0  0  0  0  0  0  0  0  0  0  0  0
   -2.5861    6.9546   -0.5661 C   0  0  0  0  0  0  0  0  0  0  0  0
    0.3701    5.7992    1.2588 C   0  0  0  0  0  0  0  0  0  0  0  0
    0.7054    7.0289    1.7674 O   0  0  0  0  0  0  0  0  0  0  0  0
    1.8442    7.1063    2.6138 C   0  0  0  0  0  0  0  0  0  0  0  0
    1.1008    4.6298    1.4793 C   0  0  0  0  0  0  0  0  0  0  0  0
    0.6691    3.4248    0.9138 C   0  0  0  0  0  0  0  0  0  0  0  0
    1.4148    2.1748    1.1294 C   0  0  0  0  0  0  0  0  0  0  0  0
    2.4683    2.2101    1.7616 O   0  0  0  0  0  0  0  0  0  0  0  0
    0.8700    1.0147    0.5808 N   0  0  0  0  0  0  0  0  0  0  0  0
    1.6140   -0.2252    0.8441 C   0  0  0  0  0  0  0  0  0  0  0  0
    2.6906   -0.4851   -0.2168 C   0  0  0  0  0  0  0  0  0  0  0  0
    3.3561   -1.8214   -0.0023 C   0  0  0  0  0  0  0  0  0  0  0  0
    4.5370   -1.9149    0.7376 C   0  0  0  0  0  0  0  0  0  0  0  0
    5.1304   -3.1581    0.9691 C   0  0  0  0  0  0  0  0  0  0  0  0
    4.5477   -4.3272    0.4682 C   0  0  0  0  0  0  0  0  0  0  0  0
    5.0577   -5.5889    0.6533 O   0  0  0  0  0  0  0  0  0  0  0  0
    6.2517   -5.7105    1.4126 C   0  0  0  0  0  0  0  0  0  0  0  0
    3.3551   -4.2436   -0.2775 C   0  0  0  0  0  0  0  0  0  0  0  0
    2.8394   -5.4341   -0.7290 O   0  0  0  0  0  0  0  0  0  0  0  0
    1.6369   -5.3883   -1.4831 C   0  0  0  0  0  0  0  0  0  0  0  0
    2.7699   -2.9922   -0.5071 C   0  0  0  0  0  0  0  0  0  0  0  0
   -3.2453   -1.0783   -2.0162 C   0  0  0  0  0  0  0  0  0  0  0  0
   -3.5641   -1.5488   -3.1053 O   0  0  0  0  0  0  0  0  0  0  0  0
   -3.6988   -1.6041   -0.8190 N   0  0  0  0  0  0  0  0  0  0  0  0
   -4.3840   -2.8844   -0.7909 C   0  0  0  0  0  0  0  0  0  0  0  0
   -4.9454   -3.1783    0.5978 C   0  0  0  0  0  0  0  0  0  0  0  0
   -3.8623   -3.1964    1.5378 O   0  0  0  0  0  0  0  0  0  0  0  0
   -4.3161   -3.5010    2.8507 C   0  0  0  0  0  0  0  0  0  0  0  0
   -3.9829    0.9326   -3.9999 H   0  0  0  0  0  0  0  0  0  0  0  0
   -2.8051    2.0121   -4.7581 H   0  0  0  0  0  0  0  0  0  0  0  0
   -3.4298    2.3851   -3.1425 H   0  0  0  0  0  0  0  0  0  0  0  0
   -1.6423    0.0144   -3.9057 H   0  0  0  0  0  0  0  0  0  0  0  0
   -1.1204    1.4784   -3.0790 H   0  0  0  0  0  0  0  0  0  0  0  0
   -2.9017    0.8701   -1.2248 H   0  0  0  0  0  0  0  0  0  0  0  0
   -2.0963    4.4598   -0.7067 H   0  0  0  0  0  0  0  0  0  0  0  0
   -3.3878    6.3241   -0.1676 H   0  0  0  0  0  0  0  0  0  0  0  0
   -2.9618    7.9813   -0.6123 H   0  0  0  0  0  0  0  0  0  0  0  0
   -2.3142    6.6556   -1.5840 H   0  0  0  0  0  0  0  0  0  0  0  0
    1.7180    6.4843    3.5061 H   0  0  0  0  0  0  0  0  0  0  0  0
    1.9437    8.1443    2.9449 H   0  0  0  0  0  0  0  0  0  0  0  0
    2.7577    6.8416    2.0710 H   0  0  0  0  0  0  0  0  0  0  0  0
    2.0039    4.6261    2.0814 H   0  0  0  0  0  0  0  0  0  0  0  0
    2.0878   -0.1557    1.8322 H   0  0  0  0  0  0  0  0  0  0  0  0
    0.9213   -1.0697    0.9202 H   0  0  0  0  0  0  0  0  0  0  0  0
    3.4427    0.3142   -0.1958 H   0  0  0  0  0  0  0  0  0  0  0  0
    2.2649   -0.4542   -1.2274 H   0  0  0  0  0  0  0  0  0  0  0  0
    5.0042   -1.0199    1.1448 H   0  0  0  0  0  0  0  0  0  0  0  0
    6.0469   -3.1793    1.5489 H   0  0  0  0  0  0  0  0  0  0  0  0
    7.0847   -5.1929    0.9248 H   0  0  0  0  0  0  0  0  0  0  0  0
    6.1080   -5.3519    2.4377 H   0  0  0  0  0  0  0  0  0  0  0  0
    6.5067   -6.7732    1.4655 H   0  0  0  0  0  0  0  0  0  0  0  0
    1.3742   -6.4158   -1.7535 H   0  0  0  0  0  0  0  0  0  0  0  0
    0.8126   -4.9799   -0.8889 H   0  0  0  0  0  0  0  0  0  0  0  0
    1.7738   -4.8241   -2.4116 H   0  0  0  0  0  0  0  0  0  0  0  0
    1.8490   -2.9014   -1.0751 H   0  0  0  0  0  0  0  0  0  0  0  0
   -3.1245   -1.4107   -0.0039 H   0  0  0  0  0  0  0  0  0  0  0  0
   -5.1822   -2.8806   -1.5397 H   0  0  0  0  0  0  0  0  0  0  0  0
   -3.6464   -3.6446   -1.0717 H   0  0  0  0  0  0  0  0  0  0  0  0
   -5.4459   -4.1529    0.5948 H   0  0  0  0  0  0  0  0  0  0  0  0
   -5.6623   -2.4022    0.8905 H   0  0  0  0  0  0  0  0  0  0  0  0
   -4.7787   -4.4919    2.8747 H   0  0  0  0  0  0  0  0  0  0  0  0
   -3.4516   -3.5030    3.5212 H   0  0  0  0  0  0  0  0  0  0  0  0
   -5.0263   -2.7431    3.1962 H   0  0  0  0  0  0  0  0  0  0  0  0
  1  2  1  0
  2  3  1  0
  3  4  1  0
  4  5  1  0
  5  6  2  0
  6  7  1  0
  7  8  2  0
  8  9  1  0
  9 10  1  0
 10 11  1  0
  9 12  2  0
 12 13  1  0
 13 14  1  0
 12 15  1  0
 15 16  2  0
 16 17  1  0
 17 18  2  0
 17 19  1  0
 19 20  1  0
 20 21  1  0
 21 22  1  0
 22 23  2  0
 23 24  1  0
 24 25  2  0
 25 26  1  0
 26 27  1  0
 25 28  1  0
 28 29  1  0
 29 30  1  0
 28 31  2  0
  3 32  1  0
 32 33  2  0
 32 34  1  0
 34 35  1  0
 35 36  1  0
 36 37  1  0
 37 38  1  0
 19  5  1  0
 31 22  1  0
 16  7  1  0
  1 39  1  0
  1 40  1  0
  1 41  1  0
  2 42  1  0
  2 43  1  0
  3 44  1  0
  8 45  1  0
 11 46  1  0
 11 47  1  0
 11 48  1  0
 14 49  1  0
 14 50  1  0
 14 51  1  0
 15 52  1  0
 20 53  1  0
 20 54  1  0
 21 55  1  0
 21 56  1  0
 23 57  1  0
 24 58  1  0
 27 59  1  0
 27 60  1  0
 27 61  1  0
 30 62  1  0
 30 63  1  0
 30 64  1  0
 31 65  1  0
 34 66  1  0
 35 67  1  0
 35 68  1  0
 36 69  1  0
 36 70  1  0
 38 71  1  0
 38 72  1  0
 38 73  1  0
M  END
$$$$
