
     RDKit          3D

 53 56  0  0  0  0  0  0  0  0999 V2000
   -7.9833    1.7614    1.7537 C   0  0  0  0  0  0  0  0  0  0  0  0
   -6.7103    1.3158    1.0967 C   0  0  0  0  0  0  0  0  0  0  0  0
   -5.8790    2.2378    0.4527 C   0  0  0  0  0  0  0  0  0  0  0  0
   -4.6729    1.8303   -0.1324 C   0  0  0  0  0  0  0  0  0  0  0  0
   -4.2795    0.4887   -0.0815 C   0  0  0  0  0  0  0  0  0  0  0  0
   -3.0529    0.0262   -0.6518 N   0  0  0  0  0  0  0  0  0  0  0  0
   -2.5499   -1.1665   -0.2316 N   0  0  0  0  0  0  0  0  0  0  0  0
   -1.3225   -1.2303   -0.7493 C   0  0  0  0  0  0  0  0  0  0  0  0
   -0.3445   -2.2869   -0.5253 C   0  0  0  0  0  0  0  0  0  0  0  0
   -0.5309   -3.2446    0.2206 O   0  0  0  0  0  0  0  0  0  0  0  0
    0.8432   -2.0900   -1.2600 N   0  0  0  0  0  0  0  0  0  0  0  0
    1.9145   -3.0770   -1.1279 C   0  0  0  0  0  0  0  0  0  0  0  0
    2.9179   -2.7084   -0.0333 C   0  0  0  0  0  0  0  0  0  0  0  0
    3.7059   -3.5277    0.4340 O   0  0  0  0  0  0  0  0  0  0  0  0
    2.9589   -1.3689    0.2918 N   0  0  0  0  0  0  0  0  0  0  0  0
    3.9324   -0.8205    1.2142 C   0  0  0  0  0  0  0  0  0  0  0  0
    5.3062   -0.6345    0.5659 C   0  0  0  0  0  0  0  0  0  0  0  0
    6.2790    0.0079    1.5095 C   0  0  0  0  0  0  0  0  0  0  0  0
    7.1145   -0.6089    2.4202 C   0  0  0  0  0  0  0  0  0  0  0  0
    7.9047    0.3266    3.1479 C   0  0  0  0  0  0  0  0  0  0  0  0
    7.6445    1.6259    2.7698 C   0  0  0  0  0  0  0  0  0  0  0  0
    6.4560    1.7119    1.5442 S   0  0  0  0  0  0  0  0  0  0  0  0
    1.1125   -0.9829   -2.0801 N   0  0  0  0  0  0  0  0  0  0  0  0
    0.2181   -0.0500   -2.2645 C   0  0  0  0  0  0  0  0  0  0  0  0
    0.5638    1.1022   -3.1651 C   0  0  0  0  0  0  0  0  0  0  0  0
   -1.0562   -0.1497   -1.5970 C   0  0  0  0  0  0  0  0  0  0  0  0
   -2.2153    0.6088   -1.6127 C   0  0  0  0  0  0  0  0  0  0  0  0
   -2.5914    1.7591   -2.4756 C   0  0  0  0  0  0  0  0  0  0  0  0
   -5.0968   -0.4280    0.6014 C   0  0  0  0  0  0  0  0  0  0  0  0
   -6.3014   -0.0179    1.1810 C   0  0  0  0  0  0  0  0  0  0  0  0
   -8.7479    0.9800    1.6894 H   0  0  0  0  0  0  0  0  0  0  0  0
   -7.7995    1.9924    2.8075 H   0  0  0  0  0  0  0  0  0  0  0  0
   -8.3878    2.6528    1.2624 H   0  0  0  0  0  0  0  0  0  0  0  0
   -6.1590    3.2889    0.4140 H   0  0  0  0  0  0  0  0  0  0  0  0
   -4.0507    2.6025   -0.5684 H   0  0  0  0  0  0  0  0  0  0  0  0
    1.4899   -4.0579   -0.8891 H   0  0  0  0  0  0  0  0  0  0  0  0
    2.4489   -3.1447   -2.0819 H   0  0  0  0  0  0  0  0  0  0  0  0
    2.4173   -0.7452   -0.2990 H   0  0  0  0  0  0  0  0  0  0  0  0
    3.5311    0.1370    1.5642 H   0  0  0  0  0  0  0  0  0  0  0  0
    4.0063   -1.4883    2.0803 H   0  0  0  0  0  0  0  0  0  0  0  0
    5.7040   -1.6058    0.2454 H   0  0  0  0  0  0  0  0  0  0  0  0
    5.2078   -0.0366   -0.3491 H   0  0  0  0  0  0  0  0  0  0  0  0
    7.1577   -1.6835    2.5567 H   0  0  0  0  0  0  0  0  0  0  0  0
    8.6272    0.0602    3.9094 H   0  0  0  0  0  0  0  0  0  0  0  0
    8.0950    2.5306    3.1540 H   0  0  0  0  0  0  0  0  0  0  0  0
    0.3186    2.0506   -2.6787 H   0  0  0  0  0  0  0  0  0  0  0  0
    1.6334    1.0961   -3.3957 H   0  0  0  0  0  0  0  0  0  0  0  0
    0.0078    1.0122   -4.1026 H   0  0  0  0  0  0  0  0  0  0  0  0
   -3.6652    1.7819   -2.6826 H   0  0  0  0  0  0  0  0  0  0  0  0
   -2.2851    2.7052   -2.0179 H   0  0  0  0  0  0  0  0  0  0  0  0
   -2.1075    1.6890   -3.4547 H   0  0  0  0  0  0  0  0  0  0  0  0
   -4.8129   -1.4763    0.6871 H   0  0  0  0  0  0  0  0  0  0  0  0
   -6.9144   -0.7511    1.7015 H   0  0  0  0  0  0  0  0  0  0  0  0
  1  2  1  0
  2  3  2  0
  3  4  1  0
  4  5  2  0
  5  6  1  0
  6  7  1  0
  7  8  2  0
  8  9  1  0
  9 10  2  0
  9 11  1  0
 11 12  1  0
 12 13  1  0
 13 14  2  0
 13 15  1  0
 15 16  1  0
 16 17  1  0
 17 18  1  0
 18 19  2  0
 19 20  1  0
 20 21  2  0
 21 22  1  0
 11 23  1  0
 23 24  2  0
 24 25  1  0
 24 26  1  0
 26 27  2  0
 27 28  1  0
  5 29  1  0
 29 30  2  0
 30  2  1  0
 27  6  1  0
 26  8  1  0
 22 18  1  0
  1 31  1  0
  1 32  1  0
  1 33  1  0
  3 34  1  0
  4 35  1  0
 12 36  1  0
 12 37  1  0
 15 38  1  0
 16 39  1  0
 16 40  1  0
 17 41  1  0
 17 42  1  0
 19 43  1  0
 20 44  1  0
 21 45  1  0
 25 46  1  0
 25 47  1  0
 25 48  1  0
 28 49  1  0
 28 50  1  0
 28 51  1  0
 29 52  1  0
 30 53  1  0
M  END
$$$$
