
     RDKit          3D

 47 51  0  0  0  0  0  0  0  0999 V2000
   -0.8755   -0.8318   -4.3017 C   0  0  0  0  0  0  0  0  0  0  0  0
   -1.4376   -0.2317   -3.0502 C   0  0  0  0  0  0  0  0  0  0  0  0
   -2.7160   -0.3697   -2.7950 N   0  0  0  0  0  0  0  0  0  0  0  0
   -3.1954    0.2049   -1.6497 C   0  0  0  0  0  0  0  0  0  0  0  0
   -4.8409    0.1037   -1.1907 S   0  0  0  0  0  0  0  0  0  0  0  0
   -4.5654    1.0057    0.2348 C   0  0  0  0  0  0  0  0  0  0  0  0
   -3.2493    1.4133    0.3725 C   0  0  0  0  0  0  0  0  0  0  0  0
   -2.4871    0.9282   -0.7130 C   0  0  0  0  0  0  0  0  0  0  0  0
   -1.0008    1.0590   -1.0536 C   0  0  0  0  0  0  0  0  0  0  0  0
   -0.0417    1.6780   -0.4103 N   0  0  0  0  0  0  0  0  0  0  0  0
    1.1033    1.4895   -1.1427 N   0  0  0  0  0  0  0  0  0  0  0  0
    0.8029    0.7581   -2.2017 C   0  0  0  0  0  0  0  0  0  0  0  0
    1.9762    0.2636   -3.3705 S   0  0  0  0  0  0  0  0  0  0  0  0
    3.4193    0.0037   -2.2918 C   0  0  0  0  0  0  0  0  0  0  0  0
    3.1453   -1.1329   -1.3171 C   0  0  0  0  0  0  0  0  0  0  0  0
    2.9502   -2.2911   -1.6930 O   0  0  0  0  0  0  0  0  0  0  0  0
    3.1128   -0.7558    0.0057 N   0  0  0  0  0  0  0  0  0  0  0  0
    2.9114   -1.7078    1.0748 C   0  0  0  0  0  0  0  0  0  0  0  0
    4.2356   -2.1942    1.5350 C   0  0  0  0  0  0  0  0  0  0  0  0
    5.0769   -3.1956    1.0899 C   0  0  0  0  0  0  0  0  0  0  0  0
    6.2055   -3.1771    1.9471 C   0  0  0  0  0  0  0  0  0  0  0  0
    5.9844   -2.1656    2.8537 C   0  0  0  0  0  0  0  0  0  0  0  0
    4.7920   -1.5586    2.6089 O   0  0  0  0  0  0  0  0  0  0  0  0
   -0.5433    0.4658   -2.2109 N   0  0  0  0  0  0  0  0  0  0  0  0
   -2.7743    2.2129    1.5430 C   0  0  0  0  0  0  0  0  0  0  0  0
   -3.9489    2.8356    2.3173 C   0  0  0  0  0  0  0  0  0  0  0  0
   -5.0893    1.8283    2.5284 C   0  0  0  0  0  0  0  0  0  0  0  0
   -5.6695    1.3311    1.1928 C   0  0  0  0  0  0  0  0  0  0  0  0
   -0.4385   -0.0544   -4.9334 H   0  0  0  0  0  0  0  0  0  0  0  0
   -1.6806   -1.3033   -4.8760 H   0  0  0  0  0  0  0  0  0  0  0  0
   -0.1440   -1.6066   -4.0648 H   0  0  0  0  0  0  0  0  0  0  0  0
    4.2819   -0.2781   -2.9055 H   0  0  0  0  0  0  0  0  0  0  0  0
    3.6774    0.9318   -1.7700 H   0  0  0  0  0  0  0  0  0  0  0  0
    3.2703    0.2104    0.2725 H   0  0  0  0  0  0  0  0  0  0  0  0
    2.3796   -1.1926    1.8831 H   0  0  0  0  0  0  0  0  0  0  0  0
    2.2915   -2.5416    0.7273 H   0  0  0  0  0  0  0  0  0  0  0  0
    4.8893   -3.8508    0.2476 H   0  0  0  0  0  0  0  0  0  0  0  0
    7.0734   -3.8213    1.9096 H   0  0  0  0  0  0  0  0  0  0  0  0
    6.5499   -1.7704    3.6883 H   0  0  0  0  0  0  0  0  0  0  0  0
   -2.2043    1.5547    2.2124 H   0  0  0  0  0  0  0  0  0  0  0  0
   -2.0946    3.0089    1.2143 H   0  0  0  0  0  0  0  0  0  0  0  0
   -4.3368    3.6988    1.7609 H   0  0  0  0  0  0  0  0  0  0  0  0
   -3.5938    3.2095    3.2852 H   0  0  0  0  0  0  0  0  0  0  0  0
   -5.8865    2.2886    3.1225 H   0  0  0  0  0  0  0  0  0  0  0  0
   -4.7103    0.9747    3.1050 H   0  0  0  0  0  0  0  0  0  0  0  0
   -6.3011    2.1157    0.7581 H   0  0  0  0  0  0  0  0  0  0  0  0
   -6.3036    0.4565    1.3751 H   0  0  0  0  0  0  0  0  0  0  0  0
  1  2  1  0
  2  3  2  0
  3  4  1  0
  4  5  1  0
  5  6  1  0
  6  7  2  0
  7  8  1  0
  8  9  1  0
  9 10  2  0
 10 11  1  0
 11 12  2  0
 12 13  1  0
 13 14  1  0
 14 15  1  0
 15 16  2  0
 15 17  1  0
 17 18  1  0
 18 19  1  0
 19 20  2  0
 20 21  1  0
 21 22  2  0
 22 23  1  0
 12 24  1  0
  7 25  1  0
 25 26  1  0
 26 27  1  0
 27 28  1  0
 24  2  1  0
  8  4  2  0
 24  9  1  0
 28  6  1  0
 23 19  1  0
  1 29  1  0
  1 30  1  0
  1 31  1  0
 14 32  1  0
 14 33  1  0
 17 34  1  0
 18 35  1  0
 18 36  1  0
 20 37  1  0
 21 38  1  0
 22 39  1  0
 25 40  1  0
 25 41  1  0
 26 42  1  0
 26 43  1  0
 27 44  1  0
 27 45  1  0
 28 46  1  0
 28 47  1  0
M  END
$$$$
