
     RDKit          3D

 58 63  0  0  0  0  0  0  0  0999 V2000
    5.9258   -3.9008   -0.5169 C   0  0  0  0  0  0  0  0  0  0  0  0
    5.7328   -2.4782   -0.1178 C   0  0  0  0  0  0  0  0  0  0  0  0
    6.6322   -1.4358   -0.1942 C   0  0  0  0  0  0  0  0  0  0  0  0
    6.0844   -0.2156    0.2967 C   0  0  0  0  0  0  0  0  0  0  0  0
    4.7685   -0.3507    0.6932 C   0  0  0  0  0  0  0  0  0  0  0  0
    3.9193    0.6718    1.2862 C   0  0  0  0  0  0  0  0  0  0  0  0
    4.3517    1.4299    2.1556 O   0  0  0  0  0  0  0  0  0  0  0  0
    2.5836    0.7677    0.8488 N   0  0  0  0  0  0  0  0  0  0  0  0
    1.7239    1.6918    1.5758 C   0  0  0  0  0  0  0  0  0  0  0  0
    0.2542    1.2977    1.4474 C   0  0  0  0  0  0  0  0  0  0  0  0
   -0.1873    1.1472   -0.0289 C   0  0  0  0  0  0  0  0  0  0  0  0
    0.7978    0.1873   -0.7485 C   0  0  0  0  0  0  0  0  0  0  0  0
    2.2513    0.6165   -0.5672 C   0  0  0  0  0  0  0  0  0  0  0  0
    0.0072    2.4172   -0.7064 O   0  0  0  0  0  0  0  0  0  0  0  0
   -0.9734    3.3564   -0.5979 C   0  0  0  0  0  0  0  0  0  0  0  0
   -0.6422    4.6398   -1.0331 C   0  0  0  0  0  0  0  0  0  0  0  0
   -1.5762    5.6749   -0.9411 C   0  0  0  0  0  0  0  0  0  0  0  0
   -2.8430    5.4220   -0.4153 C   0  0  0  0  0  0  0  0  0  0  0  0
   -3.9876    6.6999   -0.2973 Cl  0  0  0  0  0  0  0  0  0  0  0  0
   -3.1865    4.1425    0.0118 C   0  0  0  0  0  0  0  0  0  0  0  0
   -2.2463    3.1122   -0.0944 C   0  0  0  0  0  0  0  0  0  0  0  0
   -2.5848    1.7479    0.3311 C   0  0  0  0  0  0  0  0  0  0  0  0
   -3.5639    1.5620    1.0489 O   0  0  0  0  0  0  0  0  0  0  0  0
   -1.6535    0.6447   -0.1587 C   0  0  0  0  0  0  0  0  0  0  0  0
   -1.9589   -0.6765    0.5336 C   0  0  0  0  0  0  0  0  0  0  0  0
   -2.8436   -1.2833   -0.5015 C   0  0  0  0  0  0  0  0  0  0  0  0
   -3.6507   -2.4972   -0.2330 C   0  0  0  0  0  0  0  0  0  0  0  0
   -4.5085   -2.9749   -1.2320 C   0  0  0  0  0  0  0  0  0  0  0  0
   -5.2783   -4.1186   -1.0120 C   0  0  0  0  0  0  0  0  0  0  0  0
   -5.1944   -4.7911    0.2056 C   0  0  0  0  0  0  0  0  0  0  0  0
   -4.3415   -4.3220    1.2038 C   0  0  0  0  0  0  0  0  0  0  0  0
   -3.5690   -3.1774    0.9875 C   0  0  0  0  0  0  0  0  0  0  0  0
   -2.8208   -0.6892   -1.6523 N   0  0  0  0  0  0  0  0  0  0  0  0
   -1.9601    0.4232   -1.5459 O   0  0  0  0  0  0  0  0  0  0  0  0
    4.2438   -1.9774    0.5607 S   0  0  0  0  0  0  0  0  0  0  0  0
    5.1632   -4.2104   -1.2390 H   0  0  0  0  0  0  0  0  0  0  0  0
    5.8687   -4.5585    0.3565 H   0  0  0  0  0  0  0  0  0  0  0  0
    6.9059   -4.0464   -0.9832 H   0  0  0  0  0  0  0  0  0  0  0  0
    7.6433   -1.5429   -0.5693 H   0  0  0  0  0  0  0  0  0  0  0  0
    6.6240    0.7228    0.3545 H   0  0  0  0  0  0  0  0  0  0  0  0
    1.9970    1.6960    2.6374 H   0  0  0  0  0  0  0  0  0  0  0  0
    1.9033    2.7027    1.1903 H   0  0  0  0  0  0  0  0  0  0  0  0
   -0.3443    2.0579    1.9620 H   0  0  0  0  0  0  0  0  0  0  0  0
    0.1014    0.3515    1.9805 H   0  0  0  0  0  0  0  0  0  0  0  0
    0.6949   -0.8349   -0.3703 H   0  0  0  0  0  0  0  0  0  0  0  0
    0.5878    0.1624   -1.8248 H   0  0  0  0  0  0  0  0  0  0  0  0
    2.4405    1.5831   -1.0511 H   0  0  0  0  0  0  0  0  0  0  0  0
    2.9076   -0.0972   -1.0685 H   0  0  0  0  0  0  0  0  0  0  0  0
    0.3468    4.8390   -1.4398 H   0  0  0  0  0  0  0  0  0  0  0  0
   -1.3093    6.6733   -1.2791 H   0  0  0  0  0  0  0  0  0  0  0  0
   -4.1772    3.9428    0.4137 H   0  0  0  0  0  0  0  0  0  0  0  0
   -1.0882   -1.3255    0.6530 H   0  0  0  0  0  0  0  0  0  0  0  0
   -2.4542   -0.5692    1.5015 H   0  0  0  0  0  0  0  0  0  0  0  0
   -4.5852   -2.4585   -2.1871 H   0  0  0  0  0  0  0  0  0  0  0  0
   -5.9437   -4.4818   -1.7913 H   0  0  0  0  0  0  0  0  0  0  0  0
   -5.7953   -5.6809    0.3768 H   0  0  0  0  0  0  0  0  0  0  0  0
   -4.2790   -4.8485    2.1533 H   0  0  0  0  0  0  0  0  0  0  0  0
   -2.9142   -2.8408    1.7851 H   0  0  0  0  0  0  0  0  0  0  0  0
  1  2  1  0
  2  3  2  0
  3  4  1  0
  4  5  2  0
  5  6  1  0
  6  7  2  0
  6  8  1  0
  8  9  1  0
  9 10  1  0
 10 11  1  0
 11 12  1  0
 12 13  1  0
 11 14  1  0
 14 15  1  0
 15 16  2  0
 16 17  1  0
 17 18  2  0
 18 19  1  0
 18 20  1  0
 20 21  2  0
 21 22  1  0
 22 23  2  0
 22 24  1  0
 24 25  1  0
 25 26  1  0
 26 27  1  0
 27 28  2  0
 28 29  1  0
 29 30  2  0
 30 31  1  0
 31 32  2  0
 26 33  2  0
 33 34  1  0
  5 35  1  0
 35  2  1  0
 13  8  1  0
 21 15  1  0
 34 24  1  0
 24 11  1  0
 32 27  1  0
  1 36  1  0
  1 37  1  0
  1 38  1  0
  3 39  1  0
  4 40  1  0
  9 41  1  0
  9 42  1  0
 10 43  1  0
 10 44  1  0
 12 45  1  0
 12 46  1  0
 13 47  1  0
 13 48  1  0
 16 49  1  0
 17 50  1  0
 20 51  1  0
 25 52  1  0
 25 53  1  0
 28 54  1  0
 29 55  1  0
 30 56  1  0
 31 57  1  0
 32 58  1  0
M  END
$$$$
