
     RDKit          3D

 53 55  0  0  0  0  0  0  0  0999 V2000
    8.0400    2.0139    2.0944 C   0  0  0  0  0  0  0  0  0  0  0  0
    7.3820    0.7790    2.3464 O   0  0  0  0  0  0  0  0  0  0  0  0
    6.5015    0.3426    1.3953 C   0  0  0  0  0  0  0  0  0  0  0  0
    6.2091    0.9826    0.1910 C   0  0  0  0  0  0  0  0  0  0  0  0
    5.2817    0.4244   -0.6971 C   0  0  0  0  0  0  0  0  0  0  0  0
    4.6407   -0.7846   -0.3959 C   0  0  0  0  0  0  0  0  0  0  0  0
    3.6218   -1.3730   -1.3360 C   0  0  0  0  0  0  0  0  0  0  0  0
    2.2932   -0.9461   -0.9826 N   0  0  0  0  0  0  0  0  0  0  0  0
    1.4660   -1.7049   -0.1895 C   0  0  0  0  0  0  0  0  0  0  0  0
    1.6654   -2.8532    0.1804 O   0  0  0  0  0  0  0  0  0  0  0  0
    0.1811   -0.9624    0.2445 C   0  0  0  0  0  0  0  0  0  0  0  0
   -0.0577    0.1607   -0.1785 O   0  0  0  0  0  0  0  0  0  0  0  0
   -0.6184   -1.6862    1.0959 N   0  0  0  0  0  0  0  0  0  0  0  0
   -1.9050   -1.1911    1.5572 C   0  0  0  0  0  0  0  0  0  0  0  0
   -2.9500   -1.0583    0.4329 C   0  0  0  0  0  0  0  0  0  0  0  0
   -3.2210   -2.3672   -0.1162 O   0  0  0  0  0  0  0  0  0  0  0  0
   -4.5547   -2.2898   -0.6261 C   0  0  0  0  0  0  0  0  0  0  0  0
   -5.2894   -1.4593    0.4032 C   0  0  0  0  0  0  0  0  0  0  0  0
   -4.2450   -0.5768    0.9356 N   0  0  0  0  0  0  0  0  0  0  0  0
   -4.5104    1.0772    1.0145 S   0  0  0  0  0  6  0  0  0  0  0  0
   -5.8478    1.2792    1.5321 O   0  0  0  0  0  0  0  0  0  0  0  0
   -3.3667    1.6849    1.6580 O   0  0  0  0  0  0  0  0  0  0  0  0
   -4.5137    1.6018   -0.6875 C   0  0  0  0  0  0  0  0  0  0  0  0
   -5.7174    1.6410   -1.3987 C   0  0  0  0  0  0  0  0  0  0  0  0
   -5.7191    2.0747   -2.7244 C   0  0  0  0  0  0  0  0  0  0  0  0
   -4.5281    2.4819   -3.3280 C   0  0  0  0  0  0  0  0  0  0  0  0
   -3.3336    2.4695   -2.6062 C   0  0  0  0  0  0  0  0  0  0  0  0
   -3.3239    2.0393   -1.2795 C   0  0  0  0  0  0  0  0  0  0  0  0
    4.9321   -1.4173    0.8186 C   0  0  0  0  0  0  0  0  0  0  0  0
    5.8579   -0.8578    1.7023 C   0  0  0  0  0  0  0  0  0  0  0  0
    8.6699    1.9501    1.2010 H   0  0  0  0  0  0  0  0  0  0  0  0
    7.3209    2.8355    2.0141 H   0  0  0  0  0  0  0  0  0  0  0  0
    8.6929    2.2248    2.9468 H   0  0  0  0  0  0  0  0  0  0  0  0
    6.6822    1.9180   -0.0882 H   0  0  0  0  0  0  0  0  0  0  0  0
    5.0644    0.9440   -1.6277 H   0  0  0  0  0  0  0  0  0  0  0  0
    3.6866   -2.4670   -1.3314 H   0  0  0  0  0  0  0  0  0  0  0  0
    3.8125   -1.0401   -2.3623 H   0  0  0  0  0  0  0  0  0  0  0  0
    2.0358    0.0300   -1.0937 H   0  0  0  0  0  0  0  0  0  0  0  0
   -0.3544   -2.6536    1.2641 H   0  0  0  0  0  0  0  0  0  0  0  0
   -1.7284   -0.2269    2.0422 H   0  0  0  0  0  0  0  0  0  0  0  0
   -2.2524   -1.8984    2.3185 H   0  0  0  0  0  0  0  0  0  0  0  0
   -2.5778   -0.4479   -0.3923 H   0  0  0  0  0  0  0  0  0  0  0  0
   -4.5277   -1.7943   -1.6033 H   0  0  0  0  0  0  0  0  0  0  0  0
   -4.9752   -3.2916   -0.7445 H   0  0  0  0  0  0  0  0  0  0  0  0
   -5.6461   -2.0898    1.2249 H   0  0  0  0  0  0  0  0  0  0  0  0
   -6.1486   -0.9454   -0.0309 H   0  0  0  0  0  0  0  0  0  0  0  0
   -6.6537    1.3502   -0.9277 H   0  0  0  0  0  0  0  0  0  0  0  0
   -6.6501    2.1088   -3.2853 H   0  0  0  0  0  0  0  0  0  0  0  0
   -4.5329    2.8254   -4.3600 H   0  0  0  0  0  0  0  0  0  0  0  0
   -2.4107    2.8041   -3.0744 H   0  0  0  0  0  0  0  0  0  0  0  0
   -2.3895    2.0487   -0.7198 H   0  0  0  0  0  0  0  0  0  0  0  0
    4.4357   -2.3487    1.0864 H   0  0  0  0  0  0  0  0  0  0  0  0
    6.0755   -1.3608    2.6417 H   0  0  0  0  0  0  0  0  0  0  0  0
  1  2  1  0
  2  3  1  0
  3  4  2  0
  4  5  1  0
  5  6  2  0
  6  7  1  0
  7  8  1  0
  8  9  1  0
  9 10  2  0
  9 11  1  0
 11 12  2  0
 11 13  1  0
 13 14  1  0
 14 15  1  0
 15 16  1  0
 16 17  1  0
 17 18  1  0
 18 19  1  0
 19 20  1  0
 20 21  2  0
 20 22  2  0
 20 23  1  0
 23 24  2  0
 24 25  1  0
 25 26  2  0
 26 27  1  0
 27 28  2  0
  6 29  1  0
 29 30  2  0
 30  3  1  0
 19 15  1  0
 28 23  1  0
  1 31  1  0
  1 32  1  0
  1 33  1  0
  4 34  1  0
  5 35  1  0
  7 36  1  0
  7 37  1  0
  8 38  1  0
 13 39  1  0
 14 40  1  0
 14 41  1  0
 15 42  1  0
 17 43  1  0
 17 44  1  0
 18 45  1  0
 18 46  1  0
 24 47  1  0
 25 48  1  0
 26 49  1  0
 27 50  1  0
 28 51  1  0
 29 52  1  0
 30 53  1  0
M  END
$$$$
