
     RDKit          3D

 51 54  0  0  0  0  0  0  0  0999 V2000
    6.2147    1.6806   -2.8474 C   0  0  0  0  0  0  0  0  0  0  0  0
    5.2817    0.4838   -2.9501 C   0  0  0  0  0  0  0  0  0  0  0  0
    3.9698    0.7340   -2.2528 C   0  0  0  0  0  0  0  0  0  0  0  0
    2.9018    1.3216   -2.9339 C   0  0  0  0  0  0  0  0  0  0  0  0
    1.6888    1.5708   -2.2795 C   0  0  0  0  0  0  0  0  0  0  0  0
    1.5041    1.2445   -0.9261 C   0  0  0  0  0  0  0  0  0  0  0  0
    0.2446    1.5012   -0.2522 N   0  0  0  0  0  0  0  0  0  0  0  0
   -0.4903    2.6345   -0.6219 C   0  0  0  0  0  0  0  0  0  0  0  0
   -0.1138    3.5205   -1.3898 O   0  0  0  0  0  0  0  0  0  0  0  0
   -1.8139    2.8155   -0.0047 C   0  0  0  0  0  0  0  0  0  0  0  0
   -2.6456    3.8593   -0.4469 C   0  0  0  0  0  0  0  0  0  0  0  0
   -3.8951    4.0556    0.1326 C   0  0  0  0  0  0  0  0  0  0  0  0
   -4.3134    3.2104    1.1524 C   0  0  0  0  0  0  0  0  0  0  0  0
   -3.4815    2.1755    1.5942 C   0  0  0  0  0  0  0  0  0  0  0  0
   -2.2148    1.9691    1.0221 C   0  0  0  0  0  0  0  0  0  0  0  0
   -1.3452    0.9313    1.4380 N   0  0  0  0  0  0  0  0  0  0  0  0
   -1.7169    0.0634    2.5636 C   0  0  0  0  0  0  0  0  0  0  0  0
   -2.6114   -1.1024    2.1367 C   0  0  0  0  0  0  0  0  0  0  0  0
   -3.6997   -1.3064    2.6678 O   0  0  0  0  0  0  0  0  0  0  0  0
   -2.0644   -1.9152    1.1705 N   0  0  0  0  0  0  0  0  0  0  0  0
   -2.6707   -3.1654    0.7746 C   0  0  0  0  0  0  0  0  0  0  0  0
   -1.9858   -4.2912    1.4620 C   0  0  0  0  0  0  0  0  0  0  0  0
   -0.6735   -4.5510    1.8093 C   0  0  0  0  0  0  0  0  0  0  0  0
   -0.6676   -5.8185    2.4397 C   0  0  0  0  0  0  0  0  0  0  0  0
   -1.9704   -6.2564    2.4303 C   0  0  0  0  0  0  0  0  0  0  0  0
   -2.7756   -5.3410    1.8341 O   0  0  0  0  0  0  0  0  0  0  0  0
   -0.1823    0.6102    0.7401 C   0  0  0  0  0  0  0  0  0  0  0  0
    0.3718   -0.4688    0.9874 O   0  0  0  0  0  0  0  0  0  0  0  0
    2.5911    0.6623   -0.2531 C   0  0  0  0  0  0  0  0  0  0  0  0
    3.8061    0.4121   -0.9039 C   0  0  0  0  0  0  0  0  0  0  0  0
    7.1580    1.4700   -3.3610 H   0  0  0  0  0  0  0  0  0  0  0  0
    6.4429    1.9181   -1.8029 H   0  0  0  0  0  0  0  0  0  0  0  0
    5.7709    2.5712   -3.3051 H   0  0  0  0  0  0  0  0  0  0  0  0
    5.0988    0.2462   -4.0052 H   0  0  0  0  0  0  0  0  0  0  0  0
    5.7656   -0.4014   -2.5197 H   0  0  0  0  0  0  0  0  0  0  0  0
    3.0007    1.5926   -3.9829 H   0  0  0  0  0  0  0  0  0  0  0  0
    0.8849    2.0058   -2.8689 H   0  0  0  0  0  0  0  0  0  0  0  0
   -2.3189    4.5234   -1.2455 H   0  0  0  0  0  0  0  0  0  0  0  0
   -4.5383    4.8615   -0.2121 H   0  0  0  0  0  0  0  0  0  0  0  0
   -5.2926    3.3486    1.6064 H   0  0  0  0  0  0  0  0  0  0  0  0
   -3.8754    1.5360    2.3799 H   0  0  0  0  0  0  0  0  0  0  0  0
   -0.8159   -0.3627    3.0228 H   0  0  0  0  0  0  0  0  0  0  0  0
   -2.1998    0.6442    3.3559 H   0  0  0  0  0  0  0  0  0  0  0  0
   -1.0893   -1.7618    0.9214 H   0  0  0  0  0  0  0  0  0  0  0  0
   -3.7415   -3.1571    1.0013 H   0  0  0  0  0  0  0  0  0  0  0  0
   -2.5427   -3.2616   -0.3081 H   0  0  0  0  0  0  0  0  0  0  0  0
    0.1735   -3.9025    1.6320 H   0  0  0  0  0  0  0  0  0  0  0  0
    0.1802   -6.3489    2.8497 H   0  0  0  0  0  0  0  0  0  0  0  0
   -2.4636   -7.1495    2.7875 H   0  0  0  0  0  0  0  0  0  0  0  0
    2.5341    0.4182    0.8048 H   0  0  0  0  0  0  0  0  0  0  0  0
    4.6258   -0.0305   -0.3416 H   0  0  0  0  0  0  0  0  0  0  0  0
  1  2  1  0
  2  3  1  0
  3  4  2  0
  4  5  1  0
  5  6  2  0
  6  7  1  0
  7  8  1  0
  8  9  2  0
  8 10  1  0
 10 11  2  0
 11 12  1  0
 12 13  2  0
 13 14  1  0
 14 15  2  0
 15 16  1  0
 16 17  1  0
 17 18  1  0
 18 19  2  0
 18 20  1  0
 20 21  1  0
 21 22  1  0
 22 23  2  0
 23 24  1  0
 24 25  2  0
 25 26  1  0
 16 27  1  0
 27 28  2  0
  6 29  1  0
 29 30  2  0
 30  3  1  0
 27  7  1  0
 15 10  1  0
 26 22  1  0
  1 31  1  0
  1 32  1  0
  1 33  1  0
  2 34  1  0
  2 35  1  0
  4 36  1  0
  5 37  1  0
 11 38  1  0
 12 39  1  0
 13 40  1  0
 14 41  1  0
 17 42  1  0
 17 43  1  0
 20 44  1  0
 21 45  1  0
 21 46  1  0
 23 47  1  0
 24 48  1  0
 25 49  1  0
 29 50  1  0
 30 51  1  0
M  END
$$$$
