
     RDKit          3D

 47 50  0  0  0  0  0  0  0  0999 V2000
   -4.1354    4.9429    0.8281 N   0  0  0  0  0  0  0  0  0  0  0  0
   -4.6050    3.7546    0.4033 C   0  0  0  0  0  0  0  0  0  0  0  0
   -5.8965    3.4778    0.2294 N   0  0  0  0  0  0  0  0  0  0  0  0
   -5.9379    2.1647   -0.2260 O   0  0  0  0  0  0  0  0  0  0  0  0
   -4.6571    1.6266   -0.3341 N   0  0  0  0  0  0  0  0  0  0  0  0
   -3.8537    2.6114    0.0683 C   0  0  0  0  0  0  0  0  0  0  0  0
   -2.4455    2.4440    0.1154 N   0  0  0  0  0  0  0  0  0  0  0  0
   -1.6260    3.4608    0.5190 N   0  0  0  0  0  0  0  0  0  0  0  0
   -0.3706    3.0552    0.4709 N   0  0  0  0  0  0  0  0  0  0  0  0
   -0.3543    1.7566    0.0375 C   0  0  0  0  0  0  0  0  0  0  0  0
    0.8915    1.0068   -0.1200 C   0  0  0  0  0  0  0  0  0  0  0  0
    0.9148   -0.1254   -0.5923 O   0  0  0  0  0  0  0  0  0  0  0  0
    2.0008    1.7371    0.2967 N   0  0  0  0  0  0  0  0  0  0  0  0
    3.3173    1.3920    0.1222 N   0  0  0  0  0  0  0  0  0  0  0  0
    3.6380    0.1377    0.1785 C   0  0  0  0  0  0  0  0  0  0  0  0
    5.0269   -0.3161   -0.0457 C   0  0  0  0  0  0  0  0  0  0  0  0
    6.0465    0.5985   -0.3328 C   0  0  0  0  0  0  0  0  0  0  0  0
    7.3515    0.1451   -0.5396 C   0  0  0  0  0  0  0  0  0  0  0  0
    7.6223   -1.2181   -0.4573 C   0  0  0  0  0  0  0  0  0  0  0  0
    8.8810   -1.7043   -0.6514 O   0  0  0  0  0  0  0  0  0  0  0  0
    6.6134   -2.1332   -0.1733 C   0  0  0  0  0  0  0  0  0  0  0  0
    5.3082   -1.6836    0.0336 C   0  0  0  0  0  0  0  0  0  0  0  0
   -1.6560    1.3397   -0.1968 C   0  0  0  0  0  0  0  0  0  0  0  0
   -2.1816    0.0233   -0.6358 C   0  0  0  0  0  0  0  0  0  0  0  0
   -2.6811   -0.5979    0.5445 O   0  0  0  0  0  0  0  0  0  0  0  0
   -3.2826   -1.8176    0.4023 C   0  0  0  0  0  0  0  0  0  0  0  0
   -3.8527   -2.3235    1.5764 C   0  0  0  0  0  0  0  0  0  0  0  0
   -4.4984   -3.5607    1.5764 C   0  0  0  0  0  0  0  0  0  0  0  0
   -4.5692   -4.2905    0.3978 C   0  0  0  0  0  0  0  0  0  0  0  0
   -5.1868   -5.4788    0.3915 F   0  0  0  0  0  0  0  0  0  0  0  0
   -4.0055   -3.8050   -0.7762 C   0  0  0  0  0  0  0  0  0  0  0  0
   -3.3588   -2.5651   -0.7759 C   0  0  0  0  0  0  0  0  0  0  0  0
   -3.1679    5.0542    1.1265 H   0  0  0  0  0  0  0  0  0  0  0  0
   -4.7817    5.6144    1.2292 H   0  0  0  0  0  0  0  0  0  0  0  0
    1.8502    2.7285    0.4740 H   0  0  0  0  0  0  0  0  0  0  0  0
    2.9123   -0.6553    0.4257 H   0  0  0  0  0  0  0  0  0  0  0  0
    5.8303    1.6623   -0.3963 H   0  0  0  0  0  0  0  0  0  0  0  0
    8.1339    0.8640   -0.7614 H   0  0  0  0  0  0  0  0  0  0  0  0
    9.4768   -0.9607   -0.8405 H   0  0  0  0  0  0  0  0  0  0  0  0
    6.8438   -3.1936   -0.1139 H   0  0  0  0  0  0  0  0  0  0  0  0
    4.5248   -2.4044    0.2525 H   0  0  0  0  0  0  0  0  0  0  0  0
   -1.3862   -0.5896   -1.0696 H   0  0  0  0  0  0  0  0  0  0  0  0
   -2.9606    0.1419   -1.3964 H   0  0  0  0  0  0  0  0  0  0  0  0
   -3.7947   -1.7471    2.4966 H   0  0  0  0  0  0  0  0  0  0  0  0
   -4.9434   -3.9550    2.4838 H   0  0  0  0  0  0  0  0  0  0  0  0
   -4.0708   -4.3951   -1.6849 H   0  0  0  0  0  0  0  0  0  0  0  0
   -2.9241   -2.2194   -1.7078 H   0  0  0  0  0  0  0  0  0  0  0  0
  1  2  1  0
  2  3  2  0
  3  4  1  0
  4  5  1  0
  5  6  2  0
  6  7  1  0
  7  8  1  0
  8  9  2  0
  9 10  1  0
 10 11  1  0
 11 12  2  0
 11 13  1  0
 13 14  1  0
 14 15  2  3
 15 16  1  0
 16 17  2  0
 17 18  1  0
 18 19  2  0
 19 20  1  0
 19 21  1  0
 21 22  2  0
 10 23  2  0
 23 24  1  0
 24 25  1  0
 25 26  1  0
 26 27  2  0
 27 28  1  0
 28 29  2  0
 29 30  1  0
 29 31  1  0
 31 32  2  0
  6  2  1  0
 23  7  1  0
 32 26  1  0
 22 16  1  0
  1 33  1  0
  1 34  1  0
 13 35  1  0
 15 36  1  0
 17 37  1  0
 18 38  1  0
 20 39  1  0
 21 40  1  0
 22 41  1  0
 24 42  1  0
 24 43  1  0
 27 44  1  0
 28 45  1  0
 31 46  1  0
 32 47  1  0
M  END
$$$$
