
     RDKit          3D

 39 40  0  0  0  0  0  0  0  0999 V2000
    5.4441   -2.9253    1.1914 C   0  0  0  0  0  0  0  0  0  0  0  0
    4.3638   -1.8847    1.1429 C   0  0  0  0  0  0  0  0  0  0  0  0
    3.4864   -1.7162    2.2210 C   0  0  0  0  0  0  0  0  0  0  0  0
    2.4997   -0.7261    2.1844 C   0  0  0  0  0  0  0  0  0  0  0  0
    2.3869    0.1150    1.0707 C   0  0  0  0  0  0  0  0  0  0  0  0
    1.3582    1.1847    0.9818 C   0  0  0  0  0  0  0  0  0  0  0  0
    1.1508    1.8470   -0.0246 O   0  0  0  0  0  0  0  0  0  0  0  0
    0.6975    1.3186    2.1569 O   0  0  0  0  0  0  0  0  0  0  0  0
   -0.3102    2.3318    2.1825 C   0  0  0  0  0  0  0  0  0  0  0  0
   -1.6018    1.9000    1.4872 C   0  0  0  0  0  0  0  0  0  0  0  0
   -2.5505    1.4200    2.1004 O   0  0  0  0  0  0  0  0  0  0  0  0
   -1.5987    2.0873    0.1219 N   0  0  0  0  0  0  0  0  0  0  0  0
   -2.6894    1.6224   -0.7147 C   0  0  0  0  0  0  0  0  0  0  0  0
   -2.6382    0.1111   -0.9699 C   0  0  0  0  0  0  0  0  0  0  0  0
   -3.6089   -0.3129   -1.9645 N   0  0  0  0  0  0  0  0  0  0  0  0
   -3.4058   -0.1904   -3.3178 C   0  0  0  0  0  0  0  0  0  0  0  0
   -2.2237    0.3199   -3.7633 O   0  0  0  0  0  0  0  0  0  0  0  0
   -4.4323   -0.5942   -4.0746 C   0  0  0  0  0  0  0  0  0  0  0  0
   -5.7509   -1.1596   -3.0946 S   0  0  0  0  0  0  0  0  0  0  0  0
   -4.8517   -0.8082   -1.6028 C   0  0  0  0  0  0  0  0  0  0  0  0
   -5.3065   -0.9894   -0.4866 O   0  0  0  0  0  0  0  0  0  0  0  0
    3.2672   -0.0482   -0.0057 C   0  0  0  0  0  0  0  0  0  0  0  0
    4.2530   -1.0379    0.0337 C   0  0  0  0  0  0  0  0  0  0  0  0
    5.2144   -3.7001    1.9308 H   0  0  0  0  0  0  0  0  0  0  0  0
    6.3990   -2.4614    1.4582 H   0  0  0  0  0  0  0  0  0  0  0  0
    5.5452   -3.4212    0.2198 H   0  0  0  0  0  0  0  0  0  0  0  0
    3.5641   -2.3552    3.0993 H   0  0  0  0  0  0  0  0  0  0  0  0
    1.8288   -0.6239    3.0340 H   0  0  0  0  0  0  0  0  0  0  0  0
   -0.5451    2.5399    3.2319 H   0  0  0  0  0  0  0  0  0  0  0  0
    0.0621    3.2703    1.7519 H   0  0  0  0  0  0  0  0  0  0  0  0
   -0.6897    2.2370   -0.3192 H   0  0  0  0  0  0  0  0  0  0  0  0
   -2.6201    2.1800   -1.6548 H   0  0  0  0  0  0  0  0  0  0  0  0
   -3.6408    1.8895   -0.2402 H   0  0  0  0  0  0  0  0  0  0  0  0
   -2.8334   -0.4237   -0.0330 H   0  0  0  0  0  0  0  0  0  0  0  0
   -1.6377   -0.1949   -1.2970 H   0  0  0  0  0  0  0  0  0  0  0  0
   -2.2386    0.3210   -4.7355 H   0  0  0  0  0  0  0  0  0  0  0  0
   -4.4788   -0.5793   -5.1536 H   0  0  0  0  0  0  0  0  0  0  0  0
    3.1957    0.5984   -0.8775 H   0  0  0  0  0  0  0  0  0  0  0  0
    4.9360   -1.1411   -0.8068 H   0  0  0  0  0  0  0  0  0  0  0  0
  1  2  1  0
  2  3  2  0
  3  4  1  0
  4  5  2  0
  5  6  1  0
  6  7  2  0
  6  8  1  0
  8  9  1  0
  9 10  1  0
 10 11  2  0
 10 12  1  0
 12 13  1  0
 13 14  1  0
 14 15  1  0
 15 16  1  0
 16 17  1  0
 16 18  2  0
 18 19  1  0
 19 20  1  0
 20 21  2  0
  5 22  1  0
 22 23  2  0
 23  2  1  0
 20 15  1  0
  1 24  1  0
  1 25  1  0
  1 26  1  0
  3 27  1  0
  4 28  1  0
  9 29  1  0
  9 30  1  0
 12 31  1  0
 13 32  1  0
 13 33  1  0
 14 34  1  0
 14 35  1  0
 17 36  1  0
 18 37  1  0
 22 38  1  0
 23 39  1  0
M  END
$$$$
