
     RDKit          3D

 58 62  0  0  0  0  0  0  0  0999 V2000
    6.5088    2.0733    5.2193 C   0  0  0  0  0  0  0  0  0  0  0  0
    6.1799    0.9326    4.4391 O   0  0  0  0  0  0  0  0  0  0  0  0
    5.0810    1.0111    3.6189 C   0  0  0  0  0  0  0  0  0  0  0  0
    4.2140    2.1045    3.5647 C   0  0  0  0  0  0  0  0  0  0  0  0
    3.1186    2.0907    2.6976 C   0  0  0  0  0  0  0  0  0  0  0  0
    2.8690    0.9904    1.8680 C   0  0  0  0  0  0  0  0  0  0  0  0
    1.7165    1.0167    0.9719 C   0  0  0  0  0  0  0  0  0  0  0  0
    0.8511    1.9908    0.7600 N   0  0  0  0  0  0  0  0  0  0  0  0
   -0.0371    1.4801   -0.1738 C   0  0  0  0  0  0  0  0  0  0  0  0
   -1.1619    2.3523   -0.6162 C   0  0  0  0  0  0  0  0  0  0  0  0
   -1.9619    1.7920   -1.6904 N   0  0  0  0  0  0  0  0  0  0  0  0
   -3.0977    1.0290   -1.5763 C   0  0  0  0  0  0  0  0  0  0  0  0
   -3.7636    0.5551   -0.0483 S   0  0  0  0  0  0  0  0  0  0  0  0
   -5.1903   -0.4567   -0.5549 C   0  0  0  0  0  0  0  0  0  0  0  0
   -4.8384   -1.9186   -0.7621 C   0  0  0  0  0  0  0  0  0  0  0  0
   -4.5015   -2.4122   -2.0390 C   0  0  0  0  0  0  0  0  0  0  0  0
   -4.2006   -3.7692   -2.2337 C   0  0  0  0  0  0  0  0  0  0  0  0
   -4.2309   -4.6461   -1.1500 C   0  0  0  0  0  0  0  0  0  0  0  0
   -4.5502   -4.1608    0.1162 C   0  0  0  0  0  0  0  0  0  0  0  0
   -4.5790   -5.0082    1.1560 F   0  0  0  0  0  0  0  0  0  0  0  0
   -4.8445   -2.8142    0.3188 C   0  0  0  0  0  0  0  0  0  0  0  0
   -3.5923    0.7108   -2.7515 N   0  0  0  0  0  0  0  0  0  0  0  0
   -2.7446    1.2765   -3.6694 C   0  0  0  0  0  0  0  0  0  0  0  0
   -2.7928    1.2365   -5.0619 C   0  0  0  0  0  0  0  0  0  0  0  0
   -1.7727    1.9111   -5.7154 C   0  0  0  0  0  0  0  0  0  0  0  0
   -0.7722    2.5858   -5.1030 N   0  0  0  0  0  0  0  0  0  0  0  0
   -0.7230    2.6237   -3.7531 C   0  0  0  0  0  0  0  0  0  0  0  0
   -1.7162    1.9680   -3.0365 C   0  0  0  0  0  0  0  0  0  0  0  0
    0.3468    0.1844   -0.4930 C   0  0  0  0  0  0  0  0  0  0  0  0
   -0.1448   -0.8959   -1.3779 C   0  0  0  0  0  0  0  0  0  0  0  0
    1.4714   -0.1075    0.2316 O   0  0  0  0  0  0  0  0  0  0  0  0
    3.7431   -0.1050    1.9242 C   0  0  0  0  0  0  0  0  0  0  0  0
    4.8417   -0.1064    2.7943 C   0  0  0  0  0  0  0  0  0  0  0  0
    5.7374   -1.1382    2.9151 O   0  0  0  0  0  0  0  0  0  0  0  0
    5.5313   -2.2920    2.1167 C   0  0  0  0  0  0  0  0  0  0  0  0
    5.7213    2.2942    5.9477 H   0  0  0  0  0  0  0  0  0  0  0  0
    7.4261    1.8495    5.7781 H   0  0  0  0  0  0  0  0  0  0  0  0
    6.7135    2.9410    4.5849 H   0  0  0  0  0  0  0  0  0  0  0  0
    4.3623    2.9876    4.1848 H   0  0  0  0  0  0  0  0  0  0  0  0
    2.4552    2.9537    2.6732 H   0  0  0  0  0  0  0  0  0  0  0  0
   -0.7655    3.3107   -0.9679 H   0  0  0  0  0  0  0  0  0  0  0  0
   -1.8150    2.5895    0.2294 H   0  0  0  0  0  0  0  0  0  0  0  0
   -5.9350   -0.3833    0.2517 H   0  0  0  0  0  0  0  0  0  0  0  0
   -5.6856   -0.0449   -1.4432 H   0  0  0  0  0  0  0  0  0  0  0  0
   -4.4771   -1.7373   -2.8940 H   0  0  0  0  0  0  0  0  0  0  0  0
   -3.9387   -4.1385   -3.2333 H   0  0  0  0  0  0  0  0  0  0  0  0
   -4.0043   -5.6985   -1.2780 H   0  0  0  0  0  0  0  0  0  0  0  0
   -5.0925   -2.4713    1.3267 H   0  0  0  0  0  0  0  0  0  0  0  0
   -3.5736    0.7080   -5.5935 H   0  0  0  0  0  0  0  0  0  0  0  0
   -1.7332    1.9292   -6.8008 H   0  0  0  0  0  0  0  0  0  0  0  0
    0.1005    3.1680   -3.3049 H   0  0  0  0  0  0  0  0  0  0  0  0
   -1.1124   -1.2734   -1.0346 H   0  0  0  0  0  0  0  0  0  0  0  0
    0.5541   -1.7377   -1.3919 H   0  0  0  0  0  0  0  0  0  0  0  0
   -0.2461   -0.5439   -2.4103 H   0  0  0  0  0  0  0  0  0  0  0  0
    3.5486   -0.9540    1.2763 H   0  0  0  0  0  0  0  0  0  0  0  0
    4.5585   -2.7497    2.3274 H   0  0  0  0  0  0  0  0  0  0  0  0
    6.3005   -3.0256    2.3775 H   0  0  0  0  0  0  0  0  0  0  0  0
    5.6442   -2.0576    1.0501 H   0  0  0  0  0  0  0  0  0  0  0  0
  1  2  1  0
  2  3  1  0
  3  4  2  0
  4  5  1  0
  5  6  2  0
  6  7  1  0
  7  8  2  0
  8  9  1  0
  9 10  1  0
 10 11  1  0
 11 12  1  0
 12 13  1  0
 13 14  1  0
 14 15  1  0
 15 16  2  0
 16 17  1  0
 17 18  2  0
 18 19  1  0
 19 20  1  0
 19 21  2  0
 12 22  2  0
 22 23  1  0
 23 24  2  0
 24 25  1  0
 25 26  2  0
 26 27  1  0
 27 28  2  0
  9 29  2  0
 29 30  1  0
 29 31  1  0
  6 32  1  0
 32 33  2  0
 33 34  1  0
 34 35  1  0
 33  3  1  0
 31  7  1  0
 28 11  1  0
 21 15  1  0
 28 23  1  0
  1 36  1  0
  1 37  1  0
  1 38  1  0
  4 39  1  0
  5 40  1  0
 10 41  1  0
 10 42  1  0
 14 43  1  0
 14 44  1  0
 16 45  1  0
 17 46  1  0
 18 47  1  0
 21 48  1  0
 24 49  1  0
 25 50  1  0
 27 51  1  0
 30 52  1  0
 30 53  1  0
 30 54  1  0
 32 55  1  0
 35 56  1  0
 35 57  1  0
 35 58  1  0
M  END
$$$$
