
     RDKit          3D

 35 36  0  0  0  0  0  0  0  0999 V2000
   -5.2758   -2.0657   -1.3483 C   0  0  0  0  0  0  0  0  0  0  0  0
   -4.1323   -1.2287   -0.8569 C   0  0  0  0  0  0  0  0  0  0  0  0
   -4.1533    0.1610   -1.0102 C   0  0  0  0  0  0  0  0  0  0  0  0
   -3.0752    0.9468   -0.5844 C   0  0  0  0  0  0  0  0  0  0  0  0
   -1.9505    0.3573   -0.0052 C   0  0  0  0  0  0  0  0  0  0  0  0
   -0.8340    1.0982    0.4375 N   0  0  0  0  0  0  0  0  0  0  0  0
   -0.6323    2.4661    0.4050 C   0  0  0  0  0  0  0  0  0  0  0  0
   -1.4409    3.3163    0.0464 O   0  0  0  0  0  0  0  0  0  0  0  0
    0.7407    2.8664    0.9588 C   0  0  0  0  0  0  0  0  0  0  0  0
    1.6945    1.7971    0.9453 O   0  0  0  0  0  0  0  0  0  0  0  0
    2.3293    1.6289   -0.2423 C   0  0  0  0  0  0  0  0  0  0  0  0
    2.1966    2.3011   -1.2462 O   0  0  0  0  0  0  0  0  0  0  0  0
    3.2015    0.4488   -0.1298 C   0  0  0  0  0  0  0  0  0  0  0  0
    4.1885    0.4378    0.8666 C   0  0  0  0  0  0  0  0  0  0  0  0
    5.0337   -0.6629    0.9824 C   0  0  0  0  0  0  0  0  0  0  0  0
    6.2451   -0.6830    2.2022 Cl  0  0  0  0  0  0  0  0  0  0  0  0
    4.9050   -1.7482    0.1169 C   0  0  0  0  0  0  0  0  0  0  0  0
    3.9193   -1.7355   -0.8739 C   0  0  0  0  0  0  0  0  0  0  0  0
    3.0639   -0.6366   -1.0019 C   0  0  0  0  0  0  0  0  0  0  0  0
    1.8367   -0.7113   -2.2123 Cl  0  0  0  0  0  0  0  0  0  0  0  0
   -1.9260   -1.0426    0.1324 C   0  0  0  0  0  0  0  0  0  0  0  0
   -0.4281   -1.9352    0.9011 Br  0  0  0  0  0  0  0  0  0  0  0  0
   -3.0024   -1.8289   -0.2927 C   0  0  0  0  0  0  0  0  0  0  0  0
   -5.1092   -2.3512   -2.3915 H   0  0  0  0  0  0  0  0  0  0  0  0
   -5.3826   -2.9734   -0.7451 H   0  0  0  0  0  0  0  0  0  0  0  0
   -6.2206   -1.5165   -1.2778 H   0  0  0  0  0  0  0  0  0  0  0  0
   -5.0117    0.6511   -1.4664 H   0  0  0  0  0  0  0  0  0  0  0  0
   -3.1461    2.0206   -0.7290 H   0  0  0  0  0  0  0  0  0  0  0  0
   -0.0727    0.5451    0.8183 H   0  0  0  0  0  0  0  0  0  0  0  0
    1.1170    3.7390    0.4126 H   0  0  0  0  0  0  0  0  0  0  0  0
    0.6001    3.1619    2.0038 H   0  0  0  0  0  0  0  0  0  0  0  0
    4.2987    1.2841    1.5406 H   0  0  0  0  0  0  0  0  0  0  0  0
    5.5655   -2.6077    0.2085 H   0  0  0  0  0  0  0  0  0  0  0  0
    3.8208   -2.5899   -1.5407 H   0  0  0  0  0  0  0  0  0  0  0  0
   -2.9634   -2.9105   -0.1861 H   0  0  0  0  0  0  0  0  0  0  0  0
  1  2  1  0
  2  3  2  0
  3  4  1  0
  4  5  2  0
  5  6  1  0
  6  7  1  0
  7  8  2  0
  7  9  1  0
  9 10  1  0
 10 11  1  0
 11 12  2  0
 11 13  1  0
 13 14  2  0
 14 15  1  0
 15 16  1  0
 15 17  2  0
 17 18  1  0
 18 19  2  0
 19 20  1  0
  5 21  1  0
 21 22  1  0
 21 23  2  0
 23  2  1  0
 19 13  1  0
  1 24  1  0
  1 25  1  0
  1 26  1  0
  3 27  1  0
  4 28  1  0
  6 29  1  0
  9 30  1  0
  9 31  1  0
 14 32  1  0
 17 33  1  0
 18 34  1  0
 23 35  1  0
M  END
$$$$
