
     RDKit          3D

 51 54  0  0  0  0  0  0  0  0999 V2000
   -6.7155   -1.5575    1.3931 C   0  0  0  0  0  0  0  0  0  0  0  0
   -6.5742   -0.0632    1.1410 C   0  0  0  0  0  0  0  0  0  0  0  0
   -5.7995    0.1950   -0.0805 N   0  0  0  0  0  0  0  0  0  0  0  0
   -6.5856    0.3341   -1.3148 C   0  0  0  0  0  0  0  0  0  0  0  0
   -6.9437    1.7906   -1.5735 C   0  0  0  0  0  0  0  0  0  0  0  0
   -4.4124    0.2989   -0.0724 C   0  0  0  0  0  0  0  0  0  0  0  0
   -3.6449    0.0369    1.0808 C   0  0  0  0  0  0  0  0  0  0  0  0
   -2.2428    0.1381    1.1040 C   0  0  0  0  0  0  0  0  0  0  0  0
   -1.5539    0.5102   -0.0419 C   0  0  0  0  0  0  0  0  0  0  0  0
   -0.1095    0.6447   -0.0806 C   0  0  0  0  0  0  0  0  0  0  0  0
    0.5173    1.0135   -1.2112 C   0  0  0  0  0  0  0  0  0  0  0  0
    1.9419    1.1314   -1.1795 C   0  0  0  0  0  0  0  0  0  0  0  0
    2.7623    0.3227   -0.5276 N   0  0  0  0  0  0  0  0  0  0  0  0
    4.0873    0.7136   -0.6667 C   0  0  0  0  0  0  0  0  0  0  0  0
    5.1659   -0.0593   -0.0529 C   0  0  0  0  0  0  0  0  0  0  0  0
    6.5090    0.0978   -0.4236 C   0  0  0  0  0  0  0  0  0  0  0  0
    7.5197   -0.6602    0.1864 C   0  0  0  0  0  0  0  0  0  0  0  0
    7.2026   -1.5898    1.1752 C   0  0  0  0  0  0  0  0  0  0  0  0
    8.0872   -2.3873    1.8460 O   0  0  0  0  0  0  0  0  0  0  0  0
    9.4592   -2.2654    1.4930 C   0  0  0  0  0  0  0  0  0  0  0  0
    5.8680   -1.7568    1.5449 C   0  0  0  0  0  0  0  0  0  0  0  0
    4.8594   -1.0026    0.9367 C   0  0  0  0  0  0  0  0  0  0  0  0
    4.2612    1.8744   -1.3902 C   0  0  0  0  0  0  0  0  0  0  0  0
    2.7495    2.4777   -1.9169 S   0  0  0  0  0  0  0  0  0  0  0  0
   -0.2494    1.2416   -2.4663 C   0  0  0  0  0  0  0  0  0  0  0  0
    0.2823    1.4932   -3.5426 O   0  0  0  0  0  0  0  0  0  0  0  0
   -1.6382    1.1462   -2.3773 O   0  0  0  0  0  0  0  0  0  0  0  0
   -2.2854    0.7712   -1.1855 C   0  0  0  0  0  0  0  0  0  0  0  0
   -3.6805    0.6712   -1.2123 C   0  0  0  0  0  0  0  0  0  0  0  0
   -5.7432   -2.0401    1.5305 H   0  0  0  0  0  0  0  0  0  0  0  0
   -7.3118   -1.7337    2.2938 H   0  0  0  0  0  0  0  0  0  0  0  0
   -7.2152   -2.0524    0.5537 H   0  0  0  0  0  0  0  0  0  0  0  0
   -7.5791    0.3664    1.0380 H   0  0  0  0  0  0  0  0  0  0  0  0
   -6.1433    0.4431    2.0119 H   0  0  0  0  0  0  0  0  0  0  0  0
   -7.5169   -0.2399   -1.2255 H   0  0  0  0  0  0  0  0  0  0  0  0
   -6.0710   -0.1032   -2.1777 H   0  0  0  0  0  0  0  0  0  0  0  0
   -6.0520    2.4122   -1.6984 H   0  0  0  0  0  0  0  0  0  0  0  0
   -7.5463    1.8755   -2.4832 H   0  0  0  0  0  0  0  0  0  0  0  0
   -7.5235    2.2064   -0.7428 H   0  0  0  0  0  0  0  0  0  0  0  0
   -4.1200   -0.2695    2.0081 H   0  0  0  0  0  0  0  0  0  0  0  0
   -1.7138   -0.0805    2.0284 H   0  0  0  0  0  0  0  0  0  0  0  0
    0.4432    0.4488    0.8346 H   0  0  0  0  0  0  0  0  0  0  0  0
    6.7988    0.7996   -1.2009 H   0  0  0  0  0  0  0  0  0  0  0  0
    8.5420   -0.4998   -0.1396 H   0  0  0  0  0  0  0  0  0  0  0  0
    9.6230   -2.5369    0.4449 H   0  0  0  0  0  0  0  0  0  0  0  0
   10.0271   -2.9674    2.1112 H   0  0  0  0  0  0  0  0  0  0  0  0
    9.8330   -1.2581    1.7042 H   0  0  0  0  0  0  0  0  0  0  0  0
    5.6069   -2.4822    2.3117 H   0  0  0  0  0  0  0  0  0  0  0  0
    3.8276   -1.1595    1.2450 H   0  0  0  0  0  0  0  0  0  0  0  0
    5.1696    2.4073   -1.6274 H   0  0  0  0  0  0  0  0  0  0  0  0
   -4.1727    0.9030   -2.1505 H   0  0  0  0  0  0  0  0  0  0  0  0
  1  2  1  0
  2  3  1  0
  3  4  1  0
  4  5  1  0
  3  6  1  0
  6  7  2  0
  7  8  1  0
  8  9  2  0
  9 10  1  0
 10 11  2  0
 11 12  1  0
 12 13  2  0
 13 14  1  0
 14 15  1  0
 15 16  2  0
 16 17  1  0
 17 18  2  0
 18 19  1  0
 19 20  1  0
 18 21  1  0
 21 22  2  0
 14 23  2  0
 23 24  1  0
 11 25  1  0
 25 26  2  0
 25 27  1  0
 27 28  1  0
 28 29  2  0
 29  6  1  0
 28  9  1  0
 24 12  1  0
 22 15  1  0
  1 30  1  0
  1 31  1  0
  1 32  1  0
  2 33  1  0
  2 34  1  0
  4 35  1  0
  4 36  1  0
  5 37  1  0
  5 38  1  0
  5 39  1  0
  7 40  1  0
  8 41  1  0
 10 42  1  0
 16 43  1  0
 17 44  1  0
 20 45  1  0
 20 46  1  0
 20 47  1  0
 21 48  1  0
 22 49  1  0
 23 50  1  0
 29 51  1  0
M  END
$$$$
