
     RDKit          3D

 57 59  0  0  0  0  0  0  0  0999 V2000
   -7.0937    0.7759   -2.3078 C   0  0  0  0  0  0  0  0  0  0  0  0
   -5.8574    1.2129   -1.7603 O   0  0  0  0  0  0  0  0  0  0  0  0
   -4.8329    0.3025   -1.6930 C   0  0  0  0  0  0  0  0  0  0  0  0
   -4.9697   -1.0597   -1.9852 C   0  0  0  0  0  0  0  0  0  0  0  0
   -3.8715   -1.9163   -1.8874 C   0  0  0  0  0  0  0  0  0  0  0  0
   -2.6380   -1.4122   -1.4739 C   0  0  0  0  0  0  0  0  0  0  0  0
   -1.2285   -2.4958   -1.3861 S   0  0  0  0  0  6  0  0  0  0  0  0
   -0.0415   -1.6746   -1.4901 O   0  0  0  0  0  0  0  0  0  0  0  0
   -1.4647   -3.5867   -2.3062 O   0  0  0  0  0  0  0  0  0  0  0  0
   -1.2786   -3.1140    0.1660 N   0  0  0  0  0  0  0  0  0  0  0  0
   -2.3436   -4.0471    0.5531 C   0  0  0  0  0  0  0  0  0  0  0  0
   -2.9197   -3.4109    1.7983 C   0  0  0  0  0  0  0  0  0  0  0  0
   -1.7959   -2.7627    2.4013 O   0  0  0  0  0  0  0  0  0  0  0  0
   -1.0237   -2.2238    1.3117 C   0  0  0  0  0  0  0  0  0  0  0  0
    0.4632   -2.2069    1.7083 C   0  0  0  0  0  0  0  0  0  0  0  0
    1.2852   -1.3401    0.8835 N   0  0  0  0  0  0  0  0  0  0  0  0
    2.5436   -0.9582    1.2853 C   0  0  0  0  0  0  0  0  0  0  0  0
    3.0408   -1.1745    2.3824 O   0  0  0  0  0  0  0  0  0  0  0  0
    3.3589   -0.2058    0.2086 C   0  0  0  0  0  0  0  0  0  0  0  0
    2.8266    0.1760   -0.8224 O   0  0  0  0  0  0  0  0  0  0  0  0
    4.6779   -0.0249    0.5560 N   0  0  0  0  0  0  0  0  0  0  0  0
    5.5711    0.7945   -0.2189 C   0  0  0  0  0  0  0  0  0  0  0  0
    5.6593    2.1842    0.3560 C   0  0  0  0  0  0  0  0  0  0  0  0
    6.6511    2.5062    1.2966 C   0  0  0  0  0  0  0  0  0  0  0  0
    6.7126    3.7876    1.8431 C   0  0  0  0  0  0  0  0  0  0  0  0
    5.7812    4.7439    1.4555 C   0  0  0  0  0  0  0  0  0  0  0  0
    5.8418    5.9728    1.9814 F   0  0  0  0  0  0  0  0  0  0  0  0
    4.7862    4.4433    0.5333 C   0  0  0  0  0  0  0  0  0  0  0  0
    4.7215    3.1626   -0.0136 C   0  0  0  0  0  0  0  0  0  0  0  0
   -2.4788   -0.0486   -1.2028 C   0  0  0  0  0  0  0  0  0  0  0  0
   -3.5753    0.8121   -1.3031 C   0  0  0  0  0  0  0  0  0  0  0  0
   -3.5252    2.1584   -1.0406 O   0  0  0  0  0  0  0  0  0  0  0  0
   -2.2497    2.7395   -0.8068 C   0  0  0  0  0  0  0  0  0  0  0  0
   -7.5728    0.0438   -1.6534 H   0  0  0  0  0  0  0  0  0  0  0  0
   -6.9644    0.3788   -3.3189 H   0  0  0  0  0  0  0  0  0  0  0  0
   -7.7542    1.6445   -2.3780 H   0  0  0  0  0  0  0  0  0  0  0  0
   -5.9172   -1.4838   -2.3005 H   0  0  0  0  0  0  0  0  0  0  0  0
   -3.9880   -2.9672   -2.1471 H   0  0  0  0  0  0  0  0  0  0  0  0
   -1.8750   -5.0097    0.7907 H   0  0  0  0  0  0  0  0  0  0  0  0
   -3.1072   -4.2182   -0.2080 H   0  0  0  0  0  0  0  0  0  0  0  0
   -3.6729   -2.6516    1.5570 H   0  0  0  0  0  0  0  0  0  0  0  0
   -3.3529   -4.1401    2.4871 H   0  0  0  0  0  0  0  0  0  0  0  0
   -1.3900   -1.2086    1.1346 H   0  0  0  0  0  0  0  0  0  0  0  0
    0.8899   -3.2166    1.6564 H   0  0  0  0  0  0  0  0  0  0  0  0
    0.5632   -1.8831    2.7515 H   0  0  0  0  0  0  0  0  0  0  0  0
    1.1029   -1.2840   -0.1252 H   0  0  0  0  0  0  0  0  0  0  0  0
    4.9251   -0.2806    1.5082 H   0  0  0  0  0  0  0  0  0  0  0  0
    6.5565    0.3149   -0.2062 H   0  0  0  0  0  0  0  0  0  0  0  0
    5.2432    0.8362   -1.2641 H   0  0  0  0  0  0  0  0  0  0  0  0
    7.3797    1.7610    1.6080 H   0  0  0  0  0  0  0  0  0  0  0  0
    7.4768    4.0452    2.5692 H   0  0  0  0  0  0  0  0  0  0  0  0
    4.0667    5.2045    0.2480 H   0  0  0  0  0  0  0  0  0  0  0  0
    3.9346    2.9247   -0.7287 H   0  0  0  0  0  0  0  0  0  0  0  0
   -1.4980    0.3218   -0.9208 H   0  0  0  0  0  0  0  0  0  0  0  0
   -1.8147    2.3679    0.1263 H   0  0  0  0  0  0  0  0  0  0  0  0
   -2.3886    3.8191   -0.7022 H   0  0  0  0  0  0  0  0  0  0  0  0
   -1.5757    2.5716   -1.6523 H   0  0  0  0  0  0  0  0  0  0  0  0
  1  2  1  0
  2  3  1  0
  3  4  2  0
  4  5  1  0
  5  6  2  0
  6  7  1  0
  7  8  2  0
  7  9  2  0
  7 10  1  0
 10 11  1  0
 11 12  1  0
 12 13  1  0
 13 14  1  0
 14 15  1  0
 15 16  1  0
 16 17  1  0
 17 18  2  0
 17 19  1  0
 19 20  2  0
 19 21  1  0
 21 22  1  0
 22 23  1  0
 23 24  2  0
 24 25  1  0
 25 26  2  0
 26 27  1  0
 26 28  1  0
 28 29  2  0
  6 30  1  0
 30 31  2  0
 31 32  1  0
 32 33  1  0
 31  3  1  0
 14 10  1  0
 29 23  1  0
  1 34  1  0
  1 35  1  0
  1 36  1  0
  4 37  1  0
  5 38  1  0
 11 39  1  0
 11 40  1  0
 12 41  1  0
 12 42  1  0
 14 43  1  0
 15 44  1  0
 15 45  1  0
 16 46  1  0
 21 47  1  0
 22 48  1  0
 22 49  1  0
 24 50  1  0
 25 51  1  0
 28 52  1  0
 29 53  1  0
 30 54  1  0
 33 55  1  0
 33 56  1  0
 33 57  1  0
M  END
$$$$
