
     RDKit          3D

 37 39  0  0  0  0  0  0  0  0999 V2000
    4.2381   -0.6469    0.3795 N   0  0  0  0  0  0  0  0  0  0  0  0
    3.4113    0.4139    0.9430 C   0  0  0  0  0  0  0  0  0  0  0  0
    1.9352    0.0253    1.0211 C   0  0  0  0  0  0  0  0  0  0  0  0
    1.2964   -0.1812   -0.3591 C   0  0  0  0  0  0  0  0  0  0  0  0
   -0.1588   -0.4489   -0.2577 N   0  0  0  0  0  0  0  0  0  0  0  0
   -0.5588   -1.8172   -0.1944 C   0  0  0  0  0  0  0  0  0  0  0  0
    0.3471   -2.8541    0.1291 C   0  0  0  0  0  0  0  0  0  0  0  0
   -0.0389   -4.1981    0.2069 C   0  0  0  0  0  0  0  0  0  0  0  0
   -1.3538   -4.5557   -0.0346 C   0  0  0  0  0  0  0  0  0  0  0  0
   -2.2759   -3.5650   -0.3500 C   0  0  0  0  0  0  0  0  0  0  0  0
   -1.8925   -2.2107   -0.4269 C   0  0  0  0  0  0  0  0  0  0  0  0
   -3.1878   -1.0783   -0.8706 S   0  0  0  0  0  0  0  0  0  0  0  0
   -2.4183    0.5000   -0.6043 C   0  0  0  0  0  0  0  0  0  0  0  0
   -3.2803    1.6112   -0.6856 C   0  0  0  0  0  0  0  0  0  0  0  0
   -2.8037    2.9069   -0.5168 C   0  0  0  0  0  0  0  0  0  0  0  0
   -1.4497    3.1140   -0.2673 C   0  0  0  0  0  0  0  0  0  0  0  0
   -0.9080    4.5046   -0.0478 C   0  0  0  0  0  0  0  0  0  0  0  0
    0.3742    4.6492   -0.4873 F   0  0  0  0  0  0  0  0  0  0  0  0
   -1.6284    5.4700   -0.6831 F   0  0  0  0  0  0  0  0  0  0  0  0
   -0.8916    4.8521    1.2681 F   0  0  0  0  0  0  0  0  0  0  0  0
   -0.5954    1.9959   -0.1810 C   0  0  0  0  0  0  0  0  0  0  0  0
   -1.0415    0.6649   -0.3557 C   0  0  0  0  0  0  0  0  0  0  0  0
    4.1058   -0.7049   -0.6296 H   0  0  0  0  0  0  0  0  0  0  0  0
    5.2225   -0.4091    0.5097 H   0  0  0  0  0  0  0  0  0  0  0  0
    3.7682    0.6275    1.9567 H   0  0  0  0  0  0  0  0  0  0  0  0
    3.5369    1.3311    0.3572 H   0  0  0  0  0  0  0  0  0  0  0  0
    1.4040    0.8131    1.5678 H   0  0  0  0  0  0  0  0  0  0  0  0
    1.8276   -0.8746    1.6375 H   0  0  0  0  0  0  0  0  0  0  0  0
    1.8009   -0.9860   -0.9081 H   0  0  0  0  0  0  0  0  0  0  0  0
    1.4897    0.6896   -0.9992 H   0  0  0  0  0  0  0  0  0  0  0  0
    1.3905   -2.6515    0.3507 H   0  0  0  0  0  0  0  0  0  0  0  0
    0.6958   -4.9576    0.4625 H   0  0  0  0  0  0  0  0  0  0  0  0
   -1.6631   -5.5953    0.0236 H   0  0  0  0  0  0  0  0  0  0  0  0
   -3.3078   -3.8541   -0.5396 H   0  0  0  0  0  0  0  0  0  0  0  0
   -4.3415    1.4666   -0.8832 H   0  0  0  0  0  0  0  0  0  0  0  0
   -3.4939    3.7462   -0.5800 H   0  0  0  0  0  0  0  0  0  0  0  0
    0.4456    2.2069    0.0485 H   0  0  0  0  0  0  0  0  0  0  0  0
  1  2  1  0
  2  3  1  0
  3  4  1  0
  4  5  1  0
  5  6  1  0
  6  7  2  0
  7  8  1  0
  8  9  2  0
  9 10  1  0
 10 11  2  0
 11 12  1  0
 12 13  1  0
 13 14  2  0
 14 15  1  0
 15 16  2  0
 16 17  1  0
 17 18  1  0
 17 19  1  0
 17 20  1  0
 16 21  1  0
 21 22  2  0
 22  5  1  0
 11  6  1  0
 22 13  1  0
  1 23  1  0
  1 24  1  0
  2 25  1  0
  2 26  1  0
  3 27  1  0
  3 28  1  0
  4 29  1  0
  4 30  1  0
  7 31  1  0
  8 32  1  0
  9 33  1  0
 10 34  1  0
 14 35  1  0
 15 36  1  0
 21 37  1  0
M  END
$$$$
