
     RDKit          3D

 57 59  0  0  0  0  0  0  0  0999 V2000
    8.5304   -4.2915   -2.5364 C   0  0  0  0  0  0  0  0  0  0  0  0
    7.7770   -4.4446   -1.3405 O   0  0  0  0  0  0  0  0  0  0  0  0
    7.2428   -3.3091   -0.7967 C   0  0  0  0  0  0  0  0  0  0  0  0
    7.3799   -2.0149   -1.2982 C   0  0  0  0  0  0  0  0  0  0  0  0
    6.7777   -0.9361   -0.6395 C   0  0  0  0  0  0  0  0  0  0  0  0
    6.0373   -1.1367    0.5330 C   0  0  0  0  0  0  0  0  0  0  0  0
    5.3676    0.0182    1.2298 C   0  0  0  0  0  0  0  0  0  0  0  0
    4.0189    0.1896    0.7582 N   0  0  0  0  0  0  0  0  0  0  0  0
    2.9365   -0.3511    1.4095 C   0  0  0  0  0  0  0  0  0  0  0  0
    2.9447   -0.9057    2.4996 O   0  0  0  0  0  0  0  0  0  0  0  0
    1.6134   -0.2091    0.6224 C   0  0  0  0  0  0  0  0  0  0  0  0
    1.5884    0.3970   -0.4392 O   0  0  0  0  0  0  0  0  0  0  0  0
    0.5348   -0.7960    1.2409 N   0  0  0  0  0  0  0  0  0  0  0  0
   -0.8214   -0.6131    0.7495 C   0  0  0  0  0  0  0  0  0  0  0  0
   -1.3620    0.8262    0.9655 C   0  0  0  0  0  0  0  0  0  0  0  0
   -1.1987    1.1814    2.3587 O   0  0  0  0  0  0  0  0  0  0  0  0
   -2.4134    0.7974    3.0057 C   0  0  0  0  0  0  0  0  0  0  0  0
   -3.4934    1.1009    1.9918 C   0  0  0  0  0  0  0  0  0  0  0  0
   -2.8015    1.0214    0.6961 N   0  0  0  0  0  0  0  0  0  0  0  0
   -3.5064    0.1562   -0.5510 S   0  0  0  0  0  6  0  0  0  0  0  0
   -3.8146   -1.1607   -0.0346 O   0  0  0  0  0  0  0  0  0  0  0  0
   -2.6977    0.3284   -1.7364 O   0  0  0  0  0  0  0  0  0  0  0  0
   -5.0266    1.0329   -0.8117 C   0  0  0  0  0  0  0  0  0  0  0  0
   -6.2471    0.4358   -0.4965 C   0  0  0  0  0  0  0  0  0  0  0  0
   -7.4284    1.1489   -0.7094 C   0  0  0  0  0  0  0  0  0  0  0  0
   -7.3982    2.4439   -1.2398 C   0  0  0  0  0  0  0  0  0  0  0  0
   -8.6274    3.0234   -1.3933 O   0  0  0  0  0  0  0  0  0  0  0  0
   -8.6602    4.3205   -1.9756 C   0  0  0  0  0  0  0  0  0  0  0  0
   -6.1701    3.0276   -1.5604 C   0  0  0  0  0  0  0  0  0  0  0  0
   -4.9814    2.3222   -1.3495 C   0  0  0  0  0  0  0  0  0  0  0  0
    5.8946   -2.4396    1.0251 C   0  0  0  0  0  0  0  0  0  0  0  0
    6.4968   -3.5135    0.3657 C   0  0  0  0  0  0  0  0  0  0  0  0
    8.8786   -5.2830   -2.8415 H   0  0  0  0  0  0  0  0  0  0  0  0
    7.9099   -3.8931   -3.3460 H   0  0  0  0  0  0  0  0  0  0  0  0
    9.4133   -3.6656   -2.3693 H   0  0  0  0  0  0  0  0  0  0  0  0
    7.9456   -1.8089   -2.2005 H   0  0  0  0  0  0  0  0  0  0  0  0
    6.8920    0.0641   -1.0519 H   0  0  0  0  0  0  0  0  0  0  0  0
    5.9080    0.9498    1.0288 H   0  0  0  0  0  0  0  0  0  0  0  0
    5.3764   -0.1348    2.3151 H   0  0  0  0  0  0  0  0  0  0  0  0
    3.8553    0.5144   -0.1903 H   0  0  0  0  0  0  0  0  0  0  0  0
    0.6883   -1.1105    2.1958 H   0  0  0  0  0  0  0  0  0  0  0  0
   -0.8252   -0.8724   -0.3137 H   0  0  0  0  0  0  0  0  0  0  0  0
   -1.4328   -1.3463    1.2853 H   0  0  0  0  0  0  0  0  0  0  0  0
   -0.7803    1.5460    0.3809 H   0  0  0  0  0  0  0  0  0  0  0  0
   -2.3675   -0.2713    3.2420 H   0  0  0  0  0  0  0  0  0  0  0  0
   -2.5379    1.3565    3.9369 H   0  0  0  0  0  0  0  0  0  0  0  0
   -3.8621    2.1249    2.1157 H   0  0  0  0  0  0  0  0  0  0  0  0
   -4.3380    0.4156    2.0969 H   0  0  0  0  0  0  0  0  0  0  0  0
   -6.2927   -0.5728   -0.0930 H   0  0  0  0  0  0  0  0  0  0  0  0
   -8.3851    0.6913   -0.4666 H   0  0  0  0  0  0  0  0  0  0  0  0
   -8.2472    4.3091   -2.9898 H   0  0  0  0  0  0  0  0  0  0  0  0
   -8.1405    5.0489   -1.3444 H   0  0  0  0  0  0  0  0  0  0  0  0
   -9.7077    4.6288   -2.0462 H   0  0  0  0  0  0  0  0  0  0  0  0
   -6.1027    4.0270   -1.9780 H   0  0  0  0  0  0  0  0  0  0  0  0
   -4.0273    2.7786   -1.6064 H   0  0  0  0  0  0  0  0  0  0  0  0
    5.3085   -2.6265    1.9234 H   0  0  0  0  0  0  0  0  0  0  0  0
    6.3793   -4.5200    0.7601 H   0  0  0  0  0  0  0  0  0  0  0  0
  1  2  1  0
  2  3  1  0
  3  4  2  0
  4  5  1  0
  5  6  2  0
  6  7  1  0
  7  8  1  0
  8  9  1  0
  9 10  2  0
  9 11  1  0
 11 12  2  0
 11 13  1  0
 13 14  1  0
 14 15  1  0
 15 16  1  0
 16 17  1  0
 17 18  1  0
 18 19  1  0
 19 20  1  0
 20 21  2  0
 20 22  2  0
 20 23  1  0
 23 24  2  0
 24 25  1  0
 25 26  2  0
 26 27  1  0
 27 28  1  0
 26 29  1  0
 29 30  2  0
  6 31  1  0
 31 32  2  0
 32  3  1  0
 19 15  1  0
 30 23  1  0
  1 33  1  0
  1 34  1  0
  1 35  1  0
  4 36  1  0
  5 37  1  0
  7 38  1  0
  7 39  1  0
  8 40  1  0
 13 41  1  0
 14 42  1  0
 14 43  1  0
 15 44  1  0
 17 45  1  0
 17 46  1  0
 18 47  1  0
 18 48  1  0
 24 49  1  0
 25 50  1  0
 28 51  1  0
 28 52  1  0
 28 53  1  0
 29 54  1  0
 30 55  1  0
 31 56  1  0
 32 57  1  0
M  END
$$$$
