
     RDKit          3D

 46 49  0  0  0  0  0  0  0  0999 V2000
    1.3947    2.2710    0.5454 O   0  0  0  0  0  0  0  0  0  0  0  0
    1.4447    1.0646    0.7659 C   0  0  0  0  0  0  0  0  0  0  0  0
    0.1998    0.2941    1.1650 C   0  0  0  0  0  0  0  0  0  0  0  0
   -0.3864   -0.3755    0.0214 N   0  0  0  0  0  0  0  0  0  0  0  0
   -1.1918    0.1951   -0.9440 C   0  0  0  0  0  0  0  0  0  0  0  0
   -1.6878    1.6080   -0.9183 C   0  0  0  0  0  0  0  0  0  0  0  0
   -2.3805    1.8519    0.3099 O   0  0  0  0  0  0  0  0  0  0  0  0
   -3.6849    1.4562    0.4238 C   0  0  0  0  0  0  0  0  0  0  0  0
   -4.4169    0.7319   -0.5181 C   0  0  0  0  0  0  0  0  0  0  0  0
   -5.7471    0.3830   -0.2578 C   0  0  0  0  0  0  0  0  0  0  0  0
   -6.3496    0.7519    0.9442 C   0  0  0  0  0  0  0  0  0  0  0  0
   -5.6228    1.4721    1.8907 C   0  0  0  0  0  0  0  0  0  0  0  0
   -4.2962    1.8215    1.6288 C   0  0  0  0  0  0  0  0  0  0  0  0
   -1.4610   -0.6792   -1.8961 N   0  0  0  0  0  0  0  0  0  0  0  0
   -0.8686   -1.8533   -1.5119 C   0  0  0  0  0  0  0  0  0  0  0  0
   -0.8649   -3.0986   -2.1556 C   0  0  0  0  0  0  0  0  0  0  0  0
   -0.1919   -4.1681   -1.5542 C   0  0  0  0  0  0  0  0  0  0  0  0
    0.4621   -4.0017   -0.3336 C   0  0  0  0  0  0  0  0  0  0  0  0
    0.4721   -2.7658    0.3220 C   0  0  0  0  0  0  0  0  0  0  0  0
   -0.2000   -1.7040   -0.3010 C   0  0  0  0  0  0  0  0  0  0  0  0
    2.5793    0.2753    0.6891 N   0  0  0  0  0  0  0  0  0  0  0  0
    3.8998    0.6672    0.3594 C   0  0  0  0  0  0  0  0  0  0  0  0
    4.2498    1.9708   -0.0029 C   0  0  0  0  0  0  0  0  0  0  0  0
    5.5805    2.2916   -0.3122 C   0  0  0  0  0  0  0  0  0  0  0  0
    5.9290    3.9263   -0.7552 Cl  0  0  0  0  0  0  0  0  0  0  0  0
    6.5743    1.3081   -0.2570 C   0  0  0  0  0  0  0  0  0  0  0  0
    8.2315    1.6385   -0.6182 Cl  0  0  0  0  0  0  0  0  0  0  0  0
    6.2396    0.0022    0.1027 C   0  0  0  0  0  0  0  0  0  0  0  0
    4.9128   -0.3125    0.4047 C   0  0  0  0  0  0  0  0  0  0  0  0
    4.5477   -1.9438    0.8587 Cl  0  0  0  0  0  0  0  0  0  0  0  0
   -0.5300    0.9717    1.6134 H   0  0  0  0  0  0  0  0  0  0  0  0
    0.4437   -0.4499    1.9311 H   0  0  0  0  0  0  0  0  0  0  0  0
   -2.3094    1.8482   -1.7884 H   0  0  0  0  0  0  0  0  0  0  0  0
   -0.8346    2.2919   -0.9552 H   0  0  0  0  0  0  0  0  0  0  0  0
   -3.9865    0.4099   -1.4623 H   0  0  0  0  0  0  0  0  0  0  0  0
   -6.3101   -0.1828   -0.9966 H   0  0  0  0  0  0  0  0  0  0  0  0
   -7.3828    0.4769    1.1426 H   0  0  0  0  0  0  0  0  0  0  0  0
   -6.0866    1.7624    2.8301 H   0  0  0  0  0  0  0  0  0  0  0  0
   -3.7342    2.3857    2.3708 H   0  0  0  0  0  0  0  0  0  0  0  0
   -1.3822   -3.2206   -3.1006 H   0  0  0  0  0  0  0  0  0  0  0  0
   -0.1864   -5.1378   -2.0435 H   0  0  0  0  0  0  0  0  0  0  0  0
    0.9695   -4.8502    0.1193 H   0  0  0  0  0  0  0  0  0  0  0  0
    0.9729   -2.6601    1.2775 H   0  0  0  0  0  0  0  0  0  0  0  0
    2.4733   -0.7191    0.8749 H   0  0  0  0  0  0  0  0  0  0  0  0
    3.5070    2.7605   -0.0600 H   0  0  0  0  0  0  0  0  0  0  0  0
    7.0095   -0.7653    0.1515 H   0  0  0  0  0  0  0  0  0  0  0  0
  1  2  2  0
  2  3  1  0
  3  4  1  0
  4  5  1  0
  5  6  1  0
  6  7  1  0
  7  8  1  0
  8  9  2  0
  9 10  1  0
 10 11  2  0
 11 12  1  0
 12 13  2  0
  5 14  2  0
 14 15  1  0
 15 16  2  0
 16 17  1  0
 17 18  2  0
 18 19  1  0
 19 20  2  0
  2 21  1  0
 21 22  1  0
 22 23  2  0
 23 24  1  0
 24 25  1  0
 24 26  2  0
 26 27  1  0
 26 28  1  0
 28 29  2  0
 29 30  1  0
 20  4  1  0
 29 22  1  0
 13  8  1  0
 20 15  1  0
  3 31  1  0
  3 32  1  0
  6 33  1  0
  6 34  1  0
  9 35  1  0
 10 36  1  0
 11 37  1  0
 12 38  1  0
 13 39  1  0
 16 40  1  0
 17 41  1  0
 18 42  1  0
 19 43  1  0
 21 44  1  0
 23 45  1  0
 28 46  1  0
M  END
$$$$
