
     RDKit          3D

 68 71  0  0  0  0  0  0  0  0999 V2000
   -2.2383   -5.9446    1.8050 C   0  0  0  0  0  0  0  0  0  0  0  0
   -2.1957   -4.6966    0.9749 C   0  0  0  0  0  0  0  0  0  0  0  0
   -3.2773   -3.8121    0.9650 C   0  0  0  0  0  0  0  0  0  0  0  0
   -3.2279   -2.6337    0.2123 C   0  0  0  0  0  0  0  0  0  0  0  0
   -2.0849   -2.2950   -0.5296 C   0  0  0  0  0  0  0  0  0  0  0  0
   -2.0312   -1.0432   -1.4080 C   0  0  0  0  0  0  0  0  0  0  0  0
   -3.1544   -0.0011   -1.1559 C   0  0  0  0  0  0  0  0  0  0  0  0
   -4.1289    0.0921   -1.9041 O   0  0  0  0  0  0  0  0  0  0  0  0
   -3.0172    0.7745   -0.0238 N   0  0  0  0  0  0  0  0  0  0  0  0
   -4.0201    1.7288    0.3934 C   0  0  0  0  0  0  0  0  0  0  0  0
   -3.7515    2.2661    1.8014 C   0  0  0  0  0  0  0  0  0  0  0  0
   -4.3061    3.6803    1.7699 C   0  0  0  0  0  0  0  0  0  0  0  0
   -3.8792    4.1745    0.3989 C   0  0  0  0  0  0  0  0  0  0  0  0
   -4.0786    2.9691   -0.5157 C   0  0  0  0  0  0  0  0  0  0  0  0
   -0.7038   -0.3784   -1.4802 N   0  0  0  0  0  0  0  0  0  0  0  0
   -0.2256   -0.0518   -2.8262 C   0  0  0  0  0  0  0  0  0  0  0  0
    0.3536   -1.2599   -3.4723 C   0  0  0  0  0  0  0  0  0  0  0  0
   -0.0978   -2.1180   -4.4547 C   0  0  0  0  0  0  0  0  0  0  0  0
    0.9182   -3.0881   -4.6357 C   0  0  0  0  0  0  0  0  0  0  0  0
    1.9241   -2.7592   -3.7590 C   0  0  0  0  0  0  0  0  0  0  0  0
    1.5910   -1.6517   -3.0486 O   0  0  0  0  0  0  0  0  0  0  0  0
   -0.0541    0.0170   -0.3199 C   0  0  0  0  0  0  0  0  0  0  0  0
   -0.5867   -0.0785    0.7892 O   0  0  0  0  0  0  0  0  0  0  0  0
    1.3290    0.6282   -0.4513 C   0  0  0  0  0  0  0  0  0  0  0  0
    2.0259    0.7270    0.9031 C   0  0  0  0  0  0  0  0  0  0  0  0
    3.3941    1.3671    0.7829 C   0  0  0  0  0  0  0  0  0  0  0  0
    3.7701    1.9228   -0.2443 O   0  0  0  0  0  0  0  0  0  0  0  0
    4.1131    1.2626    1.9515 N   0  0  0  0  0  0  0  0  0  0  0  0
    5.3843    1.7527    2.1500 C   0  0  0  0  0  0  0  0  0  0  0  0
    6.2165    2.4771    1.2679 C   0  0  0  0  0  0  0  0  0  0  0  0
    7.3646    2.7031    1.9846 C   0  0  0  0  0  0  0  0  0  0  0  0
    8.6375    3.3879    1.6993 C   0  0  0  0  0  0  0  0  0  0  0  0
    7.2353    2.1492    3.2195 O   0  0  0  0  0  0  0  0  0  0  0  0
    5.9868    1.5650    3.3292 N   0  0  0  0  0  0  0  0  0  0  0  0
   -1.0058   -3.1968   -0.5151 C   0  0  0  0  0  0  0  0  0  0  0  0
   -1.0548   -4.3744    0.2370 C   0  0  0  0  0  0  0  0  0  0  0  0
   -1.6564   -6.7461    1.3371 H   0  0  0  0  0  0  0  0  0  0  0  0
   -1.8294   -5.7462    2.8005 H   0  0  0  0  0  0  0  0  0  0  0  0
   -3.2649   -6.3101    1.9098 H   0  0  0  0  0  0  0  0  0  0  0  0
   -4.1746   -4.0364    1.5376 H   0  0  0  0  0  0  0  0  0  0  0  0
   -4.1065   -1.9922    0.2172 H   0  0  0  0  0  0  0  0  0  0  0  0
   -2.2431   -1.4265   -2.4170 H   0  0  0  0  0  0  0  0  0  0  0  0
   -2.2713    0.5091    0.6246 H   0  0  0  0  0  0  0  0  0  0  0  0
   -4.9931    1.2225    0.3686 H   0  0  0  0  0  0  0  0  0  0  0  0
   -2.6758    2.2952    2.0169 H   0  0  0  0  0  0  0  0  0  0  0  0
   -4.2262    1.6510    2.5724 H   0  0  0  0  0  0  0  0  0  0  0  0
   -3.9120    4.3023    2.5786 H   0  0  0  0  0  0  0  0  0  0  0  0
   -5.3995    3.6632    1.8471 H   0  0  0  0  0  0  0  0  0  0  0  0
   -4.4546    5.0445    0.0700 H   0  0  0  0  0  0  0  0  0  0  0  0
   -2.8195    4.4561    0.4157 H   0  0  0  0  0  0  0  0  0  0  0  0
   -3.3335    2.9606   -1.3185 H   0  0  0  0  0  0  0  0  0  0  0  0
   -5.0669    3.0250   -0.9881 H   0  0  0  0  0  0  0  0  0  0  0  0
   -1.0706    0.3343   -3.4087 H   0  0  0  0  0  0  0  0  0  0  0  0
    0.5208    0.7459   -2.8032 H   0  0  0  0  0  0  0  0  0  0  0  0
   -1.0447   -2.0538   -4.9736 H   0  0  0  0  0  0  0  0  0  0  0  0
    0.9189   -3.9235   -5.3211 H   0  0  0  0  0  0  0  0  0  0  0  0
    2.8901   -3.1892   -3.5308 H   0  0  0  0  0  0  0  0  0  0  0  0
    1.9427    0.0178   -1.1196 H   0  0  0  0  0  0  0  0  0  0  0  0
    1.2202    1.6288   -0.8853 H   0  0  0  0  0  0  0  0  0  0  0  0
    2.1351   -0.2744    1.3372 H   0  0  0  0  0  0  0  0  0  0  0  0
    1.4315    1.3335    1.5972 H   0  0  0  0  0  0  0  0  0  0  0  0
    3.7310    0.7746    2.7520 H   0  0  0  0  0  0  0  0  0  0  0  0
    6.0121    2.7971    0.2558 H   0  0  0  0  0  0  0  0  0  0  0  0
    8.9136    4.0507    2.5255 H   0  0  0  0  0  0  0  0  0  0  0  0
    8.5619    3.9949    0.7907 H   0  0  0  0  0  0  0  0  0  0  0  0
    9.4416    2.6587    1.5571 H   0  0  0  0  0  0  0  0  0  0  0  0
   -0.1060   -2.9896   -1.0896 H   0  0  0  0  0  0  0  0  0  0  0  0
   -0.1953   -5.0404    0.2357 H   0  0  0  0  0  0  0  0  0  0  0  0
  1  2  1  0
  2  3  2  0
  3  4  1  0
  4  5  2  0
  5  6  1  0
  6  7  1  0
  7  8  2  0
  7  9  1  0
  9 10  1  0
 10 11  1  0
 11 12  1  0
 12 13  1  0
 13 14  1  0
  6 15  1  0
 15 16  1  0
 16 17  1  0
 17 18  2  0
 18 19  1  0
 19 20  2  0
 20 21  1  0
 15 22  1  0
 22 23  2  0
 22 24  1  0
 24 25  1  0
 25 26  1  0
 26 27  2  0
 26 28  1  0
 28 29  1  0
 29 30  1  0
 30 31  2  0
 31 32  1  0
 31 33  1  0
 33 34  1  0
  5 35  1  0
 35 36  2  0
 36  2  1  0
 14 10  1  0
 21 17  1  0
 34 29  2  0
  1 37  1  0
  1 38  1  0
  1 39  1  0
  3 40  1  0
  4 41  1  0
  6 42  1  0
  9 43  1  0
 10 44  1  0
 11 45  1  0
 11 46  1  0
 12 47  1  0
 12 48  1  0
 13 49  1  0
 13 50  1  0
 14 51  1  0
 14 52  1  0
 16 53  1  0
 16 54  1  0
 18 55  1  0
 19 56  1  0
 20 57  1  0
 24 58  1  0
 24 59  1  0
 25 60  1  0
 25 61  1  0
 28 62  1  0
 30 63  1  0
 32 64  1  0
 32 65  1  0
 32 66  1  0
 35 67  1  0
 36 68  1  0
M  END
$$$$
