
     RDKit          3D

 43 43  0  0  0  0  0  0  0  0999 V2000
   -3.2691   -2.8971    1.7543 C   0  0  0  0  0  0  0  0  0  0  0  0
   -2.4327   -1.6593    1.6257 C   0  0  0  0  0  0  0  0  0  0  0  0
   -0.7290   -1.9590    1.6169 Cl  0  0  0  0  0  0  0  0  0  0  0  0
   -2.9416   -0.4180    1.5419 C   0  0  0  0  0  0  0  0  0  0  0  0
   -2.1779    0.8660    1.4384 C   0  0  0  0  0  0  0  0  0  0  0  0
   -2.5054    1.7297    0.2078 N   0  0  0  0  0  4  0  0  0  0  0  0
   -3.9252    2.2866    0.3049 C   0  0  0  0  0  0  0  0  0  0  0  0
   -1.5502    2.9251    0.1807 C   0  0  0  0  0  0  0  0  0  0  0  0
   -2.3991    0.9131   -1.1322 C   0  0  0  0  0  0  0  0  0  0  0  0
   -1.1725    0.0495   -1.4021 C   0  0  0  0  0  0  0  0  0  0  0  0
   -1.2266   -0.9808   -2.0600 O   0  0  0  0  0  0  0  0  0  0  0  0
   -0.0353    0.5854   -0.8909 O   0  0  0  0  0  0  0  0  0  0  0  0
    1.1604   -0.1751   -1.1574 C   0  0  0  0  0  0  0  0  0  0  0  0
    2.2823    0.3854   -0.2877 C   0  0  0  0  0  0  0  0  0  0  0  0
    3.5733   -0.3614   -0.4773 C   0  0  0  0  0  0  0  0  0  0  0  0
    3.8332   -1.5258    0.2585 C   0  0  0  0  0  0  0  0  0  0  0  0
    5.0223   -2.2310    0.0678 C   0  0  0  0  0  0  0  0  0  0  0  0
    5.9591   -1.7821   -0.8605 C   0  0  0  0  0  0  0  0  0  0  0  0
    5.7081   -0.6283   -1.6002 C   0  0  0  0  0  0  0  0  0  0  0  0
    4.5197    0.0790   -1.4120 C   0  0  0  0  0  0  0  0  0  0  0  0
   -4.3395   -2.6658    1.7637 H   0  0  0  0  0  0  0  0  0  0  0  0
   -3.0359   -3.4247    2.6851 H   0  0  0  0  0  0  0  0  0  0  0  0
   -3.0844   -3.5741    0.9136 H   0  0  0  0  0  0  0  0  0  0  0  0
   -4.0235   -0.3236    1.6056 H   0  0  0  0  0  0  0  0  0  0  0  0
   -2.4031    1.4840    2.3167 H   0  0  0  0  0  0  0  0  0  0  0  0
   -1.0957    0.7121    1.4361 H   0  0  0  0  0  0  0  0  0  0  0  0
   -4.0902    2.9562   -0.5448 H   0  0  0  0  0  0  0  0  0  0  0  0
   -4.0220    2.8348    1.2467 H   0  0  0  0  0  0  0  0  0  0  0  0
   -4.6381    1.4588    0.2696 H   0  0  0  0  0  0  0  0  0  0  0  0
   -1.7652    3.5527    1.0514 H   0  0  0  0  0  0  0  0  0  0  0  0
   -0.5176    2.5787    0.2345 H   0  0  0  0  0  0  0  0  0  0  0  0
   -1.7226    3.4869   -0.7418 H   0  0  0  0  0  0  0  0  0  0  0  0
   -3.2720    0.2502   -1.1442 H   0  0  0  0  0  0  0  0  0  0  0  0
   -2.5011    1.6376   -1.9476 H   0  0  0  0  0  0  0  0  0  0  0  0
    0.9946   -1.2343   -0.9272 H   0  0  0  0  0  0  0  0  0  0  0  0
    1.4100   -0.0754   -2.2204 H   0  0  0  0  0  0  0  0  0  0  0  0
    2.4242    1.4519   -0.5058 H   0  0  0  0  0  0  0  0  0  0  0  0
    1.9848    0.3556    0.7688 H   0  0  0  0  0  0  0  0  0  0  0  0
    3.1140   -1.8948    0.9864 H   0  0  0  0  0  0  0  0  0  0  0  0
    5.2196   -3.1324    0.6430 H   0  0  0  0  0  0  0  0  0  0  0  0
    6.8855   -2.3321   -1.0080 H   0  0  0  0  0  0  0  0  0  0  0  0
    6.4406   -0.2805   -2.3247 H   0  0  0  0  0  0  0  0  0  0  0  0
    4.3436    0.9760   -2.0010 H   0  0  0  0  0  0  0  0  0  0  0  0
  1  2  1  0
  2  3  1  0
  2  4  2  3
  4  5  1  0
  5  6  1  0
  6  7  1  0
  6  8  1  0
  6  9  1  0
  9 10  1  0
 10 11  2  0
 10 12  1  0
 12 13  1  0
 13 14  1  0
 14 15  1  0
 15 16  2  0
 16 17  1  0
 17 18  2  0
 18 19  1  0
 19 20  2  0
 20 15  1  0
  1 21  1  0
  1 22  1  0
  1 23  1  0
  4 24  1  0
  5 25  1  0
  5 26  1  0
  7 27  1  0
  7 28  1  0
  7 29  1  0
  8 30  1  0
  8 31  1  0
  8 32  1  0
  9 33  1  0
  9 34  1  0
 13 35  1  0
 13 36  1  0
 14 37  1  0
 14 38  1  0
 16 39  1  0
 17 40  1  0
 18 41  1  0
 19 42  1  0
 20 43  1  0
M  CHG  1   6   1
M  END
$$$$
