
     RDKit          3D

 52 51  0  0  0  0  0  0  0  0999 V2000
   -7.6440   -0.2632    0.9829 C   0  0  0  0  0  0  0  0  0  0  0  0
   -6.5958   -0.1127    0.4153 C   0  0  0  0  0  0  0  0  0  0  0  0
   -5.3217    0.0563   -0.2908 C   0  0  0  0  0  0  0  0  0  0  0  0
   -4.3488    0.9738    0.4727 N   0  0  0  0  0  4  0  0  0  0  0  0
   -5.0070    2.3399    0.7116 C   0  0  0  0  0  0  0  0  0  0  0  0
   -3.9898    0.3684    1.8260 C   0  0  0  0  0  0  0  0  0  0  0  0
   -3.0817    1.2312   -0.3704 C   0  0  0  0  0  0  0  0  0  0  0  0
   -2.2710   -0.0292   -0.6821 C   0  0  0  0  0  0  0  0  0  0  0  0
   -1.0117    0.3299   -1.4791 C   0  0  0  0  0  0  0  0  0  0  0  0
   -0.2005   -0.8922   -1.9202 C   0  0  0  0  0  0  0  0  0  0  0  0
    0.3252   -1.7853   -0.7916 C   0  0  0  0  0  0  0  0  0  0  0  0
    1.1801   -1.0840    0.2681 C   0  0  0  0  0  0  0  0  0  0  0  0
    2.4447   -0.4368   -0.3021 C   0  0  0  0  0  0  0  0  0  0  0  0
    3.3129    0.1520    0.8127 C   0  0  0  0  0  0  0  0  0  0  0  0
    4.5370    0.9120    0.2934 C   0  0  0  0  0  0  0  0  0  0  0  0
    5.5245    0.0909   -0.5423 C   0  0  0  0  0  0  0  0  0  0  0  0
    6.0888   -1.1582    0.1383 C   0  0  0  0  0  0  0  0  0  0  0  0
    6.8592   -0.8576    1.4145 C   0  0  0  0  0  0  0  0  0  0  0  0
   -8.5801   -0.4064    1.4767 H   0  0  0  0  0  0  0  0  0  0  0  0
   -4.8347   -0.9160   -0.4099 H   0  0  0  0  0  0  0  0  0  0  0  0
   -5.4765    0.5017   -1.2797 H   0  0  0  0  0  0  0  0  0  0  0  0
   -4.2686    2.9987    1.1793 H   0  0  0  0  0  0  0  0  0  0  0  0
   -5.8631    2.2204    1.3808 H   0  0  0  0  0  0  0  0  0  0  0  0
   -5.3230    2.7447   -0.2544 H   0  0  0  0  0  0  0  0  0  0  0  0
   -4.8699    0.3948    2.4749 H   0  0  0  0  0  0  0  0  0  0  0  0
   -3.1863    0.9652    2.2676 H   0  0  0  0  0  0  0  0  0  0  0  0
   -3.6679   -0.6658    1.6789 H   0  0  0  0  0  0  0  0  0  0  0  0
   -3.4110    1.7156   -1.2977 H   0  0  0  0  0  0  0  0  0  0  0  0
   -2.4675    1.9450    0.1921 H   0  0  0  0  0  0  0  0  0  0  0  0
   -2.8648   -0.7362   -1.2698 H   0  0  0  0  0  0  0  0  0  0  0  0
   -1.9787   -0.5295    0.2453 H   0  0  0  0  0  0  0  0  0  0  0  0
   -1.3050    0.8841   -2.3798 H   0  0  0  0  0  0  0  0  0  0  0  0
   -0.3813    1.0085   -0.8930 H   0  0  0  0  0  0  0  0  0  0  0  0
   -0.8215   -1.5078   -2.5834 H   0  0  0  0  0  0  0  0  0  0  0  0
    0.6414   -0.5491   -2.5333 H   0  0  0  0  0  0  0  0  0  0  0  0
    0.9139   -2.5950   -1.2413 H   0  0  0  0  0  0  0  0  0  0  0  0
   -0.5197   -2.2733   -0.2914 H   0  0  0  0  0  0  0  0  0  0  0  0
    0.5828   -0.3326    0.7970 H   0  0  0  0  0  0  0  0  0  0  0  0
    1.4686   -1.8308    1.0187 H   0  0  0  0  0  0  0  0  0  0  0  0
    3.0110   -1.1898   -0.8614 H   0  0  0  0  0  0  0  0  0  0  0  0
    2.1754    0.3597   -1.0045 H   0  0  0  0  0  0  0  0  0  0  0  0
    2.7079    0.8498    1.4055 H   0  0  0  0  0  0  0  0  0  0  0  0
    3.6264   -0.6423    1.4997 H   0  0  0  0  0  0  0  0  0  0  0  0
    5.0635    1.3515    1.1490 H   0  0  0  0  0  0  0  0  0  0  0  0
    4.1948    1.7592   -0.3147 H   0  0  0  0  0  0  0  0  0  0  0  0
    6.3583    0.7450   -0.8274 H   0  0  0  0  0  0  0  0  0  0  0  0
    5.0452   -0.2086   -1.4819 H   0  0  0  0  0  0  0  0  0  0  0  0
    6.7649   -1.6577   -0.5661 H   0  0  0  0  0  0  0  0  0  0  0  0
    5.2866   -1.8721    0.3541 H   0  0  0  0  0  0  0  0  0  0  0  0
    6.2037   -0.4597    2.1947 H   0  0  0  0  0  0  0  0  0  0  0  0
    7.3166   -1.7738    1.8016 H   0  0  0  0  0  0  0  0  0  0  0  0
    7.6580   -0.1325    1.2297 H   0  0  0  0  0  0  0  0  0  0  0  0
  1  2  3  0
  2  3  1  0
  3  4  1  0
  4  5  1  0
  4  6  1  0
  4  7  1  0
  7  8  1  0
  8  9  1  0
  9 10  1  0
 10 11  1  0
 11 12  1  0
 12 13  1  0
 13 14  1  0
 14 15  1  0
 15 16  1  0
 16 17  1  0
 17 18  1  0
  1 19  1  0
  3 20  1  0
  3 21  1  0
  5 22  1  0
  5 23  1  0
  5 24  1  0
  6 25  1  0
  6 26  1  0
  6 27  1  0
  7 28  1  0
  7 29  1  0
  8 30  1  0
  8 31  1  0
  9 32  1  0
  9 33  1  0
 10 34  1  0
 10 35  1  0
 11 36  1  0
 11 37  1  0
 12 38  1  0
 12 39  1  0
 13 40  1  0
 13 41  1  0
 14 42  1  0
 14 43  1  0
 15 44  1  0
 15 45  1  0
 16 46  1  0
 16 47  1  0
 17 48  1  0
 17 49  1  0
 18 50  1  0
 18 51  1  0
 18 52  1  0
M  CHG  1   4   1
M  END
$$$$
