
     RDKit          3D

 48 49  0  0  0  0  0  0  0  0999 V2000
   -7.2034   -0.6655   -0.0887 C   0  0  0  0  0  0  0  0  0  0  0  0
   -6.3513    0.4713   -0.6346 C   0  0  0  0  0  0  0  0  0  0  0  0
   -4.9212    0.2581   -0.4069 N   0  0  0  0  0  0  0  0  0  0  0  0
   -4.2004   -0.5712   -1.3804 C   0  0  0  0  0  0  0  0  0  0  0  0
   -3.8716    0.1829   -2.6598 C   0  0  0  0  0  0  0  0  0  0  0  0
   -4.4118    0.6367    0.8390 C   0  0  0  0  0  0  0  0  0  0  0  0
   -5.1030    1.0938    1.7471 O   0  0  0  0  0  0  0  0  0  0  0  0
   -2.9682    0.4795    1.1110 C   0  0  0  0  0  0  0  0  0  0  0  0
   -2.5671   -0.3219    2.1805 C   0  0  0  0  0  0  0  0  0  0  0  0
   -1.2065   -0.4606    2.4699 C   0  0  0  0  0  0  0  0  0  0  0  0
   -0.2392    0.2064    1.7034 C   0  0  0  0  0  0  0  0  0  0  0  0
    1.1107    0.0091    2.0637 N   0  0  0  0  0  0  0  0  0  0  0  0
    2.2372    0.5346    1.4416 C   0  0  0  0  0  0  0  0  0  0  0  0
    2.2439    1.2436    0.4410 O   0  0  0  0  0  0  0  0  0  0  0  0
    3.5353    0.0884    2.1386 C   0  0  0  0  0  0  0  0  0  0  0  0
    4.7304    0.7208    1.7162 O   0  0  0  0  0  0  0  0  0  0  0  0
    5.3772    0.2596    0.6015 C   0  0  0  0  0  0  0  0  0  0  0  0
    4.8244   -0.6262   -0.3299 C   0  0  0  0  0  0  0  0  0  0  0  0
    5.5595   -1.0295   -1.4510 C   0  0  0  0  0  0  0  0  0  0  0  0
    6.8570   -0.5409   -1.6454 C   0  0  0  0  0  0  0  0  0  0  0  0
    7.6266   -0.9663   -2.8205 N   0  0  0  0  0  4  0  0  0  0  0  0
    7.1000   -1.7851   -3.5870 O   0  0  0  0  0  0  0  0  0  0  0  0
    8.7584   -0.4866   -2.9724 O   0  0  0  0  0  1  0  0  0  0  0  0
    7.4246    0.3490   -0.7299 C   0  0  0  0  0  0  0  0  0  0  0  0
    6.6807    0.7452    0.3848 C   0  0  0  0  0  0  0  0  0  0  0  0
    7.4247    1.8421    1.4978 Cl  0  0  0  0  0  0  0  0  0  0  0  0
   -0.6567    1.0270    0.6516 C   0  0  0  0  0  0  0  0  0  0  0  0
   -2.0181    1.1730    0.3605 C   0  0  0  0  0  0  0  0  0  0  0  0
   -8.2642   -0.4599   -0.2622 H   0  0  0  0  0  0  0  0  0  0  0  0
   -6.9578   -1.6148   -0.5747 H   0  0  0  0  0  0  0  0  0  0  0  0
   -7.0525   -0.7941    0.9879 H   0  0  0  0  0  0  0  0  0  0  0  0
   -6.5293    0.5964   -1.7072 H   0  0  0  0  0  0  0  0  0  0  0  0
   -6.6524    1.4073   -0.1499 H   0  0  0  0  0  0  0  0  0  0  0  0
   -4.8231   -1.4420   -1.6132 H   0  0  0  0  0  0  0  0  0  0  0  0
   -3.2787   -0.9657   -0.9448 H   0  0  0  0  0  0  0  0  0  0  0  0
   -3.2985   -0.4570   -3.3380 H   0  0  0  0  0  0  0  0  0  0  0  0
   -3.2809    1.0802   -2.4555 H   0  0  0  0  0  0  0  0  0  0  0  0
   -4.7792    0.4972   -3.1840 H   0  0  0  0  0  0  0  0  0  0  0  0
   -3.3118   -0.8295    2.7894 H   0  0  0  0  0  0  0  0  0  0  0  0
   -0.9205   -1.0925    3.3069 H   0  0  0  0  0  0  0  0  0  0  0  0
    1.2648   -0.5769    2.8754 H   0  0  0  0  0  0  0  0  0  0  0  0
    3.6239   -1.0042    2.0884 H   0  0  0  0  0  0  0  0  0  0  0  0
    3.4236    0.3394    3.2006 H   0  0  0  0  0  0  0  0  0  0  0  0
    3.8116   -1.0046   -0.2326 H   0  0  0  0  0  0  0  0  0  0  0  0
    5.1009   -1.7128   -2.1642 H   0  0  0  0  0  0  0  0  0  0  0  0
    8.4306    0.7377   -0.8717 H   0  0  0  0  0  0  0  0  0  0  0  0
    0.0493    1.5862    0.0453 H   0  0  0  0  0  0  0  0  0  0  0  0
   -2.3279    1.8423   -0.4372 H   0  0  0  0  0  0  0  0  0  0  0  0
  1  2  1  0
  2  3  1  0
  3  4  1  0
  4  5  1  0
  3  6  1  0
  6  7  2  0
  6  8  1  0
  8  9  2  0
  9 10  1  0
 10 11  2  0
 11 12  1  0
 12 13  1  0
 13 14  2  0
 13 15  1  0
 15 16  1  0
 16 17  1  0
 17 18  2  0
 18 19  1  0
 19 20  2  0
 20 21  1  0
 21 22  2  0
 21 23  1  0
 20 24  1  0
 24 25  2  0
 25 26  1  0
 11 27  1  0
 27 28  2  0
 28  8  1  0
 25 17  1  0
  1 29  1  0
  1 30  1  0
  1 31  1  0
  2 32  1  0
  2 33  1  0
  4 34  1  0
  4 35  1  0
  5 36  1  0
  5 37  1  0
  5 38  1  0
  9 39  1  0
 10 40  1  0
 12 41  1  0
 15 42  1  0
 15 43  1  0
 18 44  1  0
 19 45  1  0
 24 46  1  0
 27 47  1  0
 28 48  1  0
M  CHG  2  21   1  23  -1
M  END
$$$$
