
     RDKit          3D

 60 63  0  0  0  0  0  0  0  0999 V2000
    9.1974   -3.6837   -1.1855 C   0  0  0  0  0  0  0  0  0  0  0  0
    8.6286   -2.4528   -0.4998 C   0  0  0  0  0  0  0  0  0  0  0  0
    7.3596   -2.1706   -1.0875 O   0  0  0  0  0  0  0  0  0  0  0  0
    6.6810   -1.0805   -0.6134 C   0  0  0  0  0  0  0  0  0  0  0  0
    7.1081   -0.2206    0.3994 C   0  0  0  0  0  0  0  0  0  0  0  0
    6.3096    0.8631    0.7900 C   0  0  0  0  0  0  0  0  0  0  0  0
    5.0783    1.1058    0.1668 C   0  0  0  0  0  0  0  0  0  0  0  0
    4.2052    2.2587    0.5959 C   0  0  0  0  0  0  0  0  0  0  0  0
    3.1770    1.8066    1.5069 N   0  0  0  0  0  0  0  0  0  0  0  0
    1.8989    1.5141    1.0612 C   0  0  0  0  0  0  0  0  0  0  0  0
    1.5278    1.7403   -0.0880 O   0  0  0  0  0  0  0  0  0  0  0  0
    1.0081    0.9094    2.1492 C   0  0  0  0  0  0  0  0  0  0  0  0
   -0.2619    0.4704    1.5964 N   0  0  0  0  0  0  0  0  0  0  0  0
   -0.2990   -0.8398    1.1021 N   0  0  0  0  0  0  0  0  0  0  0  0
   -1.3535   -1.2897    0.4812 C   0  0  0  0  0  0  0  0  0  0  0  0
   -1.3285   -2.7017   -0.0325 C   0  0  0  0  0  0  0  0  0  0  0  0
   -2.4993   -0.4287    0.3101 C   0  0  0  0  0  0  0  0  0  0  0  0
   -3.7215   -0.5622   -0.3290 C   0  0  0  0  0  0  0  0  0  0  0  0
   -4.2183   -1.6492   -1.2114 C   0  0  0  0  0  0  0  0  0  0  0  0
   -4.4270    0.6114   -0.0312 N   0  0  0  0  0  0  0  0  0  0  0  0
   -5.7992    0.9559   -0.2468 C   0  0  0  0  0  0  0  0  0  0  0  0
   -6.7864   -0.0019   -0.5000 C   0  0  0  0  0  0  0  0  0  0  0  0
   -8.1180    0.3870   -0.7020 C   0  0  0  0  0  0  0  0  0  0  0  0
   -8.4864    1.7356   -0.6518 C   0  0  0  0  0  0  0  0  0  0  0  0
   -9.9181    2.1439   -0.8370 C   0  0  0  0  0  0  0  0  0  0  0  0
   -7.5112    2.6893   -0.3520 C   0  0  0  0  0  0  0  0  0  0  0  0
   -6.1817    2.3047   -0.1505 C   0  0  0  0  0  0  0  0  0  0  0  0
   -3.6164    1.5263    0.5674 N   0  0  0  0  0  0  0  0  0  0  0  0
   -2.4769    0.8764    0.8129 C   0  0  0  0  0  0  0  0  0  0  0  0
   -1.3051    1.4115    1.4933 C   0  0  0  0  0  0  0  0  0  0  0  0
   -1.2356    2.5523    1.9458 O   0  0  0  0  0  0  0  0  0  0  0  0
    4.6523    0.2342   -0.8442 C   0  0  0  0  0  0  0  0  0  0  0  0
    5.4496   -0.8470   -1.2299 C   0  0  0  0  0  0  0  0  0  0  0  0
    8.5296   -4.5426   -1.0529 H   0  0  0  0  0  0  0  0  0  0  0  0
   10.1811   -3.9364   -0.7790 H   0  0  0  0  0  0  0  0  0  0  0  0
    9.2907   -3.5169   -2.2647 H   0  0  0  0  0  0  0  0  0  0  0  0
    8.5147   -2.6615    0.5711 H   0  0  0  0  0  0  0  0  0  0  0  0
    9.3136   -1.6096   -0.6494 H   0  0  0  0  0  0  0  0  0  0  0  0
    8.0572   -0.3623    0.9069 H   0  0  0  0  0  0  0  0  0  0  0  0
    6.6626    1.5192    1.5835 H   0  0  0  0  0  0  0  0  0  0  0  0
    4.7989    3.0121    1.1265 H   0  0  0  0  0  0  0  0  0  0  0  0
    3.7669    2.7495   -0.2815 H   0  0  0  0  0  0  0  0  0  0  0  0
    3.4801    1.4373    2.3978 H   0  0  0  0  0  0  0  0  0  0  0  0
    0.8429    1.6659    2.9234 H   0  0  0  0  0  0  0  0  0  0  0  0
    1.5140    0.0484    2.5984 H   0  0  0  0  0  0  0  0  0  0  0  0
   -2.2399   -3.2287    0.2636 H   0  0  0  0  0  0  0  0  0  0  0  0
   -1.2441   -2.6914   -1.1233 H   0  0  0  0  0  0  0  0  0  0  0  0
   -0.4676   -3.2397    0.3765 H   0  0  0  0  0  0  0  0  0  0  0  0
   -4.7348   -2.4179   -0.6282 H   0  0  0  0  0  0  0  0  0  0  0  0
   -3.3924   -2.1304   -1.7439 H   0  0  0  0  0  0  0  0  0  0  0  0
   -4.8830   -1.2706   -1.9938 H   0  0  0  0  0  0  0  0  0  0  0  0
   -6.5785   -1.0642   -0.5059 H   0  0  0  0  0  0  0  0  0  0  0  0
   -8.8689   -0.3761   -0.8925 H   0  0  0  0  0  0  0  0  0  0  0  0
   -9.9848    3.1537   -1.2654 H   0  0  0  0  0  0  0  0  0  0  0  0
  -10.4304    1.4620   -1.5283 H   0  0  0  0  0  0  0  0  0  0  0  0
  -10.4396    2.1319    0.1286 H   0  0  0  0  0  0  0  0  0  0  0  0
   -7.7760    3.7407   -0.2673 H   0  0  0  0  0  0  0  0  0  0  0  0
   -5.4488    3.0783    0.0742 H   0  0  0  0  0  0  0  0  0  0  0  0
    3.6929    0.3930   -1.3357 H   0  0  0  0  0  0  0  0  0  0  0  0
    5.1065   -1.5125   -2.0186 H   0  0  0  0  0  0  0  0  0  0  0  0
  1  2  1  0
  2  3  1  0
  3  4  1  0
  4  5  2  0
  5  6  1  0
  6  7  2  0
  7  8  1  0
  8  9  1  0
  9 10  1  0
 10 11  2  0
 10 12  1  0
 12 13  1  0
 13 14  1  0
 14 15  2  0
 15 16  1  0
 15 17  1  0
 17 18  2  0
 18 19  1  0
 18 20  1  0
 20 21  1  0
 21 22  2  0
 22 23  1  0
 23 24  2  0
 24 25  1  0
 24 26  1  0
 26 27  2  0
 20 28  1  0
 28 29  2  0
 29 30  1  0
 30 31  2  0
  7 32  1  0
 32 33  2  0
 33  4  1  0
 30 13  1  0
 29 17  1  0
 27 21  1  0
  1 34  1  0
  1 35  1  0
  1 36  1  0
  2 37  1  0
  2 38  1  0
  5 39  1  0
  6 40  1  0
  8 41  1  0
  8 42  1  0
  9 43  1  0
 12 44  1  0
 12 45  1  0
 16 46  1  0
 16 47  1  0
 16 48  1  0
 19 49  1  0
 19 50  1  0
 19 51  1  0
 22 52  1  0
 23 53  1  0
 25 54  1  0
 25 55  1  0
 25 56  1  0
 26 57  1  0
 27 58  1  0
 32 59  1  0
 33 60  1  0
M  END
$$$$
