
     RDKit          3D

 41 42  0  0  0  0  0  0  0  0999 V2000
    1.5751    4.7046    1.7299 C   0  0  0  0  0  0  0  0  0  0  0  0
    1.8793    4.1135    0.3663 C   0  0  0  0  0  0  0  0  0  0  0  0
    1.8393    2.6785    0.4308 O   0  0  0  0  0  0  0  0  0  0  0  0
    0.6027    2.1038    0.2836 C   0  0  0  0  0  0  0  0  0  0  0  0
   -0.4218    2.7334    0.0459 O   0  0  0  0  0  0  0  0  0  0  0  0
    0.7148    0.5560    0.3916 C   0  0  0  0  0  0  0  0  0  0  0  0
   -0.4560   -0.0373   -0.2529 N   0  0  0  0  0  0  0  0  0  0  0  0
   -1.6686   -0.1168    0.3816 C   0  0  0  0  0  0  0  0  0  0  0  0
   -1.8162    0.1566    1.5635 O   0  0  0  0  0  0  0  0  0  0  0  0
   -2.8295   -0.5339   -0.4488 C   0  0  0  0  0  0  0  0  0  0  0  0
   -2.6786   -1.3505   -1.5788 C   0  0  0  0  0  0  0  0  0  0  0  0
   -3.7985   -1.7215   -2.3267 C   0  0  0  0  0  0  0  0  0  0  0  0
   -5.0677   -1.2848   -1.9455 C   0  0  0  0  0  0  0  0  0  0  0  0
   -5.2161   -0.4845   -0.8131 C   0  0  0  0  0  0  0  0  0  0  0  0
   -6.7853    0.0431   -0.3446 Cl  0  0  0  0  0  0  0  0  0  0  0  0
   -4.1059   -0.1099   -0.0602 C   0  0  0  0  0  0  0  0  0  0  0  0
    1.8290    0.1242   -0.5159 N   0  0  0  0  0  0  0  0  0  0  0  0
    2.3824   -1.1125   -0.3657 C   0  0  0  0  0  0  0  0  0  0  0  0
    3.6832   -1.2830   -0.2708 N   0  0  0  0  0  0  0  0  0  0  0  0
    4.0483   -2.6055   -0.1357 N   0  0  0  0  0  0  0  0  0  0  0  0
    3.0078   -3.4079   -0.1615 C   0  0  0  0  0  0  0  0  0  0  0  0
    3.0681   -4.8849   -0.0360 C   0  0  0  0  0  0  0  0  0  0  0  0
    1.5096   -2.6003   -0.3664 S   0  0  0  0  0  0  0  0  0  0  0  0
    0.9775    0.3171    1.9201 C   0  0  0  0  0  0  0  0  0  0  0  0
    0.7312   -0.9638    2.2902 F   0  0  0  0  0  0  0  0  0  0  0  0
    2.2888    0.5473    2.2139 F   0  0  0  0  0  0  0  0  0  0  0  0
    0.2717    1.1308    2.7358 F   0  0  0  0  0  0  0  0  0  0  0  0
    0.5643    4.4405    2.0565 H   0  0  0  0  0  0  0  0  0  0  0  0
    2.2656    4.3097    2.4824 H   0  0  0  0  0  0  0  0  0  0  0  0
    1.6616    5.7946    1.7083 H   0  0  0  0  0  0  0  0  0  0  0  0
    2.8939    4.3907    0.0623 H   0  0  0  0  0  0  0  0  0  0  0  0
    1.1969    4.4961   -0.4010 H   0  0  0  0  0  0  0  0  0  0  0  0
   -0.4346   -0.0039   -1.2607 H   0  0  0  0  0  0  0  0  0  0  0  0
   -1.7043   -1.7285   -1.8761 H   0  0  0  0  0  0  0  0  0  0  0  0
   -3.6847   -2.3578   -3.2016 H   0  0  0  0  0  0  0  0  0  0  0  0
   -5.9373   -1.5770   -2.5291 H   0  0  0  0  0  0  0  0  0  0  0  0
   -4.2290    0.5127    0.8237 H   0  0  0  0  0  0  0  0  0  0  0  0
    2.5761    0.8229   -0.4565 H   0  0  0  0  0  0  0  0  0  0  0  0
    2.4975   -5.2259    0.8337 H   0  0  0  0  0  0  0  0  0  0  0  0
    2.6660   -5.3689   -0.9317 H   0  0  0  0  0  0  0  0  0  0  0  0
    4.1036   -5.2170    0.0897 H   0  0  0  0  0  0  0  0  0  0  0  0
  1  2  1  0
  2  3  1  0
  3  4  1  0
  4  5  2  0
  4  6  1  0
  6  7  1  0
  7  8  1  0
  8  9  2  0
  8 10  1  0
 10 11  2  0
 11 12  1  0
 12 13  2  0
 13 14  1  0
 14 15  1  0
 14 16  2  0
  6 17  1  0
 17 18  1  0
 18 19  2  0
 19 20  1  0
 20 21  2  0
 21 22  1  0
 21 23  1  0
  6 24  1  0
 24 25  1  0
 24 26  1  0
 24 27  1  0
 16 10  1  0
 23 18  1  0
  1 28  1  0
  1 29  1  0
  1 30  1  0
  2 31  1  0
  2 32  1  0
  7 33  1  0
 11 34  1  0
 12 35  1  0
 13 36  1  0
 16 37  1  0
 17 38  1  0
 22 39  1  0
 22 40  1  0
 22 41  1  0
M  END
$$$$
