
     RDKit          3D

 36 38  0  0  0  0  0  0  0  0999 V2000
   -5.1391   -0.7357   -0.9469 C   0  0  0  0  0  0  0  0  0  0  0  0
   -4.0234    0.1487   -0.4663 C   0  0  0  0  0  0  0  0  0  0  0  0
   -4.3194    1.3347    0.2297 C   0  0  0  0  0  0  0  0  0  0  0  0
   -3.2984    2.1519    0.7157 C   0  0  0  0  0  0  0  0  0  0  0  0
   -1.9845    1.7643    0.5049 C   0  0  0  0  0  0  0  0  0  0  0  0
   -1.6569    0.5788   -0.1847 C   0  0  0  0  0  0  0  0  0  0  0  0
   -2.6845   -0.2343   -0.6590 C   0  0  0  0  0  0  0  0  0  0  0  0
   -0.2518    0.3245   -0.2950 N   0  0  0  0  0  0  0  0  0  0  0  0
    0.1153   -0.2164   -1.6081 C   0  0  0  0  0  0  0  0  0  0  0  0
    0.4659    1.3487    0.3449 C   0  0  0  0  0  0  0  0  0  0  0  0
    1.7821    1.4083    0.6180 C   0  0  0  0  0  0  0  0  0  0  0  0
    2.7583    0.3537    0.3515 C   0  0  0  0  0  0  0  0  0  0  0  0
    3.7936    0.6077   -0.5576 C   0  0  0  0  0  0  0  0  0  0  0  0
    4.7262   -0.3796   -0.8462 C   0  0  0  0  0  0  0  0  0  0  0  0
    4.6190   -1.6112   -0.2212 C   0  0  0  0  0  0  0  0  0  0  0  0
    3.5920   -1.8272    0.6885 C   0  0  0  0  0  0  0  0  0  0  0  0
    2.6917   -0.8561    0.9764 N   0  0  0  0  0  4  0  0  0  0  0  0
    1.6549   -1.1511    1.9906 C   0  0  0  0  0  0  0  0  0  0  0  0
   -0.5342    2.6626    1.0177 S   0  0  0  0  0  0  0  0  0  0  0  0
   -5.4075   -1.4551   -0.1673 H   0  0  0  0  0  0  0  0  0  0  0  0
   -6.0238   -0.1436   -1.2036 H   0  0  0  0  0  0  0  0  0  0  0  0
   -4.8424   -1.2828   -1.8479 H   0  0  0  0  0  0  0  0  0  0  0  0
   -5.3555    1.6272    0.3947 H   0  0  0  0  0  0  0  0  0  0  0  0
   -3.5349    3.0702    1.2444 H   0  0  0  0  0  0  0  0  0  0  0  0
   -2.4721   -1.1704   -1.1652 H   0  0  0  0  0  0  0  0  0  0  0  0
   -0.3141   -1.2121   -1.7611 H   0  0  0  0  0  0  0  0  0  0  0  0
   -0.2140    0.4466   -2.4171 H   0  0  0  0  0  0  0  0  0  0  0  0
    1.1965   -0.3388   -1.7076 H   0  0  0  0  0  0  0  0  0  0  0  0
    2.1973    2.2792    1.1237 H   0  0  0  0  0  0  0  0  0  0  0  0
    3.8683    1.5746   -1.0540 H   0  0  0  0  0  0  0  0  0  0  0  0
    5.5289   -0.1887   -1.5574 H   0  0  0  0  0  0  0  0  0  0  0  0
    5.3373   -2.4000   -0.4366 H   0  0  0  0  0  0  0  0  0  0  0  0
    3.4858   -2.7811    1.1988 H   0  0  0  0  0  0  0  0  0  0  0  0
    0.7591   -1.4920    1.4684 H   0  0  0  0  0  0  0  0  0  0  0  0
    2.0184   -1.9420    2.6534 H   0  0  0  0  0  0  0  0  0  0  0  0
    1.4661   -0.2639    2.5985 H   0  0  0  0  0  0  0  0  0  0  0  0
  1  2  1  0
  2  3  2  0
  3  4  1  0
  4  5  2  0
  5  6  1  0
  6  7  2  0
  6  8  1  0
  8  9  1  0
  8 10  1  0
 10 11  2  3
 11 12  1  0
 12 13  2  0
 13 14  1  0
 14 15  2  0
 15 16  1  0
 16 17  2  0
 17 18  1  0
 10 19  1  0
  7  2  1  0
 17 12  1  0
 19  5  1  0
  1 20  1  0
  1 21  1  0
  1 22  1  0
  3 23  1  0
  4 24  1  0
  7 25  1  0
  9 26  1  0
  9 27  1  0
  9 28  1  0
 11 29  1  0
 13 30  1  0
 14 31  1  0
 15 32  1  0
 16 33  1  0
 18 34  1  0
 18 35  1  0
 18 36  1  0
M  CHG  1  17   1
M  END
$$$$
