
     RDKit          3D

 36 36  0  0  0  0  0  0  0  0999 V2000
   -0.5792   -3.6632    3.6048 C   0  0  0  0  0  0  0  0  0  0  0  0
    0.4598   -3.6865    2.5010 C   0  0  0  0  0  0  0  0  0  0  0  0
   -0.2089   -3.5091    1.2537 O   0  0  0  0  0  0  0  0  0  0  0  0
    0.6794   -3.5076    0.1370 C   0  0  0  0  0  0  0  0  0  0  0  0
    1.2767   -2.1248   -0.1034 C   0  0  0  0  0  0  0  0  0  0  0  0
    0.1902   -1.0786   -0.3414 C   0  0  0  0  0  0  0  0  0  0  0  0
    0.7569    0.2335   -0.5939 N   0  0  0  0  0  0  0  0  0  0  0  0
    1.2359    0.5890   -1.8339 C   0  0  0  0  0  0  0  0  0  0  0  0
    1.2180   -0.1380   -2.8188 O   0  0  0  0  0  0  0  0  0  0  0  0
    1.8118    1.9532   -1.8960 C   0  0  0  0  0  0  0  0  0  0  0  0
    3.2113    2.0348   -2.1342 C   0  0  0  0  0  0  0  0  0  0  0  0
    4.3552    2.1427   -2.2974 N   0  0  0  0  0  0  0  0  0  0  0  0
    1.0834    3.0734   -1.7419 C   0  0  0  0  0  0  0  0  0  0  0  0
   -0.3278    3.1287   -1.5649 C   0  0  0  0  0  0  0  0  0  0  0  0
   -1.3589    2.3379   -2.0739 C   0  0  0  0  0  0  0  0  0  0  0  0
   -2.5929    2.8497   -1.5972 C   0  0  0  0  0  0  0  0  0  0  0  0
   -2.2539    3.9357   -0.8351 C   0  0  0  0  0  0  0  0  0  0  0  0
   -3.0458    4.8670   -0.0963 N   0  0  0  0  0  4  0  0  0  0  0  0
   -2.4573    5.7593    0.5271 O   0  0  0  0  0  0  0  0  0  0  0  0
   -4.2717    4.6974   -0.1385 O   0  0  0  0  0  1  0  0  0  0  0  0
   -0.9113    4.1261   -0.8090 O   0  0  0  0  0  0  0  0  0  0  0  0
   -1.1229   -2.7127    3.6019 H   0  0  0  0  0  0  0  0  0  0  0  0
   -0.1116   -3.7996    4.5839 H   0  0  0  0  0  0  0  0  0  0  0  0
   -1.3205   -4.4548    3.4536 H   0  0  0  0  0  0  0  0  0  0  0  0
    0.9833   -4.6487    2.5053 H   0  0  0  0  0  0  0  0  0  0  0  0
    1.1845   -2.8822    2.6609 H   0  0  0  0  0  0  0  0  0  0  0  0
    0.0938   -3.8071   -0.7392 H   0  0  0  0  0  0  0  0  0  0  0  0
    1.4676   -4.2580    0.2689 H   0  0  0  0  0  0  0  0  0  0  0  0
    1.9520   -2.1724   -0.9658 H   0  0  0  0  0  0  0  0  0  0  0  0
    1.8841   -1.8175    0.7556 H   0  0  0  0  0  0  0  0  0  0  0  0
   -0.4318   -1.3613   -1.1982 H   0  0  0  0  0  0  0  0  0  0  0  0
   -0.4587   -0.9789    0.5347 H   0  0  0  0  0  0  0  0  0  0  0  0
    0.8485    0.8686    0.1898 H   0  0  0  0  0  0  0  0  0  0  0  0
    1.5890    4.0383   -1.7442 H   0  0  0  0  0  0  0  0  0  0  0  0
   -1.2379    1.4854   -2.7321 H   0  0  0  0  0  0  0  0  0  0  0  0
   -3.5904    2.4802   -1.7940 H   0  0  0  0  0  0  0  0  0  0  0  0
  1  2  1  0
  2  3  1  0
  3  4  1  0
  4  5  1  0
  5  6  1  0
  6  7  1  0
  7  8  1  0
  8  9  2  0
  8 10  1  0
 10 11  1  0
 11 12  3  0
 10 13  2  3
 13 14  1  0
 14 15  2  0
 15 16  1  0
 16 17  2  0
 17 18  1  0
 18 19  2  0
 18 20  1  0
 17 21  1  0
 21 14  1  0
  1 22  1  0
  1 23  1  0
  1 24  1  0
  2 25  1  0
  2 26  1  0
  4 27  1  0
  4 28  1  0
  5 29  1  0
  5 30  1  0
  6 31  1  0
  6 32  1  0
  7 33  1  0
 13 34  1  0
 15 35  1  0
 16 36  1  0
M  CHG  2  18   1  20  -1
M  END
$$$$
