
     RDKit          3D

 49 53  0  0  0  0  0  0  0  0999 V2000
    5.1429    1.3850    3.2458 C   0  0  0  0  0  0  0  0  0  0  0  0
    3.8706    0.6146    3.0919 C   0  0  0  0  0  0  0  0  0  0  0  0
    2.6961    0.6940    4.3257 S   0  0  0  0  0  0  0  0  0  0  0  0
    1.6442   -0.3400    3.4878 C   0  0  0  0  0  0  0  0  0  0  0  0
    0.4558   -0.6543    4.0312 N   0  0  0  0  0  0  0  0  0  0  0  0
   -0.2586   -1.4759    3.2665 C   0  0  0  0  0  0  0  0  0  0  0  0
    0.0844   -1.9700    2.0729 N   0  0  0  0  0  0  0  0  0  0  0  0
    1.2817   -1.6220    1.5567 C   0  0  0  0  0  0  0  0  0  0  0  0
    1.7143   -2.3128   -0.0142 S   0  0  0  0  0  0  0  0  0  0  0  0
    0.3106   -1.7273   -1.0677 C   0  0  0  0  0  0  0  0  0  0  0  0
   -0.9296   -2.5836   -0.8155 C   0  0  0  0  0  0  0  0  0  0  0  0
    0.1169   -0.1961   -0.9262 C   0  0  0  0  0  0  0  0  0  0  0  0
    1.0555    0.5693   -0.6895 O   0  0  0  0  0  0  0  0  0  0  0  0
   -1.1884    0.2567   -1.1580 N   0  0  0  0  0  0  0  0  0  0  0  0
   -1.9142    0.9290   -0.1092 C   0  0  0  0  0  0  0  0  0  0  0  0
   -1.2512    1.3174    1.0742 C   0  0  0  0  0  0  0  0  0  0  0  0
   -1.9170    1.9494    2.1294 C   0  0  0  0  0  0  0  0  0  0  0  0
   -3.2739    2.2083    2.0324 C   0  0  0  0  0  0  0  0  0  0  0  0
   -3.9585    1.8251    0.8836 C   0  0  0  0  0  0  0  0  0  0  0  0
   -3.2927    1.1874   -0.1810 C   0  0  0  0  0  0  0  0  0  0  0  0
   -4.3137    0.6633   -1.5311 S   0  0  0  0  0  0  0  0  0  0  0  0
   -3.0887    0.3991   -2.7786 C   0  0  0  0  0  0  0  0  0  0  0  0
   -3.5521    0.3353   -4.1057 C   0  0  0  0  0  0  0  0  0  0  0  0
   -2.6743    0.1181   -5.1637 C   0  0  0  0  0  0  0  0  0  0  0  0
   -1.3211   -0.0307   -4.9045 C   0  0  0  0  0  0  0  0  0  0  0  0
   -0.8549    0.0259   -3.5878 C   0  0  0  0  0  0  0  0  0  0  0  0
   -1.7271    0.2229   -2.4938 C   0  0  0  0  0  0  0  0  0  0  0  0
    2.1493   -0.7698    2.2675 C   0  0  0  0  0  0  0  0  0  0  0  0
    3.4724   -0.1966    2.0355 C   0  0  0  0  0  0  0  0  0  0  0  0
    4.3074   -0.4308    0.8131 C   0  0  0  0  0  0  0  0  0  0  0  0
    5.1971    1.9192    4.2001 H   0  0  0  0  0  0  0  0  0  0  0  0
    5.2357    2.1244    2.4435 H   0  0  0  0  0  0  0  0  0  0  0  0
    6.0029    0.7088    3.1954 H   0  0  0  0  0  0  0  0  0  0  0  0
   -1.2290   -1.7737    3.6510 H   0  0  0  0  0  0  0  0  0  0  0  0
    0.6431   -1.9131   -2.0944 H   0  0  0  0  0  0  0  0  0  0  0  0
   -1.4623   -2.2959    0.0952 H   0  0  0  0  0  0  0  0  0  0  0  0
   -0.6848   -3.6497   -0.7566 H   0  0  0  0  0  0  0  0  0  0  0  0
   -1.6438   -2.4762   -1.6388 H   0  0  0  0  0  0  0  0  0  0  0  0
   -0.1838    1.1644    1.2065 H   0  0  0  0  0  0  0  0  0  0  0  0
   -1.3639    2.2386    3.0205 H   0  0  0  0  0  0  0  0  0  0  0  0
   -3.7995    2.7007    2.8464 H   0  0  0  0  0  0  0  0  0  0  0  0
   -5.0282    2.0186    0.8257 H   0  0  0  0  0  0  0  0  0  0  0  0
   -4.6116    0.4595   -4.3238 H   0  0  0  0  0  0  0  0  0  0  0  0
   -3.0470    0.0771   -6.1840 H   0  0  0  0  0  0  0  0  0  0  0  0
   -0.6213   -0.1775   -5.7241 H   0  0  0  0  0  0  0  0  0  0  0  0
    0.2217   -0.0459   -3.4484 H   0  0  0  0  0  0  0  0  0  0  0  0
    3.7856   -0.0810   -0.0827 H   0  0  0  0  0  0  0  0  0  0  0  0
    5.2604    0.1052    0.8583 H   0  0  0  0  0  0  0  0  0  0  0  0
    4.5425   -1.4943    0.7076 H   0  0  0  0  0  0  0  0  0  0  0  0
  1  2  1  0
  2  3  1  0
  3  4  1  0
  4  5  2  0
  5  6  1  0
  6  7  2  0
  7  8  1  0
  8  9  1  0
  9 10  1  0
 10 11  1  0
 10 12  1  0
 12 13  2  0
 12 14  1  0
 14 15  1  0
 15 16  2  0
 16 17  1  0
 17 18  2  0
 18 19  1  0
 19 20  2  0
 20 21  1  0
 21 22  1  0
 22 23  2  0
 23 24  1  0
 24 25  2  0
 25 26  1  0
 26 27  2  0
  8 28  2  0
 28 29  1  0
 29 30  1  0
 29  2  2  0
 28  4  1  0
 27 14  1  0
 20 15  1  0
 27 22  1  0
  1 31  1  0
  1 32  1  0
  1 33  1  0
  6 34  1  0
 10 35  1  0
 11 36  1  0
 11 37  1  0
 11 38  1  0
 16 39  1  0
 17 40  1  0
 18 41  1  0
 19 42  1  0
 23 43  1  0
 24 44  1  0
 25 45  1  0
 26 46  1  0
 30 47  1  0
 30 48  1  0
 30 49  1  0
M  END
$$$$
