
     RDKit          3D

 37 38  0  0  0  0  0  0  0  0999 V2000
    1.9512   -1.8873    0.1646 O   0  0  0  0  0  0  0  0  0  0  0  0
    0.9454   -1.2090    0.3727 C   0  0  0  0  0  0  0  0  0  0  0  0
   -0.4475   -1.8161    0.5231 C   0  0  0  0  0  0  0  0  0  0  0  0
   -1.4667   -0.8222    0.3693 O   0  0  0  0  0  0  0  0  0  0  0  0
   -2.7224   -1.3137    0.4986 C   0  0  0  0  0  0  0  0  0  0  0  0
   -3.0134   -2.4721    0.7567 O   0  0  0  0  0  0  0  0  0  0  0  0
   -3.7519   -0.2620    0.3035 C   0  0  0  0  0  0  0  0  0  0  0  0
   -3.4084    1.0381   -0.0998 C   0  0  0  0  0  0  0  0  0  0  0  0
   -4.4019    2.0074   -0.2754 C   0  0  0  0  0  0  0  0  0  0  0  0
   -5.7388    1.6821   -0.0503 C   0  0  0  0  0  0  0  0  0  0  0  0
   -6.9544    2.8798   -0.2712 Cl  0  0  0  0  0  0  0  0  0  0  0  0
   -6.0944    0.3962    0.3471 C   0  0  0  0  0  0  0  0  0  0  0  0
   -5.1045   -0.5716    0.5194 C   0  0  0  0  0  0  0  0  0  0  0  0
   -5.5441   -1.8118    0.9037 O   0  0  0  0  0  0  0  0  0  0  0  0
    1.0058    0.1612    0.5099 N   0  0  0  0  0  0  0  0  0  0  0  0
    2.2807    0.8531    0.5506 C   0  0  0  0  0  0  0  0  0  0  0  0
    3.0346    0.8056   -0.7878 C   0  0  0  0  0  0  0  0  0  0  0  0
    4.4581    0.6210   -0.5982 N   0  0  0  0  0  0  0  0  0  0  0  0
    5.1110   -0.5882   -0.6235 C   0  0  0  0  0  0  0  0  0  0  0  0
    4.4519   -1.7640   -0.8230 O   0  0  0  0  0  0  0  0  0  0  0  0
    6.4319   -0.5081   -0.4399 C   0  0  0  0  0  0  0  0  0  0  0  0
    6.9414    1.1313   -0.1829 S   0  0  0  0  0  0  0  0  0  0  0  0
    5.2757    1.7117   -0.3352 C   0  0  0  0  0  0  0  0  0  0  0  0
    4.9441    2.8793   -0.2111 O   0  0  0  0  0  0  0  0  0  0  0  0
   -0.5072   -2.2613    1.5228 H   0  0  0  0  0  0  0  0  0  0  0  0
   -0.5635   -2.5829   -0.2518 H   0  0  0  0  0  0  0  0  0  0  0  0
   -2.3753    1.3150   -0.2908 H   0  0  0  0  0  0  0  0  0  0  0  0
   -4.1282    3.0128   -0.5905 H   0  0  0  0  0  0  0  0  0  0  0  0
   -7.1355    0.1383    0.5213 H   0  0  0  0  0  0  0  0  0  0  0  0
   -4.7791   -2.4262    0.9618 H   0  0  0  0  0  0  0  0  0  0  0  0
    0.1662    0.6419    0.8148 H   0  0  0  0  0  0  0  0  0  0  0  0
    2.0814    1.8918    0.8346 H   0  0  0  0  0  0  0  0  0  0  0  0
    2.8694    0.3956    1.3545 H   0  0  0  0  0  0  0  0  0  0  0  0
    2.8749    1.7568   -1.3109 H   0  0  0  0  0  0  0  0  0  0  0  0
    2.6584    0.0306   -1.4646 H   0  0  0  0  0  0  0  0  0  0  0  0
    3.5443   -1.7042   -0.4532 H   0  0  0  0  0  0  0  0  0  0  0  0
    7.1108   -1.3490   -0.4343 H   0  0  0  0  0  0  0  0  0  0  0  0
  1  2  2  0
  2  3  1  0
  3  4  1  0
  4  5  1  0
  5  6  2  0
  5  7  1  0
  7  8  2  0
  8  9  1  0
  9 10  2  0
 10 11  1  0
 10 12  1  0
 12 13  2  0
 13 14  1  0
  2 15  1  0
 15 16  1  0
 16 17  1  0
 17 18  1  0
 18 19  1  0
 19 20  1  0
 19 21  2  0
 21 22  1  0
 22 23  1  0
 23 24  2  0
 13  7  1  0
 23 18  1  0
  3 25  1  0
  3 26  1  0
  8 27  1  0
  9 28  1  0
 12 29  1  0
 14 30  1  0
 15 31  1  0
 16 32  1  0
 16 33  1  0
 17 34  1  0
 17 35  1  0
 20 36  1  0
 21 37  1  0
M  END
$$$$
