
     RDKit          3D

 44 46  0  0  0  0  0  0  0  0999 V2000
   -6.0546    3.2887   -0.5957 C   0  0  0  0  0  0  0  0  0  0  0  0
   -5.4021    2.1807   -1.2014 O   0  0  0  0  0  0  0  0  0  0  0  0
   -4.2592    1.7115   -0.6119 C   0  0  0  0  0  0  0  0  0  0  0  0
   -3.6917    2.2529    0.5468 C   0  0  0  0  0  0  0  0  0  0  0  0
   -2.4913    1.7460    1.0600 C   0  0  0  0  0  0  0  0  0  0  0  0
   -1.8383    0.6884    0.4235 C   0  0  0  0  0  0  0  0  0  0  0  0
   -0.5636    0.2005    0.9607 C   0  0  0  0  0  0  0  0  0  0  0  0
   -0.3372   -1.0454    1.4215 C   0  0  0  0  0  0  0  0  0  0  0  0
   -1.3314   -2.0582    1.5143 C   0  0  0  0  0  0  0  0  0  0  0  0
   -2.1510   -2.8797    1.5468 N   0  0  0  0  0  0  0  0  0  0  0  0
    1.0177   -1.3606    1.9608 C   0  0  0  0  0  0  0  0  0  0  0  0
    1.1238   -1.8341    3.0842 O   0  0  0  0  0  0  0  0  0  0  0  0
    2.0367   -1.0853    1.0634 N   0  0  0  0  0  0  0  0  0  0  0  0
    3.4380   -1.2289    1.2593 C   0  0  0  0  0  0  0  0  0  0  0  0
    3.9628   -1.6377    2.4899 C   0  0  0  0  0  0  0  0  0  0  0  0
    5.3361   -1.7629    2.6685 C   0  0  0  0  0  0  0  0  0  0  0  0
    6.1996   -1.4770    1.6167 C   0  0  0  0  0  0  0  0  0  0  0  0
    5.7303   -1.0677    0.3814 C   0  0  0  0  0  0  0  0  0  0  0  0
    6.6474   -0.8141   -0.5681 N   0  0  0  0  0  0  0  0  0  0  0  0
    6.2232   -0.4159   -1.7826 C   0  0  0  0  0  0  0  0  0  0  0  0
    4.8954   -0.2526   -2.1059 C   0  0  0  0  0  0  0  0  0  0  0  0
    3.9479   -0.5140   -1.1200 C   0  0  0  0  0  0  0  0  0  0  0  0
    4.3341   -0.9359    0.1778 C   0  0  0  0  0  0  0  0  0  0  0  0
   -2.3964    0.1459   -0.7361 C   0  0  0  0  0  0  0  0  0  0  0  0
   -3.6093    0.6338   -1.2372 C   0  0  0  0  0  0  0  0  0  0  0  0
   -4.0357    0.0199   -2.3893 O   0  0  0  0  0  0  0  0  0  0  0  0
   -5.4007   -0.3913   -2.3485 C   0  0  0  0  0  0  0  0  0  0  0  0
   -6.4003    3.0396    0.4130 H   0  0  0  0  0  0  0  0  0  0  0  0
   -6.9358    3.5279   -1.1990 H   0  0  0  0  0  0  0  0  0  0  0  0
   -5.4080    4.1722   -0.5874 H   0  0  0  0  0  0  0  0  0  0  0  0
   -4.1532    3.0805    1.0760 H   0  0  0  0  0  0  0  0  0  0  0  0
   -2.0763    2.1910    1.9625 H   0  0  0  0  0  0  0  0  0  0  0  0
    0.2185    0.9571    1.0032 H   0  0  0  0  0  0  0  0  0  0  0  0
    1.7492   -0.7792    0.1462 H   0  0  0  0  0  0  0  0  0  0  0  0
    3.3318   -1.8673    3.3425 H   0  0  0  0  0  0  0  0  0  0  0  0
    5.7338   -2.0823    3.6286 H   0  0  0  0  0  0  0  0  0  0  0  0
    7.2726   -1.5770    1.7658 H   0  0  0  0  0  0  0  0  0  0  0  0
    7.0081   -0.2272   -2.5092 H   0  0  0  0  0  0  0  0  0  0  0  0
    4.6016    0.0692   -3.0985 H   0  0  0  0  0  0  0  0  0  0  0  0
    2.9075   -0.3831   -1.3951 H   0  0  0  0  0  0  0  0  0  0  0  0
   -1.9070   -0.6676   -1.2665 H   0  0  0  0  0  0  0  0  0  0  0  0
   -6.0414    0.3764   -2.7922 H   0  0  0  0  0  0  0  0  0  0  0  0
   -5.4933   -1.2918   -2.9635 H   0  0  0  0  0  0  0  0  0  0  0  0
   -5.7382   -0.6449   -1.3367 H   0  0  0  0  0  0  0  0  0  0  0  0
  1  2  1  0
  2  3  1  0
  3  4  2  0
  4  5  1  0
  5  6  2  0
  6  7  1  0
  7  8  2  3
  8  9  1  0
  9 10  3  0
  8 11  1  0
 11 12  2  0
 11 13  1  0
 13 14  1  0
 14 15  2  0
 15 16  1  0
 16 17  2  0
 17 18  1  0
 18 19  2  0
 19 20  1  0
 20 21  2  0
 21 22  1  0
 22 23  2  0
  6 24  1  0
 24 25  2  0
 25 26  1  0
 26 27  1  0
 25  3  1  0
 23 14  1  0
 23 18  1  0
  1 28  1  0
  1 29  1  0
  1 30  1  0
  4 31  1  0
  5 32  1  0
  7 33  1  0
 13 34  1  0
 15 35  1  0
 16 36  1  0
 17 37  1  0
 20 38  1  0
 21 39  1  0
 22 40  1  0
 24 41  1  0
 27 42  1  0
 27 43  1  0
 27 44  1  0
M  END
$$$$
