
     RDKit          3D

 53 56  0  0  0  0  0  0  0  0999 V2000
   -6.7655   -2.1155    1.1795 C   0  0  0  0  0  0  0  0  0  0  0  0
   -7.3606   -1.4090    0.0980 O   0  0  0  0  0  0  0  0  0  0  0  0
   -6.7051   -0.3032   -0.3690 C   0  0  0  0  0  0  0  0  0  0  0  0
   -7.2891    0.2803   -1.4958 C   0  0  0  0  0  0  0  0  0  0  0  0
   -6.7219    1.4073   -2.0864 C   0  0  0  0  0  0  0  0  0  0  0  0
   -5.5629    1.9605   -1.5470 C   0  0  0  0  0  0  0  0  0  0  0  0
   -4.9696    1.3952   -0.4089 C   0  0  0  0  0  0  0  0  0  0  0  0
   -3.7284    2.0386    0.1293 C   0  0  0  0  0  0  0  0  0  0  0  0
   -3.2355    2.9846   -0.4836 O   0  0  0  0  0  0  0  0  0  0  0  0
   -3.1265    1.4926    1.4263 C   0  0  0  0  0  0  0  0  0  0  0  0
   -1.9916    2.1984    1.9083 O   0  0  0  0  0  0  0  0  0  0  0  0
   -0.7675    1.8950    1.3846 C   0  0  0  0  0  0  0  0  0  0  0  0
    0.3067    2.5311    2.0085 C   0  0  0  0  0  0  0  0  0  0  0  0
    1.6238    2.3117    1.5815 C   0  0  0  0  0  0  0  0  0  0  0  0
    1.8999    1.4483    0.5139 C   0  0  0  0  0  0  0  0  0  0  0  0
    3.2609    1.1561    0.0173 C   0  0  0  0  0  0  0  0  0  0  0  0
    4.3992    1.8692    0.7021 C   0  0  0  0  0  0  0  0  0  0  0  0
    3.4172    0.2682   -0.9921 C   0  0  0  0  0  0  0  0  0  0  0  0
    4.7455   -0.1638   -1.5834 C   0  0  0  0  0  0  0  0  0  0  0  0
    5.3168   -1.4034   -0.9240 C   0  0  0  0  0  0  0  0  0  0  0  0
    6.2326   -1.3002    0.1334 C   0  0  0  0  0  0  0  0  0  0  0  0
    6.7395   -2.4457    0.7510 C   0  0  0  0  0  0  0  0  0  0  0  0
    6.3370   -3.7075    0.3205 C   0  0  0  0  0  0  0  0  0  0  0  0
    5.4297   -3.8251   -0.7297 C   0  0  0  0  0  0  0  0  0  0  0  0
    4.9231   -2.6809   -1.3487 C   0  0  0  0  0  0  0  0  0  0  0  0
    2.2386   -0.3511   -1.6667 C   0  0  0  0  0  0  0  0  0  0  0  0
    2.3560   -1.0915   -2.6387 O   0  0  0  0  0  0  0  0  0  0  0  0
    0.9840   -0.0520   -1.1676 O   0  0  0  0  0  0  0  0  0  0  0  0
    0.8112    0.8312   -0.0924 C   0  0  0  0  0  0  0  0  0  0  0  0
   -0.5110    1.0433    0.3174 C   0  0  0  0  0  0  0  0  0  0  0  0
   -5.5480    0.2598    0.1798 C   0  0  0  0  0  0  0  0  0  0  0  0
   -5.7560   -2.4542    0.9250 H   0  0  0  0  0  0  0  0  0  0  0  0
   -6.7610   -1.5072    2.0886 H   0  0  0  0  0  0  0  0  0  0  0  0
   -7.3729   -3.0042    1.3748 H   0  0  0  0  0  0  0  0  0  0  0  0
   -8.1923   -0.1526   -1.9207 H   0  0  0  0  0  0  0  0  0  0  0  0
   -7.1803    1.8521   -2.9657 H   0  0  0  0  0  0  0  0  0  0  0  0
   -5.1247    2.8399   -2.0188 H   0  0  0  0  0  0  0  0  0  0  0  0
   -3.8924    1.6044    2.2030 H   0  0  0  0  0  0  0  0  0  0  0  0
   -2.9097    0.4220    1.3358 H   0  0  0  0  0  0  0  0  0  0  0  0
    0.1194    3.2089    2.8389 H   0  0  0  0  0  0  0  0  0  0  0  0
    2.4156    2.8337    2.1110 H   0  0  0  0  0  0  0  0  0  0  0  0
    4.2579    2.9556    0.6559 H   0  0  0  0  0  0  0  0  0  0  0  0
    5.3749    1.6780    0.2534 H   0  0  0  0  0  0  0  0  0  0  0  0
    4.4670    1.5645    1.7522 H   0  0  0  0  0  0  0  0  0  0  0  0
    5.4841    0.6444   -1.5350 H   0  0  0  0  0  0  0  0  0  0  0  0
    4.6563   -0.3423   -2.6633 H   0  0  0  0  0  0  0  0  0  0  0  0
    6.5659   -0.3278    0.4848 H   0  0  0  0  0  0  0  0  0  0  0  0
    7.4497   -2.3529    1.5686 H   0  0  0  0  0  0  0  0  0  0  0  0
    6.7309   -4.5989    0.8013 H   0  0  0  0  0  0  0  0  0  0  0  0
    5.1138   -4.8079   -1.0693 H   0  0  0  0  0  0  0  0  0  0  0  0
    4.2167   -2.7959   -2.1694 H   0  0  0  0  0  0  0  0  0  0  0  0
   -1.3003    0.5405   -0.2285 H   0  0  0  0  0  0  0  0  0  0  0  0
   -5.1013   -0.1854    1.0599 H   0  0  0  0  0  0  0  0  0  0  0  0
  1  2  1  0
  2  3  1  0
  3  4  2  0
  4  5  1  0
  5  6  2  0
  6  7  1  0
  7  8  1  0
  8  9  2  0
  8 10  1  0
 10 11  1  0
 11 12  1  0
 12 13  2  0
 13 14  1  0
 14 15  2  0
 15 16  1  0
 16 17  1  0
 16 18  2  0
 18 19  1  0
 19 20  1  0
 20 21  2  0
 21 22  1  0
 22 23  2  0
 23 24  1  0
 24 25  2  0
 18 26  1  0
 26 27  2  0
 26 28  1  0
 28 29  1  0
 29 30  2  0
  7 31  2  0
 31  3  1  0
 30 12  1  0
 29 15  1  0
 25 20  1  0
  1 32  1  0
  1 33  1  0
  1 34  1  0
  4 35  1  0
  5 36  1  0
  6 37  1  0
 10 38  1  0
 10 39  1  0
 13 40  1  0
 14 41  1  0
 17 42  1  0
 17 43  1  0
 17 44  1  0
 19 45  1  0
 19 46  1  0
 21 47  1  0
 22 48  1  0
 23 49  1  0
 24 50  1  0
 25 51  1  0
 30 52  1  0
 31 53  1  0
M  END
$$$$
