
     RDKit          3D

 49 53  0  0  0  0  0  0  0  0999 V2000
   -6.6137   -1.0975    0.8969 C   0  0  0  0  0  0  0  0  0  0  0  0
   -5.3718   -0.6686    0.1724 C   0  0  0  0  0  0  0  0  0  0  0  0
   -5.3902    0.4541   -0.6656 C   0  0  0  0  0  0  0  0  0  0  0  0
   -4.2480    0.8356   -1.3743 C   0  0  0  0  0  0  0  0  0  0  0  0
   -3.0751    0.0911   -1.2636 C   0  0  0  0  0  0  0  0  0  0  0  0
   -3.0521   -1.0277   -0.4270 C   0  0  0  0  0  0  0  0  0  0  0  0
   -1.5803   -2.0028   -0.2980 S   0  0  0  0  0  6  0  0  0  0  0  0
   -1.9733   -3.3782   -0.0752 O   0  0  0  0  0  0  0  0  0  0  0  0
   -0.6785   -1.6763   -1.3857 O   0  0  0  0  0  0  0  0  0  0  0  0
   -0.8741   -1.4813    1.1319 N   0  0  0  0  0  0  0  0  0  0  0  0
   -0.2938   -0.1869    1.0813 C   0  0  0  0  0  0  0  0  0  0  0  0
   -1.0954    0.7686    1.5855 N   0  0  0  0  0  0  0  0  0  0  0  0
   -0.5971    2.0158    1.5746 C   0  0  0  0  0  0  0  0  0  0  0  0
   -1.3638    3.0583    2.0781 C   0  0  0  0  0  0  0  0  0  0  0  0
   -0.8870    4.3694    2.0894 C   0  0  0  0  0  0  0  0  0  0  0  0
    0.3792    4.6427    1.5885 C   0  0  0  0  0  0  0  0  0  0  0  0
    1.1584    3.6027    1.0785 C   0  0  0  0  0  0  0  0  0  0  0  0
    0.6952    2.2935    1.0611 C   0  0  0  0  0  0  0  0  0  0  0  0
    1.4766    1.3216    0.5509 N   0  0  0  0  0  0  0  0  0  0  0  0
    0.9822    0.0645    0.5351 C   0  0  0  0  0  0  0  0  0  0  0  0
    1.7129   -1.0071   -0.0451 N   0  0  0  0  0  0  0  0  0  0  0  0
    3.0687   -1.0194   -0.4487 C   0  0  0  0  0  0  0  0  0  0  0  0
    4.0590   -0.2500    0.2016 C   0  0  0  0  0  0  0  0  0  0  0  0
    5.4099   -0.3340   -0.1627 C   0  0  0  0  0  0  0  0  0  0  0  0
    5.7494   -1.2149   -1.1632 C   0  0  0  0  0  0  0  0  0  0  0  0
    4.8052   -1.9956   -1.7829 C   0  0  0  0  0  0  0  0  0  0  0  0
    3.4687   -1.9320   -1.4414 C   0  0  0  0  0  0  0  0  0  0  0  0
    5.3444   -2.8064   -2.7325 O   0  0  0  0  0  0  0  0  0  0  0  0
    6.7348   -2.4309   -2.6502 C   0  0  0  0  0  0  0  0  0  0  0  0
    7.0020   -1.4332   -1.6435 O   0  0  0  0  0  0  0  0  0  0  0  0
   -4.1962   -1.4212    0.2755 C   0  0  0  0  0  0  0  0  0  0  0  0
   -6.3639   -1.6154    1.8294 H   0  0  0  0  0  0  0  0  0  0  0  0
   -7.1974   -1.7722    0.2621 H   0  0  0  0  0  0  0  0  0  0  0  0
   -7.2300   -0.2317    1.1603 H   0  0  0  0  0  0  0  0  0  0  0  0
   -6.3000    1.0403   -0.7718 H   0  0  0  0  0  0  0  0  0  0  0  0
   -4.2776    1.7109   -2.0186 H   0  0  0  0  0  0  0  0  0  0  0  0
   -2.1924    0.3905   -1.8239 H   0  0  0  0  0  0  0  0  0  0  0  0
   -0.2632   -2.2018    1.5116 H   0  0  0  0  0  0  0  0  0  0  0  0
   -2.3548    2.8420    2.4702 H   0  0  0  0  0  0  0  0  0  0  0  0
   -1.5051    5.1703    2.4857 H   0  0  0  0  0  0  0  0  0  0  0  0
    0.7622    5.6603    1.5901 H   0  0  0  0  0  0  0  0  0  0  0  0
    2.1473    3.8173    0.6807 H   0  0  0  0  0  0  0  0  0  0  0  0
    1.1160   -1.4240   -0.7695 H   0  0  0  0  0  0  0  0  0  0  0  0
    3.7826    0.4313    1.0045 H   0  0  0  0  0  0  0  0  0  0  0  0
    6.1616    0.2709    0.3317 H   0  0  0  0  0  0  0  0  0  0  0  0
    2.7533   -2.5739   -1.9441 H   0  0  0  0  0  0  0  0  0  0  0  0
    7.3252   -3.3250   -2.4230 H   0  0  0  0  0  0  0  0  0  0  0  0
    7.0491   -2.0373   -3.6246 H   0  0  0  0  0  0  0  0  0  0  0  0
   -4.1691   -2.3065    0.9069 H   0  0  0  0  0  0  0  0  0  0  0  0
  1  2  1  0
  2  3  2  0
  3  4  1  0
  4  5  2  0
  5  6  1  0
  6  7  1  0
  7  8  2  0
  7  9  2  0
  7 10  1  0
 10 11  1  0
 11 12  2  0
 12 13  1  0
 13 14  2  0
 14 15  1  0
 15 16  2  0
 16 17  1  0
 17 18  2  0
 18 19  1  0
 19 20  2  0
 20 21  1  0
 21 22  1  0
 22 23  2  0
 23 24  1  0
 24 25  2  0
 25 26  1  0
 26 27  2  0
 26 28  1  0
 28 29  1  0
 29 30  1  0
  6 31  2  0
 31  2  1  0
 20 11  1  0
 27 22  1  0
 18 13  1  0
 30 25  1  0
  1 32  1  0
  1 33  1  0
  1 34  1  0
  3 35  1  0
  4 36  1  0
  5 37  1  0
 10 38  1  0
 14 39  1  0
 15 40  1  0
 16 41  1  0
 17 42  1  0
 21 43  1  0
 23 44  1  0
 24 45  1  0
 27 46  1  0
 29 47  1  0
 29 48  1  0
 31 49  1  0
M  END
$$$$
