
     RDKit          3D

 47 51  0  0  0  0  0  0  0  0999 V2000
   -0.0863    0.4926   -4.1981 C   0  0  0  0  0  0  0  0  0  0  0  0
   -0.9556    0.6753   -2.9926 C   0  0  0  0  0  0  0  0  0  0  0  0
   -1.6406    1.7852   -2.8623 N   0  0  0  0  0  0  0  0  0  0  0  0
   -2.4162    1.9177   -1.7440 C   0  0  0  0  0  0  0  0  0  0  0  0
   -3.3618    3.3106   -1.4457 S   0  0  0  0  0  0  0  0  0  0  0  0
   -3.9420    2.6772    0.0317 C   0  0  0  0  0  0  0  0  0  0  0  0
   -3.4313    1.4244    0.3227 C   0  0  0  0  0  0  0  0  0  0  0  0
   -2.5693    1.0126   -0.7150 C   0  0  0  0  0  0  0  0  0  0  0  0
   -1.7592   -0.2702   -0.9178 C   0  0  0  0  0  0  0  0  0  0  0  0
   -1.6635   -1.3335   -0.1611 N   0  0  0  0  0  0  0  0  0  0  0  0
   -0.8062   -2.1950   -0.8026 N   0  0  0  0  0  0  0  0  0  0  0  0
   -0.4194   -1.6269   -1.9282 C   0  0  0  0  0  0  0  0  0  0  0  0
    0.6989   -2.3728   -3.0176 S   0  0  0  0  0  0  0  0  0  0  0  0
    2.0242   -2.7872   -1.8416 C   0  0  0  0  0  0  0  0  0  0  0  0
    2.5340   -1.5560   -1.0994 C   0  0  0  0  0  0  0  0  0  0  0  0
    2.4180   -0.4065   -1.5188 O   0  0  0  0  0  0  0  0  0  0  0  0
    3.1631   -1.8559    0.0865 N   0  0  0  0  0  0  0  0  0  0  0  0
    3.6962   -0.8387    0.9643 C   0  0  0  0  0  0  0  0  0  0  0  0
    5.0528   -1.2651    1.3869 C   0  0  0  0  0  0  0  0  0  0  0  0
    6.3193   -0.7831    1.1232 C   0  0  0  0  0  0  0  0  0  0  0  0
    7.2209   -1.6354    1.8070 C   0  0  0  0  0  0  0  0  0  0  0  0
    6.4494   -2.5802    2.4441 C   0  0  0  0  0  0  0  0  0  0  0  0
    5.1312   -2.3665    2.1930 O   0  0  0  0  0  0  0  0  0  0  0  0
   -0.9902   -0.3800   -2.0574 N   0  0  0  0  0  0  0  0  0  0  0  0
   -3.8083    0.6713    1.5598 C   0  0  0  0  0  0  0  0  0  0  0  0
   -4.4677    1.5894    2.6020 C   0  0  0  0  0  0  0  0  0  0  0  0
   -5.5096    2.5211    1.9643 C   0  0  0  0  0  0  0  0  0  0  0  0
   -4.8806    3.4468    0.9089 C   0  0  0  0  0  0  0  0  0  0  0  0
   -0.1516    1.3805   -4.8361 H   0  0  0  0  0  0  0  0  0  0  0  0
    0.9596    0.3778   -3.9029 H   0  0  0  0  0  0  0  0  0  0  0  0
   -0.4256   -0.3612   -4.7892 H   0  0  0  0  0  0  0  0  0  0  0  0
    2.8616   -3.2253   -2.3938 H   0  0  0  0  0  0  0  0  0  0  0  0
    1.6519   -3.5302   -1.1286 H   0  0  0  0  0  0  0  0  0  0  0  0
    3.1657   -2.8034    0.4416 H   0  0  0  0  0  0  0  0  0  0  0  0
    3.0306   -0.7648    1.8302 H   0  0  0  0  0  0  0  0  0  0  0  0
    3.7278    0.1353    0.4652 H   0  0  0  0  0  0  0  0  0  0  0  0
    6.5573    0.0739    0.5061 H   0  0  0  0  0  0  0  0  0  0  0  0
    8.3001   -1.5723    1.8317 H   0  0  0  0  0  0  0  0  0  0  0  0
    6.6759   -3.4287    3.0769 H   0  0  0  0  0  0  0  0  0  0  0  0
   -4.5077   -0.1282    1.2852 H   0  0  0  0  0  0  0  0  0  0  0  0
   -2.9260    0.1967    2.0043 H   0  0  0  0  0  0  0  0  0  0  0  0
   -3.6972    2.1983    3.0934 H   0  0  0  0  0  0  0  0  0  0  0  0
   -4.9377    0.9780    3.3809 H   0  0  0  0  0  0  0  0  0  0  0  0
   -6.2949    1.9123    1.4972 H   0  0  0  0  0  0  0  0  0  0  0  0
   -5.9934    3.1282    2.7382 H   0  0  0  0  0  0  0  0  0  0  0  0
   -5.6749    3.9181    0.3179 H   0  0  0  0  0  0  0  0  0  0  0  0
   -4.3214    4.2438    1.4142 H   0  0  0  0  0  0  0  0  0  0  0  0
  1  2  1  0
  2  3  2  0
  3  4  1  0
  4  5  1  0
  5  6  1  0
  6  7  2  0
  7  8  1  0
  8  9  1  0
  9 10  2  0
 10 11  1  0
 11 12  2  0
 12 13  1  0
 13 14  1  0
 14 15  1  0
 15 16  2  0
 15 17  1  0
 17 18  1  0
 18 19  1  0
 19 20  2  0
 20 21  1  0
 21 22  2  0
 22 23  1  0
 12 24  1  0
  7 25  1  0
 25 26  1  0
 26 27  1  0
 27 28  1  0
 24  2  1  0
  8  4  2  0
 24  9  1  0
 28  6  1  0
 23 19  1  0
  1 29  1  0
  1 30  1  0
  1 31  1  0
 14 32  1  0
 14 33  1  0
 17 34  1  0
 18 35  1  0
 18 36  1  0
 20 37  1  0
 21 38  1  0
 22 39  1  0
 25 40  1  0
 25 41  1  0
 26 42  1  0
 26 43  1  0
 27 44  1  0
 27 45  1  0
 28 46  1  0
 28 47  1  0
M  END
$$$$
