
     RDKit          3D

 42 41  0  0  0  0  0  0  0  0999 V2000
   -4.4992   -0.5403    2.5974 C   0  0  0  0  0  0  0  0  0  0  0  0
   -4.5835   -0.5861    1.0961 C   0  0  0  0  0  0  0  0  0  0  0  0
   -5.8103   -1.2797    0.5639 C   0  0  0  0  0  0  0  0  0  0  0  0
   -3.6601   -0.0792    0.2554 C   0  0  0  0  0  0  0  0  0  0  0  0
   -2.4062    0.6708    0.6191 C   0  0  0  0  0  0  0  0  0  0  0  0
   -1.1722   -0.2351    0.5541 C   0  0  0  0  0  0  0  0  0  0  0  0
    0.1054    0.5075    0.8908 C   0  0  0  0  0  0  0  0  0  0  0  0
    0.3680    0.6920    2.3647 C   0  0  0  0  0  0  0  0  0  0  0  0
    0.9889    0.9566   -0.0241 C   0  0  0  0  0  0  0  0  0  0  0  0
    0.8761    0.8752   -1.5239 C   0  0  0  0  0  0  0  0  0  0  0  0
    1.7322   -0.2443   -2.1343 C   0  0  0  0  0  0  0  0  0  0  0  0
    3.2316   -0.0860   -1.9291 C   0  0  0  0  0  0  0  0  0  0  0  0
    3.8792    0.9963   -2.7506 C   0  0  0  0  0  0  0  0  0  0  0  0
    3.8879   -0.8940   -1.0719 C   0  0  0  0  0  0  0  0  0  0  0  0
    5.3529   -0.9243   -0.7641 C   0  0  0  0  0  0  0  0  0  0  0  0
    5.5989   -0.2702    0.4729 O   0  0  0  0  0  0  0  0  0  0  0  0
   -3.5405   -0.1667    2.9678 H   0  0  0  0  0  0  0  0  0  0  0  0
   -4.6237   -1.5493    3.0076 H   0  0  0  0  0  0  0  0  0  0  0  0
   -5.2943    0.0981    2.9981 H   0  0  0  0  0  0  0  0  0  0  0  0
   -5.8474   -2.3147    0.9189 H   0  0  0  0  0  0  0  0  0  0  0  0
   -5.8316   -1.3054   -0.5322 H   0  0  0  0  0  0  0  0  0  0  0  0
   -6.7129   -0.7614    0.9055 H   0  0  0  0  0  0  0  0  0  0  0  0
   -3.8160   -0.1901   -0.8179 H   0  0  0  0  0  0  0  0  0  0  0  0
   -2.4970    1.1357    1.6074 H   0  0  0  0  0  0  0  0  0  0  0  0
   -2.2928    1.5052   -0.0869 H   0  0  0  0  0  0  0  0  0  0  0  0
   -1.1025   -0.6974   -0.4375 H   0  0  0  0  0  0  0  0  0  0  0  0
   -1.2887   -1.0758    1.2513 H   0  0  0  0  0  0  0  0  0  0  0  0
   -0.4288    1.2816    2.8259 H   0  0  0  0  0  0  0  0  0  0  0  0
    1.3132    1.2101    2.5574 H   0  0  0  0  0  0  0  0  0  0  0  0
    0.4149   -0.2798    2.8665 H   0  0  0  0  0  0  0  0  0  0  0  0
    1.8906    1.4589    0.3249 H   0  0  0  0  0  0  0  0  0  0  0  0
   -0.1661    0.7277   -1.8297 H   0  0  0  0  0  0  0  0  0  0  0  0
    1.1629    1.8470   -1.9424 H   0  0  0  0  0  0  0  0  0  0  0  0
    1.3922   -1.2101   -1.7377 H   0  0  0  0  0  0  0  0  0  0  0  0
    1.5353   -0.2879   -3.2132 H   0  0  0  0  0  0  0  0  0  0  0  0
    3.7254    0.8005   -3.8184 H   0  0  0  0  0  0  0  0  0  0  0  0
    3.4429    1.9713   -2.5108 H   0  0  0  0  0  0  0  0  0  0  0  0
    4.9567    1.0812   -2.5854 H   0  0  0  0  0  0  0  0  0  0  0  0
    3.3122   -1.6392   -0.5197 H   0  0  0  0  0  0  0  0  0  0  0  0
    5.6828   -1.9631   -0.6762 H   0  0  0  0  0  0  0  0  0  0  0  0
    5.9737   -0.4595   -1.5375 H   0  0  0  0  0  0  0  0  0  0  0  0
    4.7500    0.0835    0.7980 H   0  0  0  0  0  0  0  0  0  0  0  0
  1  2  1  0
  2  3  1  0
  2  4  2  3
  4  5  1  0
  5  6  1  0
  6  7  1  0
  7  8  1  0
  7  9  2  3
  9 10  1  0
 10 11  1  0
 11 12  1  0
 12 13  1  0
 12 14  2  3
 14 15  1  0
 15 16  1  0
  1 17  1  0
  1 18  1  0
  1 19  1  0
  3 20  1  0
  3 21  1  0
  3 22  1  0
  4 23  1  0
  5 24  1  0
  5 25  1  0
  6 26  1  0
  6 27  1  0
  8 28  1  0
  8 29  1  0
  8 30  1  0
  9 31  1  0
 10 32  1  0
 10 33  1  0
 11 34  1  0
 11 35  1  0
 13 36  1  0
 13 37  1  0
 13 38  1  0
 14 39  1  0
 15 40  1  0
 15 41  1  0
 16 42  1  0
M  END
$$$$
