
     RDKit          3D

 53 54  0  0  0  0  0  0  0  0999 V2000
   -5.9692    0.3257   -1.1775 C   0  0  0  0  0  0  0  0  0  0  0  0
   -5.4241   -0.9636   -0.5876 C   0  0  0  0  0  0  0  0  0  0  0  0
   -5.3154   -0.8284    0.8877 N   0  0  0  0  0  0  0  0  0  0  0  0
   -6.5567   -1.1669    1.6337 C   0  0  0  0  0  0  0  0  0  0  0  0
   -6.7853   -2.6611    1.7896 C   0  0  0  0  0  0  0  0  0  0  0  0
   -3.8587   -1.3495    1.6010 S   0  0  0  0  0  6  0  0  0  0  0  0
   -3.9432   -1.1470    3.0324 O   0  0  0  0  0  0  0  0  0  0  0  0
   -3.5306   -2.6391    1.0308 O   0  0  0  0  0  0  0  0  0  0  0  0
   -2.6903   -0.1528    0.9918 C   0  0  0  0  0  0  0  0  0  0  0  0
   -2.9101    1.2001    1.2717 C   0  0  0  0  0  0  0  0  0  0  0  0
   -2.0037    2.1525    0.8122 C   0  0  0  0  0  0  0  0  0  0  0  0
   -0.8806    1.7493    0.0844 C   0  0  0  0  0  0  0  0  0  0  0  0
   -0.6528    0.3898   -0.1860 C   0  0  0  0  0  0  0  0  0  0  0  0
    0.5708    0.0269   -0.9523 C   0  0  0  0  0  0  0  0  0  0  0  0
    1.3406    0.8490   -1.4261 O   0  0  0  0  0  0  0  0  0  0  0  0
    0.7101   -1.3156   -1.0287 O   0  0  0  0  0  0  0  0  0  0  0  0
    1.8678   -1.7707   -1.7325 C   0  0  0  0  0  0  0  0  0  0  0  0
    3.1716   -1.5805   -0.9531 C   0  0  0  0  0  0  0  0  0  0  0  0
    3.6100   -2.4332   -0.1845 O   0  0  0  0  0  0  0  0  0  0  0  0
    3.7903   -0.3656   -1.1910 N   0  0  0  0  0  0  0  0  0  0  0  0
    4.9654    0.0340   -0.4356 C   0  0  0  0  0  0  0  0  0  0  0  0
    5.8807    0.9591   -1.2464 C   0  0  0  0  0  0  0  0  0  0  0  0
    7.0328    1.3974   -0.4806 N   0  0  0  0  0  0  0  0  0  0  0  0
    7.0181    2.4864    0.3552 C   0  0  0  0  0  0  0  0  0  0  0  0
    5.8863    3.2445    0.4342 O   0  0  0  0  0  0  0  0  0  0  0  0
    8.1594    2.6871    1.0243 C   0  0  0  0  0  0  0  0  0  0  0  0
    9.3409    1.4670    0.6400 S   0  0  0  0  0  0  0  0  0  0  0  0
    8.2088    0.6617   -0.4633 C   0  0  0  0  0  0  0  0  0  0  0  0
    8.4731   -0.3616   -1.0716 O   0  0  0  0  0  0  0  0  0  0  0  0
   -1.5676   -0.5687    0.2683 C   0  0  0  0  0  0  0  0  0  0  0  0
   -6.9681    0.5547   -0.7906 H   0  0  0  0  0  0  0  0  0  0  0  0
   -6.0443    0.2404   -2.2662 H   0  0  0  0  0  0  0  0  0  0  0  0
   -5.3158    1.1714   -0.9434 H   0  0  0  0  0  0  0  0  0  0  0  0
   -4.4466   -1.1607   -1.0372 H   0  0  0  0  0  0  0  0  0  0  0  0
   -6.0711   -1.8032   -0.8544 H   0  0  0  0  0  0  0  0  0  0  0  0
   -6.5198   -0.6875    2.6170 H   0  0  0  0  0  0  0  0  0  0  0  0
   -7.4159   -0.7236    1.1201 H   0  0  0  0  0  0  0  0  0  0  0  0
   -7.7304   -2.8394    2.3113 H   0  0  0  0  0  0  0  0  0  0  0  0
   -5.9942   -3.1344    2.3760 H   0  0  0  0  0  0  0  0  0  0  0  0
   -6.8351   -3.1683    0.8221 H   0  0  0  0  0  0  0  0  0  0  0  0
   -3.7809    1.5087    1.8482 H   0  0  0  0  0  0  0  0  0  0  0  0
   -2.1653    3.2071    1.0251 H   0  0  0  0  0  0  0  0  0  0  0  0
   -0.1762    2.5036   -0.2633 H   0  0  0  0  0  0  0  0  0  0  0  0
    1.9345   -1.2883   -2.7150 H   0  0  0  0  0  0  0  0  0  0  0  0
    1.7448   -2.8417   -1.9223 H   0  0  0  0  0  0  0  0  0  0  0  0
    3.1588    0.3824   -1.4865 H   0  0  0  0  0  0  0  0  0  0  0  0
    5.5209   -0.8579   -0.1154 H   0  0  0  0  0  0  0  0  0  0  0  0
    4.6064    0.5370    0.4726 H   0  0  0  0  0  0  0  0  0  0  0  0
    5.3304    1.8360   -1.6146 H   0  0  0  0  0  0  0  0  0  0  0  0
    6.2345    0.4175   -2.1341 H   0  0  0  0  0  0  0  0  0  0  0  0
    6.0496    3.9651    1.0660 H   0  0  0  0  0  0  0  0  0  0  0  0
    8.3562    3.4815    1.7287 H   0  0  0  0  0  0  0  0  0  0  0  0
   -1.4108   -1.6264    0.0717 H   0  0  0  0  0  0  0  0  0  0  0  0
  1  2  1  0
  2  3  1  0
  3  4  1  0
  4  5  1  0
  3  6  1  0
  6  7  2  0
  6  8  2  0
  6  9  1  0
  9 10  2  0
 10 11  1  0
 11 12  2  0
 12 13  1  0
 13 14  1  0
 14 15  2  0
 14 16  1  0
 16 17  1  0
 17 18  1  0
 18 19  2  0
 18 20  1  0
 20 21  1  0
 21 22  1  0
 22 23  1  0
 23 24  1  0
 24 25  1  0
 24 26  2  0
 26 27  1  0
 27 28  1  0
 28 29  2  0
 13 30  2  0
 30  9  1  0
 28 23  1  0
  1 31  1  0
  1 32  1  0
  1 33  1  0
  2 34  1  0
  2 35  1  0
  4 36  1  0
  4 37  1  0
  5 38  1  0
  5 39  1  0
  5 40  1  0
 10 41  1  0
 11 42  1  0
 12 43  1  0
 17 44  1  0
 17 45  1  0
 20 46  1  0
 21 47  1  0
 21 48  1  0
 22 49  1  0
 22 50  1  0
 25 51  1  0
 26 52  1  0
 30 53  1  0
M  END
$$$$
