
     RDKit          3D

 36 37  0  0  0  0  0  0  0  0999 V2000
   -5.5442   -1.7018   -0.1426 C   0  0  0  0  0  0  0  0  0  0  0  0
   -4.3405   -1.4866    0.7538 C   0  0  0  0  0  0  0  0  0  0  0  0
   -3.5072   -0.4893    0.1504 O   0  0  0  0  0  0  0  0  0  0  0  0
   -2.3791   -0.2123    0.8492 C   0  0  0  0  0  0  0  0  0  0  0  0
   -2.0564   -0.7071    1.9196 O   0  0  0  0  0  0  0  0  0  0  0  0
   -1.5485    0.7910    0.1355 C   0  0  0  0  0  0  0  0  0  0  0  0
   -2.1174    1.6422   -0.8257 C   0  0  0  0  0  0  0  0  0  0  0  0
   -1.3345    2.6039   -1.4675 C   0  0  0  0  0  0  0  0  0  0  0  0
    0.0172    2.7263   -1.1528 C   0  0  0  0  0  0  0  0  0  0  0  0
    0.5923    1.8852   -0.1993 C   0  0  0  0  0  0  0  0  0  0  0  0
   -0.1837    0.9209    0.4527 C   0  0  0  0  0  0  0  0  0  0  0  0
    0.4748    0.0235    1.3595 N   0  0  0  0  0  0  0  0  0  0  0  0
    1.2397   -1.3268    0.6650 S   0  0  0  0  0  6  0  0  0  0  0  0
    0.5612   -1.6515   -0.5741 O   0  0  0  0  0  0  0  0  0  0  0  0
    1.3974   -2.3218    1.7028 O   0  0  0  0  0  0  0  0  0  0  0  0
    2.8456   -0.7221    0.2713 C   0  0  0  0  0  0  0  0  0  0  0  0
    3.2894   -0.7027   -1.0555 C   0  0  0  0  0  0  0  0  0  0  0  0
    4.5678   -0.2223   -1.3455 C   0  0  0  0  0  0  0  0  0  0  0  0
    5.3952    0.2315   -0.3162 C   0  0  0  0  0  0  0  0  0  0  0  0
    4.9452    0.2054    1.0050 C   0  0  0  0  0  0  0  0  0  0  0  0
    3.6702   -0.2738    1.2945 C   0  0  0  0  0  0  0  0  0  0  0  0
    3.2618   -0.2711    2.5701 F   0  0  0  0  0  0  0  0  0  0  0  0
   -6.2136   -2.4575    0.2776 H   0  0  0  0  0  0  0  0  0  0  0  0
   -5.2288   -2.0241   -1.1405 H   0  0  0  0  0  0  0  0  0  0  0  0
   -6.1010   -0.7677   -0.2710 H   0  0  0  0  0  0  0  0  0  0  0  0
   -4.6705   -1.1441    1.7409 H   0  0  0  0  0  0  0  0  0  0  0  0
   -3.7819   -2.4238    0.8552 H   0  0  0  0  0  0  0  0  0  0  0  0
   -3.1723    1.5686   -1.0806 H   0  0  0  0  0  0  0  0  0  0  0  0
   -1.7813    3.2593   -2.2119 H   0  0  0  0  0  0  0  0  0  0  0  0
    0.6259    3.4771   -1.6516 H   0  0  0  0  0  0  0  0  0  0  0  0
    1.6465    1.9986    0.0389 H   0  0  0  0  0  0  0  0  0  0  0  0
   -0.1162   -0.3185    2.1317 H   0  0  0  0  0  0  0  0  0  0  0  0
    2.6518   -1.0591   -1.8621 H   0  0  0  0  0  0  0  0  0  0  0  0
    4.9215   -0.2062   -2.3744 H   0  0  0  0  0  0  0  0  0  0  0  0
    6.3923    0.6021   -0.5431 H   0  0  0  0  0  0  0  0  0  0  0  0
    5.5816    0.5546    1.8130 H   0  0  0  0  0  0  0  0  0  0  0  0
  1  2  1  0
  2  3  1  0
  3  4  1  0
  4  5  2  0
  4  6  1  0
  6  7  2  0
  7  8  1  0
  8  9  2  0
  9 10  1  0
 10 11  2  0
 11 12  1  0
 12 13  1  0
 13 14  2  0
 13 15  2  0
 13 16  1  0
 16 17  2  0
 17 18  1  0
 18 19  2  0
 19 20  1  0
 20 21  2  0
 21 22  1  0
 11  6  1  0
 21 16  1  0
  1 23  1  0
  1 24  1  0
  1 25  1  0
  2 26  1  0
  2 27  1  0
  7 28  1  0
  8 29  1  0
  9 30  1  0
 10 31  1  0
 12 32  1  0
 17 33  1  0
 18 34  1  0
 19 35  1  0
 20 36  1  0
M  END
$$$$
