
     RDKit          3D

 53 54  0  0  0  0  0  0  0  0999 V2000
   -5.3574   -0.7447   -2.2176 C   0  0  0  0  0  0  0  0  0  0  0  0
   -5.3639   -1.7443   -1.0726 C   0  0  0  0  0  0  0  0  0  0  0  0
   -5.4129   -1.0106    0.2179 N   0  0  0  0  0  0  0  0  0  0  0  0
   -6.7892   -0.7837    0.7370 C   0  0  0  0  0  0  0  0  0  0  0  0
   -7.3848   -2.0004    1.4259 C   0  0  0  0  0  0  0  0  0  0  0  0
   -4.2361   -1.4159    1.3804 S   0  0  0  0  0  6  0  0  0  0  0  0
   -4.2020   -2.8587    1.4928 O   0  0  0  0  0  0  0  0  0  0  0  0
   -4.4222   -0.5701    2.5400 O   0  0  0  0  0  0  0  0  0  0  0  0
   -2.7319   -0.8810    0.5939 C   0  0  0  0  0  0  0  0  0  0  0  0
   -2.5165    0.4887    0.4104 C   0  0  0  0  0  0  0  0  0  0  0  0
   -1.3375    0.9275   -0.1978 C   0  0  0  0  0  0  0  0  0  0  0  0
   -0.3729   -0.0021   -0.6157 C   0  0  0  0  0  0  0  0  0  0  0  0
    0.8993    0.4097   -1.2678 C   0  0  0  0  0  0  0  0  0  0  0  0
    1.6943   -0.3765   -1.7544 O   0  0  0  0  0  0  0  0  0  0  0  0
    1.0543    1.7569   -1.2114 O   0  0  0  0  0  0  0  0  0  0  0  0
    2.2402    2.2388   -1.8488 C   0  0  0  0  0  0  0  0  0  0  0  0
    3.5292    1.9964   -1.0605 C   0  0  0  0  0  0  0  0  0  0  0  0
    4.6436    1.9901   -1.5826 O   0  0  0  0  0  0  0  0  0  0  0  0
    3.3604    1.8290    0.2977 N   0  0  0  0  0  0  0  0  0  0  0  0
    4.5020    1.6506    1.1729 C   0  0  0  0  0  0  0  0  0  0  0  0
    5.2454    0.3291    0.9232 C   0  0  0  0  0  0  0  0  0  0  0  0
    6.6774    0.4833    1.0712 N   0  0  0  0  0  0  0  0  0  0  0  0
    7.5515    0.7863    0.0536 C   0  0  0  0  0  0  0  0  0  0  0  0
    7.1356    0.9865   -1.2292 O   0  0  0  0  0  0  0  0  0  0  0  0
    8.8308    0.8670    0.4308 C   0  0  0  0  0  0  0  0  0  0  0  0
    9.0136    0.5926    2.1350 S   0  0  0  0  0  0  0  0  0  0  0  0
    7.2674    0.3646    2.3224 C   0  0  0  0  0  0  0  0  0  0  0  0
    6.7161    0.1555    3.3911 O   0  0  0  0  0  0  0  0  0  0  0  0
   -0.6003   -1.3737   -0.4205 C   0  0  0  0  0  0  0  0  0  0  0  0
   -1.7769   -1.8162    0.1892 C   0  0  0  0  0  0  0  0  0  0  0  0
   -4.4997   -0.0683   -2.1445 H   0  0  0  0  0  0  0  0  0  0  0  0
   -6.2653   -0.1327   -2.2176 H   0  0  0  0  0  0  0  0  0  0  0  0
   -5.2994   -1.2666   -3.1776 H   0  0  0  0  0  0  0  0  0  0  0  0
   -4.4649   -2.3638   -1.1454 H   0  0  0  0  0  0  0  0  0  0  0  0
   -6.2186   -2.4211   -1.1716 H   0  0  0  0  0  0  0  0  0  0  0  0
   -6.7732    0.0692    1.4245 H   0  0  0  0  0  0  0  0  0  0  0  0
   -7.4390   -0.4855   -0.0937 H   0  0  0  0  0  0  0  0  0  0  0  0
   -7.3732   -2.8813    0.7773 H   0  0  0  0  0  0  0  0  0  0  0  0
   -8.4245   -1.7996    1.7041 H   0  0  0  0  0  0  0  0  0  0  0  0
   -6.8434   -2.2510    2.3429 H   0  0  0  0  0  0  0  0  0  0  0  0
   -3.2627    1.2105    0.7380 H   0  0  0  0  0  0  0  0  0  0  0  0
   -1.1887    1.9953   -0.3408 H   0  0  0  0  0  0  0  0  0  0  0  0
    2.1287    3.3216   -1.9678 H   0  0  0  0  0  0  0  0  0  0  0  0
    2.3386    1.8025   -2.8499 H   0  0  0  0  0  0  0  0  0  0  0  0
    2.4293    1.8999    0.6919 H   0  0  0  0  0  0  0  0  0  0  0  0
    4.1400    1.6949    2.2055 H   0  0  0  0  0  0  0  0  0  0  0  0
    5.1632    2.5114    1.0166 H   0  0  0  0  0  0  0  0  0  0  0  0
    4.8932   -0.4113    1.6528 H   0  0  0  0  0  0  0  0  0  0  0  0
    5.0336   -0.1035   -0.0609 H   0  0  0  0  0  0  0  0  0  0  0  0
    6.2061    1.3005   -1.2387 H   0  0  0  0  0  0  0  0  0  0  0  0
    9.6587    1.0903   -0.2272 H   0  0  0  0  0  0  0  0  0  0  0  0
    0.1421   -2.1046   -0.7391 H   0  0  0  0  0  0  0  0  0  0  0  0
   -1.9372   -2.8815    0.3435 H   0  0  0  0  0  0  0  0  0  0  0  0
  1  2  1  0
  2  3  1  0
  3  4  1  0
  4  5  1  0
  3  6  1  0
  6  7  2  0
  6  8  2  0
  6  9  1  0
  9 10  2  0
 10 11  1  0
 11 12  2  0
 12 13  1  0
 13 14  2  0
 13 15  1  0
 15 16  1  0
 16 17  1  0
 17 18  2  0
 17 19  1  0
 19 20  1  0
 20 21  1  0
 21 22  1  0
 22 23  1  0
 23 24  1  0
 23 25  2  0
 25 26  1  0
 26 27  1  0
 27 28  2  0
 12 29  1  0
 29 30  2  0
 30  9  1  0
 27 22  1  0
  1 31  1  0
  1 32  1  0
  1 33  1  0
  2 34  1  0
  2 35  1  0
  4 36  1  0
  4 37  1  0
  5 38  1  0
  5 39  1  0
  5 40  1  0
 10 41  1  0
 11 42  1  0
 16 43  1  0
 16 44  1  0
 19 45  1  0
 20 46  1  0
 20 47  1  0
 21 48  1  0
 21 49  1  0
 24 50  1  0
 25 51  1  0
 29 52  1  0
 30 53  1  0
M  END
$$$$
