
     RDKit          3D

 57 59  0  0  0  0  0  0  0  0999 V2000
   -5.9513    4.0341    0.2410 C   0  0  0  0  0  0  0  0  0  0  0  0
   -6.3644    2.8550   -0.4390 O   0  0  0  0  0  0  0  0  0  0  0  0
   -5.7380    1.6895   -0.0934 C   0  0  0  0  0  0  0  0  0  0  0  0
   -4.6921    1.5608    0.8236 C   0  0  0  0  0  0  0  0  0  0  0  0
   -4.1369    0.3040    1.0837 C   0  0  0  0  0  0  0  0  0  0  0  0
   -4.6290   -0.8220    0.4178 C   0  0  0  0  0  0  0  0  0  0  0  0
   -3.9012   -2.4041    0.7494 S   0  0  0  0  0  6  0  0  0  0  0  0
   -3.8786   -2.5834    2.1843 O   0  0  0  0  0  0  0  0  0  0  0  0
   -4.5026   -3.3894   -0.1241 O   0  0  0  0  0  0  0  0  0  0  0  0
   -2.3116   -2.1870    0.2326 N   0  0  0  0  0  0  0  0  0  0  0  0
   -2.0833   -1.9658   -1.2102 C   0  0  0  0  0  0  0  0  0  0  0  0
   -1.2903   -3.1792   -1.6382 C   0  0  0  0  0  0  0  0  0  0  0  0
   -0.5171   -3.4993   -0.4814 O   0  0  0  0  0  0  0  0  0  0  0  0
   -1.4026   -3.2944    0.6321 C   0  0  0  0  0  0  0  0  0  0  0  0
   -0.6005   -2.9137    1.8950 C   0  0  0  0  0  0  0  0  0  0  0  0
   -0.0213   -1.5804    1.8018 N   0  0  0  0  0  0  0  0  0  0  0  0
    1.2334   -1.3682    1.2801 C   0  0  0  0  0  0  0  0  0  0  0  0
    2.1122   -2.2042    1.1313 O   0  0  0  0  0  0  0  0  0  0  0  0
    1.4755    0.1009    0.8606 C   0  0  0  0  0  0  0  0  0  0  0  0
    0.5859    0.9308    0.9954 O   0  0  0  0  0  0  0  0  0  0  0  0
    2.7300    0.3305    0.3532 N   0  0  0  0  0  0  0  0  0  0  0  0
    3.2241    1.6661    0.1417 C   0  0  0  0  0  0  0  0  0  0  0  0
    4.4497    1.6611   -0.7351 C   0  0  0  0  0  0  0  0  0  0  0  0
    4.3071    1.8973   -2.1132 C   0  0  0  0  0  0  0  0  0  0  0  0
    5.4176    1.8861   -2.9547 C   0  0  0  0  0  0  0  0  0  0  0  0
    6.6800    1.6314   -2.4295 C   0  0  0  0  0  0  0  0  0  0  0  0
    6.8353    1.3804   -1.0639 C   0  0  0  0  0  0  0  0  0  0  0  0
    5.7269    1.3864   -0.2106 C   0  0  0  0  0  0  0  0  0  0  0  0
    5.7771    1.1362    1.1360 O   0  0  0  0  0  0  0  0  0  0  0  0
    7.0392    0.7872    1.6905 C   0  0  0  0  0  0  0  0  0  0  0  0
   -5.6764   -0.7074   -0.4957 C   0  0  0  0  0  0  0  0  0  0  0  0
   -6.2242    0.5519   -0.7480 C   0  0  0  0  0  0  0  0  0  0  0  0
   -6.1246    3.9494    1.3191 H   0  0  0  0  0  0  0  0  0  0  0  0
   -6.5605    4.8640   -0.1299 H   0  0  0  0  0  0  0  0  0  0  0  0
   -4.9032    4.2679    0.0254 H   0  0  0  0  0  0  0  0  0  0  0  0
   -4.2858    2.4170    1.3527 H   0  0  0  0  0  0  0  0  0  0  0  0
   -3.3252    0.2111    1.8019 H   0  0  0  0  0  0  0  0  0  0  0  0
   -1.4837   -1.0541   -1.3116 H   0  0  0  0  0  0  0  0  0  0  0  0
   -2.9923   -1.8422   -1.8031 H   0  0  0  0  0  0  0  0  0  0  0  0
   -0.6347   -2.9801   -2.4897 H   0  0  0  0  0  0  0  0  0  0  0  0
   -1.9402   -4.0292   -1.8748 H   0  0  0  0  0  0  0  0  0  0  0  0
   -1.9396   -4.2361    0.7949 H   0  0  0  0  0  0  0  0  0  0  0  0
   -1.2555   -2.9017    2.7711 H   0  0  0  0  0  0  0  0  0  0  0  0
    0.2025   -3.6394    2.0621 H   0  0  0  0  0  0  0  0  0  0  0  0
   -0.6630   -0.7973    1.7137 H   0  0  0  0  0  0  0  0  0  0  0  0
    3.3992   -0.4283    0.4530 H   0  0  0  0  0  0  0  0  0  0  0  0
    2.4296    2.2772   -0.3043 H   0  0  0  0  0  0  0  0  0  0  0  0
    3.4388    2.1144    1.1189 H   0  0  0  0  0  0  0  0  0  0  0  0
    3.3231    2.0893   -2.5358 H   0  0  0  0  0  0  0  0  0  0  0  0
    5.2968    2.0735   -4.0184 H   0  0  0  0  0  0  0  0  0  0  0  0
    7.5478    1.6227   -3.0842 H   0  0  0  0  0  0  0  0  0  0  0  0
    7.8373    1.1817   -0.6991 H   0  0  0  0  0  0  0  0  0  0  0  0
    6.8924    0.5923    2.7572 H   0  0  0  0  0  0  0  0  0  0  0  0
    7.4313   -0.1286    1.2363 H   0  0  0  0  0  0  0  0  0  0  0  0
    7.7516    1.6134    1.5984 H   0  0  0  0  0  0  0  0  0  0  0  0
   -6.0725   -1.5794   -1.0102 H   0  0  0  0  0  0  0  0  0  0  0  0
   -7.0419    0.6512   -1.4587 H   0  0  0  0  0  0  0  0  0  0  0  0
  1  2  1  0
  2  3  1  0
  3  4  2  0
  4  5  1  0
  5  6  2  0
  6  7  1  0
  7  8  2  0
  7  9  2  0
  7 10  1  0
 10 11  1  0
 11 12  1  0
 12 13  1  0
 13 14  1  0
 14 15  1  0
 15 16  1  0
 16 17  1  0
 17 18  2  0
 17 19  1  0
 19 20  2  0
 19 21  1  0
 21 22  1  0
 22 23  1  0
 23 24  2  0
 24 25  1  0
 25 26  2  0
 26 27  1  0
 27 28  2  0
 28 29  1  0
 29 30  1  0
  6 31  1  0
 31 32  2  0
 32  3  1  0
 14 10  1  0
 28 23  1  0
  1 33  1  0
  1 34  1  0
  1 35  1  0
  4 36  1  0
  5 37  1  0
 11 38  1  0
 11 39  1  0
 12 40  1  0
 12 41  1  0
 14 42  1  0
 15 43  1  0
 15 44  1  0
 16 45  1  0
 21 46  1  0
 22 47  1  0
 22 48  1  0
 24 49  1  0
 25 50  1  0
 26 51  1  0
 27 52  1  0
 30 53  1  0
 30 54  1  0
 30 55  1  0
 31 56  1  0
 32 57  1  0
M  END
$$$$
