
     RDKit          3D

 64 67  0  0  0  0  0  0  0  0999 V2000
    8.6580   -1.7087    2.2396 C   0  0  0  0  0  0  0  0  0  0  0  0
    7.3171   -2.1427    2.0482 O   0  0  0  0  0  0  0  0  0  0  0  0
    6.5910   -1.4959    1.0878 C   0  0  0  0  0  0  0  0  0  0  0  0
    5.3230   -2.0297    0.8529 C   0  0  0  0  0  0  0  0  0  0  0  0
    4.4744   -1.4521   -0.0980 C   0  0  0  0  0  0  0  0  0  0  0  0
    4.8773   -0.3234   -0.8217 C   0  0  0  0  0  0  0  0  0  0  0  0
    3.9558    0.2112   -1.7431 N   0  0  0  0  0  0  0  0  0  0  0  0
    4.0866    1.3518   -2.5184 C   0  0  0  0  0  0  0  0  0  0  0  0
    5.0596    2.1002   -2.5698 O   0  0  0  0  0  0  0  0  0  0  0  0
    2.8411    1.6318   -3.3718 C   0  0  0  0  0  0  0  0  0  0  0  0
    1.6835    1.9799   -2.5390 N   0  0  0  0  0  0  0  0  0  0  0  0
    1.5959    3.3731   -2.1190 C   0  0  0  0  0  0  0  0  0  0  0  0
    0.8810    0.9512   -2.0810 C   0  0  0  0  0  0  0  0  0  0  0  0
    1.2091   -0.2293   -2.2092 O   0  0  0  0  0  0  0  0  0  0  0  0
   -0.4008    1.3176   -1.4266 C   0  0  0  0  0  0  0  0  0  0  0  0
   -1.0771    0.3971   -0.7191 C   0  0  0  0  0  0  0  0  0  0  0  0
   -2.3232    0.6128   -0.0553 C   0  0  0  0  0  0  0  0  0  0  0  0
   -2.8028    1.8246    0.3890 C   0  0  0  0  0  0  0  0  0  0  0  0
   -4.0014    1.5785    1.0182 N   0  0  0  0  0  0  0  0  0  0  0  0
   -4.8785    2.5180    1.6350 C   0  0  0  0  0  0  0  0  0  0  0  0
   -4.5776    3.8874    1.6683 C   0  0  0  0  0  0  0  0  0  0  0  0
   -5.4585    4.7841    2.2810 C   0  0  0  0  0  0  0  0  0  0  0  0
   -6.6418    4.3241    2.8574 C   0  0  0  0  0  0  0  0  0  0  0  0
   -6.9460    2.9665    2.8303 C   0  0  0  0  0  0  0  0  0  0  0  0
   -6.0696    2.0653    2.2219 C   0  0  0  0  0  0  0  0  0  0  0  0
   -4.3042    0.2579    1.0010 N   0  0  0  0  0  0  0  0  0  0  0  0
   -3.3058   -0.3413    0.3352 C   0  0  0  0  0  0  0  0  0  0  0  0
   -3.3418   -1.7874    0.1024 C   0  0  0  0  0  0  0  0  0  0  0  0
   -3.7300   -2.6554    1.1318 C   0  0  0  0  0  0  0  0  0  0  0  0
   -3.7841   -4.0361    0.9156 C   0  0  0  0  0  0  0  0  0  0  0  0
   -3.4614   -4.5719   -0.3370 C   0  0  0  0  0  0  0  0  0  0  0  0
   -3.5119   -6.0564   -0.5558 C   0  0  0  0  0  0  0  0  0  0  0  0
   -3.0705   -3.7066   -1.3652 C   0  0  0  0  0  0  0  0  0  0  0  0
   -3.0199   -2.3247   -1.1506 C   0  0  0  0  0  0  0  0  0  0  0  0
    6.1465    0.2056   -0.5875 C   0  0  0  0  0  0  0  0  0  0  0  0
    7.0003   -0.3779    0.3606 C   0  0  0  0  0  0  0  0  0  0  0  0
    9.1063   -2.3423    3.0125 H   0  0  0  0  0  0  0  0  0  0  0  0
    9.2445   -1.8345    1.3236 H   0  0  0  0  0  0  0  0  0  0  0  0
    8.6955   -0.6755    2.6006 H   0  0  0  0  0  0  0  0  0  0  0  0
    4.9872   -2.8952    1.4180 H   0  0  0  0  0  0  0  0  0  0  0  0
    3.4923   -1.8933   -0.2560 H   0  0  0  0  0  0  0  0  0  0  0  0
    3.0588   -0.2738   -1.8213 H   0  0  0  0  0  0  0  0  0  0  0  0
    2.6220    0.7420   -3.9748 H   0  0  0  0  0  0  0  0  0  0  0  0
    3.0457    2.4573   -4.0634 H   0  0  0  0  0  0  0  0  0  0  0  0
    1.1998    3.9591   -2.9520 H   0  0  0  0  0  0  0  0  0  0  0  0
    2.5944    3.7397   -1.8637 H   0  0  0  0  0  0  0  0  0  0  0  0
    0.9602    3.5003   -1.2403 H   0  0  0  0  0  0  0  0  0  0  0  0
   -0.7933    2.3132   -1.5767 H   0  0  0  0  0  0  0  0  0  0  0  0
   -0.6562   -0.6073   -0.6396 H   0  0  0  0  0  0  0  0  0  0  0  0
   -2.3860    2.8158    0.3280 H   0  0  0  0  0  0  0  0  0  0  0  0
   -3.6707    4.2904    1.2299 H   0  0  0  0  0  0  0  0  0  0  0  0
   -5.2233    5.8443    2.3066 H   0  0  0  0  0  0  0  0  0  0  0  0
   -7.3253    5.0238    3.3316 H   0  0  0  0  0  0  0  0  0  0  0  0
   -7.8687    2.6042    3.2781 H   0  0  0  0  0  0  0  0  0  0  0  0
   -6.3319    1.0084    2.2097 H   0  0  0  0  0  0  0  0  0  0  0  0
   -3.9986   -2.2564    2.1082 H   0  0  0  0  0  0  0  0  0  0  0  0
   -4.0887   -4.6899    1.7295 H   0  0  0  0  0  0  0  0  0  0  0  0
   -4.4383   -6.4711   -0.1432 H   0  0  0  0  0  0  0  0  0  0  0  0
   -2.6537   -6.5373   -0.0728 H   0  0  0  0  0  0  0  0  0  0  0  0
   -3.4888   -6.3014   -1.6240 H   0  0  0  0  0  0  0  0  0  0  0  0
   -2.8127   -4.0983   -2.3468 H   0  0  0  0  0  0  0  0  0  0  0  0
   -2.7440   -1.6761   -1.9791 H   0  0  0  0  0  0  0  0  0  0  0  0
    6.5045    1.0807   -1.1254 H   0  0  0  0  0  0  0  0  0  0  0  0
    7.9755    0.0741    0.5044 H   0  0  0  0  0  0  0  0  0  0  0  0
  1  2  1  0
  2  3  1  0
  3  4  2  0
  4  5  1  0
  5  6  2  0
  6  7  1  0
  7  8  1  0
  8  9  2  0
  8 10  1  0
 10 11  1  0
 11 12  1  0
 11 13  1  0
 13 14  2  0
 13 15  1  0
 15 16  2  3
 16 17  1  0
 17 18  2  0
 18 19  1  0
 19 20  1  0
 20 21  2  0
 21 22  1  0
 22 23  2  0
 23 24  1  0
 24 25  2  0
 19 26  1  0
 26 27  2  0
 27 28  1  0
 28 29  2  0
 29 30  1  0
 30 31  2  0
 31 32  1  0
 31 33  1  0
 33 34  2  0
  6 35  1  0
 35 36  2  0
 36  3  1  0
 27 17  1  0
 34 28  1  0
 25 20  1  0
  1 37  1  0
  1 38  1  0
  1 39  1  0
  4 40  1  0
  5 41  1  0
  7 42  1  0
 10 43  1  0
 10 44  1  0
 12 45  1  0
 12 46  1  0
 12 47  1  0
 15 48  1  0
 16 49  1  0
 18 50  1  0
 21 51  1  0
 22 52  1  0
 23 53  1  0
 24 54  1  0
 25 55  1  0
 29 56  1  0
 30 57  1  0
 32 58  1  0
 32 59  1  0
 32 60  1  0
 33 61  1  0
 34 62  1  0
 35 63  1  0
 36 64  1  0
M  END
$$$$
