
     RDKit          3D

 40 42  0  0  0  0  0  0  0  0999 V2000
   -6.0367   -0.6450    1.5680 C   0  0  0  0  0  0  0  0  0  0  0  0
   -5.4157   -0.2756    0.2086 C   0  0  0  0  0  0  0  0  0  0  0  0
   -6.0675   -1.1662   -0.8719 C   0  0  0  0  0  0  0  0  0  0  0  0
   -5.7387    1.1919   -0.1284 C   0  0  0  0  0  0  0  0  0  0  0  0
   -3.9111   -0.5050    0.2282 C   0  0  0  0  0  0  0  0  0  0  0  0
   -3.2733   -1.3641   -0.5448 N   0  0  0  0  0  0  0  0  0  0  0  0
   -1.9093   -1.3715   -0.3250 N   0  0  0  0  0  0  0  0  0  0  0  0
   -1.5633   -0.5200    0.6051 C   0  0  0  0  0  0  0  0  0  0  0  0
   -0.3332   -0.2084    1.1159 N   0  0  0  0  0  0  0  0  0  0  0  0
    0.8200   -0.8361    0.6820 C   0  0  0  0  0  0  0  0  0  0  0  0
    0.8837   -1.7232   -0.1612 O   0  0  0  0  0  0  0  0  0  0  0  0
    2.0658   -0.2733    1.3836 C   0  0  0  0  0  0  0  0  0  0  0  0
    3.2843   -0.9554    1.1154 O   0  0  0  0  0  0  0  0  0  0  0  0
    4.0833   -0.2993    0.2180 C   0  0  0  0  0  0  0  0  0  0  0  0
    3.6621   -0.0187   -1.0952 C   0  0  0  0  0  0  0  0  0  0  0  0
    4.5232    0.6283   -1.9880 C   0  0  0  0  0  0  0  0  0  0  0  0
    5.7859    0.9563   -1.5390 C   0  0  0  0  0  0  0  0  0  0  0  0
    6.2014    0.6582   -0.2616 C   0  0  0  0  0  0  0  0  0  0  0  0
    5.3760    0.0220    0.6405 C   0  0  0  0  0  0  0  0  0  0  0  0
    7.4819    1.0558   -0.0261 O   0  0  0  0  0  0  0  0  0  0  0  0
    7.8278    1.6264   -1.3051 C   0  0  0  0  0  0  0  0  0  0  0  0
    6.7516    1.5796   -2.2657 O   0  0  0  0  0  0  0  0  0  0  0  0
   -2.8543    0.3578    1.2929 S   0  0  0  0  0  0  0  0  0  0  0  0
   -7.1282   -0.5422    1.5445 H   0  0  0  0  0  0  0  0  0  0  0  0
   -5.8044   -1.6809    1.8430 H   0  0  0  0  0  0  0  0  0  0  0  0
   -5.6688   -0.0002    2.3751 H   0  0  0  0  0  0  0  0  0  0  0  0
   -7.1535   -1.0189   -0.9069 H   0  0  0  0  0  0  0  0  0  0  0  0
   -5.6709   -0.9393   -1.8690 H   0  0  0  0  0  0  0  0  0  0  0  0
   -5.8848   -2.2301   -0.6781 H   0  0  0  0  0  0  0  0  0  0  0  0
   -5.3777    1.8790    0.6460 H   0  0  0  0  0  0  0  0  0  0  0  0
   -5.2779    1.4920   -1.0768 H   0  0  0  0  0  0  0  0  0  0  0  0
   -6.8206    1.3475   -0.2188 H   0  0  0  0  0  0  0  0  0  0  0  0
   -0.3070    0.4984    1.8347 H   0  0  0  0  0  0  0  0  0  0  0  0
    2.1371    0.8028    1.1706 H   0  0  0  0  0  0  0  0  0  0  0  0
    1.8951   -0.3696    2.4632 H   0  0  0  0  0  0  0  0  0  0  0  0
    2.6789   -0.3303   -1.4423 H   0  0  0  0  0  0  0  0  0  0  0  0
    4.2156    0.8462   -3.0048 H   0  0  0  0  0  0  0  0  0  0  0  0
    5.7199   -0.2208    1.6391 H   0  0  0  0  0  0  0  0  0  0  0  0
    8.6874    1.0798   -1.7121 H   0  0  0  0  0  0  0  0  0  0  0  0
    8.1157    2.6740   -1.1537 H   0  0  0  0  0  0  0  0  0  0  0  0
  1  2  1  0
  2  3  1  0
  2  4  1  0
  2  5  1  0
  5  6  2  0
  6  7  1  0
  7  8  2  0
  8  9  1  0
  9 10  1  0
 10 11  2  0
 10 12  1  0
 12 13  1  0
 13 14  1  0
 14 15  2  0
 15 16  1  0
 16 17  2  0
 17 18  1  0
 18 19  2  0
 18 20  1  0
 20 21  1  0
 21 22  1  0
  8 23  1  0
 23  5  1  0
 19 14  1  0
 22 17  1  0
  1 24  1  0
  1 25  1  0
  1 26  1  0
  3 27  1  0
  3 28  1  0
  3 29  1  0
  4 30  1  0
  4 31  1  0
  4 32  1  0
  9 33  1  0
 12 34  1  0
 12 35  1  0
 15 36  1  0
 16 37  1  0
 19 38  1  0
 21 39  1  0
 21 40  1  0
M  END
$$$$
