
     RDKit          3D

 42 41  0  0  0  0  0  0  0  0999 V2000
   -4.6108   -0.6607    2.4456 C   0  0  0  0  0  0  0  0  0  0  0  0
   -3.9579   -0.1507    1.1870 C   0  0  0  0  0  0  0  0  0  0  0  0
   -4.0040    1.3445    1.0339 C   0  0  0  0  0  0  0  0  0  0  0  0
   -3.3889   -1.0072    0.3159 C   0  0  0  0  0  0  0  0  0  0  0  0
   -2.7185   -0.6934   -0.9958 C   0  0  0  0  0  0  0  0  0  0  0  0
   -1.2388   -1.1041   -1.0476 C   0  0  0  0  0  0  0  0  0  0  0  0
   -0.2932   -0.1344   -0.3578 C   0  0  0  0  0  0  0  0  0  0  0  0
   -0.1947   -0.2696    1.1375 C   0  0  0  0  0  0  0  0  0  0  0  0
    0.4322    0.7372   -1.0880 C   0  0  0  0  0  0  0  0  0  0  0  0
    1.4084    1.7713   -0.5910 C   0  0  0  0  0  0  0  0  0  0  0  0
    2.8635    1.4496   -0.9634 C   0  0  0  0  0  0  0  0  0  0  0  0
    3.4735    0.3184   -0.1584 C   0  0  0  0  0  0  0  0  0  0  0  0
    3.9645    0.7041    1.2143 C   0  0  0  0  0  0  0  0  0  0  0  0
    3.6140   -0.9486   -0.5982 C   0  0  0  0  0  0  0  0  0  0  0  0
    3.1750   -1.5250   -1.9052 C   0  0  0  0  0  0  0  0  0  0  0  0
    4.3312   -1.9469   -2.6129 O   0  0  0  0  0  0  0  0  0  0  0  0
   -4.1200   -0.2345    3.3269 H   0  0  0  0  0  0  0  0  0  0  0  0
   -5.6686   -0.3779    2.4645 H   0  0  0  0  0  0  0  0  0  0  0  0
   -4.5567   -1.7514    2.5308 H   0  0  0  0  0  0  0  0  0  0  0  0
   -5.0415    1.6799    0.9346 H   0  0  0  0  0  0  0  0  0  0  0  0
   -3.4507    1.7139    0.1685 H   0  0  0  0  0  0  0  0  0  0  0  0
   -3.5700    1.8251    1.9174 H   0  0  0  0  0  0  0  0  0  0  0  0
   -3.4190   -2.0721    0.5489 H   0  0  0  0  0  0  0  0  0  0  0  0
   -3.2539   -1.2655   -1.7651 H   0  0  0  0  0  0  0  0  0  0  0  0
   -2.8251    0.3561   -1.2838 H   0  0  0  0  0  0  0  0  0  0  0  0
   -0.9565   -1.1879   -2.1063 H   0  0  0  0  0  0  0  0  0  0  0  0
   -1.0996   -2.1118   -0.6352 H   0  0  0  0  0  0  0  0  0  0  0  0
    0.7282    0.1532    1.5417 H   0  0  0  0  0  0  0  0  0  0  0  0
   -1.0346    0.2311    1.6257 H   0  0  0  0  0  0  0  0  0  0  0  0
   -0.2007   -1.3253    1.4289 H   0  0  0  0  0  0  0  0  0  0  0  0
    0.3038    0.7373   -2.1704 H   0  0  0  0  0  0  0  0  0  0  0  0
    1.3129    1.9454    0.4853 H   0  0  0  0  0  0  0  0  0  0  0  0
    1.1363    2.7240   -1.0643 H   0  0  0  0  0  0  0  0  0  0  0  0
    3.4711    2.3500   -0.8017 H   0  0  0  0  0  0  0  0  0  0  0  0
    2.9389    1.2545   -2.0395 H   0  0  0  0  0  0  0  0  0  0  0  0
    3.1399    1.0813    1.8268 H   0  0  0  0  0  0  0  0  0  0  0  0
    4.4109   -0.1417    1.7483 H   0  0  0  0  0  0  0  0  0  0  0  0
    4.7272    1.4859    1.1380 H   0  0  0  0  0  0  0  0  0  0  0  0
    4.0783   -1.6815    0.0611 H   0  0  0  0  0  0  0  0  0  0  0  0
    2.5393   -2.3990   -1.7324 H   0  0  0  0  0  0  0  0  0  0  0  0
    2.6191   -0.8287   -2.5357 H   0  0  0  0  0  0  0  0  0  0  0  0
    4.9358   -1.1852   -2.6291 H   0  0  0  0  0  0  0  0  0  0  0  0
  1  2  1  0
  2  3  1  0
  2  4  2  3
  4  5  1  0
  5  6  1  0
  6  7  1  0
  7  8  1  0
  7  9  2  3
  9 10  1  0
 10 11  1  0
 11 12  1  0
 12 13  1  0
 12 14  2  3
 14 15  1  0
 15 16  1  0
  1 17  1  0
  1 18  1  0
  1 19  1  0
  3 20  1  0
  3 21  1  0
  3 22  1  0
  4 23  1  0
  5 24  1  0
  5 25  1  0
  6 26  1  0
  6 27  1  0
  8 28  1  0
  8 29  1  0
  8 30  1  0
  9 31  1  0
 10 32  1  0
 10 33  1  0
 11 34  1  0
 11 35  1  0
 13 36  1  0
 13 37  1  0
 13 38  1  0
 14 39  1  0
 15 40  1  0
 15 41  1  0
 16 42  1  0
M  END
$$$$
