
     RDKit          3D

 58 62  0  0  0  0  0  0  0  0999 V2000
    7.6937    3.4158    0.7285 C   0  0  0  0  0  0  0  0  0  0  0  0
    7.1943    2.2164    1.3065 O   0  0  0  0  0  0  0  0  0  0  0  0
    5.8774    1.9246    1.0784 C   0  0  0  0  0  0  0  0  0  0  0  0
    5.4315    0.7392    1.6676 C   0  0  0  0  0  0  0  0  0  0  0  0
    4.1081    0.3195    1.5149 C   0  0  0  0  0  0  0  0  0  0  0  0
    3.2077    1.0879    0.7703 C   0  0  0  0  0  0  0  0  0  0  0  0
    1.7813    0.6338    0.5808 C   0  0  0  0  0  0  0  0  0  0  0  0
    1.6009   -0.1513   -0.7218 C   0  0  0  0  0  0  0  0  0  0  0  0
    0.1977   -0.5840   -0.8735 N   0  0  0  0  0  0  0  0  0  0  0  0
   -0.7125    0.2961   -1.4768 C   0  0  0  0  0  0  0  0  0  0  0  0
   -0.3060    1.4597   -1.9048 N   0  0  0  0  0  0  0  0  0  0  0  0
   -2.1614   -0.1126   -1.6225 C   0  0  0  0  0  0  0  0  0  0  0  0
   -3.1783    0.7740   -2.2610 C   0  0  0  0  0  0  0  0  0  0  0  0
   -2.8323    1.6730   -3.0228 O   0  0  0  0  0  0  0  0  0  0  0  0
   -4.4859    0.5661   -1.8923 N   0  0  0  0  0  0  0  0  0  0  0  0
   -5.5286    1.4872   -2.2888 C   0  0  0  0  0  0  0  0  0  0  0  0
   -5.6947    2.4918   -1.2111 C   0  0  0  0  0  0  0  0  0  0  0  0
   -5.1696    3.7501   -1.0012 C   0  0  0  0  0  0  0  0  0  0  0  0
   -5.6994    4.2028    0.2304 C   0  0  0  0  0  0  0  0  0  0  0  0
   -6.5088    3.1927    0.6945 C   0  0  0  0  0  0  0  0  0  0  0  0
   -6.5095    2.1465   -0.1715 O   0  0  0  0  0  0  0  0  0  0  0  0
   -2.4611   -1.3492   -1.1877 C   0  0  0  0  0  0  0  0  0  0  0  0
   -1.4909   -2.2184   -0.5366 C   0  0  0  0  0  0  0  0  0  0  0  0
   -1.9303   -3.5461   -0.0209 C   0  0  0  0  0  0  0  0  0  0  0  0
   -3.1083   -3.8896   -0.1474 O   0  0  0  0  0  0  0  0  0  0  0  0
   -0.9557   -4.3162    0.5869 N   0  0  0  0  0  0  0  0  0  0  0  0
   -1.2855   -5.5716    1.0871 C   0  0  0  0  0  0  0  0  0  0  0  0
   -0.3789   -6.3500    1.6907 C   0  0  0  0  0  0  0  0  0  0  0  0
    0.9764   -5.8906    1.8349 C   0  0  0  0  0  0  0  0  0  0  0  0
    1.3368   -4.6887    1.3696 C   0  0  0  0  0  0  0  0  0  0  0  0
    0.3298   -3.8199    0.6967 C   0  0  0  0  0  0  0  0  0  0  0  0
    0.7067   -2.6627    0.2579 N   0  0  0  0  0  0  0  0  0  0  0  0
   -0.2015   -1.8451   -0.3757 C   0  0  0  0  0  0  0  0  0  0  0  0
    3.6575    2.2731    0.1752 C   0  0  0  0  0  0  0  0  0  0  0  0
    4.9840    2.6904    0.3297 C   0  0  0  0  0  0  0  0  0  0  0  0
    8.7493    3.5047    1.0029 H   0  0  0  0  0  0  0  0  0  0  0  0
    7.1719    4.2929    1.1256 H   0  0  0  0  0  0  0  0  0  0  0  0
    7.6360    3.3814   -0.3645 H   0  0  0  0  0  0  0  0  0  0  0  0
    6.1231    0.1363    2.2505 H   0  0  0  0  0  0  0  0  0  0  0  0
    3.7875   -0.6096    1.9804 H   0  0  0  0  0  0  0  0  0  0  0  0
    1.1199    1.5095    0.5991 H   0  0  0  0  0  0  0  0  0  0  0  0
    1.4759    0.0215    1.4391 H   0  0  0  0  0  0  0  0  0  0  0  0
    2.2783   -1.0151   -0.7401 H   0  0  0  0  0  0  0  0  0  0  0  0
    1.9136    0.4531   -1.5832 H   0  0  0  0  0  0  0  0  0  0  0  0
   -1.0840    1.9646   -2.3643 H   0  0  0  0  0  0  0  0  0  0  0  0
   -4.6938   -0.0041   -1.0844 H   0  0  0  0  0  0  0  0  0  0  0  0
   -5.2808    1.9672   -3.2408 H   0  0  0  0  0  0  0  0  0  0  0  0
   -6.4473    0.9073   -2.4215 H   0  0  0  0  0  0  0  0  0  0  0  0
   -4.4818    4.2669   -1.6574 H   0  0  0  0  0  0  0  0  0  0  0  0
   -5.5113    5.1468    0.7221 H   0  0  0  0  0  0  0  0  0  0  0  0
   -7.1193    3.0687    1.5781 H   0  0  0  0  0  0  0  0  0  0  0  0
   -3.4592   -1.7611   -1.3080 H   0  0  0  0  0  0  0  0  0  0  0  0
   -2.3159   -5.8978    0.9674 H   0  0  0  0  0  0  0  0  0  0  0  0
   -0.6451   -7.3284    2.0778 H   0  0  0  0  0  0  0  0  0  0  0  0
    1.6948   -6.5387    2.3268 H   0  0  0  0  0  0  0  0  0  0  0  0
    2.3463   -4.3064    1.4569 H   0  0  0  0  0  0  0  0  0  0  0  0
    2.9738    2.8796   -0.4171 H   0  0  0  0  0  0  0  0  0  0  0  0
    5.2837    3.6159   -0.1498 H   0  0  0  0  0  0  0  0  0  0  0  0
  1  2  1  0
  2  3  1  0
  3  4  2  0
  4  5  1  0
  5  6  2  0
  6  7  1  0
  7  8  1  0
  8  9  1  0
  9 10  1  0
 10 11  2  3
 10 12  1  0
 12 13  1  0
 13 14  2  0
 13 15  1  0
 15 16  1  0
 16 17  1  0
 17 18  2  0
 18 19  1  0
 19 20  2  0
 20 21  1  0
 12 22  2  0
 22 23  1  0
 23 24  1  0
 24 25  2  0
 24 26  1  0
 26 27  1  0
 27 28  2  0
 28 29  1  0
 29 30  2  0
 30 31  1  0
 31 32  2  0
 32 33  1  0
  6 34  1  0
 34 35  2  0
 35  3  1  0
 33  9  1  0
 21 17  1  0
 33 23  2  0
 31 26  1  0
  1 36  1  0
  1 37  1  0
  1 38  1  0
  4 39  1  0
  5 40  1  0
  7 41  1  0
  7 42  1  0
  8 43  1  0
  8 44  1  0
 11 45  1  0
 15 46  1  0
 16 47  1  0
 16 48  1  0
 18 49  1  0
 19 50  1  0
 20 51  1  0
 22 52  1  0
 27 53  1  0
 28 54  1  0
 29 55  1  0
 30 56  1  0
 34 57  1  0
 35 58  1  0
M  END
$$$$
