
     RDKit          3D

 85 87  0  0  0  0  0  0  0  0999 V2000
   -2.7452    4.5593    0.0408 C   0  0  0  0  0  0  0  0  0  0  0  0
   -1.8950    3.4088   -0.3996 C   0  0  0  0  0  0  0  0  0  0  0  0
   -0.9745    3.4952   -1.1982 O   0  0  0  0  0  0  0  0  0  0  0  0
   -2.3116    2.2683    0.2062 O   0  0  0  0  0  0  0  0  0  0  0  0
   -1.5027    1.0556    0.0318 C   0  0  1  0  0  0  0  0  0  0  0  0
   -0.6326    0.9732    1.3312 C   0  0  2  0  0  0  0  0  0  0  0  0
    0.4183    1.9695    1.2143 O   0  0  0  0  0  0  0  0  0  0  0  0
    0.3147    3.0923    1.9675 C   0  0  0  0  0  0  0  0  0  0  0  0
    1.4177    4.0470    1.6332 C   0  0  0  0  0  0  0  0  0  0  0  0
   -0.5322    3.3152    2.8237 O   0  0  0  0  0  0  0  0  0  0  0  0
    0.0867   -0.2947    1.7802 C   0  0  0  0  0  0  0  0  0  0  0  0
    0.0727   -0.4601    3.2892 C   0  0  0  0  0  0  0  0  0  0  0  0
    0.7574   -1.2113    1.0486 C   0  0  0  0  0  0  0  0  0  0  0  0
    1.0042   -1.2647   -0.4490 C   0  0  1  0  0  0  0  0  0  0  0  0
    2.5138   -1.2537   -0.8048 C   0  0  1  0  0  0  0  0  0  0  0  0
    3.2882   -0.4397    0.0877 O   0  0  0  0  0  0  0  0  0  0  0  0
    3.3642    0.8768   -0.2266 C   0  0  0  0  0  0  0  0  0  0  0  0
    2.8993    1.4175   -1.2166 O   0  0  0  0  0  0  0  0  0  0  0  0
    4.1532    1.5892    0.8061 C   0  0  0  0  0  0  0  0  0  0  0  0
    4.2599    1.1074    2.1178 C   0  0  0  0  0  0  0  0  0  0  0  0
    5.0019    1.8174    3.0631 C   0  0  0  0  0  0  0  0  0  0  0  0
    5.6336    3.0078    2.7049 C   0  0  0  0  0  0  0  0  0  0  0  0
    5.5265    3.4957    1.4015 C   0  0  0  0  0  0  0  0  0  0  0  0
    4.7825    2.7897    0.4534 C   0  0  0  0  0  0  0  0  0  0  0  0
    2.9476   -2.7168   -0.6493 C   0  0  2  0  0  0  0  0  0  0  0  0
    4.2054   -3.0324   -1.4522 C   0  0  0  0  0  0  0  0  0  0  0  0
    1.7325   -3.5466   -1.0891 C   0  0  0  0  0  0  0  0  0  0  0  0
    0.5239   -2.5875   -1.1197 C   0  0  1  0  0  0  0  0  0  0  0  0
   -0.5784   -3.2270   -0.4754 O   0  0  0  0  0  0  0  0  0  0  0  0
    0.1387   -2.2836   -2.5925 C   0  0  0  0  0  0  0  0  0  0  0  0
    0.9032   -1.7337   -3.3877 O   0  0  0  0  0  0  0  0  0  0  0  0
   -1.1804   -2.7688   -3.0853 C   0  0  0  0  0  0  0  0  0  0  0  0
   -1.1944   -4.2008   -3.5190 C   0  0  0  0  0  0  0  0  0  0  0  0
   -2.2550   -1.9623   -3.1322 C   0  0  0  0  0  0  0  0  0  0  0  0
   -2.3778   -0.5070   -2.7486 C   0  0  0  0  0  0  0  0  0  0  0  0
   -3.3098   -0.1875   -1.5214 C   0  0  0  0  0  0  0  0  0  0  0  0
   -4.4457   -1.2382   -1.3946 C   0  0  0  0  0  0  0  0  0  0  0  0
   -4.0182    1.1512   -1.8140 C   0  0  0  0  0  0  0  0  0  0  0  0
   -2.4816   -0.1423   -0.1658 C   0  0  2  0  0  0  0  0  0  0  0  0
   -3.4152   -0.1250    0.9473 O   0  0  0  0  0  0  0  0  0  0  0  0
   -3.3838   -1.1777    1.8094 C   0  0  0  0  0  0  0  0  0  0  0  0
   -4.4049   -0.9889    2.8896 C   0  0  0  0  0  0  0  0  0  0  0  0
   -2.6105   -2.1257    1.7484 O   0  0  0  0  0  0  0  0  0  0  0  0
   -2.6512    4.6977    1.1197 H   0  0  0  0  0  0  0  0  0  0  0  0
   -2.4072    5.4715   -0.4605 H   0  0  0  0  0  0  0  0  0  0  0  0
   -3.7856    4.3731   -0.2327 H   0  0  0  0  0  0  0  0  0  0  0  0
   -0.8595    1.1717   -0.8435 H   0  0  0  0  0  0  0  0  0  0  0  0
   -1.3120    1.2509    2.1504 H   0  0  0  0  0  0  0  0  0  0  0  0
    1.5833    4.0611    0.5521 H   0  0  0  0  0  0  0  0  0  0  0  0
    1.1284    5.0543    1.9431 H   0  0  0  0  0  0  0  0  0  0  0  0
    2.3280    3.7498    2.1555 H   0  0  0  0  0  0  0  0  0  0  0  0
   -0.9527   -0.5746    3.6522 H   0  0  0  0  0  0  0  0  0  0  0  0
    0.5196    0.4168    3.7669 H   0  0  0  0  0  0  0  0  0  0  0  0
    0.6354   -1.3354    3.6269 H   0  0  0  0  0  0  0  0  0  0  0  0
    1.2306   -2.0288    1.5950 H   0  0  0  0  0  0  0  0  0  0  0  0
    0.5415   -0.3988   -0.9235 H   0  0  0  0  0  0  0  0  0  0  0  0
    2.6718   -0.9299   -1.8434 H   0  0  0  0  0  0  0  0  0  0  0  0
    3.7618    0.1868    2.4143 H   0  0  0  0  0  0  0  0  0  0  0  0
    5.0827    1.4426    4.0809 H   0  0  0  0  0  0  0  0  0  0  0  0
    6.2070    3.5622    3.4441 H   0  0  0  0  0  0  0  0  0  0  0  0
    6.0179    4.4241    1.1239 H   0  0  0  0  0  0  0  0  0  0  0  0
    4.6975    3.1751   -0.5619 H   0  0  0  0  0  0  0  0  0  0  0  0
    3.1709   -2.9290    0.4063 H   0  0  0  0  0  0  0  0  0  0  0  0
    5.0460   -2.4175   -1.1157 H   0  0  0  0  0  0  0  0  0  0  0  0
    4.0536   -2.8419   -2.5210 H   0  0  0  0  0  0  0  0  0  0  0  0
    4.4863   -4.0841   -1.3341 H   0  0  0  0  0  0  0  0  0  0  0  0
    1.9023   -4.0116   -2.0685 H   0  0  0  0  0  0  0  0  0  0  0  0
    1.5770   -4.3723   -0.3833 H   0  0  0  0  0  0  0  0  0  0  0  0
   -0.6830   -2.9322    0.4516 H   0  0  0  0  0  0  0  0  0  0  0  0
   -0.9501   -4.8624   -2.6821 H   0  0  0  0  0  0  0  0  0  0  0  0
   -0.4646   -4.3638   -4.3193 H   0  0  0  0  0  0  0  0  0  0  0  0
   -2.1728   -4.5042   -3.9068 H   0  0  0  0  0  0  0  0  0  0  0  0
   -3.1743   -2.3941   -3.5287 H   0  0  0  0  0  0  0  0  0  0  0  0
   -1.3896   -0.0604   -2.5986 H   0  0  0  0  0  0  0  0  0  0  0  0
   -2.7818   -0.0105   -3.6397 H   0  0  0  0  0  0  0  0  0  0  0  0
   -4.9908   -1.3471   -2.3365 H   0  0  0  0  0  0  0  0  0  0  0  0
   -4.0617   -2.2221   -1.1045 H   0  0  0  0  0  0  0  0  0  0  0  0
   -5.1850   -0.9441   -0.6392 H   0  0  0  0  0  0  0  0  0  0  0  0
   -3.3039    1.9361   -2.0779 H   0  0  0  0  0  0  0  0  0  0  0  0
   -4.7057    1.0576   -2.6655 H   0  0  0  0  0  0  0  0  0  0  0  0
   -4.6156    1.4886   -0.9546 H   0  0  0  0  0  0  0  0  0  0  0  0
   -1.8979   -1.0618   -0.1440 H   0  0  0  0  0  0  0  0  0  0  0  0
   -5.2871   -0.4757    2.4937 H   0  0  0  0  0  0  0  0  0  0  0  0
   -3.9680   -0.4095    3.7074 H   0  0  0  0  0  0  0  0  0  0  0  0
   -4.7384   -1.9694    3.2473 H   0  0  0  0  0  0  0  0  0  0  0  0
  1  2  1  0
  2  3  2  0
  2  4  1  0
  4  5  1  0
  5  6  1  0
  6  7  1  0
  7  8  1  0
  8  9  1  0
  8 10  2  0
  6 11  1  0
 11 12  1  0
 11 13  2  0
 13 14  1  0
 14 15  1  0
 15 16  1  0
 16 17  1  0
 17 18  2  0
 17 19  1  0
 19 20  2  0
 20 21  1  0
 21 22  2  0
 22 23  1  0
 23 24  2  0
 15 25  1  0
 25 26  1  0
 25 27  1  0
 27 28  1  0
 28 29  1  1
 28 30  1  0
 30 31  2  0
 30 32  1  0
 32 33  1  0
 32 34  2  3
 34 35  1  0
 35 36  1  0
 36 37  1  0
 36 38  1  0
 36 39  1  0
 39 40  1  0
 40 41  1  0
 41 42  1  0
 41 43  2  0
 39  5  1  0
 28 14  1  0
 24 19  1  0
  1 44  1  0
  1 45  1  0
  1 46  1  0
  5 47  1  6
  6 48  1  1
  9 49  1  0
  9 50  1  0
  9 51  1  0
 12 52  1  0
 12 53  1  0
 12 54  1  0
 13 55  1  0
 14 56  1  6
 15 57  1  6
 20 58  1  0
 21 59  1  0
 22 60  1  0
 23 61  1  0
 24 62  1  0
 25 63  1  1
 26 64  1  0
 26 65  1  0
 26 66  1  0
 27 67  1  0
 27 68  1  0
 29 69  1  0
 33 70  1  0
 33 71  1  0
 33 72  1  0
 34 73  1  0
 35 74  1  0
 35 75  1  0
 37 76  1  0
 37 77  1  0
 37 78  1  0
 38 79  1  0
 38 80  1  0
 38 81  1  0
 39 82  1  1
 42 83  1  0
 42 84  1  0
 42 85  1  0
M  END
$$$$
