
     RDKit          3D

 47 50  0  0  0  0  0  0  0  0999 V2000
   -6.6303    0.6701    1.7172 C   0  0  0  0  0  0  0  0  0  0  0  0
   -6.7655    0.9528    0.2275 C   0  0  0  0  0  0  0  0  0  0  0  0
   -5.4282    1.3048   -0.4213 C   0  0  0  0  0  0  0  0  0  0  0  0
   -4.5594    0.1797   -0.3217 O   0  0  0  0  0  0  0  0  0  0  0  0
   -3.2776    0.3115   -0.7931 C   0  0  0  0  0  0  0  0  0  0  0  0
   -2.7933    1.4386   -1.4635 C   0  0  0  0  0  0  0  0  0  0  0  0
   -1.4698    1.4806   -1.9101 C   0  0  0  0  0  0  0  0  0  0  0  0
   -0.6157    0.3983   -1.6900 C   0  0  0  0  0  0  0  0  0  0  0  0
    0.7634    0.4634   -2.1849 C   0  0  0  0  0  0  0  0  0  0  0  0
    1.8706    0.4783   -1.4290 C   0  0  0  0  0  0  0  0  0  0  0  0
    1.9619    0.4344    0.3223 S   0  0  0  0  0  0  0  0  0  0  0  0
    3.6722    0.5127    0.2275 C   0  0  0  0  0  0  0  0  0  0  0  0
    4.6494    0.5264    1.0857 N   0  0  0  0  0  0  0  0  0  0  0  0
    5.7528    0.6021    0.2483 C   0  0  0  0  0  0  0  0  0  0  0  0
    7.2155    0.6480    0.8006 C   0  0  0  0  0  0  0  0  0  0  0  0
    8.3661    0.7230    0.0385 C   0  0  0  0  0  0  0  0  0  0  0  0
    9.4550    0.7411    0.9436 C   0  0  0  0  0  0  0  0  0  0  0  0
    8.9045    0.6761    2.2013 C   0  0  0  0  0  0  0  0  0  0  0  0
    7.5505    0.6193    2.1263 O   0  0  0  0  0  0  0  0  0  0  0  0
    5.4718    0.6321   -1.0725 N   0  0  0  0  0  0  0  0  0  0  0  0
    4.1297    0.5725   -1.0380 N   0  0  0  0  0  0  0  0  0  0  0  0
    3.2184    0.5624   -2.0715 C   0  0  0  0  0  0  0  0  0  0  0  0
    3.5169    0.6137   -3.2506 O   0  0  0  0  0  0  0  0  0  0  0  0
   -1.1001   -0.7394   -1.0320 C   0  0  0  0  0  0  0  0  0  0  0  0
   -2.4228   -0.7876   -0.5746 C   0  0  0  0  0  0  0  0  0  0  0  0
   -2.9773   -1.8584    0.0825 O   0  0  0  0  0  0  0  0  0  0  0  0
   -2.1154   -2.9263    0.4645 C   0  0  0  0  0  0  0  0  0  0  0  0
   -2.9327   -3.9219    1.2680 C   0  0  0  0  0  0  0  0  0  0  0  0
   -6.2133    1.5348    2.2432 H   0  0  0  0  0  0  0  0  0  0  0  0
   -7.6116    0.4505    2.1498 H   0  0  0  0  0  0  0  0  0  0  0  0
   -5.9809   -0.1913    1.9024 H   0  0  0  0  0  0  0  0  0  0  0  0
   -7.1859    0.0640   -0.2575 H   0  0  0  0  0  0  0  0  0  0  0  0
   -7.4695    1.7790    0.0790 H   0  0  0  0  0  0  0  0  0  0  0  0
   -4.9927    2.1729    0.0882 H   0  0  0  0  0  0  0  0  0  0  0  0
   -5.6051    1.5443   -1.4765 H   0  0  0  0  0  0  0  0  0  0  0  0
   -3.4216    2.3011   -1.6587 H   0  0  0  0  0  0  0  0  0  0  0  0
   -1.1166    2.3689   -2.4299 H   0  0  0  0  0  0  0  0  0  0  0  0
    0.8485    0.5244   -3.2701 H   0  0  0  0  0  0  0  0  0  0  0  0
    8.4045    0.7600   -1.0418 H   0  0  0  0  0  0  0  0  0  0  0  0
   10.5087    0.7949    0.7090 H   0  0  0  0  0  0  0  0  0  0  0  0
    9.3168    0.6616    3.2008 H   0  0  0  0  0  0  0  0  0  0  0  0
   -0.4331   -1.5834   -0.8921 H   0  0  0  0  0  0  0  0  0  0  0  0
   -1.2943   -2.5531    1.0876 H   0  0  0  0  0  0  0  0  0  0  0  0
   -1.7169   -3.4270   -0.4250 H   0  0  0  0  0  0  0  0  0  0  0  0
   -3.7716   -4.3002    0.6744 H   0  0  0  0  0  0  0  0  0  0  0  0
   -3.3605   -3.4427    2.1549 H   0  0  0  0  0  0  0  0  0  0  0  0
   -2.3154   -4.7668    1.5859 H   0  0  0  0  0  0  0  0  0  0  0  0
  1  2  1  0
  2  3  1  0
  3  4  1  0
  4  5  1  0
  5  6  2  0
  6  7  1  0
  7  8  2  0
  8  9  1  0
  9 10  2  3
 10 11  1  0
 11 12  1  0
 12 13  2  0
 13 14  1  0
 14 15  1  0
 15 16  2  0
 16 17  1  0
 17 18  2  0
 18 19  1  0
 14 20  2  0
 20 21  1  0
 21 22  1  0
 22 23  2  0
  8 24  1  0
 24 25  2  0
 25 26  1  0
 26 27  1  0
 27 28  1  0
 25  5  1  0
 22 10  1  0
 21 12  1  0
 19 15  1  0
  1 29  1  0
  1 30  1  0
  1 31  1  0
  2 32  1  0
  2 33  1  0
  3 34  1  0
  3 35  1  0
  6 36  1  0
  7 37  1  0
  9 38  1  0
 16 39  1  0
 17 40  1  0
 18 41  1  0
 24 42  1  0
 27 43  1  0
 27 44  1  0
 28 45  1  0
 28 46  1  0
 28 47  1  0
M  END
$$$$
