
     RDKit          3D

 56 58  0  0  0  0  0  0  0  0999 V2000
    7.8736    2.3242    1.4015 C   0  0  0  0  0  0  0  0  0  0  0  0
    7.6723    0.9388    1.6528 O   0  0  0  0  0  0  0  0  0  0  0  0
    6.9808    0.2325    0.7066 C   0  0  0  0  0  0  0  0  0  0  0  0
    6.4921    0.7342   -0.5000 C   0  0  0  0  0  0  0  0  0  0  0  0
    5.7990   -0.1052   -1.3807 C   0  0  0  0  0  0  0  0  0  0  0  0
    5.5929   -1.4579   -1.0717 C   0  0  0  0  0  0  0  0  0  0  0  0
    4.8269   -2.3462   -2.0176 C   0  0  0  0  0  0  0  0  0  0  0  0
    3.4187   -2.3242   -1.7242 N   0  0  0  0  0  0  0  0  0  0  0  0
    2.5574   -1.4227   -2.3015 C   0  0  0  0  0  0  0  0  0  0  0  0
    2.8254   -0.6246   -3.1890 O   0  0  0  0  0  0  0  0  0  0  0  0
    1.1313   -1.4717   -1.7061 C   0  0  0  0  0  0  0  0  0  0  0  0
    0.8473   -2.3020   -0.8535 O   0  0  0  0  0  0  0  0  0  0  0  0
    0.2858   -0.5154   -2.2138 N   0  0  0  0  0  0  0  0  0  0  0  0
   -1.0947   -0.3799   -1.7777 C   0  0  0  0  0  0  0  0  0  0  0  0
   -1.2541   -0.0233   -0.2732 C   0  0  0  0  0  0  0  0  0  0  0  0
   -0.4669    1.1586    0.0120 O   0  0  0  0  0  0  0  0  0  0  0  0
   -1.3597    2.2661   -0.1166 C   0  0  0  0  0  0  0  0  0  0  0  0
   -2.6638    1.7560    0.4486 C   0  0  0  0  0  0  0  0  0  0  0  0
   -2.6266    0.3106    0.1761 N   0  0  0  0  0  0  0  0  0  0  0  0
   -3.9261   -0.3986   -0.6056 S   0  0  0  0  0  6  0  0  0  0  0  0
   -3.6982   -1.8253   -0.6663 O   0  0  0  0  0  0  0  0  0  0  0  0
   -4.1722    0.3724   -1.8067 O   0  0  0  0  0  0  0  0  0  0  0  0
   -5.2610   -0.1208    0.5297 C   0  0  0  0  0  0  0  0  0  0  0  0
   -5.3253   -0.8847    1.6984 C   0  0  0  0  0  0  0  0  0  0  0  0
   -6.3846   -0.6933    2.5857 C   0  0  0  0  0  0  0  0  0  0  0  0
   -7.3848    0.2471    2.3065 C   0  0  0  0  0  0  0  0  0  0  0  0
   -8.5125    0.4510    3.2764 C   0  0  0  0  0  0  0  0  0  0  0  0
   -7.3047    1.0079    1.1308 C   0  0  0  0  0  0  0  0  0  0  0  0
   -6.2493    0.8198    0.2369 C   0  0  0  0  0  0  0  0  0  0  0  0
    6.0768   -1.9533    0.1463 C   0  0  0  0  0  0  0  0  0  0  0  0
    6.7682   -1.1125    1.0232 C   0  0  0  0  0  0  0  0  0  0  0  0
    6.9184    2.8553    1.3271 H   0  0  0  0  0  0  0  0  0  0  0  0
    8.4205    2.7415    2.2533 H   0  0  0  0  0  0  0  0  0  0  0  0
    8.4843    2.4782    0.5057 H   0  0  0  0  0  0  0  0  0  0  0  0
    6.6286    1.7722   -0.7881 H   0  0  0  0  0  0  0  0  0  0  0  0
    5.4129    0.3046   -2.3142 H   0  0  0  0  0  0  0  0  0  0  0  0
    4.9975   -2.0383   -3.0561 H   0  0  0  0  0  0  0  0  0  0  0  0
    5.1696   -3.3845   -1.9264 H   0  0  0  0  0  0  0  0  0  0  0  0
    3.0652   -2.8284   -0.9164 H   0  0  0  0  0  0  0  0  0  0  0  0
    0.6806    0.1331   -2.8905 H   0  0  0  0  0  0  0  0  0  0  0  0
   -1.5939   -1.3259   -2.0105 H   0  0  0  0  0  0  0  0  0  0  0  0
   -1.5279    0.4035   -2.4096 H   0  0  0  0  0  0  0  0  0  0  0  0
   -0.8634   -0.8283    0.3578 H   0  0  0  0  0  0  0  0  0  0  0  0
   -1.4501    2.5294   -1.1759 H   0  0  0  0  0  0  0  0  0  0  0  0
   -0.9706    3.1304    0.4288 H   0  0  0  0  0  0  0  0  0  0  0  0
   -3.5175    2.2814    0.0140 H   0  0  0  0  0  0  0  0  0  0  0  0
   -2.6944    1.8899    1.5349 H   0  0  0  0  0  0  0  0  0  0  0  0
   -4.5621   -1.6292    1.9164 H   0  0  0  0  0  0  0  0  0  0  0  0
   -6.4335   -1.2915    3.4941 H   0  0  0  0  0  0  0  0  0  0  0  0
   -8.9204   -0.5140    3.5956 H   0  0  0  0  0  0  0  0  0  0  0  0
   -8.1584    0.9994    4.1551 H   0  0  0  0  0  0  0  0  0  0  0  0
   -9.3311    1.0167    2.8217 H   0  0  0  0  0  0  0  0  0  0  0  0
   -8.0715    1.7454    0.9016 H   0  0  0  0  0  0  0  0  0  0  0  0
   -6.2106    1.4050   -0.6788 H   0  0  0  0  0  0  0  0  0  0  0  0
    5.9208   -2.9949    0.4230 H   0  0  0  0  0  0  0  0  0  0  0  0
    7.1428   -1.5087    1.9653 H   0  0  0  0  0  0  0  0  0  0  0  0
  1  2  1  0
  2  3  1  0
  3  4  2  0
  4  5  1  0
  5  6  2  0
  6  7  1  0
  7  8  1  0
  8  9  1  0
  9 10  2  0
  9 11  1  0
 11 12  2  0
 11 13  1  0
 13 14  1  0
 14 15  1  0
 15 16  1  0
 16 17  1  0
 17 18  1  0
 18 19  1  0
 19 20  1  0
 20 21  2  0
 20 22  2  0
 20 23  1  0
 23 24  2  0
 24 25  1  0
 25 26  2  0
 26 27  1  0
 26 28  1  0
 28 29  2  0
  6 30  1  0
 30 31  2  0
 31  3  1  0
 19 15  1  0
 29 23  1  0
  1 32  1  0
  1 33  1  0
  1 34  1  0
  4 35  1  0
  5 36  1  0
  7 37  1  0
  7 38  1  0
  8 39  1  0
 13 40  1  0
 14 41  1  0
 14 42  1  0
 15 43  1  0
 17 44  1  0
 17 45  1  0
 18 46  1  0
 18 47  1  0
 24 48  1  0
 25 49  1  0
 27 50  1  0
 27 51  1  0
 27 52  1  0
 28 53  1  0
 29 54  1  0
 30 55  1  0
 31 56  1  0
M  END
$$$$
