
     RDKit          3D

 68 70  0  0  0  0  0  0  0  0999 V2000
   -2.5147    5.5795    3.9786 C   0  0  0  0  0  0  0  0  0  0  0  0
   -1.7049    4.4104    3.9658 O   0  0  0  0  0  0  0  0  0  0  0  0
   -1.9405    3.5184    2.9579 C   0  0  0  0  0  0  0  0  0  0  0  0
   -1.3906    2.2518    3.1551 C   0  0  0  0  0  0  0  0  0  0  0  0
   -1.5534    1.2447    2.1987 C   0  0  0  0  0  0  0  0  0  0  0  0
   -2.2421    1.4927    1.0022 C   0  0  0  0  0  0  0  0  0  0  0  0
   -2.4287    0.4203   -0.0751 C   0  0  0  0  0  0  0  0  0  0  0  0
   -3.2340   -0.8125    0.4453 C   0  0  0  0  0  0  0  0  0  0  0  0
   -4.4471   -0.7219    0.6557 O   0  0  0  0  0  0  0  0  0  0  0  0
   -2.5189   -1.9505    0.7458 N   0  0  0  0  0  0  0  0  0  0  0  0
   -3.0715   -3.1540    1.3829 C   0  0  0  0  0  0  0  0  0  0  0  0
   -4.1745   -3.7874    0.5205 C   0  0  0  0  0  0  0  0  0  0  0  0
   -1.9277   -4.1774    1.5228 C   0  0  0  0  0  0  0  0  0  0  0  0
   -3.6084   -2.8344    2.7874 C   0  0  0  0  0  0  0  0  0  0  0  0
   -1.1991    0.1697   -0.8943 N   0  0  0  0  0  0  0  0  0  0  0  0
   -0.0530   -0.3879   -0.3316 C   0  0  0  0  0  0  0  0  0  0  0  0
   -0.0757   -0.9865    0.7490 O   0  0  0  0  0  0  0  0  0  0  0  0
    1.2647   -0.2461   -1.0842 C   0  0  0  0  0  0  0  0  0  0  0  0
    2.4441   -0.3038   -0.1182 C   0  0  0  0  0  0  0  0  0  0  0  0
    3.7750   -0.3001   -0.8415 C   0  0  0  0  0  0  0  0  0  0  0  0
    3.8611   -0.2810   -2.0654 O   0  0  0  0  0  0  0  0  0  0  0  0
    4.8292   -0.3406    0.0437 N   0  0  0  0  0  0  0  0  0  0  0  0
    6.1559   -0.4601   -0.3016 C   0  0  0  0  0  0  0  0  0  0  0  0
    6.7513   -0.5431   -1.5793 C   0  0  0  0  0  0  0  0  0  0  0  0
    8.0889   -0.7108   -1.3255 C   0  0  0  0  0  0  0  0  0  0  0  0
    9.2816   -0.8974   -2.1682 C   0  0  0  0  0  0  0  0  0  0  0  0
    8.2875   -0.7110    0.0189 O   0  0  0  0  0  0  0  0  0  0  0  0
    7.0783   -0.5353    0.6646 N   0  0  0  0  0  0  0  0  0  0  0  0
   -1.2716    0.5015   -2.2822 C   0  0  0  0  0  0  0  0  0  0  0  0
   -0.9321   -0.4483   -3.2573 C   0  0  0  0  0  0  0  0  0  0  0  0
   -0.9755   -0.1270   -4.6186 C   0  0  0  0  0  0  0  0  0  0  0  0
   -1.3659    1.1487   -5.0161 C   0  0  0  0  0  0  0  0  0  0  0  0
   -1.7162    2.0842   -4.0501 C   0  0  0  0  0  0  0  0  0  0  0  0
   -2.0625    3.3257   -4.4255 F   0  0  0  0  0  0  0  0  0  0  0  0
   -1.6827    1.7711   -2.6934 C   0  0  0  0  0  0  0  0  0  0  0  0
   -2.7979    2.7732    0.8190 C   0  0  0  0  0  0  0  0  0  0  0  0
   -2.6485    3.7764    1.7858 C   0  0  0  0  0  0  0  0  0  0  0  0
   -2.2819    6.2335    3.1301 H   0  0  0  0  0  0  0  0  0  0  0  0
   -3.5795    5.3250    3.9991 H   0  0  0  0  0  0  0  0  0  0  0  0
   -2.2893    6.1308    4.8970 H   0  0  0  0  0  0  0  0  0  0  0  0
   -0.8465    2.0364    4.0740 H   0  0  0  0  0  0  0  0  0  0  0  0
   -1.1370    0.2647    2.4205 H   0  0  0  0  0  0  0  0  0  0  0  0
   -3.1621    0.8354   -0.7828 H   0  0  0  0  0  0  0  0  0  0  0  0
   -1.5179   -1.8011    0.8765 H   0  0  0  0  0  0  0  0  0  0  0  0
   -5.0359   -3.1256    0.3926 H   0  0  0  0  0  0  0  0  0  0  0  0
   -3.7976   -4.0314   -0.4791 H   0  0  0  0  0  0  0  0  0  0  0  0
   -4.5420   -4.7144    0.9756 H   0  0  0  0  0  0  0  0  0  0  0  0
   -1.4772   -4.4009    0.5500 H   0  0  0  0  0  0  0  0  0  0  0  0
   -1.1332   -3.7892    2.1692 H   0  0  0  0  0  0  0  0  0  0  0  0
   -2.2814   -5.1206    1.9570 H   0  0  0  0  0  0  0  0  0  0  0  0
   -2.8345   -2.3603    3.4026 H   0  0  0  0  0  0  0  0  0  0  0  0
   -3.9337   -3.7457    3.3016 H   0  0  0  0  0  0  0  0  0  0  0  0
   -4.4663   -2.1539    2.7578 H   0  0  0  0  0  0  0  0  0  0  0  0
    1.3410   -1.0714   -1.7990 H   0  0  0  0  0  0  0  0  0  0  0  0
    1.2950    0.7031   -1.6296 H   0  0  0  0  0  0  0  0  0  0  0  0
    2.3997   -1.2189    0.4857 H   0  0  0  0  0  0  0  0  0  0  0  0
    2.4088    0.5509    0.5664 H   0  0  0  0  0  0  0  0  0  0  0  0
    4.6671   -0.3357    1.0421 H   0  0  0  0  0  0  0  0  0  0  0  0
    6.2759   -0.5117   -2.5468 H   0  0  0  0  0  0  0  0  0  0  0  0
    9.0017   -1.0292   -3.2181 H   0  0  0  0  0  0  0  0  0  0  0  0
    9.9461   -0.0300   -2.0922 H   0  0  0  0  0  0  0  0  0  0  0  0
    9.8385   -1.7871   -1.8545 H   0  0  0  0  0  0  0  0  0  0  0  0
   -0.6484   -1.4580   -2.9743 H   0  0  0  0  0  0  0  0  0  0  0  0
   -0.7008   -0.8719   -5.3606 H   0  0  0  0  0  0  0  0  0  0  0  0
   -1.3918    1.4216   -6.0675 H   0  0  0  0  0  0  0  0  0  0  0  0
   -1.9229    2.5525   -1.9826 H   0  0  0  0  0  0  0  0  0  0  0  0
   -3.3763    3.0057   -0.0751 H   0  0  0  0  0  0  0  0  0  0  0  0
   -3.0973    4.7469    1.5927 H   0  0  0  0  0  0  0  0  0  0  0  0
  1  2  1  0
  2  3  1  0
  3  4  2  0
  4  5  1  0
  5  6  2  0
  6  7  1  0
  7  8  1  0
  8  9  2  0
  8 10  1  0
 10 11  1  0
 11 12  1  0
 11 13  1  0
 11 14  1  0
  7 15  1  0
 15 16  1  0
 16 17  2  0
 16 18  1  0
 18 19  1  0
 19 20  1  0
 20 21  2  0
 20 22  1  0
 22 23  1  0
 23 24  1  0
 24 25  2  0
 25 26  1  0
 25 27  1  0
 27 28  1  0
 15 29  1  0
 29 30  2  0
 30 31  1  0
 31 32  2  0
 32 33  1  0
 33 34  1  0
 33 35  2  0
  6 36  1  0
 36 37  2  0
 37  3  1  0
 28 23  2  0
 35 29  1  0
  1 38  1  0
  1 39  1  0
  1 40  1  0
  4 41  1  0
  5 42  1  0
  7 43  1  0
 10 44  1  0
 12 45  1  0
 12 46  1  0
 12 47  1  0
 13 48  1  0
 13 49  1  0
 13 50  1  0
 14 51  1  0
 14 52  1  0
 14 53  1  0
 18 54  1  0
 18 55  1  0
 19 56  1  0
 19 57  1  0
 22 58  1  0
 24 59  1  0
 26 60  1  0
 26 61  1  0
 26 62  1  0
 30 63  1  0
 31 64  1  0
 32 65  1  0
 35 66  1  0
 36 67  1  0
 37 68  1  0
M  END
$$$$
