
     RDKit          3D

 37 38  0  0  0  0  0  0  0  0999 V2000
    0.7883   -1.2374   -0.6722 O   0  0  0  0  0  0  0  0  0  0  0  0
    0.8703   -0.0574   -0.3551 C   0  0  0  0  0  0  0  0  0  0  0  0
   -0.3119    0.7181    0.2082 C   0  0  0  0  0  0  0  0  0  0  0  0
   -1.5724   -0.1369    0.3238 C   0  0  0  0  0  0  0  0  0  0  0  0
   -2.7377    0.6734    0.8931 C   0  0  0  0  0  0  0  0  0  0  0  0
   -3.9912   -0.1552    1.0146 C   0  0  0  0  0  0  0  0  0  0  0  0
   -4.8972   -0.2339   -0.0515 C   0  0  0  0  0  0  0  0  0  0  0  0
   -6.0500   -1.0135    0.0562 C   0  0  0  0  0  0  0  0  0  0  0  0
   -6.3051   -1.7248    1.2271 C   0  0  0  0  0  0  0  0  0  0  0  0
   -5.4068   -1.6592    2.2904 C   0  0  0  0  0  0  0  0  0  0  0  0
   -4.2535   -0.8801    2.1847 C   0  0  0  0  0  0  0  0  0  0  0  0
    1.9996    0.7431   -0.4482 N   0  0  0  0  0  0  0  0  0  0  0  0
    3.2769    0.3754   -0.9215 C   0  0  0  0  0  0  0  0  0  0  0  0
    3.6012   -0.9031   -1.3845 C   0  0  0  0  0  0  0  0  0  0  0  0
    4.8922   -1.1966   -1.8403 C   0  0  0  0  0  0  0  0  0  0  0  0
    5.8787   -0.2135   -1.8392 C   0  0  0  0  0  0  0  0  0  0  0  0
    5.5601    1.0671   -1.3773 C   0  0  0  0  0  0  0  0  0  0  0  0
    6.5888    2.1138   -1.3701 N   0  0  0  0  0  4  0  0  0  0  0  0
    6.2647    3.2353   -0.9529 O   0  0  0  0  0  0  0  0  0  0  0  0
    7.7193    1.8167   -1.7808 O   0  0  0  0  0  1  0  0  0  0  0  0
    4.2669    1.3654   -0.9194 C   0  0  0  0  0  0  0  0  0  0  0  0
   -0.5039    1.5743   -0.4495 H   0  0  0  0  0  0  0  0  0  0  0  0
   -0.0309    1.0996    1.1971 H   0  0  0  0  0  0  0  0  0  0  0  0
   -1.8396   -0.5359   -0.6633 H   0  0  0  0  0  0  0  0  0  0  0  0
   -1.3716   -1.0058    0.9638 H   0  0  0  0  0  0  0  0  0  0  0  0
   -2.4721    1.0763    1.8788 H   0  0  0  0  0  0  0  0  0  0  0  0
   -2.9388    1.5448    0.2569 H   0  0  0  0  0  0  0  0  0  0  0  0
   -4.7089    0.3097   -0.9743 H   0  0  0  0  0  0  0  0  0  0  0  0
   -6.7474   -1.0685   -0.7755 H   0  0  0  0  0  0  0  0  0  0  0  0
   -7.2016   -2.3334    1.3093 H   0  0  0  0  0  0  0  0  0  0  0  0
   -5.6024   -2.2183    3.2016 H   0  0  0  0  0  0  0  0  0  0  0  0
   -3.5588   -0.8447    3.0206 H   0  0  0  0  0  0  0  0  0  0  0  0
    1.8957    1.7028   -0.1409 H   0  0  0  0  0  0  0  0  0  0  0  0
    2.8681   -1.7049   -1.4059 H   0  0  0  0  0  0  0  0  0  0  0  0
    5.1207   -2.1994   -2.1961 H   0  0  0  0  0  0  0  0  0  0  0  0
    6.8763   -0.4594   -2.1969 H   0  0  0  0  0  0  0  0  0  0  0  0
    4.0341    2.3662   -0.5629 H   0  0  0  0  0  0  0  0  0  0  0  0
  1  2  2  0
  2  3  1  0
  3  4  1  0
  4  5  1  0
  5  6  1  0
  6  7  2  0
  7  8  1  0
  8  9  2  0
  9 10  1  0
 10 11  2  0
  2 12  1  0
 12 13  1  0
 13 14  2  0
 14 15  1  0
 15 16  2  0
 16 17  1  0
 17 18  1  0
 18 19  2  0
 18 20  1  0
 17 21  2  0
 11  6  1  0
 21 13  1  0
  3 22  1  0
  3 23  1  0
  4 24  1  0
  4 25  1  0
  5 26  1  0
  5 27  1  0
  7 28  1  0
  8 29  1  0
  9 30  1  0
 10 31  1  0
 11 32  1  0
 12 33  1  0
 14 34  1  0
 15 35  1  0
 16 36  1  0
 21 37  1  0
M  CHG  2  18   1  20  -1
M  END
$$$$
