
     RDKit          3D

 61 63  0  0  0  0  0  0  0  0999 V2000
   -8.3728    2.6490   -1.0144 C   0  0  0  0  0  0  0  0  0  0  0  0
   -7.7731    2.1907    0.1905 O   0  0  0  0  0  0  0  0  0  0  0  0
   -7.2850    0.9129    0.1923 C   0  0  0  0  0  0  0  0  0  0  0  0
   -7.3317    0.0127   -0.8729 C   0  0  0  0  0  0  0  0  0  0  0  0
   -6.7881   -1.2706   -0.7357 C   0  0  0  0  0  0  0  0  0  0  0  0
   -6.1982   -1.6727    0.4706 C   0  0  0  0  0  0  0  0  0  0  0  0
   -5.5847   -3.0415    0.6115 C   0  0  0  0  0  0  0  0  0  0  0  0
   -4.1873   -3.0143    0.2675 N   0  0  0  0  0  0  0  0  0  0  0  0
   -3.2044   -2.8248    1.2090 C   0  0  0  0  0  0  0  0  0  0  0  0
   -3.3518   -2.8140    2.4226 O   0  0  0  0  0  0  0  0  0  0  0  0
   -1.8049   -2.5884    0.5953 C   0  0  0  0  0  0  0  0  0  0  0  0
   -1.6649   -2.5312   -0.6183 O   0  0  0  0  0  0  0  0  0  0  0  0
   -0.8086   -2.4266    1.5287 N   0  0  0  0  0  0  0  0  0  0  0  0
    0.5251   -1.9885    1.1524 C   0  0  0  0  0  0  0  0  0  0  0  0
    0.5813   -0.5250    0.6725 C   0  0  0  0  0  0  0  0  0  0  0  0
    0.0290    0.3268    1.6990 O   0  0  0  0  0  0  0  0  0  0  0  0
    0.6296    1.6018    1.4695 C   0  0  0  0  0  0  0  0  0  0  0  0
    2.0667    1.2591    1.1486 C   0  0  0  0  0  0  0  0  0  0  0  0
    1.9816   -0.0677    0.5001 N   0  0  0  0  0  0  0  0  0  0  0  0
    2.5430   -0.1950   -1.0867 S   0  0  0  0  0  6  0  0  0  0  0  0
    1.9355    0.8778   -1.8455 O   0  0  0  0  0  0  0  0  0  0  0  0
    2.4269   -1.5760   -1.4973 O   0  0  0  0  0  0  0  0  0  0  0  0
    4.2735    0.1540   -0.9029 C   0  0  0  0  0  0  0  0  0  0  0  0
    5.0634   -0.7248   -0.1610 C   0  0  0  0  0  0  0  0  0  0  0  0
    6.4217   -0.4530    0.0056 C   0  0  0  0  0  0  0  0  0  0  0  0
    6.9904    0.6896   -0.5718 C   0  0  0  0  0  0  0  0  0  0  0  0
    8.3126    1.0396   -0.4542 O   0  0  0  0  0  0  0  0  0  0  0  0
    9.1699    0.1554    0.2548 C   0  0  0  0  0  0  0  0  0  0  0  0
    6.1852    1.5663   -1.3328 C   0  0  0  0  0  0  0  0  0  0  0  0
    6.8214    2.6634   -1.8598 O   0  0  0  0  0  0  0  0  0  0  0  0
    6.0835    3.4914   -2.7486 C   0  0  0  0  0  0  0  0  0  0  0  0
    4.8242    1.2930   -1.4968 C   0  0  0  0  0  0  0  0  0  0  0  0
   -6.1476   -0.7612    1.5326 C   0  0  0  0  0  0  0  0  0  0  0  0
   -6.6906    0.5182    1.3926 C   0  0  0  0  0  0  0  0  0  0  0  0
   -9.2577    2.0551   -1.2654 H   0  0  0  0  0  0  0  0  0  0  0  0
   -7.6521    2.6532   -1.8380 H   0  0  0  0  0  0  0  0  0  0  0  0
   -8.6994    3.6799   -0.8530 H   0  0  0  0  0  0  0  0  0  0  0  0
   -7.7802    0.2769   -1.8248 H   0  0  0  0  0  0  0  0  0  0  0  0
   -6.8275   -1.9537   -1.5822 H   0  0  0  0  0  0  0  0  0  0  0  0
   -6.0770   -3.7510   -0.0620 H   0  0  0  0  0  0  0  0  0  0  0  0
   -5.7181   -3.4155    1.6328 H   0  0  0  0  0  0  0  0  0  0  0  0
   -3.9123   -2.8645   -0.6993 H   0  0  0  0  0  0  0  0  0  0  0  0
   -1.1195   -2.3039    2.4904 H   0  0  0  0  0  0  0  0  0  0  0  0
    0.8984   -2.6620    0.3748 H   0  0  0  0  0  0  0  0  0  0  0  0
    1.1494   -2.1188    2.0432 H   0  0  0  0  0  0  0  0  0  0  0  0
   -0.0185   -0.3740   -0.2326 H   0  0  0  0  0  0  0  0  0  0  0  0
    0.5307    2.2339    2.3552 H   0  0  0  0  0  0  0  0  0  0  0  0
    0.1258    2.0839    0.6243 H   0  0  0  0  0  0  0  0  0  0  0  0
    2.5415    2.0352    0.5441 H   0  0  0  0  0  0  0  0  0  0  0  0
    2.6506    1.1377    2.0675 H   0  0  0  0  0  0  0  0  0  0  0  0
    4.6283   -1.6162    0.2869 H   0  0  0  0  0  0  0  0  0  0  0  0
    7.0103   -1.1516    0.5913 H   0  0  0  0  0  0  0  0  0  0  0  0
    8.8723    0.0758    1.3061 H   0  0  0  0  0  0  0  0  0  0  0  0
    9.2069   -0.8295   -0.2233 H   0  0  0  0  0  0  0  0  0  0  0  0
   10.1798    0.5757    0.2268 H   0  0  0  0  0  0  0  0  0  0  0  0
    5.7199    2.9231   -3.6109 H   0  0  0  0  0  0  0  0  0  0  0  0
    5.2606    3.9913   -2.2269 H   0  0  0  0  0  0  0  0  0  0  0  0
    6.7588    4.2672   -3.1222 H   0  0  0  0  0  0  0  0  0  0  0  0
    4.1808    1.9501   -2.0731 H   0  0  0  0  0  0  0  0  0  0  0  0
   -5.6783   -1.0403    2.4750 H   0  0  0  0  0  0  0  0  0  0  0  0
   -6.6446    1.2157    2.2257 H   0  0  0  0  0  0  0  0  0  0  0  0
  1  2  1  0
  2  3  1  0
  3  4  2  0
  4  5  1  0
  5  6  2  0
  6  7  1  0
  7  8  1  0
  8  9  1  0
  9 10  2  0
  9 11  1  0
 11 12  2  0
 11 13  1  0
 13 14  1  0
 14 15  1  0
 15 16  1  0
 16 17  1  0
 17 18  1  0
 18 19  1  0
 19 20  1  0
 20 21  2  0
 20 22  2  0
 20 23  1  0
 23 24  2  0
 24 25  1  0
 25 26  2  0
 26 27  1  0
 27 28  1  0
 26 29  1  0
 29 30  1  0
 30 31  1  0
 29 32  2  0
  6 33  1  0
 33 34  2  0
 34  3  1  0
 19 15  1  0
 32 23  1  0
  1 35  1  0
  1 36  1  0
  1 37  1  0
  4 38  1  0
  5 39  1  0
  7 40  1  0
  7 41  1  0
  8 42  1  0
 13 43  1  0
 14 44  1  0
 14 45  1  0
 15 46  1  0
 17 47  1  0
 17 48  1  0
 18 49  1  0
 18 50  1  0
 24 51  1  0
 25 52  1  0
 28 53  1  0
 28 54  1  0
 28 55  1  0
 31 56  1  0
 31 57  1  0
 31 58  1  0
 32 59  1  0
 33 60  1  0
 34 61  1  0
M  END
$$$$
