
     RDKit          3D

 51 54  0  0  0  0  0  0  0  0999 V2000
    5.6193    0.7636   -3.8962 C   0  0  0  0  0  0  0  0  0  0  0  0
    5.5579    0.5182   -2.3963 C   0  0  0  0  0  0  0  0  0  0  0  0
    4.1635    0.6990   -1.8555 C   0  0  0  0  0  0  0  0  0  0  0  0
    3.2728   -0.3753   -1.8067 C   0  0  0  0  0  0  0  0  0  0  0  0
    1.9712   -0.2016   -1.3190 C   0  0  0  0  0  0  0  0  0  0  0  0
    1.5165    1.0496   -0.8712 C   0  0  0  0  0  0  0  0  0  0  0  0
    0.1682    1.2299   -0.3633 N   0  0  0  0  0  0  0  0  0  0  0  0
   -0.0203    2.1104    0.7096 C   0  0  0  0  0  0  0  0  0  0  0  0
    0.8645    2.7287    1.3025 O   0  0  0  0  0  0  0  0  0  0  0  0
   -1.3890    2.2697    1.2259 C   0  0  0  0  0  0  0  0  0  0  0  0
   -1.6215    3.1429    2.3039 C   0  0  0  0  0  0  0  0  0  0  0  0
   -2.9004    3.2847    2.8328 C   0  0  0  0  0  0  0  0  0  0  0  0
   -3.9466    2.5512    2.2896 C   0  0  0  0  0  0  0  0  0  0  0  0
   -3.7135    1.6840    1.2167 C   0  0  0  0  0  0  0  0  0  0  0  0
   -2.4281    1.5374    0.6659 C   0  0  0  0  0  0  0  0  0  0  0  0
   -2.1577    0.6744   -0.4259 N   0  0  0  0  0  0  0  0  0  0  0  0
   -3.2555   -0.0853   -1.0517 C   0  0  0  0  0  0  0  0  0  0  0  0
   -3.6612   -1.3427   -0.2733 C   0  0  0  0  0  0  0  0  0  0  0  0
   -4.7513   -1.8845   -0.4448 O   0  0  0  0  0  0  0  0  0  0  0  0
   -2.6983   -1.8637    0.5541 N   0  0  0  0  0  0  0  0  0  0  0  0
   -2.9709   -2.9852    1.4187 C   0  0  0  0  0  0  0  0  0  0  0  0
   -1.7061   -3.3777    2.0846 C   0  0  0  0  0  0  0  0  0  0  0  0
   -1.0121   -4.5658    2.1823 C   0  0  0  0  0  0  0  0  0  0  0  0
    0.1469   -4.2902    2.9478 C   0  0  0  0  0  0  0  0  0  0  0  0
    0.0884   -2.9543    3.2673 C   0  0  0  0  0  0  0  0  0  0  0  0
   -1.0324   -2.3901    2.7491 O   0  0  0  0  0  0  0  0  0  0  0  0
   -0.8776    0.5089   -0.9615 C   0  0  0  0  0  0  0  0  0  0  0  0
   -0.7289   -0.2348   -1.9355 O   0  0  0  0  0  0  0  0  0  0  0  0
    2.4232    2.1204   -0.9313 C   0  0  0  0  0  0  0  0  0  0  0  0
    3.7255    1.9507   -1.4181 C   0  0  0  0  0  0  0  0  0  0  0  0
    5.3070    1.7835   -4.1450 H   0  0  0  0  0  0  0  0  0  0  0  0
    4.9675    0.0708   -4.4393 H   0  0  0  0  0  0  0  0  0  0  0  0
    6.6418    0.6237   -4.2609 H   0  0  0  0  0  0  0  0  0  0  0  0
    6.2449    1.2002   -1.8806 H   0  0  0  0  0  0  0  0  0  0  0  0
    5.9123   -0.4954   -2.1719 H   0  0  0  0  0  0  0  0  0  0  0  0
    3.5820   -1.3620   -2.1450 H   0  0  0  0  0  0  0  0  0  0  0  0
    1.3345   -1.0819   -1.2748 H   0  0  0  0  0  0  0  0  0  0  0  0
   -0.8009    3.7109    2.7397 H   0  0  0  0  0  0  0  0  0  0  0  0
   -3.0757    3.9585    3.6680 H   0  0  0  0  0  0  0  0  0  0  0  0
   -4.9494    2.6490    2.7005 H   0  0  0  0  0  0  0  0  0  0  0  0
   -4.5725    1.1334    0.8434 H   0  0  0  0  0  0  0  0  0  0  0  0
   -2.9782   -0.4160   -2.0585 H   0  0  0  0  0  0  0  0  0  0  0  0
   -4.1263    0.5663   -1.1789 H   0  0  0  0  0  0  0  0  0  0  0  0
   -1.9076   -1.2819    0.7999 H   0  0  0  0  0  0  0  0  0  0  0  0
   -3.7191   -2.6795    2.1573 H   0  0  0  0  0  0  0  0  0  0  0  0
   -3.3861   -3.8045    0.8229 H   0  0  0  0  0  0  0  0  0  0  0  0
   -1.3050   -5.5124    1.7491 H   0  0  0  0  0  0  0  0  0  0  0  0
    0.9309   -4.9790    3.2299 H   0  0  0  0  0  0  0  0  0  0  0  0
    0.7318   -2.2889    3.8267 H   0  0  0  0  0  0  0  0  0  0  0  0
    2.1301    3.1225   -0.6271 H   0  0  0  0  0  0  0  0  0  0  0  0
    4.3914    2.8102   -1.4542 H   0  0  0  0  0  0  0  0  0  0  0  0
  1  2  1  0
  2  3  1  0
  3  4  2  0
  4  5  1  0
  5  6  2  0
  6  7  1  0
  7  8  1  0
  8  9  2  0
  8 10  1  0
 10 11  2  0
 11 12  1  0
 12 13  2  0
 13 14  1  0
 14 15  2  0
 15 16  1  0
 16 17  1  0
 17 18  1  0
 18 19  2  0
 18 20  1  0
 20 21  1  0
 21 22  1  0
 22 23  2  0
 23 24  1  0
 24 25  2  0
 25 26  1  0
 16 27  1  0
 27 28  2  0
  6 29  1  0
 29 30  2  0
 30  3  1  0
 27  7  1  0
 15 10  1  0
 26 22  1  0
  1 31  1  0
  1 32  1  0
  1 33  1  0
  2 34  1  0
  2 35  1  0
  4 36  1  0
  5 37  1  0
 11 38  1  0
 12 39  1  0
 13 40  1  0
 14 41  1  0
 17 42  1  0
 17 43  1  0
 20 44  1  0
 21 45  1  0
 21 46  1  0
 23 47  1  0
 24 48  1  0
 25 49  1  0
 29 50  1  0
 30 51  1  0
M  END
$$$$
