
     RDKit          3D

 24 24  0  0  0  0  0  0  0  0999 V2000
   -3.8768    0.3398   -1.1389 C   0  0  0  0  0  0  0  0  0  0  0  0
   -2.6523    0.0023   -0.4407 N   0  0  0  0  0  0  0  0  0  0  0  0
   -2.4598   -1.1011    0.3404 C   0  0  0  0  0  0  0  0  0  0  0  0
   -3.5963   -2.2940    0.6310 S   0  0  0  0  0  0  0  0  0  0  0  0
   -1.2556   -1.2092    0.9770 N   0  0  0  0  0  0  0  0  0  0  0  0
   -0.0050   -0.6055    0.7337 C   0  0  0  0  0  0  0  0  0  0  0  0
    0.9614   -0.7154    1.7395 C   0  0  0  0  0  0  0  0  0  0  0  0
    2.2323   -0.1559    1.5747 C   0  0  0  0  0  0  0  0  0  0  0  0
    2.5618    0.5162    0.3946 C   0  0  0  0  0  0  0  0  0  0  0  0
    3.9358    1.0848    0.1994 C   0  0  0  0  0  0  0  0  0  0  0  0
    1.6121    0.5862   -0.6291 C   0  0  0  0  0  0  0  0  0  0  0  0
    0.3396    0.0277   -0.4615 C   0  0  0  0  0  0  0  0  0  0  0  0
   -3.6743    1.1937   -1.7900 H   0  0  0  0  0  0  0  0  0  0  0  0
   -4.6438    0.6091   -0.4078 H   0  0  0  0  0  0  0  0  0  0  0  0
   -4.2148   -0.5071   -1.7413 H   0  0  0  0  0  0  0  0  0  0  0  0
   -2.0748    0.7903   -0.1770 H   0  0  0  0  0  0  0  0  0  0  0  0
   -1.2683   -1.9059    1.7147 H   0  0  0  0  0  0  0  0  0  0  0  0
    0.7347   -1.2251    2.6726 H   0  0  0  0  0  0  0  0  0  0  0  0
    2.9625   -0.2509    2.3754 H   0  0  0  0  0  0  0  0  0  0  0  0
    4.5944    0.3298   -0.2408 H   0  0  0  0  0  0  0  0  0  0  0  0
    3.9067    1.9580   -0.4608 H   0  0  0  0  0  0  0  0  0  0  0  0
    4.3615    1.4134    1.1534 H   0  0  0  0  0  0  0  0  0  0  0  0
    1.8600    1.0632   -1.5751 H   0  0  0  0  0  0  0  0  0  0  0  0
   -0.3409    0.0557   -1.3066 H   0  0  0  0  0  0  0  0  0  0  0  0
  1  2  1  0
  2  3  1  0
  3  4  2  0
  3  5  1  0
  5  6  1  0
  6  7  2  0
  7  8  1  0
  8  9  2  0
  9 10  1  0
  9 11  1  0
 11 12  2  0
 12  6  1  0
  1 13  1  0
  1 14  1  0
  1 15  1  0
  2 16  1  0
  5 17  1  0
  7 18  1  0
  8 19  1  0
 10 20  1  0
 10 21  1  0
 10 22  1  0
 11 23  1  0
 12 24  1  0
M  END
$$$$
