
     RDKit          3D

 49 52  0  0  0  0  0  0  0  0999 V2000
   -1.7961    1.9818    3.6260 O   0  0  0  0  0  0  0  0  0  0  0  0
   -2.3097    1.4678    2.6486 C   0  0  0  0  0  0  0  0  0  0  0  0
   -3.2654    0.5305    2.7642 O   0  0  0  0  0  0  0  0  0  0  0  0
   -2.0485    1.8499    1.2478 C   0  0  0  0  0  0  0  0  0  0  0  0
   -2.0058    3.2428    1.0329 C   0  0  0  0  0  0  0  0  0  0  0  0
   -1.9036    3.7641   -0.2515 C   0  0  0  0  0  0  0  0  0  0  0  0
   -1.8794    2.8932   -1.3293 C   0  0  0  0  0  0  0  0  0  0  0  0
   -1.9132    1.5049   -1.1171 C   0  0  0  0  0  0  0  0  0  0  0  0
   -1.9413    0.6194   -2.3032 C   0  0  0  0  0  0  0  0  0  0  0  0
   -1.7976    1.0793   -3.4337 O   0  0  0  0  0  0  0  0  0  0  0  0
   -2.1754   -0.8230   -2.1002 C   0  0  0  0  0  0  0  0  0  0  0  0
   -2.4152   -1.6476   -3.2077 C   0  0  0  0  0  0  0  0  0  0  0  0
   -2.6290   -3.0079   -3.0210 C   0  0  0  0  0  0  0  0  0  0  0  0
   -2.5994   -3.5409   -1.7331 C   0  0  0  0  0  0  0  0  0  0  0  0
   -2.3502   -2.7115   -0.6341 C   0  0  0  0  0  0  0  0  0  0  0  0
   -2.1185   -1.3361   -0.7961 C   0  0  0  0  0  0  0  0  0  0  0  0
   -1.8602   -0.4724    0.3014 N   0  0  0  0  0  0  0  0  0  0  0  0
   -0.9140   -1.0208    1.3142 C   0  0  0  0  0  0  0  0  0  0  0  0
    0.5037   -1.3107    0.7658 C   0  0  0  0  0  0  0  0  0  0  0  0
    1.1684   -2.1986    1.6763 O   0  0  0  0  0  0  0  0  0  0  0  0
    1.3284   -0.0166    0.5854 C   0  0  0  0  0  0  0  0  0  0  0  0
    2.7423   -0.2706    0.2375 N   0  0  0  0  0  0  0  0  0  0  0  0
    3.2842    0.8390   -0.5685 C   0  0  0  0  0  0  0  0  0  0  0  0
    4.7857    0.6325   -0.4942 C   0  0  0  0  0  0  0  0  0  0  0  0
    5.0121   -0.0950    0.8211 C   0  0  0  0  0  0  0  0  0  0  0  0
    3.6227   -0.2918    1.4138 C   0  0  0  0  0  0  0  0  0  0  0  0
   -1.9309    0.9390    0.1756 C   0  0  0  0  0  0  0  0  0  0  0  0
   -3.3634    0.4133    3.7324 H   0  0  0  0  0  0  0  0  0  0  0  0
   -2.0823    3.9264    1.8759 H   0  0  0  0  0  0  0  0  0  0  0  0
   -1.8894    4.8396   -0.4112 H   0  0  0  0  0  0  0  0  0  0  0  0
   -1.8504    3.2922   -2.3420 H   0  0  0  0  0  0  0  0  0  0  0  0
   -2.4386   -1.2272   -4.2109 H   0  0  0  0  0  0  0  0  0  0  0  0
   -2.8202   -3.6528   -3.8744 H   0  0  0  0  0  0  0  0  0  0  0  0
   -2.7757   -4.6008   -1.5806 H   0  0  0  0  0  0  0  0  0  0  0  0
   -2.3648   -3.1655    0.3549 H   0  0  0  0  0  0  0  0  0  0  0  0
   -1.3317   -1.9375    1.7491 H   0  0  0  0  0  0  0  0  0  0  0  0
   -0.8063   -0.3727    2.1864 H   0  0  0  0  0  0  0  0  0  0  0  0
    0.4479   -1.8399   -0.1918 H   0  0  0  0  0  0  0  0  0  0  0  0
    2.0137   -2.4004    1.2288 H   0  0  0  0  0  0  0  0  0  0  0  0
    0.8596    0.5484   -0.2253 H   0  0  0  0  0  0  0  0  0  0  0  0
    1.2637    0.6098    1.4821 H   0  0  0  0  0  0  0  0  0  0  0  0
    3.0253    1.8149   -0.1321 H   0  0  0  0  0  0  0  0  0  0  0  0
    2.9240    0.8132   -1.6061 H   0  0  0  0  0  0  0  0  0  0  0  0
    5.3258    1.5835   -0.5284 H   0  0  0  0  0  0  0  0  0  0  0  0
    5.1362    0.0164   -1.3284 H   0  0  0  0  0  0  0  0  0  0  0  0
    5.6560    0.4876    1.4901 H   0  0  0  0  0  0  0  0  0  0  0  0
    5.4984   -1.0583    0.6334 H   0  0  0  0  0  0  0  0  0  0  0  0
    3.5681   -1.2242    1.9782 H   0  0  0  0  0  0  0  0  0  0  0  0
    3.4099    0.5334    2.0991 H   0  0  0  0  0  0  0  0  0  0  0  0
  1  2  2  0
  2  3  1  0
  2  4  1  0
  4  5  2  0
  5  6  1  0
  6  7  2  0
  7  8  1  0
  8  9  1  0
  9 10  2  0
  9 11  1  0
 11 12  2  0
 12 13  1  0
 13 14  2  0
 14 15  1  0
 15 16  2  0
 16 17  1  0
 17 18  1  0
 18 19  1  0
 19 20  1  0
 19 21  1  0
 21 22  1  0
 22 23  1  0
 23 24  1  0
 24 25  1  0
 25 26  1  0
 17 27  1  0
 27  4  1  0
 27  8  2  0
 16 11  1  0
 26 22  1  0
  3 28  1  0
  5 29  1  0
  6 30  1  0
  7 31  1  0
 12 32  1  0
 13 33  1  0
 14 34  1  0
 15 35  1  0
 18 36  1  0
 18 37  1  0
 19 38  1  0
 20 39  1  0
 21 40  1  0
 21 41  1  0
 23 42  1  0
 23 43  1  0
 24 44  1  0
 24 45  1  0
 25 46  1  0
 25 47  1  0
 26 48  1  0
 26 49  1  0
M  END
$$$$
