
     RDKit          3D

 59 62  0  0  0  0  0  0  0  0999 V2000
   -8.0113   -2.1166   -0.0518 C   0  0  0  0  0  0  0  0  0  0  0  0
   -6.8409   -2.8439   -0.6912 C   0  0  0  0  0  0  0  0  0  0  0  0
   -5.7187   -1.9566   -0.9545 N   0  0  0  0  0  0  0  0  0  0  0  0
   -5.5184   -1.2760   -2.1403 C   0  0  0  0  0  0  0  0  0  0  0  0
   -6.2796   -1.2221   -3.3202 C   0  0  0  0  0  0  0  0  0  0  0  0
   -5.8094   -0.4351   -4.3759 C   0  0  0  0  0  0  0  0  0  0  0  0
   -4.6212    0.2788   -4.2619 C   0  0  0  0  0  0  0  0  0  0  0  0
   -3.8735    0.2244   -3.0816 C   0  0  0  0  0  0  0  0  0  0  0  0
   -4.3260   -0.5633   -2.0015 C   0  0  0  0  0  0  0  0  0  0  0  0
   -3.8145   -0.8238   -0.6915 C   0  0  0  0  0  0  0  0  0  0  0  0
   -2.6637   -0.3868    0.0065 C   0  0  0  0  0  0  0  0  0  0  0  0
   -2.4268   -0.8174    1.3154 C   0  0  0  0  0  0  0  0  0  0  0  0
   -1.3087   -0.4235    2.0808 N   0  0  0  0  0  0  0  0  0  0  0  0
   -0.2338    0.3526    1.6703 C   0  0  0  0  0  0  0  0  0  0  0  0
   -0.0523    0.8062    0.5431 O   0  0  0  0  0  0  0  0  0  0  0  0
    0.7580    0.6441    2.8159 C   0  0  0  0  0  0  0  0  0  0  0  0
    0.2381    1.8119    3.6447 C   0  0  0  0  0  0  0  0  0  0  0  0
    2.0452    1.0092    2.3078 O   0  0  0  0  0  0  0  0  0  0  0  0
    2.7754   -0.0397    1.8552 C   0  0  0  0  0  0  0  0  0  0  0  0
    2.4858   -1.2183    1.9814 O   0  0  0  0  0  0  0  0  0  0  0  0
    4.0242    0.4444    1.2165 C   0  0  0  0  0  0  0  0  0  0  0  0
    4.1365    1.7361    0.6933 C   0  0  0  0  0  0  0  0  0  0  0  0
    5.3302    2.1440    0.0880 C   0  0  0  0  0  0  0  0  0  0  0  0
    6.4273    1.2742    0.0023 C   0  0  0  0  0  0  0  0  0  0  0  0
    7.5912    1.7683   -0.6270 N   0  0  0  0  0  0  0  0  0  0  0  0
    8.8211    1.1362   -0.7394 C   0  0  0  0  0  0  0  0  0  0  0  0
    9.1054    0.0299   -0.2849 O   0  0  0  0  0  0  0  0  0  0  0  0
    9.8397    1.8989   -1.5597 C   0  0  0  0  0  0  0  0  0  0  0  0
   10.0598    3.2437   -1.0312 C   0  0  0  0  0  0  0  0  0  0  0  0
   10.1881    4.3303   -0.6449 N   0  0  0  0  0  0  0  0  0  0  0  0
    6.3036   -0.0171    0.5178 C   0  0  0  0  0  0  0  0  0  0  0  0
    5.1069   -0.4334    1.1153 C   0  0  0  0  0  0  0  0  0  0  0  0
   -3.3435   -1.6771    1.9281 C   0  0  0  0  0  0  0  0  0  0  0  0
   -4.4899   -2.1278    1.2607 C   0  0  0  0  0  0  0  0  0  0  0  0
   -4.7034   -1.6887   -0.0546 C   0  0  0  0  0  0  0  0  0  0  0  0
   -8.8389   -2.8107    0.1237 H   0  0  0  0  0  0  0  0  0  0  0  0
   -7.7267   -1.6755    0.9097 H   0  0  0  0  0  0  0  0  0  0  0  0
   -8.3748   -1.3080   -0.6951 H   0  0  0  0  0  0  0  0  0  0  0  0
   -7.1433   -3.3067   -1.6372 H   0  0  0  0  0  0  0  0  0  0  0  0
   -6.4889   -3.6547   -0.0439 H   0  0  0  0  0  0  0  0  0  0  0  0
   -7.2098   -1.7713   -3.4238 H   0  0  0  0  0  0  0  0  0  0  0  0
   -6.3817   -0.3822   -5.2986 H   0  0  0  0  0  0  0  0  0  0  0  0
   -4.2689    0.8840   -5.0935 H   0  0  0  0  0  0  0  0  0  0  0  0
   -2.9472    0.7861   -2.9965 H   0  0  0  0  0  0  0  0  0  0  0  0
   -1.9875    0.2865   -0.5063 H   0  0  0  0  0  0  0  0  0  0  0  0
   -1.2640   -0.8068    3.0168 H   0  0  0  0  0  0  0  0  0  0  0  0
    0.8461   -0.2331    3.4698 H   0  0  0  0  0  0  0  0  0  0  0  0
    0.1549    2.7185    3.0342 H   0  0  0  0  0  0  0  0  0  0  0  0
   -0.7465    1.5973    4.0714 H   0  0  0  0  0  0  0  0  0  0  0  0
    0.9318    2.0409    4.4609 H   0  0  0  0  0  0  0  0  0  0  0  0
    3.2992    2.4285    0.7372 H   0  0  0  0  0  0  0  0  0  0  0  0
    5.3864    3.1565   -0.3077 H   0  0  0  0  0  0  0  0  0  0  0  0
    7.5136    2.7156   -0.9832 H   0  0  0  0  0  0  0  0  0  0  0  0
    9.4869    1.9368   -2.5957 H   0  0  0  0  0  0  0  0  0  0  0  0
   10.7814    1.3389   -1.5536 H   0  0  0  0  0  0  0  0  0  0  0  0
    7.1138   -0.7376    0.4640 H   0  0  0  0  0  0  0  0  0  0  0  0
    5.0281   -1.4488    1.4986 H   0  0  0  0  0  0  0  0  0  0  0  0
   -3.1808   -2.0237    2.9463 H   0  0  0  0  0  0  0  0  0  0  0  0
   -5.1843   -2.7968    1.7587 H   0  0  0  0  0  0  0  0  0  0  0  0
  1  2  1  0
  2  3  1  0
  3  4  1  0
  4  5  2  0
  5  6  1  0
  6  7  2  0
  7  8  1  0
  8  9  2  0
  9 10  1  0
 10 11  2  0
 11 12  1  0
 12 13  1  0
 13 14  1  0
 14 15  2  0
 14 16  1  0
 16 17  1  0
 16 18  1  0
 18 19  1  0
 19 20  2  0
 19 21  1  0
 21 22  2  0
 22 23  1  0
 23 24  2  0
 24 25  1  0
 25 26  1  0
 26 27  2  0
 26 28  1  0
 28 29  1  0
 29 30  3  0
 24 31  1  0
 31 32  2  0
 12 33  2  0
 33 34  1  0
 34 35  2  0
 35  3  1  0
  9  4  1  0
 35 10  1  0
 32 21  1  0
  1 36  1  0
  1 37  1  0
  1 38  1  0
  2 39  1  0
  2 40  1  0
  5 41  1  0
  6 42  1  0
  7 43  1  0
  8 44  1  0
 11 45  1  0
 13 46  1  0
 16 47  1  0
 17 48  1  0
 17 49  1  0
 17 50  1  0
 22 51  1  0
 23 52  1  0
 25 53  1  0
 28 54  1  0
 28 55  1  0
 31 56  1  0
 32 57  1  0
 33 58  1  0
 34 59  1  0
M  END
$$$$
