
     RDKit          3D

 59 62  0  0  0  0  0  0  0  0999 V2000
    8.4247   -1.3687    2.0225 C   0  0  0  0  0  0  0  0  0  0  0  0
    7.5321   -0.8907    3.0219 O   0  0  0  0  0  0  0  0  0  0  0  0
    6.2569   -0.5959    2.6251 C   0  0  0  0  0  0  0  0  0  0  0  0
    5.3805   -0.2889    3.6714 C   0  0  0  0  0  0  0  0  0  0  0  0
    4.0432    0.0272    3.4171 C   0  0  0  0  0  0  0  0  0  0  0  0
    3.5737    0.0437    2.1040 C   0  0  0  0  0  0  0  0  0  0  0  0
    2.1812    0.3595    1.7930 C   0  0  0  0  0  0  0  0  0  0  0  0
    1.7396    0.3655    0.5216 C   0  0  0  0  0  0  0  0  0  0  0  0
    0.3204    0.6749    0.1435 C   0  0  0  0  0  0  0  0  0  0  0  0
   -0.5933   -0.3064    0.7569 N   0  0  0  0  0  0  0  0  0  0  0  0
   -0.6016   -1.6742    0.1825 C   0  0  0  0  0  0  0  0  0  0  0  0
   -1.6727   -1.9429   -0.8737 C   0  0  0  0  0  0  0  0  0  0  0  0
   -1.5624   -1.1063   -2.1375 C   0  0  0  0  0  0  0  0  0  0  0  0
   -2.3134   -1.9586   -3.1290 C   0  0  0  0  0  0  0  0  0  0  0  0
   -1.8863   -3.3548   -2.7270 C   0  0  0  0  0  0  0  0  0  0  0  0
   -1.5810   -3.3134   -1.3239 O   0  0  0  0  0  0  0  0  0  0  0  0
   -1.8299    0.2232    1.7640 S   0  0  0  0  0  6  0  0  0  0  0  0
   -2.4372   -0.9330    2.3857 O   0  0  0  0  0  0  0  0  0  0  0  0
   -1.3185    1.3175    2.5635 O   0  0  0  0  0  0  0  0  0  0  0  0
   -3.0336    0.9305    0.6534 C   0  0  0  0  0  0  0  0  0  0  0  0
   -2.8322    2.2170    0.1423 C   0  0  0  0  0  0  0  0  0  0  0  0
   -3.7853    2.7876   -0.7090 C   0  0  0  0  0  0  0  0  0  0  0  0
   -4.9526    2.0846   -1.0330 C   0  0  0  0  0  0  0  0  0  0  0  0
   -5.9968    2.6481   -1.9414 C   0  0  0  0  0  0  0  0  0  0  0  0
   -5.8399    4.0568   -2.4505 C   0  0  0  0  0  0  0  0  0  0  0  0
   -6.9598    1.9562   -2.2698 O   0  0  0  0  0  0  0  0  0  0  0  0
   -5.1616    0.8100   -0.4849 C   0  0  0  0  0  0  0  0  0  0  0  0
   -4.2135    0.2396    0.3689 C   0  0  0  0  0  0  0  0  0  0  0  0
    2.6838    0.0690   -0.5961 C   0  0  0  0  0  0  0  0  0  0  0  0
    2.3189    0.0842   -1.7686 O   0  0  0  0  0  0  0  0  0  0  0  0
    3.9777   -0.2283   -0.2604 N   0  0  0  0  0  0  0  0  0  0  0  0
    4.4537   -0.2552    1.0577 C   0  0  0  0  0  0  0  0  0  0  0  0
    5.7911   -0.5748    1.3098 C   0  0  0  0  0  0  0  0  0  0  0  0
    8.0358   -2.2755    1.5457 H   0  0  0  0  0  0  0  0  0  0  0  0
    9.3662   -1.6299    2.5133 H   0  0  0  0  0  0  0  0  0  0  0  0
    8.6394   -0.5912    1.2806 H   0  0  0  0  0  0  0  0  0  0  0  0
    5.7432   -0.3043    4.6970 H   0  0  0  0  0  0  0  0  0  0  0  0
    3.3816    0.2559    4.2505 H   0  0  0  0  0  0  0  0  0  0  0  0
    1.5093    0.5763    2.6181 H   0  0  0  0  0  0  0  0  0  0  0  0
    0.1604    0.6998   -0.9368 H   0  0  0  0  0  0  0  0  0  0  0  0
    0.1031    1.6916    0.4862 H   0  0  0  0  0  0  0  0  0  0  0  0
    0.3831   -1.9099   -0.2403 H   0  0  0  0  0  0  0  0  0  0  0  0
   -0.7104   -2.3961    1.0021 H   0  0  0  0  0  0  0  0  0  0  0  0
   -2.6683   -1.8434   -0.4354 H   0  0  0  0  0  0  0  0  0  0  0  0
   -0.5170   -1.0168   -2.4571 H   0  0  0  0  0  0  0  0  0  0  0  0
   -1.9817   -0.1026   -2.0336 H   0  0  0  0  0  0  0  0  0  0  0  0
   -2.0844   -1.7265   -4.1727 H   0  0  0  0  0  0  0  0  0  0  0  0
   -3.3935   -1.8393   -2.9808 H   0  0  0  0  0  0  0  0  0  0  0  0
   -2.6645   -4.1002   -2.9135 H   0  0  0  0  0  0  0  0  0  0  0  0
   -0.9759   -3.6600   -3.2538 H   0  0  0  0  0  0  0  0  0  0  0  0
   -1.9475    2.7900    0.4110 H   0  0  0  0  0  0  0  0  0  0  0  0
   -3.5954    3.7838   -1.0989 H   0  0  0  0  0  0  0  0  0  0  0  0
   -6.7353    4.3369   -3.0171 H   0  0  0  0  0  0  0  0  0  0  0  0
   -4.9778    4.1180   -3.1191 H   0  0  0  0  0  0  0  0  0  0  0  0
   -5.7408    4.7566   -1.6172 H   0  0  0  0  0  0  0  0  0  0  0  0
   -6.0731    0.2578   -0.7130 H   0  0  0  0  0  0  0  0  0  0  0  0
   -4.4078   -0.7390    0.8025 H   0  0  0  0  0  0  0  0  0  0  0  0
    4.5976   -0.4378   -1.0308 H   0  0  0  0  0  0  0  0  0  0  0  0
    6.4478   -0.7970    0.4762 H   0  0  0  0  0  0  0  0  0  0  0  0
  1  2  1  0
  2  3  1  0
  3  4  2  0
  4  5  1  0
  5  6  2  0
  6  7  1  0
  7  8  2  0
  8  9  1  0
  9 10  1  0
 10 11  1  0
 11 12  1  0
 12 13  1  0
 13 14  1  0
 14 15  1  0
 15 16  1  0
 10 17  1  0
 17 18  2  0
 17 19  2  0
 17 20  1  0
 20 21  2  0
 21 22  1  0
 22 23  2  0
 23 24  1  0
 24 25  1  0
 24 26  2  0
 23 27  1  0
 27 28  2  0
  8 29  1  0
 29 30  2  0
 29 31  1  0
 31 32  1  0
 32 33  2  0
 33  3  1  0
 32  6  1  0
 16 12  1  0
 28 20  1  0
  1 34  1  0
  1 35  1  0
  1 36  1  0
  4 37  1  0
  5 38  1  0
  7 39  1  0
  9 40  1  0
  9 41  1  0
 11 42  1  0
 11 43  1  0
 12 44  1  0
 13 45  1  0
 13 46  1  0
 14 47  1  0
 14 48  1  0
 15 49  1  0
 15 50  1  0
 21 51  1  0
 22 52  1  0
 25 53  1  0
 25 54  1  0
 25 55  1  0
 27 56  1  0
 28 57  1  0
 31 58  1  0
 33 59  1  0
M  END
$$$$
