
     RDKit          3D

 38 38  0  0  0  0  0  0  0  0999 V2000
    5.5983   -0.7805   -2.5783 C   0  0  0  0  0  0  0  0  0  0  0  0
    4.4046   -0.7992   -3.5147 C   0  0  0  0  0  0  0  0  0  0  0  0
    3.3629    0.0486   -3.0074 O   0  0  0  0  0  0  0  0  0  0  0  0
    2.5211   -0.5245   -2.1023 C   0  0  0  0  0  0  0  0  0  0  0  0
    2.5563   -1.6942   -1.7447 O   0  0  0  0  0  0  0  0  0  0  0  0
    1.4825    0.4634   -1.6595 C   0  0  0  0  0  0  0  0  0  0  0  0
    1.2974    0.4577   -0.1653 C   0  0  0  0  0  0  0  0  0  0  0  0
    2.2523    0.4864    0.6090 O   0  0  0  0  0  0  0  0  0  0  0  0
   -0.0809    0.4402    0.3974 C   0  0  0  0  0  0  0  0  0  0  0  0
   -1.1597    1.0263   -0.2779 C   0  0  0  0  0  0  0  0  0  0  0  0
   -2.4373    0.9882    0.2850 C   0  0  0  0  0  0  0  0  0  0  0  0
   -3.5615    1.5197   -0.2920 O   0  0  0  0  0  0  0  0  0  0  0  0
   -3.3874    2.3692   -1.4174 C   0  0  0  0  0  0  0  0  0  0  0  0
   -2.6189    0.3482    1.5245 C   0  0  0  0  0  0  0  0  0  0  0  0
   -3.8715    0.3472    2.0990 O   0  0  0  0  0  0  0  0  0  0  0  0
   -4.5676   -0.8454    1.7411 C   0  0  0  0  0  0  0  0  0  0  0  0
   -1.5367   -0.2083    2.2276 C   0  0  0  0  0  0  0  0  0  0  0  0
   -1.8249   -0.7760    3.4412 O   0  0  0  0  0  0  0  0  0  0  0  0
   -0.7281   -1.1921    4.2446 C   0  0  0  0  0  0  0  0  0  0  0  0
   -0.2678   -0.1620    1.6508 C   0  0  0  0  0  0  0  0  0  0  0  0
    5.3324   -1.1793   -1.5942 H   0  0  0  0  0  0  0  0  0  0  0  0
    5.9484    0.2452   -2.4222 H   0  0  0  0  0  0  0  0  0  0  0  0
    6.4201   -1.3760   -2.9858 H   0  0  0  0  0  0  0  0  0  0  0  0
    4.6964   -0.3974   -4.4905 H   0  0  0  0  0  0  0  0  0  0  0  0
    4.0412   -1.8194   -3.6828 H   0  0  0  0  0  0  0  0  0  0  0  0
    1.7682    1.4801   -1.9505 H   0  0  0  0  0  0  0  0  0  0  0  0
    0.5629    0.2012   -2.1902 H   0  0  0  0  0  0  0  0  0  0  0  0
   -0.9939    1.5214   -1.2271 H   0  0  0  0  0  0  0  0  0  0  0  0
   -4.3650    2.7875   -1.6756 H   0  0  0  0  0  0  0  0  0  0  0  0
   -3.0290    1.8026   -2.2828 H   0  0  0  0  0  0  0  0  0  0  0  0
   -2.7177    3.2043   -1.1865 H   0  0  0  0  0  0  0  0  0  0  0  0
   -4.6992   -0.9203    0.6560 H   0  0  0  0  0  0  0  0  0  0  0  0
   -5.5605   -0.8031    2.1987 H   0  0  0  0  0  0  0  0  0  0  0  0
   -4.0580   -1.7366    2.1229 H   0  0  0  0  0  0  0  0  0  0  0  0
   -1.1284   -1.5384    5.2024 H   0  0  0  0  0  0  0  0  0  0  0  0
   -0.0466   -0.3599    4.4500 H   0  0  0  0  0  0  0  0  0  0  0  0
   -0.2003   -2.0323    3.7820 H   0  0  0  0  0  0  0  0  0  0  0  0
    0.5959   -0.5923    2.1505 H   0  0  0  0  0  0  0  0  0  0  0  0
  1  2  1  0
  2  3  1  0
  3  4  1  0
  4  5  2  0
  4  6  1  0
  6  7  1  0
  7  8  2  0
  7  9  1  0
  9 10  2  0
 10 11  1  0
 11 12  1  0
 12 13  1  0
 11 14  2  0
 14 15  1  0
 15 16  1  0
 14 17  1  0
 17 18  1  0
 18 19  1  0
 17 20  2  0
 20  9  1  0
  1 21  1  0
  1 22  1  0
  1 23  1  0
  2 24  1  0
  2 25  1  0
  6 26  1  0
  6 27  1  0
 10 28  1  0
 13 29  1  0
 13 30  1  0
 13 31  1  0
 16 32  1  0
 16 33  1  0
 16 34  1  0
 19 35  1  0
 19 36  1  0
 19 37  1  0
 20 38  1  0
M  END
$$$$
