
     RDKit          3D

 37 38  0  0  0  0  0  0  0  0999 V2000
    3.7518   -0.3498   -2.1492 C   0  0  0  0  0  0  0  0  0  0  0  0
    4.0950   -0.8064   -0.7427 C   0  0  0  0  0  0  0  0  0  0  0  0
    3.2293   -0.2060    0.2531 N   0  0  0  0  0  0  0  0  0  0  0  0
    2.1093   -0.7564    0.7971 C   0  0  0  0  0  0  0  0  0  0  0  0
    1.6157    0.1671    1.6976 C   0  0  0  0  0  0  0  0  0  0  0  0
    0.4020    0.0437    2.5463 C   0  0  0  0  0  0  0  0  0  0  0  0
   -0.7546    0.2916    1.7135 N   0  0  0  0  0  0  0  0  0  0  0  0
   -1.4992   -0.7480    1.2015 C   0  0  0  0  0  0  0  0  0  0  0  0
   -1.3291   -1.9252    1.4938 O   0  0  0  0  0  0  0  0  0  0  0  0
   -2.5436   -0.3815    0.2067 C   0  0  0  0  0  0  0  0  0  0  0  0
   -3.2014    0.8567    0.2478 C   0  0  0  0  0  0  0  0  0  0  0  0
   -4.1835    1.1636   -0.6978 C   0  0  0  0  0  0  0  0  0  0  0  0
   -4.5188    0.2357   -1.6849 C   0  0  0  0  0  0  0  0  0  0  0  0
   -3.8694   -1.0065   -1.7166 C   0  0  0  0  0  0  0  0  0  0  0  0
   -4.2237   -1.9830   -2.7535 N   0  0  0  0  0  4  0  0  0  0  0  0
   -5.1926   -1.7224   -3.4810 O   0  0  0  0  0  0  0  0  0  0  0  0
   -3.5301   -3.0050   -2.8451 O   0  0  0  0  0  1  0  0  0  0  0  0
   -2.8857   -1.3232   -0.7722 C   0  0  0  0  0  0  0  0  0  0  0  0
    2.5333    1.2518    1.6201 C   0  0  0  0  0  0  0  0  0  0  0  0
    2.5087    2.5286    2.3763 C   0  0  0  0  0  0  0  0  0  0  0  0
    3.5077    1.0185    0.7327 N   0  0  0  0  0  0  0  0  0  0  0  0
    3.8558    0.7358   -2.2491 H   0  0  0  0  0  0  0  0  0  0  0  0
    4.4174   -0.8249   -2.8763 H   0  0  0  0  0  0  0  0  0  0  0  0
    2.7200   -0.6110   -2.4076 H   0  0  0  0  0  0  0  0  0  0  0  0
    5.1272   -0.5425   -0.4879 H   0  0  0  0  0  0  0  0  0  0  0  0
    3.9962   -1.8942   -0.6585 H   0  0  0  0  0  0  0  0  0  0  0  0
    1.7511   -1.7364    0.5108 H   0  0  0  0  0  0  0  0  0  0  0  0
    0.3472   -0.9462    3.0106 H   0  0  0  0  0  0  0  0  0  0  0  0
    0.3969    0.7958    3.3412 H   0  0  0  0  0  0  0  0  0  0  0  0
   -0.7869    1.1883    1.2502 H   0  0  0  0  0  0  0  0  0  0  0  0
   -2.9807    1.5818    1.0273 H   0  0  0  0  0  0  0  0  0  0  0  0
   -4.6948    2.1237   -0.6595 H   0  0  0  0  0  0  0  0  0  0  0  0
   -5.2866    0.4904   -2.4136 H   0  0  0  0  0  0  0  0  0  0  0  0
   -2.3817   -2.2888   -0.7865 H   0  0  0  0  0  0  0  0  0  0  0  0
    1.5502    3.0378    2.2341 H   0  0  0  0  0  0  0  0  0  0  0  0
    2.6449    2.3390    3.4457 H   0  0  0  0  0  0  0  0  0  0  0  0
    3.3027    3.2076    2.0486 H   0  0  0  0  0  0  0  0  0  0  0  0
  1  2  1  0
  2  3  1  0
  3  4  1  0
  4  5  2  0
  5  6  1  0
  6  7  1  0
  7  8  1  0
  8  9  2  0
  8 10  1  0
 10 11  2  0
 11 12  1  0
 12 13  2  0
 13 14  1  0
 14 15  1  0
 15 16  2  0
 15 17  1  0
 14 18  2  0
  5 19  1  0
 19 20  1  0
 19 21  2  0
 21  3  1  0
 18 10  1  0
  1 22  1  0
  1 23  1  0
  1 24  1  0
  2 25  1  0
  2 26  1  0
  4 27  1  0
  6 28  1  0
  6 29  1  0
  7 30  1  0
 11 31  1  0
 12 32  1  0
 13 33  1  0
 18 34  1  0
 20 35  1  0
 20 36  1  0
 20 37  1  0
M  CHG  2  15   1  17  -1
M  END
$$$$
