
     RDKit          3D

 70 75  0  0  0  0  0  0  0  0999 V2000
    2.4267   -1.0032   -0.6591 O   0  0  0  0  0  0  0  0  0  0  0  0
    1.7327    0.2439   -0.7904 C   0  0  0  0  0  0  0  0  0  0  0  0
    2.5415    1.2310   -1.6622 C   0  0  0  0  0  0  0  0  0  0  0  0
    3.6466    1.8284   -0.9245 N   0  0  0  0  0  0  0  0  0  0  0  0
    4.8278    1.1910   -0.6302 C   0  0  0  0  0  0  0  0  0  0  0  0
    5.0275   -0.0224   -1.0724 N   0  0  0  0  0  0  0  0  0  0  0  0
    6.2342   -0.6935   -0.7801 C   0  0  0  0  0  0  0  0  0  0  0  0
    6.4119   -1.9857   -1.2792 C   0  0  0  0  0  0  0  0  0  0  0  0
    7.5877   -2.6943   -1.0185 C   0  0  0  0  0  0  0  0  0  0  0  0
    8.5999   -2.1151   -0.2519 C   0  0  0  0  0  0  0  0  0  0  0  0
    8.4436   -0.8263    0.2591 C   0  0  0  0  0  0  0  0  0  0  0  0
    7.2626   -0.1288   -0.0097 C   0  0  0  0  0  0  0  0  0  0  0  0
    7.0236    1.1722    0.4632 N   0  0  0  0  0  0  0  0  0  0  0  0
    7.8186    1.9874    1.2330 C   0  0  0  0  0  0  0  0  0  0  0  0
    7.1533    3.1800    1.4269 C   0  0  0  0  0  0  0  0  0  0  0  0
    5.9118    3.0837    0.7550 C   0  0  0  0  0  0  0  0  0  0  0  0
    5.8499    1.8306    0.1714 C   0  0  0  0  0  0  0  0  0  0  0  0
    0.3521   -0.0171   -1.4465 C   0  0  0  0  0  0  0  0  0  0  0  0
   -0.5820   -0.8379   -0.6499 N   0  0  0  0  0  0  0  0  0  0  0  0
   -1.7104   -1.3009   -1.4768 C   0  0  0  0  0  0  0  0  0  0  0  0
   -2.7571   -2.0981   -0.6644 C   0  0  0  0  0  0  0  0  0  0  0  0
   -3.3078   -1.3865    0.5161 N   0  0  0  0  0  0  0  0  0  0  0  0
   -4.1913   -0.2436    0.1392 C   0  0  0  0  0  0  0  0  0  0  0  0
   -4.7442    0.5228    1.3506 C   0  0  0  0  0  0  0  0  0  0  0  0
   -5.2825   -0.1435    2.4648 C   0  0  0  0  0  0  0  0  0  0  0  0
   -5.7947    0.5723    3.5488 C   0  0  0  0  0  0  0  0  0  0  0  0
   -5.7808    1.9651    3.5340 C   0  0  0  0  0  0  0  0  0  0  0  0
   -5.2578    2.6431    2.4354 C   0  0  0  0  0  0  0  0  0  0  0  0
   -4.7464    1.9286    1.3494 C   0  0  0  0  0  0  0  0  0  0  0  0
   -5.3546   -0.6466   -0.7798 C   0  0  0  0  0  0  0  0  0  0  0  0
   -5.6370    0.1134   -1.9286 C   0  0  0  0  0  0  0  0  0  0  0  0
   -6.6979   -0.2300   -2.7693 C   0  0  0  0  0  0  0  0  0  0  0  0
   -7.4938   -1.3338   -2.4735 C   0  0  0  0  0  0  0  0  0  0  0  0
   -7.2323   -2.0953   -1.3366 C   0  0  0  0  0  0  0  0  0  0  0  0
   -6.1730   -1.7531   -0.4940 C   0  0  0  0  0  0  0  0  0  0  0  0
   -2.1387   -0.9583    1.3262 C   0  0  0  0  0  0  0  0  0  0  0  0
   -1.0622   -0.1493    0.5595 C   0  0  0  0  0  0  0  0  0  0  0  0
    3.3888   -0.8171   -0.7265 H   0  0  0  0  0  0  0  0  0  0  0  0
    1.6141    0.6641    0.2134 H   0  0  0  0  0  0  0  0  0  0  0  0
    1.8958    2.0530   -1.9897 H   0  0  0  0  0  0  0  0  0  0  0  0
    2.9197    0.7346   -2.5632 H   0  0  0  0  0  0  0  0  0  0  0  0
    3.4214    2.6450   -0.3714 H   0  0  0  0  0  0  0  0  0  0  0  0
    5.6256   -2.4426   -1.8749 H   0  0  0  0  0  0  0  0  0  0  0  0
    7.7110   -3.6993   -1.4139 H   0  0  0  0  0  0  0  0  0  0  0  0
    9.5125   -2.6718   -0.0532 H   0  0  0  0  0  0  0  0  0  0  0  0
    9.2445   -0.3979    0.8524 H   0  0  0  0  0  0  0  0  0  0  0  0
    8.7903    1.6702    1.5838 H   0  0  0  0  0  0  0  0  0  0  0  0
    7.5256    4.0261    1.9913 H   0  0  0  0  0  0  0  0  0  0  0  0
    5.1515    3.8515    0.7039 H   0  0  0  0  0  0  0  0  0  0  0  0
   -0.1274    0.9372   -1.7000 H   0  0  0  0  0  0  0  0  0  0  0  0
    0.5447   -0.5424   -2.3919 H   0  0  0  0  0  0  0  0  0  0  0  0
   -1.3292   -1.9590   -2.2674 H   0  0  0  0  0  0  0  0  0  0  0  0
   -2.1977   -0.4531   -1.9742 H   0  0  0  0  0  0  0  0  0  0  0  0
   -2.2854   -3.0229   -0.3050 H   0  0  0  0  0  0  0  0  0  0  0  0
   -3.5516   -2.4417   -1.3347 H   0  0  0  0  0  0  0  0  0  0  0  0
   -3.5796    0.4712   -0.4262 H   0  0  0  0  0  0  0  0  0  0  0  0
   -5.2951   -1.2308    2.4934 H   0  0  0  0  0  0  0  0  0  0  0  0
   -6.2059    0.0405    4.4022 H   0  0  0  0  0  0  0  0  0  0  0  0
   -6.1817    2.5209    4.3779 H   0  0  0  0  0  0  0  0  0  0  0  0
   -5.2535    3.7300    2.4220 H   0  0  0  0  0  0  0  0  0  0  0  0
   -4.3531    2.4777    0.4976 H   0  0  0  0  0  0  0  0  0  0  0  0
   -5.0316    0.9820   -2.1759 H   0  0  0  0  0  0  0  0  0  0  0  0
   -6.9061    0.3671   -3.6532 H   0  0  0  0  0  0  0  0  0  0  0  0
   -8.3206   -1.6001   -3.1266 H   0  0  0  0  0  0  0  0  0  0  0  0
   -7.8540   -2.9550   -1.1027 H   0  0  0  0  0  0  0  0  0  0  0  0
   -5.9769   -2.3604    0.3873 H   0  0  0  0  0  0  0  0  0  0  0  0
   -2.4484   -0.3938    2.2119 H   0  0  0  0  0  0  0  0  0  0  0  0
   -1.6659   -1.8645    1.7296 H   0  0  0  0  0  0  0  0  0  0  0  0
   -0.2267    0.0113    1.2493 H   0  0  0  0  0  0  0  0  0  0  0  0
   -1.4629    0.8397    0.3050 H   0  0  0  0  0  0  0  0  0  0  0  0
  1  2  1  0
  2  3  1  0
  3  4  1  0
  4  5  1  0
  5  6  2  0
  6  7  1  0
  7  8  2  0
  8  9  1  0
  9 10  2  0
 10 11  1  0
 11 12  2  0
 12 13  1  0
 13 14  1  0
 14 15  2  0
 15 16  1  0
 16 17  2  0
  2 18  1  0
 18 19  1  0
 19 20  1  0
 20 21  1  0
 21 22  1  0
 22 23  1  0
 23 24  1  0
 24 25  2  0
 25 26  1  0
 26 27  2  0
 27 28  1  0
 28 29  2  0
 23 30  1  0
 30 31  2  0
 31 32  1  0
 32 33  2  0
 33 34  1  0
 34 35  2  0
 22 36  1  0
 36 37  1  0
 17  5  1  0
 37 19  1  0
 12  7  1  0
 17 13  1  0
 29 24  1  0
 35 30  1  0
  1 38  1  0
  2 39  1  0
  3 40  1  0
  3 41  1  0
  4 42  1  0
  8 43  1  0
  9 44  1  0
 10 45  1  0
 11 46  1  0
 14 47  1  0
 15 48  1  0
 16 49  1  0
 18 50  1  0
 18 51  1  0
 20 52  1  0
 20 53  1  0
 21 54  1  0
 21 55  1  0
 23 56  1  0
 25 57  1  0
 26 58  1  0
 27 59  1  0
 28 60  1  0
 29 61  1  0
 31 62  1  0
 32 63  1  0
 33 64  1  0
 34 65  1  0
 35 66  1  0
 36 67  1  0
 36 68  1  0
 37 69  1  0
 37 70  1  0
M  END
$$$$
