
     RDKit          3D

 31 32  0  0  0  0  0  0  0  0999 V2000
    2.2042   -2.0722    1.2986 C   0  0  0  0  0  0  0  0  0  0  0  0
    2.4540   -0.5796    1.1376 C   0  0  0  0  0  0  0  0  0  0  0  0
    2.7202   -0.2128   -0.2501 N   0  0  0  0  0  0  0  0  0  0  0  0
    1.9005    0.3975   -1.1553 C   0  0  0  0  0  0  0  0  0  0  0  0
    0.5036    0.7271   -0.9356 C   0  0  0  0  0  0  0  0  0  0  0  0
   -0.0788    1.8403   -1.5182 C   0  0  0  0  0  0  0  0  0  0  0  0
   -1.7244    2.0342   -1.1167 S   0  0  0  0  0  0  0  0  0  0  0  0
   -1.7318    0.5997   -0.1837 C   0  0  0  0  0  0  0  0  0  0  0  0
   -2.9814    0.1034    0.5109 C   0  0  0  0  0  0  0  0  0  0  0  0
   -4.0918   -0.2443   -0.4816 C   0  0  0  0  0  0  0  0  0  0  0  0
   -3.4768    1.0854    1.5736 C   0  0  0  0  0  0  0  0  0  0  0  0
   -0.4826    0.0048   -0.1835 C   0  0  0  0  0  0  0  0  0  0  0  0
    2.4758    0.7062   -2.2854 N   0  0  0  0  0  0  0  0  0  0  0  0
    3.7564    0.2656   -2.1429 N   0  0  0  0  0  0  0  0  0  0  0  0
    3.9386   -0.2884   -0.8869 C   0  0  0  0  0  0  0  0  0  0  0  0
    5.3942   -0.8783   -0.3566 S   0  0  0  0  0  0  0  0  0  0  0  0
    1.9428   -2.3021    2.3361 H   0  0  0  0  0  0  0  0  0  0  0  0
    1.3910   -2.4169    0.6534 H   0  0  0  0  0  0  0  0  0  0  0  0
    3.0927   -2.6558    1.0391 H   0  0  0  0  0  0  0  0  0  0  0  0
    1.5997   -0.0101    1.5121 H   0  0  0  0  0  0  0  0  0  0  0  0
    3.3164   -0.2917    1.7487 H   0  0  0  0  0  0  0  0  0  0  0  0
    0.3999    2.5662   -2.1631 H   0  0  0  0  0  0  0  0  0  0  0  0
   -2.7182   -0.8266    1.0340 H   0  0  0  0  0  0  0  0  0  0  0  0
   -3.7355   -0.9533   -1.2372 H   0  0  0  0  0  0  0  0  0  0  0  0
   -4.4660    0.6423   -1.0049 H   0  0  0  0  0  0  0  0  0  0  0  0
   -4.9398   -0.7052    0.0366 H   0  0  0  0  0  0  0  0  0  0  0  0
   -4.3116    0.6537    2.1363 H   0  0  0  0  0  0  0  0  0  0  0  0
   -2.6809    1.3264    2.2871 H   0  0  0  0  0  0  0  0  0  0  0  0
   -3.8261    2.0250    1.1320 H   0  0  0  0  0  0  0  0  0  0  0  0
   -0.3012   -0.9294    0.3299 H   0  0  0  0  0  0  0  0  0  0  0  0
    4.4571    0.3888   -2.8640 H   0  0  0  0  0  0  0  0  0  0  0  0
  1  2  1  0
  2  3  1  0
  3  4  1  0
  4  5  1  0
  5  6  2  0
  6  7  1  0
  7  8  1  0
  8  9  1  0
  9 10  1  0
  9 11  1  0
  8 12  2  0
  4 13  2  0
 13 14  1  0
 14 15  1  0
 15 16  2  0
 15  3  1  0
 12  5  1  0
  1 17  1  0
  1 18  1  0
  1 19  1  0
  2 20  1  0
  2 21  1  0
  6 22  1  0
  9 23  1  0
 10 24  1  0
 10 25  1  0
 10 26  1  0
 11 27  1  0
 11 28  1  0
 11 29  1  0
 12 30  1  0
 14 31  1  0
M  END
$$$$
