
     RDKit          3D

 53 54  0  0  0  0  0  0  0  0999 V2000
   -4.3096   -1.2715    2.7471 C   0  0  0  0  0  0  0  0  0  0  0  0
   -5.4849   -0.4313    2.2796 C   0  0  0  0  0  0  0  0  0  0  0  0
   -5.8547   -0.6815    0.8744 N   0  0  0  0  0  0  0  0  0  0  0  0
   -6.4430   -1.9899    0.5434 C   0  0  0  0  0  0  0  0  0  0  0  0
   -7.9582   -1.8803    0.5357 C   0  0  0  0  0  0  0  0  0  0  0  0
   -5.2863    0.3171   -0.3611 S   0  0  0  0  0  6  0  0  0  0  0  0
   -6.0675    0.0587   -1.5531 O   0  0  0  0  0  0  0  0  0  0  0  0
   -5.1447    1.6604    0.1586 O   0  0  0  0  0  0  0  0  0  0  0  0
   -3.6474   -0.3056   -0.6731 C   0  0  0  0  0  0  0  0  0  0  0  0
   -3.4680   -1.3544   -1.5805 C   0  0  0  0  0  0  0  0  0  0  0  0
   -2.1818   -1.8179   -1.8536 C   0  0  0  0  0  0  0  0  0  0  0  0
   -1.0782   -1.2268   -1.2326 C   0  0  0  0  0  0  0  0  0  0  0  0
   -1.2542   -0.1574   -0.3409 C   0  0  0  0  0  0  0  0  0  0  0  0
   -0.1101    0.4998    0.3471 C   0  0  0  0  0  0  0  0  0  0  0  0
   -0.2396    1.3600    1.2030 O   0  0  0  0  0  0  0  0  0  0  0  0
    1.0631    0.0062   -0.1073 O   0  0  0  0  0  0  0  0  0  0  0  0
    2.2158    0.5835    0.5041 C   0  0  0  0  0  0  0  0  0  0  0  0
    3.4793   -0.1390    0.0391 C   0  0  0  0  0  0  0  0  0  0  0  0
    3.4811   -1.0837   -0.7467 O   0  0  0  0  0  0  0  0  0  0  0  0
    4.6424    0.3699    0.5924 N   0  0  0  0  0  0  0  0  0  0  0  0
    5.9376   -0.0879    0.1184 C   0  0  0  0  0  0  0  0  0  0  0  0
    6.3505    0.5741   -1.2086 C   0  0  0  0  0  0  0  0  0  0  0  0
    6.9448    1.8952   -1.0271 N   0  0  0  0  0  0  0  0  0  0  0  0
    8.2794    2.1917   -1.1871 C   0  0  0  0  0  0  0  0  0  0  0  0
    9.1651    1.2691   -1.6545 O   0  0  0  0  0  0  0  0  0  0  0  0
    8.6224    3.4394   -0.8559 C   0  0  0  0  0  0  0  0  0  0  0  0
    7.2509    4.3558   -0.3254 S   0  0  0  0  0  0  0  0  0  0  0  0
    6.1875    2.9548   -0.5323 C   0  0  0  0  0  0  0  0  0  0  0  0
    5.0042    2.9583   -0.2302 O   0  0  0  0  0  0  0  0  0  0  0  0
   -2.5459    0.3115   -0.0705 C   0  0  0  0  0  0  0  0  0  0  0  0
   -4.0678   -1.0264    3.7865 H   0  0  0  0  0  0  0  0  0  0  0  0
   -4.5292   -2.3421    2.7057 H   0  0  0  0  0  0  0  0  0  0  0  0
   -3.4153   -1.0934    2.1482 H   0  0  0  0  0  0  0  0  0  0  0  0
   -6.3567   -0.6398    2.9112 H   0  0  0  0  0  0  0  0  0  0  0  0
   -5.2573    0.6285    2.4331 H   0  0  0  0  0  0  0  0  0  0  0  0
   -6.1383   -2.7526    1.2654 H   0  0  0  0  0  0  0  0  0  0  0  0
   -6.0934   -2.3417   -0.4318 H   0  0  0  0  0  0  0  0  0  0  0  0
   -8.2995   -1.1461   -0.2012 H   0  0  0  0  0  0  0  0  0  0  0  0
   -8.4077   -2.8467    0.2874 H   0  0  0  0  0  0  0  0  0  0  0  0
   -8.3362   -1.5703    1.5154 H   0  0  0  0  0  0  0  0  0  0  0  0
   -4.3204   -1.8052   -2.0845 H   0  0  0  0  0  0  0  0  0  0  0  0
   -2.0346   -2.6352   -2.5565 H   0  0  0  0  0  0  0  0  0  0  0  0
   -0.0833   -1.6069   -1.4591 H   0  0  0  0  0  0  0  0  0  0  0  0
    2.2927    1.6372    0.2134 H   0  0  0  0  0  0  0  0  0  0  0  0
    2.1544    0.4878    1.5945 H   0  0  0  0  0  0  0  0  0  0  0  0
    4.5916    1.3369    0.9106 H   0  0  0  0  0  0  0  0  0  0  0  0
    5.8823   -1.1732   -0.0215 H   0  0  0  0  0  0  0  0  0  0  0  0
    6.6687    0.1179    0.9070 H   0  0  0  0  0  0  0  0  0  0  0  0
    5.4816    0.6928   -1.8669 H   0  0  0  0  0  0  0  0  0  0  0  0
    7.0574   -0.0839   -1.7216 H   0  0  0  0  0  0  0  0  0  0  0  0
    8.7300    0.7869   -2.3761 H   0  0  0  0  0  0  0  0  0  0  0  0
    9.6213    3.8478   -0.9154 H   0  0  0  0  0  0  0  0  0  0  0  0
   -2.6903    1.1494    0.6105 H   0  0  0  0  0  0  0  0  0  0  0  0
  1  2  1  0
  2  3  1  0
  3  4  1  0
  4  5  1  0
  3  6  1  0
  6  7  2  0
  6  8  2  0
  6  9  1  0
  9 10  2  0
 10 11  1  0
 11 12  2  0
 12 13  1  0
 13 14  1  0
 14 15  2  0
 14 16  1  0
 16 17  1  0
 17 18  1  0
 18 19  2  0
 18 20  1  0
 20 21  1  0
 21 22  1  0
 22 23  1  0
 23 24  1  0
 24 25  1  0
 24 26  2  0
 26 27  1  0
 27 28  1  0
 28 29  2  0
 13 30  2  0
 30  9  1  0
 28 23  1  0
  1 31  1  0
  1 32  1  0
  1 33  1  0
  2 34  1  0
  2 35  1  0
  4 36  1  0
  4 37  1  0
  5 38  1  0
  5 39  1  0
  5 40  1  0
 10 41  1  0
 11 42  1  0
 12 43  1  0
 17 44  1  0
 17 45  1  0
 20 46  1  0
 21 47  1  0
 21 48  1  0
 22 49  1  0
 22 50  1  0
 25 51  1  0
 26 52  1  0
 30 53  1  0
M  END
$$$$
