
     RDKit          3D

 69 71  0  0  0  0  0  0  0  0999 V2000
   -5.1794   -1.3929   -5.3401 C   0  0  0  0  0  0  0  0  0  0  0  0
   -4.8111   -1.5508   -3.9773 O   0  0  0  0  0  0  0  0  0  0  0  0
   -3.6926   -0.8888   -3.5429 C   0  0  0  0  0  0  0  0  0  0  0  0
   -2.8916   -0.0739   -4.3432 C   0  0  0  0  0  0  0  0  0  0  0  0
   -1.7633    0.5450   -3.8055 C   0  0  0  0  0  0  0  0  0  0  0  0
   -1.4078    0.3392   -2.4714 C   0  0  0  0  0  0  0  0  0  0  0  0
   -2.1718   -0.4928   -1.6417 C   0  0  0  0  0  0  0  0  0  0  0  0
   -1.8171   -0.7556   -0.1797 C   0  0  0  0  0  0  0  0  0  0  0  0
   -2.5158    0.1967    0.8345 C   0  0  0  0  0  0  0  0  0  0  0  0
   -3.4380    0.9527    0.5368 O   0  0  0  0  0  0  0  0  0  0  0  0
   -2.1082   -0.0180    2.1492 N   0  0  0  0  0  0  0  0  0  0  0  0
   -2.5166    0.8076    3.2939 C   0  0  0  0  0  0  0  0  0  0  0  0
   -1.9132    0.1746    4.5629 C   0  0  0  0  0  0  0  0  0  0  0  0
   -4.0448    0.8442    3.4612 C   0  0  0  0  0  0  0  0  0  0  0  0
   -1.9684    2.2354    3.1457 C   0  0  0  0  0  0  0  0  0  0  0  0
   -0.3654   -0.9812    0.0970 N   0  0  0  0  0  0  0  0  0  0  0  0
    0.4816    0.1265    0.1982 C   0  0  0  0  0  0  0  0  0  0  0  0
    0.0580    1.2776    0.3038 O   0  0  0  0  0  0  0  0  0  0  0  0
    1.9756   -0.1500    0.1930 C   0  0  0  0  0  0  0  0  0  0  0  0
    2.7786    1.1473    0.2416 C   0  0  0  0  0  0  0  0  0  0  0  0
    4.2711    0.8903    0.1880 C   0  0  0  0  0  0  0  0  0  0  0  0
    4.7398   -0.2375    0.0796 O   0  0  0  0  0  0  0  0  0  0  0  0
    4.9904    2.0609    0.2734 N   0  0  0  0  0  0  0  0  0  0  0  0
    6.3631    2.1577    0.2399 C   0  0  0  0  0  0  0  0  0  0  0  0
    7.3342    1.1425    0.0925 C   0  0  0  0  0  0  0  0  0  0  0  0
    8.5361    1.8065    0.1376 C   0  0  0  0  0  0  0  0  0  0  0  0
    9.9462    1.3904    0.0595 C   0  0  0  0  0  0  0  0  0  0  0  0
    8.3036    3.1367    0.2887 O   0  0  0  0  0  0  0  0  0  0  0  0
    6.9400    3.3597    0.3456 N   0  0  0  0  0  0  0  0  0  0  0  0
    0.1446   -2.3067   -0.1915 C   0  0  0  0  0  0  0  0  0  0  0  0
    0.8731   -3.1066    0.8620 C   0  0  0  0  0  0  0  0  0  0  0  0
   -0.4638   -3.5647    0.3780 C   0  0  0  0  0  0  0  0  0  0  0  0
   -3.3402   -1.0672   -2.1897 C   0  0  0  0  0  0  0  0  0  0  0  0
   -4.1074   -1.8589   -1.3615 O   0  0  0  0  0  0  0  0  0  0  0  0
   -5.3768   -1.2509   -1.1006 C   0  0  0  0  0  0  0  0  0  0  0  0
   -6.0892   -1.9769   -5.5103 H   0  0  0  0  0  0  0  0  0  0  0  0
   -5.4088   -0.3464   -5.5681 H   0  0  0  0  0  0  0  0  0  0  0  0
   -4.4029   -1.7842   -6.0061 H   0  0  0  0  0  0  0  0  0  0  0  0
   -3.1206    0.1102   -5.3872 H   0  0  0  0  0  0  0  0  0  0  0  0
   -1.1539    1.1951   -4.4299 H   0  0  0  0  0  0  0  0  0  0  0  0
   -0.5331    0.8594   -2.0956 H   0  0  0  0  0  0  0  0  0  0  0  0
   -2.2726   -1.7210    0.0746 H   0  0  0  0  0  0  0  0  0  0  0  0
   -1.2109   -0.4817    2.2251 H   0  0  0  0  0  0  0  0  0  0  0  0
   -2.1803    0.7424    5.4611 H   0  0  0  0  0  0  0  0  0  0  0  0
   -2.2695   -0.8542    4.6947 H   0  0  0  0  0  0  0  0  0  0  0  0
   -0.8198    0.1366    4.5032 H   0  0  0  0  0  0  0  0  0  0  0  0
   -4.3264    1.3384    4.3982 H   0  0  0  0  0  0  0  0  0  0  0  0
   -4.5377    1.3943    2.6529 H   0  0  0  0  0  0  0  0  0  0  0  0
   -4.4637   -0.1687    3.4748 H   0  0  0  0  0  0  0  0  0  0  0  0
   -2.3786    2.7389    2.2616 H   0  0  0  0  0  0  0  0  0  0  0  0
   -0.8765    2.2256    3.0387 H   0  0  0  0  0  0  0  0  0  0  0  0
   -2.2123    2.8490    4.0205 H   0  0  0  0  0  0  0  0  0  0  0  0
    2.2331   -0.7058   -0.7154 H   0  0  0  0  0  0  0  0  0  0  0  0
    2.2265   -0.7591    1.0666 H   0  0  0  0  0  0  0  0  0  0  0  0
    2.5527    1.6977    1.1641 H   0  0  0  0  0  0  0  0  0  0  0  0
    2.5105    1.7875   -0.6087 H   0  0  0  0  0  0  0  0  0  0  0  0
    4.5198    2.9497    0.3837 H   0  0  0  0  0  0  0  0  0  0  0  0
    7.1871    0.0782   -0.0187 H   0  0  0  0  0  0  0  0  0  0  0  0
   10.4258    1.4852    1.0386 H   0  0  0  0  0  0  0  0  0  0  0  0
   10.0313    0.3479   -0.2644 H   0  0  0  0  0  0  0  0  0  0  0  0
   10.4932    2.0139   -0.6546 H   0  0  0  0  0  0  0  0  0  0  0  0
    0.5140   -2.3861   -1.2130 H   0  0  0  0  0  0  0  0  0  0  0  0
    0.9254   -2.7260    1.8753 H   0  0  0  0  0  0  0  0  0  0  0  0
    1.7433   -3.6766    0.5556 H   0  0  0  0  0  0  0  0  0  0  0  0
   -0.5038   -4.4312   -0.2729 H   0  0  0  0  0  0  0  0  0  0  0  0
   -1.2941   -3.5032    1.0696 H   0  0  0  0  0  0  0  0  0  0  0  0
   -5.3650   -0.1591   -1.2197 H   0  0  0  0  0  0  0  0  0  0  0  0
   -5.6461   -1.4715   -0.0617 H   0  0  0  0  0  0  0  0  0  0  0  0
   -6.1394   -1.6933   -1.7498 H   0  0  0  0  0  0  0  0  0  0  0  0
  1  2  1  0
  2  3  1  0
  3  4  2  0
  4  5  1  0
  5  6  2  0
  6  7  1  0
  7  8  1  0
  8  9  1  0
  9 10  2  0
  9 11  1  0
 11 12  1  0
 12 13  1  0
 12 14  1  0
 12 15  1  0
  8 16  1  0
 16 17  1  0
 17 18  2  0
 17 19  1  0
 19 20  1  0
 20 21  1  0
 21 22  2  0
 21 23  1  0
 23 24  1  0
 24 25  1  0
 25 26  2  0
 26 27  1  0
 26 28  1  0
 28 29  1  0
 16 30  1  0
 30 31  1  0
 31 32  1  0
  7 33  2  0
 33 34  1  0
 34 35  1  0
 33  3  1  0
 29 24  2  0
 32 30  1  0
  1 36  1  0
  1 37  1  0
  1 38  1  0
  4 39  1  0
  5 40  1  0
  6 41  1  0
  8 42  1  0
 11 43  1  0
 13 44  1  0
 13 45  1  0
 13 46  1  0
 14 47  1  0
 14 48  1  0
 14 49  1  0
 15 50  1  0
 15 51  1  0
 15 52  1  0
 19 53  1  0
 19 54  1  0
 20 55  1  0
 20 56  1  0
 23 57  1  0
 25 58  1  0
 27 59  1  0
 27 60  1  0
 27 61  1  0
 30 62  1  0
 31 63  1  0
 31 64  1  0
 32 65  1  0
 32 66  1  0
 35 67  1  0
 35 68  1  0
 35 69  1  0
M  END
$$$$
