
     RDKit          3D

 71 75  0  0  0  0  0  0  0  0999 V2000
   -1.5366    3.9637   -0.1505 C   0  0  0  0  0  0  0  0  0  0  0  0
   -1.3614    2.4895    0.1632 C   0  0  0  0  0  0  0  0  0  0  0  0
   -1.8407    1.5868   -0.7223 C   0  0  0  0  0  0  0  0  0  0  0  0
   -1.8946    0.1125   -0.7845 C   0  0  0  0  0  0  0  0  0  0  0  0
   -3.1060   -0.6871   -0.3155 C   0  0  2  0  0  0  0  0  0  0  0  0
   -2.9874   -2.0501    0.3409 C   0  0  0  0  0  0  0  0  0  0  0  0
   -3.3123   -2.0866    1.8491 C   0  0  0  0  0  0  0  0  0  0  0  0
   -2.4305   -1.2386    2.7469 C   0  0  2  0  0  0  0  0  0  0  0  0
   -2.6454   -1.3679    4.2192 C   0  0  0  0  0  0  0  0  0  0  0  0
   -2.4015    0.0961    2.2736 O   0  0  0  0  0  0  0  0  0  0  0  0
   -1.1461   -0.6166    2.2108 C   0  0  1  0  0  0  0  0  0  0  0  0
   -0.1098    0.2573    2.8135 C   0  0  1  0  0  0  0  0  0  0  0  0
    1.1307   -0.4626    3.3353 C   0  0  1  0  0  0  0  0  0  0  0  0
    1.5366   -1.5126    2.4639 O   0  0  0  0  0  0  0  0  0  0  0  0
    2.1845    0.6628    3.4240 C   0  0  1  0  0  0  0  0  0  0  0  0
    3.5925    0.2566    3.0027 C   0  0  0  0  0  0  0  0  0  0  0  0
    3.9964   -0.8967    3.7363 O   0  0  0  0  0  0  0  0  0  0  0  0
    1.6348    1.8379    2.5810 C   0  0  0  0  0  0  0  0  0  0  0  0
    0.4455    1.2686    1.7587 C   0  0  1  0  0  0  0  0  0  0  0  0
    0.9684    0.5696    0.6201 O   0  0  0  0  0  0  0  0  0  0  0  0
    1.5614    1.2879   -0.3614 C   0  0  0  0  0  0  0  0  0  0  0  0
    1.7094    2.4969   -0.3946 O   0  0  0  0  0  0  0  0  0  0  0  0
    2.0064    0.3396   -1.4011 C   0  0  0  0  0  0  0  0  0  0  0  0
    2.5818    0.7956   -2.5231 C   0  0  0  0  0  0  0  0  0  0  0  0
    3.0379   -0.0654   -3.6233 C   0  0  0  0  0  0  0  0  0  0  0  0
    3.5614   -1.3481   -3.4102 C   0  0  0  0  0  0  0  0  0  0  0  0
    4.0071   -2.1225   -4.4849 C   0  0  0  0  0  0  0  0  0  0  0  0
    3.9447   -1.6191   -5.7825 C   0  0  0  0  0  0  0  0  0  0  0  0
    3.4414   -0.3396   -6.0063 C   0  0  0  0  0  0  0  0  0  0  0  0
    2.9961    0.4351   -4.9321 C   0  0  0  0  0  0  0  0  0  0  0  0
   -0.6567    2.3339    1.4983 C   0  0  0  0  0  0  0  0  0  0  0  0
   -0.9539    3.1365    2.3951 O   0  0  0  0  0  0  0  0  0  0  0  0
   -2.8359   -0.5459   -1.8037 C   0  0  0  0  0  0  0  0  0  0  0  0
   -3.8670    0.2384   -2.5847 C   0  0  0  0  0  0  0  0  0  0  0  0
   -2.2633   -1.6993   -2.5970 C   0  0  0  0  0  0  0  0  0  0  0  0
   -0.5825    4.4928   -0.0477 H   0  0  0  0  0  0  0  0  0  0  0  0
   -2.2657    4.4173    0.5296 H   0  0  0  0  0  0  0  0  0  0  0  0
   -1.8884    4.1394   -1.1730 H   0  0  0  0  0  0  0  0  0  0  0  0
   -2.2732    2.0440   -1.6129 H   0  0  0  0  0  0  0  0  0  0  0  0
   -0.9182   -0.3524   -0.7180 H   0  0  0  0  0  0  0  0  0  0  0  0
   -3.9506   -0.1348    0.0881 H   0  0  0  0  0  0  0  0  0  0  0  0
   -3.6979   -2.7199   -0.1603 H   0  0  0  0  0  0  0  0  0  0  0  0
   -1.9936   -2.4797    0.1729 H   0  0  0  0  0  0  0  0  0  0  0  0
   -4.3540   -1.7740    1.9943 H   0  0  0  0  0  0  0  0  0  0  0  0
   -3.2447   -3.1285    2.1848 H   0  0  0  0  0  0  0  0  0  0  0  0
   -2.0536   -0.6470    4.7917 H   0  0  0  0  0  0  0  0  0  0  0  0
   -2.3632   -2.3716    4.5536 H   0  0  0  0  0  0  0  0  0  0  0  0
   -3.6995   -1.2078    4.4699 H   0  0  0  0  0  0  0  0  0  0  0  0
   -0.7725   -1.0775    1.3085 H   0  0  0  0  0  0  0  0  0  0  0  0
   -0.5432    0.8211    3.6536 H   0  0  0  0  0  0  0  0  0  0  0  0
    0.9383   -0.9108    4.3162 H   0  0  0  0  0  0  0  0  0  0  0  0
    2.3743   -1.8659    2.8317 H   0  0  0  0  0  0  0  0  0  0  0  0
    2.2253    0.9939    4.4709 H   0  0  0  0  0  0  0  0  0  0  0  0
    3.6358    0.0097    1.9369 H   0  0  0  0  0  0  0  0  0  0  0  0
    4.3118    1.0619    3.1859 H   0  0  0  0  0  0  0  0  0  0  0  0
    4.2790   -0.5904    4.6174 H   0  0  0  0  0  0  0  0  0  0  0  0
    2.4207    2.2812    1.9628 H   0  0  0  0  0  0  0  0  0  0  0  0
    1.2987    2.6258    3.2666 H   0  0  0  0  0  0  0  0  0  0  0  0
    1.8257   -0.7117   -1.2143 H   0  0  0  0  0  0  0  0  0  0  0  0
    2.7135    1.8663   -2.6717 H   0  0  0  0  0  0  0  0  0  0  0  0
    3.6422   -1.7592   -2.4070 H   0  0  0  0  0  0  0  0  0  0  0  0
    4.4094   -3.1166   -4.3065 H   0  0  0  0  0  0  0  0  0  0  0  0
    4.2932   -2.2213   -6.6176 H   0  0  0  0  0  0  0  0  0  0  0  0
    3.3974    0.0590   -7.0170 H   0  0  0  0  0  0  0  0  0  0  0  0
    2.6085    1.4324   -5.1300 H   0  0  0  0  0  0  0  0  0  0  0  0
   -3.3997    0.7316   -3.4435 H   0  0  0  0  0  0  0  0  0  0  0  0
   -4.6464   -0.4337   -2.9599 H   0  0  0  0  0  0  0  0  0  0  0  0
   -4.3628    1.0036   -1.9779 H   0  0  0  0  0  0  0  0  0  0  0  0
   -3.0431   -2.4366   -2.8138 H   0  0  0  0  0  0  0  0  0  0  0  0
   -1.8588   -1.3374   -3.5482 H   0  0  0  0  0  0  0  0  0  0  0  0
   -1.4503   -2.2103   -2.0715 H   0  0  0  0  0  0  0  0  0  0  0  0
  1  2  1  0
  2  3  2  3
  3  4  1  0
  4  5  1  0
  5  6  1  0
  6  7  1  0
  7  8  1  0
  8  9  1  1
  8 10  1  0
 10 11  1  0
 11 12  1  0
 12 13  1  0
 13 14  1  0
 13 15  1  0
 15 16  1  0
 16 17  1  0
 15 18  1  0
 18 19  1  0
 19 20  1  6
 20 21  1  0
 21 22  2  0
 21 23  1  0
 23 24  2  0
 24 25  1  0
 25 26  2  0
 26 27  1  0
 27 28  2  0
 28 29  1  0
 29 30  2  0
 19 31  1  0
 31 32  2  0
  5 33  1  0
 33 34  1  0
 33 35  1  0
 31  2  1  0
 33  4  1  0
 11  8  1  0
 19 12  1  0
 30 25  1  0
  1 36  1  0
  1 37  1  0
  1 38  1  0
  3 39  1  0
  4 40  1  0
  5 41  1  6
  6 42  1  0
  6 43  1  0
  7 44  1  0
  7 45  1  0
  9 46  1  0
  9 47  1  0
  9 48  1  0
 11 49  1  6
 12 50  1  1
 13 51  1  1
 14 52  1  0
 15 53  1  1
 16 54  1  0
 16 55  1  0
 17 56  1  0
 18 57  1  0
 18 58  1  0
 23 59  1  0
 24 60  1  0
 26 61  1  0
 27 62  1  0
 28 63  1  0
 29 64  1  0
 30 65  1  0
 34 66  1  0
 34 67  1  0
 34 68  1  0
 35 69  1  0
 35 70  1  0
 35 71  1  0
M  END
$$$$
