
     RDKit          3D

 44 47  0  0  0  0  0  0  0  0999 V2000
   -4.6012    2.2438   -0.3694 C   0  0  0  0  0  0  0  0  0  0  0  0
   -3.5573    1.7529    0.6329 C   0  0  0  0  0  0  0  0  0  0  0  0
   -2.2439    1.4509   -0.0675 C   0  0  0  0  0  0  0  0  0  0  0  0
   -1.2506    0.7477    0.8277 C   0  0  0  0  0  0  0  0  0  0  0  0
   -0.3723    1.3889    1.4103 O   0  0  0  0  0  0  0  0  0  0  0  0
   -1.3044   -0.6392    0.8783 N   0  0  0  0  0  0  0  0  0  0  0  0
   -0.2032   -1.3288    1.5541 C   0  0  0  0  0  0  0  0  0  0  0  0
    1.0521   -1.3758    0.6734 C   0  0  0  0  0  0  0  0  0  0  0  0
    1.2893   -2.3514   -0.0349 O   0  0  0  0  0  0  0  0  0  0  0  0
    1.7992   -0.2045    0.7435 N   0  0  0  0  0  0  0  0  0  0  0  0
    3.0354    0.0666    0.1274 C   0  0  0  0  0  0  0  0  0  0  0  0
    3.7460   -0.8717   -0.6520 C   0  0  0  0  0  0  0  0  0  0  0  0
    4.9849   -0.5486   -1.2190 C   0  0  0  0  0  0  0  0  0  0  0  0
    5.4900    0.7157   -0.9798 C   0  0  0  0  0  0  0  0  0  0  0  0
    4.8058    1.6254   -0.2157 C   0  0  0  0  0  0  0  0  0  0  0  0
    3.5776    1.3342    0.3433 C   0  0  0  0  0  0  0  0  0  0  0  0
    5.4845    2.8062   -0.0829 O   0  0  0  0  0  0  0  0  0  0  0  0
    6.6838    2.5032   -0.8292 C   0  0  0  0  0  0  0  0  0  0  0  0
    6.6786    1.1947   -1.4304 O   0  0  0  0  0  0  0  0  0  0  0  0
   -2.3996   -1.4190    0.3887 C   0  0  0  0  0  0  0  0  0  0  0  0
   -2.1335   -2.6313   -0.2727 C   0  0  0  0  0  0  0  0  0  0  0  0
   -3.1691   -3.4311   -0.7667 C   0  0  0  0  0  0  0  0  0  0  0  0
   -4.4913   -3.0436   -0.5934 C   0  0  0  0  0  0  0  0  0  0  0  0
   -4.7790   -1.8558    0.0784 C   0  0  0  0  0  0  0  0  0  0  0  0
   -3.7465   -1.0354    0.5707 C   0  0  0  0  0  0  0  0  0  0  0  0
   -4.2516    0.3558    1.5842 S   0  0  0  0  0  0  0  0  0  0  0  0
   -5.5371    2.5249    0.1290 H   0  0  0  0  0  0  0  0  0  0  0  0
   -4.8278    1.4804   -1.1237 H   0  0  0  0  0  0  0  0  0  0  0  0
   -4.2356    3.1326   -0.8964 H   0  0  0  0  0  0  0  0  0  0  0  0
   -3.3872    2.5498    1.3687 H   0  0  0  0  0  0  0  0  0  0  0  0
   -2.3864    0.8728   -0.9899 H   0  0  0  0  0  0  0  0  0  0  0  0
   -1.7819    2.3884   -0.3964 H   0  0  0  0  0  0  0  0  0  0  0  0
    0.0310   -0.8107    2.4890 H   0  0  0  0  0  0  0  0  0  0  0  0
   -0.4823   -2.3460    1.8336 H   0  0  0  0  0  0  0  0  0  0  0  0
    1.3508    0.5778    1.2219 H   0  0  0  0  0  0  0  0  0  0  0  0
    3.3552   -1.8686   -0.8391 H   0  0  0  0  0  0  0  0  0  0  0  0
    5.5322   -1.2729   -1.8188 H   0  0  0  0  0  0  0  0  0  0  0  0
    3.0679    2.0813    0.9432 H   0  0  0  0  0  0  0  0  0  0  0  0
    7.5433    2.5708   -0.1471 H   0  0  0  0  0  0  0  0  0  0  0  0
    6.8026    3.2520   -1.6194 H   0  0  0  0  0  0  0  0  0  0  0  0
   -1.1121   -2.9628   -0.4483 H   0  0  0  0  0  0  0  0  0  0  0  0
   -2.9357   -4.3594   -1.2836 H   0  0  0  0  0  0  0  0  0  0  0  0
   -5.2994   -3.6740   -0.9655 H   0  0  0  0  0  0  0  0  0  0  0  0
   -5.8210   -1.5862    0.2384 H   0  0  0  0  0  0  0  0  0  0  0  0
  1  2  1  0
  2  3  1  0
  3  4  1  0
  4  5  2  0
  4  6  1  0
  6  7  1  0
  7  8  1  0
  8  9  2  0
  8 10  1  0
 10 11  1  0
 11 12  2  0
 12 13  1  0
 13 14  2  0
 14 15  1  0
 15 16  2  0
 15 17  1  0
 17 18  1  0
 18 19  1  0
  6 20  1  0
 20 21  2  0
 21 22  1  0
 22 23  2  0
 23 24  1  0
 24 25  2  0
 25 26  1  0
 26  2  1  0
 16 11  1  0
 25 20  1  0
 19 14  1  0
  1 27  1  0
  1 28  1  0
  1 29  1  0
  2 30  1  0
  3 31  1  0
  3 32  1  0
  7 33  1  0
  7 34  1  0
 10 35  1  0
 12 36  1  0
 13 37  1  0
 16 38  1  0
 18 39  1  0
 18 40  1  0
 21 41  1  0
 22 42  1  0
 23 43  1  0
 24 44  1  0
M  END
$$$$
