
     RDKit          3D

 51 55  0  0  0  0  0  0  0  0999 V2000
    5.1641    2.2887    0.1341 F   0  0  0  0  0  0  0  0  0  0  0  0
    5.9378    1.2439   -0.1952 C   0  0  0  0  0  0  0  0  0  0  0  0
    7.3113    1.3339    0.0093 C   0  0  0  0  0  0  0  0  0  0  0  0
    8.1288    0.2545   -0.3196 C   0  0  0  0  0  0  0  0  0  0  0  0
    7.5654   -0.9073   -0.8489 C   0  0  0  0  0  0  0  0  0  0  0  0
    6.1852   -0.9916   -1.0518 C   0  0  0  0  0  0  0  0  0  0  0  0
    5.3556    0.0902   -0.7288 C   0  0  0  0  0  0  0  0  0  0  0  0
    3.8631    0.0098   -0.9286 C   0  0  0  0  0  0  0  0  0  0  0  0
    3.1267   -0.2758    0.3915 C   0  0  0  0  0  0  0  0  0  0  0  0
    1.6759   -0.4269    0.2097 N   0  0  0  0  0  0  0  0  0  0  0  0
    1.0212    0.8228   -0.2425 C   0  0  0  0  0  0  0  0  0  0  0  0
   -0.4028    1.0736    0.3130 C   0  0  0  0  0  0  0  0  0  0  0  0
   -1.1540   -0.1805    0.4014 N   0  0  0  0  0  0  0  0  0  0  0  0
   -2.5417   -0.1756    0.3207 C   0  0  0  0  0  0  0  0  0  0  0  0
   -3.2339   -0.7226    1.2892 N   0  0  0  0  0  0  0  0  0  0  0  0
   -4.6421   -0.7032    1.2671 C   0  0  0  0  0  0  0  0  0  0  0  0
   -5.3299   -1.2839    2.3345 C   0  0  0  0  0  0  0  0  0  0  0  0
   -6.7270   -1.2812    2.3698 C   0  0  0  0  0  0  0  0  0  0  0  0
   -7.4524   -0.6941    1.3324 C   0  0  0  0  0  0  0  0  0  0  0  0
   -6.7864   -0.1084    0.2553 C   0  0  0  0  0  0  0  0  0  0  0  0
   -5.3884   -0.1183    0.2346 C   0  0  0  0  0  0  0  0  0  0  0  0
   -4.6389    0.4333   -0.8167 N   0  0  0  0  0  0  0  0  0  0  0  0
   -5.0685    1.0411   -1.9730 C   0  0  0  0  0  0  0  0  0  0  0  0
   -3.9621    1.3409   -2.7380 C   0  0  0  0  0  0  0  0  0  0  0  0
   -2.8248    0.9163   -2.0127 C   0  0  0  0  0  0  0  0  0  0  0  0
   -3.2622    0.3987   -0.8060 C   0  0  0  0  0  0  0  0  0  0  0  0
   -0.4893   -1.2087    1.2272 C   0  0  0  0  0  0  0  0  0  0  0  0
    1.0235   -0.9413    1.4247 C   0  0  0  0  0  0  0  0  0  0  0  0
    7.7335    2.2436    0.4239 H   0  0  0  0  0  0  0  0  0  0  0  0
    9.2026    0.3168   -0.1634 H   0  0  0  0  0  0  0  0  0  0  0  0
    8.2024   -1.7510   -1.1047 H   0  0  0  0  0  0  0  0  0  0  0  0
    5.7624   -1.9059   -1.4631 H   0  0  0  0  0  0  0  0  0  0  0  0
    3.6317   -0.7750   -1.6606 H   0  0  0  0  0  0  0  0  0  0  0  0
    3.5211    0.9507   -1.3771 H   0  0  0  0  0  0  0  0  0  0  0  0
    3.3413    0.5073    1.1307 H   0  0  0  0  0  0  0  0  0  0  0  0
    3.5318   -1.2099    0.8038 H   0  0  0  0  0  0  0  0  0  0  0  0
    0.9639    0.7804   -1.3370 H   0  0  0  0  0  0  0  0  0  0  0  0
    1.6235    1.7047    0.0113 H   0  0  0  0  0  0  0  0  0  0  0  0
   -0.8999    1.8194   -0.3140 H   0  0  0  0  0  0  0  0  0  0  0  0
   -0.3352    1.5144    1.3163 H   0  0  0  0  0  0  0  0  0  0  0  0
   -4.7673   -1.7402    3.1445 H   0  0  0  0  0  0  0  0  0  0  0  0
   -7.2468   -1.7379    3.2081 H   0  0  0  0  0  0  0  0  0  0  0  0
   -8.5393   -0.6953    1.3637 H   0  0  0  0  0  0  0  0  0  0  0  0
   -7.3714    0.3386   -0.5413 H   0  0  0  0  0  0  0  0  0  0  0  0
   -6.1173    1.1959   -2.1798 H   0  0  0  0  0  0  0  0  0  0  0  0
   -3.9758    1.8014   -3.7174 H   0  0  0  0  0  0  0  0  0  0  0  0
   -1.7948    0.9773   -2.3376 H   0  0  0  0  0  0  0  0  0  0  0  0
   -0.9514   -1.2741    2.2194 H   0  0  0  0  0  0  0  0  0  0  0  0
   -0.6200   -2.1776    0.7303 H   0  0  0  0  0  0  0  0  0  0  0  0
    1.1593   -0.2297    2.2507 H   0  0  0  0  0  0  0  0  0  0  0  0
    1.4915   -1.8821    1.7398 H   0  0  0  0  0  0  0  0  0  0  0  0
  1  2  1  0
  2  3  2  0
  3  4  1  0
  4  5  2  0
  5  6  1  0
  6  7  2  0
  7  8  1  0
  8  9  1  0
  9 10  1  0
 10 11  1  0
 11 12  1  0
 12 13  1  0
 13 14  1  0
 14 15  2  0
 15 16  1  0
 16 17  2  0
 17 18  1  0
 18 19  2  0
 19 20  1  0
 20 21  2  0
 21 22  1  0
 22 23  1  0
 23 24  2  0
 24 25  1  0
 25 26  2  0
 13 27  1  0
 27 28  1  0
  7  2  1  0
 28 10  1  0
 26 14  1  0
 21 16  1  0
 26 22  1  0
  3 29  1  0
  4 30  1  0
  5 31  1  0
  6 32  1  0
  8 33  1  0
  8 34  1  0
  9 35  1  0
  9 36  1  0
 11 37  1  0
 11 38  1  0
 12 39  1  0
 12 40  1  0
 17 41  1  0
 18 42  1  0
 19 43  1  0
 20 44  1  0
 23 45  1  0
 24 46  1  0
 25 47  1  0
 27 48  1  0
 27 49  1  0
 28 50  1  0
 28 51  1  0
M  END
$$$$
