
     RDKit          3D

 71 75  0  0  0  0  0  0  0  0999 V2000
   -1.2174    3.9876   -0.3241 C   0  0  0  0  0  0  0  0  0  0  0  0
   -1.1041    2.5141    0.0297 C   0  0  0  0  0  0  0  0  0  0  0  0
   -1.5417    1.6138   -0.8808 C   0  0  0  0  0  0  0  0  0  0  0  0
   -1.6437    0.1412   -0.9293 C   0  0  0  0  0  0  0  0  0  0  0  0
   -2.9471   -0.5891   -0.6289 C   0  0  2  0  0  0  0  0  0  0  0  0
   -2.9873   -1.9226    0.0913 C   0  0  0  0  0  0  0  0  0  0  0  0
   -3.5065   -1.8633    1.5447 C   0  0  0  0  0  0  0  0  0  0  0  0
   -2.6919   -1.0272    2.5168 C   0  0  2  0  0  0  0  0  0  0  0  0
   -3.1617   -0.9962    3.9358 C   0  0  0  0  0  0  0  0  0  0  0  0
   -2.4718    0.2603    1.9683 O   0  0  0  0  0  0  0  0  0  0  0  0
   -1.2875   -0.5413    2.1446 C   0  0  1  0  0  0  0  0  0  0  0  0
   -0.2859    0.3053    2.8403 C   0  0  1  0  0  0  0  0  0  0  0  0
    0.8263   -0.4597    3.5520 C   0  0  1  0  0  0  0  0  0  0  0  0
    1.3580   -1.4983    2.7351 O   0  0  0  0  0  0  0  0  0  0  0  0
    1.8636    0.6390    3.8222 C   0  0  1  0  0  0  0  0  0  0  0  0
    3.3075    0.1479    3.8579 C   0  0  0  0  0  0  0  0  0  0  0  0
    4.1682    1.1691    4.3468 O   0  0  0  0  0  0  0  0  0  0  0  0
    1.6229    1.7313    2.7449 C   0  0  0  0  0  0  0  0  0  0  0  0
    0.4665    1.2303    1.8300 C   0  0  1  0  0  0  0  0  0  0  0  0
    1.0393    0.4613    0.7623 O   0  0  0  0  0  0  0  0  0  0  0  0
    1.7612    1.1110   -0.1817 C   0  0  0  0  0  0  0  0  0  0  0  0
    2.0247    2.3004   -0.2099 O   0  0  0  0  0  0  0  0  0  0  0  0
    2.1487    0.1231   -1.2056 C   0  0  0  0  0  0  0  0  0  0  0  0
    2.7024    0.5302   -2.3573 C   0  0  0  0  0  0  0  0  0  0  0  0
    3.0389   -0.3879   -3.4502 C   0  0  0  0  0  0  0  0  0  0  0  0
    2.7600   -0.0032   -4.7669 C   0  0  0  0  0  0  0  0  0  0  0  0
    3.0720   -0.8489   -5.8344 C   0  0  0  0  0  0  0  0  0  0  0  0
    3.6708   -2.0845   -5.5930 C   0  0  0  0  0  0  0  0  0  0  0  0
    3.9696   -2.4699   -4.2880 C   0  0  0  0  0  0  0  0  0  0  0  0
    3.6600   -1.6227   -3.2216 C   0  0  0  0  0  0  0  0  0  0  0  0
   -0.5080    2.3728    1.4234 C   0  0  0  0  0  0  0  0  0  0  0  0
   -0.8018    3.2430    2.2534 O   0  0  0  0  0  0  0  0  0  0  0  0
   -2.4492   -0.5133   -2.0624 C   0  0  0  0  0  0  0  0  0  0  0  0
   -1.8196   -1.7183   -2.7245 C   0  0  0  0  0  0  0  0  0  0  0  0
   -3.3098    0.2883   -3.0161 C   0  0  0  0  0  0  0  0  0  0  0  0
   -1.5743    4.1563   -1.3469 H   0  0  0  0  0  0  0  0  0  0  0  0
   -1.9204    4.4927    0.3493 H   0  0  0  0  0  0  0  0  0  0  0  0
   -0.2376    4.4746   -0.2464 H   0  0  0  0  0  0  0  0  0  0  0  0
   -1.8972    2.0724   -1.8045 H   0  0  0  0  0  0  0  0  0  0  0  0
   -0.7154   -0.3646   -0.6978 H   0  0  0  0  0  0  0  0  0  0  0  0
   -3.8174    0.0119   -0.3777 H   0  0  0  0  0  0  0  0  0  0  0  0
   -3.6638   -2.5796   -0.4707 H   0  0  0  0  0  0  0  0  0  0  0  0
   -2.0061   -2.4088    0.0714 H   0  0  0  0  0  0  0  0  0  0  0  0
   -3.5549   -2.8885    1.9293 H   0  0  0  0  0  0  0  0  0  0  0  0
   -4.5329   -1.4808    1.5344 H   0  0  0  0  0  0  0  0  0  0  0  0
   -4.0596   -0.3711    4.0214 H   0  0  0  0  0  0  0  0  0  0  0  0
   -2.3991   -0.5950    4.6080 H   0  0  0  0  0  0  0  0  0  0  0  0
   -3.4172   -2.0025    4.2870 H   0  0  0  0  0  0  0  0  0  0  0  0
   -0.8230   -1.0925    1.3381 H   0  0  0  0  0  0  0  0  0  0  0  0
   -0.7912    0.9315    3.5917 H   0  0  0  0  0  0  0  0  0  0  0  0
    0.4638   -0.9169    4.4810 H   0  0  0  0  0  0  0  0  0  0  0  0
    1.7917   -2.1389    3.3251 H   0  0  0  0  0  0  0  0  0  0  0  0
    1.6317    1.1037    4.7908 H   0  0  0  0  0  0  0  0  0  0  0  0
    3.6623   -0.1625    2.8694 H   0  0  0  0  0  0  0  0  0  0  0  0
    3.4015   -0.7065    4.5363 H   0  0  0  0  0  0  0  0  0  0  0  0
    4.1938    1.8844    3.6869 H   0  0  0  0  0  0  0  0  0  0  0  0
    2.5416    1.9342    2.1862 H   0  0  0  0  0  0  0  0  0  0  0  0
    1.3595    2.6667    3.2534 H   0  0  0  0  0  0  0  0  0  0  0  0
    1.9171   -0.9142   -1.0009 H   0  0  0  0  0  0  0  0  0  0  0  0
    2.8821    1.5862   -2.5471 H   0  0  0  0  0  0  0  0  0  0  0  0
    2.2880    0.9546   -4.9742 H   0  0  0  0  0  0  0  0  0  0  0  0
    2.8480   -0.5425   -6.8538 H   0  0  0  0  0  0  0  0  0  0  0  0
    3.9100   -2.7432   -6.4234 H   0  0  0  0  0  0  0  0  0  0  0  0
    4.4468   -3.4301   -4.1002 H   0  0  0  0  0  0  0  0  0  0  0  0
    3.9175   -1.9377   -2.2141 H   0  0  0  0  0  0  0  0  0  0  0  0
   -2.5878   -2.4593   -2.9710 H   0  0  0  0  0  0  0  0  0  0  0  0
   -1.0689   -2.2064   -2.0921 H   0  0  0  0  0  0  0  0  0  0  0  0
   -1.3198   -1.4180   -3.6551 H   0  0  0  0  0  0  0  0  0  0  0  0
   -4.0183   -0.3689   -3.5316 H   0  0  0  0  0  0  0  0  0  0  0  0
   -2.6829    0.7716   -3.7726 H   0  0  0  0  0  0  0  0  0  0  0  0
   -3.8929    1.0643   -2.5044 H   0  0  0  0  0  0  0  0  0  0  0  0
  1  2  1  0
  2  3  2  3
  3  4  1  0
  4  5  1  0
  5  6  1  0
  6  7  1  0
  7  8  1  0
  8  9  1  1
  8 10  1  0
 10 11  1  0
 11 12  1  0
 12 13  1  0
 13 14  1  0
 13 15  1  0
 15 16  1  0
 16 17  1  0
 15 18  1  0
 18 19  1  0
 19 20  1  6
 20 21  1  0
 21 22  2  0
 21 23  1  0
 23 24  2  0
 24 25  1  0
 25 26  2  0
 26 27  1  0
 27 28  2  0
 28 29  1  0
 29 30  2  0
 19 31  1  0
 31 32  2  0
  5 33  1  0
 33 34  1  0
 33 35  1  0
 31  2  1  0
 33  4  1  0
 11  8  1  0
 19 12  1  0
 30 25  1  0
  1 36  1  0
  1 37  1  0
  1 38  1  0
  3 39  1  0
  4 40  1  0
  5 41  1  6
  6 42  1  0
  6 43  1  0
  7 44  1  0
  7 45  1  0
  9 46  1  0
  9 47  1  0
  9 48  1  0
 11 49  1  6
 12 50  1  1
 13 51  1  1
 14 52  1  0
 15 53  1  1
 16 54  1  0
 16 55  1  0
 17 56  1  0
 18 57  1  0
 18 58  1  0
 23 59  1  0
 24 60  1  0
 26 61  1  0
 27 62  1  0
 28 63  1  0
 29 64  1  0
 30 65  1  0
 34 66  1  0
 34 67  1  0
 34 68  1  0
 35 69  1  0
 35 70  1  0
 35 71  1  0
M  END
$$$$
