
     RDKit          3D

 39 40  0  0  0  0  0  0  0  0999 V2000
    4.7422    2.9449   -0.3024 C   0  0  0  0  0  0  0  0  0  0  0  0
    5.3233    1.5453   -0.1577 C   0  0  0  0  0  0  0  0  0  0  0  0
    4.8728    0.6011   -1.2843 C   0  0  0  0  0  0  0  0  0  0  0  0
    5.6133   -0.7360   -1.2096 C   0  0  0  0  0  0  0  0  0  0  0  0
    3.3576    0.3771   -1.2948 C   0  0  0  0  0  0  0  0  0  0  0  0
    2.6981    0.7271   -2.2697 O   0  0  0  0  0  0  0  0  0  0  0  0
    2.8763   -0.2213   -0.1551 N   0  0  0  0  0  0  0  0  0  0  0  0
    1.5705   -0.5394    0.1229 C   0  0  0  0  0  0  0  0  0  0  0  0
    1.2253   -1.1422    1.2390 N   0  0  0  0  0  0  0  0  0  0  0  0
   -0.1340   -1.3728    1.3108 N   0  0  0  0  0  0  0  0  0  0  0  0
   -0.7655   -0.9194    0.2481 C   0  0  0  0  0  0  0  0  0  0  0  0
   -2.2385   -1.0184    0.0235 C   0  0  0  0  0  0  0  0  0  0  0  0
   -3.0151   -0.3349    1.1495 C   0  0  0  0  0  0  0  0  0  0  0  0
   -4.5032   -0.3965    0.9060 C   0  0  0  0  0  0  0  0  0  0  0  0
   -5.2475   -1.5017    1.3401 C   0  0  0  0  0  0  0  0  0  0  0  0
   -6.6184   -1.5726    1.0883 C   0  0  0  0  0  0  0  0  0  0  0  0
   -7.2560   -0.5430    0.3980 C   0  0  0  0  0  0  0  0  0  0  0  0
   -6.5242    0.5590   -0.0393 C   0  0  0  0  0  0  0  0  0  0  0  0
   -5.1531    0.6322    0.2116 C   0  0  0  0  0  0  0  0  0  0  0  0
    0.2675   -0.1908   -0.9136 S   0  0  0  0  0  0  0  0  0  0  0  0
    5.0082    3.3826   -1.2695 H   0  0  0  0  0  0  0  0  0  0  0  0
    5.1350    3.5982    0.4847 H   0  0  0  0  0  0  0  0  0  0  0  0
    3.6517    2.9355   -0.2175 H   0  0  0  0  0  0  0  0  0  0  0  0
    6.4169    1.6250   -0.1688 H   0  0  0  0  0  0  0  0  0  0  0  0
    5.0494    1.1459    0.8250 H   0  0  0  0  0  0  0  0  0  0  0  0
    5.1289    1.0641   -2.2480 H   0  0  0  0  0  0  0  0  0  0  0  0
    5.4842   -1.2245   -0.2356 H   0  0  0  0  0  0  0  0  0  0  0  0
    6.6866   -0.5888   -1.3685 H   0  0  0  0  0  0  0  0  0  0  0  0
    5.2490   -1.4283   -1.9801 H   0  0  0  0  0  0  0  0  0  0  0  0
    3.5121   -0.4933    0.5809 H   0  0  0  0  0  0  0  0  0  0  0  0
   -2.5115   -2.0799   -0.0327 H   0  0  0  0  0  0  0  0  0  0  0  0
   -2.5170   -0.5768   -0.9425 H   0  0  0  0  0  0  0  0  0  0  0  0
   -2.7862   -0.8043    2.1156 H   0  0  0  0  0  0  0  0  0  0  0  0
   -2.7042    0.7136    1.2506 H   0  0  0  0  0  0  0  0  0  0  0  0
   -4.7640   -2.3145    1.8785 H   0  0  0  0  0  0  0  0  0  0  0  0
   -7.1891   -2.4326    1.4302 H   0  0  0  0  0  0  0  0  0  0  0  0
   -8.3236   -0.5994    0.2014 H   0  0  0  0  0  0  0  0  0  0  0  0
   -7.0213    1.3617   -0.5772 H   0  0  0  0  0  0  0  0  0  0  0  0
   -4.5965    1.4980   -0.1376 H   0  0  0  0  0  0  0  0  0  0  0  0
  1  2  1  0
  2  3  1  0
  3  4  1  0
  3  5  1  0
  5  6  2  0
  5  7  1  0
  7  8  1  0
  8  9  2  0
  9 10  1  0
 10 11  2  0
 11 12  1  0
 12 13  1  0
 13 14  1  0
 14 15  2  0
 15 16  1  0
 16 17  2  0
 17 18  1  0
 18 19  2  0
 11 20  1  0
 20  8  1  0
 19 14  1  0
  1 21  1  0
  1 22  1  0
  1 23  1  0
  2 24  1  0
  2 25  1  0
  3 26  1  0
  4 27  1  0
  4 28  1  0
  4 29  1  0
  7 30  1  0
 12 31  1  0
 12 32  1  0
 13 33  1  0
 13 34  1  0
 15 35  1  0
 16 36  1  0
 17 37  1  0
 18 38  1  0
 19 39  1  0
M  END
$$$$
