
     RDKit          3D

 30 31  0  0  0  0  0  0  0  0999 V2000
    5.0177   -2.2160   -1.8776 C   0  0  0  0  0  0  0  0  0  0  0  0
    3.7000   -2.4244   -2.3697 O   0  0  0  0  0  0  0  0  0  0  0  0
    2.6738   -1.9027   -1.6322 C   0  0  0  0  0  0  0  0  0  0  0  0
    1.3982   -2.1805   -2.1292 C   0  0  0  0  0  0  0  0  0  0  0  0
    0.2571   -1.7085   -1.4747 C   0  0  0  0  0  0  0  0  0  0  0  0
    0.3798   -0.9438   -0.3089 C   0  0  0  0  0  0  0  0  0  0  0  0
   -0.8234   -0.4355    0.3822 C   0  0  0  0  0  0  0  0  0  0  0  0
   -1.6853   -1.3895    1.0118 C   0  0  0  0  0  0  0  0  0  0  0  0
   -2.3416   -2.2231    1.4856 N   0  0  0  0  0  0  0  0  0  0  0  0
   -1.0474    0.8946    0.3412 C   0  0  0  0  0  0  0  0  0  0  0  0
   -2.1558    1.6545    0.9393 C   0  0  0  0  0  0  0  0  0  0  0  0
   -2.3232    3.0035    0.6364 C   0  0  0  0  0  0  0  0  0  0  0  0
   -3.3755    3.7025    1.2251 C   0  0  0  0  0  0  0  0  0  0  0  0
   -4.2274    3.0400    2.0989 C   0  0  0  0  0  0  0  0  0  0  0  0
   -3.9871    1.7012    2.3490 C   0  0  0  0  0  0  0  0  0  0  0  0
   -2.9721    1.0048    1.7921 N   0  0  0  0  0  0  0  0  0  0  0  0
    1.6610   -0.6667    0.1888 C   0  0  0  0  0  0  0  0  0  0  0  0
    2.8014   -1.1434   -0.4693 C   0  0  0  0  0  0  0  0  0  0  0  0
    5.2681   -1.1501   -1.8616 H   0  0  0  0  0  0  0  0  0  0  0  0
    5.1467   -2.6680   -0.8885 H   0  0  0  0  0  0  0  0  0  0  0  0
    5.7127   -2.7107   -2.5629 H   0  0  0  0  0  0  0  0  0  0  0  0
    1.2916   -2.7748   -3.0339 H   0  0  0  0  0  0  0  0  0  0  0  0
   -0.7225   -1.9447   -1.8857 H   0  0  0  0  0  0  0  0  0  0  0  0
   -0.3394    1.5185   -0.2017 H   0  0  0  0  0  0  0  0  0  0  0  0
   -1.6554    3.5148   -0.0490 H   0  0  0  0  0  0  0  0  0  0  0  0
   -3.5286    4.7544    1.0015 H   0  0  0  0  0  0  0  0  0  0  0  0
   -5.0571    3.5519    2.5730 H   0  0  0  0  0  0  0  0  0  0  0  0
   -4.6208    1.1317    3.0234 H   0  0  0  0  0  0  0  0  0  0  0  0
    1.7833   -0.0842    1.1001 H   0  0  0  0  0  0  0  0  0  0  0  0
    3.7713   -0.9058   -0.0450 H   0  0  0  0  0  0  0  0  0  0  0  0
  1  2  1  0
  2  3  1  0
  3  4  2  0
  4  5  1  0
  5  6  2  0
  6  7  1  0
  7  8  1  0
  8  9  3  0
  7 10  2  3
 10 11  1  0
 11 12  2  0
 12 13  1  0
 13 14  2  0
 14 15  1  0
 15 16  2  0
  6 17  1  0
 17 18  2  0
 18  3  1  0
 16 11  1  0
  1 19  1  0
  1 20  1  0
  1 21  1  0
  4 22  1  0
  5 23  1  0
 10 24  1  0
 12 25  1  0
 13 26  1  0
 14 27  1  0
 15 28  1  0
 17 29  1  0
 18 30  1  0
M  END
$$$$
