
     RDKit          3D

 53 52  0  0  0  0  0  0  0  0999 V2000
   -1.7219   -2.0273    0.3047 C   0  0  0  0  0  0  0  0  0  0  0  0
   -2.1080   -0.5725    0.5845 C   0  0  0  0  0  0  0  0  0  0  0  0
   -2.2900   -0.3669    2.0887 C   0  0  0  0  0  0  0  0  0  0  0  0
   -3.3749   -0.2089   -0.2160 C   0  0  0  0  0  0  0  0  0  0  0  0
   -3.7868    1.2630   -0.1338 C   0  0  0  0  0  0  0  0  0  0  0  0
   -2.7860    2.1486   -0.6927 N   0  0  0  0  0  0  0  0  0  0  0  0
   -2.7082    2.3934   -2.0500 C   0  0  0  0  0  0  0  0  0  0  0  0
   -3.5189    1.9590   -2.8587 O   0  0  0  0  0  0  0  0  0  0  0  0
   -1.5538    3.3029   -2.4174 C   0  0  0  0  0  0  0  0  0  0  0  0
   -1.1910    3.2717   -3.8976 C   0  0  0  0  0  0  0  0  0  0  0  0
   -0.4186    1.7243   -4.5070 S   0  0  0  0  0  0  0  0  0  0  0  0
    1.0310    1.6022   -3.4061 C   0  0  0  0  0  0  0  0  0  0  0  0
    0.7927    0.5218   -2.3598 C   0  0  0  0  0  0  0  0  0  0  0  0
    1.8870    0.5144   -1.3149 C   0  0  0  0  0  0  0  0  0  0  0  0
    2.7932    1.3378   -1.2753 O   0  0  0  0  0  0  0  0  0  0  0  0
    1.7294   -0.4950   -0.3864 N   0  0  0  0  0  0  0  0  0  0  0  0
    2.7307   -0.7301    0.6356 C   0  0  0  0  0  0  0  0  0  0  0  0
    2.1513   -1.5464    1.7884 C   0  0  0  0  0  0  0  0  0  0  0  0
    3.1273   -1.7279    2.9636 C   0  0  0  0  0  0  0  0  0  0  0  0
    4.3743   -2.5195    2.5679 C   0  0  0  0  0  0  0  0  0  0  0  0
    2.4168   -2.4282    4.1244 C   0  0  0  0  0  0  0  0  0  0  0  0
   -0.8129   -2.3023    0.8494 H   0  0  0  0  0  0  0  0  0  0  0  0
   -1.5284   -2.1794   -0.7626 H   0  0  0  0  0  0  0  0  0  0  0  0
   -2.5187   -2.7154    0.6074 H   0  0  0  0  0  0  0  0  0  0  0  0
   -1.2772    0.0609    0.2533 H   0  0  0  0  0  0  0  0  0  0  0  0
   -2.4448    0.6885    2.3309 H   0  0  0  0  0  0  0  0  0  0  0  0
   -3.1472   -0.9342    2.4665 H   0  0  0  0  0  0  0  0  0  0  0  0
   -1.4001   -0.6965    2.6359 H   0  0  0  0  0  0  0  0  0  0  0  0
   -3.2158   -0.4723   -1.2699 H   0  0  0  0  0  0  0  0  0  0  0  0
   -4.2137   -0.8234    0.1353 H   0  0  0  0  0  0  0  0  0  0  0  0
   -3.9636    1.5749    0.8993 H   0  0  0  0  0  0  0  0  0  0  0  0
   -4.7245    1.4045   -0.6828 H   0  0  0  0  0  0  0  0  0  0  0  0
   -2.0553    2.4913   -0.0827 H   0  0  0  0  0  0  0  0  0  0  0  0
   -1.8736    4.3216   -2.1632 H   0  0  0  0  0  0  0  0  0  0  0  0
   -0.6861    3.0815   -1.7885 H   0  0  0  0  0  0  0  0  0  0  0  0
   -2.0823    3.4468   -4.5098 H   0  0  0  0  0  0  0  0  0  0  0  0
   -0.4938    4.0878   -4.1171 H   0  0  0  0  0  0  0  0  0  0  0  0
    1.8969    1.3328   -4.0207 H   0  0  0  0  0  0  0  0  0  0  0  0
    1.2536    2.5761   -2.9594 H   0  0  0  0  0  0  0  0  0  0  0  0
    0.7607   -0.4658   -2.8357 H   0  0  0  0  0  0  0  0  0  0  0  0
   -0.1558    0.6822   -1.8358 H   0  0  0  0  0  0  0  0  0  0  0  0
    1.1221   -1.2664   -0.6363 H   0  0  0  0  0  0  0  0  0  0  0  0
    3.1060    0.2342    0.9961 H   0  0  0  0  0  0  0  0  0  0  0  0
    3.5593   -1.2566    0.1516 H   0  0  0  0  0  0  0  0  0  0  0  0
    1.8267   -2.5268    1.4154 H   0  0  0  0  0  0  0  0  0  0  0  0
    1.2453   -1.0434    2.1522 H   0  0  0  0  0  0  0  0  0  0  0  0
    3.4454   -0.7375    3.3131 H   0  0  0  0  0  0  0  0  0  0  0  0
    4.9680   -1.9815    1.8227 H   0  0  0  0  0  0  0  0  0  0  0  0
    4.1085   -3.4973    2.1520 H   0  0  0  0  0  0  0  0  0  0  0  0
    5.0197   -2.6866    3.4369 H   0  0  0  0  0  0  0  0  0  0  0  0
    2.0808   -3.4307    3.8382 H   0  0  0  0  0  0  0  0  0  0  0  0
    3.0848   -2.5277    4.9865 H   0  0  0  0  0  0  0  0  0  0  0  0
    1.5405   -1.8560    4.4472 H   0  0  0  0  0  0  0  0  0  0  0  0
  1  2  1  0
  2  3  1  0
  2  4  1  0
  4  5  1  0
  5  6  1  0
  6  7  1  0
  7  8  2  0
  7  9  1  0
  9 10  1  0
 10 11  1  0
 11 12  1  0
 12 13  1  0
 13 14  1  0
 14 15  2  0
 14 16  1  0
 16 17  1  0
 17 18  1  0
 18 19  1  0
 19 20  1  0
 19 21  1  0
  1 22  1  0
  1 23  1  0
  1 24  1  0
  2 25  1  0
  3 26  1  0
  3 27  1  0
  3 28  1  0
  4 29  1  0
  4 30  1  0
  5 31  1  0
  5 32  1  0
  6 33  1  0
  9 34  1  0
  9 35  1  0
 10 36  1  0
 10 37  1  0
 12 38  1  0
 12 39  1  0
 13 40  1  0
 13 41  1  0
 16 42  1  0
 17 43  1  0
 17 44  1  0
 18 45  1  0
 18 46  1  0
 19 47  1  0
 20 48  1  0
 20 49  1  0
 20 50  1  0
 21 51  1  0
 21 52  1  0
 21 53  1  0
M  END
$$$$
