
     RDKit          3D

 37 38  0  0  0  0  0  0  0  0999 V2000
   -5.4570   -1.3450   -2.1377 C   0  0  0  0  0  0  0  0  0  0  0  0
   -4.9903   -0.1462   -1.4421 N   0  0  0  0  0  0  0  0  0  0  0  0
   -6.0235    0.6198   -0.7459 C   0  0  0  0  0  0  0  0  0  0  0  0
   -3.6707   -0.0916   -0.9835 C   0  0  0  0  0  0  0  0  0  0  0  0
   -2.6841   -0.9849   -1.4351 C   0  0  0  0  0  0  0  0  0  0  0  0
   -1.3513   -0.9205   -0.9972 C   0  0  0  0  0  0  0  0  0  0  0  0
   -0.9458    0.0623   -0.0957 C   0  0  0  0  0  0  0  0  0  0  0  0
    0.4313    0.1548    0.4082 C   0  0  0  0  0  0  0  0  0  0  0  0
    1.5131   -0.0106   -0.3704 C   0  0  0  0  0  0  0  0  0  0  0  0
    2.8946    0.0859    0.1146 C   0  0  0  0  0  0  0  0  0  0  0  0
    3.2917    1.0365    1.0541 C   0  0  0  0  0  0  0  0  0  0  0  0
    4.6222    1.0997    1.4529 C   0  0  0  0  0  0  0  0  0  0  0  0
    5.5372    0.2501    0.9360 N   0  0  0  0  0  4  0  0  0  0  0  0
    6.9424    0.3423    1.3673 C   0  0  0  0  0  0  0  0  0  0  0  0
    5.1814   -0.6644    0.0069 C   0  0  0  0  0  0  0  0  0  0  0  0
    3.8623   -0.7614   -0.4223 C   0  0  0  0  0  0  0  0  0  0  0  0
   -1.9046    0.9584    0.3734 C   0  0  0  0  0  0  0  0  0  0  0  0
   -3.2340    0.8853   -0.0727 C   0  0  0  0  0  0  0  0  0  0  0  0
   -4.8995   -1.5061   -3.0666 H   0  0  0  0  0  0  0  0  0  0  0  0
   -6.5086   -1.2521   -2.4317 H   0  0  0  0  0  0  0  0  0  0  0  0
   -5.3702   -2.2298   -1.4974 H   0  0  0  0  0  0  0  0  0  0  0  0
   -6.1124    0.3008    0.2984 H   0  0  0  0  0  0  0  0  0  0  0  0
   -5.8152    1.6943   -0.7869 H   0  0  0  0  0  0  0  0  0  0  0  0
   -7.0040    0.4867   -1.2169 H   0  0  0  0  0  0  0  0  0  0  0  0
   -2.9263   -1.7663   -2.1492 H   0  0  0  0  0  0  0  0  0  0  0  0
   -0.6489   -1.6592   -1.3735 H   0  0  0  0  0  0  0  0  0  0  0  0
    0.5167    0.3801    1.4681 H   0  0  0  0  0  0  0  0  0  0  0  0
    1.3941   -0.2341   -1.4297 H   0  0  0  0  0  0  0  0  0  0  0  0
    2.5766    1.7422    1.4724 H   0  0  0  0  0  0  0  0  0  0  0  0
    4.9647    1.8310    2.1798 H   0  0  0  0  0  0  0  0  0  0  0  0
    6.9771    0.6904    2.4028 H   0  0  0  0  0  0  0  0  0  0  0  0
    7.4026   -0.6471    1.3032 H   0  0  0  0  0  0  0  0  0  0  0  0
    7.4433    1.0491    0.7012 H   0  0  0  0  0  0  0  0  0  0  0  0
    5.9587   -1.3117   -0.3897 H   0  0  0  0  0  0  0  0  0  0  0  0
    3.5960   -1.5061   -1.1707 H   0  0  0  0  0  0  0  0  0  0  0  0
   -1.6377    1.7389    1.0819 H   0  0  0  0  0  0  0  0  0  0  0  0
   -3.9219    1.6285    0.3196 H   0  0  0  0  0  0  0  0  0  0  0  0
  1  2  1  0
  2  3  1  0
  2  4  1  0
  4  5  2  0
  5  6  1  0
  6  7  2  0
  7  8  1  0
  8  9  2  3
  9 10  1  0
 10 11  2  0
 11 12  1  0
 12 13  2  0
 13 14  1  0
 13 15  1  0
 15 16  2  0
  7 17  1  0
 17 18  2  0
 18  4  1  0
 16 10  1  0
  1 19  1  0
  1 20  1  0
  1 21  1  0
  3 22  1  0
  3 23  1  0
  3 24  1  0
  5 25  1  0
  6 26  1  0
  8 27  1  0
  9 28  1  0
 11 29  1  0
 12 30  1  0
 14 31  1  0
 14 32  1  0
 14 33  1  0
 15 34  1  0
 16 35  1  0
 17 36  1  0
 18 37  1  0
M  CHG  1  13   1
M  END
$$$$
