
     RDKit          3D

 47 49  0  0  0  0  0  0  0  0999 V2000
   -4.9863   -1.6365   -1.5183 C   0  0  0  0  0  0  0  0  0  0  0  0
   -3.9269   -0.5555   -1.3886 C   0  0  0  0  0  0  0  0  0  0  0  0
   -3.4027   -0.4661   -0.0197 N   0  0  0  0  0  4  0  0  0  0  0  0
   -2.3048   -1.1001    0.3708 C   0  0  0  0  0  0  0  0  0  0  0  0
   -1.5264   -1.9938   -0.4094 C   0  0  0  0  0  0  0  0  0  0  0  0
   -0.2187   -1.7753   -0.6172 C   0  0  0  0  0  0  0  0  0  0  0  0
    0.6091   -2.6524   -1.4210 C   0  0  0  0  0  0  0  0  0  0  0  0
    1.9124   -2.4650   -1.6869 C   0  0  0  0  0  0  0  0  0  0  0  0
    2.7160   -1.3388   -1.2093 C   0  0  0  0  0  0  0  0  0  0  0  0
    3.3586   -1.4007    0.0234 C   0  0  0  0  0  0  0  0  0  0  0  0
    4.0943   -0.3028    0.4935 C   0  0  0  0  0  0  0  0  0  0  0  0
    4.2300    0.8849   -0.2473 C   0  0  0  0  0  0  0  0  0  0  0  0
    4.9483    1.9905    0.2302 N   0  0  0  0  0  0  0  0  0  0  0  0
    5.4739    2.9425   -0.7519 C   0  0  0  0  0  0  0  0  0  0  0  0
    5.7664    1.8383    1.4340 C   0  0  0  0  0  0  0  0  0  0  0  0
    3.5571    0.9164   -1.4826 C   0  0  0  0  0  0  0  0  0  0  0  0
    2.8161   -0.1733   -1.9627 C   0  0  0  0  0  0  0  0  0  0  0  0
   -1.9403   -0.7384    2.0101 S   0  0  0  0  0  0  0  0  0  0  0  0
   -3.3056    0.2954    2.1603 C   0  0  0  0  0  0  0  0  0  0  0  0
   -3.7310    1.0292    3.2785 C   0  0  0  0  0  0  0  0  0  0  0  0
   -4.8902    1.7997    3.1591 C   0  0  0  0  0  0  0  0  0  0  0  0
   -5.6037    1.8359    1.9660 C   0  0  0  0  0  0  0  0  0  0  0  0
   -5.1730    1.1043    0.8523 C   0  0  0  0  0  0  0  0  0  0  0  0
   -4.0019    0.3249    0.9550 C   0  0  0  0  0  0  0  0  0  0  0  0
   -4.5738   -2.6202   -1.2736 H   0  0  0  0  0  0  0  0  0  0  0  0
   -5.8254   -1.4511   -0.8410 H   0  0  0  0  0  0  0  0  0  0  0  0
   -5.3708   -1.6711   -2.5417 H   0  0  0  0  0  0  0  0  0  0  0  0
   -4.3374    0.4164   -1.6841 H   0  0  0  0  0  0  0  0  0  0  0  0
   -3.1087   -0.7497   -2.0911 H   0  0  0  0  0  0  0  0  0  0  0  0
   -2.0190   -2.8519   -0.8591 H   0  0  0  0  0  0  0  0  0  0  0  0
    0.2754   -0.9067   -0.1806 H   0  0  0  0  0  0  0  0  0  0  0  0
    0.1385   -3.5397   -1.8433 H   0  0  0  0  0  0  0  0  0  0  0  0
    2.4514   -3.1830   -2.3028 H   0  0  0  0  0  0  0  0  0  0  0  0
    3.2981   -2.2972    0.6354 H   0  0  0  0  0  0  0  0  0  0  0  0
    4.5685   -0.4144    1.4644 H   0  0  0  0  0  0  0  0  0  0  0  0
    6.1073    2.4368   -1.4900 H   0  0  0  0  0  0  0  0  0  0  0  0
    4.6643    3.4742   -1.2629 H   0  0  0  0  0  0  0  0  0  0  0  0
    6.0819    3.7160   -0.2690 H   0  0  0  0  0  0  0  0  0  0  0  0
    5.1589    1.5319    2.2918 H   0  0  0  0  0  0  0  0  0  0  0  0
    6.2268    2.7912    1.7193 H   0  0  0  0  0  0  0  0  0  0  0  0
    6.5727    1.1143    1.2732 H   0  0  0  0  0  0  0  0  0  0  0  0
    3.5844    1.8035   -2.1079 H   0  0  0  0  0  0  0  0  0  0  0  0
    2.3226   -0.0933   -2.9279 H   0  0  0  0  0  0  0  0  0  0  0  0
   -3.1782    1.0040    4.2151 H   0  0  0  0  0  0  0  0  0  0  0  0
   -5.2399    2.3776    4.0149 H   0  0  0  0  0  0  0  0  0  0  0  0
   -6.5067    2.4430    1.9013 H   0  0  0  0  0  0  0  0  0  0  0  0
   -5.7615    1.1585   -0.0587 H   0  0  0  0  0  0  0  0  0  0  0  0
  1  2  1  0
  2  3  1  0
  3  4  2  0
  4  5  1  0
  5  6  2  3
  6  7  1  0
  7  8  2  3
  8  9  1  0
  9 10  2  0
 10 11  1  0
 11 12  2  0
 12 13  1  0
 13 14  1  0
 13 15  1  0
 12 16  1  0
 16 17  2  0
  4 18  1  0
 18 19  1  0
 19 20  2  0
 20 21  1  0
 21 22  2  0
 22 23  1  0
 23 24  2  0
 24  3  1  0
 17  9  1  0
 24 19  1  0
  1 25  1  0
  1 26  1  0
  1 27  1  0
  2 28  1  0
  2 29  1  0
  5 30  1  0
  6 31  1  0
  7 32  1  0
  8 33  1  0
 10 34  1  0
 11 35  1  0
 14 36  1  0
 14 37  1  0
 14 38  1  0
 15 39  1  0
 15 40  1  0
 15 41  1  0
 16 42  1  0
 17 43  1  0
 20 44  1  0
 21 45  1  0
 22 46  1  0
 23 47  1  0
M  CHG  1   3   1
M  END
$$$$
