
     RDKit          3D

 40 42  0  0  0  0  0  0  0  0999 V2000
   -2.5253   -0.3137    1.7339 C   0  0  0  0  0  0  0  0  0  0  0  0
   -2.9472    0.1496    0.4094 N   0  0  0  0  0  0  0  0  0  0  0  0
   -2.0653    0.9127   -0.3801 C   0  0  0  0  0  0  0  0  0  0  0  0
   -2.3814    1.7647   -1.2075 O   0  0  0  0  0  0  0  0  0  0  0  0
   -0.6078    0.6749   -0.2245 C   0  0  0  0  0  0  0  0  0  0  0  0
    0.2486    1.7637   -0.0500 C   0  0  0  0  0  0  0  0  0  0  0  0
    1.6270    1.5570    0.0781 C   0  0  0  0  0  0  0  0  0  0  0  0
    2.1594    0.2666    0.0139 C   0  0  0  0  0  0  0  0  0  0  0  0
    3.5301   -0.0258    0.1313 N   0  0  0  0  0  0  0  0  0  0  0  0
    4.5817    0.8464    0.3535 C   0  0  0  0  0  0  0  0  0  0  0  0
    4.4827    2.0596    0.5023 O   0  0  0  0  0  0  0  0  0  0  0  0
    5.8650    0.1669    0.4033 C   0  0  0  0  0  0  0  0  0  0  0  0
    7.1449    0.6517    0.5966 C   0  0  0  0  0  0  0  0  0  0  0  0
    8.0158   -0.4628    0.5492 C   0  0  0  0  0  0  0  0  0  0  0  0
    7.2196   -1.5616    0.3306 C   0  0  0  0  0  0  0  0  0  0  0  0
    5.9146   -1.1960    0.2407 O   0  0  0  0  0  0  0  0  0  0  0  0
    1.2934   -0.8178   -0.1898 C   0  0  0  0  0  0  0  0  0  0  0  0
   -0.0847   -0.6182   -0.3146 C   0  0  0  0  0  0  0  0  0  0  0  0
   -4.3256   -0.0695    0.0269 C   0  0  0  0  0  0  0  0  0  0  0  0
   -4.7995    0.2464   -1.2560 C   0  0  0  0  0  0  0  0  0  0  0  0
   -6.1292    0.0100   -1.6295 C   0  0  0  0  0  0  0  0  0  0  0  0
   -7.0187   -0.5619   -0.7292 C   0  0  0  0  0  0  0  0  0  0  0  0
   -6.5749   -0.9034    0.5416 C   0  0  0  0  0  0  0  0  0  0  0  0
   -5.2443   -0.6653    0.9114 C   0  0  0  0  0  0  0  0  0  0  0  0
   -1.5064   -0.0102    1.9834 H   0  0  0  0  0  0  0  0  0  0  0  0
   -2.5864   -1.4057    1.7730 H   0  0  0  0  0  0  0  0  0  0  0  0
   -3.1656    0.1372    2.4992 H   0  0  0  0  0  0  0  0  0  0  0  0
   -0.1519    2.7748   -0.0170 H   0  0  0  0  0  0  0  0  0  0  0  0
    2.2566    2.4309    0.2158 H   0  0  0  0  0  0  0  0  0  0  0  0
    3.8062   -0.9984    0.0453 H   0  0  0  0  0  0  0  0  0  0  0  0
    7.4036    1.6909    0.7515 H   0  0  0  0  0  0  0  0  0  0  0  0
    9.0913   -0.4646    0.6602 H   0  0  0  0  0  0  0  0  0  0  0  0
    7.4190   -2.6189    0.2200 H   0  0  0  0  0  0  0  0  0  0  0  0
    1.6803   -1.8315   -0.2617 H   0  0  0  0  0  0  0  0  0  0  0  0
   -0.7403   -1.4666   -0.4944 H   0  0  0  0  0  0  0  0  0  0  0  0
   -4.1511    0.6737   -2.0149 H   0  0  0  0  0  0  0  0  0  0  0  0
   -6.4601    0.2752   -2.6305 H   0  0  0  0  0  0  0  0  0  0  0  0
   -8.0498   -0.7435   -1.0190 H   0  0  0  0  0  0  0  0  0  0  0  0
   -7.2613   -1.3569    1.2520 H   0  0  0  0  0  0  0  0  0  0  0  0
   -4.9629   -0.9604    1.9167 H   0  0  0  0  0  0  0  0  0  0  0  0
  1  2  1  0
  2  3  1  0
  3  4  2  0
  3  5  1  0
  5  6  2  0
  6  7  1  0
  7  8  2  0
  8  9  1  0
  9 10  1  0
 10 11  2  0
 10 12  1  0
 12 13  2  0
 13 14  1  0
 14 15  2  0
 15 16  1  0
  8 17  1  0
 17 18  2  0
  2 19  1  0
 19 20  2  0
 20 21  1  0
 21 22  2  0
 22 23  1  0
 23 24  2  0
 18  5  1  0
 24 19  1  0
 16 12  1  0
  1 25  1  0
  1 26  1  0
  1 27  1  0
  6 28  1  0
  7 29  1  0
  9 30  1  0
 13 31  1  0
 14 32  1  0
 15 33  1  0
 17 34  1  0
 18 35  1  0
 20 36  1  0
 21 37  1  0
 22 38  1  0
 23 39  1  0
 24 40  1  0
M  END
$$$$
