
     RDKit          3D

 54 56  0  0  0  0  0  0  0  0999 V2000
    7.1980   -3.1870    2.0901 C   0  0  0  0  0  0  0  0  0  0  0  0
    7.1605   -1.7679    2.0189 O   0  0  0  0  0  0  0  0  0  0  0  0
    6.3867   -1.2193    1.0340 C   0  0  0  0  0  0  0  0  0  0  0  0
    5.5951   -1.9202    0.1246 C   0  0  0  0  0  0  0  0  0  0  0  0
    4.8514   -1.2301   -0.8398 C   0  0  0  0  0  0  0  0  0  0  0  0
    4.8938    0.1681   -0.9087 C   0  0  0  0  0  0  0  0  0  0  0  0
    4.0858    0.9151   -1.9393 C   0  0  0  0  0  0  0  0  0  0  0  0
    2.6861    1.2565   -1.4247 C   0  0  0  0  0  0  0  0  0  0  0  0
    1.9328    2.1225   -2.4318 C   0  0  0  0  0  0  0  0  0  0  0  0
    0.5716    2.4663   -1.9589 C   0  0  0  0  0  0  0  0  0  0  0  0
   -0.5976    2.1555   -2.4727 N   0  0  0  0  0  0  0  0  0  0  0  0
   -1.5425    2.7564   -1.6687 N   0  0  0  0  0  0  0  0  0  0  0  0
   -0.8861    3.3920   -0.7188 C   0  0  0  0  0  0  0  0  0  0  0  0
   -1.6251    4.3304    0.5375 S   0  0  0  0  0  0  0  0  0  0  0  0
   -3.3803    4.0225    0.1997 C   0  0  0  0  0  0  0  0  0  0  0  0
   -3.8028    2.6615    0.7383 C   0  0  0  0  0  0  0  0  0  0  0  0
   -4.0579    2.5167    1.9321 O   0  0  0  0  0  0  0  0  0  0  0  0
   -3.8757    1.6811   -0.2346 N   0  0  0  0  0  0  0  0  0  0  0  0
   -4.3349    0.3472   -0.0993 C   0  0  0  0  0  0  0  0  0  0  0  0
   -4.8167   -0.1769    1.1036 C   0  0  0  0  0  0  0  0  0  0  0  0
   -5.2793   -1.5056    1.1988 C   0  0  0  0  0  0  0  0  0  0  0  0
   -5.7867   -2.0091    2.5224 C   0  0  0  0  0  0  0  0  0  0  0  0
   -5.2666   -2.3311    0.0596 C   0  0  0  0  0  0  0  0  0  0  0  0
   -5.7670   -3.7479    0.1062 C   0  0  0  0  0  0  0  0  0  0  0  0
   -4.7855   -1.8115   -1.1483 C   0  0  0  0  0  0  0  0  0  0  0  0
   -4.3280   -0.4905   -1.2267 C   0  0  0  0  0  0  0  0  0  0  0  0
   -3.7337    0.1277   -2.9271 Br  0  0  0  0  0  0  0  0  0  0  0  0
    0.4722    3.2615   -0.8501 O   0  0  0  0  0  0  0  0  0  0  0  0
    5.6818    0.8668    0.0134 C   0  0  0  0  0  0  0  0  0  0  0  0
    6.4217    0.1753    0.9737 C   0  0  0  0  0  0  0  0  0  0  0  0
    7.5818   -3.6223    1.1620 H   0  0  0  0  0  0  0  0  0  0  0  0
    7.8880   -3.4610    2.8948 H   0  0  0  0  0  0  0  0  0  0  0  0
    6.2148   -3.5944    2.3413 H   0  0  0  0  0  0  0  0  0  0  0  0
    5.5315   -3.0035    0.1377 H   0  0  0  0  0  0  0  0  0  0  0  0
    4.2387   -1.7950   -1.5397 H   0  0  0  0  0  0  0  0  0  0  0  0
    4.6206    1.8316   -2.2196 H   0  0  0  0  0  0  0  0  0  0  0  0
    4.0168    0.3165   -2.8582 H   0  0  0  0  0  0  0  0  0  0  0  0
    2.7572    1.7818   -0.4624 H   0  0  0  0  0  0  0  0  0  0  0  0
    2.1231    0.3343   -1.2304 H   0  0  0  0  0  0  0  0  0  0  0  0
    1.8578    1.5954   -3.3895 H   0  0  0  0  0  0  0  0  0  0  0  0
    2.4878    3.0493   -2.6189 H   0  0  0  0  0  0  0  0  0  0  0  0
   -3.6122    4.1251   -0.8652 H   0  0  0  0  0  0  0  0  0  0  0  0
   -3.9763    4.7819    0.7197 H   0  0  0  0  0  0  0  0  0  0  0  0
   -3.4982    1.9073   -1.1552 H   0  0  0  0  0  0  0  0  0  0  0  0
   -4.8463    0.4351    2.0006 H   0  0  0  0  0  0  0  0  0  0  0  0
   -6.8425   -2.2832    2.4443 H   0  0  0  0  0  0  0  0  0  0  0  0
   -5.2064   -2.8789    2.8455 H   0  0  0  0  0  0  0  0  0  0  0  0
   -5.7000   -1.2477    3.3048 H   0  0  0  0  0  0  0  0  0  0  0  0
   -5.6877   -4.2339   -0.8732 H   0  0  0  0  0  0  0  0  0  0  0  0
   -6.8233   -3.7674    0.3982 H   0  0  0  0  0  0  0  0  0  0  0  0
   -5.1802   -4.3409    0.8162 H   0  0  0  0  0  0  0  0  0  0  0  0
   -4.7749   -2.4380   -2.0381 H   0  0  0  0  0  0  0  0  0  0  0  0
    5.7258    1.9525   -0.0100 H   0  0  0  0  0  0  0  0  0  0  0  0
    7.0328    0.7295    1.6819 H   0  0  0  0  0  0  0  0  0  0  0  0
  1  2  1  0
  2  3  1  0
  3  4  2  0
  4  5  1  0
  5  6  2  0
  6  7  1  0
  7  8  1  0
  8  9  1  0
  9 10  1  0
 10 11  2  0
 11 12  1  0
 12 13  2  0
 13 14  1  0
 14 15  1  0
 15 16  1  0
 16 17  2  0
 16 18  1  0
 18 19  1  0
 19 20  2  0
 20 21  1  0
 21 22  1  0
 21 23  2  0
 23 24  1  0
 23 25  1  0
 25 26  2  0
 26 27  1  0
 13 28  1  0
  6 29  1  0
 29 30  2  0
 30  3  1  0
 28 10  1  0
 26 19  1  0
  1 31  1  0
  1 32  1  0
  1 33  1  0
  4 34  1  0
  5 35  1  0
  7 36  1  0
  7 37  1  0
  8 38  1  0
  8 39  1  0
  9 40  1  0
  9 41  1  0
 15 42  1  0
 15 43  1  0
 18 44  1  0
 20 45  1  0
 22 46  1  0
 22 47  1  0
 22 48  1  0
 24 49  1  0
 24 50  1  0
 24 51  1  0
 25 52  1  0
 29 53  1  0
 30 54  1  0
M  END
$$$$
