
     RDKit          3D

 53 55  0  0  0  0  0  0  0  0999 V2000
   -6.5961   -4.4275    5.1145 C   0  0  0  0  0  0  0  0  0  0  0  0
   -6.7964   -3.5634    4.0028 O   0  0  0  0  0  0  0  0  0  0  0  0
   -5.7124   -2.8539    3.5651 C   0  0  0  0  0  0  0  0  0  0  0  0
   -4.4144   -2.9407    4.0753 C   0  0  0  0  0  0  0  0  0  0  0  0
   -3.3905   -2.1573    3.5321 C   0  0  0  0  0  0  0  0  0  0  0  0
   -3.6719   -1.2901    2.4742 C   0  0  0  0  0  0  0  0  0  0  0  0
   -2.3860   -0.2922    1.7696 S   0  0  0  0  0  6  0  0  0  0  0  0
   -1.1408   -0.6087    2.4361 O   0  0  0  0  0  0  0  0  0  0  0  0
   -2.8781    1.0648    1.6934 O   0  0  0  0  0  0  0  0  0  0  0  0
   -2.2739   -0.8897    0.2111 N   0  0  0  0  0  0  0  0  0  0  0  0
   -1.8978   -2.2956    0.0029 C   0  0  0  0  0  0  0  0  0  0  0  0
   -0.8795   -2.2445   -1.1160 C   0  0  0  0  0  0  0  0  0  0  0  0
   -1.1654   -1.0279   -1.8124 O   0  0  0  0  0  0  0  0  0  0  0  0
   -1.5708   -0.0801   -0.7978 C   0  0  0  0  0  0  0  0  0  0  0  0
   -0.3180    0.6846   -0.3083 C   0  0  0  0  0  0  0  0  0  0  0  0
    0.4221    1.2767   -1.4116 N   0  0  0  0  0  0  0  0  0  0  0  0
    1.4036    2.2165   -1.2067 C   0  0  0  0  0  0  0  0  0  0  0  0
    1.6570    2.7794   -0.1514 O   0  0  0  0  0  0  0  0  0  0  0  0
    2.2388    2.5302   -2.4689 C   0  0  0  0  0  0  0  0  0  0  0  0
    2.0615    1.8927   -3.4974 O   0  0  0  0  0  0  0  0  0  0  0  0
    3.1520    3.5398   -2.2802 N   0  0  0  0  0  0  0  0  0  0  0  0
    4.1432    3.8772   -3.2668 C   0  0  0  0  0  0  0  0  0  0  0  0
    5.4339    3.1435   -3.0060 C   0  0  0  0  0  0  0  0  0  0  0  0
    5.6383    1.8607   -3.5406 C   0  0  0  0  0  0  0  0  0  0  0  0
    6.8217    1.1680   -3.2823 C   0  0  0  0  0  0  0  0  0  0  0  0
    7.7972    1.7529   -2.4844 C   0  0  0  0  0  0  0  0  0  0  0  0
    8.9326    1.0873   -2.2356 F   0  0  0  0  0  0  0  0  0  0  0  0
    7.6108    3.0166   -1.9367 C   0  0  0  0  0  0  0  0  0  0  0  0
    6.4279    3.7118   -2.1933 C   0  0  0  0  0  0  0  0  0  0  0  0
   -4.9661   -1.1890    1.9612 C   0  0  0  0  0  0  0  0  0  0  0  0
   -5.9801   -1.9763    2.5085 C   0  0  0  0  0  0  0  0  0  0  0  0
   -6.2720   -3.8670    5.9977 H   0  0  0  0  0  0  0  0  0  0  0  0
   -5.8875   -5.2258    4.8701 H   0  0  0  0  0  0  0  0  0  0  0  0
   -7.5564   -4.8957    5.3511 H   0  0  0  0  0  0  0  0  0  0  0  0
   -4.1668   -3.6053    4.8969 H   0  0  0  0  0  0  0  0  0  0  0  0
   -2.3856   -2.2284    3.9429 H   0  0  0  0  0  0  0  0  0  0  0  0
   -2.7914   -2.8433   -0.3149 H   0  0  0  0  0  0  0  0  0  0  0  0
   -1.4877   -2.7886    0.8879 H   0  0  0  0  0  0  0  0  0  0  0  0
    0.1445   -2.1992   -0.7297 H   0  0  0  0  0  0  0  0  0  0  0  0
   -0.9576   -3.0955   -1.7981 H   0  0  0  0  0  0  0  0  0  0  0  0
   -2.2723    0.6145   -1.2719 H   0  0  0  0  0  0  0  0  0  0  0  0
   -0.5813    1.4809    0.3947 H   0  0  0  0  0  0  0  0  0  0  0  0
    0.3813    0.0105    0.1988 H   0  0  0  0  0  0  0  0  0  0  0  0
    0.4545    0.7796   -2.3011 H   0  0  0  0  0  0  0  0  0  0  0  0
    3.2544    3.8754   -1.3264 H   0  0  0  0  0  0  0  0  0  0  0  0
    4.3041    4.9597   -3.2178 H   0  0  0  0  0  0  0  0  0  0  0  0
    3.7716    3.6486   -4.2723 H   0  0  0  0  0  0  0  0  0  0  0  0
    4.8699    1.3959   -4.1569 H   0  0  0  0  0  0  0  0  0  0  0  0
    6.9856    0.1776   -3.6942 H   0  0  0  0  0  0  0  0  0  0  0  0
    8.3852    3.4496   -1.3117 H   0  0  0  0  0  0  0  0  0  0  0  0
    6.2857    4.6974   -1.7552 H   0  0  0  0  0  0  0  0  0  0  0  0
   -5.1893   -0.5049    1.1457 H   0  0  0  0  0  0  0  0  0  0  0  0
   -6.9914   -1.9033    2.1140 H   0  0  0  0  0  0  0  0  0  0  0  0
  1  2  1  0
  2  3  1  0
  3  4  2  0
  4  5  1  0
  5  6  2  0
  6  7  1  0
  7  8  2  0
  7  9  2  0
  7 10  1  0
 10 11  1  0
 11 12  1  0
 12 13  1  0
 13 14  1  0
 14 15  1  0
 15 16  1  0
 16 17  1  0
 17 18  2  0
 17 19  1  0
 19 20  2  0
 19 21  1  0
 21 22  1  0
 22 23  1  0
 23 24  2  0
 24 25  1  0
 25 26  2  0
 26 27  1  0
 26 28  1  0
 28 29  2  0
  6 30  1  0
 30 31  2  0
 31  3  1  0
 14 10  1  0
 29 23  1  0
  1 32  1  0
  1 33  1  0
  1 34  1  0
  4 35  1  0
  5 36  1  0
 11 37  1  0
 11 38  1  0
 12 39  1  0
 12 40  1  0
 14 41  1  0
 15 42  1  0
 15 43  1  0
 16 44  1  0
 21 45  1  0
 22 46  1  0
 22 47  1  0
 24 48  1  0
 25 49  1  0
 28 50  1  0
 29 51  1  0
 30 52  1  0
 31 53  1  0
M  END
$$$$
