
     RDKit          3D

 46 49  0  0  0  0  0  0  0  0999 V2000
    3.2146    3.5546   -0.6724 O   0  0  0  0  0  0  0  0  0  0  0  0
    2.7972    2.5683   -0.0636 C   0  0  0  0  0  0  0  0  0  0  0  0
    1.9014    2.7804    1.1528 C   0  0  0  0  0  0  0  0  0  0  0  0
    1.1764    1.2811    1.8756 S   0  0  0  0  0  0  0  0  0  0  0  0
   -0.0697    0.9371    0.7281 C   0  0  0  0  0  0  0  0  0  0  0  0
   -0.1389    1.4314   -0.4840 N   0  0  0  0  0  0  0  0  0  0  0  0
   -1.2710    0.9336   -1.0737 N   0  0  0  0  0  0  0  0  0  0  0  0
   -1.8773    0.1447   -0.2072 C   0  0  0  0  0  0  0  0  0  0  0  0
   -3.1716   -0.5631   -0.4423 C   0  0  0  0  0  0  0  0  0  0  0  0
   -4.3450    0.2000    0.1103 C   0  0  0  0  0  0  0  0  0  0  0  0
   -4.6765    1.5267   -0.0999 C   0  0  0  0  0  0  0  0  0  0  0  0
   -5.8674    1.9029    0.5807 C   0  0  0  0  0  0  0  0  0  0  0  0
   -6.4203    0.8485    1.2710 C   0  0  0  0  0  0  0  0  0  0  0  0
   -5.4996   -0.5830    1.1052 S   0  0  0  0  0  0  0  0  0  0  0  0
   -1.1312    0.1056    0.9538 N   0  0  0  0  0  0  0  0  0  0  0  0
   -1.4572   -0.6137    2.1701 C   0  0  0  0  0  0  0  0  0  0  0  0
   -1.1343   -2.0569    2.0469 C   0  0  0  0  0  0  0  0  0  0  0  0
   -1.8834   -3.2106    2.1781 C   0  0  0  0  0  0  0  0  0  0  0  0
   -1.0017   -4.2900    1.9346 C   0  0  0  0  0  0  0  0  0  0  0  0
    0.2279   -3.7298    1.6781 C   0  0  0  0  0  0  0  0  0  0  0  0
    0.1587   -2.3749    1.7553 O   0  0  0  0  0  0  0  0  0  0  0  0
    3.1178    1.2615   -0.3591 N   0  0  0  0  0  0  0  0  0  0  0  0
    3.8558    0.7561   -1.4531 C   0  0  0  0  0  0  0  0  0  0  0  0
    4.4226    1.5716   -2.4390 C   0  0  0  0  0  0  0  0  0  0  0  0
    5.1280    1.0076   -3.5093 C   0  0  0  0  0  0  0  0  0  0  0  0
    5.2701   -0.3760   -3.6009 C   0  0  0  0  0  0  0  0  0  0  0  0
    6.1370   -1.0590   -4.9207 Cl  0  0  0  0  0  0  0  0  0  0  0  0
    4.7159   -1.2073   -2.6318 C   0  0  0  0  0  0  0  0  0  0  0  0
    4.0125   -0.6416   -1.5653 C   0  0  0  0  0  0  0  0  0  0  0  0
    3.3348   -1.7139   -0.3808 Cl  0  0  0  0  0  0  0  0  0  0  0  0
    1.1041    3.4744    0.8742 H   0  0  0  0  0  0  0  0  0  0  0  0
    2.5105    3.2592    1.9239 H   0  0  0  0  0  0  0  0  0  0  0  0
   -3.3170   -0.6774   -1.5248 H   0  0  0  0  0  0  0  0  0  0  0  0
   -3.1279   -1.5790   -0.0370 H   0  0  0  0  0  0  0  0  0  0  0  0
   -4.0844    2.1931   -0.7208 H   0  0  0  0  0  0  0  0  0  0  0  0
   -6.3013    2.8941    0.5525 H   0  0  0  0  0  0  0  0  0  0  0  0
   -7.3249    0.8549    1.8648 H   0  0  0  0  0  0  0  0  0  0  0  0
   -2.5228   -0.4618    2.3713 H   0  0  0  0  0  0  0  0  0  0  0  0
   -0.9166   -0.1750    3.0131 H   0  0  0  0  0  0  0  0  0  0  0  0
   -2.9359   -3.2685    2.4143 H   0  0  0  0  0  0  0  0  0  0  0  0
   -1.2314   -5.3484    1.9430 H   0  0  0  0  0  0  0  0  0  0  0  0
    1.2014   -4.1349    1.4379 H   0  0  0  0  0  0  0  0  0  0  0  0
    2.7095    0.5519    0.2460 H   0  0  0  0  0  0  0  0  0  0  0  0
    4.3265    2.6545   -2.4126 H   0  0  0  0  0  0  0  0  0  0  0  0
    5.5577    1.6576   -4.2675 H   0  0  0  0  0  0  0  0  0  0  0  0
    4.8269   -2.2868   -2.7064 H   0  0  0  0  0  0  0  0  0  0  0  0
  1  2  2  0
  2  3  1  0
  3  4  1  0
  4  5  1  0
  5  6  2  0
  6  7  1  0
  7  8  2  0
  8  9  1  0
  9 10  1  0
 10 11  2  0
 11 12  1  0
 12 13  2  0
 13 14  1  0
  8 15  1  0
 15 16  1  0
 16 17  1  0
 17 18  2  0
 18 19  1  0
 19 20  2  0
 20 21  1  0
  2 22  1  0
 22 23  1  0
 23 24  2  0
 24 25  1  0
 25 26  2  0
 26 27  1  0
 26 28  1  0
 28 29  2  0
 29 30  1  0
 15  5  1  0
 21 17  1  0
 29 23  1  0
 14 10  1  0
  3 31  1  0
  3 32  1  0
  9 33  1  0
  9 34  1  0
 11 35  1  0
 12 36  1  0
 13 37  1  0
 16 38  1  0
 16 39  1  0
 18 40  1  0
 19 41  1  0
 20 42  1  0
 22 43  1  0
 24 44  1  0
 25 45  1  0
 28 46  1  0
M  END
$$$$
