
     RDKit          3D

 58 61  0  0  0  0  0  0  0  0999 V2000
   -3.0915    6.4184    1.2374 C   0  0  0  0  0  0  0  0  0  0  0  0
   -2.3426    5.2564    0.9050 O   0  0  0  0  0  0  0  0  0  0  0  0
   -3.0254    4.0718    0.8532 C   0  0  0  0  0  0  0  0  0  0  0  0
   -4.3847    3.9023    1.0775 C   0  0  0  0  0  0  0  0  0  0  0  0
   -4.9682    2.6327    0.9959 C   0  0  0  0  0  0  0  0  0  0  0  0
   -4.1616    1.5223    0.6806 C   0  0  0  0  0  0  0  0  0  0  0  0
   -4.6704   -0.1115    0.5307 S   0  0  0  0  0  0  0  0  0  0  0  0
   -3.0937   -0.6589    0.1611 C   0  0  0  0  0  0  0  0  0  0  0  0
   -2.8996   -2.0894   -0.1125 C   0  0  0  0  0  0  0  0  0  0  0  0
   -2.8605   -2.5179   -1.4496 C   0  0  0  0  0  0  0  0  0  0  0  0
   -2.6715   -3.8637   -1.7574 C   0  0  0  0  0  0  0  0  0  0  0  0
   -2.5167   -4.7918   -0.7322 C   0  0  0  0  0  0  0  0  0  0  0  0
   -2.5476   -4.3787    0.6031 C   0  0  0  0  0  0  0  0  0  0  0  0
   -2.7381   -3.0297    0.9263 C   0  0  0  0  0  0  0  0  0  0  0  0
   -2.7593   -2.5364    2.2071 O   0  0  0  0  0  0  0  0  0  0  0  0
   -2.7344   -3.4751    3.2729 C   0  0  0  0  0  0  0  0  0  0  0  0
   -2.1805    0.3826    0.1412 C   0  0  0  0  0  0  0  0  0  0  0  0
   -0.7729    0.1605   -0.1702 C   0  0  0  0  0  0  0  0  0  0  0  0
    0.0550   -0.5166    0.7312 C   0  0  0  0  0  0  0  0  0  0  0  0
    1.4058   -0.7267    0.4321 C   0  0  0  0  0  0  0  0  0  0  0  0
    1.9389   -0.2567   -0.7685 C   0  0  0  0  0  0  0  0  0  0  0  0
    3.2347   -0.3940   -1.1828 O   0  0  0  0  0  0  0  0  0  0  0  0
    4.1286   -1.0894   -0.3090 C   0  0  0  0  0  0  0  0  0  0  0  0
    5.5302   -1.1415   -0.9476 C   0  0  0  0  0  0  0  0  0  0  0  0
    6.3843    0.0356   -0.6710 N   0  0  0  0  0  0  0  0  0  0  0  0
    5.8082    1.2683   -1.2141 C   0  0  0  0  0  0  0  0  0  0  0  0
    7.7205   -0.1764   -1.2335 C   0  0  0  0  0  0  0  0  0  0  0  0
    1.1111    0.4254   -1.6644 C   0  0  0  0  0  0  0  0  0  0  0  0
   -0.2382    0.6359   -1.3703 C   0  0  0  0  0  0  0  0  0  0  0  0
   -2.7928    1.6573    0.4453 C   0  0  0  0  0  0  0  0  0  0  0  0
   -2.2347    2.9594    0.5406 C   0  0  0  0  0  0  0  0  0  0  0  0
   -3.8617    6.6199    0.4856 H   0  0  0  0  0  0  0  0  0  0  0  0
   -3.5274    6.3346    2.2385 H   0  0  0  0  0  0  0  0  0  0  0  0
   -2.4032    7.2691    1.2446 H   0  0  0  0  0  0  0  0  0  0  0  0
   -5.0322    4.7381    1.3220 H   0  0  0  0  0  0  0  0  0  0  0  0
   -6.0324    2.5066    1.1751 H   0  0  0  0  0  0  0  0  0  0  0  0
   -2.9770   -1.7974   -2.2562 H   0  0  0  0  0  0  0  0  0  0  0  0
   -2.6427   -4.1851   -2.7952 H   0  0  0  0  0  0  0  0  0  0  0  0
   -2.3664   -5.8419   -0.9707 H   0  0  0  0  0  0  0  0  0  0  0  0
   -2.4121   -5.1360    1.3678 H   0  0  0  0  0  0  0  0  0  0  0  0
   -1.7806   -4.0119    3.3008 H   0  0  0  0  0  0  0  0  0  0  0  0
   -2.8289   -2.9185    4.2103 H   0  0  0  0  0  0  0  0  0  0  0  0
   -3.5792   -4.1691    3.2119 H   0  0  0  0  0  0  0  0  0  0  0  0
   -0.3476   -0.8857    1.6724 H   0  0  0  0  0  0  0  0  0  0  0  0
    2.0091   -1.2586    1.1595 H   0  0  0  0  0  0  0  0  0  0  0  0
    4.1797   -0.6023    0.6726 H   0  0  0  0  0  0  0  0  0  0  0  0
    3.7732   -2.1199   -0.1850 H   0  0  0  0  0  0  0  0  0  0  0  0
    6.0356   -2.0183   -0.5228 H   0  0  0  0  0  0  0  0  0  0  0  0
    5.4390   -1.3018   -2.0298 H   0  0  0  0  0  0  0  0  0  0  0  0
    5.6051    1.1925   -2.2883 H   0  0  0  0  0  0  0  0  0  0  0  0
    6.4882    2.1132   -1.0543 H   0  0  0  0  0  0  0  0  0  0  0  0
    4.8810    1.5320   -0.6961 H   0  0  0  0  0  0  0  0  0  0  0  0
    8.3794    0.6644   -0.9889 H   0  0  0  0  0  0  0  0  0  0  0  0
    7.6975   -0.2916   -2.3233 H   0  0  0  0  0  0  0  0  0  0  0  0
    8.1840   -1.0702   -0.8010 H   0  0  0  0  0  0  0  0  0  0  0  0
    1.5209    0.7962   -2.6005 H   0  0  0  0  0  0  0  0  0  0  0  0
   -0.8644    1.1678   -2.0822 H   0  0  0  0  0  0  0  0  0  0  0  0
   -1.1690    3.0988    0.3719 H   0  0  0  0  0  0  0  0  0  0  0  0
  1  2  1  0
  2  3  1  0
  3  4  2  0
  4  5  1  0
  5  6  2  0
  6  7  1  0
  7  8  1  0
  8  9  1  0
  9 10  2  0
 10 11  1  0
 11 12  2  0
 12 13  1  0
 13 14  2  0
 14 15  1  0
 15 16  1  0
  8 17  2  0
 17 18  1  0
 18 19  2  0
 19 20  1  0
 20 21  2  0
 21 22  1  0
 22 23  1  0
 23 24  1  0
 24 25  1  0
 25 26  1  0
 25 27  1  0
 21 28  1  0
 28 29  2  0
 17 30  1  0
 30 31  2  0
 31  3  1  0
 30  6  1  0
 14  9  1  0
 29 18  1  0
  1 32  1  0
  1 33  1  0
  1 34  1  0
  4 35  1  0
  5 36  1  0
 10 37  1  0
 11 38  1  0
 12 39  1  0
 13 40  1  0
 16 41  1  0
 16 42  1  0
 16 43  1  0
 19 44  1  0
 20 45  1  0
 23 46  1  0
 23 47  1  0
 24 48  1  0
 24 49  1  0
 26 50  1  0
 26 51  1  0
 26 52  1  0
 27 53  1  0
 27 54  1  0
 27 55  1  0
 28 56  1  0
 29 57  1  0
 31 58  1  0
M  END
$$$$
