
     RDKit          3D

 57 60  0  0  0  0  0  0  0  0999 V2000
   -8.4498    2.3472   -1.2439 C   0  0  0  0  0  0  0  0  0  0  0  0
   -8.0906    0.9767   -1.1085 O   0  0  0  0  0  0  0  0  0  0  0  0
   -6.8309    0.7112   -0.6447 C   0  0  0  0  0  0  0  0  0  0  0  0
   -5.8916    1.6578   -0.2408 C   0  0  0  0  0  0  0  0  0  0  0  0
   -4.6321    1.2533    0.2160 C   0  0  0  0  0  0  0  0  0  0  0  0
   -4.3031   -0.1007    0.2727 C   0  0  0  0  0  0  0  0  0  0  0  0
   -3.0527   -0.5892    0.7139 N   0  0  0  0  0  0  0  0  0  0  0  0
   -1.9701    0.1311    1.1880 C   0  0  0  0  0  0  0  0  0  0  0  0
   -1.9364    1.3459    1.3607 O   0  0  0  0  0  0  0  0  0  0  0  0
   -0.7777   -0.7483    1.5195 C   0  0  0  0  0  0  0  0  0  0  0  0
    0.4349   -0.3198    0.8356 N   0  0  0  0  0  0  0  0  0  0  0  0
    1.5160    0.2426    1.4612 C   0  0  0  0  0  0  0  0  0  0  0  0
    2.4831    0.4754    0.5052 C   0  0  0  0  0  0  0  0  0  0  0  0
    4.0568    1.1414    0.7942 S   0  0  0  0  0  6  0  0  0  0  0  0
    4.2522    2.0844   -0.2892 O   0  0  0  0  0  0  0  0  0  0  0  0
    4.0219    1.5441    2.1874 O   0  0  0  0  0  0  0  0  0  0  0  0
    5.1201   -0.2838    0.5929 C   0  0  0  0  0  0  0  0  0  0  0  0
    6.5512    0.1274    0.8181 C   0  0  0  0  0  0  0  0  0  0  0  0
    7.1083    0.0960    2.1047 C   0  0  0  0  0  0  0  0  0  0  0  0
    8.4330    0.4830    2.3118 C   0  0  0  0  0  0  0  0  0  0  0  0
    9.2130    0.9069    1.2379 C   0  0  0  0  0  0  0  0  0  0  0  0
    8.6683    0.9484   -0.0438 C   0  0  0  0  0  0  0  0  0  0  0  0
    7.3437    0.5623   -0.2541 C   0  0  0  0  0  0  0  0  0  0  0  0
    1.9784    0.0309   -0.7506 C   0  0  0  0  0  0  0  0  0  0  0  0
    2.4784    0.0086   -2.0712 C   0  0  0  0  0  0  0  0  0  0  0  0
    1.7029   -0.5322   -3.1012 C   0  0  0  0  0  0  0  0  0  0  0  0
    0.4397   -1.0478   -2.8370 C   0  0  0  0  0  0  0  0  0  0  0  0
   -0.0860   -1.0331   -1.5424 C   0  0  0  0  0  0  0  0  0  0  0  0
    0.6974   -0.4864   -0.5120 C   0  0  0  0  0  0  0  0  0  0  0  0
   -5.2503   -1.0621   -0.1364 C   0  0  0  0  0  0  0  0  0  0  0  0
   -4.8330   -2.3726   -0.0521 O   0  0  0  0  0  0  0  0  0  0  0  0
   -5.7745   -3.3709   -0.4309 C   0  0  0  0  0  0  0  0  0  0  0  0
   -6.5065   -0.6481   -0.5885 C   0  0  0  0  0  0  0  0  0  0  0  0
   -7.7898    2.8609   -1.9511 H   0  0  0  0  0  0  0  0  0  0  0  0
   -9.4659    2.3873   -1.6480 H   0  0  0  0  0  0  0  0  0  0  0  0
   -8.4577    2.8501   -0.2713 H   0  0  0  0  0  0  0  0  0  0  0  0
   -6.1004    2.7224   -0.2660 H   0  0  0  0  0  0  0  0  0  0  0  0
   -3.9296    2.0253    0.5151 H   0  0  0  0  0  0  0  0  0  0  0  0
   -2.9904   -1.6020    0.6682 H   0  0  0  0  0  0  0  0  0  0  0  0
   -0.9460   -1.7960    1.2491 H   0  0  0  0  0  0  0  0  0  0  0  0
   -0.6056   -0.7063    2.6006 H   0  0  0  0  0  0  0  0  0  0  0  0
    1.5151    0.4497    2.5249 H   0  0  0  0  0  0  0  0  0  0  0  0
    4.8144   -1.0467    1.3160 H   0  0  0  0  0  0  0  0  0  0  0  0
    4.9877   -0.6833   -0.4166 H   0  0  0  0  0  0  0  0  0  0  0  0
    6.5115   -0.2168    2.9597 H   0  0  0  0  0  0  0  0  0  0  0  0
    8.8542    0.4625    3.3137 H   0  0  0  0  0  0  0  0  0  0  0  0
   10.2426    1.2142    1.4016 H   0  0  0  0  0  0  0  0  0  0  0  0
    9.2731    1.2904   -0.8797 H   0  0  0  0  0  0  0  0  0  0  0  0
    6.9334    0.6166   -1.2609 H   0  0  0  0  0  0  0  0  0  0  0  0
    3.4539    0.4287   -2.3040 H   0  0  0  0  0  0  0  0  0  0  0  0
    2.0880   -0.5363   -4.1181 H   0  0  0  0  0  0  0  0  0  0  0  0
   -0.1554   -1.4549   -3.6516 H   0  0  0  0  0  0  0  0  0  0  0  0
   -1.0822   -1.4224   -1.3608 H   0  0  0  0  0  0  0  0  0  0  0  0
   -5.2942   -4.3460   -0.3041 H   0  0  0  0  0  0  0  0  0  0  0  0
   -6.0526   -3.2725   -1.4855 H   0  0  0  0  0  0  0  0  0  0  0  0
   -6.6563   -3.3470    0.2182 H   0  0  0  0  0  0  0  0  0  0  0  0
   -7.2618   -1.3577   -0.9099 H   0  0  0  0  0  0  0  0  0  0  0  0
  1  2  1  0
  2  3  1  0
  3  4  2  0
  4  5  1  0
  5  6  2  0
  6  7  1  0
  7  8  1  0
  8  9  2  0
  8 10  1  0
 10 11  1  0
 11 12  1  0
 12 13  2  0
 13 14  1  0
 14 15  2  0
 14 16  2  0
 14 17  1  0
 17 18  1  0
 18 19  2  0
 19 20  1  0
 20 21  2  0
 21 22  1  0
 22 23  2  0
 13 24  1  0
 24 25  2  0
 25 26  1  0
 26 27  2  0
 27 28  1  0
 28 29  2  0
  6 30  1  0
 30 31  1  0
 31 32  1  0
 30 33  2  0
 33  3  1  0
 29 11  1  0
 23 18  1  0
 29 24  1  0
  1 34  1  0
  1 35  1  0
  1 36  1  0
  4 37  1  0
  5 38  1  0
  7 39  1  0
 10 40  1  0
 10 41  1  0
 12 42  1  0
 17 43  1  0
 17 44  1  0
 19 45  1  0
 20 46  1  0
 21 47  1  0
 22 48  1  0
 23 49  1  0
 25 50  1  0
 26 51  1  0
 27 52  1  0
 28 53  1  0
 32 54  1  0
 32 55  1  0
 32 56  1  0
 33 57  1  0
M  END
$$$$
