
     RDKit          3D

 44 47  0  0  0  0  0  0  0  0999 V2000
   -1.3049    4.3065   -1.2508 C   0  0  0  0  0  0  0  0  0  0  0  0
   -1.7005    3.0462   -0.6388 N   0  0  0  0  0  0  0  0  0  0  0  0
   -2.9373    2.9312   -0.0344 C   0  0  0  0  0  0  0  0  0  0  0  0
   -3.7385    3.8632    0.0213 O   0  0  0  0  0  0  0  0  0  0  0  0
   -3.2962    1.6127    0.5715 C   0  0  0  0  0  0  0  0  0  0  0  0
   -4.5852    1.5327    1.1835 C   0  0  0  0  0  0  0  0  0  0  0  0
   -5.6220    1.4229    1.6945 N   0  0  0  0  0  0  0  0  0  0  0  0
   -2.4390    0.5662    0.5356 C   0  0  0  0  0  0  0  0  0  0  0  0
   -2.8558   -0.7156    1.1580 C   0  0  0  0  0  0  0  0  0  0  0  0
   -2.6114   -0.9515    2.5196 C   0  0  0  0  0  0  0  0  0  0  0  0
   -2.9982   -2.1609    3.0991 C   0  0  0  0  0  0  0  0  0  0  0  0
   -3.6237   -3.1274    2.3196 C   0  0  0  0  0  0  0  0  0  0  0  0
   -3.9903   -4.2880    2.8778 F   0  0  0  0  0  0  0  0  0  0  0  0
   -3.8713   -2.9088    0.9692 C   0  0  0  0  0  0  0  0  0  0  0  0
   -3.4876   -1.7010    0.3842 C   0  0  0  0  0  0  0  0  0  0  0  0
   -1.1265    0.7522   -0.1265 C   0  0  0  0  0  0  0  0  0  0  0  0
   -0.1845   -0.2864   -0.2034 C   0  0  0  0  0  0  0  0  0  0  0  0
    1.0458   -0.0749   -0.8276 C   0  0  0  0  0  0  0  0  0  0  0  0
    2.0149   -1.1829   -0.9273 C   0  0  0  0  0  0  0  0  0  0  0  0
    1.5917   -2.3205   -1.1250 O   0  0  0  0  0  0  0  0  0  0  0  0
    3.4823   -0.9833   -0.8206 C   0  0  0  0  0  0  0  0  0  0  0  0
    4.0132    0.0468   -0.0334 C   0  0  0  0  0  0  0  0  0  0  0  0
    5.3962    0.2150    0.0446 C   0  0  0  0  0  0  0  0  0  0  0  0
    6.0393    1.4899    1.0043 Cl  0  0  0  0  0  0  0  0  0  0  0  0
    6.2595   -0.6340   -0.6419 C   0  0  0  0  0  0  0  0  0  0  0  0
    5.7352   -1.6774   -1.4049 C   0  0  0  0  0  0  0  0  0  0  0  0
    6.8375   -2.7216   -2.2264 Cl  0  0  0  0  0  0  0  0  0  0  0  0
    4.3501   -1.8658   -1.4870 C   0  0  0  0  0  0  0  0  0  0  0  0
    3.8717   -2.9171   -2.2286 O   0  0  0  0  0  0  0  0  0  0  0  0
    1.2825    1.1650   -1.3913 C   0  0  0  0  0  0  0  0  0  0  0  0
    0.4037    2.1901   -1.3246 N   0  0  0  0  0  0  0  0  0  0  0  0
   -0.7831    1.9777   -0.7007 C   0  0  0  0  0  0  0  0  0  0  0  0
   -0.3966    4.6778   -0.7652 H   0  0  0  0  0  0  0  0  0  0  0  0
   -2.0813    5.0695   -1.1466 H   0  0  0  0  0  0  0  0  0  0  0  0
   -1.1232    4.1507   -2.3193 H   0  0  0  0  0  0  0  0  0  0  0  0
   -2.1258   -0.2000    3.1384 H   0  0  0  0  0  0  0  0  0  0  0  0
   -2.8209   -2.3553    4.1524 H   0  0  0  0  0  0  0  0  0  0  0  0
   -4.3635   -3.6789    0.3831 H   0  0  0  0  0  0  0  0  0  0  0  0
   -3.6868   -1.5384   -0.6730 H   0  0  0  0  0  0  0  0  0  0  0  0
   -0.3955   -1.2690    0.2158 H   0  0  0  0  0  0  0  0  0  0  0  0
    3.3705    0.7122    0.5376 H   0  0  0  0  0  0  0  0  0  0  0  0
    7.3355   -0.4927   -0.5757 H   0  0  0  0  0  0  0  0  0  0  0  0
    2.9278   -3.0676   -1.9965 H   0  0  0  0  0  0  0  0  0  0  0  0
    2.1923    1.3905   -1.9411 H   0  0  0  0  0  0  0  0  0  0  0  0
  1  2  1  0
  2  3  1  0
  3  4  2  0
  3  5  1  0
  5  6  1  0
  6  7  3  0
  5  8  2  0
  8  9  1  0
  9 10  2  0
 10 11  1  0
 11 12  2  0
 12 13  1  0
 12 14  1  0
 14 15  2  0
  8 16  1  0
 16 17  2  0
 17 18  1  0
 18 19  1  0
 19 20  2  0
 19 21  1  0
 21 22  2  0
 22 23  1  0
 23 24  1  0
 23 25  2  0
 25 26  1  0
 26 27  1  0
 26 28  2  0
 28 29  1  0
 18 30  2  0
 30 31  1  0
 31 32  2  0
 32  2  1  0
 15  9  1  0
 32 16  1  0
 28 21  1  0
  1 33  1  0
  1 34  1  0
  1 35  1  0
 10 36  1  0
 11 37  1  0
 14 38  1  0
 15 39  1  0
 17 40  1  0
 22 41  1  0
 25 42  1  0
 29 43  1  0
 30 44  1  0
M  END
$$$$
