
     RDKit          3D

 33 35  0  0  0  0  0  0  0  0999 V2000
    5.4703   -0.0439   -0.6424 C   0  0  0  0  0  0  0  0  0  0  0  0
    4.6134   -1.1634   -0.4591 O   0  0  0  0  0  0  0  0  0  0  0  0
    3.3107   -0.9038   -0.1343 C   0  0  0  0  0  0  0  0  0  0  0  0
    2.5139   -2.0399    0.0237 C   0  0  0  0  0  0  0  0  0  0  0  0
    1.1616   -1.9214    0.3482 C   0  0  0  0  0  0  0  0  0  0  0  0
    0.5929   -0.6562    0.5210 C   0  0  0  0  0  0  0  0  0  0  0  0
    1.3862    0.4965    0.3844 C   0  0  0  0  0  0  0  0  0  0  0  0
    2.7442    0.3612    0.0425 C   0  0  0  0  0  0  0  0  0  0  0  0
    0.7941    1.8734    0.5555 C   0  0  0  0  0  0  0  0  0  0  0  0
   -0.4694    1.8519    1.4144 C   0  0  0  0  0  0  0  0  0  0  0  0
   -1.4284    0.8237    0.8853 C   0  0  0  0  0  0  0  0  0  0  0  0
   -2.6810    1.1314    0.5061 C   0  0  0  0  0  0  0  0  0  0  0  0
   -3.5776    0.2262   -0.1225 C   0  0  0  0  0  0  0  0  0  0  0  0
   -4.9625    0.1631   -0.0148 C   0  0  0  0  0  0  0  0  0  0  0  0
   -5.4182   -0.8824   -0.8525 C   0  0  0  0  0  0  0  0  0  0  0  0
   -4.2966   -1.3969   -1.4494 C   0  0  0  0  0  0  0  0  0  0  0  0
   -3.1933   -0.7288   -1.0373 O   0  0  0  0  0  0  0  0  0  0  0  0
   -0.8551   -0.5589    0.8556 C   0  0  0  0  0  0  0  0  0  0  0  0
   -1.4990   -1.5521    1.1685 O   0  0  0  0  0  0  0  0  0  0  0  0
    5.1287    0.5829   -1.4728 H   0  0  0  0  0  0  0  0  0  0  0  0
    5.5627    0.5376    0.2808 H   0  0  0  0  0  0  0  0  0  0  0  0
    6.4647   -0.4222   -0.8983 H   0  0  0  0  0  0  0  0  0  0  0  0
    2.9485   -3.0276   -0.1121 H   0  0  0  0  0  0  0  0  0  0  0  0
    0.5534   -2.8170    0.4594 H   0  0  0  0  0  0  0  0  0  0  0  0
    3.3391    1.2613   -0.0777 H   0  0  0  0  0  0  0  0  0  0  0  0
    1.5269    2.5385    1.0280 H   0  0  0  0  0  0  0  0  0  0  0  0
    0.5677    2.2796   -0.4384 H   0  0  0  0  0  0  0  0  0  0  0  0
   -0.9149    2.8536    1.4277 H   0  0  0  0  0  0  0  0  0  0  0  0
   -0.2167    1.6050    2.4540 H   0  0  0  0  0  0  0  0  0  0  0  0
   -3.0423    2.1475    0.6355 H   0  0  0  0  0  0  0  0  0  0  0  0
   -5.5696    0.7966    0.6168 H   0  0  0  0  0  0  0  0  0  0  0  0
   -6.4340   -1.2197   -0.9991 H   0  0  0  0  0  0  0  0  0  0  0  0
   -4.1204   -2.1957   -2.1555 H   0  0  0  0  0  0  0  0  0  0  0  0
  1  2  1  0
  2  3  1  0
  3  4  2  0
  4  5  1  0
  5  6  2  0
  6  7  1  0
  7  8  2  0
  7  9  1  0
  9 10  1  0
 10 11  1  0
 11 12  2  3
 12 13  1  0
 13 14  2  0
 14 15  1  0
 15 16  2  0
 16 17  1  0
 11 18  1  0
 18 19  2  0
  8  3  1  0
 17 13  1  0
 18  6  1  0
  1 20  1  0
  1 21  1  0
  1 22  1  0
  4 23  1  0
  5 24  1  0
  8 25  1  0
  9 26  1  0
  9 27  1  0
 10 28  1  0
 10 29  1  0
 12 30  1  0
 14 31  1  0
 15 32  1  0
 16 33  1  0
M  END
$$$$
