
     RDKit          3D

 49 52  0  0  0  0  0  0  0  0999 V2000
    2.9432    0.9858    2.2664 C   0  0  0  0  0  0  0  0  0  0  0  0
    3.9803    0.0102    1.7748 C   0  0  0  0  0  0  0  0  0  0  0  0
    4.8254   -0.5870    2.7318 C   0  0  0  0  0  0  0  0  0  0  0  0
    5.7959   -1.5100    2.3478 C   0  0  0  0  0  0  0  0  0  0  0  0
    6.8155   -2.2296    3.5324 Cl  0  0  0  0  0  0  0  0  0  0  0  0
    5.9404   -1.8507    1.0109 C   0  0  0  0  0  0  0  0  0  0  0  0
    5.1031   -1.2698    0.0518 C   0  0  0  0  0  0  0  0  0  0  0  0
    4.1104   -0.3467    0.4132 C   0  0  0  0  0  0  0  0  0  0  0  0
    3.2392    0.2398   -0.5373 N   0  0  0  0  0  0  0  0  0  0  0  0
    3.1880    0.0054   -1.9039 C   0  0  0  0  0  0  0  0  0  0  0  0
    3.8752   -0.7967   -2.5339 O   0  0  0  0  0  0  0  0  0  0  0  0
    2.1539    0.8560   -2.6271 C   0  0  0  0  0  0  0  0  0  0  0  0
    0.5563   -0.0064   -2.6731 S   0  0  0  0  0  0  0  0  0  0  0  0
   -0.0377    0.3270   -1.0866 C   0  0  0  0  0  0  0  0  0  0  0  0
    0.4694    1.2121   -0.2613 N   0  0  0  0  0  0  0  0  0  0  0  0
   -0.2417    1.1469    0.9044 N   0  0  0  0  0  0  0  0  0  0  0  0
   -1.1646    0.2097    0.7786 C   0  0  0  0  0  0  0  0  0  0  0  0
   -2.1096   -0.2121    1.8580 C   0  0  0  0  0  0  0  0  0  0  0  0
   -3.4939    0.3474    1.6953 C   0  0  0  0  0  0  0  0  0  0  0  0
   -3.8754    1.6427    1.3947 C   0  0  0  0  0  0  0  0  0  0  0  0
   -5.2911    1.7912    1.3278 C   0  0  0  0  0  0  0  0  0  0  0  0
   -5.9456    0.6083    1.5901 C   0  0  0  0  0  0  0  0  0  0  0  0
   -4.8586   -0.6673    1.9276 S   0  0  0  0  0  0  0  0  0  0  0  0
   -1.0855   -0.3243   -0.4921 N   0  0  0  0  0  0  0  0  0  0  0  0
   -1.8655   -1.4193   -1.0393 C   0  0  0  0  0  0  0  0  0  0  0  0
   -2.8837   -0.9385   -2.0060 C   0  0  0  0  0  0  0  0  0  0  0  0
   -2.9518   -0.9024   -3.3842 C   0  0  0  0  0  0  0  0  0  0  0  0
   -4.2044   -0.3285   -3.7095 C   0  0  0  0  0  0  0  0  0  0  0  0
   -4.8298   -0.0702   -2.5127 C   0  0  0  0  0  0  0  0  0  0  0  0
   -4.0374   -0.4428   -1.4766 O   0  0  0  0  0  0  0  0  0  0  0  0
    3.1371    1.2910    3.3013 H   0  0  0  0  0  0  0  0  0  0  0  0
    1.9566    0.5193    2.2365 H   0  0  0  0  0  0  0  0  0  0  0  0
    2.9478    1.8990    1.6641 H   0  0  0  0  0  0  0  0  0  0  0  0
    4.7252   -0.3279    3.7846 H   0  0  0  0  0  0  0  0  0  0  0  0
    6.6953   -2.5690    0.6990 H   0  0  0  0  0  0  0  0  0  0  0  0
    5.2554   -1.5724   -0.9793 H   0  0  0  0  0  0  0  0  0  0  0  0
    2.5099    0.8490   -0.1674 H   0  0  0  0  0  0  0  0  0  0  0  0
    2.0743    1.8511   -2.1771 H   0  0  0  0  0  0  0  0  0  0  0  0
    2.5005    1.0042   -3.6560 H   0  0  0  0  0  0  0  0  0  0  0  0
   -1.7148    0.1404    2.8204 H   0  0  0  0  0  0  0  0  0  0  0  0
   -2.1210   -1.3067    1.9266 H   0  0  0  0  0  0  0  0  0  0  0  0
   -3.1687    2.4459    1.2190 H   0  0  0  0  0  0  0  0  0  0  0  0
   -5.8017    2.7177    1.0961 H   0  0  0  0  0  0  0  0  0  0  0  0
   -7.0126    0.4311    1.6047 H   0  0  0  0  0  0  0  0  0  0  0  0
   -2.3464   -1.9572   -0.2179 H   0  0  0  0  0  0  0  0  0  0  0  0
   -1.1732   -2.1253   -1.5099 H   0  0  0  0  0  0  0  0  0  0  0  0
   -2.1897   -1.2410   -4.0731 H   0  0  0  0  0  0  0  0  0  0  0  0
   -4.6064   -0.1333   -4.6939 H   0  0  0  0  0  0  0  0  0  0  0  0
   -5.7877    0.3514   -2.2401 H   0  0  0  0  0  0  0  0  0  0  0  0
  1  2  1  0
  2  3  2  0
  3  4  1  0
  4  5  1  0
  4  6  2  0
  6  7  1  0
  7  8  2  0
  8  9  1  0
  9 10  1  0
 10 11  2  0
 10 12  1  0
 12 13  1  0
 13 14  1  0
 14 15  2  0
 15 16  1  0
 16 17  2  0
 17 18  1  0
 18 19  1  0
 19 20  2  0
 20 21  1  0
 21 22  2  0
 22 23  1  0
 17 24  1  0
 24 25  1  0
 25 26  1  0
 26 27  2  0
 27 28  1  0
 28 29  2  0
 29 30  1  0
  8  2  1  0
 24 14  1  0
 30 26  1  0
 23 19  1  0
  1 31  1  0
  1 32  1  0
  1 33  1  0
  3 34  1  0
  6 35  1  0
  7 36  1  0
  9 37  1  0
 12 38  1  0
 12 39  1  0
 18 40  1  0
 18 41  1  0
 20 42  1  0
 21 43  1  0
 22 44  1  0
 25 45  1  0
 25 46  1  0
 27 47  1  0
 28 48  1  0
 29 49  1  0
M  END
$$$$
