
     RDKit          3D

 41 42  0  0  0  0  0  0  0  0999 V2000
   -4.7755   -2.1010    0.0816 C   0  0  0  0  0  0  0  0  0  0  0  0
   -4.3560   -0.9958    1.0387 C   0  0  0  0  0  0  0  0  0  0  0  0
   -3.8445    0.1755    0.3144 N   0  0  0  0  0  0  0  0  0  0  0  0
   -4.8424    1.1627   -0.1221 C   0  0  0  0  0  0  0  0  0  0  0  0
   -5.0346    1.1414   -1.6328 C   0  0  0  0  0  0  0  0  0  0  0  0
   -2.4828    0.3521    0.0883 C   0  0  0  0  0  0  0  0  0  0  0  0
   -1.5554   -0.6931    0.2363 C   0  0  0  0  0  0  0  0  0  0  0  0
   -0.1790   -0.5220    0.0129 C   0  0  0  0  0  0  0  0  0  0  0  0
    0.3316    0.7192   -0.3621 C   0  0  0  0  0  0  0  0  0  0  0  0
    1.7563    0.9443   -0.6334 C   0  0  0  0  0  0  0  0  0  0  0  0
    2.7495    0.3861    0.0756 C   0  0  0  0  0  0  0  0  0  0  0  0
    4.1623    0.7098   -0.2646 C   0  0  0  0  0  0  0  0  0  0  0  0
    4.4515    1.6155   -1.0402 O   0  0  0  0  0  0  0  0  0  0  0  0
    5.2397   -0.0675    0.3896 C   0  0  0  0  0  0  0  0  0  0  0  0
    6.5016    0.5123    0.5464 C   0  0  0  0  0  0  0  0  0  0  0  0
    7.5237   -0.2143    1.1532 C   0  0  0  0  0  0  0  0  0  0  0  0
    7.2496   -1.5044    1.5772 C   0  0  0  0  0  0  0  0  0  0  0  0
    6.0470   -2.1027    1.4287 N   0  0  0  0  0  0  0  0  0  0  0  0
    5.0723   -1.3742    0.8294 C   0  0  0  0  0  0  0  0  0  0  0  0
   -0.5670    1.7695   -0.5363 C   0  0  0  0  0  0  0  0  0  0  0  0
   -1.9408    1.5854   -0.3096 C   0  0  0  0  0  0  0  0  0  0  0  0
   -5.1089   -2.9794    0.6431 H   0  0  0  0  0  0  0  0  0  0  0  0
   -3.9530   -2.4062   -0.5722 H   0  0  0  0  0  0  0  0  0  0  0  0
   -5.6051   -1.7769   -0.5544 H   0  0  0  0  0  0  0  0  0  0  0  0
   -3.6284   -1.3734    1.7664 H   0  0  0  0  0  0  0  0  0  0  0  0
   -5.2243   -0.7070    1.6444 H   0  0  0  0  0  0  0  0  0  0  0  0
   -5.8139    0.9453    0.3393 H   0  0  0  0  0  0  0  0  0  0  0  0
   -4.5844    2.1689    0.2261 H   0  0  0  0  0  0  0  0  0  0  0  0
   -5.8154    1.8522   -1.9217 H   0  0  0  0  0  0  0  0  0  0  0  0
   -4.1201    1.4146   -2.1670 H   0  0  0  0  0  0  0  0  0  0  0  0
   -5.3367    0.1485   -1.9798 H   0  0  0  0  0  0  0  0  0  0  0  0
   -1.8823   -1.6920    0.5082 H   0  0  0  0  0  0  0  0  0  0  0  0
    0.4726   -1.3846    0.1222 H   0  0  0  0  0  0  0  0  0  0  0  0
    1.9811    1.6305   -1.4491 H   0  0  0  0  0  0  0  0  0  0  0  0
    2.5498   -0.2644    0.9170 H   0  0  0  0  0  0  0  0  0  0  0  0
    6.6887    1.5259    0.1981 H   0  0  0  0  0  0  0  0  0  0  0  0
    8.5099    0.2162    1.2887 H   0  0  0  0  0  0  0  0  0  0  0  0
    8.0135   -2.1105    2.0568 H   0  0  0  0  0  0  0  0  0  0  0  0
    4.1396   -1.9148    0.7029 H   0  0  0  0  0  0  0  0  0  0  0  0
   -0.2151    2.7529   -0.8409 H   0  0  0  0  0  0  0  0  0  0  0  0
   -2.5749    2.4554   -0.4478 H   0  0  0  0  0  0  0  0  0  0  0  0
  1  2  1  0
  2  3  1  0
  3  4  1  0
  4  5  1  0
  3  6  1  0
  6  7  2  0
  7  8  1  0
  8  9  2  0
  9 10  1  0
 10 11  2  3
 11 12  1  0
 12 13  2  0
 12 14  1  0
 14 15  2  0
 15 16  1  0
 16 17  2  0
 17 18  1  0
 18 19  2  0
  9 20  1  0
 20 21  2  0
 21  6  1  0
 19 14  1  0
  1 22  1  0
  1 23  1  0
  1 24  1  0
  2 25  1  0
  2 26  1  0
  4 27  1  0
  4 28  1  0
  5 29  1  0
  5 30  1  0
  5 31  1  0
  7 32  1  0
  8 33  1  0
 10 34  1  0
 11 35  1  0
 15 36  1  0
 16 37  1  0
 17 38  1  0
 19 39  1  0
 20 40  1  0
 21 41  1  0
M  END
$$$$
