
     RDKit          3D

 54 58  0  0  0  0  0  0  0  0999 V2000
    7.4619    1.6678   -1.3173 F   0  0  0  0  0  0  0  0  0  0  0  0
    6.2186    1.1948   -1.6188 C   0  0  0  0  0  0  0  0  0  0  0  0
    6.1609    1.1594   -2.9799 F   0  0  0  0  0  0  0  0  0  0  0  0
    5.3546    2.1765   -1.2339 F   0  0  0  0  0  0  0  0  0  0  0  0
    5.9094   -0.1465   -0.9900 C   0  0  0  0  0  0  0  0  0  0  0  0
    6.9470   -0.8503   -0.3466 C   0  0  0  0  0  0  0  0  0  0  0  0
    6.7175   -2.0927    0.2430 C   0  0  0  0  0  0  0  0  0  0  0  0
    5.4475   -2.6543    0.1988 C   0  0  0  0  0  0  0  0  0  0  0  0
    4.4084   -1.9773   -0.4382 C   0  0  0  0  0  0  0  0  0  0  0  0
    4.6193   -0.7258   -1.0436 C   0  0  0  0  0  0  0  0  0  0  0  0
    3.4431   -0.0412   -1.7162 C   0  0  0  0  0  0  0  0  0  0  0  0
    2.5619    0.7741   -0.7462 C   0  0  0  0  0  0  0  0  0  0  0  0
    1.6916   -0.0356    0.1290 N   0  0  0  0  0  0  0  0  0  0  0  0
    1.0769    0.7936    1.1935 C   0  0  0  0  0  0  0  0  0  0  0  0
   -0.3824    1.2161    0.9292 C   0  0  0  0  0  0  0  0  0  0  0  0
   -1.2523    0.0386    0.7649 N   0  0  0  0  0  0  0  0  0  0  0  0
   -2.6308    0.2152    0.7027 C   0  0  0  0  0  0  0  0  0  0  0  0
   -3.0850    1.4234    0.4714 N   0  0  0  0  0  0  0  0  0  0  0  0
   -4.4663    1.6672    0.3548 C   0  0  0  0  0  0  0  0  0  0  0  0
   -4.8893    2.9715    0.0909 C   0  0  0  0  0  0  0  0  0  0  0  0
   -6.2481    3.2672   -0.0472 C   0  0  0  0  0  0  0  0  0  0  0  0
   -7.2006    2.2554    0.0776 C   0  0  0  0  0  0  0  0  0  0  0  0
   -6.8004    0.9450    0.3417 C   0  0  0  0  0  0  0  0  0  0  0  0
   -5.4371    0.6648    0.4767 C   0  0  0  0  0  0  0  0  0  0  0  0
   -4.9479   -0.6210    0.7574 N   0  0  0  0  0  0  0  0  0  0  0  0
   -5.6402   -1.7915    0.9598 C   0  0  0  0  0  0  0  0  0  0  0  0
   -4.7345   -2.7766    1.2852 C   0  0  0  0  0  0  0  0  0  0  0  0
   -3.4496   -2.1863    1.2625 C   0  0  0  0  0  0  0  0  0  0  0  0
   -3.5963   -0.8602    0.8917 C   0  0  0  0  0  0  0  0  0  0  0  0
   -0.5948   -1.1427    0.1888 C   0  0  0  0  0  0  0  0  0  0  0  0
    0.6487   -0.7520   -0.6420 C   0  0  0  0  0  0  0  0  0  0  0  0
    7.9500   -0.4269   -0.2998 H   0  0  0  0  0  0  0  0  0  0  0  0
    7.5290   -2.6194    0.7388 H   0  0  0  0  0  0  0  0  0  0  0  0
    5.2615   -3.6193    0.6631 H   0  0  0  0  0  0  0  0  0  0  0  0
    3.4193   -2.4306   -0.4526 H   0  0  0  0  0  0  0  0  0  0  0  0
    3.8097    0.6316   -2.4998 H   0  0  0  0  0  0  0  0  0  0  0  0
    2.8520   -0.7871   -2.2613 H   0  0  0  0  0  0  0  0  0  0  0  0
    3.2286    1.3854   -0.1247 H   0  0  0  0  0  0  0  0  0  0  0  0
    1.9494    1.4750   -1.3285 H   0  0  0  0  0  0  0  0  0  0  0  0
    1.6813    1.6821    1.4125 H   0  0  0  0  0  0  0  0  0  0  0  0
    1.0972    0.1930    2.1127 H   0  0  0  0  0  0  0  0  0  0  0  0
   -0.4295    1.8476    0.0333 H   0  0  0  0  0  0  0  0  0  0  0  0
   -0.7308    1.8120    1.7813 H   0  0  0  0  0  0  0  0  0  0  0  0
   -4.1493    3.7611   -0.0088 H   0  0  0  0  0  0  0  0  0  0  0  0
   -6.5606    4.2879   -0.2524 H   0  0  0  0  0  0  0  0  0  0  0  0
   -8.2569    2.4900   -0.0298 H   0  0  0  0  0  0  0  0  0  0  0  0
   -7.5595    0.1762    0.4379 H   0  0  0  0  0  0  0  0  0  0  0  0
   -6.7165   -1.8384    0.8806 H   0  0  0  0  0  0  0  0  0  0  0  0
   -4.9758   -3.8041    1.5256 H   0  0  0  0  0  0  0  0  0  0  0  0
   -2.5187   -2.6829    1.4977 H   0  0  0  0  0  0  0  0  0  0  0  0
   -1.2767   -1.6851   -0.4758 H   0  0  0  0  0  0  0  0  0  0  0  0
   -0.3016   -1.8215    0.9981 H   0  0  0  0  0  0  0  0  0  0  0  0
    1.0810   -1.6664   -1.0626 H   0  0  0  0  0  0  0  0  0  0  0  0
    0.3055   -0.1369   -1.4851 H   0  0  0  0  0  0  0  0  0  0  0  0
  1  2  1  0
  2  3  1  0
  2  4  1  0
  2  5  1  0
  5  6  2  0
  6  7  1  0
  7  8  2  0
  8  9  1  0
  9 10  2  0
 10 11  1  0
 11 12  1  0
 12 13  1  0
 13 14  1  0
 14 15  1  0
 15 16  1  0
 16 17  1  0
 17 18  2  0
 18 19  1  0
 19 20  2  0
 20 21  1  0
 21 22  2  0
 22 23  1  0
 23 24  2  0
 24 25  1  0
 25 26  1  0
 26 27  2  0
 27 28  1  0
 28 29  2  0
 16 30  1  0
 30 31  1  0
 10  5  1  0
 31 13  1  0
 29 17  1  0
 24 19  1  0
 29 25  1  0
  6 32  1  0
  7 33  1  0
  8 34  1  0
  9 35  1  0
 11 36  1  0
 11 37  1  0
 12 38  1  0
 12 39  1  0
 14 40  1  0
 14 41  1  0
 15 42  1  0
 15 43  1  0
 20 44  1  0
 21 45  1  0
 22 46  1  0
 23 47  1  0
 26 48  1  0
 27 49  1  0
 28 50  1  0
 30 51  1  0
 30 52  1  0
 31 53  1  0
 31 54  1  0
M  END
$$$$
