
     RDKit          3D

 57 59  0  0  0  0  0  0  0  0999 V2000
   -8.5602   -1.5838   -2.5860 C   0  0  0  0  0  0  0  0  0  0  0  0
   -8.0381   -1.0302   -1.3867 O   0  0  0  0  0  0  0  0  0  0  0  0
   -6.6982   -1.1952   -1.1363 C   0  0  0  0  0  0  0  0  0  0  0  0
   -5.8015   -1.8155   -2.0160 C   0  0  0  0  0  0  0  0  0  0  0  0
   -4.4515   -1.9343   -1.6811 C   0  0  0  0  0  0  0  0  0  0  0  0
   -4.0011   -1.4249   -0.4641 C   0  0  0  0  0  0  0  0  0  0  0  0
   -2.2895   -1.5553   -0.0218 S   0  0  0  0  0  6  0  0  0  0  0  0
   -2.2242   -2.0396    1.3395 O   0  0  0  0  0  0  0  0  0  0  0  0
   -1.5851   -2.2280   -1.0917 O   0  0  0  0  0  0  0  0  0  0  0  0
   -1.7933    0.0403   -0.0210 N   0  0  0  0  0  0  0  0  0  0  0  0
   -1.8526    0.8201   -1.2679 C   0  0  0  0  0  0  0  0  0  0  0  0
   -0.5759    1.6372   -1.2580 C   0  0  0  0  0  0  0  0  0  0  0  0
   -0.1709    1.6646    0.1139 O   0  0  0  0  0  0  0  0  0  0  0  0
   -0.5273    0.3777    0.6520 C   0  0  0  0  0  0  0  0  0  0  0  0
    0.6295   -0.6395    0.4453 C   0  0  0  0  0  0  0  0  0  0  0  0
    1.8860   -0.1975    1.0272 N   0  0  0  0  0  0  0  0  0  0  0  0
    2.7940    0.5610    0.3241 C   0  0  0  0  0  0  0  0  0  0  0  0
    2.7535    0.8223   -0.8702 O   0  0  0  0  0  0  0  0  0  0  0  0
    3.9538    1.0962    1.1947 C   0  0  0  0  0  0  0  0  0  0  0  0
    3.9901    0.8406    2.3905 O   0  0  0  0  0  0  0  0  0  0  0  0
    4.8716    1.8359    0.4889 N   0  0  0  0  0  0  0  0  0  0  0  0
    6.1048    2.2958    1.0701 C   0  0  0  0  0  0  0  0  0  0  0  0
    7.2312    1.3420    0.7641 C   0  0  0  0  0  0  0  0  0  0  0  0
    7.4523    0.2233    1.5844 C   0  0  0  0  0  0  0  0  0  0  0  0
    8.4791   -0.6753    1.2922 C   0  0  0  0  0  0  0  0  0  0  0  0
    9.2801   -0.4606    0.1777 C   0  0  0  0  0  0  0  0  0  0  0  0
   10.2654   -1.3234   -0.1034 F   0  0  0  0  0  0  0  0  0  0  0  0
    9.0723    0.6343   -0.6529 C   0  0  0  0  0  0  0  0  0  0  0  0
    8.0455    1.5346   -0.3633 C   0  0  0  0  0  0  0  0  0  0  0  0
   -4.8823   -0.8108    0.4316 C   0  0  0  0  0  0  0  0  0  0  0  0
   -6.2342   -0.6916    0.0992 C   0  0  0  0  0  0  0  0  0  0  0  0
   -7.1776   -0.0976    0.9005 O   0  0  0  0  0  0  0  0  0  0  0  0
   -6.7754    0.3170    2.1987 C   0  0  0  0  0  0  0  0  0  0  0  0
   -9.6364   -1.3870   -2.6044 H   0  0  0  0  0  0  0  0  0  0  0  0
   -8.4204   -2.6694   -2.6149 H   0  0  0  0  0  0  0  0  0  0  0  0
   -8.1198   -1.1035   -3.4658 H   0  0  0  0  0  0  0  0  0  0  0  0
   -6.1244   -2.2176   -2.9709 H   0  0  0  0  0  0  0  0  0  0  0  0
   -3.7674   -2.4229   -2.3716 H   0  0  0  0  0  0  0  0  0  0  0  0
   -2.7287    1.4755   -1.2222 H   0  0  0  0  0  0  0  0  0  0  0  0
   -1.9224    0.2113   -2.1730 H   0  0  0  0  0  0  0  0  0  0  0  0
    0.2090    1.1630   -1.8561 H   0  0  0  0  0  0  0  0  0  0  0  0
   -0.7244    2.6563   -1.6254 H   0  0  0  0  0  0  0  0  0  0  0  0
   -0.7062    0.5195    1.7232 H   0  0  0  0  0  0  0  0  0  0  0  0
    0.7956   -0.8206   -0.6223 H   0  0  0  0  0  0  0  0  0  0  0  0
    0.3963   -1.5969    0.9197 H   0  0  0  0  0  0  0  0  0  0  0  0
    2.0349   -0.2581    2.0317 H   0  0  0  0  0  0  0  0  0  0  0  0
    4.7459    1.8637   -0.5188 H   0  0  0  0  0  0  0  0  0  0  0  0
    5.9943    2.4176    2.1538 H   0  0  0  0  0  0  0  0  0  0  0  0
    6.3182    3.2855    0.6517 H   0  0  0  0  0  0  0  0  0  0  0  0
    6.8189    0.0476    2.4529 H   0  0  0  0  0  0  0  0  0  0  0  0
    8.6551   -1.5404    1.9234 H   0  0  0  0  0  0  0  0  0  0  0  0
    9.7083    0.7772   -1.5205 H   0  0  0  0  0  0  0  0  0  0  0  0
    7.8846    2.3856   -1.0215 H   0  0  0  0  0  0  0  0  0  0  0  0
   -4.4896   -0.4334    1.3706 H   0  0  0  0  0  0  0  0  0  0  0  0
   -6.3985   -0.5269    2.7860 H   0  0  0  0  0  0  0  0  0  0  0  0
   -7.6576    0.7115    2.7120 H   0  0  0  0  0  0  0  0  0  0  0  0
   -6.0360    1.1226    2.1423 H   0  0  0  0  0  0  0  0  0  0  0  0
  1  2  1  0
  2  3  1  0
  3  4  2  0
  4  5  1  0
  5  6  2  0
  6  7  1  0
  7  8  2  0
  7  9  2  0
  7 10  1  0
 10 11  1  0
 11 12  1  0
 12 13  1  0
 13 14  1  0
 14 15  1  0
 15 16  1  0
 16 17  1  0
 17 18  2  0
 17 19  1  0
 19 20  2  0
 19 21  1  0
 21 22  1  0
 22 23  1  0
 23 24  2  0
 24 25  1  0
 25 26  2  0
 26 27  1  0
 26 28  1  0
 28 29  2  0
  6 30  1  0
 30 31  2  0
 31 32  1  0
 32 33  1  0
 31  3  1  0
 14 10  1  0
 29 23  1  0
  1 34  1  0
  1 35  1  0
  1 36  1  0
  4 37  1  0
  5 38  1  0
 11 39  1  0
 11 40  1  0
 12 41  1  0
 12 42  1  0
 14 43  1  0
 15 44  1  0
 15 45  1  0
 16 46  1  0
 21 47  1  0
 22 48  1  0
 22 49  1  0
 24 50  1  0
 25 51  1  0
 28 52  1  0
 29 53  1  0
 30 54  1  0
 33 55  1  0
 33 56  1  0
 33 57  1  0
M  END
$$$$
