
     RDKit          3D

 55 59  0  0  0  0  0  0  0  0999 V2000
    7.0906   -2.5955    0.5759 C   0  0  0  0  0  0  0  0  0  0  0  0
    5.7299   -2.2822    0.8451 O   0  0  0  0  0  0  0  0  0  0  0  0
    5.3272   -1.0010    0.5852 C   0  0  0  0  0  0  0  0  0  0  0  0
    6.0892   -0.0144   -0.0411 C   0  0  0  0  0  0  0  0  0  0  0  0
    5.5541    1.2600   -0.2466 C   0  0  0  0  0  0  0  0  0  0  0  0
    4.2524    1.5507    0.1642 C   0  0  0  0  0  0  0  0  0  0  0  0
    3.4708    0.5654    0.7776 C   0  0  0  0  0  0  0  0  0  0  0  0
    2.1047    0.8385    1.2109 C   0  0  0  0  0  0  0  0  0  0  0  0
    1.6276    0.6320    2.4257 N   0  0  0  0  0  0  0  0  0  0  0  0
    0.3060    1.0047    2.4464 N   0  0  0  0  0  0  0  0  0  0  0  0
   -0.0073    1.4050    1.2398 C   0  0  0  0  0  0  0  0  0  0  0  0
   -1.5715    1.9146    0.7225 S   0  0  0  0  0  0  0  0  0  0  0  0
   -2.6495    0.8290    1.7427 C   0  0  0  0  0  0  0  0  0  0  0  0
   -2.3217   -0.6717    1.6666 C   0  0  0  0  0  0  0  0  0  0  0  0
   -2.6625   -1.4002    2.6074 O   0  0  0  0  0  0  0  0  0  0  0  0
   -1.6408   -1.2924    0.5183 C   0  0  0  0  0  0  0  0  0  0  0  0
   -0.6851   -2.2816    0.6898 C   0  0  0  0  0  0  0  0  0  0  0  0
   -0.1945   -2.6402   -0.5303 N   0  0  0  0  0  0  0  0  0  0  0  0
   -0.8308   -1.9299   -1.5195 C   0  0  0  0  0  0  0  0  0  0  0  0
   -0.6520   -1.9828   -2.9074 C   0  0  0  0  0  0  0  0  0  0  0  0
   -1.4585   -1.1651   -3.7004 C   0  0  0  0  0  0  0  0  0  0  0  0
   -2.4131   -0.3348   -3.1248 C   0  0  0  0  0  0  0  0  0  0  0  0
   -2.5796   -0.2944   -1.7349 C   0  0  0  0  0  0  0  0  0  0  0  0
   -1.7663   -1.0934   -0.8998 C   0  0  0  0  0  0  0  0  0  0  0  0
   -4.1267    1.1656    1.5269 C   0  0  0  0  0  0  0  0  0  0  0  0
   -5.0415    0.2654    0.9559 C   0  0  0  0  0  0  0  0  0  0  0  0
   -6.3815    0.6209    0.7772 C   0  0  0  0  0  0  0  0  0  0  0  0
   -6.8333    1.8776    1.1702 C   0  0  0  0  0  0  0  0  0  0  0  0
   -5.9474    2.7805    1.7493 C   0  0  0  0  0  0  0  0  0  0  0  0
   -4.6086    2.4270    1.9297 C   0  0  0  0  0  0  0  0  0  0  0  0
    1.0791    1.3089    0.4168 N   0  0  0  0  0  0  0  0  0  0  0  0
    1.1400    1.5486   -1.0029 C   0  0  0  0  0  0  0  0  0  0  0  0
    4.0236   -0.7036    0.9939 C   0  0  0  0  0  0  0  0  0  0  0  0
    7.3043   -2.5301   -0.4960 H   0  0  0  0  0  0  0  0  0  0  0  0
    7.7668   -1.9575    1.1548 H   0  0  0  0  0  0  0  0  0  0  0  0
    7.2629   -3.6307    0.8858 H   0  0  0  0  0  0  0  0  0  0  0  0
    7.1041   -0.2022   -0.3759 H   0  0  0  0  0  0  0  0  0  0  0  0
    6.1578    2.0299   -0.7211 H   0  0  0  0  0  0  0  0  0  0  0  0
    3.8643    2.5562    0.0193 H   0  0  0  0  0  0  0  0  0  0  0  0
   -2.4292    1.1012    2.7851 H   0  0  0  0  0  0  0  0  0  0  0  0
   -0.3058   -2.7363    1.5972 H   0  0  0  0  0  0  0  0  0  0  0  0
    0.5200   -3.3381   -0.6886 H   0  0  0  0  0  0  0  0  0  0  0  0
    0.0798   -2.6456   -3.3598 H   0  0  0  0  0  0  0  0  0  0  0  0
   -1.3476   -1.1893   -4.7821 H   0  0  0  0  0  0  0  0  0  0  0  0
   -3.0426    0.2870   -3.7572 H   0  0  0  0  0  0  0  0  0  0  0  0
   -3.3395    0.3621   -1.3223 H   0  0  0  0  0  0  0  0  0  0  0  0
   -4.7391   -0.7337    0.6483 H   0  0  0  0  0  0  0  0  0  0  0  0
   -7.0754   -0.0908    0.3370 H   0  0  0  0  0  0  0  0  0  0  0  0
   -7.8768    2.1488    1.0330 H   0  0  0  0  0  0  0  0  0  0  0  0
   -6.2975    3.7595    2.0660 H   0  0  0  0  0  0  0  0  0  0  0  0
   -3.9373    3.1489    2.3933 H   0  0  0  0  0  0  0  0  0  0  0  0
    0.1557    1.4280   -1.4569 H   0  0  0  0  0  0  0  0  0  0  0  0
    1.5015    2.5677   -1.1627 H   0  0  0  0  0  0  0  0  0  0  0  0
    1.8161    0.8260   -1.4667 H   0  0  0  0  0  0  0  0  0  0  0  0
    3.4344   -1.4719    1.4920 H   0  0  0  0  0  0  0  0  0  0  0  0
  1  2  1  0
  2  3  1  0
  3  4  2  0
  4  5  1  0
  5  6  2  0
  6  7  1  0
  7  8  1  0
  8  9  2  0
  9 10  1  0
 10 11  2  0
 11 12  1  0
 12 13  1  0
 13 14  1  0
 14 15  2  0
 14 16  1  0
 16 17  2  0
 17 18  1  0
 18 19  1  0
 19 20  2  0
 20 21  1  0
 21 22  2  0
 22 23  1  0
 23 24  2  0
 13 25  1  0
 25 26  2  0
 26 27  1  0
 27 28  2  0
 28 29  1  0
 29 30  2  0
 11 31  1  0
 31 32  1  0
  7 33  2  0
 33  3  1  0
 31  8  1  0
 24 16  1  0
 30 25  1  0
 24 19  1  0
  1 34  1  0
  1 35  1  0
  1 36  1  0
  4 37  1  0
  5 38  1  0
  6 39  1  0
 13 40  1  0
 17 41  1  0
 18 42  1  0
 20 43  1  0
 21 44  1  0
 22 45  1  0
 23 46  1  0
 26 47  1  0
 27 48  1  0
 28 49  1  0
 29 50  1  0
 30 51  1  0
 32 52  1  0
 32 53  1  0
 32 54  1  0
 33 55  1  0
M  END
$$$$
