
     RDKit          3D

 60 65  0  0  0  0  0  0  0  0999 V2000
   -2.6121   -3.7995    3.5486 O   0  0  0  0  0  0  0  0  0  0  0  0
   -2.6687   -2.7204    2.9690 C   0  0  0  0  0  0  0  0  0  0  0  0
   -1.5763   -2.1942    2.2889 N   0  0  0  0  0  0  0  0  0  0  0  0
   -1.5883   -0.9820    1.6008 C   0  0  0  0  0  0  0  0  0  0  0  0
   -0.2648   -0.6109    0.9447 C   0  0  0  0  0  0  0  0  0  0  0  0
    0.7624   -0.2265    2.0184 C   0  0  0  0  0  0  0  0  0  0  0  0
    2.0907    0.1902    1.3921 C   0  0  0  0  0  0  0  0  0  0  0  0
    1.8573    1.2933    0.4350 N   0  0  0  0  0  0  0  0  0  0  0  0
    3.2146    2.2348    0.0071 S   0  0  0  0  0  6  0  0  0  0  0  0
    2.7711    3.2955   -0.8718 O   0  0  0  0  0  0  0  0  0  0  0  0
    3.9614    2.5261    1.2122 O   0  0  0  0  0  0  0  0  0  0  0  0
    4.1924    1.1103   -0.9675 C   0  0  0  0  0  0  0  0  0  0  0  0
    4.0413    1.0876   -2.3587 C   0  0  0  0  0  0  0  0  0  0  0  0
    4.8279    0.2239   -3.1222 C   0  0  0  0  0  0  0  0  0  0  0  0
    5.7668   -0.5957   -2.4969 C   0  0  0  0  0  0  0  0  0  0  0  0
    5.9080   -0.5725   -1.1041 C   0  0  0  0  0  0  0  0  0  0  0  0
    5.1395    0.2982   -0.3366 C   0  0  0  0  0  0  0  0  0  0  0  0
    6.7904   -1.3727   -0.4253 O   0  0  0  0  0  0  0  0  0  0  0  0
    7.2947   -2.4263   -1.2548 C   0  0  0  0  0  0  0  0  0  0  0  0
    7.6749   -1.8986   -2.6280 C   0  0  0  0  0  0  0  0  0  0  0  0
    6.5185   -1.4017   -3.3123 O   0  0  0  0  0  0  0  0  0  0  0  0
    0.9310    0.9281   -0.6621 C   0  0  0  0  0  0  0  0  0  0  0  0
   -0.4165    0.5316   -0.0682 C   0  0  0  0  0  0  0  0  0  0  0  0
   -2.6277   -0.1990    1.5308 N   0  0  0  0  0  0  0  0  0  0  0  0
   -3.7074   -0.6885    2.1854 C   0  0  0  0  0  0  0  0  0  0  0  0
   -3.8177   -1.8607    2.8924 C   0  0  0  0  0  0  0  0  0  0  0  0
   -5.0660   -1.9886    3.4178 N   0  0  0  0  0  0  0  0  0  0  0  0
   -5.7601   -0.9089    3.0560 N   0  0  0  0  0  0  0  0  0  0  0  0
   -4.9481   -0.1311    2.2950 N   0  0  0  0  0  0  0  0  0  0  0  0
   -5.4158    1.1306    1.7580 C   0  0  0  0  0  0  0  0  0  0  0  0
   -6.0275    0.9559    0.3945 C   0  0  0  0  0  0  0  0  0  0  0  0
   -7.3120    0.4119    0.2423 C   0  0  0  0  0  0  0  0  0  0  0  0
   -7.8639    0.2454   -1.0302 C   0  0  0  0  0  0  0  0  0  0  0  0
   -7.1405    0.6182   -2.1631 C   0  0  0  0  0  0  0  0  0  0  0  0
   -5.8627    1.1556   -2.0236 C   0  0  0  0  0  0  0  0  0  0  0  0
   -5.3176    1.3175   -0.7532 C   0  0  0  0  0  0  0  0  0  0  0  0
   -4.0879    1.8389   -0.6435 F   0  0  0  0  0  0  0  0  0  0  0  0
   -0.7509   -2.7738    2.3117 H   0  0  0  0  0  0  0  0  0  0  0  0
    0.0984   -1.5032    0.4167 H   0  0  0  0  0  0  0  0  0  0  0  0
    0.3676    0.5984    2.6263 H   0  0  0  0  0  0  0  0  0  0  0  0
    0.9347   -1.0635    2.7050 H   0  0  0  0  0  0  0  0  0  0  0  0
    2.7630    0.5088    2.1946 H   0  0  0  0  0  0  0  0  0  0  0  0
    2.5469   -0.6638    0.8797 H   0  0  0  0  0  0  0  0  0  0  0  0
    3.3275    1.7432   -2.8526 H   0  0  0  0  0  0  0  0  0  0  0  0
    4.7255    0.2038   -4.2042 H   0  0  0  0  0  0  0  0  0  0  0  0
    5.2792    0.3349    0.7406 H   0  0  0  0  0  0  0  0  0  0  0  0
    8.1716   -2.8500   -0.7558 H   0  0  0  0  0  0  0  0  0  0  0  0
    6.5292   -3.2086   -1.3241 H   0  0  0  0  0  0  0  0  0  0  0  0
    8.4144   -1.0914   -2.5588 H   0  0  0  0  0  0  0  0  0  0  0  0
    8.1016   -2.7011   -3.2378 H   0  0  0  0  0  0  0  0  0  0  0  0
    0.7745    1.7766   -1.3356 H   0  0  0  0  0  0  0  0  0  0  0  0
    1.3458    0.0978   -1.2447 H   0  0  0  0  0  0  0  0  0  0  0  0
   -1.0993    0.2327   -0.8726 H   0  0  0  0  0  0  0  0  0  0  0  0
   -0.8642    1.4094    0.4166 H   0  0  0  0  0  0  0  0  0  0  0  0
   -6.1515    1.5462    2.4579 H   0  0  0  0  0  0  0  0  0  0  0  0
   -4.5691    1.8259    1.7394 H   0  0  0  0  0  0  0  0  0  0  0  0
   -7.8875    0.1057    1.1151 H   0  0  0  0  0  0  0  0  0  0  0  0
   -8.8592   -0.1803   -1.1367 H   0  0  0  0  0  0  0  0  0  0  0  0
   -7.5719    0.4869   -3.1521 H   0  0  0  0  0  0  0  0  0  0  0  0
   -5.2872    1.4494   -2.8957 H   0  0  0  0  0  0  0  0  0  0  0  0
  1  2  2  0
  2  3  1  0
  3  4  1  0
  4  5  1  0
  5  6  1  0
  6  7  1  0
  7  8  1  0
  8  9  1  0
  9 10  2  0
  9 11  2  0
  9 12  1  0
 12 13  2  0
 13 14  1  0
 14 15  2  0
 15 16  1  0
 16 17  2  0
 16 18  1  0
 18 19  1  0
 19 20  1  0
 20 21  1  0
  8 22  1  0
 22 23  1  0
  4 24  2  0
 24 25  1  0
 25 26  2  0
 26 27  1  0
 27 28  2  0
 28 29  1  0
 29 30  1  0
 30 31  1  0
 31 32  2  0
 32 33  1  0
 33 34  2  0
 34 35  1  0
 35 36  2  0
 36 37  1  0
 26  2  1  0
 36 31  1  0
 23  5  1  0
 29 25  1  0
 17 12  1  0
 21 15  1  0
  3 38  1  0
  5 39  1  0
  6 40  1  0
  6 41  1  0
  7 42  1  0
  7 43  1  0
 13 44  1  0
 14 45  1  0
 17 46  1  0
 19 47  1  0
 19 48  1  0
 20 49  1  0
 20 50  1  0
 22 51  1  0
 22 52  1  0
 23 53  1  0
 23 54  1  0
 30 55  1  0
 30 56  1  0
 32 57  1  0
 33 58  1  0
 34 59  1  0
 35 60  1  0
M  END
$$$$
