
     RDKit          3D

 59 62  0  0  0  0  0  0  0  0999 V2000
   -8.6816    0.6462   -2.3441 C   0  0  0  0  0  0  0  0  0  0  0  0
   -7.6325    0.4274   -1.2939 C   0  0  0  0  0  0  0  0  0  0  0  0
   -7.1182   -0.8557   -1.0642 C   0  0  0  0  0  0  0  0  0  0  0  0
   -6.1186   -1.0561   -0.1106 C   0  0  0  0  0  0  0  0  0  0  0  0
   -5.6092    0.0328    0.6020 C   0  0  0  0  0  0  0  0  0  0  0  0
   -4.5528   -0.2103    1.6117 C   0  0  0  0  0  0  0  0  0  0  0  0
   -4.7478   -1.0875    2.4500 O   0  0  0  0  0  0  0  0  0  0  0  0
   -3.3896    0.5515    1.5703 N   0  0  0  0  0  0  0  0  0  0  0  0
   -2.4025    0.3551    2.6371 C   0  0  0  0  0  0  0  0  0  0  0  0
   -1.3750    1.4941    2.6978 C   0  0  0  0  0  0  0  0  0  0  0  0
   -0.6586    1.6620    1.4152 N   0  0  0  0  0  0  0  0  0  0  0  0
    0.6904    1.2985    1.3222 C   0  0  0  0  0  0  0  0  0  0  0  0
    1.5008    1.9116    0.3545 C   0  0  0  0  0  0  0  0  0  0  0  0
    2.8561    1.5858    0.2065 C   0  0  0  0  0  0  0  0  0  0  0  0
    3.4409    0.6268    1.0266 C   0  0  0  0  0  0  0  0  0  0  0  0
    4.7923    0.2396    0.9516 N   0  0  0  0  0  0  0  0  0  0  0  0
    5.7531    0.6677    0.0503 C   0  0  0  0  0  0  0  0  0  0  0  0
    5.5923    1.4931   -0.8457 O   0  0  0  0  0  0  0  0  0  0  0  0
    7.1321    0.0742    0.3106 C   0  0  0  0  0  0  0  0  0  0  0  0
    7.0706   -1.7329    0.5740 S   0  0  0  0  0  0  0  0  0  0  0  0
    6.6310   -2.2531   -1.0745 C   0  0  0  0  0  0  0  0  0  0  0  0
    5.3379   -2.7192   -1.3355 C   0  0  0  0  0  0  0  0  0  0  0  0
    4.9859   -3.1339   -2.6240 C   0  0  0  0  0  0  0  0  0  0  0  0
    5.9301   -3.0895   -3.6486 C   0  0  0  0  0  0  0  0  0  0  0  0
    5.4981   -3.6029   -5.2337 Cl  0  0  0  0  0  0  0  0  0  0  0  0
    7.2242   -2.6370   -3.3955 C   0  0  0  0  0  0  0  0  0  0  0  0
    7.5752   -2.2211   -2.1072 C   0  0  0  0  0  0  0  0  0  0  0  0
    2.6483    0.0034    1.9940 C   0  0  0  0  0  0  0  0  0  0  0  0
    1.2933    0.3358    2.1381 C   0  0  0  0  0  0  0  0  0  0  0  0
   -1.4313    1.3049    0.1980 C   0  0  0  0  0  0  0  0  0  0  0  0
   -2.9528    1.3751    0.4303 C   0  0  0  0  0  0  0  0  0  0  0  0
   -6.1261    1.3146    0.3919 C   0  0  0  0  0  0  0  0  0  0  0  0
   -7.1248    1.5113   -0.5644 C   0  0  0  0  0  0  0  0  0  0  0  0
   -9.3048   -0.2466   -2.4662 H   0  0  0  0  0  0  0  0  0  0  0  0
   -8.2081    0.8804   -3.3030 H   0  0  0  0  0  0  0  0  0  0  0  0
   -9.3454    1.4717   -2.0644 H   0  0  0  0  0  0  0  0  0  0  0  0
   -7.4985   -1.7097   -1.6214 H   0  0  0  0  0  0  0  0  0  0  0  0
   -5.7371   -2.0575    0.0760 H   0  0  0  0  0  0  0  0  0  0  0  0
   -1.9030   -0.6023    2.4438 H   0  0  0  0  0  0  0  0  0  0  0  0
   -2.9266    0.2697    3.5961 H   0  0  0  0  0  0  0  0  0  0  0  0
   -0.6976    1.3609    3.5484 H   0  0  0  0  0  0  0  0  0  0  0  0
   -1.9073    2.4341    2.8936 H   0  0  0  0  0  0  0  0  0  0  0  0
    1.0839    2.6838   -0.2881 H   0  0  0  0  0  0  0  0  0  0  0  0
    3.4212    2.1116   -0.5561 H   0  0  0  0  0  0  0  0  0  0  0  0
    5.0892   -0.4859    1.5957 H   0  0  0  0  0  0  0  0  0  0  0  0
    7.5420    0.5468    1.2087 H   0  0  0  0  0  0  0  0  0  0  0  0
    7.7952    0.3073   -0.5282 H   0  0  0  0  0  0  0  0  0  0  0  0
    4.5910   -2.7591   -0.5453 H   0  0  0  0  0  0  0  0  0  0  0  0
    3.9767   -3.4876   -2.8196 H   0  0  0  0  0  0  0  0  0  0  0  0
    7.9628   -2.6063   -4.1930 H   0  0  0  0  0  0  0  0  0  0  0  0
    8.5908   -1.8773   -1.9205 H   0  0  0  0  0  0  0  0  0  0  0  0
    3.0645   -0.7556    2.6514 H   0  0  0  0  0  0  0  0  0  0  0  0
    0.7201   -0.2001    2.8884 H   0  0  0  0  0  0  0  0  0  0  0  0
   -1.1793    0.2818   -0.1144 H   0  0  0  0  0  0  0  0  0  0  0  0
   -1.1730    1.9837   -0.6229 H   0  0  0  0  0  0  0  0  0  0  0  0
   -3.2436    2.4079    0.6565 H   0  0  0  0  0  0  0  0  0  0  0  0
   -3.4674    1.0651   -0.4840 H   0  0  0  0  0  0  0  0  0  0  0  0
   -5.7639    2.1576    0.9735 H   0  0  0  0  0  0  0  0  0  0  0  0
   -7.5127    2.5138   -0.7306 H   0  0  0  0  0  0  0  0  0  0  0  0
  1  2  1  0
  2  3  2  0
  3  4  1  0
  4  5  2  0
  5  6  1  0
  6  7  2  0
  6  8  1  0
  8  9  1  0
  9 10  1  0
 10 11  1  0
 11 12  1  0
 12 13  2  0
 13 14  1  0
 14 15  2  0
 15 16  1  0
 16 17  1  0
 17 18  2  0
 17 19  1  0
 19 20  1  0
 20 21  1  0
 21 22  2  0
 22 23  1  0
 23 24  2  0
 24 25  1  0
 24 26  1  0
 26 27  2  0
 15 28  1  0
 28 29  2  0
 11 30  1  0
 30 31  1  0
  5 32  1  0
 32 33  2  0
 33  2  1  0
 31  8  1  0
 29 12  1  0
 27 21  1  0
  1 34  1  0
  1 35  1  0
  1 36  1  0
  3 37  1  0
  4 38  1  0
  9 39  1  0
  9 40  1  0
 10 41  1  0
 10 42  1  0
 13 43  1  0
 14 44  1  0
 16 45  1  0
 19 46  1  0
 19 47  1  0
 22 48  1  0
 23 49  1  0
 26 50  1  0
 27 51  1  0
 28 52  1  0
 29 53  1  0
 30 54  1  0
 30 55  1  0
 31 56  1  0
 31 57  1  0
 32 58  1  0
 33 59  1  0
M  END
$$$$
