
     RDKit          3D

 36 37  0  0  0  0  0  0  0  0999 V2000
    0.3271   -1.1766   -0.5613 O   0  0  0  0  0  0  0  0  0  0  0  0
   -0.1905   -0.1326   -0.1714 C   0  0  0  0  0  0  0  0  0  0  0  0
    0.5775    1.1861   -0.0393 C   0  0  0  0  0  0  0  0  0  0  0  0
    1.9908    1.0005    0.0176 O   0  0  0  0  0  0  0  0  0  0  0  0
    2.4319    0.5108    1.2022 C   0  0  0  0  0  0  0  0  0  0  0  0
    1.7495    0.3314    2.1989 O   0  0  0  0  0  0  0  0  0  0  0  0
    3.8927    0.2364    1.1465 C   0  0  0  0  0  0  0  0  0  0  0  0
    4.5335   -0.1739    2.3253 C   0  0  0  0  0  0  0  0  0  0  0  0
    5.9034   -0.4440    2.3278 C   0  0  0  0  0  0  0  0  0  0  0  0
    6.6396   -0.3069    1.1516 C   0  0  0  0  0  0  0  0  0  0  0  0
    6.0032    0.0972   -0.0217 C   0  0  0  0  0  0  0  0  0  0  0  0
    6.9180    0.2629   -1.4705 Cl  0  0  0  0  0  0  0  0  0  0  0  0
    4.6355    0.3688   -0.0338 C   0  0  0  0  0  0  0  0  0  0  0  0
   -1.5245   -0.0370    0.1597 N   0  0  0  0  0  0  0  0  0  0  0  0
   -2.3927   -1.2015    0.1391 C   0  0  0  0  0  0  0  0  0  0  0  0
   -3.8449   -0.8708    0.4991 C   0  0  0  0  0  0  0  0  0  0  0  0
   -4.4697    0.0276   -0.4592 N   0  0  0  0  0  0  0  0  0  0  0  0
   -5.2270   -0.3984   -1.5218 C   0  0  0  0  0  0  0  0  0  0  0  0
   -5.4582   -1.7317   -1.6754 O   0  0  0  0  0  0  0  0  0  0  0  0
   -5.6625    0.5818   -2.3220 C   0  0  0  0  0  0  0  0  0  0  0  0
   -5.1135    2.1364   -1.7701 S   0  0  0  0  0  0  0  0  0  0  0  0
   -4.2380    1.3929   -0.4211 C   0  0  0  0  0  0  0  0  0  0  0  0
   -3.5342    2.0112    0.3636 O   0  0  0  0  0  0  0  0  0  0  0  0
    0.3627    1.7804   -0.9340 H   0  0  0  0  0  0  0  0  0  0  0  0
    0.2270    1.7585    0.8278 H   0  0  0  0  0  0  0  0  0  0  0  0
    3.9646   -0.2863    3.2472 H   0  0  0  0  0  0  0  0  0  0  0  0
    6.3935   -0.7623    3.2448 H   0  0  0  0  0  0  0  0  0  0  0  0
    7.7059   -0.5184    1.1547 H   0  0  0  0  0  0  0  0  0  0  0  0
    4.1587    0.6749   -0.9610 H   0  0  0  0  0  0  0  0  0  0  0  0
   -1.8754    0.8276    0.5704 H   0  0  0  0  0  0  0  0  0  0  0  0
   -1.9889   -1.9244    0.8568 H   0  0  0  0  0  0  0  0  0  0  0  0
   -2.3311   -1.6518   -0.8583 H   0  0  0  0  0  0  0  0  0  0  0  0
   -4.4335   -1.7908    0.5839 H   0  0  0  0  0  0  0  0  0  0  0  0
   -3.8698   -0.3812    1.4808 H   0  0  0  0  0  0  0  0  0  0  0  0
   -5.9930   -1.8606   -2.4775 H   0  0  0  0  0  0  0  0  0  0  0  0
   -6.2679    0.4636   -3.2086 H   0  0  0  0  0  0  0  0  0  0  0  0
  1  2  2  0
  2  3  1  0
  3  4  1  0
  4  5  1  0
  5  6  2  0
  5  7  1  0
  7  8  2  0
  8  9  1  0
  9 10  2  0
 10 11  1  0
 11 12  1  0
 11 13  2  0
  2 14  1  0
 14 15  1  0
 15 16  1  0
 16 17  1  0
 17 18  1  0
 18 19  1  0
 18 20  2  0
 20 21  1  0
 21 22  1  0
 22 23  2  0
 13  7  1  0
 22 17  1  0
  3 24  1  0
  3 25  1  0
  8 26  1  0
  9 27  1  0
 10 28  1  0
 13 29  1  0
 14 30  1  0
 15 31  1  0
 15 32  1  0
 16 33  1  0
 16 34  1  0
 19 35  1  0
 20 36  1  0
M  END
$$$$
