
     RDKit          3D

 52 54  0  0  0  0  0  0  0  0999 V2000
   -3.9613   -3.0131   -0.4670 C   0  0  0  0  0  0  0  0  0  0  0  0
   -4.0946   -1.8259    0.3654 N   0  0  0  0  0  0  0  0  0  0  0  0
   -5.3803   -1.1291    0.3192 C   0  0  0  0  0  0  0  0  0  0  0  0
   -5.6505   -0.4994   -1.0282 C   0  0  0  0  0  0  0  0  0  0  0  0
   -4.8824    0.5875   -1.4715 C   0  0  0  0  0  0  0  0  0  0  0  0
   -5.1230    1.1639   -2.7193 C   0  0  0  0  0  0  0  0  0  0  0  0
   -6.1346    0.6629   -3.5361 C   0  0  0  0  0  0  0  0  0  0  0  0
   -6.9063   -0.4152   -3.1065 C   0  0  0  0  0  0  0  0  0  0  0  0
   -6.6662   -0.9949   -1.8591 C   0  0  0  0  0  0  0  0  0  0  0  0
   -3.0174   -1.1787    0.9642 C   0  0  0  0  0  0  0  0  0  0  0  0
   -3.1490   -0.1309    1.6030 O   0  0  0  0  0  0  0  0  0  0  0  0
   -1.6343   -1.8305    0.8190 C   0  0  0  0  0  0  0  0  0  0  0  0
   -0.5887   -0.9965    1.3252 O   0  0  0  0  0  0  0  0  0  0  0  0
   -0.2887    0.0671    0.5210 C   0  0  0  0  0  0  0  0  0  0  0  0
   -0.7653    0.2530   -0.5928 O   0  0  0  0  0  0  0  0  0  0  0  0
    0.6731    1.0223    1.1975 C   0  0  0  0  0  0  0  0  0  0  0  0
    1.4687    0.3723    2.2507 N   0  0  0  0  0  0  0  0  0  0  0  0
    2.7331    1.2297    2.9260 S   0  0  0  0  0  6  0  0  0  0  0  0
    2.4122    2.6370    2.8520 O   0  0  0  0  0  0  0  0  0  0  0  0
    3.0436    0.5798    4.1794 O   0  0  0  0  0  0  0  0  0  0  0  0
    4.0533    0.8773    1.7964 C   0  0  0  0  0  0  0  0  0  0  0  0
    4.6826   -0.3670    1.8501 C   0  0  0  0  0  0  0  0  0  0  0  0
    5.7275   -0.6458    0.9684 C   0  0  0  0  0  0  0  0  0  0  0  0
    6.1543    0.3142    0.0352 C   0  0  0  0  0  0  0  0  0  0  0  0
    7.2033    0.0459   -0.8582 C   0  0  0  0  0  0  0  0  0  0  0  0
    7.6209    1.0091   -1.7781 C   0  0  0  0  0  0  0  0  0  0  0  0
    6.9969    2.2525   -1.8162 C   0  0  0  0  0  0  0  0  0  0  0  0
    5.9526    2.5368   -0.9349 C   0  0  0  0  0  0  0  0  0  0  0  0
    5.5188    1.5791   -0.0047 C   0  0  0  0  0  0  0  0  0  0  0  0
    4.4697    1.8526    0.8859 C   0  0  0  0  0  0  0  0  0  0  0  0
   -4.8926   -3.5864   -0.4419 H   0  0  0  0  0  0  0  0  0  0  0  0
   -3.1556   -3.6571   -0.1079 H   0  0  0  0  0  0  0  0  0  0  0  0
   -3.7404   -2.7050   -1.4930 H   0  0  0  0  0  0  0  0  0  0  0  0
   -5.4358   -0.3508    1.0891 H   0  0  0  0  0  0  0  0  0  0  0  0
   -6.1595   -1.8594    0.5695 H   0  0  0  0  0  0  0  0  0  0  0  0
   -4.0882    0.9899   -0.8439 H   0  0  0  0  0  0  0  0  0  0  0  0
   -4.5190    2.0044   -3.0515 H   0  0  0  0  0  0  0  0  0  0  0  0
   -6.3216    1.1142   -4.5068 H   0  0  0  0  0  0  0  0  0  0  0  0
   -7.6968   -0.8036   -3.7434 H   0  0  0  0  0  0  0  0  0  0  0  0
   -7.2787   -1.8351   -1.5407 H   0  0  0  0  0  0  0  0  0  0  0  0
   -1.4303   -2.0980   -0.2234 H   0  0  0  0  0  0  0  0  0  0  0  0
   -1.6281   -2.7460    1.4193 H   0  0  0  0  0  0  0  0  0  0  0  0
    1.3393    1.4206    0.4262 H   0  0  0  0  0  0  0  0  0  0  0  0
    0.0745    1.8272    1.6350 H   0  0  0  0  0  0  0  0  0  0  0  0
    0.9601   -0.2078    2.9198 H   0  0  0  0  0  0  0  0  0  0  0  0
    4.3678   -1.1175    2.5718 H   0  0  0  0  0  0  0  0  0  0  0  0
    6.2118   -1.6190    1.0164 H   0  0  0  0  0  0  0  0  0  0  0  0
    7.7063   -0.9185   -0.8436 H   0  0  0  0  0  0  0  0  0  0  0  0
    8.4352    0.7881   -2.4635 H   0  0  0  0  0  0  0  0  0  0  0  0
    7.3233    3.0035   -2.5311 H   0  0  0  0  0  0  0  0  0  0  0  0
    5.4800    3.5158   -0.9802 H   0  0  0  0  0  0  0  0  0  0  0  0
    3.9804    2.8246    0.8687 H   0  0  0  0  0  0  0  0  0  0  0  0
  1  2  1  0
  2  3  1  0
  3  4  1  0
  4  5  2  0
  5  6  1  0
  6  7  2  0
  7  8  1  0
  8  9  2  0
  2 10  1  0
 10 11  2  0
 10 12  1  0
 12 13  1  0
 13 14  1  0
 14 15  2  0
 14 16  1  0
 16 17  1  0
 17 18  1  0
 18 19  2  0
 18 20  2  0
 18 21  1  0
 21 22  2  0
 22 23  1  0
 23 24  2  0
 24 25  1  0
 25 26  2  0
 26 27  1  0
 27 28  2  0
 28 29  1  0
 29 30  2  0
  9  4  1  0
 30 21  1  0
 29 24  1  0
  1 31  1  0
  1 32  1  0
  1 33  1  0
  3 34  1  0
  3 35  1  0
  5 36  1  0
  6 37  1  0
  7 38  1  0
  8 39  1  0
  9 40  1  0
 12 41  1  0
 12 42  1  0
 16 43  1  0
 16 44  1  0
 17 45  1  0
 22 46  1  0
 23 47  1  0
 25 48  1  0
 26 49  1  0
 27 50  1  0
 28 51  1  0
 30 52  1  0
M  END
$$$$
