
     RDKit          3D

 38 40  0  0  0  0  0  0  0  0999 V2000
   -4.6489   -0.1610    0.1881 C   0  0  0  0  0  0  0  0  0  0  0  0
   -3.7496   -0.6218   -0.9244 C   0  0  0  0  0  0  0  0  0  0  0  0
   -4.2228   -0.5335   -2.2459 C   0  0  0  0  0  0  0  0  0  0  0  0
   -3.4379   -0.9633   -3.3121 C   0  0  0  0  0  0  0  0  0  0  0  0
   -3.9091   -0.8604   -4.5611 F   0  0  0  0  0  0  0  0  0  0  0  0
   -2.1749   -1.4966   -3.1009 C   0  0  0  0  0  0  0  0  0  0  0  0
   -1.6866   -1.6039   -1.8000 C   0  0  0  0  0  0  0  0  0  0  0  0
   -2.4646   -1.1648   -0.7137 C   0  0  0  0  0  0  0  0  0  0  0  0
   -1.7662   -1.3464    0.9220 S   0  0  0  0  0  6  0  0  0  0  0  0
   -2.8071   -1.8503    1.7929 O   0  0  0  0  0  0  0  0  0  0  0  0
   -0.4986   -2.0387    0.8141 O   0  0  0  0  0  0  0  0  0  0  0  0
   -1.4812    0.2538    1.3933 N   0  0  0  0  0  0  0  0  0  0  0  0
   -0.2802    0.8733    0.9509 C   0  0  0  0  0  0  0  0  0  0  0  0
   -0.2175    1.4421   -0.3187 C   0  0  0  0  0  0  0  0  0  0  0  0
    0.9760    2.0070   -0.7635 C   0  0  0  0  0  0  0  0  0  0  0  0
    2.1038    1.9877    0.0565 C   0  0  0  0  0  0  0  0  0  0  0  0
    3.2345    2.5484   -0.4719 O   0  0  0  0  0  0  0  0  0  0  0  0
    2.0550    1.4217    1.3387 C   0  0  0  0  0  0  0  0  0  0  0  0
    3.4155    1.4564    2.4964 S   0  0  0  0  0  0  0  0  0  0  0  0
    4.6011    0.4561    1.7112 C   0  0  0  0  0  0  0  0  0  0  0  0
    5.0561    0.7151    0.4437 N   0  0  0  0  0  0  0  0  0  0  0  0
    5.9358   -0.2408    0.2484 C   0  0  0  0  0  0  0  0  0  0  0  0
    6.0067   -1.0260    1.3554 N   0  0  0  0  0  0  0  0  0  0  0  0
    5.1753   -0.5878    2.3134 N   0  0  0  0  0  0  0  0  0  0  0  0
    0.8466    0.8597    1.7759 C   0  0  0  0  0  0  0  0  0  0  0  0
   -4.1245    0.5225    0.8629 H   0  0  0  0  0  0  0  0  0  0  0  0
   -5.5121    0.3903   -0.2032 H   0  0  0  0  0  0  0  0  0  0  0  0
   -5.0362   -1.0184    0.7475 H   0  0  0  0  0  0  0  0  0  0  0  0
   -5.2093   -0.1312   -2.4615 H   0  0  0  0  0  0  0  0  0  0  0  0
   -1.5813   -1.8297   -3.9471 H   0  0  0  0  0  0  0  0  0  0  0  0
   -0.6968   -2.0293   -1.6424 H   0  0  0  0  0  0  0  0  0  0  0  0
   -1.7494    0.3887    2.3674 H   0  0  0  0  0  0  0  0  0  0  0  0
   -1.0907    1.4671   -0.9636 H   0  0  0  0  0  0  0  0  0  0  0  0
    1.0337    2.4580   -1.7507 H   0  0  0  0  0  0  0  0  0  0  0  0
    4.0058    2.1019   -0.0614 H   0  0  0  0  0  0  0  0  0  0  0  0
    6.5282   -0.4086   -0.6397 H   0  0  0  0  0  0  0  0  0  0  0  0
    6.5845   -1.8411    1.5307 H   0  0  0  0  0  0  0  0  0  0  0  0
    0.7868    0.4035    2.7610 H   0  0  0  0  0  0  0  0  0  0  0  0
  1  2  1  0
  2  3  2  0
  3  4  1  0
  4  5  1  0
  4  6  2  0
  6  7  1  0
  7  8  2  0
  8  9  1  0
  9 10  2  0
  9 11  2  0
  9 12  1  0
 12 13  1  0
 13 14  2  0
 14 15  1  0
 15 16  2  0
 16 17  1  0
 16 18  1  0
 18 19  1  0
 19 20  1  0
 20 21  1  0
 21 22  2  0
 22 23  1  0
 23 24  1  0
 18 25  2  0
  8  2  1  0
 25 13  1  0
 24 20  2  0
  1 26  1  0
  1 27  1  0
  1 28  1  0
  3 29  1  0
  6 30  1  0
  7 31  1  0
 12 32  1  0
 14 33  1  0
 15 34  1  0
 17 35  1  0
 22 36  1  0
 23 37  1  0
 25 38  1  0
M  END
$$$$
