
     RDKit          3D

 61 63  0  0  0  0  0  0  0  0999 V2000
  -10.0792    1.7985   -0.8692 C   0  0  0  0  0  0  0  0  0  0  0  0
   -9.3735    0.6366   -1.2850 O   0  0  0  0  0  0  0  0  0  0  0  0
   -8.4242    0.1504   -0.4291 C   0  0  0  0  0  0  0  0  0  0  0  0
   -7.7448   -0.9785   -0.8911 C   0  0  0  0  0  0  0  0  0  0  0  0
   -6.7492   -1.5785   -0.1169 C   0  0  0  0  0  0  0  0  0  0  0  0
   -6.4220   -1.0600    1.1417 C   0  0  0  0  0  0  0  0  0  0  0  0
   -5.3318   -1.6924    1.9658 C   0  0  0  0  0  0  0  0  0  0  0  0
   -4.0445   -1.1537    1.6140 N   0  0  0  0  0  0  0  0  0  0  0  0
   -3.2140   -1.7646    0.7054 C   0  0  0  0  0  0  0  0  0  0  0  0
   -3.3741   -2.8661    0.1987 O   0  0  0  0  0  0  0  0  0  0  0  0
   -1.9797   -0.9111    0.3336 C   0  0  0  0  0  0  0  0  0  0  0  0
   -1.7784    0.1581    0.8917 O   0  0  0  0  0  0  0  0  0  0  0  0
   -1.1771   -1.4817   -0.6255 N   0  0  0  0  0  0  0  0  0  0  0  0
    0.1189   -0.9193   -0.9709 C   0  0  0  0  0  0  0  0  0  0  0  0
    1.1789   -1.0973    0.1437 C   0  0  0  0  0  0  0  0  0  0  0  0
    1.2490   -2.5165    0.4465 O   0  0  0  0  0  0  0  0  0  0  0  0
    2.6261   -2.8996    0.4148 C   0  0  0  0  0  0  0  0  0  0  0  0
    3.2744   -1.9229   -0.5377 C   0  0  0  0  0  0  0  0  0  0  0  0
    2.5590   -0.6893   -0.2061 N   0  0  0  0  0  0  0  0  0  0  0  0
    2.7649    0.6564   -1.1813 S   0  0  0  0  0  6  0  0  0  0  0  0
    2.5468    0.2400   -2.5500 O   0  0  0  0  0  0  0  0  0  0  0  0
    2.0240    1.7524   -0.5998 O   0  0  0  0  0  0  0  0  0  0  0  0
    4.4894    1.0161   -0.9722 C   0  0  0  0  0  0  0  0  0  0  0  0
    5.3751    0.8529   -2.0362 C   0  0  0  0  0  0  0  0  0  0  0  0
    6.7302    1.1306   -1.8478 C   0  0  0  0  0  0  0  0  0  0  0  0
    7.1965    1.5756   -0.6038 C   0  0  0  0  0  0  0  0  0  0  0  0
    8.5104    1.8635   -0.3286 O   0  0  0  0  0  0  0  0  0  0  0  0
    9.4403    1.7977   -1.3999 C   0  0  0  0  0  0  0  0  0  0  0  0
    6.2890    1.7496    0.4645 C   0  0  0  0  0  0  0  0  0  0  0  0
    6.8281    2.1861    1.6492 O   0  0  0  0  0  0  0  0  0  0  0  0
    5.9302    2.5154    2.7005 C   0  0  0  0  0  0  0  0  0  0  0  0
    4.9338    1.4692    0.2740 C   0  0  0  0  0  0  0  0  0  0  0  0
   -7.0983    0.0791    1.5981 C   0  0  0  0  0  0  0  0  0  0  0  0
   -8.0957    0.6785    0.8194 C   0  0  0  0  0  0  0  0  0  0  0  0
   -9.4002    2.6476   -0.7384 H   0  0  0  0  0  0  0  0  0  0  0  0
  -10.7891    2.0593   -1.6602 H   0  0  0  0  0  0  0  0  0  0  0  0
  -10.6534    1.6063    0.0431 H   0  0  0  0  0  0  0  0  0  0  0  0
   -7.9899   -1.3930   -1.8659 H   0  0  0  0  0  0  0  0  0  0  0  0
   -6.2260   -2.4512   -0.5045 H   0  0  0  0  0  0  0  0  0  0  0  0
   -5.3388   -2.7807    1.8360 H   0  0  0  0  0  0  0  0  0  0  0  0
   -5.4934   -1.4912    3.0306 H   0  0  0  0  0  0  0  0  0  0  0  0
   -3.8213   -0.1910    1.8488 H   0  0  0  0  0  0  0  0  0  0  0  0
   -1.3807   -2.4509   -0.8572 H   0  0  0  0  0  0  0  0  0  0  0  0
    0.4343   -1.4355   -1.8839 H   0  0  0  0  0  0  0  0  0  0  0  0
   -0.0335    0.1392   -1.2019 H   0  0  0  0  0  0  0  0  0  0  0  0
    0.8751   -0.5856    1.0629 H   0  0  0  0  0  0  0  0  0  0  0  0
    3.0298   -2.8027    1.4289 H   0  0  0  0  0  0  0  0  0  0  0  0
    2.7215   -3.9392    0.0911 H   0  0  0  0  0  0  0  0  0  0  0  0
    4.3504   -1.8513   -0.3663 H   0  0  0  0  0  0  0  0  0  0  0  0
    3.0776   -2.2148   -1.5748 H   0  0  0  0  0  0  0  0  0  0  0  0
    5.0256    0.5137   -3.0089 H   0  0  0  0  0  0  0  0  0  0  0  0
    7.3987    0.9905   -2.6911 H   0  0  0  0  0  0  0  0  0  0  0  0
   10.4182    2.1001   -1.0131 H   0  0  0  0  0  0  0  0  0  0  0  0
    9.1711    2.4926   -2.2020 H   0  0  0  0  0  0  0  0  0  0  0  0
    9.5344    0.7743   -1.7767 H   0  0  0  0  0  0  0  0  0  0  0  0
    5.4042    1.6251    3.0603 H   0  0  0  0  0  0  0  0  0  0  0  0
    6.5203    2.9109    3.5327 H   0  0  0  0  0  0  0  0  0  0  0  0
    5.2257    3.2952    2.3922 H   0  0  0  0  0  0  0  0  0  0  0  0
    4.2077    1.5888    1.0722 H   0  0  0  0  0  0  0  0  0  0  0  0
   -6.8538    0.5115    2.5660 H   0  0  0  0  0  0  0  0  0  0  0  0
   -8.5932    1.5566    1.2170 H   0  0  0  0  0  0  0  0  0  0  0  0
  1  2  1  0
  2  3  1  0
  3  4  2  0
  4  5  1  0
  5  6  2  0
  6  7  1  0
  7  8  1  0
  8  9  1  0
  9 10  2  0
  9 11  1  0
 11 12  2  0
 11 13  1  0
 13 14  1  0
 14 15  1  0
 15 16  1  0
 16 17  1  0
 17 18  1  0
 18 19  1  0
 19 20  1  0
 20 21  2  0
 20 22  2  0
 20 23  1  0
 23 24  2  0
 24 25  1  0
 25 26  2  0
 26 27  1  0
 27 28  1  0
 26 29  1  0
 29 30  1  0
 30 31  1  0
 29 32  2  0
  6 33  1  0
 33 34  2  0
 34  3  1  0
 19 15  1  0
 32 23  1  0
  1 35  1  0
  1 36  1  0
  1 37  1  0
  4 38  1  0
  5 39  1  0
  7 40  1  0
  7 41  1  0
  8 42  1  0
 13 43  1  0
 14 44  1  0
 14 45  1  0
 15 46  1  0
 17 47  1  0
 17 48  1  0
 18 49  1  0
 18 50  1  0
 24 51  1  0
 25 52  1  0
 28 53  1  0
 28 54  1  0
 28 55  1  0
 31 56  1  0
 31 57  1  0
 31 58  1  0
 32 59  1  0
 33 60  1  0
 34 61  1  0
M  END
$$$$
