
     RDKit          3D

 28 28  0  0  0  0  0  0  0  0999 V2000
   -3.6374   -1.1992   -0.3672 C   0  0  0  0  0  0  0  0  0  0  0  0
   -2.1931   -1.1099    0.1599 C   0  0  0  0  0  0  0  0  0  0  0  0
   -2.1926   -0.2210    1.4099 C   0  0  0  0  0  0  0  0  0  0  0  0
   -1.7104   -2.5232    0.5129 C   0  0  0  0  0  0  0  0  0  0  0  0
   -1.2800   -0.5318   -0.9443 C   0  0  0  0  0  0  0  0  0  0  0  0
   -1.6818   -0.4091   -2.1066 O   0  0  0  0  0  0  0  0  0  0  0  0
    0.1469   -0.1529   -0.5910 C   0  0  0  0  0  0  0  0  0  0  0  0
    0.2741    1.6475   -0.4180 S   0  0  0  0  0  0  0  0  0  0  0  0
    2.0170    1.7965   -0.1259 C   0  0  0  0  0  0  0  0  0  0  0  0
    2.7276    0.6898    0.1560 N   0  0  0  0  0  0  0  0  0  0  0  0
    4.0440    0.8659    0.3786 C   0  0  0  0  0  0  0  0  0  0  0  0
    4.6652    2.0905    0.3353 C   0  0  0  0  0  0  0  0  0  0  0  0
    3.8482    3.1558    0.0459 C   0  0  0  0  0  0  0  0  0  0  0  0
    2.5282    3.0373   -0.1847 N   0  0  0  0  0  0  0  0  0  0  0  0
   -4.3155   -1.6013    0.3941 H   0  0  0  0  0  0  0  0  0  0  0  0
   -4.0120   -0.2122   -0.6623 H   0  0  0  0  0  0  0  0  0  0  0  0
   -3.7030   -1.8512   -1.2460 H   0  0  0  0  0  0  0  0  0  0  0  0
   -2.4801    0.8072    1.1632 H   0  0  0  0  0  0  0  0  0  0  0  0
   -2.8992   -0.5941    2.1602 H   0  0  0  0  0  0  0  0  0  0  0  0
   -1.2077   -0.1836    1.8867 H   0  0  0  0  0  0  0  0  0  0  0  0
   -2.3835   -3.0043    1.2314 H   0  0  0  0  0  0  0  0  0  0  0  0
   -1.6615   -3.1573   -0.3800 H   0  0  0  0  0  0  0  0  0  0  0  0
   -0.7096   -2.5126    0.9571 H   0  0  0  0  0  0  0  0  0  0  0  0
    0.4561   -0.6560    0.3281 H   0  0  0  0  0  0  0  0  0  0  0  0
    0.7935   -0.5082   -1.4010 H   0  0  0  0  0  0  0  0  0  0  0  0
    4.6030   -0.0387    0.6005 H   0  0  0  0  0  0  0  0  0  0  0  0
    5.7241    2.2085    0.5169 H   0  0  0  0  0  0  0  0  0  0  0  0
    4.2394    4.1676   -0.0114 H   0  0  0  0  0  0  0  0  0  0  0  0
  1  2  1  0
  2  3  1  0
  2  4  1  0
  2  5  1  0
  5  6  2  0
  5  7  1  0
  7  8  1  0
  8  9  1  0
  9 10  2  0
 10 11  1  0
 11 12  2  0
 12 13  1  0
 13 14  2  0
 14  9  1  0
  1 15  1  0
  1 16  1  0
  1 17  1  0
  3 18  1  0
  3 19  1  0
  3 20  1  0
  4 21  1  0
  4 22  1  0
  4 23  1  0
  7 24  1  0
  7 25  1  0
 11 26  1  0
 12 27  1  0
 13 28  1  0
M  END
$$$$
