
     RDKit          3D

 37 37  0  0  0  0  0  0  0  0999 V2000
   -2.9538   -2.0259   -2.5029 C   0  0  0  0  0  0  0  0  0  0  0  0
   -2.5404   -1.8227   -1.1513 O   0  0  0  0  0  0  0  0  0  0  0  0
   -1.7491   -0.7288   -0.9719 C   0  0  0  0  0  0  0  0  0  0  0  0
   -1.4480    0.0774   -1.8459 O   0  0  0  0  0  0  0  0  0  0  0  0
   -1.3301   -0.5989    0.4968 C   0  0  0  0  0  0  0  0  0  0  0  0
   -2.2817    0.3451    1.2403 C   0  0  0  0  0  0  0  0  0  0  0  0
   -3.6697   -0.2669    1.4241 C   0  0  0  0  0  0  0  0  0  0  0  0
   -4.7437    0.7790    2.4630 S   0  0  0  0  0  0  0  0  0  0  0  0
   -5.0860    2.1207    1.2966 C   0  0  0  0  0  0  0  0  0  0  0  0
    0.0319   -0.0539    0.5244 N   0  0  0  0  0  0  0  0  0  0  0  0
    1.0932   -0.9083    0.3648 C   0  0  0  0  0  0  0  0  0  0  0  0
    0.9938   -2.1246    0.3004 O   0  0  0  0  0  0  0  0  0  0  0  0
    2.2708   -0.2188    0.2802 N   0  0  0  0  0  0  0  0  0  0  0  0
    3.5129   -0.9539    0.2250 C   0  0  0  0  0  0  0  0  0  0  0  0
    4.6184    0.0157   -0.0376 C   0  0  0  0  0  0  0  0  0  0  0  0
    5.0569    0.5024   -1.2543 C   0  0  0  0  0  0  0  0  0  0  0  0
    6.1387    1.4187   -1.1145 C   0  0  0  0  0  0  0  0  0  0  0  0
    6.4899    1.6030    0.2038 C   0  0  0  0  0  0  0  0  0  0  0  0
    5.5179    0.6776    1.2629 S   0  0  0  0  0  0  0  0  0  0  0  0
   -3.5457   -2.9445   -2.5417 H   0  0  0  0  0  0  0  0  0  0  0  0
   -2.0848   -2.1459   -3.1575 H   0  0  0  0  0  0  0  0  0  0  0  0
   -3.5814   -1.1945   -2.8385 H   0  0  0  0  0  0  0  0  0  0  0  0
   -1.3165   -1.5904    0.9640 H   0  0  0  0  0  0  0  0  0  0  0  0
   -1.8500    0.5754    2.2236 H   0  0  0  0  0  0  0  0  0  0  0  0
   -2.3530    1.2950    0.6961 H   0  0  0  0  0  0  0  0  0  0  0  0
   -4.1698   -0.4354    0.4657 H   0  0  0  0  0  0  0  0  0  0  0  0
   -3.5838   -1.2373    1.9243 H   0  0  0  0  0  0  0  0  0  0  0  0
   -5.4930    1.7232    0.3633 H   0  0  0  0  0  0  0  0  0  0  0  0
   -4.1807    2.6966    1.0913 H   0  0  0  0  0  0  0  0  0  0  0  0
   -5.8264    2.7942    1.7369 H   0  0  0  0  0  0  0  0  0  0  0  0
    0.1542    0.8071    0.0043 H   0  0  0  0  0  0  0  0  0  0  0  0
    2.2898    0.6411    0.8089 H   0  0  0  0  0  0  0  0  0  0  0  0
    3.6444   -1.4886    1.1725 H   0  0  0  0  0  0  0  0  0  0  0  0
    3.4521   -1.7014   -0.5744 H   0  0  0  0  0  0  0  0  0  0  0  0
    4.6174    0.2137   -2.2022 H   0  0  0  0  0  0  0  0  0  0  0  0
    6.6337    1.9170   -1.9390 H   0  0  0  0  0  0  0  0  0  0  0  0
    7.2715    2.2377    0.5984 H   0  0  0  0  0  0  0  0  0  0  0  0
  1  2  1  0
  2  3  1  0
  3  4  2  0
  3  5  1  0
  5  6  1  0
  6  7  1  0
  7  8  1  0
  8  9  1  0
  5 10  1  0
 10 11  1  0
 11 12  2  0
 11 13  1  0
 13 14  1  0
 14 15  1  0
 15 16  2  0
 16 17  1  0
 17 18  2  0
 18 19  1  0
 19 15  1  0
  1 20  1  0
  1 21  1  0
  1 22  1  0
  5 23  1  0
  6 24  1  0
  6 25  1  0
  7 26  1  0
  7 27  1  0
  9 28  1  0
  9 29  1  0
  9 30  1  0
 10 31  1  0
 13 32  1  0
 14 33  1  0
 14 34  1  0
 16 35  1  0
 17 36  1  0
 18 37  1  0
M  END
$$$$
