
     RDKit          3D

 38 39  0  0  0  0  0  0  0  0999 V2000
   -0.1112   -3.4715    0.7683 O   0  0  0  0  0  0  0  0  0  0  0  0
   -0.0014   -2.2797    1.0293 C   0  0  0  0  0  0  0  0  0  0  0  0
   -1.2181   -1.4498    1.2072 C   0  0  0  0  0  0  0  0  0  0  0  0
   -1.2921   -0.1452    0.9018 C   0  0  0  0  0  0  0  0  0  0  0  0
   -2.5463    0.6113    1.0293 C   0  0  0  0  0  0  0  0  0  0  0  0
   -3.1163    0.7586    2.3041 C   0  0  0  0  0  0  0  0  0  0  0  0
   -4.3168    1.4566    2.4793 C   0  0  0  0  0  0  0  0  0  0  0  0
   -4.9723    2.0203    1.3853 C   0  0  0  0  0  0  0  0  0  0  0  0
   -4.4269    1.8935    0.1098 C   0  0  0  0  0  0  0  0  0  0  0  0
   -3.2183    1.1993   -0.0566 C   0  0  0  0  0  0  0  0  0  0  0  0
   -2.6934    1.0930   -1.4094 N   0  0  0  0  0  4  0  0  0  0  0  0
   -3.4623    0.6621   -2.2795 O   0  0  0  0  0  0  0  0  0  0  0  0
   -1.5294    1.4697   -1.6054 O   0  0  0  0  0  1  0  0  0  0  0  0
    1.1924   -1.6343    1.2064 N   0  0  0  0  0  0  0  0  0  0  0  0
    2.4566   -2.2756    0.8944 C   0  0  0  0  0  0  0  0  0  0  0  0
    2.7908   -2.2198   -0.6009 C   0  0  0  0  0  0  0  0  0  0  0  0
    2.9706   -0.8035   -1.1016 C   0  0  0  0  0  0  0  0  0  0  0  0
    4.1813   -0.1243   -0.8966 C   0  0  0  0  0  0  0  0  0  0  0  0
    4.3313    1.1930   -1.3322 C   0  0  0  0  0  0  0  0  0  0  0  0
    3.2727    1.8314   -1.9678 C   0  0  0  0  0  0  0  0  0  0  0  0
    3.4188    3.0979   -2.3788 F   0  0  0  0  0  0  0  0  0  0  0  0
    2.0663    1.1765   -2.1792 C   0  0  0  0  0  0  0  0  0  0  0  0
    1.9149   -0.1419   -1.7485 C   0  0  0  0  0  0  0  0  0  0  0  0
   -2.0881   -2.0149    1.5290 H   0  0  0  0  0  0  0  0  0  0  0  0
   -0.4439    0.4051    0.5032 H   0  0  0  0  0  0  0  0  0  0  0  0
   -2.6300    0.3302    3.1797 H   0  0  0  0  0  0  0  0  0  0  0  0
   -4.7425    1.5570    3.4760 H   0  0  0  0  0  0  0  0  0  0  0  0
   -5.9079    2.5567    1.5286 H   0  0  0  0  0  0  0  0  0  0  0  0
   -4.9423    2.3319   -0.7427 H   0  0  0  0  0  0  0  0  0  0  0  0
    1.2114   -0.6412    1.3903 H   0  0  0  0  0  0  0  0  0  0  0  0
    3.2268   -1.7724    1.4890 H   0  0  0  0  0  0  0  0  0  0  0  0
    2.4100   -3.3214    1.2180 H   0  0  0  0  0  0  0  0  0  0  0  0
    3.7144   -2.7814   -0.7889 H   0  0  0  0  0  0  0  0  0  0  0  0
    2.0077   -2.7196   -1.1848 H   0  0  0  0  0  0  0  0  0  0  0  0
    5.0133   -0.6177   -0.3990 H   0  0  0  0  0  0  0  0  0  0  0  0
    5.2648    1.7252   -1.1807 H   0  0  0  0  0  0  0  0  0  0  0  0
    1.2496    1.6926   -2.6753 H   0  0  0  0  0  0  0  0  0  0  0  0
    0.9660   -0.6480   -1.9179 H   0  0  0  0  0  0  0  0  0  0  0  0
  1  2  2  0
  2  3  1  0
  3  4  2  3
  4  5  1  0
  5  6  2  0
  6  7  1  0
  7  8  2  0
  8  9  1  0
  9 10  2  0
 10 11  1  0
 11 12  2  0
 11 13  1  0
  2 14  1  0
 14 15  1  0
 15 16  1  0
 16 17  1  0
 17 18  2  0
 18 19  1  0
 19 20  2  0
 20 21  1  0
 20 22  1  0
 22 23  2  0
 10  5  1  0
 23 17  1  0
  3 24  1  0
  4 25  1  0
  6 26  1  0
  7 27  1  0
  8 28  1  0
  9 29  1  0
 14 30  1  0
 15 31  1  0
 15 32  1  0
 16 33  1  0
 16 34  1  0
 18 35  1  0
 19 36  1  0
 22 37  1  0
 23 38  1  0
M  CHG  2  11   1  13  -1
M  END
$$$$
