
     RDKit          3D

 33 35  0  0  0  0  0  0  0  0999 V2000
    5.0228    0.9913   -1.4311 C   0  0  0  0  0  0  0  0  0  0  0  0
    4.3081    0.3465   -0.3537 N   0  0  0  0  0  0  0  0  0  0  0  0
    4.8495   -0.2646    0.7358 C   0  0  0  0  0  0  0  0  0  0  0  0
    3.7767   -0.7141    1.4779 C   0  0  0  0  0  0  0  0  0  0  0  0
    3.8563   -1.3817    2.7324 N   0  0  0  0  0  4  0  0  0  0  0  0
    4.5875   -2.3787    2.7799 O   0  0  0  0  0  0  0  0  0  0  0  0
    3.2520   -0.8636    3.6771 O   0  0  0  0  0  1  0  0  0  0  0  0
    2.6231   -0.3632    0.7447 C   0  0  0  0  0  0  0  0  0  0  0  0
    1.2165   -0.6742    1.0498 C   0  0  0  0  0  0  0  0  0  0  0  0
    0.9197   -1.4345    1.9596 O   0  0  0  0  0  0  0  0  0  0  0  0
    0.3662   -0.0319    0.1678 N   0  0  0  0  0  0  0  0  0  0  0  0
   -1.0168   -0.0748    0.1310 C   0  0  0  0  0  0  0  0  0  0  0  0
   -1.9105   -0.9714    1.2959 S   0  0  0  0  0  0  0  0  0  0  0  0
   -3.3531   -0.5210    0.5901 C   0  0  0  0  0  0  0  0  0  0  0  0
   -3.2097    0.2878   -0.5012 C   0  0  0  0  0  0  0  0  0  0  0  0
   -1.8520    0.5594   -0.7840 C   0  0  0  0  0  0  0  0  0  0  0  0
   -1.3876    1.3742   -1.8639 C   0  0  0  0  0  0  0  0  0  0  0  0
   -0.9930    2.0325   -2.7344 N   0  0  0  0  0  0  0  0  0  0  0  0
   -4.5305    0.6454   -1.0775 C   0  0  0  0  0  0  0  0  0  0  0  0
   -5.5150    0.2054    0.0524 C   0  0  0  0  0  0  0  0  0  0  0  0
   -4.7588   -0.8390    0.9308 C   0  0  0  0  0  0  0  0  0  0  0  0
    2.9598    0.3197   -0.3759 N   0  0  0  0  0  0  0  0  0  0  0  0
    4.7200    2.0408   -1.4640 H   0  0  0  0  0  0  0  0  0  0  0  0
    4.7651    0.4856   -2.3649 H   0  0  0  0  0  0  0  0  0  0  0  0
    6.0977    0.9171   -1.2494 H   0  0  0  0  0  0  0  0  0  0  0  0
    5.9169   -0.3212    0.9032 H   0  0  0  0  0  0  0  0  0  0  0  0
    0.8513    0.5155   -0.5424 H   0  0  0  0  0  0  0  0  0  0  0  0
   -4.7170    0.0725   -1.9919 H   0  0  0  0  0  0  0  0  0  0  0  0
   -4.6263    1.7135   -1.2909 H   0  0  0  0  0  0  0  0  0  0  0  0
   -6.4551   -0.1887   -0.3459 H   0  0  0  0  0  0  0  0  0  0  0  0
   -5.7602    1.0795    0.6703 H   0  0  0  0  0  0  0  0  0  0  0  0
   -5.0139   -1.8577    0.6213 H   0  0  0  0  0  0  0  0  0  0  0  0
   -4.9898   -0.7066    1.9912 H   0  0  0  0  0  0  0  0  0  0  0  0
  1  2  1  0
  2  3  1  0
  3  4  2  0
  4  5  1  0
  5  6  2  0
  5  7  1  0
  4  8  1  0
  8  9  1  0
  9 10  2  0
  9 11  1  0
 11 12  1  0
 12 13  1  0
 13 14  1  0
 14 15  2  0
 15 16  1  0
 16 17  1  0
 17 18  3  0
 15 19  1  0
 19 20  1  0
 20 21  1  0
  8 22  2  0
 22  2  1  0
 16 12  2  0
 21 14  1  0
  1 23  1  0
  1 24  1  0
  1 25  1  0
  3 26  1  0
 11 27  1  0
 19 28  1  0
 19 29  1  0
 20 30  1  0
 20 31  1  0
 21 32  1  0
 21 33  1  0
M  CHG  2   5   1   7  -1
M  END
$$$$
