
     RDKit          3D

 39 42  0  0  0  0  0  0  0  0999 V2000
    5.8542   -0.8196   -1.5446 C   0  0  0  0  0  0  0  0  0  0  0  0
    5.7503   -1.3950   -0.2664 C   0  0  0  0  0  0  0  0  0  0  0  0
    4.5756   -1.2719    0.4831 C   0  0  0  0  0  0  0  0  0  0  0  0
    3.5159   -0.5688   -0.0646 C   0  0  0  0  0  0  0  0  0  0  0  0
    3.6272    0.0067   -1.3494 C   0  0  0  0  0  0  0  0  0  0  0  0
    4.7864   -0.1104   -2.0981 C   0  0  0  0  0  0  0  0  0  0  0  0
    2.3410    0.7174   -1.7195 C   0  0  0  0  0  0  0  0  0  0  0  0
    1.4862    0.4777   -0.4919 C   0  0  0  0  0  0  0  0  0  0  0  0
    0.1880    0.9019   -0.2588 C   0  0  0  0  0  0  0  0  0  0  0  0
   -0.4245    0.5557    0.9570 C   0  0  0  0  0  0  0  0  0  0  0  0
   -1.8365    1.0174    1.2640 C   0  0  0  0  0  0  0  0  0  0  0  0
   -2.7973    0.7157    0.1919 N   0  0  0  0  0  0  0  0  0  0  0  0
   -3.0754   -0.7312    0.0545 C   0  0  0  0  0  0  0  0  0  0  0  0
   -4.3939   -1.1680    0.7128 C   0  0  0  0  0  0  0  0  0  0  0  0
   -5.5428   -0.4849    0.1926 O   0  0  0  0  0  0  0  0  0  0  0  0
   -5.2368    0.8177   -0.3243 C   0  0  0  0  0  0  0  0  0  0  0  0
   -4.0511    1.4716    0.3986 C   0  0  0  0  0  0  0  0  0  0  0  0
    0.2980   -0.1954    1.9124 C   0  0  0  0  0  0  0  0  0  0  0  0
    1.6104   -0.6181    1.6672 C   0  0  0  0  0  0  0  0  0  0  0  0
    2.1985   -0.2789    0.4617 C   0  0  0  0  0  0  0  0  0  0  0  0
    6.7781   -0.9293   -2.1079 H   0  0  0  0  0  0  0  0  0  0  0  0
    6.5950   -1.9430    0.1443 H   0  0  0  0  0  0  0  0  0  0  0  0
    4.5057   -1.7197    1.4682 H   0  0  0  0  0  0  0  0  0  0  0  0
    4.8666    0.3335   -3.0846 H   0  0  0  0  0  0  0  0  0  0  0  0
    2.5181    1.7870   -1.8649 H   0  0  0  0  0  0  0  0  0  0  0  0
    1.8865    0.2597   -2.6029 H   0  0  0  0  0  0  0  0  0  0  0  0
   -0.3494    1.4825   -1.0031 H   0  0  0  0  0  0  0  0  0  0  0  0
   -1.7768    2.1040    1.4140 H   0  0  0  0  0  0  0  0  0  0  0  0
   -2.1807    0.5881    2.2141 H   0  0  0  0  0  0  0  0  0  0  0  0
   -2.2538   -1.3519    0.4284 H   0  0  0  0  0  0  0  0  0  0  0  0
   -3.1465   -0.9369   -1.0211 H   0  0  0  0  0  0  0  0  0  0  0  0
   -4.5541   -2.2397    0.5568 H   0  0  0  0  0  0  0  0  0  0  0  0
   -4.3595   -0.9996    1.7955 H   0  0  0  0  0  0  0  0  0  0  0  0
   -5.0410    0.7259   -1.3991 H   0  0  0  0  0  0  0  0  0  0  0  0
   -6.1344    1.4337   -0.2091 H   0  0  0  0  0  0  0  0  0  0  0  0
   -4.2937    1.5253    1.4684 H   0  0  0  0  0  0  0  0  0  0  0  0
   -3.9147    2.4950    0.0323 H   0  0  0  0  0  0  0  0  0  0  0  0
   -0.1659   -0.4578    2.8610 H   0  0  0  0  0  0  0  0  0  0  0  0
    2.1468   -1.1966    2.4114 H   0  0  0  0  0  0  0  0  0  0  0  0
  1  2  2  0
  2  3  1  0
  3  4  2  0
  4  5  1  0
  5  6  2  0
  5  7  1  0
  7  8  1  0
  8  9  2  0
  9 10  1  0
 10 11  1  0
 11 12  1  0
 12 13  1  0
 13 14  1  0
 14 15  1  0
 15 16  1  0
 16 17  1  0
 10 18  2  0
 18 19  1  0
 19 20  2  0
  6  1  1  0
 20  8  1  0
 20  4  1  0
 17 12  1  0
  1 21  1  0
  2 22  1  0
  3 23  1  0
  6 24  1  0
  7 25  1  0
  7 26  1  0
  9 27  1  0
 11 28  1  0
 11 29  1  0
 13 30  1  0
 13 31  1  0
 14 32  1  0
 14 33  1  0
 16 34  1  0
 16 35  1  0
 17 36  1  0
 17 37  1  0
 18 38  1  0
 19 39  1  0
M  END
$$$$
