
     RDKit          3D

 33 33  0  0  0  0  0  0  0  0999 V2000
   -2.9395   -2.3429    0.1190 C   0  0  0  0  0  0  0  0  0  0  0  0
   -2.8528   -0.8373   -0.1388 C   0  0  0  0  0  0  0  0  0  0  0  0
   -4.2575   -0.2321   -0.1578 C   0  0  0  0  0  0  0  0  0  0  0  0
   -2.0010   -0.2535    0.9047 N   0  0  0  0  0  0  0  0  0  0  0  0
   -1.6118    1.1290    0.6195 C   0  0  0  0  0  0  0  0  0  0  0  0
   -0.5391    1.5979    1.6076 C   0  0  0  0  0  0  0  0  0  0  0  0
    0.8014    0.8887    1.4159 C   0  0  0  0  0  0  0  0  0  0  0  0
    1.3406    1.2742    0.1508 O   0  0  0  0  0  0  0  0  0  0  0  0
    2.4870    0.6595   -0.2745 C   0  0  0  0  0  0  0  0  0  0  0  0
    3.2608   -0.2018    0.5106 C   0  0  0  0  0  0  0  0  0  0  0  0
    4.4245   -0.7799   -0.0082 C   0  0  0  0  0  0  0  0  0  0  0  0
    4.8214   -0.4972   -1.3128 C   0  0  0  0  0  0  0  0  0  0  0  0
    6.2539   -1.2118   -1.9426 Cl  0  0  0  0  0  0  0  0  0  0  0  0
    4.0683    0.3600   -2.1079 C   0  0  0  0  0  0  0  0  0  0  0  0
    2.9060    0.9360   -1.5872 C   0  0  0  0  0  0  0  0  0  0  0  0
    1.9137    2.0984   -2.7196 Br  0  0  0  0  0  0  0  0  0  0  0  0
   -1.9435   -2.8002    0.1131 H   0  0  0  0  0  0  0  0  0  0  0  0
   -3.5327   -2.8348   -0.6596 H   0  0  0  0  0  0  0  0  0  0  0  0
   -3.4071   -2.5614    1.0859 H   0  0  0  0  0  0  0  0  0  0  0  0
   -2.3850   -0.6968   -1.1211 H   0  0  0  0  0  0  0  0  0  0  0  0
   -4.8865   -0.7424   -0.8954 H   0  0  0  0  0  0  0  0  0  0  0  0
   -4.7470   -0.3233    0.8183 H   0  0  0  0  0  0  0  0  0  0  0  0
   -4.2349    0.8280   -0.4292 H   0  0  0  0  0  0  0  0  0  0  0  0
   -2.4798   -0.2973    1.8042 H   0  0  0  0  0  0  0  0  0  0  0  0
   -2.4808    1.7893    0.7155 H   0  0  0  0  0  0  0  0  0  0  0  0
   -1.2341    1.2239   -0.4051 H   0  0  0  0  0  0  0  0  0  0  0  0
   -0.8884    1.4512    2.6368 H   0  0  0  0  0  0  0  0  0  0  0  0
   -0.3947    2.6759    1.4634 H   0  0  0  0  0  0  0  0  0  0  0  0
    1.4825    1.2127    2.2118 H   0  0  0  0  0  0  0  0  0  0  0  0
    0.6681   -0.1980    1.4690 H   0  0  0  0  0  0  0  0  0  0  0  0
    2.9889   -0.4426    1.5334 H   0  0  0  0  0  0  0  0  0  0  0  0
    5.0153   -1.4486    0.6131 H   0  0  0  0  0  0  0  0  0  0  0  0
    4.3837    0.5771   -3.1245 H   0  0  0  0  0  0  0  0  0  0  0  0
  1  2  1  0
  2  3  1  0
  2  4  1  0
  4  5  1  0
  5  6  1  0
  6  7  1  0
  7  8  1  0
  8  9  1  0
  9 10  2  0
 10 11  1  0
 11 12  2  0
 12 13  1  0
 12 14  1  0
 14 15  2  0
 15 16  1  0
 15  9  1  0
  1 17  1  0
  1 18  1  0
  1 19  1  0
  2 20  1  0
  3 21  1  0
  3 22  1  0
  3 23  1  0
  4 24  1  0
  5 25  1  0
  5 26  1  0
  6 27  1  0
  6 28  1  0
  7 29  1  0
  7 30  1  0
 10 31  1  0
 11 32  1  0
 14 33  1  0
M  END
$$$$
