
     RDKit          3D

 57 59  0  0  0  0  0  0  0  0999 V2000
   -6.2821   -1.3543    0.9467 C   0  0  0  0  0  0  0  0  0  0  0  0
   -4.7842   -1.1308    0.7585 C   0  0  0  0  0  0  0  0  0  0  0  0
   -4.3902   -0.9146   -0.6442 N   0  0  0  0  0  0  0  0  0  0  0  0
   -4.7380   -2.0310   -1.5412 C   0  0  0  0  0  0  0  0  0  0  0  0
   -4.1053   -3.3837   -1.2227 C   0  0  0  0  0  0  0  0  0  0  0  0
   -2.9587   -0.5692   -0.7537 C   0  0  0  0  0  0  0  0  0  0  0  0
   -2.6301    0.8626   -0.3014 C   0  0  0  0  0  0  0  0  0  0  0  0
   -1.2361    1.0996   -0.5634 O   0  0  0  0  0  0  0  0  0  0  0  0
   -0.7826    2.2630    0.0084 C   0  0  0  0  0  0  0  0  0  0  0  0
   -1.2264    3.4927   -0.3312 C   0  0  0  0  0  0  0  0  0  0  0  0
   -0.6310    4.6716    0.3834 C   0  0  2  0  0  0  0  0  0  0  0  0
   -0.7357    5.9065   -0.3076 O   0  0  0  0  0  0  0  0  0  0  0  0
    0.1473    6.7610    0.3162 C   0  0  0  0  0  0  0  0  0  0  0  0
    0.1725    7.9640    0.1187 O   0  0  0  0  0  0  0  0  0  0  0  0
    1.3060    5.9539    1.4005 S   0  0  0  0  0  0  0  0  0  0  0  0
    0.8655    4.4204    0.6070 C   0  0  1  0  0  0  0  0  0  0  0  0
    1.0910    3.1359    1.3298 C   0  0  0  0  0  0  0  0  0  0  0  0
    0.2894    2.0978    0.9973 C   0  0  0  0  0  0  0  0  0  0  0  0
    0.4684    0.7987    1.7006 C   0  0  0  0  0  0  0  0  0  0  0  0
   -0.3488    0.4149    2.5335 O   0  0  0  0  0  0  0  0  0  0  0  0
    1.6686   -0.0264    1.3991 C   0  0  0  0  0  0  0  0  0  0  0  0
    2.4812    0.1493    0.3459 C   0  0  0  0  0  0  0  0  0  0  0  0
    3.6589   -0.6884    0.0741 C   0  0  0  0  0  0  0  0  0  0  0  0
    3.6897   -2.0609    0.3511 C   0  0  0  0  0  0  0  0  0  0  0  0
    4.8248   -2.8287    0.0579 C   0  0  0  0  0  0  0  0  0  0  0  0
    5.9414   -2.2357   -0.5274 C   0  0  0  0  0  0  0  0  0  0  0  0
    7.1081   -2.8660   -0.8601 O   0  0  0  0  0  0  0  0  0  0  0  0
    7.2040   -4.2501   -0.5487 C   0  0  0  0  0  0  0  0  0  0  0  0
    5.9078   -0.8726   -0.8247 C   0  0  0  0  0  0  0  0  0  0  0  0
    4.7762   -0.1050   -0.5325 C   0  0  0  0  0  0  0  0  0  0  0  0
   -6.8634   -0.5574    0.4702 H   0  0  0  0  0  0  0  0  0  0  0  0
   -6.5268   -1.3524    2.0144 H   0  0  0  0  0  0  0  0  0  0  0  0
   -6.6072   -2.3167    0.5391 H   0  0  0  0  0  0  0  0  0  0  0  0
   -4.2303   -1.9643    1.2067 H   0  0  0  0  0  0  0  0  0  0  0  0
   -4.5338   -0.2403    1.3461 H   0  0  0  0  0  0  0  0  0  0  0  0
   -5.8274   -2.1477   -1.5755 H   0  0  0  0  0  0  0  0  0  0  0  0
   -4.4667   -1.7528   -2.5685 H   0  0  0  0  0  0  0  0  0  0  0  0
   -4.4285   -3.7640   -0.2489 H   0  0  0  0  0  0  0  0  0  0  0  0
   -3.0128   -3.3335   -1.2306 H   0  0  0  0  0  0  0  0  0  0  0  0
   -4.4061   -4.1182   -1.9772 H   0  0  0  0  0  0  0  0  0  0  0  0
   -2.6374   -0.6449   -1.8019 H   0  0  0  0  0  0  0  0  0  0  0  0
   -2.3296   -1.2818   -0.2040 H   0  0  0  0  0  0  0  0  0  0  0  0
   -2.8262    0.9850    0.7704 H   0  0  0  0  0  0  0  0  0  0  0  0
   -3.2392    1.5779   -0.8672 H   0  0  0  0  0  0  0  0  0  0  0  0
   -2.0107    3.6458   -1.0634 H   0  0  0  0  0  0  0  0  0  0  0  0
   -1.1978    4.7725    1.3247 H   0  0  0  0  0  0  0  0  0  0  0  0
    1.4156    4.3930   -0.3440 H   0  0  0  0  0  0  0  0  0  0  0  0
    1.8856    3.0444    2.0628 H   0  0  0  0  0  0  0  0  0  0  0  0
    1.8256   -0.8255    2.1169 H   0  0  0  0  0  0  0  0  0  0  0  0
    2.3094    0.9463   -0.3736 H   0  0  0  0  0  0  0  0  0  0  0  0
    2.8290   -2.5595    0.7901 H   0  0  0  0  0  0  0  0  0  0  0  0
    4.7982   -3.8867    0.2971 H   0  0  0  0  0  0  0  0  0  0  0  0
    8.1934   -4.5967   -0.8632 H   0  0  0  0  0  0  0  0  0  0  0  0
    7.1197   -4.4186    0.5299 H   0  0  0  0  0  0  0  0  0  0  0  0
    6.4576   -4.8308   -1.0998 H   0  0  0  0  0  0  0  0  0  0  0  0
    6.7717   -0.4020   -1.2875 H   0  0  0  0  0  0  0  0  0  0  0  0
    4.7866    0.9543   -0.7776 H   0  0  0  0  0  0  0  0  0  0  0  0
  1  2  1  0
  2  3  1  0
  3  4  1  0
  4  5  1  0
  3  6  1  0
  6  7  1  0
  7  8  1  0
  8  9  1  0
  9 10  2  0
 10 11  1  0
 11 12  1  0
 12 13  1  0
 13 14  2  0
 13 15  1  0
 15 16  1  0
 16 17  1  0
 17 18  2  0
 18 19  1  0
 19 20  2  0
 19 21  1  0
 21 22  2  0
 22 23  1  0
 23 24  2  0
 24 25  1  0
 25 26  2  0
 26 27  1  0
 27 28  1  0
 26 29  1  0
 29 30  2  0
 18  9  1  0
 30 23  1  0
 16 11  1  0
  1 31  1  0
  1 32  1  0
  1 33  1  0
  2 34  1  0
  2 35  1  0
  4 36  1  0
  4 37  1  0
  5 38  1  0
  5 39  1  0
  5 40  1  0
  6 41  1  0
  6 42  1  0
  7 43  1  0
  7 44  1  0
 10 45  1  0
 11 46  1  1
 16 47  1  6
 17 48  1  0
 21 49  1  0
 22 50  1  0
 24 51  1  0
 25 52  1  0
 28 53  1  0
 28 54  1  0
 28 55  1  0
 29 56  1  0
 30 57  1  0
M  END
$$$$
