
     RDKit          3D

 54 57  0  0  0  0  0  0  0  0999 V2000
   -6.4825    2.1907   -1.1828 C   0  0  0  0  0  0  0  0  0  0  0  0
   -5.0021    1.9523   -1.1531 C   0  0  0  0  0  0  0  0  0  0  0  0
   -4.2762    1.8806   -2.3434 C   0  0  0  0  0  0  0  0  0  0  0  0
   -2.8781    1.6936   -2.3504 C   0  0  0  0  0  0  0  0  0  0  0  0
   -2.2113    1.7530   -3.6993 C   0  0  0  0  0  0  0  0  0  0  0  0
   -2.2010    1.5095   -1.1258 C   0  0  0  0  0  0  0  0  0  0  0  0
   -0.8107    1.2505   -1.0262 N   0  0  0  0  0  0  0  0  0  0  0  0
   -0.0499    0.4525   -1.8685 C   0  0  0  0  0  0  0  0  0  0  0  0
   -0.4607   -0.2365   -2.7981 O   0  0  0  0  0  0  0  0  0  0  0  0
    1.4232    0.4091   -1.4579 C   0  0  0  0  0  0  0  0  0  0  0  0
    1.6553   -0.6571   -0.4831 N   0  0  0  0  0  0  0  0  0  0  0  0
    1.4573   -0.3325    0.8527 C   0  0  0  0  0  0  0  0  0  0  0  0
    0.9988    0.7724    1.1667 O   0  0  0  0  0  0  0  0  0  0  0  0
    1.7693   -1.2972    1.7930 N   0  0  0  0  0  0  0  0  0  0  0  0
    1.6708   -0.9294    3.1973 C   0  0  0  0  0  0  0  0  0  0  0  0
    2.8868   -0.1655    3.5983 C   0  0  0  0  0  0  0  0  0  0  0  0
    3.1200    1.1681    3.8708 C   0  0  0  0  0  0  0  0  0  0  0  0
    4.4937    1.2757    4.1937 C   0  0  0  0  0  0  0  0  0  0  0  0
    5.0112    0.0050    4.0952 C   0  0  0  0  0  0  0  0  0  0  0  0
    4.0436   -0.8763    3.7358 O   0  0  0  0  0  0  0  0  0  0  0  0
    2.1435   -2.5985    1.4950 C   0  0  0  0  0  0  0  0  0  0  0  0
    2.3418   -3.4699    2.3386 O   0  0  0  0  0  0  0  0  0  0  0  0
    2.2675   -2.9424    0.0691 C   0  0  0  0  0  0  0  0  0  0  0  0
    2.6331   -4.2494   -0.2925 C   0  0  0  0  0  0  0  0  0  0  0  0
    2.7355   -4.5987   -1.6349 C   0  0  0  0  0  0  0  0  0  0  0  0
    2.4657   -3.6465   -2.6110 C   0  0  0  0  0  0  0  0  0  0  0  0
    2.1042   -2.3436   -2.2463 C   0  0  0  0  0  0  0  0  0  0  0  0
    2.0107   -1.9692   -0.8969 C   0  0  0  0  0  0  0  0  0  0  0  0
   -2.9243    1.6437    0.0865 C   0  0  0  0  0  0  0  0  0  0  0  0
   -2.2687    1.5201    1.4385 C   0  0  0  0  0  0  0  0  0  0  0  0
   -4.3139    1.8638    0.0554 C   0  0  0  0  0  0  0  0  0  0  0  0
   -6.9515    1.5973   -1.9753 H   0  0  0  0  0  0  0  0  0  0  0  0
   -6.9505    1.8985   -0.2370 H   0  0  0  0  0  0  0  0  0  0  0  0
   -6.6881    3.2510   -1.3609 H   0  0  0  0  0  0  0  0  0  0  0  0
   -4.8035    1.9906   -3.2920 H   0  0  0  0  0  0  0  0  0  0  0  0
   -1.1883    2.1326   -3.6326 H   0  0  0  0  0  0  0  0  0  0  0  0
   -2.2236    0.7692   -4.1751 H   0  0  0  0  0  0  0  0  0  0  0  0
   -2.7422    2.4518   -4.3585 H   0  0  0  0  0  0  0  0  0  0  0  0
   -0.3955    1.3735   -0.1034 H   0  0  0  0  0  0  0  0  0  0  0  0
    2.0582    0.3050   -2.3420 H   0  0  0  0  0  0  0  0  0  0  0  0
    1.7029    1.3781   -1.0250 H   0  0  0  0  0  0  0  0  0  0  0  0
    0.7759   -0.3161    3.3528 H   0  0  0  0  0  0  0  0  0  0  0  0
    1.5663   -1.8142    3.8333 H   0  0  0  0  0  0  0  0  0  0  0  0
    2.3866    1.9624    3.8330 H   0  0  0  0  0  0  0  0  0  0  0  0
    5.0417    2.1680    4.4616 H   0  0  0  0  0  0  0  0  0  0  0  0
    5.9952   -0.4184    4.2409 H   0  0  0  0  0  0  0  0  0  0  0  0
    2.8335   -4.9967    0.4735 H   0  0  0  0  0  0  0  0  0  0  0  0
    3.0136   -5.6107   -1.9173 H   0  0  0  0  0  0  0  0  0  0  0  0
    2.5248   -3.9152   -3.6636 H   0  0  0  0  0  0  0  0  0  0  0  0
    1.8760   -1.6560   -3.0556 H   0  0  0  0  0  0  0  0  0  0  0  0
   -1.8172    0.5300    1.5527 H   0  0  0  0  0  0  0  0  0  0  0  0
   -1.5070    2.2959    1.5655 H   0  0  0  0  0  0  0  0  0  0  0  0
   -2.9920    1.6425    2.2523 H   0  0  0  0  0  0  0  0  0  0  0  0
   -4.8679    1.9527    0.9892 H   0  0  0  0  0  0  0  0  0  0  0  0
  1  2  1  0
  2  3  2  0
  3  4  1  0
  4  5  1  0
  4  6  2  0
  6  7  1  0
  7  8  1  0
  8  9  2  0
  8 10  1  0
 10 11  1  0
 11 12  1  0
 12 13  2  0
 12 14  1  0
 14 15  1  0
 15 16  1  0
 16 17  2  0
 17 18  1  0
 18 19  2  0
 19 20  1  0
 14 21  1  0
 21 22  2  0
 21 23  1  0
 23 24  2  0
 24 25  1  0
 25 26  2  0
 26 27  1  0
 27 28  2  0
  6 29  1  0
 29 30  1  0
 29 31  2  0
 31  2  1  0
 28 11  1  0
 20 16  1  0
 28 23  1  0
  1 32  1  0
  1 33  1  0
  1 34  1  0
  3 35  1  0
  5 36  1  0
  5 37  1  0
  5 38  1  0
  7 39  1  0
 10 40  1  0
 10 41  1  0
 15 42  1  0
 15 43  1  0
 17 44  1  0
 18 45  1  0
 19 46  1  0
 24 47  1  0
 25 48  1  0
 26 49  1  0
 27 50  1  0
 30 51  1  0
 30 52  1  0
 30 53  1  0
 31 54  1  0
M  END
$$$$
