
     RDKit          3D

 50 53  0  0  0  0  0  0  0  0999 V2000
   -6.7790   -3.5274    1.1743 C   0  0  0  0  0  0  0  0  0  0  0  0
   -5.7252   -2.4519    1.3689 C   0  0  0  0  0  0  0  0  0  0  0  0
   -5.1662   -2.1483    0.0925 O   0  0  0  0  0  0  0  0  0  0  0  0
   -4.1767   -1.2049    0.0555 C   0  0  0  0  0  0  0  0  0  0  0  0
   -3.6811   -0.4903    1.1461 C   0  0  0  0  0  0  0  0  0  0  0  0
   -2.6621    0.4529    0.9660 C   0  0  0  0  0  0  0  0  0  0  0  0
   -2.1344    0.6924   -0.3073 C   0  0  0  0  0  0  0  0  0  0  0  0
   -1.0731    1.6728   -0.4921 C   0  0  0  0  0  0  0  0  0  0  0  0
    0.3051    1.5178   -0.4277 C   0  0  0  0  0  0  0  0  0  0  0  0
    1.0796    0.3113   -0.1460 C   0  0  0  0  0  0  0  0  0  0  0  0
    0.5615   -0.7749    0.0918 O   0  0  0  0  0  0  0  0  0  0  0  0
    2.4474    0.5516   -0.1791 N   0  0  0  0  0  0  0  0  0  0  0  0
    3.3386   -0.4522    0.0564 N   0  0  0  0  0  0  0  0  0  0  0  0
    4.5866   -0.1128    0.0025 C   0  0  0  0  0  0  0  0  0  0  0  0
    5.6662   -1.0929    0.2339 C   0  0  0  0  0  0  0  0  0  0  0  0
    5.3695   -2.4308    0.5181 C   0  0  0  0  0  0  0  0  0  0  0  0
    6.4045   -3.3434    0.7332 C   0  0  0  0  0  0  0  0  0  0  0  0
    7.7247   -2.9078    0.6618 C   0  0  0  0  0  0  0  0  0  0  0  0
    8.7659   -3.7638    0.8645 O   0  0  0  0  0  0  0  0  0  0  0  0
    8.0269   -1.5789    0.3799 C   0  0  0  0  0  0  0  0  0  0  0  0
    6.9950   -0.6637    0.1643 C   0  0  0  0  0  0  0  0  0  0  0  0
    0.9097    2.7233   -0.6796 N   0  0  0  0  0  0  0  0  0  0  0  0
   -0.0315    3.6236   -0.8939 N   0  0  0  0  0  0  0  0  0  0  0  0
   -1.2578    3.0276   -0.7808 N   0  0  0  0  0  0  0  0  0  0  0  0
   -2.4555    3.7662   -0.9610 C   0  0  0  0  0  0  0  0  0  0  0  0
   -3.6506    3.1802   -0.8877 N   0  0  0  0  0  0  0  0  0  0  0  0
   -4.5535    4.2127   -1.1307 O   0  0  0  0  0  0  0  0  0  0  0  0
   -3.8943    5.4177   -1.3502 N   0  0  0  0  0  0  0  0  0  0  0  0
   -2.5964    5.1397   -1.2363 C   0  0  0  0  0  0  0  0  0  0  0  0
   -1.6128    6.0501   -1.3682 N   0  0  0  0  0  0  0  0  0  0  0  0
   -2.6247   -0.0311   -1.3979 C   0  0  0  0  0  0  0  0  0  0  0  0
   -3.6425   -0.9704   -1.2136 C   0  0  0  0  0  0  0  0  0  0  0  0
   -6.3361   -4.4252    0.7304 H   0  0  0  0  0  0  0  0  0  0  0  0
   -7.2423   -3.7966    2.1277 H   0  0  0  0  0  0  0  0  0  0  0  0
   -7.5587   -3.1834    0.4867 H   0  0  0  0  0  0  0  0  0  0  0  0
   -6.1987   -1.5613    1.7981 H   0  0  0  0  0  0  0  0  0  0  0  0
   -4.9495   -2.8298    2.0451 H   0  0  0  0  0  0  0  0  0  0  0  0
   -4.0605   -0.6429    2.1505 H   0  0  0  0  0  0  0  0  0  0  0  0
   -2.2853    0.9924    1.8315 H   0  0  0  0  0  0  0  0  0  0  0  0
    2.7753    1.4910   -0.3832 H   0  0  0  0  0  0  0  0  0  0  0  0
    4.8976    0.9242   -0.2193 H   0  0  0  0  0  0  0  0  0  0  0  0
    4.3353   -2.7664    0.5731 H   0  0  0  0  0  0  0  0  0  0  0  0
    6.1607   -4.3782    0.9529 H   0  0  0  0  0  0  0  0  0  0  0  0
    8.4097   -4.6491    1.0469 H   0  0  0  0  0  0  0  0  0  0  0  0
    9.0642   -1.2591    0.3289 H   0  0  0  0  0  0  0  0  0  0  0  0
    7.2409    0.3713   -0.0551 H   0  0  0  0  0  0  0  0  0  0  0  0
   -0.6397    5.7677   -1.4691 H   0  0  0  0  0  0  0  0  0  0  0  0
   -1.8334    6.9577   -1.7648 H   0  0  0  0  0  0  0  0  0  0  0  0
   -2.2233    0.1226   -2.3960 H   0  0  0  0  0  0  0  0  0  0  0  0
   -4.0195   -1.5292   -2.0666 H   0  0  0  0  0  0  0  0  0  0  0  0
  1  2  1  0
  2  3  1  0
  3  4  1  0
  4  5  2  0
  5  6  1  0
  6  7  2  0
  7  8  1  0
  8  9  2  0
  9 10  1  0
 10 11  2  0
 10 12  1  0
 12 13  1  0
 13 14  2  3
 14 15  1  0
 15 16  2  0
 16 17  1  0
 17 18  2  0
 18 19  1  0
 18 20  1  0
 20 21  2  0
  9 22  1  0
 22 23  2  0
 23 24  1  0
 24 25  1  0
 25 26  2  0
 26 27  1  0
 27 28  1  0
 28 29  2  0
 29 30  1  0
  7 31  1  0
 31 32  2  0
 32  4  1  0
 24  8  1  0
 29 25  1  0
 21 15  1  0
  1 33  1  0
  1 34  1  0
  1 35  1  0
  2 36  1  0
  2 37  1  0
  5 38  1  0
  6 39  1  0
 12 40  1  0
 14 41  1  0
 16 42  1  0
 17 43  1  0
 19 44  1  0
 20 45  1  0
 21 46  1  0
 30 47  1  0
 30 48  1  0
 31 49  1  0
 32 50  1  0
M  END
$$$$
