
     RDKit          3D

 56 60  0  0  0  0  0  0  0  0999 V2000
   -5.6140    0.4115    2.0294 C   0  0  0  0  0  0  0  0  0  0  0  0
   -4.1746    0.1781    1.6654 C   0  0  0  0  0  0  0  0  0  0  0  0
   -3.1909    0.9417    2.3125 C   0  0  0  0  0  0  0  0  0  0  0  0
   -1.8321    0.7490    2.0417 C   0  0  0  0  0  0  0  0  0  0  0  0
   -1.4017   -0.2182    1.1221 C   0  0  0  0  0  0  0  0  0  0  0  0
    0.0358   -0.4068    0.8533 C   0  0  0  0  0  0  0  0  0  0  0  0
    0.6634    0.7261    0.4711 N   0  0  0  0  0  0  0  0  0  0  0  0
    1.9940    0.7100    0.1557 N   0  0  0  0  0  0  0  0  0  0  0  0
    2.7088   -0.4328    0.2089 C   0  0  0  0  0  0  0  0  0  0  0  0
    4.0777   -0.4382   -0.1764 N   0  0  0  0  0  0  0  0  0  0  0  0
    4.9369    0.6712   -0.3610 C   0  0  0  0  0  0  0  0  0  0  0  0
    6.0564    0.5242   -1.2173 C   0  0  0  0  0  0  0  0  0  0  0  0
    6.9859    1.5554   -1.3932 C   0  0  0  0  0  0  0  0  0  0  0  0
    6.7913    2.7154   -0.6813 C   0  0  0  0  0  0  0  0  0  0  0  0
    5.7315    2.8619    0.1803 C   0  0  0  0  0  0  0  0  0  0  0  0
    4.7995    1.8611    0.3686 C   0  0  0  0  0  0  0  0  0  0  0  0
    5.7393    4.0725    0.8051 O   0  0  0  0  0  0  0  0  0  0  0  0
    6.9068    4.6793    0.2133 C   0  0  0  0  0  0  0  0  0  0  0  0
    7.5949    3.8131   -0.7132 O   0  0  0  0  0  0  0  0  0  0  0  0
    2.1057   -1.6396    0.6289 C   0  0  0  0  0  0  0  0  0  0  0  0
    2.8211   -2.8599    0.7417 C   0  0  0  0  0  0  0  0  0  0  0  0
    2.2094   -4.0371    1.1664 C   0  0  0  0  0  0  0  0  0  0  0  0
    0.8676   -4.0255    1.5098 C   0  0  0  0  0  0  0  0  0  0  0  0
    0.1422   -2.8370    1.4242 C   0  0  0  0  0  0  0  0  0  0  0  0
    0.7313   -1.6281    0.9700 C   0  0  0  0  0  0  0  0  0  0  0  0
   -2.3849   -0.9681    0.4575 C   0  0  0  0  0  0  0  0  0  0  0  0
   -3.7529   -0.7852    0.7306 C   0  0  0  0  0  0  0  0  0  0  0  0
   -4.9035   -1.8575   -0.1132 S   0  0  0  0  0  6  0  0  0  0  0  0
   -4.1653   -2.8366   -0.8777 O   0  0  0  0  0  0  0  0  0  0  0  0
   -5.9223   -2.2607    0.8293 O   0  0  0  0  0  0  0  0  0  0  0  0
   -5.6469   -0.8096   -1.2000 N   0  0  0  0  0  0  0  0  0  0  0  0
   -4.9857   -0.5884   -2.5031 C   0  0  0  0  0  0  0  0  0  0  0  0
   -5.5729    0.6733   -3.1377 C   0  0  0  0  0  0  0  0  0  0  0  0
   -5.3487    1.7997   -2.2916 O   0  0  0  0  0  0  0  0  0  0  0  0
   -5.7324    1.3331    2.6136 H   0  0  0  0  0  0  0  0  0  0  0  0
   -5.9901   -0.4127    2.6442 H   0  0  0  0  0  0  0  0  0  0  0  0
   -6.2350    0.5287    1.1350 H   0  0  0  0  0  0  0  0  0  0  0  0
   -3.4720    1.7008    3.0424 H   0  0  0  0  0  0  0  0  0  0  0  0
   -1.0987    1.3656    2.5618 H   0  0  0  0  0  0  0  0  0  0  0  0
    4.2017   -1.1320   -0.9068 H   0  0  0  0  0  0  0  0  0  0  0  0
    6.2103   -0.4079   -1.7578 H   0  0  0  0  0  0  0  0  0  0  0  0
    7.8363    1.4398   -2.0537 H   0  0  0  0  0  0  0  0  0  0  0  0
    3.9930    2.0080    1.0798 H   0  0  0  0  0  0  0  0  0  0  0  0
    7.6027    4.9580    1.0148 H   0  0  0  0  0  0  0  0  0  0  0  0
    6.6013    5.5898   -0.3189 H   0  0  0  0  0  0  0  0  0  0  0  0
    3.8847   -2.9007    0.5142 H   0  0  0  0  0  0  0  0  0  0  0  0
    2.7855   -4.9551    1.2411 H   0  0  0  0  0  0  0  0  0  0  0  0
    0.3835   -4.9351    1.8573 H   0  0  0  0  0  0  0  0  0  0  0  0
   -0.9013   -2.8678    1.7323 H   0  0  0  0  0  0  0  0  0  0  0  0
   -2.0769   -1.7076   -0.2817 H   0  0  0  0  0  0  0  0  0  0  0  0
   -6.6581   -0.9498   -1.1995 H   0  0  0  0  0  0  0  0  0  0  0  0
   -3.9102   -0.4528   -2.3527 H   0  0  0  0  0  0  0  0  0  0  0  0
   -5.1599   -1.4500   -3.1549 H   0  0  0  0  0  0  0  0  0  0  0  0
   -5.1077    0.8740   -4.1081 H   0  0  0  0  0  0  0  0  0  0  0  0
   -6.6548    0.5688   -3.2843 H   0  0  0  0  0  0  0  0  0  0  0  0
   -5.5049    1.4908   -1.3774 H   0  0  0  0  0  0  0  0  0  0  0  0
  1  2  1  0
  2  3  2  0
  3  4  1  0
  4  5  2  0
  5  6  1  0
  6  7  2  0
  7  8  1  0
  8  9  2  0
  9 10  1  0
 10 11  1  0
 11 12  2  0
 12 13  1  0
 13 14  2  0
 14 15  1  0
 15 16  2  0
 15 17  1  0
 17 18  1  0
 18 19  1  0
  9 20  1  0
 20 21  2  0
 21 22  1  0
 22 23  2  0
 23 24  1  0
 24 25  2  0
  5 26  1  0
 26 27  2  0
 27 28  1  0
 28 29  2  0
 28 30  2  0
 28 31  1  0
 31 32  1  0
 32 33  1  0
 33 34  1  0
 27  2  1  0
 25  6  1  0
 16 11  1  0
 25 20  1  0
 19 14  1  0
  1 35  1  0
  1 36  1  0
  1 37  1  0
  3 38  1  0
  4 39  1  0
 10 40  1  0
 12 41  1  0
 13 42  1  0
 16 43  1  0
 18 44  1  0
 18 45  1  0
 21 46  1  0
 22 47  1  0
 23 48  1  0
 24 49  1  0
 26 50  1  0
 31 51  1  0
 32 52  1  0
 32 53  1  0
 33 54  1  0
 33 55  1  0
 34 56  1  0
M  END
$$$$
