
     RDKit          3D

 51 54  0  0  0  0  0  0  0  0999 V2000
   -3.5402   -4.4460    2.2504 C   0  0  0  0  0  0  0  0  0  0  0  0
   -2.1340   -4.2322    2.2719 O   0  0  0  0  0  0  0  0  0  0  0  0
   -1.6822   -2.9888    1.9180 C   0  0  0  0  0  0  0  0  0  0  0  0
   -2.4884   -1.9224    1.5284 C   0  0  0  0  0  0  0  0  0  0  0  0
   -1.9163   -0.6748    1.2102 C   0  0  0  0  0  0  0  0  0  0  0  0
   -2.7954    0.4296    0.7970 C   0  0  0  0  0  0  0  0  0  0  0  0
   -4.0139    0.2754    0.8615 O   0  0  0  0  0  0  0  0  0  0  0  0
   -2.1771    1.5985    0.3844 N   0  0  0  0  0  0  0  0  0  0  0  0
   -3.0210    2.6523   -0.1602 C   0  0  0  0  0  0  0  0  0  0  0  0
   -2.9276    2.6410   -1.6485 C   0  0  0  0  0  0  0  0  0  0  0  0
   -2.3455    3.4910   -2.5675 C   0  0  0  0  0  0  0  0  0  0  0  0
   -2.5686    2.9149   -3.8426 C   0  0  0  0  0  0  0  0  0  0  0  0
   -3.2654    1.7517   -3.6193 C   0  0  0  0  0  0  0  0  0  0  0  0
   -3.4992    1.5802   -2.2930 O   0  0  0  0  0  0  0  0  0  0  0  0
   -0.8178    1.8516    0.4828 C   0  0  0  0  0  0  0  0  0  0  0  0
   -0.3356    2.9465    0.1760 O   0  0  0  0  0  0  0  0  0  0  0  0
   -0.0160    0.8233    0.9701 N   0  0  0  0  0  0  0  0  0  0  0  0
    1.4279    1.0772    1.0206 C   0  0  0  0  0  0  0  0  0  0  0  0
    2.1332    0.6105   -0.2550 C   0  0  0  0  0  0  0  0  0  0  0  0
    1.6281   -0.1908   -1.0414 O   0  0  0  0  0  0  0  0  0  0  0  0
    3.5184    1.1045   -0.5335 C   0  0  0  0  0  0  0  0  0  0  0  0
    4.2659    1.8181    0.4126 C   0  0  0  0  0  0  0  0  0  0  0  0
    5.5666    2.2357    0.1093 C   0  0  0  0  0  0  0  0  0  0  0  0
    6.1277    1.9437   -1.1339 C   0  0  0  0  0  0  0  0  0  0  0  0
    5.3861    1.2355   -2.0778 C   0  0  0  0  0  0  0  0  0  0  0  0
    6.1497    0.8324   -3.7634 Br  0  0  0  0  0  0  0  0  0  0  0  0
    4.0889    0.8152   -1.7854 C   0  0  0  0  0  0  0  0  0  0  0  0
   -0.5416   -0.4610    1.2829 C   0  0  0  0  0  0  0  0  0  0  0  0
    0.2656   -1.5384    1.6696 C   0  0  0  0  0  0  0  0  0  0  0  0
   -0.2983   -2.7859    1.9605 C   0  0  0  0  0  0  0  0  0  0  0  0
    0.5651   -3.7785    2.3576 O   0  0  0  0  0  0  0  0  0  0  0  0
    0.8154   -4.6788    1.2770 C   0  0  0  0  0  0  0  0  0  0  0  0
   -4.0489   -3.7902    2.9643 H   0  0  0  0  0  0  0  0  0  0  0  0
   -3.9421   -4.3201    1.2401 H   0  0  0  0  0  0  0  0  0  0  0  0
   -3.7277   -5.4790    2.5521 H   0  0  0  0  0  0  0  0  0  0  0  0
   -3.5679   -2.0255    1.4618 H   0  0  0  0  0  0  0  0  0  0  0  0
   -2.6914    3.6234    0.2294 H   0  0  0  0  0  0  0  0  0  0  0  0
   -4.0656    2.5237    0.1429 H   0  0  0  0  0  0  0  0  0  0  0  0
   -1.8114    4.4033   -2.3368 H   0  0  0  0  0  0  0  0  0  0  0  0
   -2.2450    3.2887   -4.8027 H   0  0  0  0  0  0  0  0  0  0  0  0
   -3.6435    0.9700   -4.2664 H   0  0  0  0  0  0  0  0  0  0  0  0
    1.5938    2.1560    1.1345 H   0  0  0  0  0  0  0  0  0  0  0  0
    1.8697    0.5943    1.8986 H   0  0  0  0  0  0  0  0  0  0  0  0
    3.8714    2.0605    1.3993 H   0  0  0  0  0  0  0  0  0  0  0  0
    6.1456    2.7848    0.8493 H   0  0  0  0  0  0  0  0  0  0  0  0
    7.1418    2.2675   -1.3586 H   0  0  0  0  0  0  0  0  0  0  0  0
    3.5180    0.2594   -2.5293 H   0  0  0  0  0  0  0  0  0  0  0  0
    1.3447   -1.4612    1.7376 H   0  0  0  0  0  0  0  0  0  0  0  0
    1.3259   -4.1656    0.4547 H   0  0  0  0  0  0  0  0  0  0  0  0
    1.4789   -5.4665    1.6481 H   0  0  0  0  0  0  0  0  0  0  0  0
   -0.1009   -5.1551    0.9149 H   0  0  0  0  0  0  0  0  0  0  0  0
  1  2  1  0
  2  3  1  0
  3  4  2  0
  4  5  1  0
  5  6  1  0
  6  7  2  0
  6  8  1  0
  8  9  1  0
  9 10  1  0
 10 11  2  0
 11 12  1  0
 12 13  2  0
 13 14  1  0
  8 15  1  0
 15 16  2  0
 15 17  1  0
 17 18  1  0
 18 19  1  0
 19 20  2  0
 19 21  1  0
 21 22  2  0
 22 23  1  0
 23 24  2  0
 24 25  1  0
 25 26  1  0
 25 27  2  0
 17 28  1  0
 28 29  1  0
 29 30  2  0
 30 31  1  0
 31 32  1  0
 30  3  1  0
 28  5  2  0
 14 10  1  0
 27 21  1  0
  1 33  1  0
  1 34  1  0
  1 35  1  0
  4 36  1  0
  9 37  1  0
  9 38  1  0
 11 39  1  0
 12 40  1  0
 13 41  1  0
 18 42  1  0
 18 43  1  0
 22 44  1  0
 23 45  1  0
 24 46  1  0
 27 47  1  0
 29 48  1  0
 32 49  1  0
 32 50  1  0
 32 51  1  0
M  END
$$$$
