
     RDKit          3D

 35 35  0  0  0  0  0  0  0  0999 V2000
   -3.1396    0.3671    0.6750 C   0  0  0  0  0  0  0  0  0  0  0  0
   -3.1938   -0.2260   -0.7419 C   0  0  0  0  0  0  0  0  0  0  0  0
   -4.5686    0.1311   -1.3342 C   0  0  0  0  0  0  0  0  0  0  0  0
   -2.0733    0.2439   -1.6006 N   0  0  0  0  0  0  0  0  0  0  0  0
   -2.1622   -0.2994   -2.9617 C   0  0  0  0  0  0  0  0  0  0  0  0
   -0.7462   -0.0812   -1.0312 C   0  0  0  0  0  0  0  0  0  0  0  0
   -0.0792    1.1449   -0.3890 C   0  0  0  0  0  0  0  0  0  0  0  0
    1.2733    0.8415    0.0008 O   0  0  0  0  0  0  0  0  0  0  0  0
    1.4067    0.2086    1.1896 C   0  0  0  0  0  0  0  0  0  0  0  0
    0.5140   -0.1928    1.9160 O   0  0  0  0  0  0  0  0  0  0  0  0
    2.8352   -0.0464    1.4401 C   0  0  0  0  0  0  0  0  0  0  0  0
    3.2156   -1.3851    1.6171 C   0  0  0  0  0  0  0  0  0  0  0  0
    4.5520   -1.7081    1.8525 C   0  0  0  0  0  0  0  0  0  0  0  0
    5.5089   -0.6970    1.9217 C   0  0  0  0  0  0  0  0  0  0  0  0
    5.1305    0.6388    1.7667 C   0  0  0  0  0  0  0  0  0  0  0  0
    3.7915    0.9710    1.5313 C   0  0  0  0  0  0  0  0  0  0  0  0
    3.3586    2.8160    1.4147 Br  0  0  0  0  0  0  0  0  0  0  0  0
   -4.0180    0.0647    1.2567 H   0  0  0  0  0  0  0  0  0  0  0  0
   -3.1208    1.4622    0.6480 H   0  0  0  0  0  0  0  0  0  0  0  0
   -2.2660    0.0166    1.2317 H   0  0  0  0  0  0  0  0  0  0  0  0
   -3.1461   -1.3196   -0.6490 H   0  0  0  0  0  0  0  0  0  0  0  0
   -4.7748   -0.4284   -2.2519 H   0  0  0  0  0  0  0  0  0  0  0  0
   -4.6403    1.2017   -1.5562 H   0  0  0  0  0  0  0  0  0  0  0  0
   -5.3729   -0.1190   -0.6330 H   0  0  0  0  0  0  0  0  0  0  0  0
   -1.3158    0.0417   -3.5700 H   0  0  0  0  0  0  0  0  0  0  0  0
   -2.1710   -1.3951   -2.9664 H   0  0  0  0  0  0  0  0  0  0  0  0
   -3.0514    0.0659   -3.4840 H   0  0  0  0  0  0  0  0  0  0  0  0
   -0.0561   -0.4332   -1.8115 H   0  0  0  0  0  0  0  0  0  0  0  0
   -0.7942   -0.9237   -0.3301 H   0  0  0  0  0  0  0  0  0  0  0  0
   -0.0128    1.9564   -1.1228 H   0  0  0  0  0  0  0  0  0  0  0  0
   -0.6386    1.5379    0.4662 H   0  0  0  0  0  0  0  0  0  0  0  0
    2.4697   -2.1764    1.5704 H   0  0  0  0  0  0  0  0  0  0  0  0
    4.8460   -2.7468    1.9852 H   0  0  0  0  0  0  0  0  0  0  0  0
    6.5511   -0.9472    2.1077 H   0  0  0  0  0  0  0  0  0  0  0  0
    5.8885    1.4155    1.8420 H   0  0  0  0  0  0  0  0  0  0  0  0
  1  2  1  0
  2  3  1  0
  2  4  1  0
  4  5  1  0
  4  6  1  0
  6  7  1  0
  7  8  1  0
  8  9  1  0
  9 10  2  0
  9 11  1  0
 11 12  2  0
 12 13  1  0
 13 14  2  0
 14 15  1  0
 15 16  2  0
 16 17  1  0
 16 11  1  0
  1 18  1  0
  1 19  1  0
  1 20  1  0
  2 21  1  0
  3 22  1  0
  3 23  1  0
  3 24  1  0
  5 25  1  0
  5 26  1  0
  5 27  1  0
  6 28  1  0
  6 29  1  0
  7 30  1  0
  7 31  1  0
 12 32  1  0
 13 33  1  0
 14 34  1  0
 15 35  1  0
M  END
$$$$
