
     RDKit          3D

 46 49  0  0  0  0  0  0  0  0999 V2000
   -4.4527   -4.2453    1.3958 C   0  0  0  0  0  0  0  0  0  0  0  0
   -3.7030   -3.0574    1.6155 O   0  0  0  0  0  0  0  0  0  0  0  0
   -3.4047   -2.3031    0.5135 C   0  0  0  0  0  0  0  0  0  0  0  0
   -3.7965   -2.5750   -0.7976 C   0  0  0  0  0  0  0  0  0  0  0  0
   -3.4184   -1.7181   -1.8351 C   0  0  0  0  0  0  0  0  0  0  0  0
   -2.6518   -0.5838   -1.5673 C   0  0  0  0  0  0  0  0  0  0  0  0
   -2.2620   -0.2971   -0.2562 C   0  0  0  0  0  0  0  0  0  0  0  0
   -1.4565    0.8825    0.0316 C   0  0  0  0  0  0  0  0  0  0  0  0
   -0.0837    1.0680   -0.0592 C   0  0  0  0  0  0  0  0  0  0  0  0
    0.9436    0.1247   -0.4938 C   0  0  0  0  0  0  0  0  0  0  0  0
    0.6907   -1.0097   -0.8859 O   0  0  0  0  0  0  0  0  0  0  0  0
    2.2189    0.6719   -0.4154 N   0  0  0  0  0  0  0  0  0  0  0  0
    3.3121   -0.0785   -0.7303 N   0  0  0  0  0  0  0  0  0  0  0  0
    4.5026    0.4512   -0.6936 C   0  0  0  0  0  0  0  0  0  0  0  0
    4.7551    1.9085   -0.3587 C   0  0  0  0  0  0  0  0  0  0  0  0
    5.6201   -0.4498   -0.9672 C   0  0  0  0  0  0  0  0  0  0  0  0
    5.5463   -1.7489   -1.4522 C   0  0  0  0  0  0  0  0  0  0  0  0
    6.8256   -2.3640   -1.5932 C   0  0  0  0  0  0  0  0  0  0  0  0
    7.8214   -1.5117   -1.1995 C   0  0  0  0  0  0  0  0  0  0  0  0
    9.5075   -1.8348   -1.1985 Cl  0  0  0  0  0  0  0  0  0  0  0  0
    7.2535   -0.0116   -0.6693 S   0  0  0  0  0  0  0  0  0  0  0  0
    0.2306    2.3405    0.3455 N   0  0  0  0  0  0  0  0  0  0  0  0
   -0.8875    2.9592    0.6760 N   0  0  0  0  0  0  0  0  0  0  0  0
   -1.9450    2.1133    0.4790 N   0  0  0  0  0  0  0  0  0  0  0  0
   -3.2782    2.5299    0.7268 C   0  0  0  0  0  0  0  0  0  0  0  0
   -4.3090    1.7042    0.5463 N   0  0  0  0  0  0  0  0  0  0  0  0
   -5.4219    2.4634    0.8999 O   0  0  0  0  0  0  0  0  0  0  0  0
   -5.0537    3.7470    1.2890 N   0  0  0  0  0  0  0  0  0  0  0  0
   -3.7272    3.7878    1.1724 C   0  0  0  0  0  0  0  0  0  0  0  0
   -2.9767    4.8724    1.4443 N   0  0  0  0  0  0  0  0  0  0  0  0
   -2.6360   -1.1653    0.7773 C   0  0  0  0  0  0  0  0  0  0  0  0
   -3.9114   -4.9401    0.7451 H   0  0  0  0  0  0  0  0  0  0  0  0
   -5.4450   -4.0167    0.9931 H   0  0  0  0  0  0  0  0  0  0  0  0
   -4.5920   -4.7364    2.3638 H   0  0  0  0  0  0  0  0  0  0  0  0
   -4.3917   -3.4463   -1.0484 H   0  0  0  0  0  0  0  0  0  0  0  0
   -3.7184   -1.9393   -2.8562 H   0  0  0  0  0  0  0  0  0  0  0  0
   -2.3594    0.0647   -2.3893 H   0  0  0  0  0  0  0  0  0  0  0  0
    2.3147    1.6109   -0.0434 H   0  0  0  0  0  0  0  0  0  0  0  0
    3.9925    2.5453   -0.8159 H   0  0  0  0  0  0  0  0  0  0  0  0
    5.7163    2.2636   -0.7348 H   0  0  0  0  0  0  0  0  0  0  0  0
    4.7246    2.0357    0.7273 H   0  0  0  0  0  0  0  0  0  0  0  0
    4.6059   -2.2341   -1.6948 H   0  0  0  0  0  0  0  0  0  0  0  0
    6.9922   -3.3699   -1.9572 H   0  0  0  0  0  0  0  0  0  0  0  0
   -1.9639    4.8100    1.5273 H   0  0  0  0  0  0  0  0  0  0  0  0
   -3.3965    5.6481    1.9460 H   0  0  0  0  0  0  0  0  0  0  0  0
   -2.3315   -0.9661    1.8019 H   0  0  0  0  0  0  0  0  0  0  0  0
  1  2  1  0
  2  3  1  0
  3  4  2  0
  4  5  1  0
  5  6  2  0
  6  7  1  0
  7  8  1  0
  8  9  2  0
  9 10  1  0
 10 11  2  0
 10 12  1  0
 12 13  1  0
 13 14  2  3
 14 15  1  0
 14 16  1  0
 16 17  2  0
 17 18  1  0
 18 19  2  0
 19 20  1  0
 19 21  1  0
  9 22  1  0
 22 23  2  0
 23 24  1  0
 24 25  1  0
 25 26  2  0
 26 27  1  0
 27 28  1  0
 28 29  2  0
 29 30  1  0
  7 31  2  0
 31  3  1  0
 24  8  1  0
 29 25  1  0
 21 16  1  0
  1 32  1  0
  1 33  1  0
  1 34  1  0
  4 35  1  0
  5 36  1  0
  6 37  1  0
 12 38  1  0
 15 39  1  0
 15 40  1  0
 15 41  1  0
 17 42  1  0
 18 43  1  0
 30 44  1  0
 30 45  1  0
 31 46  1  0
M  END
$$$$
