
     RDKit          3D

 43 46  0  0  0  0  0  0  0  0999 V2000
    6.4655    1.6020    1.3574 C   0  0  0  0  0  0  0  0  0  0  0  0
    5.0964    1.1124    0.9836 C   0  0  0  0  0  0  0  0  0  0  0  0
    4.4863    0.0903    1.7162 C   0  0  0  0  0  0  0  0  0  0  0  0
    3.1990   -0.3468    1.3900 C   0  0  0  0  0  0  0  0  0  0  0  0
    2.5031    0.2408    0.3272 C   0  0  0  0  0  0  0  0  0  0  0  0
    1.0574   -0.2570   -0.0322 C   0  0  0  0  0  0  0  0  0  0  0  0
    0.3209   -1.2160    0.6538 C   0  0  0  0  0  0  0  0  0  0  0  0
   -0.9299   -1.3504    0.0477 N   0  0  0  0  0  4  0  0  0  0  0  0
   -2.0041   -2.2525    0.4525 C   0  0  0  0  0  0  0  0  0  0  0  0
   -3.2172   -1.4419    0.8345 C   0  0  0  0  0  0  0  0  0  0  0  0
   -3.1650   -0.5235    1.8935 C   0  0  0  0  0  0  0  0  0  0  0  0
   -4.2910    0.2309    2.2367 C   0  0  0  0  0  0  0  0  0  0  0  0
   -5.4865    0.0791    1.5295 C   0  0  0  0  0  0  0  0  0  0  0  0
   -6.8298    1.0545    1.9989 Cl  0  0  0  0  0  0  0  0  0  0  0  0
   -5.5542   -0.8384    0.4779 C   0  0  0  0  0  0  0  0  0  0  0  0
   -6.9872   -1.0804   -0.4539 Cl  0  0  0  0  0  0  0  0  0  0  0  0
   -4.4262   -1.5973    0.1372 C   0  0  0  0  0  0  0  0  0  0  0  0
   -0.9536   -0.5218   -0.9918 C   0  0  0  0  0  0  0  0  0  0  0  0
    0.2107    0.1164   -1.0603 N   0  0  0  0  0  0  0  0  0  0  0  0
    0.2660    1.0255   -2.1969 C   0  0  0  0  0  0  0  0  0  0  0  0
   -0.9700    0.6191   -3.0459 C   0  0  0  0  0  0  0  0  0  0  0  0
   -1.8929   -0.1395   -2.0718 C   0  0  0  0  0  0  0  0  0  0  0  0
    3.1014    1.2744   -0.3940 C   0  0  0  0  0  0  0  0  0  0  0  0
    4.3890    1.7097   -0.0638 C   0  0  0  0  0  0  0  0  0  0  0  0
    6.3893    2.3669    2.1362 H   0  0  0  0  0  0  0  0  0  0  0  0
    6.9789    2.0307    0.4904 H   0  0  0  0  0  0  0  0  0  0  0  0
    7.0850    0.7782    1.7270 H   0  0  0  0  0  0  0  0  0  0  0  0
    5.0154   -0.3736    2.5476 H   0  0  0  0  0  0  0  0  0  0  0  0
    2.7759   -1.1500    1.9856 H   0  0  0  0  0  0  0  0  0  0  0  0
    0.5260   -1.8192    1.5219 H   0  0  0  0  0  0  0  0  0  0  0  0
   -2.2126   -2.9241   -0.3878 H   0  0  0  0  0  0  0  0  0  0  0  0
   -1.6812   -2.8648    1.3015 H   0  0  0  0  0  0  0  0  0  0  0  0
   -2.2487   -0.3844    2.4654 H   0  0  0  0  0  0  0  0  0  0  0  0
   -4.2324    0.9388    3.0621 H   0  0  0  0  0  0  0  0  0  0  0  0
   -4.5030   -2.3137   -0.6801 H   0  0  0  0  0  0  0  0  0  0  0  0
    0.1742    2.0525   -1.8316 H   0  0  0  0  0  0  0  0  0  0  0  0
    1.1907    0.8917   -2.7626 H   0  0  0  0  0  0  0  0  0  0  0  0
   -1.4596    1.4745   -3.5190 H   0  0  0  0  0  0  0  0  0  0  0  0
   -0.6466   -0.0652   -3.8393 H   0  0  0  0  0  0  0  0  0  0  0  0
   -2.3311   -1.0414   -2.5004 H   0  0  0  0  0  0  0  0  0  0  0  0
   -2.6445    0.5108   -1.6198 H   0  0  0  0  0  0  0  0  0  0  0  0
    2.5964    1.7787   -1.2073 H   0  0  0  0  0  0  0  0  0  0  0  0
    4.8398    2.5237   -0.6299 H   0  0  0  0  0  0  0  0  0  0  0  0
  1  2  1  0
  2  3  2  0
  3  4  1  0
  4  5  2  0
  5  6  1  0
  6  7  2  0
  7  8  1  0
  8  9  1  0
  9 10  1  0
 10 11  2  0
 11 12  1  0
 12 13  2  0
 13 14  1  0
 13 15  1  0
 15 16  1  0
 15 17  2  0
  8 18  2  0
 18 19  1  0
 19 20  1  0
 20 21  1  0
 21 22  1  0
  5 23  1  0
 23 24  2  0
 24  2  1  0
 19  6  1  0
 17 10  1  0
 22 18  1  0
  1 25  1  0
  1 26  1  0
  1 27  1  0
  3 28  1  0
  4 29  1  0
  7 30  1  0
  9 31  1  0
  9 32  1  0
 11 33  1  0
 12 34  1  0
 17 35  1  0
 20 36  1  0
 20 37  1  0
 21 38  1  0
 21 39  1  0
 22 40  1  0
 22 41  1  0
 23 42  1  0
 24 43  1  0
M  CHG  1   8   1
M  END
$$$$
