
     RDKit          3D

 38 40  0  0  0  0  0  0  0  0999 V2000
   -5.3916    2.8352    1.0717 C   0  0  0  0  0  0  0  0  0  0  0  0
   -4.5357    1.7421    0.5018 C   0  0  0  0  0  0  0  0  0  0  0  0
   -3.6331    2.0289   -0.5324 C   0  0  0  0  0  0  0  0  0  0  0  0
   -2.8508    1.0167   -1.0909 C   0  0  0  0  0  0  0  0  0  0  0  0
   -2.9698   -0.2883   -0.6077 C   0  0  0  0  0  0  0  0  0  0  0  0
   -1.9933   -1.5871   -1.3192 S   0  0  0  0  0  6  0  0  0  0  0  0
   -1.3700   -1.1002   -2.5305 O   0  0  0  0  0  0  0  0  0  0  0  0
   -2.8093   -2.7841   -1.3295 O   0  0  0  0  0  0  0  0  0  0  0  0
   -0.8068   -1.8479   -0.1394 N   0  0  0  0  0  0  0  0  0  0  0  0
    0.3384   -1.0051   -0.1514 C   0  0  0  0  0  0  0  0  0  0  0  0
    0.3018    0.2235    0.5037 C   0  0  0  0  0  0  0  0  0  0  0  0
    1.4121    1.0648    0.4563 C   0  0  0  0  0  0  0  0  0  0  0  0
    2.5519    0.6737   -0.2441 C   0  0  0  0  0  0  0  0  0  0  0  0
    3.5976    1.5560   -0.2260 O   0  0  0  0  0  0  0  0  0  0  0  0
    2.5962   -0.5541   -0.9210 C   0  0  0  0  0  0  0  0  0  0  0  0
    3.9842   -1.0853   -1.9113 S   0  0  0  0  0  0  0  0  0  0  0  0
    5.2253   -1.2739   -0.7071 C   0  0  0  0  0  0  0  0  0  0  0  0
    5.6847   -2.4845   -0.2738 N   0  0  0  0  0  0  0  0  0  0  0  0
    6.5989   -2.1552    0.6082 C   0  0  0  0  0  0  0  0  0  0  0  0
    6.6803   -0.8016    0.6942 N   0  0  0  0  0  0  0  0  0  0  0  0
    5.8094   -0.2087   -0.1426 N   0  0  0  0  0  0  0  0  0  0  0  0
    1.4704   -1.3879   -0.8736 C   0  0  0  0  0  0  0  0  0  0  0  0
   -3.8804   -0.5935    0.4074 C   0  0  0  0  0  0  0  0  0  0  0  0
   -4.6612    0.4234    0.9595 C   0  0  0  0  0  0  0  0  0  0  0  0
   -4.7860    3.7218    1.2856 H   0  0  0  0  0  0  0  0  0  0  0  0
   -5.8631    2.5253    2.0101 H   0  0  0  0  0  0  0  0  0  0  0  0
   -6.1805    3.1020    0.3612 H   0  0  0  0  0  0  0  0  0  0  0  0
   -3.5393    3.0446   -0.9120 H   0  0  0  0  0  0  0  0  0  0  0  0
   -2.1560    1.2530   -1.8943 H   0  0  0  0  0  0  0  0  0  0  0  0
   -0.6510   -2.8478   -0.0157 H   0  0  0  0  0  0  0  0  0  0  0  0
   -0.5775    0.5310    1.0626 H   0  0  0  0  0  0  0  0  0  0  0  0
    1.3936    2.0234    0.9676 H   0  0  0  0  0  0  0  0  0  0  0  0
    4.4122    1.0645   -0.4635 H   0  0  0  0  0  0  0  0  0  0  0  0
    7.2106   -2.8287    1.1916 H   0  0  0  0  0  0  0  0  0  0  0  0
    7.2798   -0.2304    1.2799 H   0  0  0  0  0  0  0  0  0  0  0  0
    1.4696   -2.3307   -1.4153 H   0  0  0  0  0  0  0  0  0  0  0  0
   -3.9893   -1.6142    0.7668 H   0  0  0  0  0  0  0  0  0  0  0  0
   -5.3723    0.1791    1.7459 H   0  0  0  0  0  0  0  0  0  0  0  0
  1  2  1  0
  2  3  2  0
  3  4  1  0
  4  5  2  0
  5  6  1  0
  6  7  2  0
  6  8  2  0
  6  9  1  0
  9 10  1  0
 10 11  2  0
 11 12  1  0
 12 13  2  0
 13 14  1  0
 13 15  1  0
 15 16  1  0
 16 17  1  0
 17 18  1  0
 18 19  2  0
 19 20  1  0
 20 21  1  0
 15 22  2  0
  5 23  1  0
 23 24  2  0
 24  2  1  0
 22 10  1  0
 21 17  2  0
  1 25  1  0
  1 26  1  0
  1 27  1  0
  3 28  1  0
  4 29  1  0
  9 30  1  0
 11 31  1  0
 12 32  1  0
 14 33  1  0
 19 34  1  0
 20 35  1  0
 22 36  1  0
 23 37  1  0
 24 38  1  0
M  END
$$$$
