
     RDKit          3D

 57 62  0  0  0  0  0  0  0  0999 V2000
    7.0640    2.0448    0.8180 C   0  0  0  0  0  0  0  0  0  0  0  0
    6.2768    1.0738    1.4970 O   0  0  0  0  0  0  0  0  0  0  0  0
    5.1061    0.6962    0.9041 C   0  0  0  0  0  0  0  0  0  0  0  0
    4.5433    1.2598   -0.2388 C   0  0  0  0  0  0  0  0  0  0  0  0
    3.3265    0.7757   -0.7383 C   0  0  0  0  0  0  0  0  0  0  0  0
    2.6661   -0.2809   -0.0994 C   0  0  0  0  0  0  0  0  0  0  0  0
    1.3050   -0.8155   -0.6702 C   0  0  0  0  0  0  0  0  0  0  0  0
    0.5943   -0.2836   -1.7377 C   0  0  0  0  0  0  0  0  0  0  0  0
   -0.6059   -0.9869   -1.8787 N   0  0  0  0  0  4  0  0  0  0  0  0
   -1.7127   -0.6427   -2.7892 C   0  0  0  0  0  0  0  0  0  0  0  0
   -2.3105    0.7377   -2.4539 C   0  0  0  0  0  0  0  0  0  0  0  0
   -2.4795    1.5802   -3.3335 O   0  0  0  0  0  0  0  0  0  0  0  0
   -2.5425    0.9303   -1.0840 N   0  0  0  0  0  0  0  0  0  0  0  0
   -1.8207    1.9460   -0.3613 C   0  0  0  0  0  0  0  0  0  0  0  0
   -1.2180    3.0180   -1.0516 C   0  0  0  0  0  0  0  0  0  0  0  0
   -0.4801    4.0035   -0.3866 C   0  0  0  0  0  0  0  0  0  0  0  0
   -0.3158    3.9372    0.9881 C   0  0  0  0  0  0  0  0  0  0  0  0
   -0.8865    2.8825    1.6932 C   0  0  0  0  0  0  0  0  0  0  0  0
   -1.6342    1.8918    1.0315 C   0  0  0  0  0  0  0  0  0  0  0  0
   -2.1952    0.5378    2.0307 S   0  0  0  0  0  0  0  0  0  0  0  0
   -3.4617   -0.1190    0.9876 C   0  0  0  0  0  0  0  0  0  0  0  0
   -4.4187   -0.9500    1.5944 C   0  0  0  0  0  0  0  0  0  0  0  0
   -5.4167   -1.5612    0.8393 C   0  0  0  0  0  0  0  0  0  0  0  0
   -5.4742   -1.3364   -0.5282 C   0  0  0  0  0  0  0  0  0  0  0  0
   -4.5259   -0.5112   -1.1376 C   0  0  0  0  0  0  0  0  0  0  0  0
   -3.4896    0.0978   -0.3971 C   0  0  0  0  0  0  0  0  0  0  0  0
   -0.5935   -1.9718   -0.9881 C   0  0  0  0  0  0  0  0  0  0  0  0
    0.5209   -1.8823   -0.2688 N   0  0  0  0  0  0  0  0  0  0  0  0
    0.6006   -2.9268    0.7421 C   0  0  0  0  0  0  0  0  0  0  0  0
   -0.5137   -3.9235    0.3193 C   0  0  0  0  0  0  0  0  0  0  0  0
   -1.4535   -3.1110   -0.5937 C   0  0  0  0  0  0  0  0  0  0  0  0
    3.2255   -0.8393    1.0486 C   0  0  0  0  0  0  0  0  0  0  0  0
    4.4378   -0.3483    1.5447 C   0  0  0  0  0  0  0  0  0  0  0  0
    7.9846    2.1905    1.3911 H   0  0  0  0  0  0  0  0  0  0  0  0
    7.3451    1.6959   -0.1810 H   0  0  0  0  0  0  0  0  0  0  0  0
    6.5451    3.0070    0.7685 H   0  0  0  0  0  0  0  0  0  0  0  0
    5.0252    2.0796   -0.7635 H   0  0  0  0  0  0  0  0  0  0  0  0
    2.9309    1.2435   -1.6347 H   0  0  0  0  0  0  0  0  0  0  0  0
    0.7690    0.5505   -2.3968 H   0  0  0  0  0  0  0  0  0  0  0  0
   -2.4805   -1.4189   -2.7569 H   0  0  0  0  0  0  0  0  0  0  0  0
   -1.3023   -0.6104   -3.8045 H   0  0  0  0  0  0  0  0  0  0  0  0
   -1.3358    3.1495   -2.1245 H   0  0  0  0  0  0  0  0  0  0  0  0
   -0.0512    4.8328   -0.9460 H   0  0  0  0  0  0  0  0  0  0  0  0
    0.2511    4.7038    1.5125 H   0  0  0  0  0  0  0  0  0  0  0  0
   -0.7373    2.8364    2.7711 H   0  0  0  0  0  0  0  0  0  0  0  0
   -4.3977   -1.1233    2.6699 H   0  0  0  0  0  0  0  0  0  0  0  0
   -6.1608   -2.1902    1.3243 H   0  0  0  0  0  0  0  0  0  0  0  0
   -6.2723   -1.7847   -1.1189 H   0  0  0  0  0  0  0  0  0  0  0  0
   -4.6560   -0.3134   -2.2010 H   0  0  0  0  0  0  0  0  0  0  0  0
    1.5815   -3.4078    0.7349 H   0  0  0  0  0  0  0  0  0  0  0  0
    0.3862   -2.4872    1.7209 H   0  0  0  0  0  0  0  0  0  0  0  0
   -1.0300   -4.3689    1.1741 H   0  0  0  0  0  0  0  0  0  0  0  0
   -0.0624   -4.7360   -0.2628 H   0  0  0  0  0  0  0  0  0  0  0  0
   -1.7606   -3.6502   -1.4902 H   0  0  0  0  0  0  0  0  0  0  0  0
   -2.3044   -2.7014   -0.0507 H   0  0  0  0  0  0  0  0  0  0  0  0
    2.7463   -1.6383    1.5981 H   0  0  0  0  0  0  0  0  0  0  0  0
    4.8688   -0.7820    2.4454 H   0  0  0  0  0  0  0  0  0  0  0  0
  1  2  1  0
  2  3  1  0
  3  4  2  0
  4  5  1  0
  5  6  2  0
  6  7  1  0
  7  8  2  0
  8  9  1  0
  9 10  1  0
 10 11  1  0
 11 12  2  0
 11 13  1  0
 13 14  1  0
 14 15  2  0
 15 16  1  0
 16 17  2  0
 17 18  1  0
 18 19  2  0
 19 20  1  0
 20 21  1  0
 21 22  2  0
 22 23  1  0
 23 24  2  0
 24 25  1  0
 25 26  2  0
  9 27  2  0
 27 28  1  0
 28 29  1  0
 29 30  1  0
 30 31  1  0
  6 32  1  0
 32 33  2  0
 33  3  1  0
 28  7  1  0
 26 13  1  0
 31 27  1  0
 19 14  1  0
 26 21  1  0
  1 34  1  0
  1 35  1  0
  1 36  1  0
  4 37  1  0
  5 38  1  0
  8 39  1  0
 10 40  1  0
 10 41  1  0
 15 42  1  0
 16 43  1  0
 17 44  1  0
 18 45  1  0
 22 46  1  0
 23 47  1  0
 24 48  1  0
 25 49  1  0
 29 50  1  0
 29 51  1  0
 30 52  1  0
 30 53  1  0
 31 54  1  0
 31 55  1  0
 32 56  1  0
 33 57  1  0
M  CHG  1   9   1
M  END
$$$$
