
     RDKit          3D

 56 61  0  0  0  0  0  0  0  0999 V2000
    5.8942   -0.6902   -0.0335 C   0  0  0  0  0  0  0  0  0  0  0  0
    4.5175   -0.5610   -0.6122 C   0  0  0  0  0  0  0  0  0  0  0  0
    4.3157   -0.2862   -1.9783 C   0  0  0  0  0  0  0  0  0  0  0  0
    5.6530   -0.0845   -3.0591 Cl  0  0  0  0  0  0  0  0  0  0  0  0
    3.0231   -0.1653   -2.5255 C   0  0  0  0  0  0  0  0  0  0  0  0
    1.8905   -0.3096   -1.7237 C   0  0  0  0  0  0  0  0  0  0  0  0
    2.0745   -0.5698   -0.3754 C   0  0  0  0  0  0  0  0  0  0  0  0
    3.3681   -0.6964    0.1578 C   0  0  0  0  0  0  0  0  0  0  0  0
    3.2866   -0.9809    1.5207 N   0  0  0  0  0  0  0  0  0  0  0  0
    1.9641   -1.0628    1.9522 C   0  0  0  0  0  0  0  0  0  0  0  0
    1.6071   -1.3642    3.0824 O   0  0  0  0  0  0  0  0  0  0  0  0
    1.0687   -0.7688    0.7237 C   0  0  0  0  0  0  0  0  0  0  0  0
    0.0819   -1.8749    0.4742 N   0  0  0  0  0  0  0  0  0  0  0  0
   -1.3146   -1.3050    0.4101 C   0  0  2  0  0  0  0  0  0  0  0  0
   -1.9680   -1.5726   -0.9566 C   0  0  0  0  0  0  0  0  0  0  0  0
   -2.4023   -3.0094   -1.1334 C   0  0  0  0  0  0  0  0  0  0  0  0
   -3.7039   -3.4081   -0.7993 C   0  0  0  0  0  0  0  0  0  0  0  0
   -4.0960   -4.7392   -0.9516 C   0  0  0  0  0  0  0  0  0  0  0  0
   -3.1919   -5.6833   -1.4349 C   0  0  0  0  0  0  0  0  0  0  0  0
   -1.8943   -5.2982   -1.7653 C   0  0  0  0  0  0  0  0  0  0  0  0
   -1.5005   -3.9681   -1.6147 C   0  0  0  0  0  0  0  0  0  0  0  0
   -1.1065    0.1355    0.6838 C   0  0  0  0  0  0  0  0  0  0  0  0
    0.2411    0.4352    0.8468 C   0  0  0  0  0  0  0  0  0  0  0  0
    0.3664    1.7605    1.1624 C   0  0  0  0  0  0  0  0  0  0  0  0
    1.4653    2.4096    1.5440 O   0  0  0  0  0  0  0  0  0  0  0  0
   -0.9197    2.3299    1.0782 N   0  0  0  0  0  0  0  0  0  0  0  0
   -1.2260    3.7261    1.1709 C   0  0  0  0  0  0  0  0  0  0  0  0
   -2.4530    4.1590    1.6944 C   0  0  0  0  0  0  0  0  0  0  0  0
   -2.7393    5.5245    1.7793 C   0  0  0  0  0  0  0  0  0  0  0  0
   -1.8078    6.4529    1.3332 C   0  0  0  0  0  0  0  0  0  0  0  0
   -2.0864    7.7603    1.4141 F   0  0  0  0  0  0  0  0  0  0  0  0
   -0.5930    6.0435    0.7988 C   0  0  0  0  0  0  0  0  0  0  0  0
   -0.2999    4.6801    0.7138 C   0  0  0  0  0  0  0  0  0  0  0  0
   -1.8375    1.2820    0.8644 C   0  0  0  0  0  0  0  0  0  0  0  0
   -3.1517    1.4764    0.7972 O   0  0  0  0  0  0  0  0  0  0  0  0
    6.4397    0.2532   -0.1391 H   0  0  0  0  0  0  0  0  0  0  0  0
    6.4468   -1.4890   -0.5389 H   0  0  0  0  0  0  0  0  0  0  0  0
    5.8805   -0.9378    1.0313 H   0  0  0  0  0  0  0  0  0  0  0  0
    2.8990    0.0448   -3.5857 H   0  0  0  0  0  0  0  0  0  0  0  0
    0.8959   -0.2138   -2.1464 H   0  0  0  0  0  0  0  0  0  0  0  0
    4.0625   -1.1381    2.1445 H   0  0  0  0  0  0  0  0  0  0  0  0
    0.1068   -2.4635    1.3104 H   0  0  0  0  0  0  0  0  0  0  0  0
   -1.9127   -1.7454    1.2181 H   0  0  0  0  0  0  0  0  0  0  0  0
   -2.8483   -0.9278   -1.0831 H   0  0  0  0  0  0  0  0  0  0  0  0
   -1.2954   -1.2912   -1.7779 H   0  0  0  0  0  0  0  0  0  0  0  0
   -4.4241   -2.6868   -0.4213 H   0  0  0  0  0  0  0  0  0  0  0  0
   -5.1077   -5.0408   -0.6935 H   0  0  0  0  0  0  0  0  0  0  0  0
   -3.4975   -6.7194   -1.5527 H   0  0  0  0  0  0  0  0  0  0  0  0
   -1.1863   -6.0336   -2.1384 H   0  0  0  0  0  0  0  0  0  0  0  0
   -0.4812   -3.6823   -1.8677 H   0  0  0  0  0  0  0  0  0  0  0  0
    1.2021    3.1835    2.0746 H   0  0  0  0  0  0  0  0  0  0  0  0
   -3.1908    3.4572    2.0737 H   0  0  0  0  0  0  0  0  0  0  0  0
   -3.6832    5.8662    2.1926 H   0  0  0  0  0  0  0  0  0  0  0  0
    0.1114    6.7863    0.4376 H   0  0  0  0  0  0  0  0  0  0  0  0
    0.6334    4.3856    0.2375 H   0  0  0  0  0  0  0  0  0  0  0  0
   -3.5766    0.6157    0.6406 H   0  0  0  0  0  0  0  0  0  0  0  0
  1  2  1  0
  2  3  2  0
  3  4  1  0
  3  5  1  0
  5  6  2  0
  6  7  1  0
  7  8  2  0
  8  9  1  0
  9 10  1  0
 10 11  2  0
 10 12  1  0
 12 13  1  0
 13 14  1  0
 14 15  1  0
 15 16  1  0
 16 17  2  0
 17 18  1  0
 18 19  2  0
 19 20  1  0
 20 21  2  0
 14 22  1  0
 22 23  1  0
 23 24  2  0
 24 25  1  0
 24 26  1  0
 26 27  1  0
 27 28  2  0
 28 29  1  0
 29 30  2  0
 30 31  1  0
 30 32  1  0
 32 33  2  0
 26 34  1  0
 34 35  1  0
  8  2  1  0
 23 12  1  0
 33 27  1  0
 12  7  1  0
 21 16  1  0
 34 22  2  0
  1 36  1  0
  1 37  1  0
  1 38  1  0
  5 39  1  0
  6 40  1  0
  9 41  1  0
 13 42  1  0
 14 43  1  1
 15 44  1  0
 15 45  1  0
 17 46  1  0
 18 47  1  0
 19 48  1  0
 20 49  1  0
 21 50  1  0
 25 51  1  0
 28 52  1  0
 29 53  1  0
 32 54  1  0
 33 55  1  0
 35 56  1  0
M  END
$$$$
