
     RDKit          3D

 50 53  0  0  0  0  0  0  0  0999 V2000
   -6.7912   -2.7547   -1.9341 C   0  0  0  0  0  0  0  0  0  0  0  0
   -5.9297   -1.8604   -1.0606 C   0  0  0  0  0  0  0  0  0  0  0  0
   -4.8316   -1.4027   -1.8478 O   0  0  0  0  0  0  0  0  0  0  0  0
   -3.9091   -0.6077   -1.2270 C   0  0  0  0  0  0  0  0  0  0  0  0
   -2.8155   -0.2552   -2.0201 C   0  0  0  0  0  0  0  0  0  0  0  0
   -1.8006    0.5620   -1.5153 C   0  0  0  0  0  0  0  0  0  0  0  0
   -1.8739    1.0504   -0.2062 C   0  0  0  0  0  0  0  0  0  0  0  0
   -0.8227    1.9107    0.3254 C   0  0  0  0  0  0  0  0  0  0  0  0
    0.5154    1.6120    0.5734 C   0  0  0  0  0  0  0  0  0  0  0  0
    1.2725    0.3984    0.2684 C   0  0  0  0  0  0  0  0  0  0  0  0
    0.8039   -0.5432   -0.3628 O   0  0  0  0  0  0  0  0  0  0  0  0
    2.5681    0.4567    0.7658 N   0  0  0  0  0  0  0  0  0  0  0  0
    3.4386   -0.5747    0.5760 N   0  0  0  0  0  0  0  0  0  0  0  0
    4.6152   -0.4079    1.0898 C   0  0  0  0  0  0  0  0  0  0  0  0
    5.6690   -1.4351    0.9695 C   0  0  0  0  0  0  0  0  0  0  0  0
    6.9203   -1.1899    1.5462 C   0  0  0  0  0  0  0  0  0  0  0  0
    7.9322   -2.1483    1.4442 C   0  0  0  0  0  0  0  0  0  0  0  0
    7.6818   -3.3396    0.7675 C   0  0  0  0  0  0  0  0  0  0  0  0
    8.6405   -4.3008    0.6448 O   0  0  0  0  0  0  0  0  0  0  0  0
    6.4399   -3.5889    0.1924 C   0  0  0  0  0  0  0  0  0  0  0  0
    5.4270   -2.6343    0.2922 C   0  0  0  0  0  0  0  0  0  0  0  0
    1.0980    2.6532    1.2421 N   0  0  0  0  0  0  0  0  0  0  0  0
    0.1836    3.5805    1.4398 N   0  0  0  0  0  0  0  0  0  0  0  0
   -0.9831    3.2128    0.8241 N   0  0  0  0  0  0  0  0  0  0  0  0
   -2.0871    4.1133    0.7782 C   0  0  0  0  0  0  0  0  0  0  0  0
   -2.0477    5.1627    1.6102 N   0  0  0  0  0  0  0  0  0  0  0  0
   -3.2417    5.8323    1.3989 O   0  0  0  0  0  0  0  0  0  0  0  0
   -3.9895    5.2129    0.4131 N   0  0  0  0  0  0  0  0  0  0  0  0
   -3.2652    4.1699    0.0057 C   0  0  0  0  0  0  0  0  0  0  0  0
   -3.6646    3.3969   -1.0195 N   0  0  0  0  0  0  0  0  0  0  0  0
   -2.9602    0.6769    0.5955 C   0  0  0  0  0  0  0  0  0  0  0  0
   -3.9756   -0.1420    0.0854 C   0  0  0  0  0  0  0  0  0  0  0  0
   -7.6519   -3.1330   -1.3755 H   0  0  0  0  0  0  0  0  0  0  0  0
   -6.2101   -3.6047   -2.3069 H   0  0  0  0  0  0  0  0  0  0  0  0
   -7.1516   -2.2060   -2.8105 H   0  0  0  0  0  0  0  0  0  0  0  0
   -5.5692   -2.4388   -0.2021 H   0  0  0  0  0  0  0  0  0  0  0  0
   -6.5304   -1.0103   -0.7172 H   0  0  0  0  0  0  0  0  0  0  0  0
   -2.7441   -0.6349   -3.0369 H   0  0  0  0  0  0  0  0  0  0  0  0
   -0.9490    0.7936   -2.1519 H   0  0  0  0  0  0  0  0  0  0  0  0
    2.8572    1.2861    1.2772 H   0  0  0  0  0  0  0  0  0  0  0  0
    4.8818    0.5119    1.6414 H   0  0  0  0  0  0  0  0  0  0  0  0
    7.1187   -0.2614    2.0748 H   0  0  0  0  0  0  0  0  0  0  0  0
    8.9003   -1.9510    1.8941 H   0  0  0  0  0  0  0  0  0  0  0  0
    9.4489   -3.9986    1.0899 H   0  0  0  0  0  0  0  0  0  0  0  0
    6.2594   -4.5233   -0.3321 H   0  0  0  0  0  0  0  0  0  0  0  0
    4.4561   -2.8312   -0.1579 H   0  0  0  0  0  0  0  0  0  0  0  0
   -4.4754    3.7084   -1.5473 H   0  0  0  0  0  0  0  0  0  0  0  0
   -3.0218    2.8580   -1.5875 H   0  0  0  0  0  0  0  0  0  0  0  0
   -3.0342    1.0153    1.6270 H   0  0  0  0  0  0  0  0  0  0  0  0
   -4.8014   -0.3965    0.7415 H   0  0  0  0  0  0  0  0  0  0  0  0
  1  2  1  0
  2  3  1  0
  3  4  1  0
  4  5  2  0
  5  6  1  0
  6  7  2  0
  7  8  1  0
  8  9  2  0
  9 10  1  0
 10 11  2  0
 10 12  1  0
 12 13  1  0
 13 14  2  3
 14 15  1  0
 15 16  2  0
 16 17  1  0
 17 18  2  0
 18 19  1  0
 18 20  1  0
 20 21  2  0
  9 22  1  0
 22 23  2  0
 23 24  1  0
 24 25  1  0
 25 26  2  0
 26 27  1  0
 27 28  1  0
 28 29  2  0
 29 30  1  0
  7 31  1  0
 31 32  2  0
 32  4  1  0
 24  8  1  0
 29 25  1  0
 21 15  1  0
  1 33  1  0
  1 34  1  0
  1 35  1  0
  2 36  1  0
  2 37  1  0
  5 38  1  0
  6 39  1  0
 12 40  1  0
 14 41  1  0
 16 42  1  0
 17 43  1  0
 19 44  1  0
 20 45  1  0
 21 46  1  0
 30 47  1  0
 30 48  1  0
 31 49  1  0
 32 50  1  0
M  END
$$$$
