
     RDKit          3D

 36 36  0  0  0  0  0  0  0  0999 V2000
    2.9114   -5.0189    2.0779 C   0  0  0  0  0  0  0  0  0  0  0  0
    1.4964   -4.5010    2.2403 C   0  0  0  0  0  0  0  0  0  0  0  0
    1.4731   -3.1293    1.8484 O   0  0  0  0  0  0  0  0  0  0  0  0
    0.1821   -2.5354    1.9641 C   0  0  0  0  0  0  0  0  0  0  0  0
   -0.6979   -2.8337    0.7520 C   0  0  0  0  0  0  0  0  0  0  0  0
   -0.0322   -2.4796   -0.5773 C   0  0  0  0  0  0  0  0  0  0  0  0
    0.2706   -1.0646   -0.6970 N   0  0  0  0  0  0  0  0  0  0  0  0
   -0.6877   -0.1463   -1.0619 C   0  0  0  0  0  0  0  0  0  0  0  0
   -1.8398   -0.4794   -1.3315 O   0  0  0  0  0  0  0  0  0  0  0  0
   -0.2545    1.2925   -1.1092 C   0  0  0  0  0  0  0  0  0  0  0  0
    1.0826    1.6245   -0.7793 C   0  0  0  0  0  0  0  0  0  0  0  0
    2.1841    1.8652   -0.5018 N   0  0  0  0  0  0  0  0  0  0  0  0
   -1.1991    2.1857   -1.4625 C   0  0  0  0  0  0  0  0  0  0  0  0
   -1.0570    3.6008   -1.5860 C   0  0  0  0  0  0  0  0  0  0  0  0
    0.0426    4.4609   -1.5911 C   0  0  0  0  0  0  0  0  0  0  0  0
   -0.4218    5.7927   -1.7603 C   0  0  0  0  0  0  0  0  0  0  0  0
   -1.7813    5.6821   -1.8604 C   0  0  0  0  0  0  0  0  0  0  0  0
   -2.8060    6.6595   -2.0488 N   0  0  0  0  0  4  0  0  0  0  0  0
   -3.9757    6.2649   -2.1475 O   0  0  0  0  0  0  0  0  0  0  0  0
   -2.4313    7.8386   -2.1033 O   0  0  0  0  0  1  0  0  0  0  0  0
   -2.1815    4.3921   -1.7620 O   0  0  0  0  0  0  0  0  0  0  0  0
    2.9764   -6.0721    2.3627 H   0  0  0  0  0  0  0  0  0  0  0  0
    3.6048   -4.4420    2.6978 H   0  0  0  0  0  0  0  0  0  0  0  0
    3.2451   -4.9106    1.0403 H   0  0  0  0  0  0  0  0  0  0  0  0
    1.1867   -4.5902    3.2873 H   0  0  0  0  0  0  0  0  0  0  0  0
    0.8156   -5.0861    1.6149 H   0  0  0  0  0  0  0  0  0  0  0  0
    0.3351   -1.4539    2.0462 H   0  0  0  0  0  0  0  0  0  0  0  0
   -0.3077   -2.8566    2.8911 H   0  0  0  0  0  0  0  0  0  0  0  0
   -1.6443   -2.2918    0.8583 H   0  0  0  0  0  0  0  0  0  0  0  0
   -0.9431   -3.9014    0.7331 H   0  0  0  0  0  0  0  0  0  0  0  0
    0.9064   -3.0268   -0.7079 H   0  0  0  0  0  0  0  0  0  0  0  0
   -0.6962   -2.7645   -1.4014 H   0  0  0  0  0  0  0  0  0  0  0  0
    1.2064   -0.7872   -0.4203 H   0  0  0  0  0  0  0  0  0  0  0  0
   -2.2072    1.8267   -1.6737 H   0  0  0  0  0  0  0  0  0  0  0  0
    1.0836    4.1832   -1.4932 H   0  0  0  0  0  0  0  0  0  0  0  0
    0.1614    6.7021   -1.8092 H   0  0  0  0  0  0  0  0  0  0  0  0
  1  2  1  0
  2  3  1  0
  3  4  1  0
  4  5  1  0
  5  6  1  0
  6  7  1  0
  7  8  1  0
  8  9  2  0
  8 10  1  0
 10 11  1  0
 11 12  3  0
 10 13  2  3
 13 14  1  0
 14 15  2  0
 15 16  1  0
 16 17  2  0
 17 18  1  0
 18 19  2  0
 18 20  1  0
 17 21  1  0
 21 14  1  0
  1 22  1  0
  1 23  1  0
  1 24  1  0
  2 25  1  0
  2 26  1  0
  4 27  1  0
  4 28  1  0
  5 29  1  0
  5 30  1  0
  6 31  1  0
  6 32  1  0
  7 33  1  0
 13 34  1  0
 15 35  1  0
 16 36  1  0
M  CHG  2  18   1  20  -1
M  END
$$$$
