
     RDKit          3D

 56 58  0  0  0  0  0  0  0  0999 V2000
    8.8372    0.5584    1.8509 C   0  0  0  0  0  0  0  0  0  0  0  0
    8.6526    1.3755    0.7024 O   0  0  0  0  0  0  0  0  0  0  0  0
    7.6869    0.9839   -0.1832 C   0  0  0  0  0  0  0  0  0  0  0  0
    6.9221   -0.1800   -0.1038 C   0  0  0  0  0  0  0  0  0  0  0  0
    5.9648   -0.4609   -1.0859 C   0  0  0  0  0  0  0  0  0  0  0  0
    5.7617    0.4152   -2.1613 C   0  0  0  0  0  0  0  0  0  0  0  0
    4.7140    0.1164   -3.2015 C   0  0  0  0  0  0  0  0  0  0  0  0
    3.4052    0.4851   -2.7307 N   0  0  0  0  0  0  0  0  0  0  0  0
    2.5151   -0.4283   -2.2215 C   0  0  0  0  0  0  0  0  0  0  0  0
    2.6508   -1.6438   -2.2068 O   0  0  0  0  0  0  0  0  0  0  0  0
    1.2391    0.2174   -1.6329 C   0  0  0  0  0  0  0  0  0  0  0  0
    1.0804    1.4287   -1.6944 O   0  0  0  0  0  0  0  0  0  0  0  0
    0.3595   -0.6919   -1.0932 N   0  0  0  0  0  0  0  0  0  0  0  0
   -0.9906   -0.3093   -0.7146 C   0  0  0  0  0  0  0  0  0  0  0  0
   -1.6810   -1.3735    0.1532 C   0  0  0  0  0  0  0  0  0  0  0  0
   -1.7487   -2.6108   -0.5894 O   0  0  0  0  0  0  0  0  0  0  0  0
   -2.9052   -3.2796   -0.0822 C   0  0  0  0  0  0  0  0  0  0  0  0
   -3.9122   -2.1639    0.0812 C   0  0  0  0  0  0  0  0  0  0  0  0
   -3.0830   -0.9965    0.4473 N   0  0  0  0  0  0  0  0  0  0  0  0
   -3.2858   -0.3629    2.0008 S   0  0  0  0  0  6  0  0  0  0  0  0
   -2.3820    0.7569    2.1457 O   0  0  0  0  0  0  0  0  0  0  0  0
   -3.2531   -1.4805    2.9224 O   0  0  0  0  0  0  0  0  0  0  0  0
   -4.9368    0.2794    1.9378 C   0  0  0  0  0  0  0  0  0  0  0  0
   -5.9529   -0.3168    2.6885 C   0  0  0  0  0  0  0  0  0  0  0  0
   -7.2466    0.2030    2.6242 C   0  0  0  0  0  0  0  0  0  0  0  0
   -7.5287    1.3112    1.8132 C   0  0  0  0  0  0  0  0  0  0  0  0
   -8.9142    1.8867    1.7776 C   0  0  0  0  0  0  0  0  0  0  0  0
   -6.4928    1.9135    1.0856 C   0  0  0  0  0  0  0  0  0  0  0  0
   -5.1970    1.3993    1.1443 C   0  0  0  0  0  0  0  0  0  0  0  0
    6.5266    1.5858   -2.2307 C   0  0  0  0  0  0  0  0  0  0  0  0
    7.4837    1.8613   -1.2506 C   0  0  0  0  0  0  0  0  0  0  0  0
    9.1812   -0.4437    1.5717 H   0  0  0  0  0  0  0  0  0  0  0  0
    7.9236    0.5104    2.4523 H   0  0  0  0  0  0  0  0  0  0  0  0
    9.6162    1.0190    2.4660 H   0  0  0  0  0  0  0  0  0  0  0  0
    7.0427   -0.8908    0.7066 H   0  0  0  0  0  0  0  0  0  0  0  0
    5.3715   -1.3712   -1.0059 H   0  0  0  0  0  0  0  0  0  0  0  0
    4.7428   -0.9447   -3.4728 H   0  0  0  0  0  0  0  0  0  0  0  0
    4.9063    0.6910   -4.1144 H   0  0  0  0  0  0  0  0  0  0  0  0
    3.1798    1.4662   -2.5882 H   0  0  0  0  0  0  0  0  0  0  0  0
    0.5452   -1.6688   -1.3122 H   0  0  0  0  0  0  0  0  0  0  0  0
   -0.9533    0.6575   -0.1996 H   0  0  0  0  0  0  0  0  0  0  0  0
   -1.5443   -0.1639   -1.6506 H   0  0  0  0  0  0  0  0  0  0  0  0
   -1.0998   -1.5758    1.0612 H   0  0  0  0  0  0  0  0  0  0  0  0
   -3.2360   -4.0512   -0.7808 H   0  0  0  0  0  0  0  0  0  0  0  0
   -2.6512   -3.7455    0.8763 H   0  0  0  0  0  0  0  0  0  0  0  0
   -4.6896   -2.4195    0.8041 H   0  0  0  0  0  0  0  0  0  0  0  0
   -4.3983   -1.9351   -0.8738 H   0  0  0  0  0  0  0  0  0  0  0  0
   -5.7494   -1.1762    3.3237 H   0  0  0  0  0  0  0  0  0  0  0  0
   -8.0358   -0.2594    3.2137 H   0  0  0  0  0  0  0  0  0  0  0  0
   -9.6650    1.0988    1.8979 H   0  0  0  0  0  0  0  0  0  0  0  0
   -9.1102    2.3779    0.8187 H   0  0  0  0  0  0  0  0  0  0  0  0
   -9.0376    2.6173    2.5829 H   0  0  0  0  0  0  0  0  0  0  0  0
   -6.6898    2.7903    0.4716 H   0  0  0  0  0  0  0  0  0  0  0  0
   -4.3992    1.8731    0.5769 H   0  0  0  0  0  0  0  0  0  0  0  0
    6.3861    2.2928   -3.0452 H   0  0  0  0  0  0  0  0  0  0  0  0
    8.0749    2.7722   -1.3171 H   0  0  0  0  0  0  0  0  0  0  0  0
  1  2  1  0
  2  3  1  0
  3  4  2  0
  4  5  1  0
  5  6  2  0
  6  7  1  0
  7  8  1  0
  8  9  1  0
  9 10  2  0
  9 11  1  0
 11 12  2  0
 11 13  1  0
 13 14  1  0
 14 15  1  0
 15 16  1  0
 16 17  1  0
 17 18  1  0
 18 19  1  0
 19 20  1  0
 20 21  2  0
 20 22  2  0
 20 23  1  0
 23 24  2  0
 24 25  1  0
 25 26  2  0
 26 27  1  0
 26 28  1  0
 28 29  2  0
  6 30  1  0
 30 31  2  0
 31  3  1  0
 19 15  1  0
 29 23  1  0
  1 32  1  0
  1 33  1  0
  1 34  1  0
  4 35  1  0
  5 36  1  0
  7 37  1  0
  7 38  1  0
  8 39  1  0
 13 40  1  0
 14 41  1  0
 14 42  1  0
 15 43  1  0
 17 44  1  0
 17 45  1  0
 18 46  1  0
 18 47  1  0
 24 48  1  0
 25 49  1  0
 27 50  1  0
 27 51  1  0
 27 52  1  0
 28 53  1  0
 29 54  1  0
 30 55  1  0
 31 56  1  0
M  END
$$$$
