
     RDKit          3D

 54 58  0  0  0  0  0  0  0  0999 V2000
    4.9898   -1.9159   -2.3248 F   0  0  0  0  0  0  0  0  0  0  0  0
    6.0519   -1.6489   -1.5154 C   0  0  0  0  0  0  0  0  0  0  0  0
    7.1560   -1.8154   -2.2998 F   0  0  0  0  0  0  0  0  0  0  0  0
    6.0982   -2.6586   -0.6025 F   0  0  0  0  0  0  0  0  0  0  0  0
    5.9705   -0.2813   -0.8697 C   0  0  0  0  0  0  0  0  0  0  0  0
    7.0501    0.6106   -1.0259 C   0  0  0  0  0  0  0  0  0  0  0  0
    7.0272    1.8795   -0.4477 C   0  0  0  0  0  0  0  0  0  0  0  0
    5.9259    2.2802    0.2990 C   0  0  0  0  0  0  0  0  0  0  0  0
    4.8481    1.4129    0.4692 C   0  0  0  0  0  0  0  0  0  0  0  0
    4.8540    0.1276   -0.1043 C   0  0  0  0  0  0  0  0  0  0  0  0
    3.6391   -0.7553    0.1109 C   0  0  0  0  0  0  0  0  0  0  0  0
    2.5013   -0.4148   -0.8700 C   0  0  0  0  0  0  0  0  0  0  0  0
    1.3346   -1.3058   -0.7402 N   0  0  0  0  0  0  0  0  0  0  0  0
    0.6936   -1.1926    0.5896 C   0  0  0  0  0  0  0  0  0  0  0  0
   -0.7890   -1.6283    0.6157 C   0  0  0  0  0  0  0  0  0  0  0  0
   -1.6045   -0.8193   -0.3015 N   0  0  0  0  0  0  0  0  0  0  0  0
   -2.8260   -0.2777    0.0855 C   0  0  0  0  0  0  0  0  0  0  0  0
   -3.1168    0.9343   -0.3223 N   0  0  0  0  0  0  0  0  0  0  0  0
   -4.3170    1.5593    0.0648 C   0  0  0  0  0  0  0  0  0  0  0  0
   -4.5643    2.8571   -0.3872 C   0  0  0  0  0  0  0  0  0  0  0  0
   -5.7341    3.5292   -0.0231 C   0  0  0  0  0  0  0  0  0  0  0  0
   -6.6714    2.9059    0.8012 C   0  0  0  0  0  0  0  0  0  0  0  0
   -6.4451    1.6092    1.2641 C   0  0  0  0  0  0  0  0  0  0  0  0
   -5.2696    0.9499    0.8915 C   0  0  0  0  0  0  0  0  0  0  0  0
   -4.9690   -0.3598    1.2985 N   0  0  0  0  0  0  0  0  0  0  0  0
   -5.7059   -1.2209    2.0768 C   0  0  0  0  0  0  0  0  0  0  0  0
   -5.0397   -2.4248    2.1358 C   0  0  0  0  0  0  0  0  0  0  0  0
   -3.8520   -2.2820    1.3817 C   0  0  0  0  0  0  0  0  0  0  0  0
   -3.8032   -0.9828    0.9053 C   0  0  0  0  0  0  0  0  0  0  0  0
   -0.8619   -0.1997   -1.4128 C   0  0  0  0  0  0  0  0  0  0  0  0
    0.3491   -1.0630   -1.8207 C   0  0  0  0  0  0  0  0  0  0  0  0
    7.9244    0.3169   -1.6065 H   0  0  0  0  0  0  0  0  0  0  0  0
    7.8698    2.5538   -0.5804 H   0  0  0  0  0  0  0  0  0  0  0  0
    5.9050    3.2688    0.7509 H   0  0  0  0  0  0  0  0  0  0  0  0
    3.9954    1.7465    1.0586 H   0  0  0  0  0  0  0  0  0  0  0  0
    3.3064   -0.6265    1.1487 H   0  0  0  0  0  0  0  0  0  0  0  0
    3.9092   -1.8130    0.0225 H   0  0  0  0  0  0  0  0  0  0  0  0
    2.9025   -0.5057   -1.8878 H   0  0  0  0  0  0  0  0  0  0  0  0
    2.1973    0.6337   -0.7494 H   0  0  0  0  0  0  0  0  0  0  0  0
    0.7420   -0.1555    0.9491 H   0  0  0  0  0  0  0  0  0  0  0  0
    1.2486   -1.8120    1.3034 H   0  0  0  0  0  0  0  0  0  0  0  0
   -1.1429   -1.5267    1.6478 H   0  0  0  0  0  0  0  0  0  0  0  0
   -0.8709   -2.6844    0.3335 H   0  0  0  0  0  0  0  0  0  0  0  0
   -3.8350    3.3454   -1.0280 H   0  0  0  0  0  0  0  0  0  0  0  0
   -5.9115    4.5391   -0.3840 H   0  0  0  0  0  0  0  0  0  0  0  0
   -7.5809    3.4321    1.0813 H   0  0  0  0  0  0  0  0  0  0  0  0
   -7.1901    1.1441    1.9007 H   0  0  0  0  0  0  0  0  0  0  0  0
   -6.6507   -0.9297    2.5119 H   0  0  0  0  0  0  0  0  0  0  0  0
   -5.3800   -3.3120    2.6543 H   0  0  0  0  0  0  0  0  0  0  0  0
   -3.1152   -3.0533    1.2055 H   0  0  0  0  0  0  0  0  0  0  0  0
   -1.5232   -0.0965   -2.2815 H   0  0  0  0  0  0  0  0  0  0  0  0
   -0.5219    0.8031   -1.1258 H   0  0  0  0  0  0  0  0  0  0  0  0
    0.8251   -0.6304   -2.7092 H   0  0  0  0  0  0  0  0  0  0  0  0
   -0.0232   -2.0464   -2.1373 H   0  0  0  0  0  0  0  0  0  0  0  0
  1  2  1  0
  2  3  1  0
  2  4  1  0
  2  5  1  0
  5  6  2  0
  6  7  1  0
  7  8  2  0
  8  9  1  0
  9 10  2  0
 10 11  1  0
 11 12  1  0
 12 13  1  0
 13 14  1  0
 14 15  1  0
 15 16  1  0
 16 17  1  0
 17 18  2  0
 18 19  1  0
 19 20  2  0
 20 21  1  0
 21 22  2  0
 22 23  1  0
 23 24  2  0
 24 25  1  0
 25 26  1  0
 26 27  2  0
 27 28  1  0
 28 29  2  0
 16 30  1  0
 30 31  1  0
 10  5  1  0
 31 13  1  0
 29 17  1  0
 24 19  1  0
 29 25  1  0
  6 32  1  0
  7 33  1  0
  8 34  1  0
  9 35  1  0
 11 36  1  0
 11 37  1  0
 12 38  1  0
 12 39  1  0
 14 40  1  0
 14 41  1  0
 15 42  1  0
 15 43  1  0
 20 44  1  0
 21 45  1  0
 22 46  1  0
 23 47  1  0
 26 48  1  0
 27 49  1  0
 28 50  1  0
 30 51  1  0
 30 52  1  0
 31 53  1  0
 31 54  1  0
M  END
$$$$
