
     RDKit          3D

 55 58  0  0  0  0  0  0  0  0999 V2000
    8.6020   -1.7186   -0.7211 C   0  0  0  0  0  0  0  0  0  0  0  0
    8.0129   -0.7035    0.0781 O   0  0  0  0  0  0  0  0  0  0  0  0
    6.6677   -0.4751   -0.0726 C   0  0  0  0  0  0  0  0  0  0  0  0
    5.8670   -1.0874   -1.0409 C   0  0  0  0  0  0  0  0  0  0  0  0
    4.5051   -0.7862   -1.1223 C   0  0  0  0  0  0  0  0  0  0  0  0
    3.9298    0.1355   -0.2413 C   0  0  0  0  0  0  0  0  0  0  0  0
    2.4671    0.4078   -0.3564 C   0  0  0  0  0  0  0  0  0  0  0  0
    2.0038    1.7948   -0.0288 C   0  0  0  0  0  0  0  0  0  0  0  0
    0.6786    2.0225   -0.1203 C   0  0  0  0  0  0  0  0  0  0  0  0
    0.0442    3.3289    0.1657 C   0  0  0  0  0  0  0  0  0  0  0  0
   -0.5697    3.8666   -0.9171 F   0  0  0  0  0  0  0  0  0  0  0  0
   -0.8676    3.2645    1.1684 F   0  0  0  0  0  0  0  0  0  0  0  0
    0.9680    4.2496    0.5649 F   0  0  0  0  0  0  0  0  0  0  0  0
   -0.1704    0.9952   -0.5134 N   0  0  0  0  0  0  0  0  0  0  0  0
   -1.5159    1.0272   -0.6602 N   0  0  0  0  0  0  0  0  0  0  0  0
   -1.8728   -0.2093   -1.0512 C   0  0  0  0  0  0  0  0  0  0  0  0
   -3.2592   -0.6289   -1.3645 C   0  0  0  0  0  0  0  0  0  0  0  0
   -3.4370   -1.6128   -2.0861 O   0  0  0  0  0  0  0  0  0  0  0  0
   -4.3431    0.0889   -0.8432 N   0  0  0  0  0  0  0  0  0  0  0  0
   -4.2302    1.1373    0.1607 C   0  0  0  0  0  0  0  0  0  0  0  0
   -5.6830   -0.2269   -1.3252 C   0  0  0  0  0  0  0  0  0  0  0  0
   -6.4788   -1.0557   -0.3420 C   0  0  0  0  0  0  0  0  0  0  0  0
   -7.5726   -0.5025    0.3418 C   0  0  0  0  0  0  0  0  0  0  0  0
   -8.3062   -1.2715    1.2484 C   0  0  0  0  0  0  0  0  0  0  0  0
   -7.9558   -2.5997    1.4808 C   0  0  0  0  0  0  0  0  0  0  0  0
   -6.8710   -3.1608    0.8087 C   0  0  0  0  0  0  0  0  0  0  0  0
   -6.1374   -2.3937   -0.0985 C   0  0  0  0  0  0  0  0  0  0  0  0
   -0.7297   -1.0355   -1.1871 C   0  0  0  0  0  0  0  0  0  0  0  0
    0.3446   -0.2631   -0.8250 C   0  0  0  0  0  0  0  0  0  0  0  0
    1.6757   -0.5505   -0.7479 N   0  0  0  0  0  0  0  0  0  0  0  0
    4.7228    0.7420    0.7414 C   0  0  0  0  0  0  0  0  0  0  0  0
    6.0914    0.4512    0.8219 C   0  0  0  0  0  0  0  0  0  0  0  0
    6.9410    0.9936    1.7550 O   0  0  0  0  0  0  0  0  0  0  0  0
    6.4682    2.0951    2.5188 C   0  0  0  0  0  0  0  0  0  0  0  0
    9.6546   -1.8022   -0.4323 H   0  0  0  0  0  0  0  0  0  0  0  0
    8.5692   -1.4523   -1.7826 H   0  0  0  0  0  0  0  0  0  0  0  0
    8.1287   -2.6899   -0.5404 H   0  0  0  0  0  0  0  0  0  0  0  0
    6.2692   -1.8043   -1.7485 H   0  0  0  0  0  0  0  0  0  0  0  0
    3.8961   -1.2787   -1.8792 H   0  0  0  0  0  0  0  0  0  0  0  0
    2.7130    2.5676    0.2379 H   0  0  0  0  0  0  0  0  0  0  0  0
   -3.9781    2.0775   -0.3387 H   0  0  0  0  0  0  0  0  0  0  0  0
   -5.1791    1.2655    0.6893 H   0  0  0  0  0  0  0  0  0  0  0  0
   -3.4704    0.8805    0.9037 H   0  0  0  0  0  0  0  0  0  0  0  0
   -6.1929    0.7217   -1.5374 H   0  0  0  0  0  0  0  0  0  0  0  0
   -5.6386   -0.7630   -2.2810 H   0  0  0  0  0  0  0  0  0  0  0  0
   -7.8610    0.5331    0.1741 H   0  0  0  0  0  0  0  0  0  0  0  0
   -9.1526   -0.8340    1.7720 H   0  0  0  0  0  0  0  0  0  0  0  0
   -8.5270   -3.1985    2.1855 H   0  0  0  0  0  0  0  0  0  0  0  0
   -6.5954   -4.1967    0.9887 H   0  0  0  0  0  0  0  0  0  0  0  0
   -5.2966   -2.8470   -0.6182 H   0  0  0  0  0  0  0  0  0  0  0  0
   -0.7023   -2.0685   -1.5043 H   0  0  0  0  0  0  0  0  0  0  0  0
    4.2636    1.4064    1.4625 H   0  0  0  0  0  0  0  0  0  0  0  0
    5.6859    1.7798    3.2171 H   0  0  0  0  0  0  0  0  0  0  0  0
    6.1180    2.9067    1.8723 H   0  0  0  0  0  0  0  0  0  0  0  0
    7.3062    2.4773    3.1088 H   0  0  0  0  0  0  0  0  0  0  0  0
  1  2  1  0
  2  3  1  0
  3  4  2  0
  4  5  1  0
  5  6  2  0
  6  7  1  0
  7  8  1  0
  8  9  2  0
  9 10  1  0
 10 11  1  0
 10 12  1  0
 10 13  1  0
  9 14  1  0
 14 15  1  0
 15 16  2  0
 16 17  1  0
 17 18  2  0
 17 19  1  0
 19 20  1  0
 19 21  1  0
 21 22  1  0
 22 23  2  0
 23 24  1  0
 24 25  2  0
 25 26  1  0
 26 27  2  0
 16 28  1  0
 28 29  2  0
 29 30  1  0
  6 31  1  0
 31 32  2  0
 32 33  1  0
 33 34  1  0
 32  3  1  0
 30  7  2  0
 29 14  1  0
 27 22  1  0
  1 35  1  0
  1 36  1  0
  1 37  1  0
  4 38  1  0
  5 39  1  0
  8 40  1  0
 20 41  1  0
 20 42  1  0
 20 43  1  0
 21 44  1  0
 21 45  1  0
 23 46  1  0
 24 47  1  0
 25 48  1  0
 26 49  1  0
 27 50  1  0
 28 51  1  0
 31 52  1  0
 34 53  1  0
 34 54  1  0
 34 55  1  0
M  END
$$$$
