
     RDKit          3D

 64 67  0  0  0  0  0  0  0  0999 V2000
    8.1690    0.0474    3.2350 C   0  0  0  0  0  0  0  0  0  0  0  0
    8.1208   -0.7283    2.0436 O   0  0  0  0  0  0  0  0  0  0  0  0
    7.0824   -0.4843    1.1888 C   0  0  0  0  0  0  0  0  0  0  0  0
    6.1145    0.5087    1.3318 C   0  0  0  0  0  0  0  0  0  0  0  0
    5.1038    0.6471    0.3718 C   0  0  0  0  0  0  0  0  0  0  0  0
    5.0525   -0.1956   -0.7465 C   0  0  0  0  0  0  0  0  0  0  0  0
    4.0128    0.0245   -1.6680 N   0  0  0  0  0  0  0  0  0  0  0  0
    3.7739   -0.6396   -2.8592 C   0  0  0  0  0  0  0  0  0  0  0  0
    4.4627   -1.5293   -3.3552 O   0  0  0  0  0  0  0  0  0  0  0  0
    2.5355   -0.1094   -3.5930 C   0  0  0  0  0  0  0  0  0  0  0  0
    1.2890   -0.3423   -2.8536 N   0  0  0  0  0  0  0  0  0  0  0  0
    0.7089   -1.6756   -2.9768 C   0  0  0  0  0  0  0  0  0  0  0  0
    0.9339    0.5834   -1.8893 C   0  0  0  0  0  0  0  0  0  0  0  0
    1.6256    1.5723   -1.6517 O   0  0  0  0  0  0  0  0  0  0  0  0
   -0.3049    0.3387   -1.1127 C   0  0  0  0  0  0  0  0  0  0  0  0
   -1.0206    1.3929   -0.6893 C   0  0  0  0  0  0  0  0  0  0  0  0
   -2.2215    1.3482    0.0812 C   0  0  0  0  0  0  0  0  0  0  0  0
   -2.6574    2.4107    0.8403 C   0  0  0  0  0  0  0  0  0  0  0  0
   -3.8195    2.0174    1.4638 N   0  0  0  0  0  0  0  0  0  0  0  0
   -4.6449    2.7801    2.3391 C   0  0  0  0  0  0  0  0  0  0  0  0
   -4.3366    4.1101    2.6581 C   0  0  0  0  0  0  0  0  0  0  0  0
   -5.1707    4.8367    3.5145 C   0  0  0  0  0  0  0  0  0  0  0  0
   -6.3111    4.2451    4.0549 C   0  0  0  0  0  0  0  0  0  0  0  0
   -6.6229    2.9225    3.7437 C   0  0  0  0  0  0  0  0  0  0  0  0
   -5.7946    2.1912    2.8891 C   0  0  0  0  0  0  0  0  0  0  0  0
   -4.1403    0.7405    1.1440 N   0  0  0  0  0  0  0  0  0  0  0  0
   -3.2042    0.3376    0.2729 C   0  0  0  0  0  0  0  0  0  0  0  0
   -3.3045   -0.9845   -0.3364 C   0  0  0  0  0  0  0  0  0  0  0  0
   -3.3709   -1.1251   -1.7282 C   0  0  0  0  0  0  0  0  0  0  0  0
   -3.4561   -2.3950   -2.3068 C   0  0  0  0  0  0  0  0  0  0  0  0
   -3.4738   -3.5397   -1.5025 C   0  0  0  0  0  0  0  0  0  0  0  0
   -3.5870   -4.9086   -2.1077 C   0  0  0  0  0  0  0  0  0  0  0  0
   -3.4310   -3.3948   -0.1105 C   0  0  0  0  0  0  0  0  0  0  0  0
   -3.3501   -2.1265    0.4695 C   0  0  0  0  0  0  0  0  0  0  0  0
    6.0163   -1.1930   -0.8796 C   0  0  0  0  0  0  0  0  0  0  0  0
    7.0239   -1.3325    0.0828 C   0  0  0  0  0  0  0  0  0  0  0  0
    7.2574   -0.0794    3.8297 H   0  0  0  0  0  0  0  0  0  0  0  0
    8.3532    1.1024    3.0078 H   0  0  0  0  0  0  0  0  0  0  0  0
    9.0075   -0.3163    3.8357 H   0  0  0  0  0  0  0  0  0  0  0  0
    6.1220    1.2007    2.1653 H   0  0  0  0  0  0  0  0  0  0  0  0
    4.3593    1.4293    0.5083 H   0  0  0  0  0  0  0  0  0  0  0  0
    3.3664    0.7845   -1.4506 H   0  0  0  0  0  0  0  0  0  0  0  0
    2.6743    0.9643   -3.7707 H   0  0  0  0  0  0  0  0  0  0  0  0
    2.4626   -0.5891   -4.5762 H   0  0  0  0  0  0  0  0  0  0  0  0
    0.8601   -2.0572   -3.9921 H   0  0  0  0  0  0  0  0  0  0  0  0
   -0.3639   -1.6606   -2.7804 H   0  0  0  0  0  0  0  0  0  0  0  0
    1.2014   -2.3387   -2.2586 H   0  0  0  0  0  0  0  0  0  0  0  0
   -0.5751   -0.6791   -0.8783 H   0  0  0  0  0  0  0  0  0  0  0  0
   -0.6459    2.3888   -0.9276 H   0  0  0  0  0  0  0  0  0  0  0  0
   -2.2302    3.3902    0.9902 H   0  0  0  0  0  0  0  0  0  0  0  0
   -3.4616    4.6128    2.2598 H   0  0  0  0  0  0  0  0  0  0  0  0
   -4.9291    5.8686    3.7579 H   0  0  0  0  0  0  0  0  0  0  0  0
   -6.9565    4.8145    4.7189 H   0  0  0  0  0  0  0  0  0  0  0  0
   -7.5114    2.4568    4.1634 H   0  0  0  0  0  0  0  0  0  0  0  0
   -6.0576    1.1590    2.6601 H   0  0  0  0  0  0  0  0  0  0  0  0
   -3.3691   -0.2466   -2.3692 H   0  0  0  0  0  0  0  0  0  0  0  0
   -3.5171   -2.4823   -3.3888 H   0  0  0  0  0  0  0  0  0  0  0  0
   -4.5818   -5.3202   -1.9163 H   0  0  0  0  0  0  0  0  0  0  0  0
   -2.8347   -5.5775   -1.6751 H   0  0  0  0  0  0  0  0  0  0  0  0
   -3.4243   -4.8827   -3.1900 H   0  0  0  0  0  0  0  0  0  0  0  0
   -3.4714   -4.2708    0.5326 H   0  0  0  0  0  0  0  0  0  0  0  0
   -3.3305   -2.0315    1.5532 H   0  0  0  0  0  0  0  0  0  0  0  0
    6.0155   -1.8833   -1.7155 H   0  0  0  0  0  0  0  0  0  0  0  0
    7.7775   -2.1078   -0.0409 H   0  0  0  0  0  0  0  0  0  0  0  0
  1  2  1  0
  2  3  1  0
  3  4  2  0
  4  5  1  0
  5  6  2  0
  6  7  1  0
  7  8  1  0
  8  9  2  0
  8 10  1  0
 10 11  1  0
 11 12  1  0
 11 13  1  0
 13 14  2  0
 13 15  1  0
 15 16  2  3
 16 17  1  0
 17 18  2  0
 18 19  1  0
 19 20  1  0
 20 21  2  0
 21 22  1  0
 22 23  2  0
 23 24  1  0
 24 25  2  0
 19 26  1  0
 26 27  2  0
 27 28  1  0
 28 29  2  0
 29 30  1  0
 30 31  2  0
 31 32  1  0
 31 33  1  0
 33 34  2  0
  6 35  1  0
 35 36  2  0
 36  3  1  0
 27 17  1  0
 34 28  1  0
 25 20  1  0
  1 37  1  0
  1 38  1  0
  1 39  1  0
  4 40  1  0
  5 41  1  0
  7 42  1  0
 10 43  1  0
 10 44  1  0
 12 45  1  0
 12 46  1  0
 12 47  1  0
 15 48  1  0
 16 49  1  0
 18 50  1  0
 21 51  1  0
 22 52  1  0
 23 53  1  0
 24 54  1  0
 25 55  1  0
 29 56  1  0
 30 57  1  0
 32 58  1  0
 32 59  1  0
 32 60  1  0
 33 61  1  0
 34 62  1  0
 35 63  1  0
 36 64  1  0
M  END
$$$$
