
     RDKit          3D

 45 48  0  0  0  0  0  0  0  0999 V2000
    0.4189   -3.8033   -0.1680 C   0  0  0  0  0  0  0  0  0  0  0  0
    1.5992   -3.0759   -0.7865 C   0  0  0  0  0  0  0  0  0  0  0  0
    1.5743   -1.7277   -0.3237 O   0  0  0  0  0  0  0  0  0  0  0  0
    2.5056   -0.8531   -0.8267 C   0  0  0  0  0  0  0  0  0  0  0  0
    3.5840   -1.2446   -1.6330 C   0  0  0  0  0  0  0  0  0  0  0  0
    4.5228   -0.3084   -2.0711 C   0  0  0  0  0  0  0  0  0  0  0  0
    4.3999    1.0257   -1.7043 C   0  0  0  0  0  0  0  0  0  0  0  0
    3.3313    1.4257   -0.9022 C   0  0  0  0  0  0  0  0  0  0  0  0
    2.3611    0.5033   -0.4551 C   0  0  0  0  0  0  0  0  0  0  0  0
    1.2439    0.9805    0.3729 C   0  0  0  0  0  0  0  0  0  0  0  0
    1.5529    1.7991    1.4065 N   0  0  0  0  0  0  0  0  0  0  0  0
    0.5078    2.2460    2.1465 C   0  0  0  0  0  0  0  0  0  0  0  0
    0.8286    3.1357    3.2969 C   0  0  0  0  0  0  0  0  0  0  0  0
    2.1590    3.3903    3.4943 N   0  0  0  0  0  0  0  0  0  0  0  0
   -0.0360    3.6083    4.0241 O   0  0  0  0  0  0  0  0  0  0  0  0
   -0.7807    1.9049    1.8598 C   0  0  0  0  0  0  0  0  0  0  0  0
   -1.9917    2.2323    2.4472 N   0  0  0  0  0  0  0  0  0  0  0  0
   -3.0204    1.6054    1.7316 C   0  0  0  0  0  0  0  0  0  0  0  0
   -4.1986    1.7145    2.0289 O   0  0  0  0  0  0  0  0  0  0  0  0
   -2.3949    0.8725    0.6755 N   0  0  0  0  0  0  0  0  0  0  0  0
   -3.0362    0.0737   -0.3120 C   0  0  0  0  0  0  0  0  0  0  0  0
   -2.3283   -0.7093   -1.2420 C   0  0  0  0  0  0  0  0  0  0  0  0
   -2.9869   -1.4885   -2.2033 C   0  0  0  0  0  0  0  0  0  0  0  0
   -4.3701   -1.4987   -2.2495 C   0  0  0  0  0  0  0  0  0  0  0  0
   -4.9998   -2.2434   -3.1668 F   0  0  0  0  0  0  0  0  0  0  0  0
   -5.1049   -0.7447   -1.3515 C   0  0  0  0  0  0  0  0  0  0  0  0
   -4.4414    0.0324   -0.3926 C   0  0  0  0  0  0  0  0  0  0  0  0
   -0.9950    1.0815    0.7815 C   0  0  0  0  0  0  0  0  0  0  0  0
   -0.0066    0.6207    0.0121 N   0  0  0  0  0  0  0  0  0  0  0  0
   -0.5230   -3.3247   -0.4544 H   0  0  0  0  0  0  0  0  0  0  0  0
    0.3944   -4.8489   -0.4874 H   0  0  0  0  0  0  0  0  0  0  0  0
    0.4741   -3.7683    0.9251 H   0  0  0  0  0  0  0  0  0  0  0  0
    1.5071   -3.1078   -1.8783 H   0  0  0  0  0  0  0  0  0  0  0  0
    2.5259   -3.5674   -0.4698 H   0  0  0  0  0  0  0  0  0  0  0  0
    3.7297   -2.2778   -1.9311 H   0  0  0  0  0  0  0  0  0  0  0  0
    5.3547   -0.6259   -2.6954 H   0  0  0  0  0  0  0  0  0  0  0  0
    5.1315    1.7554   -2.0420 H   0  0  0  0  0  0  0  0  0  0  0  0
    3.2462    2.4765   -0.6289 H   0  0  0  0  0  0  0  0  0  0  0  0
    2.8573    2.9474    2.9072 H   0  0  0  0  0  0  0  0  0  0  0  0
    2.4456    3.9540    4.2822 H   0  0  0  0  0  0  0  0  0  0  0  0
   -2.1177    2.8270    3.2580 H   0  0  0  0  0  0  0  0  0  0  0  0
   -1.2453   -0.7594   -1.2508 H   0  0  0  0  0  0  0  0  0  0  0  0
   -2.4196   -2.0861   -2.9096 H   0  0  0  0  0  0  0  0  0  0  0  0
   -6.1893   -0.7581   -1.3947 H   0  0  0  0  0  0  0  0  0  0  0  0
   -5.0694    0.6090    0.2804 H   0  0  0  0  0  0  0  0  0  0  0  0
  1  2  1  0
  2  3  1  0
  3  4  1  0
  4  5  2  0
  5  6  1  0
  6  7  2  0
  7  8  1  0
  8  9  2  0
  9 10  1  0
 10 11  2  0
 11 12  1  0
 12 13  1  0
 13 14  1  0
 13 15  2  0
 12 16  2  0
 16 17  1  0
 17 18  1  0
 18 19  2  0
 18 20  1  0
 20 21  1  0
 21 22  2  0
 22 23  1  0
 23 24  2  0
 24 25  1  0
 24 26  1  0
 26 27  2  0
 20 28  1  0
 28 29  2  0
  9  4  1  0
 29 10  1  0
 28 16  1  0
 27 21  1  0
  1 30  1  0
  1 31  1  0
  1 32  1  0
  2 33  1  0
  2 34  1  0
  5 35  1  0
  6 36  1  0
  7 37  1  0
  8 38  1  0
 14 39  1  0
 14 40  1  0
 17 41  1  0
 22 42  1  0
 23 43  1  0
 26 44  1  0
 27 45  1  0
M  END
$$$$
