
     RDKit          3D

 44 46  0  0  0  0  0  0  0  0999 V2000
   -6.4325    2.8060   -0.9745 C   0  0  0  0  0  0  0  0  0  0  0  0
   -6.0646    1.4469   -1.1726 O   0  0  0  0  0  0  0  0  0  0  0  0
   -4.7450    1.1229   -1.0125 C   0  0  0  0  0  0  0  0  0  0  0  0
   -3.7078    2.0554   -0.9146 C   0  0  0  0  0  0  0  0  0  0  0  0
   -2.3852    1.6344   -0.7268 C   0  0  0  0  0  0  0  0  0  0  0  0
   -2.0812    0.2742   -0.6161 C   0  0  0  0  0  0  0  0  0  0  0  0
   -0.7029   -0.1962   -0.4307 C   0  0  0  0  0  0  0  0  0  0  0  0
    0.0968    0.0870    0.6182 C   0  0  0  0  0  0  0  0  0  0  0  0
   -0.3213    0.9012    1.7058 C   0  0  0  0  0  0  0  0  0  0  0  0
   -0.5927    1.5542    2.6266 N   0  0  0  0  0  0  0  0  0  0  0  0
    1.4854   -0.5003    0.6053 C   0  0  0  0  0  0  0  0  0  0  0  0
    1.8358   -1.2208   -0.3262 O   0  0  0  0  0  0  0  0  0  0  0  0
    2.2599   -0.2036    1.7150 N   0  0  0  0  0  0  0  0  0  0  0  0
    3.5991   -0.6220    1.9461 C   0  0  0  0  0  0  0  0  0  0  0  0
    3.8898   -0.9190    3.2862 C   0  0  0  0  0  0  0  0  0  0  0  0
    5.1417   -1.3970    3.6483 C   0  0  0  0  0  0  0  0  0  0  0  0
    6.1212   -1.5609    2.6732 C   0  0  0  0  0  0  0  0  0  0  0  0
    5.8997   -1.2231    1.3482 C   0  0  0  0  0  0  0  0  0  0  0  0
    6.9366   -1.3704    0.5034 N   0  0  0  0  0  0  0  0  0  0  0  0
    6.7772   -0.9874   -0.7792 C   0  0  0  0  0  0  0  0  0  0  0  0
    5.6174   -0.4288   -1.2643 C   0  0  0  0  0  0  0  0  0  0  0  0
    4.5491   -0.2821   -0.3827 C   0  0  0  0  0  0  0  0  0  0  0  0
    4.6333   -0.7171    0.9616 C   0  0  0  0  0  0  0  0  0  0  0  0
   -3.1108   -0.6622   -0.7287 C   0  0  0  0  0  0  0  0  0  0  0  0
   -4.4265   -0.2426   -0.9477 C   0  0  0  0  0  0  0  0  0  0  0  0
   -5.3640   -1.2438   -1.0212 O   0  0  0  0  0  0  0  0  0  0  0  0
   -6.0295   -1.2606   -2.2847 C   0  0  0  0  0  0  0  0  0  0  0  0
   -7.5241    2.8644   -1.0147 H   0  0  0  0  0  0  0  0  0  0  0  0
   -6.1168    3.1674    0.0099 H   0  0  0  0  0  0  0  0  0  0  0  0
   -6.0364    3.4393   -1.7748 H   0  0  0  0  0  0  0  0  0  0  0  0
   -3.8925    3.1229   -0.9825 H   0  0  0  0  0  0  0  0  0  0  0  0
   -1.6019    2.3874   -0.6704 H   0  0  0  0  0  0  0  0  0  0  0  0
   -0.3495   -0.8454   -1.2322 H   0  0  0  0  0  0  0  0  0  0  0  0
    1.7695    0.0959    2.5504 H   0  0  0  0  0  0  0  0  0  0  0  0
    3.1325   -0.8214    4.0624 H   0  0  0  0  0  0  0  0  0  0  0  0
    5.3568   -1.6502    4.6843 H   0  0  0  0  0  0  0  0  0  0  0  0
    7.0998   -1.9417    2.9591 H   0  0  0  0  0  0  0  0  0  0  0  0
    7.6428   -1.1341   -1.4195 H   0  0  0  0  0  0  0  0  0  0  0  0
    5.5390   -0.1116   -2.2969 H   0  0  0  0  0  0  0  0  0  0  0  0
    3.6506    0.1934   -0.7610 H   0  0  0  0  0  0  0  0  0  0  0  0
   -2.9046   -1.7276   -0.6557 H   0  0  0  0  0  0  0  0  0  0  0  0
   -6.9349   -0.6434   -2.2540 H   0  0  0  0  0  0  0  0  0  0  0  0
   -6.3343   -2.2929   -2.4819 H   0  0  0  0  0  0  0  0  0  0  0  0
   -5.3750   -0.9465   -3.1097 H   0  0  0  0  0  0  0  0  0  0  0  0
  1  2  1  0
  2  3  1  0
  3  4  2  0
  4  5  1  0
  5  6  2  0
  6  7  1  0
  7  8  2  3
  8  9  1  0
  9 10  3  0
  8 11  1  0
 11 12  2  0
 11 13  1  0
 13 14  1  0
 14 15  2  0
 15 16  1  0
 16 17  2  0
 17 18  1  0
 18 19  2  0
 19 20  1  0
 20 21  2  0
 21 22  1  0
 22 23  2  0
  6 24  1  0
 24 25  2  0
 25 26  1  0
 26 27  1  0
 25  3  1  0
 23 14  1  0
 23 18  1  0
  1 28  1  0
  1 29  1  0
  1 30  1  0
  4 31  1  0
  5 32  1  0
  7 33  1  0
 13 34  1  0
 15 35  1  0
 16 36  1  0
 17 37  1  0
 20 38  1  0
 21 39  1  0
 22 40  1  0
 24 41  1  0
 27 42  1  0
 27 43  1  0
 27 44  1  0
M  END
$$$$
