
     RDKit          3D

 58 61  0  0  0  0  0  0  0  0999 V2000
   -5.3332    5.1842   -0.1813 C   0  0  0  0  0  0  0  0  0  0  0  0
   -5.1495    3.8016   -0.4574 O   0  0  0  0  0  0  0  0  0  0  0  0
   -4.2870    3.1176    0.3552 C   0  0  0  0  0  0  0  0  0  0  0  0
   -3.5686    3.6537    1.4240 C   0  0  0  0  0  0  0  0  0  0  0  0
   -2.7145    2.8403    2.1727 C   0  0  0  0  0  0  0  0  0  0  0  0
   -2.5756    1.4885    1.8569 C   0  0  0  0  0  0  0  0  0  0  0  0
   -3.2905    0.9349    0.7886 C   0  0  0  0  0  0  0  0  0  0  0  0
   -3.1290   -0.4835    0.4444 C   0  0  0  0  0  0  0  0  0  0  0  0
   -4.4864   -1.5150    0.5950 S   0  0  0  0  0  0  0  0  0  0  0  0
   -3.6055   -2.9004    0.0953 C   0  0  0  0  0  0  0  0  0  0  0  0
   -4.0988   -4.2129   -0.0353 C   0  0  0  0  0  0  0  0  0  0  0  0
   -3.2372   -5.2294   -0.4630 C   0  0  0  0  0  0  0  0  0  0  0  0
   -1.9100   -4.9526   -0.7601 C   0  0  0  0  0  0  0  0  0  0  0  0
   -0.9752   -5.8558   -1.1873 O   0  0  0  0  0  0  0  0  0  0  0  0
   -1.4097   -7.1980   -1.3654 C   0  0  0  0  0  0  0  0  0  0  0  0
   -1.4328   -3.6432   -0.6256 C   0  0  0  0  0  0  0  0  0  0  0  0
   -2.2760   -2.5876   -0.1877 C   0  0  0  0  0  0  0  0  0  0  0  0
   -2.0060   -1.1808    0.0230 C   0  0  0  0  0  0  0  0  0  0  0  0
   -0.7171   -0.5223   -0.1726 C   0  0  0  0  0  0  0  0  0  0  0  0
   -0.5493    0.4316   -1.1801 C   0  0  0  0  0  0  0  0  0  0  0  0
    0.6897    1.0532   -1.3542 C   0  0  0  0  0  0  0  0  0  0  0  0
    1.7731    0.7286   -0.5336 C   0  0  0  0  0  0  0  0  0  0  0  0
    2.9249    1.4106   -0.8135 O   0  0  0  0  0  0  0  0  0  0  0  0
    4.0761    1.0965   -0.0225 C   0  0  0  0  0  0  0  0  0  0  0  0
    5.2397    1.9772   -0.5071 C   0  0  0  0  0  0  0  0  0  0  0  0
    6.4778    1.8332    0.2837 N   0  0  0  0  0  0  0  0  0  0  0  0
    7.4272    2.8877   -0.0851 C   0  0  0  0  0  0  0  0  0  0  0  0
    7.0995    0.5219    0.0865 C   0  0  0  0  0  0  0  0  0  0  0  0
    1.6075   -0.2269    0.4695 C   0  0  0  0  0  0  0  0  0  0  0  0
    0.3674   -0.8507    0.6486 C   0  0  0  0  0  0  0  0  0  0  0  0
   -4.1437    1.7617    0.0436 C   0  0  0  0  0  0  0  0  0  0  0  0
   -6.0466    5.5789   -0.9111 H   0  0  0  0  0  0  0  0  0  0  0  0
   -5.7598    5.3345    0.8159 H   0  0  0  0  0  0  0  0  0  0  0  0
   -4.3960    5.7381   -0.2990 H   0  0  0  0  0  0  0  0  0  0  0  0
   -3.6475    4.6997    1.7002 H   0  0  0  0  0  0  0  0  0  0  0  0
   -2.1531    3.2614    3.0030 H   0  0  0  0  0  0  0  0  0  0  0  0
   -1.9051    0.8699    2.4490 H   0  0  0  0  0  0  0  0  0  0  0  0
   -5.1378   -4.4359    0.1920 H   0  0  0  0  0  0  0  0  0  0  0  0
   -3.6465   -6.2304   -0.5534 H   0  0  0  0  0  0  0  0  0  0  0  0
   -1.7439   -7.6333   -0.4178 H   0  0  0  0  0  0  0  0  0  0  0  0
   -0.5539   -7.7825   -1.7165 H   0  0  0  0  0  0  0  0  0  0  0  0
   -2.1923   -7.2620   -2.1286 H   0  0  0  0  0  0  0  0  0  0  0  0
   -0.3930   -3.4338   -0.8676 H   0  0  0  0  0  0  0  0  0  0  0  0
   -1.3763    0.6997   -1.8332 H   0  0  0  0  0  0  0  0  0  0  0  0
    0.8104    1.7975   -2.1375 H   0  0  0  0  0  0  0  0  0  0  0  0
    4.3254    0.0375   -0.1508 H   0  0  0  0  0  0  0  0  0  0  0  0
    3.8745    1.3133    1.0337 H   0  0  0  0  0  0  0  0  0  0  0  0
    4.8937    3.0186   -0.4516 H   0  0  0  0  0  0  0  0  0  0  0  0
    5.4253    1.7868   -1.5731 H   0  0  0  0  0  0  0  0  0  0  0  0
    7.7127    2.8361   -1.1422 H   0  0  0  0  0  0  0  0  0  0  0  0
    6.9993    3.8775    0.1099 H   0  0  0  0  0  0  0  0  0  0  0  0
    8.3364    2.8175    0.5226 H   0  0  0  0  0  0  0  0  0  0  0  0
    7.3290    0.3267   -0.9672 H   0  0  0  0  0  0  0  0  0  0  0  0
    8.0316    0.4489    0.6588 H   0  0  0  0  0  0  0  0  0  0  0  0
    6.4552   -0.2813    0.4574 H   0  0  0  0  0  0  0  0  0  0  0  0
    2.4190   -0.5097    1.1315 H   0  0  0  0  0  0  0  0  0  0  0  0
    0.2538   -1.5914    1.4373 H   0  0  0  0  0  0  0  0  0  0  0  0
   -4.7016    1.3538   -0.7966 H   0  0  0  0  0  0  0  0  0  0  0  0
  1  2  1  0
  2  3  1  0
  3  4  2  0
  4  5  1  0
  5  6  2  0
  6  7  1  0
  7  8  1  0
  8  9  1  0
  9 10  1  0
 10 11  2  0
 11 12  1  0
 12 13  2  0
 13 14  1  0
 14 15  1  0
 13 16  1  0
 16 17  2  0
 17 18  1  0
 18 19  1  0
 19 20  2  0
 20 21  1  0
 21 22  2  0
 22 23  1  0
 23 24  1  0
 24 25  1  0
 25 26  1  0
 26 27  1  0
 26 28  1  0
 22 29  1  0
 29 30  2  0
  7 31  2  0
 31  3  1  0
 18  8  2  0
 30 19  1  0
 17 10  1  0
  1 32  1  0
  1 33  1  0
  1 34  1  0
  4 35  1  0
  5 36  1  0
  6 37  1  0
 11 38  1  0
 12 39  1  0
 15 40  1  0
 15 41  1  0
 15 42  1  0
 16 43  1  0
 20 44  1  0
 21 45  1  0
 24 46  1  0
 24 47  1  0
 25 48  1  0
 25 49  1  0
 27 50  1  0
 27 51  1  0
 27 52  1  0
 28 53  1  0
 28 54  1  0
 28 55  1  0
 29 56  1  0
 30 57  1  0
 31 58  1  0
M  END
$$$$
