
     RDKit          3D

 50 53  0  0  0  0  0  0  0  0999 V2000
   -1.6036    3.6627    1.2287 C   0  0  0  0  0  0  0  0  0  0  0  0
   -1.3883    2.2800    0.8180 N   0  0  0  0  0  0  0  0  0  0  0  0
   -2.3919    1.8376   -0.1640 C   0  0  0  0  0  0  0  0  0  0  0  0
   -2.1647    0.3785   -0.6412 C   0  0  0  0  0  0  0  0  0  0  0  0
   -1.8309   -0.5407    0.4767 N   0  0  0  0  0  0  0  0  0  0  0  0
   -2.3244   -1.8502    0.2623 C   0  0  0  0  0  0  0  0  0  0  0  0
   -3.6520   -2.2110    0.5322 C   0  0  0  0  0  0  0  0  0  0  0  0
   -4.0998   -3.5088    0.2767 C   0  0  0  0  0  0  0  0  0  0  0  0
   -3.2277   -4.4586   -0.2527 C   0  0  0  0  0  0  0  0  0  0  0  0
   -1.9017   -4.1198   -0.5292 C   0  0  0  0  0  0  0  0  0  0  0  0
   -1.4472   -2.8261   -0.2740 C   0  0  0  0  0  0  0  0  0  0  0  0
   -0.1280   -2.3956   -0.4987 N   0  0  0  0  0  0  0  0  0  0  0  0
    0.9570   -3.0882   -0.9841 C   0  0  0  0  0  0  0  0  0  0  0  0
    0.9554   -4.2644   -1.3330 O   0  0  0  0  0  0  0  0  0  0  0  0
    2.1520   -2.2647   -1.0461 C   0  0  0  0  0  0  0  0  0  0  0  0
    3.4447   -2.5538   -1.4348 C   0  0  0  0  0  0  0  0  0  0  0  0
    4.1910   -1.3570   -1.2874 C   0  0  0  0  0  0  0  0  0  0  0  0
    3.3156   -0.3950   -0.8205 C   0  0  0  0  0  0  0  0  0  0  0  0
    3.4283    1.0182   -0.4672 C   0  0  0  0  0  0  0  0  0  0  0  0
    2.2952    1.7709   -0.1210 C   0  0  0  0  0  0  0  0  0  0  0  0
    2.4027    3.1242    0.2134 C   0  0  0  0  0  0  0  0  0  0  0  0
    3.6483    3.7503    0.2098 C   0  0  0  0  0  0  0  0  0  0  0  0
    3.7122    5.4240    0.6318 Cl  0  0  0  0  0  0  0  0  0  0  0  0
    4.7876    3.0153   -0.1321 C   0  0  0  0  0  0  0  0  0  0  0  0
    6.3672    3.7185   -0.1601 Cl  0  0  0  0  0  0  0  0  0  0  0  0
    4.6757    1.6596   -0.4689 C   0  0  0  0  0  0  0  0  0  0  0  0
    2.0762   -0.9490   -0.6719 O   0  0  0  0  0  0  0  0  0  0  0  0
   -2.0800    0.0142    1.8160 C   0  0  0  0  0  0  0  0  0  0  0  0
   -1.3325    1.3649    1.9830 C   0  0  0  0  0  0  0  0  0  0  0  0
   -1.5731    4.3342    0.3632 H   0  0  0  0  0  0  0  0  0  0  0  0
   -0.8060    3.9851    1.9067 H   0  0  0  0  0  0  0  0  0  0  0  0
   -2.5667    3.7987    1.7359 H   0  0  0  0  0  0  0  0  0  0  0  0
   -3.3996    1.9221    0.2653 H   0  0  0  0  0  0  0  0  0  0  0  0
   -2.3665    2.4899   -1.0457 H   0  0  0  0  0  0  0  0  0  0  0  0
   -3.0630    0.0568   -1.1837 H   0  0  0  0  0  0  0  0  0  0  0  0
   -1.3280    0.3605   -1.3505 H   0  0  0  0  0  0  0  0  0  0  0  0
   -4.3549   -1.4839    0.9258 H   0  0  0  0  0  0  0  0  0  0  0  0
   -5.1320   -3.7783    0.4857 H   0  0  0  0  0  0  0  0  0  0  0  0
   -3.5778   -5.4685   -0.4527 H   0  0  0  0  0  0  0  0  0  0  0  0
   -1.2466   -4.8821   -0.9378 H   0  0  0  0  0  0  0  0  0  0  0  0
    0.0256   -1.4247   -0.2291 H   0  0  0  0  0  0  0  0  0  0  0  0
    3.7956   -3.5174   -1.7807 H   0  0  0  0  0  0  0  0  0  0  0  0
    5.2421   -1.2216   -1.5039 H   0  0  0  0  0  0  0  0  0  0  0  0
    1.3067    1.3132   -0.1111 H   0  0  0  0  0  0  0  0  0  0  0  0
    1.5033    3.6774    0.4738 H   0  0  0  0  0  0  0  0  0  0  0  0
    5.5758    1.1081   -0.7294 H   0  0  0  0  0  0  0  0  0  0  0  0
   -3.1539    0.1770    1.9805 H   0  0  0  0  0  0  0  0  0  0  0  0
   -1.7238   -0.6804    2.5883 H   0  0  0  0  0  0  0  0  0  0  0  0
   -0.2723    1.1544    2.1716 H   0  0  0  0  0  0  0  0  0  0  0  0
   -1.7209    1.8436    2.8913 H   0  0  0  0  0  0  0  0  0  0  0  0
  1  2  1  0
  2  3  1  0
  3  4  1  0
  4  5  1  0
  5  6  1  0
  6  7  2  0
  7  8  1  0
  8  9  2  0
  9 10  1  0
 10 11  2  0
 11 12  1  0
 12 13  1  0
 13 14  2  0
 13 15  1  0
 15 16  2  0
 16 17  1  0
 17 18  2  0
 18 19  1  0
 19 20  2  0
 20 21  1  0
 21 22  2  0
 22 23  1  0
 22 24  1  0
 24 25  1  0
 24 26  2  0
 18 27  1  0
  5 28  1  0
 28 29  1  0
 29  2  1  0
 11  6  1  0
 27 15  1  0
 26 19  1  0
  1 30  1  0
  1 31  1  0
  1 32  1  0
  3 33  1  0
  3 34  1  0
  4 35  1  0
  4 36  1  0
  7 37  1  0
  8 38  1  0
  9 39  1  0
 10 40  1  0
 12 41  1  0
 16 42  1  0
 17 43  1  0
 20 44  1  0
 21 45  1  0
 26 46  1  0
 28 47  1  0
 28 48  1  0
 29 49  1  0
 29 50  1  0
M  END
$$$$
