
     RDKit          3D

 68 69  0  0  0  0  0  0  0  0999 V2000
   -0.6188    0.0763    4.5020 C   0  0  0  0  0  0  0  0  0  0  0  0
    0.5337    0.4602    3.7623 O   0  0  0  0  0  0  0  0  0  0  0  0
    0.2266    0.8657    2.4265 C   0  0  0  0  0  0  0  0  0  0  0  0
    0.0792   -0.3390    1.4856 C   0  0  0  0  0  0  0  0  0  0  0  0
   -0.1867    0.0409    0.0868 N   0  0  0  0  0  0  0  0  0  0  0  0
    0.8106    0.2074   -0.8683 C   0  0  0  0  0  0  0  0  0  0  0  0
    0.5434    0.4176   -2.0540 O   0  0  0  0  0  0  0  0  0  0  0  0
    2.2548    0.1342   -0.4049 C   0  0  0  0  0  0  0  0  0  0  0  0
    3.2188    0.4385   -1.5486 C   0  0  0  0  0  0  0  0  0  0  0  0
    4.6617    0.4471   -1.0872 C   0  0  0  0  0  0  0  0  0  0  0  0
    4.9800    0.2678    0.0837 O   0  0  0  0  0  0  0  0  0  0  0  0
    5.5279    0.6854   -2.1308 N   0  0  0  0  0  0  0  0  0  0  0  0
    6.8988    0.7601   -2.0264 C   0  0  0  0  0  0  0  0  0  0  0  0
    7.7228    0.6213   -0.8888 C   0  0  0  0  0  0  0  0  0  0  0  0
    8.9997    0.7885   -1.3652 C   0  0  0  0  0  0  0  0  0  0  0  0
   10.3373    0.7756   -0.7503 C   0  0  0  0  0  0  0  0  0  0  0  0
    8.9493    1.0167   -2.7035 O   0  0  0  0  0  0  0  0  0  0  0  0
    7.6315    0.9974   -3.1213 N   0  0  0  0  0  0  0  0  0  0  0  0
   -1.5792   -0.0259   -0.4110 C   0  0  0  0  0  0  0  0  0  0  0  0
   -1.9963   -1.4951   -0.7232 C   0  0  0  0  0  0  0  0  0  0  0  0
   -1.4497   -2.4696   -0.2099 O   0  0  0  0  0  0  0  0  0  0  0  0
   -3.0695   -1.5995   -1.5946 N   0  0  0  0  0  0  0  0  0  0  0  0
   -3.7011   -2.8599   -2.0113 C   0  0  0  0  0  0  0  0  0  0  0  0
   -4.3250   -3.5796   -0.8063 C   0  0  0  0  0  0  0  0  0  0  0  0
   -2.6912   -3.7800   -2.7150 C   0  0  0  0  0  0  0  0  0  0  0  0
   -4.8230   -2.5227   -3.0120 C   0  0  0  0  0  0  0  0  0  0  0  0
   -2.5711    0.7110    0.4843 C   0  0  0  0  0  0  0  0  0  0  0  0
   -3.3613    0.0548    1.4387 C   0  0  0  0  0  0  0  0  0  0  0  0
   -4.2353    0.7791    2.2531 C   0  0  0  0  0  0  0  0  0  0  0  0
   -4.3363    2.1666    2.1388 C   0  0  0  0  0  0  0  0  0  0  0  0
   -5.2241    2.7472    3.0013 O   0  0  0  0  0  0  0  0  0  0  0  0
   -5.3459    4.1627    2.9441 C   0  0  0  0  0  0  0  0  0  0  0  0
   -3.5540    2.8296    1.1955 C   0  0  0  0  0  0  0  0  0  0  0  0
   -2.6776    2.1081    0.3769 C   0  0  0  0  0  0  0  0  0  0  0  0
   -0.3026   -0.1760    5.5177 H   0  0  0  0  0  0  0  0  0  0  0  0
   -1.3343    0.9027    4.5571 H   0  0  0  0  0  0  0  0  0  0  0  0
   -1.0933   -0.8045    4.0607 H   0  0  0  0  0  0  0  0  0  0  0  0
    1.0580    1.4929    2.0918 H   0  0  0  0  0  0  0  0  0  0  0  0
   -0.6596    1.5069    2.4238 H   0  0  0  0  0  0  0  0  0  0  0  0
   -0.7120   -1.0081    1.8351 H   0  0  0  0  0  0  0  0  0  0  0  0
    0.9903   -0.9423    1.5415 H   0  0  0  0  0  0  0  0  0  0  0  0
    2.4578   -0.8741   -0.0285 H   0  0  0  0  0  0  0  0  0  0  0  0
    2.4089    0.8543    0.4043 H   0  0  0  0  0  0  0  0  0  0  0  0
    2.9937    1.4210   -1.9815 H   0  0  0  0  0  0  0  0  0  0  0  0
    3.1106   -0.3133   -2.3400 H   0  0  0  0  0  0  0  0  0  0  0  0
    5.1796    0.8192   -3.0708 H   0  0  0  0  0  0  0  0  0  0  0  0
    7.4341    0.4269    0.1335 H   0  0  0  0  0  0  0  0  0  0  0  0
   10.7578    1.7852   -0.7296 H   0  0  0  0  0  0  0  0  0  0  0  0
   10.2933    0.4033    0.2776 H   0  0  0  0  0  0  0  0  0  0  0  0
   11.0163    0.1304   -1.3155 H   0  0  0  0  0  0  0  0  0  0  0  0
   -1.6219    0.4817   -1.3848 H   0  0  0  0  0  0  0  0  0  0  0  0
   -3.5144   -0.7378   -1.8875 H   0  0  0  0  0  0  0  0  0  0  0  0
   -5.0293   -2.9249   -0.2799 H   0  0  0  0  0  0  0  0  0  0  0  0
   -3.5687   -3.8942   -0.0796 H   0  0  0  0  0  0  0  0  0  0  0  0
   -4.8694   -4.4773   -1.1216 H   0  0  0  0  0  0  0  0  0  0  0  0
   -3.1840   -4.6734   -3.1169 H   0  0  0  0  0  0  0  0  0  0  0  0
   -1.9033   -4.1232   -2.0373 H   0  0  0  0  0  0  0  0  0  0  0  0
   -2.2026   -3.2609   -3.5483 H   0  0  0  0  0  0  0  0  0  0  0  0
   -5.5757   -1.8661   -2.5585 H   0  0  0  0  0  0  0  0  0  0  0  0
   -4.4235   -2.0006   -3.8895 H   0  0  0  0  0  0  0  0  0  0  0  0
   -5.3348   -3.4264   -3.3614 H   0  0  0  0  0  0  0  0  0  0  0  0
   -3.3042   -1.0247    1.5709 H   0  0  0  0  0  0  0  0  0  0  0  0
   -4.8418    0.2562    2.9892 H   0  0  0  0  0  0  0  0  0  0  0  0
   -6.0811    4.4650    3.6962 H   0  0  0  0  0  0  0  0  0  0  0  0
   -5.7159    4.4880    1.9659 H   0  0  0  0  0  0  0  0  0  0  0  0
   -4.3974    4.6507    3.1903 H   0  0  0  0  0  0  0  0  0  0  0  0
   -3.5956    3.9069    1.0731 H   0  0  0  0  0  0  0  0  0  0  0  0
   -2.0650    2.6479   -0.3441 H   0  0  0  0  0  0  0  0  0  0  0  0
  1  2  1  0
  2  3  1  0
  3  4  1  0
  4  5  1  0
  5  6  1  0
  6  7  2  0
  6  8  1  0
  8  9  1  0
  9 10  1  0
 10 11  2  0
 10 12  1  0
 12 13  1  0
 13 14  1  0
 14 15  2  0
 15 16  1  0
 15 17  1  0
 17 18  1  0
  5 19  1  0
 19 20  1  0
 20 21  2  0
 20 22  1  0
 22 23  1  0
 23 24  1  0
 23 25  1  0
 23 26  1  0
 19 27  1  0
 27 28  2  0
 28 29  1  0
 29 30  2  0
 30 31  1  0
 31 32  1  0
 30 33  1  0
 33 34  2  0
 18 13  2  0
 34 27  1  0
  1 35  1  0
  1 36  1  0
  1 37  1  0
  3 38  1  0
  3 39  1  0
  4 40  1  0
  4 41  1  0
  8 42  1  0
  8 43  1  0
  9 44  1  0
  9 45  1  0
 12 46  1  0
 14 47  1  0
 16 48  1  0
 16 49  1  0
 16 50  1  0
 19 51  1  0
 22 52  1  0
 24 53  1  0
 24 54  1  0
 24 55  1  0
 25 56  1  0
 25 57  1  0
 25 58  1  0
 26 59  1  0
 26 60  1  0
 26 61  1  0
 28 62  1  0
 29 63  1  0
 32 64  1  0
 32 65  1  0
 32 66  1  0
 33 67  1  0
 34 68  1  0
M  END
$$$$
