
     RDKit          3D

 67 72  0  0  0  0  0  0  0  0999 V2000
    3.7230   -0.7985   -1.5558 O   0  0  0  0  0  0  0  0  0  0  0  0
    2.9203   -0.5125   -0.6654 C   0  0  0  0  0  0  0  0  0  0  0  0
    3.3624    0.2146    0.6243 C   0  0  0  0  0  0  0  0  0  0  0  0
    4.8811    0.0604    0.8272 C   0  0  0  0  0  0  0  0  0  0  0  0
    5.4158    0.8992    1.9677 C   0  0  0  0  0  0  0  0  0  0  0  0
    5.6410    0.3258    3.2267 C   0  0  0  0  0  0  0  0  0  0  0  0
    6.1131    1.1044    4.2838 C   0  0  0  0  0  0  0  0  0  0  0  0
    6.3662    2.4613    4.0923 C   0  0  0  0  0  0  0  0  0  0  0  0
    6.1475    3.0410    2.8440 C   0  0  0  0  0  0  0  0  0  0  0  0
    5.6733    2.2649    1.7855 C   0  0  0  0  0  0  0  0  0  0  0  0
    2.6381   -0.3316    1.7741 N   0  0  0  0  0  0  0  0  0  0  0  0
    1.2514   -0.2645    1.6002 C   0  0  0  0  0  0  0  0  0  0  0  0
    0.5553   -0.0491    2.7238 N   0  0  0  0  0  0  0  0  0  0  0  0
   -0.7709   -0.0595    2.5933 C   0  0  0  0  0  0  0  0  0  0  0  0
   -1.4477   -0.2230    1.4521 N   0  0  0  0  0  0  0  0  0  0  0  0
   -0.7302   -0.4157    0.3222 C   0  0  0  0  0  0  0  0  0  0  0  0
   -1.4573   -0.4233   -0.8920 N   0  0  0  0  0  0  0  0  0  0  0  0
   -1.5657    0.9741   -1.4027 C   0  0  0  0  0  0  0  0  0  0  0  0
   -2.7636    1.1286   -2.3634 C   0  0  0  0  0  0  0  0  0  0  0  0
   -4.0497    0.8461   -1.6873 N   0  0  0  0  0  0  0  0  0  0  0  0
   -4.9317    1.8982   -1.4075 C   0  0  0  0  0  0  0  0  0  0  0  0
   -4.5271    3.2289   -1.2351 C   0  0  0  0  0  0  0  0  0  0  0  0
   -5.4523    4.2401   -0.9488 C   0  0  0  0  0  0  0  0  0  0  0  0
   -6.8051    3.9387   -0.8301 C   0  0  0  0  0  0  0  0  0  0  0  0
   -7.2321    2.6258   -0.9942 C   0  0  0  0  0  0  0  0  0  0  0  0
   -6.3029    1.6208   -1.2779 C   0  0  0  0  0  0  0  0  0  0  0  0
   -3.9552   -0.1294   -0.5642 C   0  0  0  0  0  0  0  0  0  0  0  0
   -2.7761   -1.1068   -0.7630 C   0  0  0  0  0  0  0  0  0  0  0  0
    0.6716   -0.4774    0.3418 C   0  0  0  0  0  0  0  0  0  0  0  0
    1.5407   -0.7437   -0.7806 N   0  0  0  0  0  0  0  0  0  0  0  0
    1.0695   -1.4883   -1.9478 C   0  0  0  0  0  0  0  0  0  0  0  0
    0.6657   -2.9223   -1.6582 C   0  0  0  0  0  0  0  0  0  0  0  0
    1.4303   -3.7472   -0.8182 C   0  0  0  0  0  0  0  0  0  0  0  0
    1.0535   -5.0720   -0.5845 C   0  0  0  0  0  0  0  0  0  0  0  0
   -0.0827   -5.5868   -1.2025 C   0  0  0  0  0  0  0  0  0  0  0  0
   -0.5942   -7.3786   -0.8849 Br  0  0  0  0  0  0  0  0  0  0  0  0
   -0.8413   -4.7924   -2.0579 C   0  0  0  0  0  0  0  0  0  0  0  0
   -0.4626   -3.4682   -2.2899 C   0  0  0  0  0  0  0  0  0  0  0  0
    3.1179    1.2788    0.4967 H   0  0  0  0  0  0  0  0  0  0  0  0
    5.4223    0.3478   -0.0842 H   0  0  0  0  0  0  0  0  0  0  0  0
    5.1343   -0.9954    0.9968 H   0  0  0  0  0  0  0  0  0  0  0  0
    5.4471   -0.7325    3.3919 H   0  0  0  0  0  0  0  0  0  0  0  0
    6.2847    0.6516    5.2570 H   0  0  0  0  0  0  0  0  0  0  0  0
    6.7363    3.0665    4.9157 H   0  0  0  0  0  0  0  0  0  0  0  0
    6.3492    4.0987    2.6946 H   0  0  0  0  0  0  0  0  0  0  0  0
    5.5126    2.7327    0.8168 H   0  0  0  0  0  0  0  0  0  0  0  0
    2.8625    0.0736    2.6800 H   0  0  0  0  0  0  0  0  0  0  0  0
   -1.3558    0.0878    3.4945 H   0  0  0  0  0  0  0  0  0  0  0  0
   -0.6445    1.2307   -1.9387 H   0  0  0  0  0  0  0  0  0  0  0  0
   -1.6817    1.6926   -0.5794 H   0  0  0  0  0  0  0  0  0  0  0  0
   -2.7469    2.1123   -2.8451 H   0  0  0  0  0  0  0  0  0  0  0  0
   -2.6573    0.4023   -3.1801 H   0  0  0  0  0  0  0  0  0  0  0  0
   -3.4802    3.5074   -1.2931 H   0  0  0  0  0  0  0  0  0  0  0  0
   -5.1109    5.2633   -0.8157 H   0  0  0  0  0  0  0  0  0  0  0  0
   -7.5235    4.7235   -0.6113 H   0  0  0  0  0  0  0  0  0  0  0  0
   -8.2866    2.3796   -0.9103 H   0  0  0  0  0  0  0  0  0  0  0  0
   -6.6619    0.6049   -1.4244 H   0  0  0  0  0  0  0  0  0  0  0  0
   -4.8804   -0.7136   -0.5049 H   0  0  0  0  0  0  0  0  0  0  0  0
   -3.8324    0.4046    0.3861 H   0  0  0  0  0  0  0  0  0  0  0  0
   -2.7688   -1.8696    0.0263 H   0  0  0  0  0  0  0  0  0  0  0  0
   -2.9427   -1.6549   -1.6992 H   0  0  0  0  0  0  0  0  0  0  0  0
    1.8641   -1.5411   -2.7025 H   0  0  0  0  0  0  0  0  0  0  0  0
    0.2725   -0.9289   -2.4420 H   0  0  0  0  0  0  0  0  0  0  0  0
    2.3280   -3.3655   -0.3362 H   0  0  0  0  0  0  0  0  0  0  0  0
    1.6547   -5.6895    0.0772 H   0  0  0  0  0  0  0  0  0  0  0  0
   -1.7238   -5.1917   -2.5497 H   0  0  0  0  0  0  0  0  0  0  0  0
   -1.0600   -2.8580   -2.9640 H   0  0  0  0  0  0  0  0  0  0  0  0
  1  2  2  0
  2  3  1  0
  3  4  1  0
  4  5  1  0
  5  6  2  0
  6  7  1  0
  7  8  2  0
  8  9  1  0
  9 10  2  0
  3 11  1  0
 11 12  1  0
 12 13  2  0
 13 14  1  0
 14 15  2  0
 15 16  1  0
 16 17  1  0
 17 18  1  0
 18 19  1  0
 19 20  1  0
 20 21  1  0
 21 22  2  0
 22 23  1  0
 23 24  2  0
 24 25  1  0
 25 26  2  0
 20 27  1  0
 27 28  1  0
 16 29  2  0
 29 30  1  0
 30 31  1  0
 31 32  1  0
 32 33  2  0
 33 34  1  0
 34 35  2  0
 35 36  1  0
 35 37  1  0
 37 38  2  0
 30  2  1  0
 38 32  1  0
 10  5  1  0
 29 12  1  0
 28 17  1  0
 26 21  1  0
  3 39  1  0
  4 40  1  0
  4 41  1  0
  6 42  1  0
  7 43  1  0
  8 44  1  0
  9 45  1  0
 10 46  1  0
 11 47  1  0
 14 48  1  0
 18 49  1  0
 18 50  1  0
 19 51  1  0
 19 52  1  0
 22 53  1  0
 23 54  1  0
 24 55  1  0
 25 56  1  0
 26 57  1  0
 27 58  1  0
 27 59  1  0
 28 60  1  0
 28 61  1  0
 31 62  1  0
 31 63  1  0
 33 64  1  0
 34 65  1  0
 37 66  1  0
 38 67  1  0
M  END
$$$$
