
     RDKit          3D

 49 51  0  0  0  0  0  0  0  0999 V2000
    3.0409    0.0607    0.5899 O   0  0  0  0  0  0  0  0  0  0  0  0
    2.1554   -0.4176   -0.1052 C   0  0  0  0  0  0  0  0  0  0  0  0
    2.1873   -0.5831   -1.4696 N   0  0  0  0  0  0  0  0  0  0  0  0
    3.3657   -0.3138   -2.2500 C   0  0  0  0  0  0  0  0  0  0  0  0
    4.1301   -1.5827   -2.5226 C   0  0  0  0  0  0  0  0  0  0  0  0
    3.9172   -2.3087   -3.7030 C   0  0  0  0  0  0  0  0  0  0  0  0
    4.6137   -3.4955   -3.9386 C   0  0  0  0  0  0  0  0  0  0  0  0
    5.5227   -3.9713   -2.9952 C   0  0  0  0  0  0  0  0  0  0  0  0
    5.7346   -3.2634   -1.8136 C   0  0  0  0  0  0  0  0  0  0  0  0
    5.0398   -2.0767   -1.5763 C   0  0  0  0  0  0  0  0  0  0  0  0
    0.8489   -0.9336    0.5445 C   0  0  0  0  0  0  0  0  0  0  0  0
    0.0043   -1.5150   -0.1248 O   0  0  0  0  0  0  0  0  0  0  0  0
    0.7456   -0.6524    1.8876 N   0  0  0  0  0  0  0  0  0  0  0  0
   -0.4530   -0.9522    2.6391 C   0  0  0  0  0  0  0  0  0  0  0  0
   -1.7066   -0.1483    2.2355 C   0  0  0  0  0  0  0  0  0  0  0  0
   -2.8169   -0.6394    3.0171 O   0  0  0  0  0  0  0  0  0  0  0  0
   -3.6267    0.4947    3.3289 C   0  0  0  0  0  0  0  0  0  0  0  0
   -2.6276    1.6079    3.5352 C   0  0  0  0  0  0  0  0  0  0  0  0
   -1.5668    1.2839    2.5724 N   0  0  0  0  0  0  0  0  0  0  0  0
   -1.2325    2.3750    1.3373 S   0  0  0  0  0  6  0  0  0  0  0  0
   -1.1501    3.6927    1.9318 O   0  0  0  0  0  0  0  0  0  0  0  0
   -0.1448    1.8569    0.5378 O   0  0  0  0  0  0  0  0  0  0  0  0
   -2.6960    2.3515    0.3174 C   0  0  0  0  0  0  0  0  0  0  0  0
   -3.7260    3.2668    0.5626 C   0  0  0  0  0  0  0  0  0  0  0  0
   -4.8587    3.2659   -0.2539 C   0  0  0  0  0  0  0  0  0  0  0  0
   -4.9458    2.3665   -1.3174 C   0  0  0  0  0  0  0  0  0  0  0  0
   -6.4813    2.3675   -2.4197 Br  0  0  0  0  0  0  0  0  0  0  0  0
   -3.9062    1.4742   -1.5815 C   0  0  0  0  0  0  0  0  0  0  0  0
   -2.7706    1.4725   -0.7691 C   0  0  0  0  0  0  0  0  0  0  0  0
    1.4257   -1.1155   -1.8768 H   0  0  0  0  0  0  0  0  0  0  0  0
    4.0070    0.4139   -1.7397 H   0  0  0  0  0  0  0  0  0  0  0  0
    3.0393    0.1446   -3.1900 H   0  0  0  0  0  0  0  0  0  0  0  0
    3.2075   -1.9542   -4.4469 H   0  0  0  0  0  0  0  0  0  0  0  0
    4.4456   -4.0508   -4.8577 H   0  0  0  0  0  0  0  0  0  0  0  0
    6.0635   -4.8959   -3.1787 H   0  0  0  0  0  0  0  0  0  0  0  0
    6.4385   -3.6361   -1.0741 H   0  0  0  0  0  0  0  0  0  0  0  0
    5.2063   -1.5365   -0.6455 H   0  0  0  0  0  0  0  0  0  0  0  0
    1.4359   -0.0026    2.2574 H   0  0  0  0  0  0  0  0  0  0  0  0
   -0.6631   -2.0224    2.5214 H   0  0  0  0  0  0  0  0  0  0  0  0
   -0.2214   -0.7919    3.6984 H   0  0  0  0  0  0  0  0  0  0  0  0
   -1.9575   -0.3091    1.1857 H   0  0  0  0  0  0  0  0  0  0  0  0
   -4.2916    0.6911    2.4810 H   0  0  0  0  0  0  0  0  0  0  0  0
   -4.2309    0.2951    4.2175 H   0  0  0  0  0  0  0  0  0  0  0  0
   -2.1917    1.5578    4.5394 H   0  0  0  0  0  0  0  0  0  0  0  0
   -3.0777    2.5945    3.4118 H   0  0  0  0  0  0  0  0  0  0  0  0
   -3.6509    3.9878    1.3740 H   0  0  0  0  0  0  0  0  0  0  0  0
   -5.6604    3.9753   -0.0620 H   0  0  0  0  0  0  0  0  0  0  0  0
   -3.9667    0.7842   -2.4201 H   0  0  0  0  0  0  0  0  0  0  0  0
   -1.9539    0.7879   -0.9932 H   0  0  0  0  0  0  0  0  0  0  0  0
  1  2  2  0
  2  3  1  0
  3  4  1  0
  4  5  1  0
  5  6  2  0
  6  7  1  0
  7  8  2  0
  8  9  1  0
  9 10  2  0
  2 11  1  0
 11 12  2  0
 11 13  1  0
 13 14  1  0
 14 15  1  0
 15 16  1  0
 16 17  1  0
 17 18  1  0
 18 19  1  0
 19 20  1  0
 20 21  2  0
 20 22  2  0
 20 23  1  0
 23 24  2  0
 24 25  1  0
 25 26  2  0
 26 27  1  0
 26 28  1  0
 28 29  2  0
 10  5  1  0
 19 15  1  0
 29 23  1  0
  3 30  1  0
  4 31  1  0
  4 32  1  0
  6 33  1  0
  7 34  1  0
  8 35  1  0
  9 36  1  0
 10 37  1  0
 13 38  1  0
 14 39  1  0
 14 40  1  0
 15 41  1  0
 17 42  1  0
 17 43  1  0
 18 44  1  0
 18 45  1  0
 24 46  1  0
 25 47  1  0
 28 48  1  0
 29 49  1  0
M  END
$$$$
