
     RDKit          3D

 54 57  0  0  0  0  0  0  0  0999 V2000
   -5.0588    4.5387   -1.6146 C   0  0  0  0  0  0  0  0  0  0  0  0
   -4.2438    3.3045   -1.3675 C   0  0  0  0  0  0  0  0  0  0  0  0
   -4.1771    2.2847   -2.3175 C   0  0  0  0  0  0  0  0  0  0  0  0
   -3.4082    1.1221   -2.1033 C   0  0  0  0  0  0  0  0  0  0  0  0
   -3.5311    0.0448   -3.1474 C   0  0  0  0  0  0  0  0  0  0  0  0
   -2.6244    1.0189   -0.9341 C   0  0  0  0  0  0  0  0  0  0  0  0
   -1.7827   -0.0855   -0.6509 N   0  0  0  0  0  0  0  0  0  0  0  0
   -0.9753   -0.7623   -1.5529 C   0  0  0  0  0  0  0  0  0  0  0  0
   -0.7949   -0.4769   -2.7337 O   0  0  0  0  0  0  0  0  0  0  0  0
   -0.1924   -1.9017   -0.8970 C   0  0  0  0  0  0  0  0  0  0  0  0
    1.0707   -1.4112   -0.3431 N   0  0  0  0  0  0  0  0  0  0  0  0
    1.0247   -0.8982    0.9478 C   0  0  0  0  0  0  0  0  0  0  0  0
   -0.0596   -0.7684    1.5249 O   0  0  0  0  0  0  0  0  0  0  0  0
    2.2248   -0.5197    1.5211 N   0  0  0  0  0  0  0  0  0  0  0  0
    2.2066   -0.0657    2.9042 C   0  0  0  0  0  0  0  0  0  0  0  0
    2.4499   -1.2226    3.8113 C   0  0  0  0  0  0  0  0  0  0  0  0
    3.5924   -1.8814    4.2197 C   0  0  0  0  0  0  0  0  0  0  0  0
    3.1698   -2.9099    5.0952 C   0  0  0  0  0  0  0  0  0  0  0  0
    1.8001   -2.8123    5.1678 C   0  0  0  0  0  0  0  0  0  0  0  0
    1.3538   -1.7908    4.3927 O   0  0  0  0  0  0  0  0  0  0  0  0
    3.4531   -0.5548    0.8782 C   0  0  0  0  0  0  0  0  0  0  0  0
    4.5141   -0.2315    1.4097 O   0  0  0  0  0  0  0  0  0  0  0  0
    3.4563   -0.9963   -0.5251 C   0  0  0  0  0  0  0  0  0  0  0  0
    4.6621   -0.9898   -1.2450 C   0  0  0  0  0  0  0  0  0  0  0  0
    4.6796   -1.3863   -2.5782 C   0  0  0  0  0  0  0  0  0  0  0  0
    3.4945   -1.7811   -3.1889 C   0  0  0  0  0  0  0  0  0  0  0  0
    2.2957   -1.7908   -2.4658 C   0  0  0  0  0  0  0  0  0  0  0  0
    2.2617   -1.4074   -1.1163 C   0  0  0  0  0  0  0  0  0  0  0  0
   -2.7134    2.0370    0.0479 C   0  0  0  0  0  0  0  0  0  0  0  0
   -1.9425    1.9817    1.3427 C   0  0  0  0  0  0  0  0  0  0  0  0
   -3.5150    3.1683   -0.1865 C   0  0  0  0  0  0  0  0  0  0  0  0
   -4.4019    5.3778   -1.8641 H   0  0  0  0  0  0  0  0  0  0  0  0
   -5.7635    4.3936   -2.4404 H   0  0  0  0  0  0  0  0  0  0  0  0
   -5.6450    4.7937   -0.7255 H   0  0  0  0  0  0  0  0  0  0  0  0
   -4.7533    2.3779   -3.2375 H   0  0  0  0  0  0  0  0  0  0  0  0
   -2.8223    0.2166   -3.9623 H   0  0  0  0  0  0  0  0  0  0  0  0
   -4.5402    0.0411   -3.5774 H   0  0  0  0  0  0  0  0  0  0  0  0
   -3.3889   -0.9532   -2.7230 H   0  0  0  0  0  0  0  0  0  0  0  0
   -1.4780   -0.1829    0.3177 H   0  0  0  0  0  0  0  0  0  0  0  0
   -0.8038   -2.3414   -0.0977 H   0  0  0  0  0  0  0  0  0  0  0  0
   -0.0394   -2.7154   -1.6122 H   0  0  0  0  0  0  0  0  0  0  0  0
    1.2467    0.4071    3.1411 H   0  0  0  0  0  0  0  0  0  0  0  0
    2.9818    0.6935    3.0603 H   0  0  0  0  0  0  0  0  0  0  0  0
    4.6032   -1.6448    3.9137 H   0  0  0  0  0  0  0  0  0  0  0  0
    3.7863   -3.6331    5.6102 H   0  0  0  0  0  0  0  0  0  0  0  0
    1.0360   -3.3640    5.6980 H   0  0  0  0  0  0  0  0  0  0  0  0
    5.5871   -0.6702   -0.7686 H   0  0  0  0  0  0  0  0  0  0  0  0
    5.6100   -1.3768   -3.1406 H   0  0  0  0  0  0  0  0  0  0  0  0
    3.4949   -2.0746   -4.2364 H   0  0  0  0  0  0  0  0  0  0  0  0
    1.3997   -2.0794   -3.0080 H   0  0  0  0  0  0  0  0  0  0  0  0
   -0.8681    1.9190    1.1419 H   0  0  0  0  0  0  0  0  0  0  0  0
   -2.2623    1.1213    1.9390 H   0  0  0  0  0  0  0  0  0  0  0  0
   -2.1054    2.8776    1.9511 H   0  0  0  0  0  0  0  0  0  0  0  0
   -3.5644    3.9601    0.5591 H   0  0  0  0  0  0  0  0  0  0  0  0
  1  2  1  0
  2  3  2  0
  3  4  1  0
  4  5  1  0
  4  6  2  0
  6  7  1  0
  7  8  1  0
  8  9  2  0
  8 10  1  0
 10 11  1  0
 11 12  1  0
 12 13  2  0
 12 14  1  0
 14 15  1  0
 15 16  1  0
 16 17  2  0
 17 18  1  0
 18 19  2  0
 19 20  1  0
 14 21  1  0
 21 22  2  0
 21 23  1  0
 23 24  2  0
 24 25  1  0
 25 26  2  0
 26 27  1  0
 27 28  2  0
  6 29  1  0
 29 30  1  0
 29 31  2  0
 31  2  1  0
 28 11  1  0
 20 16  1  0
 28 23  1  0
  1 32  1  0
  1 33  1  0
  1 34  1  0
  3 35  1  0
  5 36  1  0
  5 37  1  0
  5 38  1  0
  7 39  1  0
 10 40  1  0
 10 41  1  0
 15 42  1  0
 15 43  1  0
 17 44  1  0
 18 45  1  0
 19 46  1  0
 24 47  1  0
 25 48  1  0
 26 49  1  0
 27 50  1  0
 30 51  1  0
 30 52  1  0
 30 53  1  0
 31 54  1  0
M  END
$$$$
