
     RDKit          3D

 57 62  0  0  0  0  0  0  0  0999 V2000
    8.7756   -1.7989   -1.2420 C   0  0  0  0  0  0  0  0  0  0  0  0
    7.9452   -1.8626   -0.0886 O   0  0  0  0  0  0  0  0  0  0  0  0
    6.6634   -1.4085   -0.2175 C   0  0  0  0  0  0  0  0  0  0  0  0
    6.1079   -0.8179   -1.3503 C   0  0  0  0  0  0  0  0  0  0  0  0
    4.7672   -0.4085   -1.3478 C   0  0  0  0  0  0  0  0  0  0  0  0
    3.9746   -0.5871   -0.2136 C   0  0  0  0  0  0  0  0  0  0  0  0
    2.4641   -0.1582   -0.2123 C   0  0  0  0  0  0  0  0  0  0  0  0
    1.5378   -0.4036    0.7955 C   0  0  0  0  0  0  0  0  0  0  0  0
    0.2948    0.0907    0.3997 N   0  0  0  0  0  4  0  0  0  0  0  0
   -0.9774   -0.0126    1.1456 C   0  0  0  0  0  0  0  0  0  0  0  0
   -2.0997   -0.6112    0.2668 C   0  0  0  0  0  0  0  0  0  0  0  0
   -1.7978   -1.3362   -0.6826 O   0  0  0  0  0  0  0  0  0  0  0  0
   -3.3836   -0.1186    0.5632 N   0  0  0  0  0  0  0  0  0  0  0  0
   -3.8328   -0.0188    1.9291 C   0  0  0  0  0  0  0  0  0  0  0  0
   -3.3515   -0.9449    2.8785 C   0  0  0  0  0  0  0  0  0  0  0  0
   -3.7430   -0.8881    4.2182 C   0  0  0  0  0  0  0  0  0  0  0  0
   -4.6436    0.0810    4.6352 C   0  0  0  0  0  0  0  0  0  0  0  0
   -5.1646    0.9794    3.7069 C   0  0  0  0  0  0  0  0  0  0  0  0
   -4.7762    0.9261    2.3587 C   0  0  0  0  0  0  0  0  0  0  0  0
   -5.4779    2.1211    1.2574 S   0  0  0  0  0  0  0  0  0  0  0  0
   -5.3117    1.2303   -0.2707 C   0  0  0  0  0  0  0  0  0  0  0  0
   -6.1787    1.6114   -1.3089 C   0  0  0  0  0  0  0  0  0  0  0  0
   -6.0712    1.0380   -2.5708 C   0  0  0  0  0  0  0  0  0  0  0  0
   -5.0940    0.0822   -2.8018 C   0  0  0  0  0  0  0  0  0  0  0  0
   -4.2256   -0.3014   -1.7708 C   0  0  0  0  0  0  0  0  0  0  0  0
   -4.3112    0.2579   -0.4811 C   0  0  0  0  0  0  0  0  0  0  0  0
    0.4471    0.6231   -0.8107 C   0  0  0  0  0  0  0  0  0  0  0  0
    1.7258    0.5199   -1.1651 N   0  0  0  0  0  0  0  0  0  0  0  0
    1.9811    1.1370   -2.4596 C   0  0  0  0  0  0  0  0  0  0  0  0
    0.6927    1.9651   -2.7247 C   0  0  0  0  0  0  0  0  0  0  0  0
   -0.3812    1.3212   -1.8240 C   0  0  0  0  0  0  0  0  0  0  0  0
    4.5333   -1.1721    0.9246 C   0  0  0  0  0  0  0  0  0  0  0  0
    5.8713   -1.5762    0.9184 C   0  0  0  0  0  0  0  0  0  0  0  0
    8.9274   -0.7637   -1.5619 H   0  0  0  0  0  0  0  0  0  0  0  0
    8.3667   -2.4110   -2.0507 H   0  0  0  0  0  0  0  0  0  0  0  0
    9.7519   -2.2115   -0.9748 H   0  0  0  0  0  0  0  0  0  0  0  0
    6.6883   -0.6709   -2.2555 H   0  0  0  0  0  0  0  0  0  0  0  0
    4.3713    0.0162   -2.2609 H   0  0  0  0  0  0  0  0  0  0  0  0
    1.6033   -0.8978    1.7512 H   0  0  0  0  0  0  0  0  0  0  0  0
   -0.8054   -0.6477    2.0187 H   0  0  0  0  0  0  0  0  0  0  0  0
   -1.2382    1.0016    1.4679 H   0  0  0  0  0  0  0  0  0  0  0  0
   -2.7107   -1.7758    2.5876 H   0  0  0  0  0  0  0  0  0  0  0  0
   -3.3651   -1.6191    4.9328 H   0  0  0  0  0  0  0  0  0  0  0  0
   -4.9623    0.1248    5.6744 H   0  0  0  0  0  0  0  0  0  0  0  0
   -5.8892    1.7195    4.0439 H   0  0  0  0  0  0  0  0  0  0  0  0
   -6.9456    2.3662   -1.1393 H   0  0  0  0  0  0  0  0  0  0  0  0
   -6.7484    1.3375   -3.3671 H   0  0  0  0  0  0  0  0  0  0  0  0
   -5.0114   -0.3846   -3.7818 H   0  0  0  0  0  0  0  0  0  0  0  0
   -3.5180   -1.0891   -2.0152 H   0  0  0  0  0  0  0  0  0  0  0  0
    2.1044    0.3482   -3.2077 H   0  0  0  0  0  0  0  0  0  0  0  0
    2.8626    1.7812   -2.4209 H   0  0  0  0  0  0  0  0  0  0  0  0
    0.4094    1.9851   -3.7809 H   0  0  0  0  0  0  0  0  0  0  0  0
    0.8598    2.9991   -2.3992 H   0  0  0  0  0  0  0  0  0  0  0  0
   -1.0273    2.0445   -1.3230 H   0  0  0  0  0  0  0  0  0  0  0  0
   -0.9519    0.5547   -2.3522 H   0  0  0  0  0  0  0  0  0  0  0  0
    3.9637   -1.3316    1.8345 H   0  0  0  0  0  0  0  0  0  0  0  0
    6.3045   -2.0350    1.8066 H   0  0  0  0  0  0  0  0  0  0  0  0
  1  2  1  0
  2  3  1  0
  3  4  2  0
  4  5  1  0
  5  6  2  0
  6  7  1  0
  7  8  2  0
  8  9  1  0
  9 10  1  0
 10 11  1  0
 11 12  2  0
 11 13  1  0
 13 14  1  0
 14 15  2  0
 15 16  1  0
 16 17  2  0
 17 18  1  0
 18 19  2  0
 19 20  1  0
 20 21  1  0
 21 22  2  0
 22 23  1  0
 23 24  2  0
 24 25  1  0
 25 26  2  0
  9 27  2  0
 27 28  1  0
 28 29  1  0
 29 30  1  0
 30 31  1  0
  6 32  1  0
 32 33  2  0
 33  3  1  0
 28  7  1  0
 26 13  1  0
 31 27  1  0
 19 14  1  0
 26 21  1  0
  1 34  1  0
  1 35  1  0
  1 36  1  0
  4 37  1  0
  5 38  1  0
  8 39  1  0
 10 40  1  0
 10 41  1  0
 15 42  1  0
 16 43  1  0
 17 44  1  0
 18 45  1  0
 22 46  1  0
 23 47  1  0
 24 48  1  0
 25 49  1  0
 29 50  1  0
 29 51  1  0
 30 52  1  0
 30 53  1  0
 31 54  1  0
 31 55  1  0
 32 56  1  0
 33 57  1  0
M  CHG  1   9   1
M  END
$$$$
