
     RDKit          3D

 59 62  0  0  0  0  0  0  0  0999 V2000
   -1.6216    1.4063   -2.7252 C   0  0  0  0  0  0  0  0  0  0  0  0
   -1.6894    0.3630   -1.7456 O   0  0  0  0  0  0  0  0  0  0  0  0
   -2.9925   -0.0338   -1.5627 C   0  0  0  0  0  0  0  0  0  0  0  0
   -3.4480   -1.1487   -2.2928 C   0  0  0  0  0  0  0  0  0  0  0  0
   -2.5529   -1.8802   -3.2539 C   0  0  0  0  0  0  0  0  0  0  0  0
   -4.7818   -1.5553   -2.1481 C   0  0  0  0  0  0  0  0  0  0  0  0
   -5.6281   -0.8882   -1.2645 C   0  0  0  0  0  0  0  0  0  0  0  0
   -7.4231   -1.4533   -1.0835 Br  0  0  0  0  0  0  0  0  0  0  0  0
   -5.1613    0.1826   -0.5066 C   0  0  0  0  0  0  0  0  0  0  0  0
   -3.8310    0.6123   -0.6335 C   0  0  0  0  0  0  0  0  0  0  0  0
   -3.4008    1.7428    0.2510 C   0  0  0  0  0  0  0  0  0  0  0  0
   -4.2660    2.4803    0.7123 O   0  0  0  0  0  0  0  0  0  0  0  0
   -2.0505    1.8332    0.4924 N   0  0  0  0  0  0  0  0  0  0  0  0
   -1.3479    2.7699    1.2786 C   0  0  0  0  0  0  0  0  0  0  0  0
   -1.9549    3.8152    1.9748 C   0  0  0  0  0  0  0  0  0  0  0  0
   -1.1769    4.7055    2.7180 C   0  0  0  0  0  0  0  0  0  0  0  0
    0.2068    4.5534    2.7711 C   0  0  0  0  0  0  0  0  0  0  0  0
    0.8225    3.5088    2.0800 C   0  0  0  0  0  0  0  0  0  0  0  0
    0.0602    2.6071    1.3228 C   0  0  0  0  0  0  0  0  0  0  0  0
    0.6424    1.5129    0.6318 N   0  0  0  0  0  0  0  0  0  0  0  0
    1.8083    1.8463   -0.2236 C   0  0  0  0  0  0  0  0  0  0  0  0
    3.1103    1.1749    0.2423 C   0  0  0  0  0  0  0  0  0  0  0  0
    2.9704   -0.2751    0.4061 N   0  0  0  0  0  0  0  0  0  0  0  0
    4.1218   -1.0537    0.3706 C   0  0  0  0  0  0  0  0  0  0  0  0
    5.2506   -0.5768    0.2801 O   0  0  0  0  0  0  0  0  0  0  0  0
    3.9935   -2.5273    0.4461 C   0  0  0  0  0  0  0  0  0  0  0  0
    3.1685   -3.2241   -0.4439 C   0  0  0  0  0  0  0  0  0  0  0  0
    3.0796   -4.6143   -0.3607 C   0  0  0  0  0  0  0  0  0  0  0  0
    3.8234   -5.3051    0.5975 C   0  0  0  0  0  0  0  0  0  0  0  0
    4.6662   -4.6112    1.4678 C   0  0  0  0  0  0  0  0  0  0  0  0
    4.7588   -3.2214    1.3885 C   0  0  0  0  0  0  0  0  0  0  0  0
    1.6516   -0.7512    0.8550 C   0  0  0  0  0  0  0  0  0  0  0  0
    0.8329    0.3567    1.5422 C   0  0  0  0  0  0  0  0  0  0  0  0
   -1.9861    1.0607   -3.6982 H   0  0  0  0  0  0  0  0  0  0  0  0
   -0.5708    1.6889   -2.8370 H   0  0  0  0  0  0  0  0  0  0  0  0
   -2.1796    2.2932   -2.4070 H   0  0  0  0  0  0  0  0  0  0  0  0
   -2.4901   -1.3349   -4.2002 H   0  0  0  0  0  0  0  0  0  0  0  0
   -2.9340   -2.8861   -3.4605 H   0  0  0  0  0  0  0  0  0  0  0  0
   -1.5473   -2.0005   -2.8378 H   0  0  0  0  0  0  0  0  0  0  0  0
   -5.1587   -2.3974   -2.7254 H   0  0  0  0  0  0  0  0  0  0  0  0
   -5.8276    0.6837    0.1934 H   0  0  0  0  0  0  0  0  0  0  0  0
   -1.4280    1.1692    0.0326 H   0  0  0  0  0  0  0  0  0  0  0  0
   -3.0297    3.9624    1.9542 H   0  0  0  0  0  0  0  0  0  0  0  0
   -1.6572    5.5180    3.2575 H   0  0  0  0  0  0  0  0  0  0  0  0
    0.8062    5.2459    3.3566 H   0  0  0  0  0  0  0  0  0  0  0  0
    1.9000    3.3981    2.1528 H   0  0  0  0  0  0  0  0  0  0  0  0
    1.9588    2.9278   -0.3256 H   0  0  0  0  0  0  0  0  0  0  0  0
    1.5723    1.4776   -1.2297 H   0  0  0  0  0  0  0  0  0  0  0  0
    3.4217    1.5784    1.2133 H   0  0  0  0  0  0  0  0  0  0  0  0
    3.9131    1.3861   -0.4730 H   0  0  0  0  0  0  0  0  0  0  0  0
    2.6105   -2.6924   -1.2097 H   0  0  0  0  0  0  0  0  0  0  0  0
    2.4403   -5.1615   -1.0493 H   0  0  0  0  0  0  0  0  0  0  0  0
    3.7576   -6.3891    0.6575 H   0  0  0  0  0  0  0  0  0  0  0  0
    5.2576   -5.1539    2.2012 H   0  0  0  0  0  0  0  0  0  0  0  0
    5.4270   -2.6802    2.0547 H   0  0  0  0  0  0  0  0  0  0  0  0
    1.1187   -1.1012   -0.0367 H   0  0  0  0  0  0  0  0  0  0  0  0
    1.7719   -1.5949    1.5415 H   0  0  0  0  0  0  0  0  0  0  0  0
    1.3549    0.6660    2.4579 H   0  0  0  0  0  0  0  0  0  0  0  0
   -0.1427   -0.0508    1.8328 H   0  0  0  0  0  0  0  0  0  0  0  0
  1  2  1  0
  2  3  1  0
  3  4  2  0
  4  5  1  0
  4  6  1  0
  6  7  2  0
  7  8  1  0
  7  9  1  0
  9 10  2  0
 10 11  1  0
 11 12  2  0
 11 13  1  0
 13 14  1  0
 14 15  2  0
 15 16  1  0
 16 17  2  0
 17 18  1  0
 18 19  2  0
 19 20  1  0
 20 21  1  0
 21 22  1  0
 22 23  1  0
 23 24  1  0
 24 25  2  0
 24 26  1  0
 26 27  2  0
 27 28  1  0
 28 29  2  0
 29 30  1  0
 30 31  2  0
 23 32  1  0
 32 33  1  0
 10  3  1  0
 19 14  1  0
 33 20  1  0
 31 26  1  0
  1 34  1  0
  1 35  1  0
  1 36  1  0
  5 37  1  0
  5 38  1  0
  5 39  1  0
  6 40  1  0
  9 41  1  0
 13 42  1  0
 15 43  1  0
 16 44  1  0
 17 45  1  0
 18 46  1  0
 21 47  1  0
 21 48  1  0
 22 49  1  0
 22 50  1  0
 27 51  1  0
 28 52  1  0
 29 53  1  0
 30 54  1  0
 31 55  1  0
 32 56  1  0
 32 57  1  0
 33 58  1  0
 33 59  1  0
M  END
$$$$
