
     RDKit          3D

 60 64  0  0  0  0  0  0  0  0999 V2000
   -1.0573    0.7331   -4.0505 C   0  0  0  0  0  0  0  0  0  0  0  0
   -1.7966    0.1617   -2.9318 N   0  0  0  0  0  0  0  0  0  0  0  0
   -3.0766    0.6676   -2.6955 C   0  0  0  0  0  0  0  0  0  0  0  0
   -3.5725    1.5544   -3.3975 O   0  0  0  0  0  0  0  0  0  0  0  0
   -3.8517    0.1577   -1.5183 C   0  0  0  0  0  0  0  0  0  0  0  0
   -4.7337    1.0007   -0.9506 C   0  0  0  0  0  0  0  0  0  0  0  0
   -5.6293    0.6773    0.1658 C   0  0  0  0  0  0  0  0  0  0  0  0
   -5.2534    0.9637    1.4820 C   0  0  0  0  0  0  0  0  0  0  0  0
   -6.1026    0.6311    2.5433 C   0  0  0  0  0  0  0  0  0  0  0  0
   -7.3361    0.0029    2.3038 C   0  0  0  0  0  0  0  0  0  0  0  0
   -8.2618   -0.3466    3.4447 C   0  0  0  0  0  0  0  0  0  0  0  0
   -7.6095   -0.5507    4.6229 F   0  0  0  0  0  0  0  0  0  0  0  0
   -9.1732    0.6331    3.6901 F   0  0  0  0  0  0  0  0  0  0  0  0
   -8.9822   -1.4821    3.2188 F   0  0  0  0  0  0  0  0  0  0  0  0
   -7.7127   -0.2656    0.9781 C   0  0  0  0  0  0  0  0  0  0  0  0
   -6.8644    0.0670   -0.0826 C   0  0  0  0  0  0  0  0  0  0  0  0
   -3.6288   -1.4714   -1.0213 S   0  0  0  0  0  0  0  0  0  0  0  0
   -1.8627   -1.5501   -1.1476 C   0  0  0  0  0  0  0  0  0  0  0  0
   -1.2045   -2.4630   -0.3036 C   0  0  0  0  0  0  0  0  0  0  0  0
    0.1766   -2.6190   -0.3661 C   0  0  0  0  0  0  0  0  0  0  0  0
    0.8949   -1.8659   -1.2891 C   0  0  0  0  0  0  0  0  0  0  0  0
    2.3602   -1.9964   -1.3687 C   0  0  0  0  0  0  0  0  0  0  0  0
    2.8263   -2.5618   -2.3511 O   0  0  0  0  0  0  0  0  0  0  0  0
    3.1198   -1.4700   -0.3330 N   0  0  0  0  0  0  0  0  0  0  0  0
    2.6078   -0.6461    0.7756 C   0  0  0  0  0  0  0  0  0  0  0  0
    3.5692    0.5038    1.1303 C   0  0  0  0  0  0  0  0  0  0  0  0
    4.9350    0.0230    1.4502 N   0  0  0  0  0  0  0  0  0  0  0  0
    5.9124    0.9927    1.1403 C   0  0  0  0  0  0  0  0  0  0  0  0
    5.8544    2.2485    1.7566 C   0  0  0  0  0  0  0  0  0  0  0  0
    6.8023    3.2235    1.4464 C   0  0  0  0  0  0  0  0  0  0  0  0
    7.8023    2.9262    0.5336 C   0  0  0  0  0  0  0  0  0  0  0  0
    7.8073    1.6607   -0.0253 C   0  0  0  0  0  0  0  0  0  0  0  0
    6.8945    0.7032    0.2576 N   0  0  0  0  0  0  0  0  0  0  0  0
    5.2526   -1.3364    0.9535 C   0  0  0  0  0  0  0  0  0  0  0  0
    4.5804   -1.6227   -0.3976 C   0  0  0  0  0  0  0  0  0  0  0  0
    0.2497   -0.9779   -2.1568 C   0  0  0  0  0  0  0  0  0  0  0  0
   -1.1407   -0.7877   -2.0824 C   0  0  0  0  0  0  0  0  0  0  0  0
   -1.7075    1.2912   -4.7295 H   0  0  0  0  0  0  0  0  0  0  0  0
   -0.3013    1.4224   -3.6634 H   0  0  0  0  0  0  0  0  0  0  0  0
   -0.5861   -0.0656   -4.6333 H   0  0  0  0  0  0  0  0  0  0  0  0
   -4.8447    2.0169   -1.3262 H   0  0  0  0  0  0  0  0  0  0  0  0
   -4.2982    1.4426    1.6910 H   0  0  0  0  0  0  0  0  0  0  0  0
   -5.7954    0.8602    3.5631 H   0  0  0  0  0  0  0  0  0  0  0  0
   -8.6703   -0.7433    0.7655 H   0  0  0  0  0  0  0  0  0  0  0  0
   -7.1705   -0.1590   -1.1032 H   0  0  0  0  0  0  0  0  0  0  0  0
   -1.7716   -3.0645    0.4050 H   0  0  0  0  0  0  0  0  0  0  0  0
    0.6815   -3.3272    0.2850 H   0  0  0  0  0  0  0  0  0  0  0  0
    2.4834   -1.3157    1.6370 H   0  0  0  0  0  0  0  0  0  0  0  0
    1.6270   -0.2276    0.5322 H   0  0  0  0  0  0  0  0  0  0  0  0
    3.1659    1.0507    1.9894 H   0  0  0  0  0  0  0  0  0  0  0  0
    3.5910    1.1901    0.2717 H   0  0  0  0  0  0  0  0  0  0  0  0
    5.0838    2.4663    2.4890 H   0  0  0  0  0  0  0  0  0  0  0  0
    6.7622    4.1996    1.9240 H   0  0  0  0  0  0  0  0  0  0  0  0
    8.5609    3.6543    0.2700 H   0  0  0  0  0  0  0  0  0  0  0  0
    8.5735    1.3671   -0.7396 H   0  0  0  0  0  0  0  0  0  0  0  0
    6.3298   -1.5355    0.9070 H   0  0  0  0  0  0  0  0  0  0  0  0
    4.8635   -2.0452    1.6949 H   0  0  0  0  0  0  0  0  0  0  0  0
    4.9415   -0.9294   -1.1666 H   0  0  0  0  0  0  0  0  0  0  0  0
    4.8159   -2.6397   -0.7293 H   0  0  0  0  0  0  0  0  0  0  0  0
    0.8697   -0.4272   -2.8584 H   0  0  0  0  0  0  0  0  0  0  0  0
  1  2  1  0
  2  3  1  0
  3  4  2  0
  3  5  1  0
  5  6  2  3
  6  7  1  0
  7  8  2  0
  8  9  1  0
  9 10  2  0
 10 11  1  0
 11 12  1  0
 11 13  1  0
 11 14  1  0
 10 15  1  0
 15 16  2  0
  5 17  1  0
 17 18  1  0
 18 19  2  0
 19 20  1  0
 20 21  2  0
 21 22  1  0
 22 23  2  0
 22 24  1  0
 24 25  1  0
 25 26  1  0
 26 27  1  0
 27 28  1  0
 28 29  2  0
 29 30  1  0
 30 31  2  0
 31 32  1  0
 32 33  2  0
 27 34  1  0
 34 35  1  0
 21 36  1  0
 36 37  2  0
 37  2  1  0
 16  7  1  0
 37 18  1  0
 35 24  1  0
 33 28  1  0
  1 38  1  0
  1 39  1  0
  1 40  1  0
  6 41  1  0
  8 42  1  0
  9 43  1  0
 15 44  1  0
 16 45  1  0
 19 46  1  0
 20 47  1  0
 25 48  1  0
 25 49  1  0
 26 50  1  0
 26 51  1  0
 29 52  1  0
 30 53  1  0
 31 54  1  0
 32 55  1  0
 34 56  1  0
 34 57  1  0
 35 58  1  0
 35 59  1  0
 36 60  1  0
M  END
$$$$
