
     RDKit          3D

 40 42  0  0  0  0  0  0  0  0999 V2000
   -5.8627   -1.4070    0.3386 C   0  0  0  0  0  0  0  0  0  0  0  0
   -5.3485   -0.0436    0.8362 C   0  0  0  0  0  0  0  0  0  0  0  0
   -5.8368    0.1481    2.2884 C   0  0  0  0  0  0  0  0  0  0  0  0
   -5.9531    1.0838   -0.0206 C   0  0  0  0  0  0  0  0  0  0  0  0
   -3.8283    0.0053    0.7925 C   0  0  0  0  0  0  0  0  0  0  0  0
   -3.0511    0.1852    1.8441 N   0  0  0  0  0  0  0  0  0  0  0  0
   -1.7114    0.1867    1.5168 N   0  0  0  0  0  0  0  0  0  0  0  0
   -1.5141    0.0082    0.2308 C   0  0  0  0  0  0  0  0  0  0  0  0
   -0.2598   -0.0253   -0.3174 N   0  0  0  0  0  0  0  0  0  0  0  0
    0.0754   -0.2039   -1.6388 C   0  0  0  0  0  0  0  0  0  0  0  0
   -0.6939   -0.3679   -2.5815 O   0  0  0  0  0  0  0  0  0  0  0  0
    1.5890   -0.1830   -1.8755 C   0  0  0  0  0  0  0  0  0  0  0  0
    2.2998    0.0187   -0.6566 O   0  0  0  0  0  0  0  0  0  0  0  0
    3.6662    0.0575   -0.7327 C   0  0  0  0  0  0  0  0  0  0  0  0
    4.4278   -0.0844   -1.9084 C   0  0  0  0  0  0  0  0  0  0  0  0
    5.8270   -0.0270   -1.8637 C   0  0  0  0  0  0  0  0  0  0  0  0
    6.4255    0.1714   -0.6394 C   0  0  0  0  0  0  0  0  0  0  0  0
    5.6858    0.3102    0.5092 C   0  0  0  0  0  0  0  0  0  0  0  0
    4.3082    0.2580    0.4952 C   0  0  0  0  0  0  0  0  0  0  0  0
    6.4643    0.4971    1.6082 O   0  0  0  0  0  0  0  0  0  0  0  0
    7.7806    0.4599    1.0181 C   0  0  0  0  0  0  0  0  0  0  0  0
    7.7625    0.2532   -0.4101 O   0  0  0  0  0  0  0  0  0  0  0  0
   -2.9403   -0.1745   -0.6769 S   0  0  0  0  0  0  0  0  0  0  0  0
   -5.4248   -2.2309    0.9144 H   0  0  0  0  0  0  0  0  0  0  0  0
   -6.9527   -1.4760    0.4329 H   0  0  0  0  0  0  0  0  0  0  0  0
   -5.6184   -1.5764   -0.7161 H   0  0  0  0  0  0  0  0  0  0  0  0
   -5.5117    1.1129    2.6958 H   0  0  0  0  0  0  0  0  0  0  0  0
   -6.9310    0.1168    2.3471 H   0  0  0  0  0  0  0  0  0  0  0  0
   -5.4481   -0.6369    2.9481 H   0  0  0  0  0  0  0  0  0  0  0  0
   -7.0461    1.0990    0.0615 H   0  0  0  0  0  0  0  0  0  0  0  0
   -5.5808    2.0656    0.2947 H   0  0  0  0  0  0  0  0  0  0  0  0
   -5.7106    0.9656   -1.0827 H   0  0  0  0  0  0  0  0  0  0  0  0
    0.4957    0.0981    0.3480 H   0  0  0  0  0  0  0  0  0  0  0  0
    1.7925    0.6387   -2.5719 H   0  0  0  0  0  0  0  0  0  0  0  0
    1.8576   -1.1512   -2.3137 H   0  0  0  0  0  0  0  0  0  0  0  0
    3.9629   -0.2411   -2.8769 H   0  0  0  0  0  0  0  0  0  0  0  0
    6.4230   -0.1351   -2.7633 H   0  0  0  0  0  0  0  0  0  0  0  0
    3.7437    0.3700    1.4141 H   0  0  0  0  0  0  0  0  0  0  0  0
    8.3504   -0.3530    1.4828 H   0  0  0  0  0  0  0  0  0  0  0  0
    8.2863    1.4093    1.2286 H   0  0  0  0  0  0  0  0  0  0  0  0
  1  2  1  0
  2  3  1  0
  2  4  1  0
  2  5  1  0
  5  6  2  0
  6  7  1  0
  7  8  2  0
  8  9  1  0
  9 10  1  0
 10 11  2  0
 10 12  1  0
 12 13  1  0
 13 14  1  0
 14 15  2  0
 15 16  1  0
 16 17  2  0
 17 18  1  0
 18 19  2  0
 18 20  1  0
 20 21  1  0
 21 22  1  0
  8 23  1  0
 23  5  1  0
 19 14  1  0
 22 17  1  0
  1 24  1  0
  1 25  1  0
  1 26  1  0
  3 27  1  0
  3 28  1  0
  3 29  1  0
  4 30  1  0
  4 31  1  0
  4 32  1  0
  9 33  1  0
 12 34  1  0
 12 35  1  0
 15 36  1  0
 16 37  1  0
 19 38  1  0
 21 39  1  0
 21 40  1  0
M  END
$$$$
