
     RDKit          3D

 48 49  0  0  0  0  0  0  0  0999 V2000
   -7.2203   -0.3685    2.8226 C   0  0  0  0  0  0  0  0  0  0  0  0
   -6.8016   -0.2105    1.3900 C   0  0  0  0  0  0  0  0  0  0  0  0
   -7.7479   -0.1952    0.3661 C   0  0  0  0  0  0  0  0  0  0  0  0
   -7.3400   -0.0654   -0.9608 C   0  0  0  0  0  0  0  0  0  0  0  0
   -5.9776    0.0427   -1.2919 C   0  0  0  0  0  0  0  0  0  0  0  0
   -5.6117    0.1974   -2.7433 C   0  0  0  0  0  0  0  0  0  0  0  0
   -5.0101    0.0091   -0.2634 C   0  0  0  0  0  0  0  0  0  0  0  0
   -3.6418    0.1035   -0.6132 N   0  0  0  0  0  0  0  0  0  0  0  0
   -2.5383    0.0391    0.2217 C   0  0  0  0  0  0  0  0  0  0  0  0
   -2.5369   -0.0982    1.4397 O   0  0  0  0  0  0  0  0  0  0  0  0
   -1.2459    0.1606   -0.5632 C   0  0  0  0  0  0  0  0  0  0  0  0
   -0.0272    0.0248    0.3408 C   0  0  0  0  0  0  0  0  0  0  0  0
    1.2608    0.1299   -0.4444 C   0  0  0  0  0  0  0  0  0  0  0  0
    1.2923    0.3268   -1.6558 O   0  0  0  0  0  0  0  0  0  0  0  0
    2.3778   -0.0232    0.3655 N   0  0  0  0  0  0  0  0  0  0  0  0
    3.6177    0.0649   -0.1852 N   0  0  0  0  0  0  0  0  0  0  0  0
    4.6127   -0.1021    0.6257 C   0  0  0  0  0  0  0  0  0  0  0  0
    6.0032   -0.0178    0.1343 C   0  0  0  0  0  0  0  0  0  0  0  0
    7.0390   -0.2306    1.0514 C   0  0  0  0  0  0  0  0  0  0  0  0
    8.3699   -0.1545    0.6115 C   0  0  0  0  0  0  0  0  0  0  0  0
    9.4615   -0.3797    1.5683 N   0  0  0  0  0  4  0  0  0  0  0  0
   10.6206   -0.3852    1.1333 O   0  0  0  0  0  0  0  0  0  0  0  0
    9.1533   -0.5497    2.7565 O   0  0  0  0  0  1  0  0  0  0  0  0
    8.6693    0.1322   -0.7274 C   0  0  0  0  0  0  0  0  0  0  0  0
    7.6276    0.3445   -1.6333 C   0  0  0  0  0  0  0  0  0  0  0  0
    6.3024    0.2686   -1.2052 C   0  0  0  0  0  0  0  0  0  0  0  0
    5.3497    0.4867   -2.1609 O   0  0  0  0  0  0  0  0  0  0  0  0
   -5.4392   -0.1184    1.0643 C   0  0  0  0  0  0  0  0  0  0  0  0
   -6.6683    0.3294    3.4624 H   0  0  0  0  0  0  0  0  0  0  0  0
   -7.0284   -1.3927    3.1593 H   0  0  0  0  0  0  0  0  0  0  0  0
   -8.2869   -0.1565    2.9510 H   0  0  0  0  0  0  0  0  0  0  0  0
   -8.8081   -0.2804    0.5924 H   0  0  0  0  0  0  0  0  0  0  0  0
   -8.0998   -0.0484   -1.7408 H   0  0  0  0  0  0  0  0  0  0  0  0
   -6.4987    0.1835   -3.3886 H   0  0  0  0  0  0  0  0  0  0  0  0
   -4.9642   -0.6254   -3.0642 H   0  0  0  0  0  0  0  0  0  0  0  0
   -5.1031    1.1550   -2.9034 H   0  0  0  0  0  0  0  0  0  0  0  0
   -3.4420    0.2060   -1.5989 H   0  0  0  0  0  0  0  0  0  0  0  0
   -1.2308   -0.6198   -1.3332 H   0  0  0  0  0  0  0  0  0  0  0  0
   -1.2366    1.1347   -1.0669 H   0  0  0  0  0  0  0  0  0  0  0  0
   -0.0436   -0.9449    0.8525 H   0  0  0  0  0  0  0  0  0  0  0  0
   -0.0318    0.8116    1.1045 H   0  0  0  0  0  0  0  0  0  0  0  0
    2.2731   -0.1895    1.3614 H   0  0  0  0  0  0  0  0  0  0  0  0
    4.4647   -0.3126    1.7007 H   0  0  0  0  0  0  0  0  0  0  0  0
    6.8118   -0.4573    2.0920 H   0  0  0  0  0  0  0  0  0  0  0  0
    9.6972    0.1935   -1.0800 H   0  0  0  0  0  0  0  0  0  0  0  0
    7.8449    0.5663   -2.6762 H   0  0  0  0  0  0  0  0  0  0  0  0
    4.4576    0.3923   -1.7520 H   0  0  0  0  0  0  0  0  0  0  0  0
   -4.7260   -0.1434    1.8842 H   0  0  0  0  0  0  0  0  0  0  0  0
  1  2  1  0
  2  3  2  0
  3  4  1  0
  4  5  2  0
  5  6  1  0
  5  7  1  0
  7  8  1  0
  8  9  1  0
  9 10  2  0
  9 11  1  0
 11 12  1  0
 12 13  1  0
 13 14  2  0
 13 15  1  0
 15 16  1  0
 16 17  2  3
 17 18  1  0
 18 19  2  0
 19 20  1  0
 20 21  1  0
 21 22  2  0
 21 23  1  0
 20 24  2  0
 24 25  1  0
 25 26  2  0
 26 27  1  0
  7 28  2  0
 28  2  1  0
 26 18  1  0
  1 29  1  0
  1 30  1  0
  1 31  1  0
  3 32  1  0
  4 33  1  0
  6 34  1  0
  6 35  1  0
  6 36  1  0
  8 37  1  0
 11 38  1  0
 11 39  1  0
 12 40  1  0
 12 41  1  0
 15 42  1  0
 17 43  1  0
 19 44  1  0
 24 45  1  0
 25 46  1  0
 27 47  1  0
 28 48  1  0
M  CHG  2  21   1  23  -1
M  END
$$$$
