
     RDKit          3D

 51 53  0  0  0  0  0  0  0  0999 V2000
    4.2442   -4.3748    1.2715 C   0  0  0  0  0  0  0  0  0  0  0  0
    4.1198   -3.0346    0.8093 O   0  0  0  0  0  0  0  0  0  0  0  0
    2.8557   -2.5071    0.7355 C   0  0  0  0  0  0  0  0  0  0  0  0
    1.6835   -3.2141    1.0272 C   0  0  0  0  0  0  0  0  0  0  0  0
    0.4390   -2.5853    0.9431 C   0  0  0  0  0  0  0  0  0  0  0  0
    0.3593   -1.2432    0.5692 C   0  0  0  0  0  0  0  0  0  0  0  0
   -0.9458   -0.5507    0.5029 C   0  0  0  0  0  0  0  0  0  0  0  0
   -2.0455   -1.1551    0.8238 N   0  0  0  0  0  0  0  0  0  0  0  0
   -3.2207   -0.4578    0.7100 N   0  0  0  0  0  0  0  0  0  0  0  0
   -3.5348    0.4530   -0.2911 C   0  0  0  0  0  0  0  0  0  0  0  0
   -2.7499    0.8691   -1.1420 O   0  0  0  0  0  0  0  0  0  0  0  0
   -4.9476    0.9628   -0.3014 C   0  0  0  0  0  0  0  0  0  0  0  0
   -5.1773    2.1543   -1.0146 C   0  0  0  0  0  0  0  0  0  0  0  0
   -6.4510    2.7185   -1.0775 C   0  0  0  0  0  0  0  0  0  0  0  0
   -7.5115    2.0993   -0.4267 C   0  0  0  0  0  0  0  0  0  0  0  0
   -7.3043    0.9101    0.2761 C   0  0  0  0  0  0  0  0  0  0  0  0
   -6.0316    0.3228    0.3331 C   0  0  0  0  0  0  0  0  0  0  0  0
   -5.7870   -0.8470    1.0091 O   0  0  0  0  0  0  0  0  0  0  0  0
   -6.8909   -1.7339    1.1731 C   0  0  0  0  0  0  0  0  0  0  0  0
    1.5219   -0.5295    0.2678 C   0  0  0  0  0  0  0  0  0  0  0  0
    2.7812   -1.1545    0.3379 C   0  0  0  0  0  0  0  0  0  0  0  0
    4.0625   -0.3900    0.0503 C   0  0  0  0  0  0  0  0  0  0  0  0
    3.7867    0.8612   -0.5886 O   0  0  0  0  0  0  0  0  0  0  0  0
    4.8333    1.7209   -0.7879 C   0  0  0  0  0  0  0  0  0  0  0  0
    4.4805    2.9882   -1.2739 C   0  0  0  0  0  0  0  0  0  0  0  0
    3.1895    3.2818   -1.5004 F   0  0  0  0  0  0  0  0  0  0  0  0
    5.4450    3.9611   -1.5162 C   0  0  0  0  0  0  0  0  0  0  0  0
    5.0822    5.1685   -1.9680 F   0  0  0  0  0  0  0  0  0  0  0  0
    6.7816    3.6826   -1.2822 C   0  0  0  0  0  0  0  0  0  0  0  0
    7.7137    4.6172   -1.5105 F   0  0  0  0  0  0  0  0  0  0  0  0
    7.1518    2.4326   -0.8068 C   0  0  0  0  0  0  0  0  0  0  0  0
    8.4453    2.1591   -0.5805 F   0  0  0  0  0  0  0  0  0  0  0  0
    6.1871    1.4567   -0.5611 C   0  0  0  0  0  0  0  0  0  0  0  0
    6.5993    0.2627   -0.1048 F   0  0  0  0  0  0  0  0  0  0  0  0
    3.7457   -5.0747    0.5925 H   0  0  0  0  0  0  0  0  0  0  0  0
    3.8667   -4.4736    2.2958 H   0  0  0  0  0  0  0  0  0  0  0  0
    5.3093   -4.6256    1.2838 H   0  0  0  0  0  0  0  0  0  0  0  0
    1.6991   -4.2556    1.3287 H   0  0  0  0  0  0  0  0  0  0  0  0
   -0.4635   -3.1463    1.1756 H   0  0  0  0  0  0  0  0  0  0  0  0
   -0.9114    0.5128    0.2081 H   0  0  0  0  0  0  0  0  0  0  0  0
   -4.0040   -0.8932    1.1929 H   0  0  0  0  0  0  0  0  0  0  0  0
   -4.3539    2.6536   -1.5243 H   0  0  0  0  0  0  0  0  0  0  0  0
   -6.6096    3.6425   -1.6286 H   0  0  0  0  0  0  0  0  0  0  0  0
   -8.5039    2.5428   -0.4641 H   0  0  0  0  0  0  0  0  0  0  0  0
   -8.1574    0.4688    0.7817 H   0  0  0  0  0  0  0  0  0  0  0  0
   -7.5578   -1.3788    1.9646 H   0  0  0  0  0  0  0  0  0  0  0  0
   -7.4351   -1.8836    0.2328 H   0  0  0  0  0  0  0  0  0  0  0  0
   -6.4929   -2.7041    1.4860 H   0  0  0  0  0  0  0  0  0  0  0  0
    1.4473    0.5165   -0.0196 H   0  0  0  0  0  0  0  0  0  0  0  0
    4.5639   -0.2150    1.0135 H   0  0  0  0  0  0  0  0  0  0  0  0
    4.6924   -0.9912   -0.6160 H   0  0  0  0  0  0  0  0  0  0  0  0
  1  2  1  0
  2  3  1  0
  3  4  2  0
  4  5  1  0
  5  6  2  0
  6  7  1  0
  7  8  2  3
  8  9  1  0
  9 10  1  0
 10 11  2  0
 10 12  1  0
 12 13  2  0
 13 14  1  0
 14 15  2  0
 15 16  1  0
 16 17  2  0
 17 18  1  0
 18 19  1  0
  6 20  1  0
 20 21  2  0
 21 22  1  0
 22 23  1  0
 23 24  1  0
 24 25  2  0
 25 26  1  0
 25 27  1  0
 27 28  1  0
 27 29  2  0
 29 30  1  0
 29 31  1  0
 31 32  1  0
 31 33  2  0
 33 34  1  0
 21  3  1  0
 33 24  1  0
 17 12  1  0
  1 35  1  0
  1 36  1  0
  1 37  1  0
  4 38  1  0
  5 39  1  0
  7 40  1  0
  9 41  1  0
 13 42  1  0
 14 43  1  0
 15 44  1  0
 16 45  1  0
 19 46  1  0
 19 47  1  0
 19 48  1  0
 20 49  1  0
 22 50  1  0
 22 51  1  0
M  END
$$$$
