
     RDKit          3D

 58 62  0  0  0  0  0  0  0  0999 V2000
    7.5060    0.2008    1.3097 C   0  0  0  0  0  0  0  0  0  0  0  0
    6.7280    1.3543    1.0150 O   0  0  0  0  0  0  0  0  0  0  0  0
    5.3627    1.2279    1.0668 C   0  0  0  0  0  0  0  0  0  0  0  0
    4.6904    0.1119    1.5691 C   0  0  0  0  0  0  0  0  0  0  0  0
    3.2915    0.0818    1.5922 C   0  0  0  0  0  0  0  0  0  0  0  0
    2.5411    1.1551    1.1010 C   0  0  0  0  0  0  0  0  0  0  0  0
    1.0840    1.0941    1.1387 C   0  0  0  0  0  0  0  0  0  0  0  0
    0.2943    0.2812    1.8153 N   0  0  0  0  0  0  0  0  0  0  0  0
   -0.9830    0.6731    1.4679 C   0  0  0  0  0  0  0  0  0  0  0  0
   -2.1711    0.0081    2.0596 C   0  0  0  0  0  0  0  0  0  0  0  0
   -2.5035   -1.2166    1.3473 N   0  0  0  0  0  0  0  0  0  0  0  0
   -3.4851   -1.4011    0.4034 C   0  0  0  0  0  0  0  0  0  0  0  0
   -4.4758   -0.1148   -0.2024 S   0  0  0  0  0  0  0  0  0  0  0  0
   -5.1504   -0.8526   -1.7214 C   0  0  0  0  0  0  0  0  0  0  0  0
   -4.2203   -0.6917   -2.9030 C   0  0  0  0  0  0  0  0  0  0  0  0
   -3.2833   -1.6914   -3.2197 C   0  0  0  0  0  0  0  0  0  0  0  0
   -2.4147   -1.5437   -4.3053 C   0  0  0  0  0  0  0  0  0  0  0  0
   -2.4713   -0.3919   -5.0868 C   0  0  0  0  0  0  0  0  0  0  0  0
   -3.3913    0.6035   -4.7715 C   0  0  0  0  0  0  0  0  0  0  0  0
   -3.4442    1.7126   -5.5229 F   0  0  0  0  0  0  0  0  0  0  0  0
   -4.2604    0.4682   -3.6914 C   0  0  0  0  0  0  0  0  0  0  0  0
   -3.5981   -2.6609    0.0546 N   0  0  0  0  0  0  0  0  0  0  0  0
   -2.6471   -3.3283    0.7867 C   0  0  0  0  0  0  0  0  0  0  0  0
   -2.3427   -4.6885    0.8103 C   0  0  0  0  0  0  0  0  0  0  0  0
   -1.3225   -5.0603    1.6729 C   0  0  0  0  0  0  0  0  0  0  0  0
   -0.6152   -4.2089    2.4499 N   0  0  0  0  0  0  0  0  0  0  0  0
   -0.9041   -2.8861    2.4152 C   0  0  0  0  0  0  0  0  0  0  0  0
   -1.9355   -2.4508    1.5924 C   0  0  0  0  0  0  0  0  0  0  0  0
   -0.9080    1.7276    0.5784 C   0  0  0  0  0  0  0  0  0  0  0  0
   -1.8826    2.5751   -0.1305 C   0  0  0  0  0  0  0  0  0  0  0  0
    0.4125    1.9970    0.3585 O   0  0  0  0  0  0  0  0  0  0  0  0
    3.2191    2.2768    0.5988 C   0  0  0  0  0  0  0  0  0  0  0  0
    4.6192    2.3288    0.5993 C   0  0  0  0  0  0  0  0  0  0  0  0
    5.3383    3.4043    0.1301 O   0  0  0  0  0  0  0  0  0  0  0  0
    4.6856    4.6648    0.1758 C   0  0  0  0  0  0  0  0  0  0  0  0
    8.5550    0.4492    1.1161 H   0  0  0  0  0  0  0  0  0  0  0  0
    7.4180   -0.0711    2.3699 H   0  0  0  0  0  0  0  0  0  0  0  0
    7.2350   -0.6437    0.6596 H   0  0  0  0  0  0  0  0  0  0  0  0
    5.2246   -0.7515    1.9568 H   0  0  0  0  0  0  0  0  0  0  0  0
    2.7870   -0.7983    1.9902 H   0  0  0  0  0  0  0  0  0  0  0  0
   -1.9767   -0.2621    3.1039 H   0  0  0  0  0  0  0  0  0  0  0  0
   -3.0403    0.6709    2.0738 H   0  0  0  0  0  0  0  0  0  0  0  0
   -5.4184   -1.9048   -1.5824 H   0  0  0  0  0  0  0  0  0  0  0  0
   -6.0947   -0.3373   -1.9425 H   0  0  0  0  0  0  0  0  0  0  0  0
   -3.2244   -2.5945   -2.6113 H   0  0  0  0  0  0  0  0  0  0  0  0
   -1.6902   -2.3234   -4.5342 H   0  0  0  0  0  0  0  0  0  0  0  0
   -1.8044   -0.2635   -5.9342 H   0  0  0  0  0  0  0  0  0  0  0  0
   -4.9597    1.2727   -3.4776 H   0  0  0  0  0  0  0  0  0  0  0  0
   -2.8793   -5.4066    0.2041 H   0  0  0  0  0  0  0  0  0  0  0  0
   -1.0293   -6.1040    1.7610 H   0  0  0  0  0  0  0  0  0  0  0  0
   -0.3052   -2.2329    3.0396 H   0  0  0  0  0  0  0  0  0  0  0  0
   -2.8164    2.6491    0.4376 H   0  0  0  0  0  0  0  0  0  0  0  0
   -2.1032    2.1624   -1.1171 H   0  0  0  0  0  0  0  0  0  0  0  0
   -1.4931    3.5892   -0.2617 H   0  0  0  0  0  0  0  0  0  0  0  0
    2.6409    3.1084    0.2109 H   0  0  0  0  0  0  0  0  0  0  0  0
    4.1782    4.8223    1.1319 H   0  0  0  0  0  0  0  0  0  0  0  0
    3.9864    4.7661   -0.6590 H   0  0  0  0  0  0  0  0  0  0  0  0
    5.4477    5.4438    0.0727 H   0  0  0  0  0  0  0  0  0  0  0  0
  1  2  1  0
  2  3  1  0
  3  4  2  0
  4  5  1  0
  5  6  2  0
  6  7  1  0
  7  8  2  0
  8  9  1  0
  9 10  1  0
 10 11  1  0
 11 12  1  0
 12 13  1  0
 13 14  1  0
 14 15  1  0
 15 16  2  0
 16 17  1  0
 17 18  2  0
 18 19  1  0
 19 20  1  0
 19 21  2  0
 12 22  2  0
 22 23  1  0
 23 24  2  0
 24 25  1  0
 25 26  2  0
 26 27  1  0
 27 28  2  0
  9 29  2  0
 29 30  1  0
 29 31  1  0
  6 32  1  0
 32 33  2  0
 33 34  1  0
 34 35  1  0
 33  3  1  0
 31  7  1  0
 28 11  1  0
 21 15  1  0
 28 23  1  0
  1 36  1  0
  1 37  1  0
  1 38  1  0
  4 39  1  0
  5 40  1  0
 10 41  1  0
 10 42  1  0
 14 43  1  0
 14 44  1  0
 16 45  1  0
 17 46  1  0
 18 47  1  0
 21 48  1  0
 24 49  1  0
 25 50  1  0
 27 51  1  0
 30 52  1  0
 30 53  1  0
 30 54  1  0
 32 55  1  0
 35 56  1  0
 35 57  1  0
 35 58  1  0
M  END
$$$$
