
     RDKit          3D

 41 43  0  0  0  0  0  0  0  0999 V2000
    6.4711    2.9372    1.9559 C   0  0  0  0  0  0  0  0  0  0  0  0
    5.4694    2.0756    1.7224 C   0  0  0  0  0  0  0  0  0  0  0  0
    5.5825    0.6856    2.1469 C   0  0  0  0  0  0  0  0  0  0  0  0
    4.5794   -0.1808    1.9159 C   0  0  0  0  0  0  0  0  0  0  0  0
    3.3391    0.2456    1.2300 C   0  0  0  0  0  0  0  0  0  0  0  0
    2.3267   -0.6281    1.0007 C   0  0  0  0  0  0  0  0  0  0  0  0
    2.3359   -1.9509    1.3614 N   0  0  0  0  0  0  0  0  0  0  0  0
    1.2374   -2.7117    1.0616 C   0  0  0  0  0  0  0  0  0  0  0  0
    1.1163   -3.8976    1.3213 O   0  0  0  0  0  0  0  0  0  0  0  0
    0.2349   -1.8584    0.3775 C   0  0  0  0  0  0  0  0  0  0  0  0
   -0.9358   -2.3622   -0.0375 C   0  0  0  0  0  0  0  0  0  0  0  0
   -1.9977   -1.6253   -0.7310 C   0  0  0  0  0  0  0  0  0  0  0  0
   -2.3469   -1.9960   -2.0309 C   0  0  0  0  0  0  0  0  0  0  0  0
   -3.3671   -1.3227   -2.7083 C   0  0  0  0  0  0  0  0  0  0  0  0
   -4.0539   -0.2728   -2.0903 C   0  0  0  0  0  0  0  0  0  0  0  0
   -5.0664    0.4445   -2.6782 O   0  0  0  0  0  0  0  0  0  0  0  0
   -5.4368    0.0966   -4.0041 C   0  0  0  0  0  0  0  0  0  0  0  0
   -3.7113    0.1020   -0.7752 C   0  0  0  0  0  0  0  0  0  0  0  0
   -4.4354    1.1374   -0.2356 O   0  0  0  0  0  0  0  0  0  0  0  0
   -4.0504    1.6120    1.0464 C   0  0  0  0  0  0  0  0  0  0  0  0
   -2.6910   -0.5828   -0.1029 C   0  0  0  0  0  0  0  0  0  0  0  0
    0.8166   -0.2402    0.2039 S   0  0  0  0  0  0  0  0  0  0  0  0
    3.2548    1.6613    0.8074 C   0  0  0  0  0  0  0  0  0  0  0  0
    4.2611    2.5226    1.0411 C   0  0  0  0  0  0  0  0  0  0  0  0
    7.3828    2.6328    2.4604 H   0  0  0  0  0  0  0  0  0  0  0  0
    6.4138    3.9774    1.6502 H   0  0  0  0  0  0  0  0  0  0  0  0
    6.4862    0.3580    2.6512 H   0  0  0  0  0  0  0  0  0  0  0  0
    4.7029   -1.2041    2.2466 H   0  0  0  0  0  0  0  0  0  0  0  0
    3.1058   -2.3989    1.8314 H   0  0  0  0  0  0  0  0  0  0  0  0
   -1.1478   -3.4190    0.1196 H   0  0  0  0  0  0  0  0  0  0  0  0
   -1.8254   -2.8090   -2.5317 H   0  0  0  0  0  0  0  0  0  0  0  0
   -3.6006   -1.6432   -3.7178 H   0  0  0  0  0  0  0  0  0  0  0  0
   -6.2478    0.7642   -4.3109 H   0  0  0  0  0  0  0  0  0  0  0  0
   -5.8156   -0.9296   -4.0524 H   0  0  0  0  0  0  0  0  0  0  0  0
   -4.6039    0.2453   -4.6992 H   0  0  0  0  0  0  0  0  0  0  0  0
   -4.6904    2.4646    1.2933 H   0  0  0  0  0  0  0  0  0  0  0  0
   -3.0137    1.9648    1.0449 H   0  0  0  0  0  0  0  0  0  0  0  0
   -4.2081    0.8463    1.8129 H   0  0  0  0  0  0  0  0  0  0  0  0
   -2.4220   -0.3237    0.9157 H   0  0  0  0  0  0  0  0  0  0  0  0
    2.3701    2.0262    0.2965 H   0  0  0  0  0  0  0  0  0  0  0  0
    4.1812    3.5573    0.7229 H   0  0  0  0  0  0  0  0  0  0  0  0
  1  2  2  0
  2  3  1  0
  3  4  2  0
  4  5  1  0
  5  6  2  3
  6  7  1  0
  7  8  1  0
  8  9  2  0
  8 10  1  0
 10 11  2  3
 11 12  1  0
 12 13  2  0
 13 14  1  0
 14 15  2  0
 15 16  1  0
 16 17  1  0
 15 18  1  0
 18 19  1  0
 19 20  1  0
 18 21  2  0
 10 22  1  0
  5 23  1  0
 23 24  2  0
 24  2  1  0
 22  6  1  0
 21 12  1  0
  1 25  1  0
  1 26  1  0
  3 27  1  0
  4 28  1  0
  7 29  1  0
 11 30  1  0
 13 31  1  0
 14 32  1  0
 17 33  1  0
 17 34  1  0
 17 35  1  0
 20 36  1  0
 20 37  1  0
 20 38  1  0
 21 39  1  0
 23 40  1  0
 24 41  1  0
M  END
$$$$
