
     RDKit          3D

 59 62  0  0  0  0  0  0  0  0999 V2000
   -2.0828    1.0329   -3.0080 C   0  0  0  0  0  0  0  0  0  0  0  0
   -2.2878    0.1697   -1.8831 O   0  0  0  0  0  0  0  0  0  0  0  0
   -3.6197    0.1518   -1.5431 C   0  0  0  0  0  0  0  0  0  0  0  0
   -4.4065   -0.9047   -2.0403 C   0  0  0  0  0  0  0  0  0  0  0  0
   -3.8067   -1.9907   -2.8924 C   0  0  0  0  0  0  0  0  0  0  0  0
   -5.7805   -0.9188   -1.7577 C   0  0  0  0  0  0  0  0  0  0  0  0
   -6.3475    0.0792   -0.9634 C   0  0  0  0  0  0  0  0  0  0  0  0
   -8.1972    0.0255   -0.5735 Br  0  0  0  0  0  0  0  0  0  0  0  0
   -5.5601    1.0992   -0.4373 C   0  0  0  0  0  0  0  0  0  0  0  0
   -4.1803    1.1330   -0.7034 C   0  0  0  0  0  0  0  0  0  0  0  0
   -3.3977    2.2315   -0.0595 C   0  0  0  0  0  0  0  0  0  0  0  0
   -3.9848    3.2734    0.2135 O   0  0  0  0  0  0  0  0  0  0  0  0
   -2.0772    1.9504    0.1994 N   0  0  0  0  0  0  0  0  0  0  0  0
   -1.1090    2.7616    0.8270 C   0  0  0  0  0  0  0  0  0  0  0  0
   -1.3655    4.0421    1.3178 C   0  0  0  0  0  0  0  0  0  0  0  0
   -0.3487    4.7720    1.9363 C   0  0  0  0  0  0  0  0  0  0  0  0
    0.9257    4.2257    2.0679 C   0  0  0  0  0  0  0  0  0  0  0  0
    1.1925    2.9472    1.5786 C   0  0  0  0  0  0  0  0  0  0  0  0
    0.1850    2.2000    0.9524 C   0  0  0  0  0  0  0  0  0  0  0  0
    0.4181    0.9042    0.4318 N   0  0  0  0  0  0  0  0  0  0  0  0
    1.2579    0.9328   -0.7889 C   0  0  0  0  0  0  0  0  0  0  0  0
    1.7516   -0.4759   -1.1455 C   0  0  0  0  0  0  0  0  0  0  0  0
    2.5581   -1.0625   -0.0695 N   0  0  0  0  0  0  0  0  0  0  0  0
    3.4217   -2.1033   -0.3959 C   0  0  0  0  0  0  0  0  0  0  0  0
    3.4829   -2.5948   -1.5214 O   0  0  0  0  0  0  0  0  0  0  0  0
    4.3084   -2.6573    0.6510 C   0  0  0  0  0  0  0  0  0  0  0  0
    4.3113   -4.0410    0.8617 C   0  0  0  0  0  0  0  0  0  0  0  0
    5.1485   -4.5913    1.8318 C   0  0  0  0  0  0  0  0  0  0  0  0
    5.9898   -3.7631    2.5778 C   0  0  0  0  0  0  0  0  0  0  0  0
    6.0056   -2.3850    2.3488 C   0  0  0  0  0  0  0  0  0  0  0  0
    5.1714   -1.8293    1.3781 C   0  0  0  0  0  0  0  0  0  0  0  0
    2.2402   -0.6161    1.2980 C   0  0  0  0  0  0  0  0  0  0  0  0
    0.7930   -0.1066    1.4495 C   0  0  0  0  0  0  0  0  0  0  0  0
   -2.1266    2.0834   -2.7043 H   0  0  0  0  0  0  0  0  0  0  0  0
   -1.0800    0.8334   -3.4039 H   0  0  0  0  0  0  0  0  0  0  0  0
   -2.8061    0.8425   -3.8097 H   0  0  0  0  0  0  0  0  0  0  0  0
   -2.8996   -2.3852   -2.4266 H   0  0  0  0  0  0  0  0  0  0  0  0
   -3.5650   -1.6023   -3.8866 H   0  0  0  0  0  0  0  0  0  0  0  0
   -4.5015   -2.8299   -3.0132 H   0  0  0  0  0  0  0  0  0  0  0  0
   -6.4074   -1.7147   -2.1538 H   0  0  0  0  0  0  0  0  0  0  0  0
   -6.0098    1.8624    0.1999 H   0  0  0  0  0  0  0  0  0  0  0  0
   -1.7024    1.0460   -0.0883 H   0  0  0  0  0  0  0  0  0  0  0  0
   -2.3474    4.4965    1.2356 H   0  0  0  0  0  0  0  0  0  0  0  0
   -0.5605    5.7686    2.3150 H   0  0  0  0  0  0  0  0  0  0  0  0
    1.7127    4.7970    2.5503 H   0  0  0  0  0  0  0  0  0  0  0  0
    2.1944    2.5437    1.6837 H   0  0  0  0  0  0  0  0  0  0  0  0
    2.1305    1.5834   -0.6531 H   0  0  0  0  0  0  0  0  0  0  0  0
    0.6703    1.3312   -1.6224 H   0  0  0  0  0  0  0  0  0  0  0  0
    0.9022   -1.1473   -1.3166 H   0  0  0  0  0  0  0  0  0  0  0  0
    2.3415   -0.4438   -2.0687 H   0  0  0  0  0  0  0  0  0  0  0  0
    3.6658   -4.6849    0.2678 H   0  0  0  0  0  0  0  0  0  0  0  0
    5.1528   -5.6658    2.0006 H   0  0  0  0  0  0  0  0  0  0  0  0
    6.6468   -4.1966    3.3274 H   0  0  0  0  0  0  0  0  0  0  0  0
    6.6762   -1.7469    2.9191 H   0  0  0  0  0  0  0  0  0  0  0  0
    5.2088   -0.7601    1.1800 H   0  0  0  0  0  0  0  0  0  0  0  0
    2.9396    0.1937    1.5328 H   0  0  0  0  0  0  0  0  0  0  0  0
    2.4123   -1.4309    2.0093 H   0  0  0  0  0  0  0  0  0  0  0  0
    0.1129   -0.9562    1.3147 H   0  0  0  0  0  0  0  0  0  0  0  0
    0.6299    0.2553    2.4725 H   0  0  0  0  0  0  0  0  0  0  0  0
  1  2  1  0
  2  3  1  0
  3  4  2  0
  4  5  1  0
  4  6  1  0
  6  7  2  0
  7  8  1  0
  7  9  1  0
  9 10  2  0
 10 11  1  0
 11 12  2  0
 11 13  1  0
 13 14  1  0
 14 15  2  0
 15 16  1  0
 16 17  2  0
 17 18  1  0
 18 19  2  0
 19 20  1  0
 20 21  1  0
 21 22  1  0
 22 23  1  0
 23 24  1  0
 24 25  2  0
 24 26  1  0
 26 27  2  0
 27 28  1  0
 28 29  2  0
 29 30  1  0
 30 31  2  0
 23 32  1  0
 32 33  1  0
 10  3  1  0
 19 14  1  0
 33 20  1  0
 31 26  1  0
  1 34  1  0
  1 35  1  0
  1 36  1  0
  5 37  1  0
  5 38  1  0
  5 39  1  0
  6 40  1  0
  9 41  1  0
 13 42  1  0
 15 43  1  0
 16 44  1  0
 17 45  1  0
 18 46  1  0
 21 47  1  0
 21 48  1  0
 22 49  1  0
 22 50  1  0
 27 51  1  0
 28 52  1  0
 29 53  1  0
 30 54  1  0
 31 55  1  0
 32 56  1  0
 32 57  1  0
 33 58  1  0
 33 59  1  0
M  END
$$$$
