
     RDKit          3D

 56 58  0  0  0  0  0  0  0  0999 V2000
    8.8061    1.8549    1.6984 C   0  0  0  0  0  0  0  0  0  0  0  0
    8.1005    0.6377    1.4925 O   0  0  0  0  0  0  0  0  0  0  0  0
    7.3457    0.5454    0.3556 C   0  0  0  0  0  0  0  0  0  0  0  0
    6.6691   -0.6662    0.2012 C   0  0  0  0  0  0  0  0  0  0  0  0
    5.8608   -0.8947   -0.9146 C   0  0  0  0  0  0  0  0  0  0  0  0
    5.7223    0.0883   -1.9019 C   0  0  0  0  0  0  0  0  0  0  0  0
    4.8277   -0.1470   -3.0908 C   0  0  0  0  0  0  0  0  0  0  0  0
    3.4741    0.2447   -2.7990 N   0  0  0  0  0  0  0  0  0  0  0  0
    2.5387   -0.6450   -2.3271 C   0  0  0  0  0  0  0  0  0  0  0  0
    2.6666   -1.8582   -2.2409 O   0  0  0  0  0  0  0  0  0  0  0  0
    1.2307    0.0328   -1.8582 C   0  0  0  0  0  0  0  0  0  0  0  0
    1.1389    1.2524   -1.8612 O   0  0  0  0  0  0  0  0  0  0  0  0
    0.2653   -0.8543   -1.4441 N   0  0  0  0  0  0  0  0  0  0  0  0
   -0.9188   -0.4090   -0.7296 C   0  0  0  0  0  0  0  0  0  0  0  0
   -2.0037   -1.4946   -0.6559 C   0  0  0  0  0  0  0  0  0  0  0  0
   -1.4555   -2.6573    0.0017 O   0  0  0  0  0  0  0  0  0  0  0  0
   -2.5767   -3.2929    0.6192 C   0  0  0  0  0  0  0  0  0  0  0  0
   -3.3835   -2.1342    1.1593 C   0  0  0  0  0  0  0  0  0  0  0  0
   -3.1430   -1.0544    0.1799 N   0  0  0  0  0  0  0  0  0  0  0  0
   -4.4656   -0.5195   -0.7236 S   0  0  0  0  0  6  0  0  0  0  0  0
   -4.0051    0.5240   -1.6120 O   0  0  0  0  0  0  0  0  0  0  0  0
   -5.1378   -1.6974   -1.2303 O   0  0  0  0  0  0  0  0  0  0  0  0
   -5.4892    0.2371    0.5101 C   0  0  0  0  0  0  0  0  0  0  0  0
   -6.7395   -0.3038    0.8155 C   0  0  0  0  0  0  0  0  0  0  0  0
   -7.5294    0.3055    1.7919 C   0  0  0  0  0  0  0  0  0  0  0  0
   -7.0822    1.4594    2.4510 C   0  0  0  0  0  0  0  0  0  0  0  0
   -7.9210    2.0979    3.5197 C   0  0  0  0  0  0  0  0  0  0  0  0
   -5.8218    1.9866    2.1366 C   0  0  0  0  0  0  0  0  0  0  0  0
   -5.0265    1.3828    1.1622 C   0  0  0  0  0  0  0  0  0  0  0  0
    6.3946    1.3069   -1.7392 C   0  0  0  0  0  0  0  0  0  0  0  0
    7.2043    1.5328   -0.6195 C   0  0  0  0  0  0  0  0  0  0  0  0
    9.3522    1.7690    2.6427 H   0  0  0  0  0  0  0  0  0  0  0  0
    8.1168    2.7010    1.7888 H   0  0  0  0  0  0  0  0  0  0  0  0
    9.5400    2.0250    0.9037 H   0  0  0  0  0  0  0  0  0  0  0  0
    6.7687   -1.4392    0.9592 H   0  0  0  0  0  0  0  0  0  0  0  0
    5.3345   -1.8435   -1.0062 H   0  0  0  0  0  0  0  0  0  0  0  0
    5.1669    0.4476   -3.9461 H   0  0  0  0  0  0  0  0  0  0  0  0
    4.8627   -1.2003   -3.3919 H   0  0  0  0  0  0  0  0  0  0  0  0
    3.2525    1.2284   -2.6748 H   0  0  0  0  0  0  0  0  0  0  0  0
    0.5770   -1.8157   -1.3128 H   0  0  0  0  0  0  0  0  0  0  0  0
   -1.3001    0.5011   -1.2044 H   0  0  0  0  0  0  0  0  0  0  0  0
   -0.5846   -0.1387    0.2795 H   0  0  0  0  0  0  0  0  0  0  0  0
   -2.3138   -1.8086   -1.6598 H   0  0  0  0  0  0  0  0  0  0  0  0
   -2.2409   -3.9790    1.4009 H   0  0  0  0  0  0  0  0  0  0  0  0
   -3.1274   -3.8559   -0.1428 H   0  0  0  0  0  0  0  0  0  0  0  0
   -4.4337   -2.3993    1.3011 H   0  0  0  0  0  0  0  0  0  0  0  0
   -2.9842   -1.7988    2.1229 H   0  0  0  0  0  0  0  0  0  0  0  0
   -7.1062   -1.1900    0.3030 H   0  0  0  0  0  0  0  0  0  0  0  0
   -8.5015   -0.1207    2.0319 H   0  0  0  0  0  0  0  0  0  0  0  0
   -8.9843    1.8871    3.3633 H   0  0  0  0  0  0  0  0  0  0  0  0
   -7.6274    1.7170    4.5028 H   0  0  0  0  0  0  0  0  0  0  0  0
   -7.8009    3.1864    3.5087 H   0  0  0  0  0  0  0  0  0  0  0  0
   -5.4565    2.8762    2.6463 H   0  0  0  0  0  0  0  0  0  0  0  0
   -4.0552    1.8059    0.9152 H   0  0  0  0  0  0  0  0  0  0  0  0
    6.2926    2.0933   -2.4840 H   0  0  0  0  0  0  0  0  0  0  0  0
    7.7066    2.4909   -0.5392 H   0  0  0  0  0  0  0  0  0  0  0  0
  1  2  1  0
  2  3  1  0
  3  4  2  0
  4  5  1  0
  5  6  2  0
  6  7  1  0
  7  8  1  0
  8  9  1  0
  9 10  2  0
  9 11  1  0
 11 12  2  0
 11 13  1  0
 13 14  1  0
 14 15  1  0
 15 16  1  0
 16 17  1  0
 17 18  1  0
 18 19  1  0
 19 20  1  0
 20 21  2  0
 20 22  2  0
 20 23  1  0
 23 24  2  0
 24 25  1  0
 25 26  2  0
 26 27  1  0
 26 28  1  0
 28 29  2  0
  6 30  1  0
 30 31  2  0
 31  3  1  0
 19 15  1  0
 29 23  1  0
  1 32  1  0
  1 33  1  0
  1 34  1  0
  4 35  1  0
  5 36  1  0
  7 37  1  0
  7 38  1  0
  8 39  1  0
 13 40  1  0
 14 41  1  0
 14 42  1  0
 15 43  1  0
 17 44  1  0
 17 45  1  0
 18 46  1  0
 18 47  1  0
 24 48  1  0
 25 49  1  0
 27 50  1  0
 27 51  1  0
 27 52  1  0
 28 53  1  0
 29 54  1  0
 30 55  1  0
 31 56  1  0
M  END
$$$$
