
     RDKit          3D

 51 55  0  0  0  0  0  0  0  0999 V2000
   -4.9882   -1.4927    3.4874 F   0  0  0  0  0  0  0  0  0  0  0  0
   -5.3042   -0.7730    2.4024 C   0  0  0  0  0  0  0  0  0  0  0  0
   -6.4094    0.0685    2.4398 C   0  0  0  0  0  0  0  0  0  0  0  0
   -6.7377    0.8192    1.3130 C   0  0  0  0  0  0  0  0  0  0  0  0
   -5.9583    0.7197    0.1568 C   0  0  0  0  0  0  0  0  0  0  0  0
   -4.8450   -0.1343    0.1156 C   0  0  0  0  0  0  0  0  0  0  0  0
   -3.9999   -0.2362   -1.1328 C   0  0  0  0  0  0  0  0  0  0  0  0
   -2.7481    0.6642   -1.1106 C   0  0  0  0  0  0  0  0  0  0  0  0
   -1.7072    0.2336   -0.1598 N   0  0  0  0  0  0  0  0  0  0  0  0
   -0.7267    1.3141    0.1026 C   0  0  0  0  0  0  0  0  0  0  0  0
    0.2531    1.6014   -1.0592 C   0  0  0  0  0  0  0  0  0  0  0  0
    0.9730    0.3752   -1.4576 N   0  0  0  0  0  0  0  0  0  0  0  0
    2.1658    0.0695   -0.8009 C   0  0  0  0  0  0  0  0  0  0  0  0
    2.2593   -1.0502   -0.1293 N   0  0  0  0  0  0  0  0  0  0  0  0
    3.4368   -1.3702    0.5746 C   0  0  0  0  0  0  0  0  0  0  0  0
    3.4745   -2.5660    1.2942 C   0  0  0  0  0  0  0  0  0  0  0  0
    4.6140   -2.9274    2.0182 C   0  0  0  0  0  0  0  0  0  0  0  0
    5.7313   -2.0915    2.0291 C   0  0  0  0  0  0  0  0  0  0  0  0
    5.7161   -0.8914    1.3175 C   0  0  0  0  0  0  0  0  0  0  0  0
    4.5686   -0.5430    0.5989 C   0  0  0  0  0  0  0  0  0  0  0  0
    4.4709    0.6393   -0.1520 N   0  0  0  0  0  0  0  0  0  0  0  0
    5.4017    1.6317   -0.3500 C   0  0  0  0  0  0  0  0  0  0  0  0
    4.8665    2.5565   -1.2208 C   0  0  0  0  0  0  0  0  0  0  0  0
    3.5635    2.1165   -1.5499 C   0  0  0  0  0  0  0  0  0  0  0  0
    3.3244    0.9476   -0.8491 C   0  0  0  0  0  0  0  0  0  0  0  0
    0.0385   -0.7279   -1.7637 C   0  0  0  0  0  0  0  0  0  0  0  0
   -0.9615   -0.9694   -0.6081 C   0  0  0  0  0  0  0  0  0  0  0  0
   -4.5222   -0.8800    1.2569 C   0  0  0  0  0  0  0  0  0  0  0  0
   -7.0032    0.1347    3.3454 H   0  0  0  0  0  0  0  0  0  0  0  0
   -7.5984    1.4825    1.3336 H   0  0  0  0  0  0  0  0  0  0  0  0
   -6.2270    1.3146   -0.7137 H   0  0  0  0  0  0  0  0  0  0  0  0
   -3.7410   -1.2855   -1.3142 H   0  0  0  0  0  0  0  0  0  0  0  0
   -4.6148    0.0552   -1.9949 H   0  0  0  0  0  0  0  0  0  0  0  0
   -3.0806    1.6774   -0.8477 H   0  0  0  0  0  0  0  0  0  0  0  0
   -2.3465    0.7297   -2.1282 H   0  0  0  0  0  0  0  0  0  0  0  0
   -1.2501    2.2377    0.3786 H   0  0  0  0  0  0  0  0  0  0  0  0
   -0.1460    1.0308    0.9907 H   0  0  0  0  0  0  0  0  0  0  0  0
   -0.2923    1.9890   -1.9277 H   0  0  0  0  0  0  0  0  0  0  0  0
    0.9412    2.3932   -0.7476 H   0  0  0  0  0  0  0  0  0  0  0  0
    2.6049   -3.2177    1.2903 H   0  0  0  0  0  0  0  0  0  0  0  0
    4.6267   -3.8616    2.5739 H   0  0  0  0  0  0  0  0  0  0  0  0
    6.6155   -2.3775    2.5938 H   0  0  0  0  0  0  0  0  0  0  0  0
    6.5969   -0.2587    1.3394 H   0  0  0  0  0  0  0  0  0  0  0  0
    6.3735    1.6036    0.1208 H   0  0  0  0  0  0  0  0  0  0  0  0
    5.3666    3.4440   -1.5866 H   0  0  0  0  0  0  0  0  0  0  0  0
    2.8714    2.5985   -2.2276 H   0  0  0  0  0  0  0  0  0  0  0  0
   -0.5054   -0.4747   -2.6814 H   0  0  0  0  0  0  0  0  0  0  0  0
    0.5842   -1.6525   -1.9880 H   0  0  0  0  0  0  0  0  0  0  0  0
   -1.6516   -1.7715   -0.8896 H   0  0  0  0  0  0  0  0  0  0  0  0
   -0.4155   -1.3569    0.2614 H   0  0  0  0  0  0  0  0  0  0  0  0
   -3.6579   -1.5377    1.2679 H   0  0  0  0  0  0  0  0  0  0  0  0
  1  2  1  0
  2  3  2  0
  3  4  1  0
  4  5  2  0
  5  6  1  0
  6  7  1  0
  7  8  1  0
  8  9  1  0
  9 10  1  0
 10 11  1  0
 11 12  1  0
 12 13  1  0
 13 14  2  0
 14 15  1  0
 15 16  2  0
 16 17  1  0
 17 18  2  0
 18 19  1  0
 19 20  2  0
 20 21  1  0
 21 22  1  0
 22 23  2  0
 23 24  1  0
 24 25  2  0
 12 26  1  0
 26 27  1  0
  6 28  2  0
 28  2  1  0
 27  9  1  0
 25 13  1  0
 20 15  1  0
 25 21  1  0
  3 29  1  0
  4 30  1  0
  5 31  1  0
  7 32  1  0
  7 33  1  0
  8 34  1  0
  8 35  1  0
 10 36  1  0
 10 37  1  0
 11 38  1  0
 11 39  1  0
 16 40  1  0
 17 41  1  0
 18 42  1  0
 19 43  1  0
 22 44  1  0
 23 45  1  0
 24 46  1  0
 26 47  1  0
 26 48  1  0
 27 49  1  0
 27 50  1  0
 28 51  1  0
M  END
$$$$
