
     RDKit          3D

 58 59  0  0  0  0  0  0  0  0999 V2000
   10.2755    0.3241    0.7943 C   0  0  0  0  0  0  0  0  0  0  0  0
    9.3013   -0.6321    0.1233 C   0  0  0  0  0  0  0  0  0  0  0  0
    8.4866    0.0703   -0.9656 C   0  0  0  0  0  0  0  0  0  0  0  0
    7.5202   -0.8827   -1.6712 C   0  0  0  0  0  0  0  0  0  0  0  0
    6.6079   -1.4897   -0.7576 O   0  0  0  0  0  0  0  0  0  0  0  0
    5.4654   -0.8251   -0.4135 C   0  0  0  0  0  0  0  0  0  0  0  0
    4.6574   -1.5060    0.5024 C   0  0  0  0  0  0  0  0  0  0  0  0
    3.4585   -0.9475    0.9522 C   0  0  0  0  0  0  0  0  0  0  0  0
    3.0476    0.3006    0.4765 C   0  0  0  0  0  0  0  0  0  0  0  0
    1.7680    0.8684    0.9818 C   0  0  0  0  0  0  0  0  0  0  0  0
    1.3348    0.5406    2.0799 O   0  0  0  0  0  0  0  0  0  0  0  0
    1.1053    1.7345    0.1344 N   0  0  0  0  0  0  0  0  0  0  0  0
   -0.2495    2.1602    0.4583 C   0  0  0  0  0  0  0  0  0  0  0  0
   -1.2624    1.1954   -0.1458 C   0  0  0  0  0  0  0  0  0  0  0  0
   -1.0625    0.5184   -1.1479 O   0  0  0  0  0  0  0  0  0  0  0  0
   -2.4361    1.2443    0.5383 O   0  0  0  0  0  0  0  0  0  0  0  0
   -3.4237    0.3182    0.0691 C   0  0  0  0  0  0  0  0  0  0  0  0
   -4.6471    0.3808    0.9798 C   0  0  0  0  0  0  0  0  0  0  0  0
   -4.5827    0.8402    2.1264 O   0  0  0  0  0  0  0  0  0  0  0  0
   -5.9664   -0.0948    0.4409 C   0  0  0  0  0  0  0  0  0  0  0  0
   -7.1165    0.4861    0.8534 C   0  0  0  0  0  0  0  0  0  0  0  0
   -7.1273    1.5261    1.7807 N   0  0  0  0  0  0  0  0  0  0  0  0
   -8.3296    0.0407    0.3335 N   0  0  0  0  0  0  0  0  0  0  0  0
   -9.5710    0.6950    0.7459 C   0  0  0  0  0  0  0  0  0  0  0  0
   -8.4441   -0.9996   -0.5859 C   0  0  0  0  0  0  0  0  0  0  0  0
   -9.5353   -1.4222   -0.9724 O   0  0  0  0  0  0  0  0  0  0  0  0
   -7.2549   -1.5400   -1.0404 N   0  0  0  0  0  0  0  0  0  0  0  0
   -7.3210   -2.6297   -1.9984 C   0  0  0  0  0  0  0  0  0  0  0  0
   -6.0190   -1.1970   -0.5416 C   0  0  0  0  0  0  0  0  0  0  0  0
   -4.9830   -1.7759   -0.8656 O   0  0  0  0  0  0  0  0  0  0  0  0
    3.8581    0.9923   -0.4316 C   0  0  0  0  0  0  0  0  0  0  0  0
    5.0624    0.4285   -0.8749 C   0  0  0  0  0  0  0  0  0  0  0  0
   10.8490   -0.1992    1.5659 H   0  0  0  0  0  0  0  0  0  0  0  0
   10.9822    0.7396    0.0688 H   0  0  0  0  0  0  0  0  0  0  0  0
    9.7433    1.1539    1.2713 H   0  0  0  0  0  0  0  0  0  0  0  0
    9.8613   -1.4679   -0.3124 H   0  0  0  0  0  0  0  0  0  0  0  0
    8.6335   -1.0503    0.8852 H   0  0  0  0  0  0  0  0  0  0  0  0
    7.9320    0.8974   -0.5099 H   0  0  0  0  0  0  0  0  0  0  0  0
    9.1635    0.5045   -1.7109 H   0  0  0  0  0  0  0  0  0  0  0  0
    8.0972   -1.6999   -2.1197 H   0  0  0  0  0  0  0  0  0  0  0  0
    7.0030   -0.3983   -2.5069 H   0  0  0  0  0  0  0  0  0  0  0  0
    4.9677   -2.4802    0.8746 H   0  0  0  0  0  0  0  0  0  0  0  0
    2.8478   -1.4897    1.6718 H   0  0  0  0  0  0  0  0  0  0  0  0
    1.3204    1.6597   -0.8532 H   0  0  0  0  0  0  0  0  0  0  0  0
   -0.3770    2.2086    1.5440 H   0  0  0  0  0  0  0  0  0  0  0  0
   -0.4055    3.1495    0.0184 H   0  0  0  0  0  0  0  0  0  0  0  0
   -3.0113   -0.6947    0.1135 H   0  0  0  0  0  0  0  0  0  0  0  0
   -3.7153    0.5975   -0.9492 H   0  0  0  0  0  0  0  0  0  0  0  0
   -7.8549    1.4047    2.4791 H   0  0  0  0  0  0  0  0  0  0  0  0
   -6.2240    1.6156    2.2690 H   0  0  0  0  0  0  0  0  0  0  0  0
   -9.4706    1.7812    0.6428 H   0  0  0  0  0  0  0  0  0  0  0  0
  -10.4260    0.3860    0.1377 H   0  0  0  0  0  0  0  0  0  0  0  0
   -9.7804    0.4322    1.7879 H   0  0  0  0  0  0  0  0  0  0  0  0
   -6.4442   -2.6210   -2.6543 H   0  0  0  0  0  0  0  0  0  0  0  0
   -7.3354   -3.5731   -1.4431 H   0  0  0  0  0  0  0  0  0  0  0  0
   -8.2211   -2.5663   -2.6175 H   0  0  0  0  0  0  0  0  0  0  0  0
    3.5833    1.9833   -0.7827 H   0  0  0  0  0  0  0  0  0  0  0  0
    5.6645    1.0042   -1.5692 H   0  0  0  0  0  0  0  0  0  0  0  0
  1  2  1  0
  2  3  1  0
  3  4  1  0
  4  5  1  0
  5  6  1  0
  6  7  2  0
  7  8  1  0
  8  9  2  0
  9 10  1  0
 10 11  2  0
 10 12  1  0
 12 13  1  0
 13 14  1  0
 14 15  2  0
 14 16  1  0
 16 17  1  0
 17 18  1  0
 18 19  2  0
 18 20  1  0
 20 21  2  0
 21 22  1  0
 21 23  1  0
 23 24  1  0
 23 25  1  0
 25 26  2  0
 25 27  1  0
 27 28  1  0
 27 29  1  0
 29 30  2  0
  9 31  1  0
 31 32  2  0
 32  6  1  0
 29 20  1  0
  1 33  1  0
  1 34  1  0
  1 35  1  0
  2 36  1  0
  2 37  1  0
  3 38  1  0
  3 39  1  0
  4 40  1  0
  4 41  1  0
  7 42  1  0
  8 43  1  0
 12 44  1  0
 13 45  1  0
 13 46  1  0
 17 47  1  0
 17 48  1  0
 22 49  1  0
 22 50  1  0
 24 51  1  0
 24 52  1  0
 24 53  1  0
 28 54  1  0
 28 55  1  0
 28 56  1  0
 31 57  1  0
 32 58  1  0
M  END
$$$$
