
     RDKit          3D

 45 47  0  0  0  0  0  0  0  0999 V2000
    7.6055    0.9777   -1.9052 C   0  0  0  0  0  0  0  0  0  0  0  0
    6.9485   -0.3312   -1.4955 C   0  0  0  0  0  0  0  0  0  0  0  0
    7.0333   -0.6166    0.0080 C   0  0  0  0  0  0  0  0  0  0  0  0
    6.3501    0.4125    0.9139 C   0  0  0  0  0  0  0  0  0  0  0  0
    4.8776    0.5098    0.6825 C   0  0  0  0  0  0  0  0  0  0  0  0
    4.2961    1.4144   -0.0780 N   0  0  0  0  0  0  0  0  0  0  0  0
    2.9247    1.2594   -0.1058 N   0  0  0  0  0  0  0  0  0  0  0  0
    2.5231    0.2513    0.6363 C   0  0  0  0  0  0  0  0  0  0  0  0
    1.2014   -0.0858    0.7545 N   0  0  0  0  0  0  0  0  0  0  0  0
    0.6578   -1.1117    1.4912 C   0  0  0  0  0  0  0  0  0  0  0  0
    1.2617   -1.9232    2.1865 O   0  0  0  0  0  0  0  0  0  0  0  0
   -0.8686   -1.1809    1.3746 C   0  0  0  0  0  0  0  0  0  0  0  0
   -1.3699   -0.1376    0.5405 O   0  0  0  0  0  0  0  0  0  0  0  0
   -2.7226   -0.0930    0.3500 C   0  0  0  0  0  0  0  0  0  0  0  0
   -3.1625    0.9419   -0.4796 C   0  0  0  0  0  0  0  0  0  0  0  0
   -4.5243    1.1093   -0.7645 C   0  0  0  0  0  0  0  0  0  0  0  0
   -5.4761    0.2407   -0.2226 C   0  0  0  0  0  0  0  0  0  0  0  0
   -6.9188    0.3515   -0.4755 C   0  0  0  0  0  0  0  0  0  0  0  0
   -7.4496    1.4425   -1.3580 C   0  0  0  0  0  0  0  0  0  0  0  0
   -7.7363   -0.5421    0.1007 C   0  0  0  0  0  0  0  0  0  0  0  0
   -7.2664   -1.6283    0.9741 C   0  0  0  0  0  0  0  0  0  0  0  0
   -8.0592   -2.4166    1.4756 O   0  0  0  0  0  0  0  0  0  0  0  0
   -5.9024   -1.7076    1.1935 O   0  0  0  0  0  0  0  0  0  0  0  0
   -5.0142   -0.7854    0.6038 C   0  0  0  0  0  0  0  0  0  0  0  0
   -3.6582   -0.9650    0.8972 C   0  0  0  0  0  0  0  0  0  0  0  0
    3.7802   -0.5830    1.4254 S   0  0  0  0  0  0  0  0  0  0  0  0
    7.6067    1.0716   -2.9960 H   0  0  0  0  0  0  0  0  0  0  0  0
    8.6434    1.0216   -1.5604 H   0  0  0  0  0  0  0  0  0  0  0  0
    7.0685    1.8406   -1.5007 H   0  0  0  0  0  0  0  0  0  0  0  0
    7.4462   -1.1508   -2.0282 H   0  0  0  0  0  0  0  0  0  0  0  0
    5.9044   -0.3357   -1.8277 H   0  0  0  0  0  0  0  0  0  0  0  0
    8.0907   -0.6799    0.2944 H   0  0  0  0  0  0  0  0  0  0  0  0
    6.6050   -1.6099    0.1941 H   0  0  0  0  0  0  0  0  0  0  0  0
    6.5400    0.1424    1.9604 H   0  0  0  0  0  0  0  0  0  0  0  0
    6.8040    1.4005    0.7749 H   0  0  0  0  0  0  0  0  0  0  0  0
    0.5664    0.5040    0.2283 H   0  0  0  0  0  0  0  0  0  0  0  0
   -1.1132   -2.1591    0.9446 H   0  0  0  0  0  0  0  0  0  0  0  0
   -1.2728   -1.0799    2.3885 H   0  0  0  0  0  0  0  0  0  0  0  0
   -2.4406    1.6309   -0.9137 H   0  0  0  0  0  0  0  0  0  0  0  0
   -4.8135    1.9301   -1.4157 H   0  0  0  0  0  0  0  0  0  0  0  0
   -8.5400    1.3940   -1.4540 H   0  0  0  0  0  0  0  0  0  0  0  0
   -7.0323    1.3649   -2.3678 H   0  0  0  0  0  0  0  0  0  0  0  0
   -7.2045    2.4280   -0.9475 H   0  0  0  0  0  0  0  0  0  0  0  0
   -8.8105   -0.5157   -0.0453 H   0  0  0  0  0  0  0  0  0  0  0  0
   -3.3790   -1.7864    1.5481 H   0  0  0  0  0  0  0  0  0  0  0  0
  1  2  1  0
  2  3  1  0
  3  4  1  0
  4  5  1  0
  5  6  2  0
  6  7  1  0
  7  8  2  0
  8  9  1  0
  9 10  1  0
 10 11  2  0
 10 12  1  0
 12 13  1  0
 13 14  1  0
 14 15  2  0
 15 16  1  0
 16 17  2  0
 17 18  1  0
 18 19  1  0
 18 20  2  0
 20 21  1  0
 21 22  2  0
 21 23  1  0
 23 24  1  0
 24 25  2  0
  8 26  1  0
 26  5  1  0
 25 14  1  0
 24 17  1  0
  1 27  1  0
  1 28  1  0
  1 29  1  0
  2 30  1  0
  2 31  1  0
  3 32  1  0
  3 33  1  0
  4 34  1  0
  4 35  1  0
  9 36  1  0
 12 37  1  0
 12 38  1  0
 15 39  1  0
 16 40  1  0
 19 41  1  0
 19 42  1  0
 19 43  1  0
 20 44  1  0
 25 45  1  0
M  END
$$$$
