
     RDKit          3D

 29 30  0  0  0  0  0  0  0  0999 V2000
   -3.0755   -1.0645    1.3480 C   0  0  0  0  0  0  0  0  0  0  0  0
   -2.1597   -0.2098    0.5182 C   0  0  0  0  0  0  0  0  0  0  0  0
   -1.1561   -0.6497   -0.2676 C   0  0  0  0  0  0  0  0  0  0  0  0
   -0.8419   -2.1033   -0.5075 C   0  0  0  0  0  0  0  0  0  0  0  0
   -0.2538    0.3212   -1.0068 C   0  0  0  0  0  0  0  0  0  0  0  0
    1.1917    0.2759   -0.5369 C   0  0  0  0  0  0  0  0  0  0  0  0
    2.2041   -0.1668   -1.4036 C   0  0  0  0  0  0  0  0  0  0  0  0
    3.5335   -0.2145   -0.9789 C   0  0  0  0  0  0  0  0  0  0  0  0
    3.8683    0.1793    0.3151 C   0  0  0  0  0  0  0  0  0  0  0  0
    2.8756    0.6211    1.1868 C   0  0  0  0  0  0  0  0  0  0  0  0
    1.5462    0.6691    0.7648 C   0  0  0  0  0  0  0  0  0  0  0  0
   -0.7551    1.6782   -0.9406 N   0  0  0  0  0  0  0  0  0  0  0  0
   -1.7204    2.0959   -0.0912 C   0  0  0  0  0  0  0  0  0  0  0  0
   -2.0915    3.7077    0.0679 S   0  0  0  0  0  0  0  0  0  0  0  0
   -2.3850    1.1434    0.6125 N   0  0  0  0  0  0  0  0  0  0  0  0
   -4.0612   -1.1297    0.8762 H   0  0  0  0  0  0  0  0  0  0  0  0
   -2.6967   -2.0782    1.4995 H   0  0  0  0  0  0  0  0  0  0  0  0
   -3.2024   -0.6308    2.3466 H   0  0  0  0  0  0  0  0  0  0  0  0
   -0.6581   -2.2810   -1.5729 H   0  0  0  0  0  0  0  0  0  0  0  0
   -1.6589   -2.7714   -0.2244 H   0  0  0  0  0  0  0  0  0  0  0  0
    0.0514   -2.4002    0.0508 H   0  0  0  0  0  0  0  0  0  0  0  0
   -0.2901    0.0732   -2.0756 H   0  0  0  0  0  0  0  0  0  0  0  0
    1.9649   -0.4786   -2.4179 H   0  0  0  0  0  0  0  0  0  0  0  0
    4.3092   -0.5582   -1.6584 H   0  0  0  0  0  0  0  0  0  0  0  0
    4.9034    0.1432    0.6444 H   0  0  0  0  0  0  0  0  0  0  0  0
    3.1350    0.9305    2.1960 H   0  0  0  0  0  0  0  0  0  0  0  0
    0.7815    1.0178    1.4566 H   0  0  0  0  0  0  0  0  0  0  0  0
   -0.2314    2.3991   -1.4179 H   0  0  0  0  0  0  0  0  0  0  0  0
   -3.1268    1.4809    1.2167 H   0  0  0  0  0  0  0  0  0  0  0  0
  1  2  1  0
  2  3  2  0
  3  4  1  0
  3  5  1  0
  5  6  1  0
  6  7  2  0
  7  8  1  0
  8  9  2  0
  9 10  1  0
 10 11  2  0
  5 12  1  0
 12 13  1  0
 13 14  2  0
 13 15  1  0
 15  2  1  0
 11  6  1  0
  1 16  1  0
  1 17  1  0
  1 18  1  0
  4 19  1  0
  4 20  1  0
  4 21  1  0
  5 22  1  0
  7 23  1  0
  8 24  1  0
  9 25  1  0
 10 26  1  0
 11 27  1  0
 12 28  1  0
 15 29  1  0
M  END
$$$$
