
     RDKit          3D

 54 57  0  0  0  0  0  0  0  0999 V2000
   -2.1309    2.1656   -4.0055 C   0  0  0  0  0  0  0  0  0  0  0  0
   -3.1458    2.5719   -3.0992 O   0  0  0  0  0  0  0  0  0  0  0  0
   -3.1894    1.9400   -1.8818 C   0  0  0  0  0  0  0  0  0  0  0  0
   -2.1442    1.1854   -1.3408 C   0  0  0  0  0  0  0  0  0  0  0  0
   -2.2621    0.5662   -0.0800 C   0  0  0  0  0  0  0  0  0  0  0  0
   -1.1610   -0.2292    0.5004 C   0  0  0  0  0  0  0  0  0  0  0  0
    0.1718    0.1106    0.3532 C   0  0  0  0  0  0  0  0  0  0  0  0
    1.1358   -0.7149    0.9346 C   0  0  0  0  0  0  0  0  0  0  0  0
    2.5452   -0.3282    0.6993 C   0  0  0  0  0  0  0  0  0  0  0  0
    2.8921    0.7955    1.0354 O   0  0  0  0  0  0  0  0  0  0  0  0
    3.2946   -1.2924    0.0542 N   0  0  0  0  0  0  0  0  0  0  0  0
    4.6497   -1.2087   -0.3259 C   0  0  0  0  0  0  0  0  0  0  0  0
    5.4669   -0.1074   -0.0571 C   0  0  0  0  0  0  0  0  0  0  0  0
    6.8030   -0.0964   -0.4703 C   0  0  0  0  0  0  0  0  0  0  0  0
    7.3196   -1.1900   -1.1553 C   0  0  0  0  0  0  0  0  0  0  0  0
    8.6130   -1.2166   -1.5823 O   0  0  0  0  0  0  0  0  0  0  0  0
    6.5227   -2.2930   -1.4342 C   0  0  0  0  0  0  0  0  0  0  0  0
    5.1900   -2.3033   -1.0162 C   0  0  0  0  0  0  0  0  0  0  0  0
    0.7714   -1.8465    1.6970 C   0  0  0  0  0  0  0  0  0  0  0  0
    1.6766   -2.6978    2.3829 C   0  0  0  0  0  0  0  0  0  0  0  0
    1.2203   -3.7989    3.1053 C   0  0  0  0  0  0  0  0  0  0  0  0
   -0.1405   -4.0617    3.1610 C   0  0  0  0  0  0  0  0  0  0  0  0
   -1.0359   -3.2136    2.5066 C   0  0  0  0  0  0  0  0  0  0  0  0
   -0.6083   -2.1077    1.7837 C   0  0  0  0  0  0  0  0  0  0  0  0
   -1.5371   -1.3302    1.2009 N   0  0  0  0  0  0  0  0  0  0  0  0
   -3.4743    0.7177    0.6237 C   0  0  0  0  0  0  0  0  0  0  0  0
   -4.5299    1.4755    0.1095 C   0  0  0  0  0  0  0  0  0  0  0  0
   -5.7305    1.6776    0.7399 O   0  0  0  0  0  0  0  0  0  0  0  0
   -5.9709    0.9472    1.9367 C   0  0  0  0  0  0  0  0  0  0  0  0
   -4.3673    2.1007   -1.1361 C   0  0  0  0  0  0  0  0  0  0  0  0
   -5.4123    2.8176   -1.6766 O   0  0  0  0  0  0  0  0  0  0  0  0
   -5.3180    4.1824   -1.2751 C   0  0  0  0  0  0  0  0  0  0  0  0
   -2.3437    2.6293   -4.9732 H   0  0  0  0  0  0  0  0  0  0  0  0
   -1.1491    2.5211   -3.6743 H   0  0  0  0  0  0  0  0  0  0  0  0
   -2.1281    1.0781   -4.1501 H   0  0  0  0  0  0  0  0  0  0  0  0
   -1.2217    1.0614   -1.8990 H   0  0  0  0  0  0  0  0  0  0  0  0
    0.4739    1.0002   -0.1915 H   0  0  0  0  0  0  0  0  0  0  0  0
    2.8160   -2.1464   -0.2077 H   0  0  0  0  0  0  0  0  0  0  0  0
    5.0955    0.7632    0.4767 H   0  0  0  0  0  0  0  0  0  0  0  0
    7.4120    0.7751   -0.2535 H   0  0  0  0  0  0  0  0  0  0  0  0
    9.0483   -0.3966   -1.2916 H   0  0  0  0  0  0  0  0  0  0  0  0
    6.9343   -3.1378   -1.9784 H   0  0  0  0  0  0  0  0  0  0  0  0
    4.5827   -3.1745   -1.2490 H   0  0  0  0  0  0  0  0  0  0  0  0
    2.7468   -2.4979    2.3772 H   0  0  0  0  0  0  0  0  0  0  0  0
    1.9244   -4.4427    3.6258 H   0  0  0  0  0  0  0  0  0  0  0  0
   -0.5125   -4.9170    3.7208 H   0  0  0  0  0  0  0  0  0  0  0  0
   -2.1030   -3.4186    2.5681 H   0  0  0  0  0  0  0  0  0  0  0  0
   -3.5617    0.2297    1.5910 H   0  0  0  0  0  0  0  0  0  0  0  0
   -5.9115   -0.1324    1.7647 H   0  0  0  0  0  0  0  0  0  0  0  0
   -6.9871    1.1749    2.2688 H   0  0  0  0  0  0  0  0  0  0  0  0
   -5.2880    1.2621    2.7326 H   0  0  0  0  0  0  0  0  0  0  0  0
   -4.3949    4.6438   -1.6441 H   0  0  0  0  0  0  0  0  0  0  0  0
   -6.1622    4.7210   -1.7151 H   0  0  0  0  0  0  0  0  0  0  0  0
   -5.3846    4.2856   -0.1861 H   0  0  0  0  0  0  0  0  0  0  0  0
  1  2  1  0
  2  3  1  0
  3  4  2  0
  4  5  1  0
  5  6  1  0
  6  7  2  0
  7  8  1  0
  8  9  1  0
  9 10  2  0
  9 11  1  0
 11 12  1  0
 12 13  2  0
 13 14  1  0
 14 15  2  0
 15 16  1  0
 15 17  1  0
 17 18  2  0
  8 19  2  0
 19 20  1  0
 20 21  2  0
 21 22  1  0
 22 23  2  0
 23 24  1  0
 24 25  2  0
  5 26  2  0
 26 27  1  0
 27 28  1  0
 28 29  1  0
 27 30  2  0
 30 31  1  0
 31 32  1  0
 30  3  1  0
 25  6  1  0
 18 12  1  0
 24 19  1  0
  1 33  1  0
  1 34  1  0
  1 35  1  0
  4 36  1  0
  7 37  1  0
 11 38  1  0
 13 39  1  0
 14 40  1  0
 16 41  1  0
 17 42  1  0
 18 43  1  0
 20 44  1  0
 21 45  1  0
 22 46  1  0
 23 47  1  0
 26 48  1  0
 29 49  1  0
 29 50  1  0
 29 51  1  0
 32 52  1  0
 32 53  1  0
 32 54  1  0
M  END
$$$$
