
     RDKit          3D

 69 74  0  0  0  0  0  0  0  0999 V2000
    2.0648    1.3328    0.3674 O   0  0  0  0  0  0  0  0  0  0  0  0
    1.9997    0.5824   -0.8544 C   0  0  0  0  0  0  0  0  0  0  0  0
    3.4319    0.4045   -1.3881 C   0  0  0  0  0  0  0  0  0  0  0  0
    4.1940   -0.3635   -0.4461 O   0  0  0  0  0  0  0  0  0  0  0  0
    5.5520   -0.4069   -0.6114 C   0  0  0  0  0  0  0  0  0  0  0  0
    6.1720   -0.0628   -1.8228 C   0  0  0  0  0  0  0  0  0  0  0  0
    7.5607   -0.0912   -1.9573 C   0  0  0  0  0  0  0  0  0  0  0  0
    8.3545   -0.4672   -0.8800 C   0  0  0  0  0  0  0  0  0  0  0  0
    7.7747   -0.8343    0.3355 C   0  0  0  0  0  0  0  0  0  0  0  0
    8.6596   -1.1981    1.3763 N   0  0  0  0  0  0  0  0  0  0  0  0
    8.1608   -1.5468    2.5190 C   0  0  0  0  0  0  0  0  0  0  0  0
    6.7496   -1.5809    2.7421 C   0  0  0  0  0  0  0  0  0  0  0  0
    6.0274   -1.9219    3.8656 C   0  0  0  0  0  0  0  0  0  0  0  0
    4.6629   -1.8071    3.5275 C   0  0  0  0  0  0  0  0  0  0  0  0
    4.5988   -1.3980    2.2117 C   0  0  0  0  0  0  0  0  0  0  0  0
    5.8778   -1.2349    1.7308 N   0  0  0  0  0  0  0  0  0  0  0  0
    6.3636   -0.8194    0.4630 C   0  0  0  0  0  0  0  0  0  0  0  0
    1.3060   -0.7849   -0.6243 C   0  0  0  0  0  0  0  0  0  0  0  0
   -0.1556   -0.8109   -0.4374 N   0  0  0  0  0  0  0  0  0  0  0  0
   -0.6221    0.0145    0.6872 C   0  0  0  0  0  0  0  0  0  0  0  0
   -2.1471   -0.1351    0.9032 C   0  0  0  0  0  0  0  0  0  0  0  0
   -2.9340    0.2382   -0.3017 N   0  0  0  0  0  0  0  0  0  0  0  0
   -4.3953    0.0079   -0.0854 C   0  0  0  0  0  0  0  0  0  0  0  0
   -4.9647    0.7467    1.1345 C   0  0  0  0  0  0  0  0  0  0  0  0
   -4.6966    2.1065    1.3690 C   0  0  0  0  0  0  0  0  0  0  0  0
   -5.2381    2.7614    2.4769 C   0  0  0  0  0  0  0  0  0  0  0  0
   -6.0600    2.0694    3.3637 C   0  0  0  0  0  0  0  0  0  0  0  0
   -6.3428    0.7229    3.1437 C   0  0  0  0  0  0  0  0  0  0  0  0
   -5.8023    0.0662    2.0359 C   0  0  0  0  0  0  0  0  0  0  0  0
   -5.2510    0.3298   -1.3198 C   0  0  0  0  0  0  0  0  0  0  0  0
   -6.2465   -0.5708   -1.7357 C   0  0  0  0  0  0  0  0  0  0  0  0
   -7.0430   -0.2892   -2.8475 C   0  0  0  0  0  0  0  0  0  0  0  0
   -6.8609    0.8966   -3.5560 C   0  0  0  0  0  0  0  0  0  0  0  0
   -5.8840    1.8041   -3.1538 C   0  0  0  0  0  0  0  0  0  0  0  0
   -5.0865    1.5247   -2.0428 C   0  0  0  0  0  0  0  0  0  0  0  0
   -2.4308   -0.5777   -1.4372 C   0  0  0  0  0  0  0  0  0  0  0  0
   -0.9039   -0.4399   -1.6472 C   0  0  0  0  0  0  0  0  0  0  0  0
    2.6941    0.8669    0.9485 H   0  0  0  0  0  0  0  0  0  0  0  0
    1.4402    1.1833   -1.5780 H   0  0  0  0  0  0  0  0  0  0  0  0
    3.4004   -0.1154   -2.3524 H   0  0  0  0  0  0  0  0  0  0  0  0
    3.8840    1.3976   -1.5045 H   0  0  0  0  0  0  0  0  0  0  0  0
    5.5981    0.2315   -2.6962 H   0  0  0  0  0  0  0  0  0  0  0  0
    8.0243    0.1828   -2.9020 H   0  0  0  0  0  0  0  0  0  0  0  0
    9.4370   -0.4809   -0.9807 H   0  0  0  0  0  0  0  0  0  0  0  0
    8.8395   -1.8287    3.3407 H   0  0  0  0  0  0  0  0  0  0  0  0
    6.4364   -2.2323    4.8186 H   0  0  0  0  0  0  0  0  0  0  0  0
    3.8125   -2.0131    4.1653 H   0  0  0  0  0  0  0  0  0  0  0  0
    3.7295   -1.2318    1.5991 H   0  0  0  0  0  0  0  0  0  0  0  0
    1.5413   -1.4511   -1.4646 H   0  0  0  0  0  0  0  0  0  0  0  0
    1.7448   -1.2601    0.2615 H   0  0  0  0  0  0  0  0  0  0  0  0
   -0.4038    1.0761    0.5206 H   0  0  0  0  0  0  0  0  0  0  0  0
   -0.1131   -0.2930    1.6081 H   0  0  0  0  0  0  0  0  0  0  0  0
   -2.4088    0.5085    1.7492 H   0  0  0  0  0  0  0  0  0  0  0  0
   -2.3671   -1.1697    1.1997 H   0  0  0  0  0  0  0  0  0  0  0  0
   -4.5090   -1.0689    0.1125 H   0  0  0  0  0  0  0  0  0  0  0  0
   -4.0512    2.6584    0.6892 H   0  0  0  0  0  0  0  0  0  0  0  0
   -5.0174    3.8121    2.6458 H   0  0  0  0  0  0  0  0  0  0  0  0
   -6.4818    2.5805    4.2251 H   0  0  0  0  0  0  0  0  0  0  0  0
   -6.9874    0.1841    3.8334 H   0  0  0  0  0  0  0  0  0  0  0  0
   -6.0413   -0.9830    1.8786 H   0  0  0  0  0  0  0  0  0  0  0  0
   -6.4105   -1.4985   -1.1924 H   0  0  0  0  0  0  0  0  0  0  0  0
   -7.8092   -0.9941   -3.1584 H   0  0  0  0  0  0  0  0  0  0  0  0
   -7.4836    1.1160   -4.4188 H   0  0  0  0  0  0  0  0  0  0  0  0
   -5.7432    2.7315   -3.7027 H   0  0  0  0  0  0  0  0  0  0  0  0
   -4.3240    2.2400   -1.7429 H   0  0  0  0  0  0  0  0  0  0  0  0
   -2.6729   -1.6384   -1.2834 H   0  0  0  0  0  0  0  0  0  0  0  0
   -2.9066   -0.2692   -2.3740 H   0  0  0  0  0  0  0  0  0  0  0  0
   -0.6152   -1.0976   -2.4756 H   0  0  0  0  0  0  0  0  0  0  0  0
   -0.6816    0.5896   -1.9536 H   0  0  0  0  0  0  0  0  0  0  0  0
  1  2  1  0
  2  3  1  0
  3  4  1  0
  4  5  1  0
  5  6  2  0
  6  7  1  0
  7  8  2  0
  8  9  1  0
  9 10  1  0
 10 11  2  0
 11 12  1  0
 12 13  2  0
 13 14  1  0
 14 15  2  0
 15 16  1  0
 16 17  1  0
  2 18  1  0
 18 19  1  0
 19 20  1  0
 20 21  1  0
 21 22  1  0
 22 23  1  0
 23 24  1  0
 24 25  2  0
 25 26  1  0
 26 27  2  0
 27 28  1  0
 28 29  2  0
 23 30  1  0
 30 31  2  0
 31 32  1  0
 32 33  2  0
 33 34  1  0
 34 35  2  0
 22 36  1  0
 36 37  1  0
 17  5  1  0
 37 19  1  0
 17  9  2  0
 29 24  1  0
 35 30  1  0
 16 12  1  0
  1 38  1  0
  2 39  1  0
  3 40  1  0
  3 41  1  0
  6 42  1  0
  7 43  1  0
  8 44  1  0
 11 45  1  0
 13 46  1  0
 14 47  1  0
 15 48  1  0
 18 49  1  0
 18 50  1  0
 20 51  1  0
 20 52  1  0
 21 53  1  0
 21 54  1  0
 23 55  1  0
 25 56  1  0
 26 57  1  0
 27 58  1  0
 28 59  1  0
 29 60  1  0
 31 61  1  0
 32 62  1  0
 33 63  1  0
 34 64  1  0
 35 65  1  0
 36 66  1  0
 36 67  1  0
 37 68  1  0
 37 69  1  0
M  END
$$$$
