
     RDKit          3D

 51 55  0  0  0  0  0  0  0  0999 V2000
    7.1765   -0.2452   -2.8279 F   0  0  0  0  0  0  0  0  0  0  0  0
    6.2659    0.0057   -1.8780 C   0  0  0  0  0  0  0  0  0  0  0  0
    5.0401    0.5555   -2.2331 C   0  0  0  0  0  0  0  0  0  0  0  0
    4.0905    0.8163   -1.2447 C   0  0  0  0  0  0  0  0  0  0  0  0
    4.3713    0.5293    0.1002 C   0  0  0  0  0  0  0  0  0  0  0  0
    3.3352    0.7931    1.1686 C   0  0  0  0  0  0  0  0  0  0  0  0
    2.3588   -0.3878    1.3124 C   0  0  0  0  0  0  0  0  0  0  0  0
    1.3733   -0.1903    2.3910 N   0  0  0  0  0  0  0  0  0  0  0  0
    0.6001   -1.4249    2.6512 C   0  0  0  0  0  0  0  0  0  0  0  0
   -0.6728   -1.6119    1.7950 C   0  0  0  0  0  0  0  0  0  0  0  0
   -1.5659   -0.4304    1.8202 N   0  0  0  0  0  0  0  0  0  0  0  0
   -2.3315   -0.1816    0.6781 C   0  0  0  0  0  0  0  0  0  0  0  0
   -2.2290    0.9842    0.0887 N   0  0  0  0  0  0  0  0  0  0  0  0
   -2.9464    1.2617   -1.0906 C   0  0  0  0  0  0  0  0  0  0  0  0
   -2.7912    2.5176   -1.6808 C   0  0  0  0  0  0  0  0  0  0  0  0
   -3.4692    2.8411   -2.8592 C   0  0  0  0  0  0  0  0  0  0  0  0
   -4.3122    1.9061   -3.4609 C   0  0  0  0  0  0  0  0  0  0  0  0
   -4.4827    0.6451   -2.8883 C   0  0  0  0  0  0  0  0  0  0  0  0
   -3.7974    0.3362   -1.7095 C   0  0  0  0  0  0  0  0  0  0  0  0
   -3.9214   -0.9019   -1.0590 N   0  0  0  0  0  0  0  0  0  0  0  0
   -4.6849   -1.9940   -1.3973 C   0  0  0  0  0  0  0  0  0  0  0  0
   -4.5315   -2.9472   -0.4145 C   0  0  0  0  0  0  0  0  0  0  0  0
   -3.6334   -2.4204    0.5426 C   0  0  0  0  0  0  0  0  0  0  0  0
   -3.2368   -1.1683    0.1069 C   0  0  0  0  0  0  0  0  0  0  0  0
   -0.9908    0.7220    2.5450 C   0  0  0  0  0  0  0  0  0  0  0  0
    0.4674    0.9524    2.1017 C   0  0  0  0  0  0  0  0  0  0  0  0
    5.6127   -0.0307    0.4380 C   0  0  0  0  0  0  0  0  0  0  0  0
    6.5605   -0.2903   -0.5527 C   0  0  0  0  0  0  0  0  0  0  0  0
    4.8320    0.7767   -3.2749 H   0  0  0  0  0  0  0  0  0  0  0  0
    3.1310    1.2447   -1.5275 H   0  0  0  0  0  0  0  0  0  0  0  0
    3.8382    0.9829    2.1257 H   0  0  0  0  0  0  0  0  0  0  0  0
    2.8036    1.7193    0.9183 H   0  0  0  0  0  0  0  0  0  0  0  0
    1.8537   -0.5840    0.3572 H   0  0  0  0  0  0  0  0  0  0  0  0
    2.9542   -1.2828    1.5375 H   0  0  0  0  0  0  0  0  0  0  0  0
    0.3017   -1.4017    3.7080 H   0  0  0  0  0  0  0  0  0  0  0  0
    1.2369   -2.3139    2.5612 H   0  0  0  0  0  0  0  0  0  0  0  0
   -1.2158   -2.4823    2.1757 H   0  0  0  0  0  0  0  0  0  0  0  0
   -0.3703   -1.8280    0.7625 H   0  0  0  0  0  0  0  0  0  0  0  0
   -2.1349    3.2478   -1.2150 H   0  0  0  0  0  0  0  0  0  0  0  0
   -3.3384    3.8236   -3.3055 H   0  0  0  0  0  0  0  0  0  0  0  0
   -4.8389    2.1626   -4.3771 H   0  0  0  0  0  0  0  0  0  0  0  0
   -5.1462   -0.0636   -3.3723 H   0  0  0  0  0  0  0  0  0  0  0  0
   -5.2915   -2.0110   -2.2908 H   0  0  0  0  0  0  0  0  0  0  0  0
   -5.0238   -3.9108   -0.3852 H   0  0  0  0  0  0  0  0  0  0  0  0
   -3.3185   -2.9045    1.4564 H   0  0  0  0  0  0  0  0  0  0  0  0
   -1.0344    0.5233    3.6233 H   0  0  0  0  0  0  0  0  0  0  0  0
   -1.5826    1.6322    2.3917 H   0  0  0  0  0  0  0  0  0  0  0  0
    0.4571    1.1774    1.0273 H   0  0  0  0  0  0  0  0  0  0  0  0
    0.8612    1.8377    2.6135 H   0  0  0  0  0  0  0  0  0  0  0  0
    5.8466   -0.2665    1.4741 H   0  0  0  0  0  0  0  0  0  0  0  0
    7.5240   -0.7207   -0.2997 H   0  0  0  0  0  0  0  0  0  0  0  0
  1  2  1  0
  2  3  2  0
  3  4  1  0
  4  5  2  0
  5  6  1  0
  6  7  1  0
  7  8  1  0
  8  9  1  0
  9 10  1  0
 10 11  1  0
 11 12  1  0
 12 13  2  0
 13 14  1  0
 14 15  2  0
 15 16  1  0
 16 17  2  0
 17 18  1  0
 18 19  2  0
 19 20  1  0
 20 21  1  0
 21 22  2  0
 22 23  1  0
 23 24  2  0
 11 25  1  0
 25 26  1  0
  5 27  1  0
 27 28  2  0
 28  2  1  0
 26  8  1  0
 24 12  1  0
 19 14  1  0
 24 20  1  0
  3 29  1  0
  4 30  1  0
  6 31  1  0
  6 32  1  0
  7 33  1  0
  7 34  1  0
  9 35  1  0
  9 36  1  0
 10 37  1  0
 10 38  1  0
 15 39  1  0
 16 40  1  0
 17 41  1  0
 18 42  1  0
 21 43  1  0
 22 44  1  0
 23 45  1  0
 25 46  1  0
 25 47  1  0
 26 48  1  0
 26 49  1  0
 27 50  1  0
 28 51  1  0
M  END
$$$$
