
     RDKit          3D

 47 49  0  0  0  0  0  0  0  0999 V2000
   -2.8785   -1.9682   -1.2412 O   0  0  0  0  0  0  0  0  0  0  0  0
   -3.0303   -1.0427   -0.4513 C   0  0  0  0  0  0  0  0  0  0  0  0
   -4.4172   -0.5366   -0.0271 C   0  0  0  0  0  0  0  0  0  0  0  0
   -5.4563   -1.2573   -0.6705 O   0  0  0  0  0  0  0  0  0  0  0  0
   -6.7431   -0.9040   -0.3779 C   0  0  0  0  0  0  0  0  0  0  0  0
   -7.1413    0.1042    0.5018 C   0  0  0  0  0  0  0  0  0  0  0  0
   -8.5021    0.3595    0.7071 C   0  0  0  0  0  0  0  0  0  0  0  0
   -9.4616   -0.3935    0.0326 C   0  0  0  0  0  0  0  0  0  0  0  0
  -11.2975   -0.0441    0.3138 Br  0  0  0  0  0  0  0  0  0  0  0  0
   -9.0747   -1.4007   -0.8462 C   0  0  0  0  0  0  0  0  0  0  0  0
   -7.7159   -1.6521   -1.0481 C   0  0  0  0  0  0  0  0  0  0  0  0
   -2.0121   -0.3228    0.1677 N   0  0  0  0  0  0  0  0  0  0  0  0
   -0.6208   -0.5097    0.0271 C   0  0  0  0  0  0  0  0  0  0  0  0
    0.2146    0.3586    0.7435 C   0  0  0  0  0  0  0  0  0  0  0  0
    1.6081    0.2472    0.6622 C   0  0  0  0  0  0  0  0  0  0  0  0
    2.1859   -0.7362   -0.1476 C   0  0  0  0  0  0  0  0  0  0  0  0
    3.6651   -0.9040   -0.2682 C   0  0  0  0  0  0  0  0  0  0  0  0
    4.1062   -2.0280   -0.4757 O   0  0  0  0  0  0  0  0  0  0  0  0
    4.3980    0.2619   -0.1589 N   0  0  0  0  0  0  0  0  0  0  0  0
    5.8077    0.4256   -0.1987 C   0  0  0  0  0  0  0  0  0  0  0  0
    6.6812   -0.6638   -0.3065 C   0  0  0  0  0  0  0  0  0  0  0  0
    8.0668   -0.4772   -0.3454 C   0  0  0  0  0  0  0  0  0  0  0  0
    8.6051    0.8022   -0.2746 C   0  0  0  0  0  0  0  0  0  0  0  0
    7.7571    1.9018   -0.1616 C   0  0  0  0  0  0  0  0  0  0  0  0
    6.3620    1.7262   -0.1211 C   0  0  0  0  0  0  0  0  0  0  0  0
    5.4766    2.9167    0.0116 C   0  0  0  0  0  0  0  0  0  0  0  0
    4.2609    2.8892    0.1133 O   0  0  0  0  0  0  0  0  0  0  0  0
    6.1431    4.0849    0.0086 O   0  0  0  0  0  0  0  0  0  0  0  0
    1.3548   -1.6160   -0.8487 C   0  0  0  0  0  0  0  0  0  0  0  0
   -0.0386   -1.4994   -0.7657 C   0  0  0  0  0  0  0  0  0  0  0  0
   -4.4907   -0.6625    1.0601 H   0  0  0  0  0  0  0  0  0  0  0  0
   -4.4743    0.5248   -0.2981 H   0  0  0  0  0  0  0  0  0  0  0  0
   -6.4248    0.7105    1.0446 H   0  0  0  0  0  0  0  0  0  0  0  0
   -8.8020    1.1465    1.3942 H   0  0  0  0  0  0  0  0  0  0  0  0
   -9.8140   -1.9940   -1.3770 H   0  0  0  0  0  0  0  0  0  0  0  0
   -7.4098   -2.4391   -1.7344 H   0  0  0  0  0  0  0  0  0  0  0  0
   -2.2932    0.4272    0.7861 H   0  0  0  0  0  0  0  0  0  0  0  0
   -0.2030    1.1334    1.3819 H   0  0  0  0  0  0  0  0  0  0  0  0
    2.2202    0.9215    1.2556 H   0  0  0  0  0  0  0  0  0  0  0  0
    3.8727    1.1340   -0.0989 H   0  0  0  0  0  0  0  0  0  0  0  0
    6.3154   -1.6848   -0.3621 H   0  0  0  0  0  0  0  0  0  0  0  0
    8.7222   -1.3412   -0.4318 H   0  0  0  0  0  0  0  0  0  0  0  0
    9.6827    0.9432   -0.3057 H   0  0  0  0  0  0  0  0  0  0  0  0
    8.1966    2.8951   -0.1038 H   0  0  0  0  0  0  0  0  0  0  0  0
    5.4475    4.7702    0.0908 H   0  0  0  0  0  0  0  0  0  0  0  0
    1.7869   -2.3999   -1.4688 H   0  0  0  0  0  0  0  0  0  0  0  0
   -0.6359   -2.2065   -1.3336 H   0  0  0  0  0  0  0  0  0  0  0  0
  1  2  2  0
  2  3  1  0
  3  4  1  0
  4  5  1  0
  5  6  2  0
  6  7  1  0
  7  8  2  0
  8  9  1  0
  8 10  1  0
 10 11  2  0
  2 12  1  0
 12 13  1  0
 13 14  2  0
 14 15  1  0
 15 16  2  0
 16 17  1  0
 17 18  2  0
 17 19  1  0
 19 20  1  0
 20 21  2  0
 21 22  1  0
 22 23  2  0
 23 24  1  0
 24 25  2  0
 25 26  1  0
 26 27  2  0
 26 28  1  0
 16 29  1  0
 29 30  2  0
 11  5  1  0
 30 13  1  0
 25 20  1  0
  3 31  1  0
  3 32  1  0
  6 33  1  0
  7 34  1  0
 10 35  1  0
 11 36  1  0
 12 37  1  0
 14 38  1  0
 15 39  1  0
 19 40  1  0
 21 41  1  0
 22 42  1  0
 23 43  1  0
 24 44  1  0
 28 45  1  0
 29 46  1  0
 30 47  1  0
M  END
$$$$
