
     RDKit          3D

 32 33  0  0  0  0  0  0  0  0999 V2000
    4.1894    0.6262   -0.6838 C   0  0  0  0  0  0  0  0  0  0  0  0
    4.2129   -0.8447   -0.3044 C   0  0  0  0  0  0  0  0  0  0  0  0
    2.9247   -1.2447    0.9148 S   0  0  0  0  0  0  0  0  0  0  0  0
    1.4748   -1.1468   -0.0320 C   0  0  0  0  0  0  0  0  0  0  0  0
    1.1854   -1.5792   -1.3033 C   0  0  0  0  0  0  0  0  0  0  0  0
   -0.1121   -1.2970   -1.6313 N   0  0  0  0  0  0  0  0  0  0  0  0
   -0.6331   -0.6911   -0.5797 C   0  0  0  0  0  0  0  0  0  0  0  0
   -2.0183   -0.2350   -0.4933 C   0  0  0  0  0  0  0  0  0  0  0  0
   -2.3304    1.1298   -0.4957 C   0  0  0  0  0  0  0  0  0  0  0  0
   -3.6593    1.5492   -0.4038 C   0  0  0  0  0  0  0  0  0  0  0  0
   -4.6840    0.6072   -0.3196 C   0  0  0  0  0  0  0  0  0  0  0  0
   -4.3832   -0.7540   -0.3369 C   0  0  0  0  0  0  0  0  0  0  0  0
   -3.0548   -1.1739   -0.4287 C   0  0  0  0  0  0  0  0  0  0  0  0
    0.3045   -0.5953    0.4379 N   0  0  0  0  0  0  0  0  0  0  0  0
    0.0563   -0.0763    1.7726 C   0  0  0  0  0  0  0  0  0  0  0  0
    0.5217    1.3599    1.9492 C   0  0  0  0  0  0  0  0  0  0  0  0
    3.2566    0.9045   -1.1847 H   0  0  0  0  0  0  0  0  0  0  0  0
    5.0101    0.8436   -1.3755 H   0  0  0  0  0  0  0  0  0  0  0  0
    4.3179    1.2687    0.1937 H   0  0  0  0  0  0  0  0  0  0  0  0
    5.1804   -1.0828    0.1495 H   0  0  0  0  0  0  0  0  0  0  0  0
    4.1101   -1.4763   -1.1920 H   0  0  0  0  0  0  0  0  0  0  0  0
    1.8358   -2.0882   -2.0014 H   0  0  0  0  0  0  0  0  0  0  0  0
   -1.5425    1.8727   -0.5888 H   0  0  0  0  0  0  0  0  0  0  0  0
   -3.8958    2.6101   -0.4100 H   0  0  0  0  0  0  0  0  0  0  0  0
   -5.7189    0.9338   -0.2548 H   0  0  0  0  0  0  0  0  0  0  0  0
   -5.1818   -1.4897   -0.2881 H   0  0  0  0  0  0  0  0  0  0  0  0
   -2.8266   -2.2374   -0.4566 H   0  0  0  0  0  0  0  0  0  0  0  0
    0.5540   -0.7354    2.4919 H   0  0  0  0  0  0  0  0  0  0  0  0
   -1.0152   -0.1532    1.9833 H   0  0  0  0  0  0  0  0  0  0  0  0
    0.3002    1.7054    2.9638 H   0  0  0  0  0  0  0  0  0  0  0  0
    0.0219    2.0321    1.2458 H   0  0  0  0  0  0  0  0  0  0  0  0
    1.5995    1.4579    1.7877 H   0  0  0  0  0  0  0  0  0  0  0  0
  1  2  1  0
  2  3  1  0
  3  4  1  0
  4  5  2  0
  5  6  1  0
  6  7  2  0
  7  8  1  0
  8  9  2  0
  9 10  1  0
 10 11  2  0
 11 12  1  0
 12 13  2  0
  7 14  1  0
 14 15  1  0
 15 16  1  0
 14  4  1  0
 13  8  1  0
  1 17  1  0
  1 18  1  0
  1 19  1  0
  2 20  1  0
  2 21  1  0
  5 22  1  0
  9 23  1  0
 10 24  1  0
 11 25  1  0
 12 26  1  0
 13 27  1  0
 15 28  1  0
 15 29  1  0
 16 30  1  0
 16 31  1  0
 16 32  1  0
M  END
$$$$
