
     RDKit          3D

 61 65  0  0  0  0  0  0  0  0999 V2000
   -8.4739    3.8247   -0.9271 C   0  0  0  0  0  0  0  0  0  0  0  0
   -7.4186    2.7859   -0.6864 C   0  0  0  0  0  0  0  0  0  0  0  0
   -7.7688    1.4724   -0.3676 C   0  0  0  0  0  0  0  0  0  0  0  0
   -6.7783    0.5009   -0.1808 C   0  0  0  0  0  0  0  0  0  0  0  0
   -5.4108    0.8013   -0.3203 C   0  0  0  0  0  0  0  0  0  0  0  0
   -4.3869   -0.2497   -0.1333 C   0  0  0  0  0  0  0  0  0  0  0  0
   -3.1660   -0.2447   -0.7846 C   0  0  0  0  0  0  0  0  0  0  0  0
   -2.2732   -1.2893   -0.5385 C   0  0  0  0  0  0  0  0  0  0  0  0
   -0.9596   -1.1993   -1.2171 C   0  0  0  0  0  0  0  0  0  0  0  0
   -0.9471   -1.0980   -2.4363 O   0  0  0  0  0  0  0  0  0  0  0  0
    0.1196   -1.1799   -0.3524 N   0  0  0  0  0  0  0  0  0  0  0  0
    1.4869   -1.1473   -0.6925 C   0  0  0  0  0  0  0  0  0  0  0  0
    2.4086   -1.1562    0.3644 C   0  0  0  0  0  0  0  0  0  0  0  0
    3.7832   -1.1467    0.1137 C   0  0  0  0  0  0  0  0  0  0  0  0
    4.2405   -1.1091   -1.2040 C   0  0  0  0  0  0  0  0  0  0  0  0
    5.9874   -1.1268   -1.5412 S   0  0  0  0  0  6  0  0  0  0  0  0
    6.6644   -1.6655   -0.3798 O   0  0  0  0  0  0  0  0  0  0  0  0
    6.1612   -1.7222   -2.8497 O   0  0  0  0  0  0  0  0  0  0  0  0
    6.3748    0.5127   -1.7125 N   0  0  0  0  0  0  0  0  0  0  0  0
    6.0506    1.3225   -0.5504 C   0  0  0  0  0  0  0  0  0  0  0  0
    4.9301    2.0856   -0.4590 O   0  0  0  0  0  0  0  0  0  0  0  0
    4.9125    2.7370    0.7588 N   0  0  0  0  0  0  0  0  0  0  0  0
    6.0513    2.3874    1.3728 C   0  0  0  0  0  0  0  0  0  0  0  0
    6.3747    2.9317    2.7129 C   0  0  0  0  0  0  0  0  0  0  0  0
    6.8205    1.4894    0.5798 C   0  0  0  0  0  0  0  0  0  0  0  0
    8.1353    0.8938    0.9097 C   0  0  0  0  0  0  0  0  0  0  0  0
    3.3354   -1.1126   -2.2668 C   0  0  0  0  0  0  0  0  0  0  0  0
    1.9615   -1.1287   -2.0063 C   0  0  0  0  0  0  0  0  0  0  0  0
   -2.6150   -2.3617    0.3129 C   0  0  0  0  0  0  0  0  0  0  0  0
   -1.8087   -3.5047    0.5560 C   0  0  0  0  0  0  0  0  0  0  0  0
   -2.2298   -4.5103    1.4236 C   0  0  0  0  0  0  0  0  0  0  0  0
   -3.4603   -4.3959    2.0530 C   0  0  0  0  0  0  0  0  0  0  0  0
   -4.2658   -3.2832    1.7990 C   0  0  0  0  0  0  0  0  0  0  0  0
   -3.8722   -2.2705    0.9342 C   0  0  0  0  0  0  0  0  0  0  0  0
   -4.7181   -1.2478    0.7248 N   0  0  0  0  0  0  0  0  0  0  0  0
   -5.0788    2.1284   -0.6451 C   0  0  0  0  0  0  0  0  0  0  0  0
   -6.0663    3.1047   -0.8320 C   0  0  0  0  0  0  0  0  0  0  0  0
   -9.3905    3.5908   -0.3777 H   0  0  0  0  0  0  0  0  0  0  0  0
   -8.1337    4.8091   -0.5887 H   0  0  0  0  0  0  0  0  0  0  0  0
   -8.7097    3.8794   -1.9952 H   0  0  0  0  0  0  0  0  0  0  0  0
   -8.8134    1.1891   -0.2616 H   0  0  0  0  0  0  0  0  0  0  0  0
   -7.0851   -0.5135    0.0703 H   0  0  0  0  0  0  0  0  0  0  0  0
   -2.8993    0.5408   -1.4848 H   0  0  0  0  0  0  0  0  0  0  0  0
   -0.0917   -1.1938    0.6389 H   0  0  0  0  0  0  0  0  0  0  0  0
    2.0714   -1.1785    1.3976 H   0  0  0  0  0  0  0  0  0  0  0  0
    4.4822   -1.1658    0.9465 H   0  0  0  0  0  0  0  0  0  0  0  0
    5.9743    0.8698   -2.5793 H   0  0  0  0  0  0  0  0  0  0  0  0
    6.3992    2.1244    3.4538 H   0  0  0  0  0  0  0  0  0  0  0  0
    7.3565    3.4225    2.7010 H   0  0  0  0  0  0  0  0  0  0  0  0
    5.6341    3.6718    3.0382 H   0  0  0  0  0  0  0  0  0  0  0  0
    8.8413    1.6700    1.2241 H   0  0  0  0  0  0  0  0  0  0  0  0
    8.0323    0.1737    1.7267 H   0  0  0  0  0  0  0  0  0  0  0  0
    8.5774    0.3781    0.0532 H   0  0  0  0  0  0  0  0  0  0  0  0
    3.6796   -1.1165   -3.2992 H   0  0  0  0  0  0  0  0  0  0  0  0
    1.2851   -1.1334   -2.8568 H   0  0  0  0  0  0  0  0  0  0  0  0
   -0.8531   -3.6337    0.0508 H   0  0  0  0  0  0  0  0  0  0  0  0
   -1.6048   -5.3830    1.5971 H   0  0  0  0  0  0  0  0  0  0  0  0
   -3.8065   -5.1730    2.7301 H   0  0  0  0  0  0  0  0  0  0  0  0
   -5.2366   -3.2081    2.2850 H   0  0  0  0  0  0  0  0  0  0  0  0
   -4.0404    2.4327   -0.7486 H   0  0  0  0  0  0  0  0  0  0  0  0
   -5.7682    4.1186   -1.0901 H   0  0  0  0  0  0  0  0  0  0  0  0
  1  2  1  0
  2  3  2  0
  3  4  1  0
  4  5  2  0
  5  6  1  0
  6  7  2  0
  7  8  1  0
  8  9  1  0
  9 10  2  0
  9 11  1  0
 11 12  1  0
 12 13  2  0
 13 14  1  0
 14 15  2  0
 15 16  1  0
 16 17  2  0
 16 18  2  0
 16 19  1  0
 19 20  1  0
 20 21  1  0
 21 22  1  0
 22 23  2  0
 23 24  1  0
 23 25  1  0
 25 26  1  0
 15 27  1  0
 27 28  2  0
  8 29  2  0
 29 30  1  0
 30 31  2  0
 31 32  1  0
 32 33  2  0
 33 34  1  0
 34 35  2  0
  5 36  1  0
 36 37  2  0
 37  2  1  0
 35  6  1  0
 28 12  1  0
 34 29  1  0
 25 20  2  0
  1 38  1  0
  1 39  1  0
  1 40  1  0
  3 41  1  0
  4 42  1  0
  7 43  1  0
 11 44  1  0
 13 45  1  0
 14 46  1  0
 19 47  1  0
 24 48  1  0
 24 49  1  0
 24 50  1  0
 26 51  1  0
 26 52  1  0
 26 53  1  0
 27 54  1  0
 28 55  1  0
 30 56  1  0
 31 57  1  0
 32 58  1  0
 33 59  1  0
 36 60  1  0
 37 61  1  0
M  END
$$$$
