
     RDKit          3D

 36 37  0  0  0  0  0  0  0  0999 V2000
   -0.1339    0.1754    2.1610 O   0  0  0  0  0  0  0  0  0  0  0  0
   -0.3295    1.1105    1.3879 C   0  0  0  0  0  0  0  0  0  0  0  0
    0.8014    1.9181    0.7423 C   0  0  0  0  0  0  0  0  0  0  0  0
    2.0780    1.2936    0.8725 O   0  0  0  0  0  0  0  0  0  0  0  0
    2.2382    0.2000    0.0870 C   0  0  0  0  0  0  0  0  0  0  0  0
    1.4438   -0.2041   -0.7477 O   0  0  0  0  0  0  0  0  0  0  0  0
    3.5478   -0.4519    0.3559 C   0  0  0  0  0  0  0  0  0  0  0  0
    3.9224   -1.5387   -0.4487 C   0  0  0  0  0  0  0  0  0  0  0  0
    5.1414   -2.1863   -0.2390 C   0  0  0  0  0  0  0  0  0  0  0  0
    5.9918   -1.7521    0.7770 C   0  0  0  0  0  0  0  0  0  0  0  0
    5.6192   -0.6743    1.5799 C   0  0  0  0  0  0  0  0  0  0  0  0
    6.6734   -0.1445    2.8333 Cl  0  0  0  0  0  0  0  0  0  0  0  0
    4.4036   -0.0216    1.3780 C   0  0  0  0  0  0  0  0  0  0  0  0
   -1.5949    1.5443    1.0366 N   0  0  0  0  0  0  0  0  0  0  0  0
   -2.7593    0.7354    1.3585 C   0  0  0  0  0  0  0  0  0  0  0  0
   -2.9939   -0.3837    0.3292 C   0  0  0  0  0  0  0  0  0  0  0  0
   -3.7159    0.0655   -0.8617 N   0  0  0  0  0  0  0  0  0  0  0  0
   -4.8896   -0.5097   -1.2927 C   0  0  0  0  0  0  0  0  0  0  0  0
   -5.4582   -1.5022   -0.5520 O   0  0  0  0  0  0  0  0  0  0  0  0
   -5.3702   -0.0119   -2.4376 C   0  0  0  0  0  0  0  0  0  0  0  0
   -4.3433    1.2389   -3.0622 S   0  0  0  0  0  0  0  0  0  0  0  0
   -3.2242    1.0595   -1.6973 C   0  0  0  0  0  0  0  0  0  0  0  0
   -2.2259    1.7490   -1.5580 O   0  0  0  0  0  0  0  0  0  0  0  0
    0.5806    2.1219   -0.3121 H   0  0  0  0  0  0  0  0  0  0  0  0
    0.8563    2.8807    1.2618 H   0  0  0  0  0  0  0  0  0  0  0  0
    3.2621   -1.8852   -1.2425 H   0  0  0  0  0  0  0  0  0  0  0  0
    5.4251   -3.0283   -0.8660 H   0  0  0  0  0  0  0  0  0  0  0  0
    6.9402   -2.2578    0.9399 H   0  0  0  0  0  0  0  0  0  0  0  0
    4.1301    0.8113    2.0200 H   0  0  0  0  0  0  0  0  0  0  0  0
   -1.6582    2.0729    0.1654 H   0  0  0  0  0  0  0  0  0  0  0  0
   -2.6074    0.2924    2.3489 H   0  0  0  0  0  0  0  0  0  0  0  0
   -3.6221    1.4073    1.4130 H   0  0  0  0  0  0  0  0  0  0  0  0
   -3.5556   -1.1862    0.8181 H   0  0  0  0  0  0  0  0  0  0  0  0
   -2.0397   -0.8065   -0.0076 H   0  0  0  0  0  0  0  0  0  0  0  0
   -6.2597   -1.8086   -1.0094 H   0  0  0  0  0  0  0  0  0  0  0  0
   -6.2737   -0.3232   -2.9409 H   0  0  0  0  0  0  0  0  0  0  0  0
  1  2  2  0
  2  3  1  0
  3  4  1  0
  4  5  1  0
  5  6  2  0
  5  7  1  0
  7  8  2  0
  8  9  1  0
  9 10  2  0
 10 11  1  0
 11 12  1  0
 11 13  2  0
  2 14  1  0
 14 15  1  0
 15 16  1  0
 16 17  1  0
 17 18  1  0
 18 19  1  0
 18 20  2  0
 20 21  1  0
 21 22  1  0
 22 23  2  0
 13  7  1  0
 22 17  1  0
  3 24  1  0
  3 25  1  0
  8 26  1  0
  9 27  1  0
 10 28  1  0
 13 29  1  0
 14 30  1  0
 15 31  1  0
 15 32  1  0
 16 33  1  0
 16 34  1  0
 19 35  1  0
 20 36  1  0
M  END
$$$$
