
     RDKit          3D

 46 49  0  0  0  0  0  0  0  0999 V2000
    4.2802    1.8766    0.9534 O   0  0  0  0  0  0  0  0  0  0  0  0
    3.2031    2.1910    0.4515 C   0  0  0  0  0  0  0  0  0  0  0  0
    2.2842    3.1865    1.1490 C   0  0  0  0  0  0  0  0  0  0  0  0
    1.0232    2.3315    2.1445 S   0  0  0  0  0  0  0  0  0  0  0  0
   -0.0453    1.7700    0.9083 C   0  0  0  0  0  0  0  0  0  0  0  0
   -0.0487    2.1948   -0.3345 N   0  0  0  0  0  0  0  0  0  0  0  0
   -0.9664    1.4544   -1.0254 N   0  0  0  0  0  0  0  0  0  0  0  0
   -1.5397    0.6116   -0.1834 C   0  0  0  0  0  0  0  0  0  0  0  0
   -2.5958   -0.3846   -0.5453 C   0  0  0  0  0  0  0  0  0  0  0  0
   -3.9452   -0.1028    0.0628 C   0  0  0  0  0  0  0  0  0  0  0  0
   -4.7109   -0.9316    0.8649 C   0  0  0  0  0  0  0  0  0  0  0  0
   -5.9411   -0.3253    1.2571 C   0  0  0  0  0  0  0  0  0  0  0  0
   -6.0854    0.9373    0.7262 C   0  0  0  0  0  0  0  0  0  0  0  0
   -4.7509    1.3825   -0.2448 S   0  0  0  0  0  0  0  0  0  0  0  0
   -0.9772    0.7823    1.0673 N   0  0  0  0  0  0  0  0  0  0  0  0
   -1.3176    0.0731    2.2880 C   0  0  0  0  0  0  0  0  0  0  0  0
   -0.8623   -1.3405    2.2567 C   0  0  0  0  0  0  0  0  0  0  0  0
   -1.4565   -2.5322    2.6215 C   0  0  0  0  0  0  0  0  0  0  0  0
   -0.5111   -3.5500    2.3463 C   0  0  0  0  0  0  0  0  0  0  0  0
    0.6020   -2.9164    1.8459 C   0  0  0  0  0  0  0  0  0  0  0  0
    0.3997   -1.5764    1.7937 O   0  0  0  0  0  0  0  0  0  0  0  0
    2.6988    1.7298   -0.7517 N   0  0  0  0  0  0  0  0  0  0  0  0
    3.2719    0.7915   -1.6325 C   0  0  0  0  0  0  0  0  0  0  0  0
    4.5364    0.2218   -1.4620 C   0  0  0  0  0  0  0  0  0  0  0  0
    5.0266   -0.7116   -2.3859 C   0  0  0  0  0  0  0  0  0  0  0  0
    4.2512   -1.0749   -3.4847 C   0  0  0  0  0  0  0  0  0  0  0  0
    4.9147   -2.3412   -4.7293 Br  0  0  0  0  0  0  0  0  0  0  0  0
    2.9896   -0.5119   -3.6700 C   0  0  0  0  0  0  0  0  0  0  0  0
    2.5018    0.4154   -2.7426 C   0  0  0  0  0  0  0  0  0  0  0  0
    1.8312    3.8725    0.4243 H   0  0  0  0  0  0  0  0  0  0  0  0
    2.8968    3.7979    1.8205 H   0  0  0  0  0  0  0  0  0  0  0  0
   -2.2634   -1.3895   -0.2572 H   0  0  0  0  0  0  0  0  0  0  0  0
   -2.7036   -0.4124   -1.6387 H   0  0  0  0  0  0  0  0  0  0  0  0
   -4.4049   -1.9305    1.1630 H   0  0  0  0  0  0  0  0  0  0  0  0
   -6.6885   -0.7942    1.8885 H   0  0  0  0  0  0  0  0  0  0  0  0
   -6.9175    1.6182    0.8535 H   0  0  0  0  0  0  0  0  0  0  0  0
   -0.8761    0.5838    3.1473 H   0  0  0  0  0  0  0  0  0  0  0  0
   -2.4021    0.1388    2.4146 H   0  0  0  0  0  0  0  0  0  0  0  0
   -2.4487   -2.6545    3.0342 H   0  0  0  0  0  0  0  0  0  0  0  0
   -0.6235   -4.6148    2.4997 H   0  0  0  0  0  0  0  0  0  0  0  0
    1.5685   -3.2549    1.5000 H   0  0  0  0  0  0  0  0  0  0  0  0
    1.7381    2.0037   -0.9716 H   0  0  0  0  0  0  0  0  0  0  0  0
    5.1679    0.4820   -0.6183 H   0  0  0  0  0  0  0  0  0  0  0  0
    6.0082   -1.1492   -2.2319 H   0  0  0  0  0  0  0  0  0  0  0  0
    2.3777   -0.7892   -4.5244 H   0  0  0  0  0  0  0  0  0  0  0  0
    1.5103    0.8418   -2.8972 H   0  0  0  0  0  0  0  0  0  0  0  0
  1  2  2  0
  2  3  1  0
  3  4  1  0
  4  5  1  0
  5  6  2  0
  6  7  1  0
  7  8  2  0
  8  9  1  0
  9 10  1  0
 10 11  2  0
 11 12  1  0
 12 13  2  0
 13 14  1  0
  8 15  1  0
 15 16  1  0
 16 17  1  0
 17 18  2  0
 18 19  1  0
 19 20  2  0
 20 21  1  0
  2 22  1  0
 22 23  1  0
 23 24  2  0
 24 25  1  0
 25 26  2  0
 26 27  1  0
 26 28  1  0
 28 29  2  0
 15  5  1  0
 21 17  1  0
 29 23  1  0
 14 10  1  0
  3 30  1  0
  3 31  1  0
  9 32  1  0
  9 33  1  0
 11 34  1  0
 12 35  1  0
 13 36  1  0
 16 37  1  0
 16 38  1  0
 18 39  1  0
 19 40  1  0
 20 41  1  0
 22 42  1  0
 24 43  1  0
 25 44  1  0
 28 45  1  0
 29 46  1  0
M  END
$$$$
