
     RDKit          3D

 58 60  0  0  0  0  0  0  0  0999 V2000
    9.5440   -1.0971   -1.2703 C   0  0  0  0  0  0  0  0  0  0  0  0
    8.0501   -0.9709   -1.2502 C   0  0  0  0  0  0  0  0  0  0  0  0
    7.2951   -1.6939   -0.3204 C   0  0  0  0  0  0  0  0  0  0  0  0
    5.9022   -1.5981   -0.3106 C   0  0  0  0  0  0  0  0  0  0  0  0
    5.2403   -0.7804   -1.2342 C   0  0  0  0  0  0  0  0  0  0  0  0
    3.7355   -0.6911   -1.2286 C   0  0  0  0  0  0  0  0  0  0  0  0
    3.0984   -1.8009   -2.0681 C   0  0  0  0  0  0  0  0  0  0  0  0
    1.6497   -1.6966   -2.1017 N   0  0  0  0  0  0  0  0  0  0  0  0
    0.8701   -2.1478   -1.0581 C   0  0  0  0  0  0  0  0  0  0  0  0
    1.3282   -2.6940   -0.0601 O   0  0  0  0  0  0  0  0  0  0  0  0
   -0.6058   -1.8736   -1.2562 C   0  0  0  0  0  0  0  0  0  0  0  0
   -1.4656   -2.5248   -0.1794 C   0  0  0  0  0  0  0  0  0  0  0  0
   -1.2389   -1.8669    1.1163 N   0  0  0  0  0  0  0  0  0  0  0  0
   -2.3953   -2.0535    2.3198 S   0  0  0  0  0  6  0  0  0  0  0  0
   -3.0800   -3.3067    2.0965 O   0  0  0  0  0  0  0  0  0  0  0  0
   -1.7630   -1.7309    3.5773 O   0  0  0  0  0  0  0  0  0  0  0  0
   -3.5179   -0.7290    1.9550 C   0  0  0  0  0  0  0  0  0  0  0  0
   -4.8735   -0.9915    1.7685 C   0  0  0  0  0  0  0  0  0  0  0  0
   -5.7476    0.0625    1.4801 C   0  0  0  0  0  0  0  0  0  0  0  0
   -5.2785    1.3835    1.3695 C   0  0  0  0  0  0  0  0  0  0  0  0
   -3.9154    1.6187    1.5529 C   0  0  0  0  0  0  0  0  0  0  0  0
   -3.0300    0.5724    1.8512 C   0  0  0  0  0  0  0  0  0  0  0  0
   -3.3959    2.9885    1.4227 C   0  0  0  0  0  0  0  0  0  0  0  0
   -2.1879    3.1794    1.5401 O   0  0  0  0  0  0  0  0  0  0  0  0
   -4.3224    3.9841    1.1595 N   0  0  0  0  0  0  0  0  0  0  0  0
   -3.8504    5.3529    1.0511 C   0  0  0  0  0  0  0  0  0  0  0  0
   -5.6863    3.7818    0.9822 C   0  0  0  0  0  0  0  0  0  0  0  0
   -6.4465    4.7233    0.7432 O   0  0  0  0  0  0  0  0  0  0  0  0
   -6.1449    2.4716    1.0820 N   0  0  0  0  0  0  0  0  0  0  0  0
   -7.5703    2.2290    0.8975 C   0  0  0  0  0  0  0  0  0  0  0  0
    5.9945   -0.0726   -2.1777 C   0  0  0  0  0  0  0  0  0  0  0  0
    7.3878   -0.1702   -2.1872 C   0  0  0  0  0  0  0  0  0  0  0  0
    9.8363   -2.0068   -1.8027 H   0  0  0  0  0  0  0  0  0  0  0  0
    9.9412   -1.1368   -0.2507 H   0  0  0  0  0  0  0  0  0  0  0  0
   10.0064   -0.2373   -1.7661 H   0  0  0  0  0  0  0  0  0  0  0  0
    7.7878   -2.3362    0.4059 H   0  0  0  0  0  0  0  0  0  0  0  0
    5.3355   -2.1664    0.4247 H   0  0  0  0  0  0  0  0  0  0  0  0
    3.4227    0.2909   -1.6072 H   0  0  0  0  0  0  0  0  0  0  0  0
    3.3713   -0.7334   -0.1940 H   0  0  0  0  0  0  0  0  0  0  0  0
    3.4453   -1.7512   -3.1062 H   0  0  0  0  0  0  0  0  0  0  0  0
    3.3687   -2.7875   -1.6727 H   0  0  0  0  0  0  0  0  0  0  0  0
    1.2272   -1.1385   -2.8324 H   0  0  0  0  0  0  0  0  0  0  0  0
   -0.8974   -2.2712   -2.2353 H   0  0  0  0  0  0  0  0  0  0  0  0
   -0.7571   -0.7879   -1.2643 H   0  0  0  0  0  0  0  0  0  0  0  0
   -2.5171   -2.4209   -0.4684 H   0  0  0  0  0  0  0  0  0  0  0  0
   -1.2300   -3.5907   -0.0890 H   0  0  0  0  0  0  0  0  0  0  0  0
   -0.2858   -1.9526    1.4894 H   0  0  0  0  0  0  0  0  0  0  0  0
   -5.2610   -2.0055    1.8525 H   0  0  0  0  0  0  0  0  0  0  0  0
   -6.7981   -0.1841    1.3492 H   0  0  0  0  0  0  0  0  0  0  0  0
   -1.9703    0.7728    2.0029 H   0  0  0  0  0  0  0  0  0  0  0  0
   -2.7645    5.4324    1.1407 H   0  0  0  0  0  0  0  0  0  0  0  0
   -4.3162    5.9488    1.8440 H   0  0  0  0  0  0  0  0  0  0  0  0
   -4.1568    5.7643    0.0836 H   0  0  0  0  0  0  0  0  0  0  0  0
   -7.9857    1.7895    1.8104 H   0  0  0  0  0  0  0  0  0  0  0  0
   -7.7150    1.5537    0.0483 H   0  0  0  0  0  0  0  0  0  0  0  0
   -8.1250    3.1481    0.6892 H   0  0  0  0  0  0  0  0  0  0  0  0
    5.5041    0.5622   -2.9120 H   0  0  0  0  0  0  0  0  0  0  0  0
    7.9538    0.3871   -2.9302 H   0  0  0  0  0  0  0  0  0  0  0  0
  1  2  1  0
  2  3  2  0
  3  4  1  0
  4  5  2  0
  5  6  1  0
  6  7  1  0
  7  8  1  0
  8  9  1  0
  9 10  2  0
  9 11  1  0
 11 12  1  0
 12 13  1  0
 13 14  1  0
 14 15  2  0
 14 16  2  0
 14 17  1  0
 17 18  2  0
 18 19  1  0
 19 20  2  0
 20 21  1  0
 21 22  2  0
 21 23  1  0
 23 24  2  0
 23 25  1  0
 25 26  1  0
 25 27  1  0
 27 28  2  0
 27 29  1  0
 29 30  1  0
  5 31  1  0
 31 32  2  0
 32  2  1  0
 22 17  1  0
 29 20  1  0
  1 33  1  0
  1 34  1  0
  1 35  1  0
  3 36  1  0
  4 37  1  0
  6 38  1  0
  6 39  1  0
  7 40  1  0
  7 41  1  0
  8 42  1  0
 11 43  1  0
 11 44  1  0
 12 45  1  0
 12 46  1  0
 13 47  1  0
 18 48  1  0
 19 49  1  0
 22 50  1  0
 26 51  1  0
 26 52  1  0
 26 53  1  0
 30 54  1  0
 30 55  1  0
 30 56  1  0
 31 57  1  0
 32 58  1  0
M  END
$$$$
