
     RDKit          3D

 57 59  0  0  0  0  0  0  0  0999 V2000
   -9.8064   -1.3155   -1.7256 C   0  0  0  0  0  0  0  0  0  0  0  0
   -8.6132   -1.0918   -2.4684 O   0  0  0  0  0  0  0  0  0  0  0  0
   -7.5599   -0.5393   -1.7917 C   0  0  0  0  0  0  0  0  0  0  0  0
   -6.4554   -0.2241   -2.5911 C   0  0  0  0  0  0  0  0  0  0  0  0
   -5.3116    0.3495   -2.0329 C   0  0  0  0  0  0  0  0  0  0  0  0
   -5.2724    0.5954   -0.6593 C   0  0  0  0  0  0  0  0  0  0  0  0
   -3.8206    1.3276    0.0468 S   0  0  0  0  0  6  0  0  0  0  0  0
   -3.4812    2.4863   -0.7506 O   0  0  0  0  0  0  0  0  0  0  0  0
   -4.0059    1.4319    1.4788 O   0  0  0  0  0  0  0  0  0  0  0  0
   -2.6419    0.1507   -0.2206 N   0  0  0  0  0  0  0  0  0  0  0  0
   -2.7834   -1.1337    0.4957 C   0  0  0  0  0  0  0  0  0  0  0  0
   -1.6164   -1.1373    1.4554 C   0  0  0  0  0  0  0  0  0  0  0  0
   -0.5942   -0.4455    0.7386 O   0  0  0  0  0  0  0  0  0  0  0  0
   -1.2648    0.6292    0.0568 C   0  0  0  0  0  0  0  0  0  0  0  0
   -0.5363    0.9700   -1.2599 C   0  0  0  0  0  0  0  0  0  0  0  0
    0.7835    1.5411   -1.0566 N   0  0  0  0  0  0  0  0  0  0  0  0
    1.9195    0.7671   -0.9835 C   0  0  0  0  0  0  0  0  0  0  0  0
    2.0002   -0.4316   -1.2073 O   0  0  0  0  0  0  0  0  0  0  0  0
    3.1812    1.5683   -0.5851 C   0  0  0  0  0  0  0  0  0  0  0  0
    3.1182    2.7831   -0.4484 O   0  0  0  0  0  0  0  0  0  0  0  0
    4.2945    0.7910   -0.4112 N   0  0  0  0  0  0  0  0  0  0  0  0
    5.5577    1.3432    0.0058 C   0  0  0  0  0  0  0  0  0  0  0  0
    6.5503    0.2573    0.3394 C   0  0  0  0  0  0  0  0  0  0  0  0
    7.2383   -0.3822   -0.7093 C   0  0  0  0  0  0  0  0  0  0  0  0
    8.1463   -1.4068   -0.4450 C   0  0  0  0  0  0  0  0  0  0  0  0
    8.3726   -1.8071    0.8686 C   0  0  0  0  0  0  0  0  0  0  0  0
    7.6903   -1.1868    1.9207 C   0  0  0  0  0  0  0  0  0  0  0  0
    6.7757   -0.1573    1.6663 C   0  0  0  0  0  0  0  0  0  0  0  0
    6.0562    0.4994    2.6300 O   0  0  0  0  0  0  0  0  0  0  0  0
    6.2763    0.1297    3.9855 C   0  0  0  0  0  0  0  0  0  0  0  0
   -6.3657    0.2822    0.1515 C   0  0  0  0  0  0  0  0  0  0  0  0
   -7.5093   -0.2870   -0.4180 C   0  0  0  0  0  0  0  0  0  0  0  0
  -10.1963   -0.3782   -1.3154 H   0  0  0  0  0  0  0  0  0  0  0  0
  -10.5588   -1.7136   -2.4133 H   0  0  0  0  0  0  0  0  0  0  0  0
   -9.6479   -2.0586   -0.9378 H   0  0  0  0  0  0  0  0  0  0  0  0
   -6.4889   -0.4258   -3.6580 H   0  0  0  0  0  0  0  0  0  0  0  0
   -4.4647    0.5983   -2.6672 H   0  0  0  0  0  0  0  0  0  0  0  0
   -3.7386   -1.2695    1.0086 H   0  0  0  0  0  0  0  0  0  0  0  0
   -2.6801   -1.9349   -0.2454 H   0  0  0  0  0  0  0  0  0  0  0  0
   -1.8395   -0.5831    2.3745 H   0  0  0  0  0  0  0  0  0  0  0  0
   -1.2813   -2.1455    1.7149 H   0  0  0  0  0  0  0  0  0  0  0  0
   -1.2571    1.4923    0.7337 H   0  0  0  0  0  0  0  0  0  0  0  0
   -0.4310    0.0651   -1.8697 H   0  0  0  0  0  0  0  0  0  0  0  0
   -1.1077    1.7036   -1.8366 H   0  0  0  0  0  0  0  0  0  0  0  0
    0.8873    2.5202   -0.8005 H   0  0  0  0  0  0  0  0  0  0  0  0
    4.1803   -0.2148   -0.5071 H   0  0  0  0  0  0  0  0  0  0  0  0
    5.9410    1.9586   -0.8180 H   0  0  0  0  0  0  0  0  0  0  0  0
    5.3953    2.0309    0.8433 H   0  0  0  0  0  0  0  0  0  0  0  0
    7.0616   -0.0798   -1.7414 H   0  0  0  0  0  0  0  0  0  0  0  0
    8.6729   -1.8936   -1.2636 H   0  0  0  0  0  0  0  0  0  0  0  0
    9.0784   -2.6085    1.0781 H   0  0  0  0  0  0  0  0  0  0  0  0
    7.8950   -1.5358    2.9291 H   0  0  0  0  0  0  0  0  0  0  0  0
    7.3126    0.3172    4.2845 H   0  0  0  0  0  0  0  0  0  0  0  0
    5.6344    0.7571    4.6120 H   0  0  0  0  0  0  0  0  0  0  0  0
    5.9942   -0.9140    4.1602 H   0  0  0  0  0  0  0  0  0  0  0  0
   -6.3425    0.4811    1.2202 H   0  0  0  0  0  0  0  0  0  0  0  0
   -8.3409   -0.5253    0.2375 H   0  0  0  0  0  0  0  0  0  0  0  0
  1  2  1  0
  2  3  1  0
  3  4  2  0
  4  5  1  0
  5  6  2  0
  6  7  1  0
  7  8  2  0
  7  9  2  0
  7 10  1  0
 10 11  1  0
 11 12  1  0
 12 13  1  0
 13 14  1  0
 14 15  1  0
 15 16  1  0
 16 17  1  0
 17 18  2  0
 17 19  1  0
 19 20  2  0
 19 21  1  0
 21 22  1  0
 22 23  1  0
 23 24  2  0
 24 25  1  0
 25 26  2  0
 26 27  1  0
 27 28  2  0
 28 29  1  0
 29 30  1  0
  6 31  1  0
 31 32  2  0
 32  3  1  0
 14 10  1  0
 28 23  1  0
  1 33  1  0
  1 34  1  0
  1 35  1  0
  4 36  1  0
  5 37  1  0
 11 38  1  0
 11 39  1  0
 12 40  1  0
 12 41  1  0
 14 42  1  0
 15 43  1  0
 15 44  1  0
 16 45  1  0
 21 46  1  0
 22 47  1  0
 22 48  1  0
 24 49  1  0
 25 50  1  0
 26 51  1  0
 27 52  1  0
 30 53  1  0
 30 54  1  0
 30 55  1  0
 31 56  1  0
 32 57  1  0
M  END
$$$$
