
     RDKit          3D

 57 60  0  0  0  0  0  0  0  0999 V2000
    9.0529    2.3884   -0.2700 C   0  0  0  0  0  0  0  0  0  0  0  0
    7.7362    2.0737    0.4281 C   0  0  0  0  0  0  0  0  0  0  0  0
    7.1704    0.9067   -0.1905 O   0  0  0  0  0  0  0  0  0  0  0  0
    5.9152    0.6662    0.3030 C   0  0  0  0  0  0  0  0  0  0  0  0
    4.8219    0.9030   -0.5246 C   0  0  0  0  0  0  0  0  0  0  0  0
    3.5260    0.6565   -0.0487 C   0  0  0  0  0  0  0  0  0  0  0  0
    3.3225    0.1575    1.2466 C   0  0  0  0  0  0  0  0  0  0  0  0
    1.9849   -0.0324    1.6561 N   0  0  0  0  0  0  0  0  0  0  0  0
    1.5312   -0.5815    2.8416 C   0  0  0  0  0  0  0  0  0  0  0  0
    2.2279   -1.0537    3.7391 O   0  0  0  0  0  0  0  0  0  0  0  0
    0.0175   -0.5215    2.9944 C   0  0  0  0  0  0  0  0  0  0  0  0
   -0.8026   -1.8001    1.9985 S   0  0  0  0  0  0  0  0  0  0  0  0
   -1.1302   -0.9221    0.5368 C   0  0  0  0  0  0  0  0  0  0  0  0
   -0.3597    0.0416    0.0852 N   0  0  0  0  0  0  0  0  0  0  0  0
   -0.8398    0.4224   -1.1364 N   0  0  0  0  0  0  0  0  0  0  0  0
   -1.9135   -0.3004   -1.4082 C   0  0  0  0  0  0  0  0  0  0  0  0
   -2.8264   -0.0327   -2.5623 C   0  0  0  0  0  0  0  0  0  0  0  0
   -4.1232    0.5994   -2.1438 C   0  0  0  0  0  0  0  0  0  0  0  0
   -5.3981    0.0515   -2.1284 C   0  0  0  0  0  0  0  0  0  0  0  0
   -6.2885    1.0377   -1.6472 C   0  0  0  0  0  0  0  0  0  0  0  0
   -5.5469    2.1709   -1.3929 C   0  0  0  0  0  0  0  0  0  0  0  0
   -4.2363    1.9041   -1.7017 N   0  0  0  0  0  0  0  0  0  0  0  0
   -3.1613    2.8682   -1.5662 C   0  0  0  0  0  0  0  0  0  0  0  0
   -2.1305   -1.2166   -0.3809 N   0  0  0  0  0  0  0  0  0  0  0  0
   -3.1642   -2.1861   -0.2873 C   0  0  0  0  0  0  0  0  0  0  0  0
   -3.4590   -3.0048   -1.3871 C   0  0  0  0  0  0  0  0  0  0  0  0
   -4.4915   -3.9410   -1.2986 C   0  0  0  0  0  0  0  0  0  0  0  0
   -5.2178   -4.0599   -0.1193 C   0  0  0  0  0  0  0  0  0  0  0  0
   -6.2105   -4.9564   -0.0416 F   0  0  0  0  0  0  0  0  0  0  0  0
   -4.9295   -3.2611    0.9789 C   0  0  0  0  0  0  0  0  0  0  0  0
   -3.8993   -2.3200    0.9009 C   0  0  0  0  0  0  0  0  0  0  0  0
    4.4333   -0.1032    2.0545 C   0  0  0  0  0  0  0  0  0  0  0  0
    5.7305    0.1372    1.5778 C   0  0  0  0  0  0  0  0  0  0  0  0
    9.7660    1.5639   -0.1344 H   0  0  0  0  0  0  0  0  0  0  0  0
    8.8928    2.5066   -1.3510 H   0  0  0  0  0  0  0  0  0  0  0  0
    9.4994    3.3129    0.1276 H   0  0  0  0  0  0  0  0  0  0  0  0
    7.0537    2.9306    0.3223 H   0  0  0  0  0  0  0  0  0  0  0  0
    7.9290    1.8888    1.4919 H   0  0  0  0  0  0  0  0  0  0  0  0
    4.9730    1.2873   -1.5289 H   0  0  0  0  0  0  0  0  0  0  0  0
    2.6803    0.8567   -0.7047 H   0  0  0  0  0  0  0  0  0  0  0  0
    1.2764    0.2078    0.9678 H   0  0  0  0  0  0  0  0  0  0  0  0
   -0.2245   -0.7067    4.0469 H   0  0  0  0  0  0  0  0  0  0  0  0
   -0.3463    0.4862    2.7572 H   0  0  0  0  0  0  0  0  0  0  0  0
   -2.3166    0.6371   -3.2673 H   0  0  0  0  0  0  0  0  0  0  0  0
   -3.0193   -0.9455   -3.1355 H   0  0  0  0  0  0  0  0  0  0  0  0
   -5.6617   -0.9586   -2.4259 H   0  0  0  0  0  0  0  0  0  0  0  0
   -7.3564    0.9363   -1.5051 H   0  0  0  0  0  0  0  0  0  0  0  0
   -5.8486    3.1422   -1.0206 H   0  0  0  0  0  0  0  0  0  0  0  0
   -2.5504    2.5893   -0.7023 H   0  0  0  0  0  0  0  0  0  0  0  0
   -3.5867    3.8688   -1.4110 H   0  0  0  0  0  0  0  0  0  0  0  0
   -2.5704    2.8634   -2.4868 H   0  0  0  0  0  0  0  0  0  0  0  0
   -2.8746   -2.9649   -2.3034 H   0  0  0  0  0  0  0  0  0  0  0  0
   -4.7334   -4.5839   -2.1372 H   0  0  0  0  0  0  0  0  0  0  0  0
   -5.5151   -3.3677    1.8875 H   0  0  0  0  0  0  0  0  0  0  0  0
   -3.7210   -1.6789    1.7614 H   0  0  0  0  0  0  0  0  0  0  0  0
    4.3271   -0.4796    3.0653 H   0  0  0  0  0  0  0  0  0  0  0  0
    6.5853   -0.0836    2.2088 H   0  0  0  0  0  0  0  0  0  0  0  0
  1  2  1  0
  2  3  1  0
  3  4  1  0
  4  5  2  0
  5  6  1  0
  6  7  2  0
  7  8  1  0
  8  9  1  0
  9 10  2  0
  9 11  1  0
 11 12  1  0
 12 13  1  0
 13 14  2  0
 14 15  1  0
 15 16  2  0
 16 17  1  0
 17 18  1  0
 18 19  2  0
 19 20  1  0
 20 21  2  0
 21 22  1  0
 22 23  1  0
 16 24  1  0
 24 25  1  0
 25 26  2  0
 26 27  1  0
 27 28  2  0
 28 29  1  0
 28 30  1  0
 30 31  2  0
  7 32  1  0
 32 33  2  0
 33  4  1  0
 24 13  1  0
 31 25  1  0
 22 18  1  0
  1 34  1  0
  1 35  1  0
  1 36  1  0
  2 37  1  0
  2 38  1  0
  5 39  1  0
  6 40  1  0
  8 41  1  0
 11 42  1  0
 11 43  1  0
 17 44  1  0
 17 45  1  0
 19 46  1  0
 20 47  1  0
 21 48  1  0
 23 49  1  0
 23 50  1  0
 23 51  1  0
 26 52  1  0
 27 53  1  0
 30 54  1  0
 31 55  1  0
 32 56  1  0
 33 57  1  0
M  END
$$$$
