
     RDKit          3D

125128  0  0  0  0  0  0  0  0999 V2000
    0.7398    7.2039   -1.1717 C   0  0  0  0  0  0  0  0  0  0  0  0
    0.0294    6.3020   -0.1705 C   0  0  0  0  0  0  0  0  0  0  0  0
   -0.4454    5.0065   -0.7888 C   0  0  0  0  0  0  0  0  0  0  0  0
   -1.6789    4.8896   -1.3177 C   0  0  0  0  0  0  0  0  0  0  0  0
   -2.3245    3.7143   -2.0318 C   0  0  0  0  0  0  0  0  0  0  0  0
   -2.7103    4.1882   -3.4357 C   0  0  0  0  0  0  0  0  0  0  0  0
   -3.5164    3.2364   -1.1673 C   0  0  0  0  0  0  0  0  0  0  0  0
   -4.2120    1.9041   -1.5456 C   0  0  0  0  0  0  0  0  0  0  0  0
   -4.9827    1.9954   -2.8689 C   0  0  0  0  0  0  0  0  0  0  0  0
   -5.2239    1.5037   -0.4385 C   0  0  0  0  0  0  0  0  0  0  0  0
   -4.6263    0.9010    0.8529 C   0  0  0  0  0  0  0  0  0  0  0  0
   -5.7016    0.9066    1.8114 O   0  0  0  0  0  0  0  0  0  0  0  0
   -5.2588    1.1666    3.1406 C   0  0  0  0  0  0  0  0  0  0  0  0
   -4.0592   -0.5350    0.6580 C   0  0  0  0  0  0  0  0  0  0  0  0
   -3.2802   -0.8418    1.8328 O   0  0  0  0  0  0  0  0  0  0  0  0
   -2.9000   -2.2078    2.0249 C   0  0  0  0  0  0  0  0  0  0  0  0
   -2.1610   -2.1835    3.2530 O   0  0  0  0  0  0  0  0  0  0  0  0
   -1.9432   -2.7293    0.8963 C   0  0  0  0  0  0  0  0  0  0  0  0
   -1.7664   -2.1604   -0.1785 O   0  0  0  0  0  0  0  0  0  0  0  0
   -1.1543   -4.0050    1.2397 C   0  0  0  0  0  0  0  0  0  0  0  0
   -1.4127   -4.5472    2.3146 O   0  0  0  0  0  0  0  0  0  0  0  0
   -0.1446   -4.4697    0.3823 N   0  0  0  0  0  0  0  0  0  0  0  0
    0.6961   -5.5720    0.8412 C   0  0  0  0  0  0  0  0  0  0  0  0
    2.1211   -5.4554    0.3139 C   0  0  0  0  0  0  0  0  0  0  0  0
    2.1806   -5.3788   -1.2124 C   0  0  0  0  0  0  0  0  0  0  0  0
    0.8357   -5.0182   -1.8415 C   0  0  0  0  0  0  0  0  0  0  0  0
    0.0584   -3.9877   -1.0066 C   0  0  0  0  0  0  0  0  0  0  0  0
    0.7798   -2.6257   -1.1242 C   0  0  0  0  0  0  0  0  0  0  0  0
    0.9300   -2.0378   -2.1901 O   0  0  0  0  0  0  0  0  0  0  0  0
    1.2453   -2.1942    0.0815 O   0  0  0  0  0  0  0  0  0  0  0  0
    1.9031   -0.9038    0.0968 C   0  0  0  0  0  0  0  0  0  0  0  0
    3.0766   -1.0185    1.0662 C   0  0  0  0  0  0  0  0  0  0  0  0
    2.7955   -1.5725    2.4438 C   0  0  0  0  0  0  0  0  0  0  0  0
    4.3573   -0.7073    0.7609 C   0  0  0  0  0  0  0  0  0  0  0  0
    4.9197   -0.1533   -0.5309 C   0  0  0  0  0  0  0  0  0  0  0  0
    5.8711   -1.1889   -1.1577 C   0  0  0  0  0  0  0  0  0  0  0  0
    6.9038   -0.5225   -2.0600 C   0  0  0  0  0  0  0  0  0  0  0  0
    7.8073    0.4270   -1.2626 C   0  0  0  0  0  0  0  0  0  0  0  0
    8.9389   -0.3149   -0.7841 O   0  0  0  0  0  0  0  0  0  0  0  0
    7.1045    1.0734   -0.0456 C   0  0  0  0  0  0  0  0  0  0  0  0
    7.6944    2.3688    0.1581 O   0  0  0  0  0  0  0  0  0  0  0  0
    7.5367    2.8501    1.4866 C   0  0  0  0  0  0  0  0  0  0  0  0
    5.6015    1.2099   -0.2962 C   0  0  0  0  0  0  0  0  0  0  0  0
    0.8263    0.1922    0.3484 C   0  0  0  0  0  0  0  0  0  0  0  0
    0.2165    0.1587    1.7539 C   0  0  0  0  0  0  0  0  0  0  0  0
    1.3219    1.6012   -0.0462 C   0  0  0  0  0  0  0  0  0  0  0  0
    2.3700    2.0264    0.8236 O   0  0  0  0  0  0  0  0  0  0  0  0
    0.1894    2.6350    0.0175 C   0  0  0  0  0  0  0  0  0  0  0  0
    0.5599    3.8972   -0.7390 C   0  0  0  0  0  0  0  0  0  0  0  0
    1.6968    4.0916   -1.1775 O   0  0  0  0  0  0  0  0  0  0  0  0
   -4.1695   -3.1053    2.1709 C   0  0  0  0  0  0  0  0  0  0  0  0
   -4.4482   -3.6169    3.5904 C   0  0  0  0  0  0  0  0  0  0  0  0
   -5.4356   -2.3901    1.6609 C   0  0  0  0  0  0  0  0  0  0  0  0
   -5.1500   -1.6001    0.3885 C   0  0  0  0  0  0  0  0  0  0  0  0
   -4.7056   -2.5808   -0.5711 O   0  0  0  0  0  0  0  0  0  0  0  0
   -4.7362   -2.1130   -1.9139 C   0  0  0  0  0  0  0  0  0  0  0  0
    1.0487    8.1355   -0.6851 H   0  0  0  0  0  0  0  0  0  0  0  0
    1.6369    6.7220   -1.5776 H   0  0  0  0  0  0  0  0  0  0  0  0
    0.0803    7.4605   -2.0077 H   0  0  0  0  0  0  0  0  0  0  0  0
    0.6960    6.0914    0.6753 H   0  0  0  0  0  0  0  0  0  0  0  0
   -0.8224    6.8468    0.2545 H   0  0  0  0  0  0  0  0  0  0  0  0
   -2.3179    5.7753   -1.2702 H   0  0  0  0  0  0  0  0  0  0  0  0
   -1.6059    2.8986   -2.1544 H   0  0  0  0  0  0  0  0  0  0  0  0
   -1.9419    4.8372   -3.8683 H   0  0  0  0  0  0  0  0  0  0  0  0
   -2.8071    3.3421   -4.1206 H   0  0  0  0  0  0  0  0  0  0  0  0
   -3.6541    4.7416   -3.4287 H   0  0  0  0  0  0  0  0  0  0  0  0
   -3.1451    3.1339   -0.1380 H   0  0  0  0  0  0  0  0  0  0  0  0
   -4.2730    4.0317   -1.1277 H   0  0  0  0  0  0  0  0  0  0  0  0
   -3.4523    1.1213   -1.6543 H   0  0  0  0  0  0  0  0  0  0  0  0
   -5.6003    2.8998   -2.9104 H   0  0  0  0  0  0  0  0  0  0  0  0
   -5.6418    1.1329   -3.0045 H   0  0  0  0  0  0  0  0  0  0  0  0
   -4.3066    1.9889   -3.7249 H   0  0  0  0  0  0  0  0  0  0  0  0
   -5.8204    2.3881   -0.1711 H   0  0  0  0  0  0  0  0  0  0  0  0
   -5.9587    0.7969   -0.8426 H   0  0  0  0  0  0  0  0  0  0  0  0
   -3.8261    1.5575    1.2167 H   0  0  0  0  0  0  0  0  0  0  0  0
   -6.1403    1.2403    3.7840 H   0  0  0  0  0  0  0  0  0  0  0  0
   -4.7217    2.1191    3.1880 H   0  0  0  0  0  0  0  0  0  0  0  0
   -4.6302    0.3580    3.5172 H   0  0  0  0  0  0  0  0  0  0  0  0
   -3.3562   -0.4785   -0.1728 H   0  0  0  0  0  0  0  0  0  0  0  0
   -1.9232   -3.1074    3.4633 H   0  0  0  0  0  0  0  0  0  0  0  0
    0.7159   -5.6000    1.9352 H   0  0  0  0  0  0  0  0  0  0  0  0
    0.2322   -6.5054    0.4965 H   0  0  0  0  0  0  0  0  0  0  0  0
    2.7250   -6.3006    0.6679 H   0  0  0  0  0  0  0  0  0  0  0  0
    2.5816   -4.5508    0.7369 H   0  0  0  0  0  0  0  0  0  0  0  0
    2.5254   -6.3356   -1.6258 H   0  0  0  0  0  0  0  0  0  0  0  0
    2.9378   -4.6357   -1.4981 H   0  0  0  0  0  0  0  0  0  0  0  0
    0.2340   -5.9345   -1.9382 H   0  0  0  0  0  0  0  0  0  0  0  0
    1.0006   -4.6535   -2.8626 H   0  0  0  0  0  0  0  0  0  0  0  0
   -0.9313   -3.8716   -1.4577 H   0  0  0  0  0  0  0  0  0  0  0  0
    2.3058   -0.7328   -0.9049 H   0  0  0  0  0  0  0  0  0  0  0  0
    2.4710   -0.7811    3.1236 H   0  0  0  0  0  0  0  0  0  0  0  0
    3.6833   -2.0351    2.8842 H   0  0  0  0  0  0  0  0  0  0  0  0
    2.0270   -2.3492    2.4194 H   0  0  0  0  0  0  0  0  0  0  0  0
    5.1098   -0.8480    1.5406 H   0  0  0  0  0  0  0  0  0  0  0  0
    4.1183    0.0355   -1.2507 H   0  0  0  0  0  0  0  0  0  0  0  0
    6.3988   -1.7653   -0.3844 H   0  0  0  0  0  0  0  0  0  0  0  0
    5.2852   -1.9167   -1.7349 H   0  0  0  0  0  0  0  0  0  0  0  0
    6.3761    0.0434   -2.8392 H   0  0  0  0  0  0  0  0  0  0  0  0
    7.5006   -1.2917   -2.5649 H   0  0  0  0  0  0  0  0  0  0  0  0
    8.2040    1.2008   -1.9331 H   0  0  0  0  0  0  0  0  0  0  0  0
    9.4844   -0.5362   -1.5582 H   0  0  0  0  0  0  0  0  0  0  0  0
    7.2876    0.4583    0.8442 H   0  0  0  0  0  0  0  0  0  0  0  0
    6.4812    3.0251    1.7178 H   0  0  0  0  0  0  0  0  0  0  0  0
    8.0662    3.8036    1.5662 H   0  0  0  0  0  0  0  0  0  0  0  0
    7.9713    2.1506    2.2083 H   0  0  0  0  0  0  0  0  0  0  0  0
    5.1145    1.7493    0.5216 H   0  0  0  0  0  0  0  0  0  0  0  0
    5.4505    1.8485   -1.1793 H   0  0  0  0  0  0  0  0  0  0  0  0
   -0.0045   -0.0462   -0.3311 H   0  0  0  0  0  0  0  0  0  0  0  0
   -0.7350    0.7019    1.7729 H   0  0  0  0  0  0  0  0  0  0  0  0
    0.8701    0.6284    2.4950 H   0  0  0  0  0  0  0  0  0  0  0  0
    0.0034   -0.8635    2.0766 H   0  0  0  0  0  0  0  0  0  0  0  0
    1.7330    1.5482   -1.0630 H   0  0  0  0  0  0  0  0  0  0  0  0
    2.7691    2.8103    0.3957 H   0  0  0  0  0  0  0  0  0  0  0  0
    0.0031    2.9307    1.0577 H   0  0  0  0  0  0  0  0  0  0  0  0
   -0.7190    2.2033   -0.4035 H   0  0  0  0  0  0  0  0  0  0  0  0
   -4.0300   -4.0011    1.5503 H   0  0  0  0  0  0  0  0  0  0  0  0
   -5.3757   -4.1990    3.6105 H   0  0  0  0  0  0  0  0  0  0  0  0
   -3.6496   -4.2767    3.9435 H   0  0  0  0  0  0  0  0  0  0  0  0
   -4.5559   -2.7886    4.2989 H   0  0  0  0  0  0  0  0  0  0  0  0
   -6.2074   -3.1436    1.4647 H   0  0  0  0  0  0  0  0  0  0  0  0
   -5.8340   -1.7216    2.4316 H   0  0  0  0  0  0  0  0  0  0  0  0
   -6.0871   -1.1674    0.0215 H   0  0  0  0  0  0  0  0  0  0  0  0
   -3.9561   -1.3678   -2.0890 H   0  0  0  0  0  0  0  0  0  0  0  0
   -4.5420   -2.9646   -2.5733 H   0  0  0  0  0  0  0  0  0  0  0  0
   -5.7164   -1.6998   -2.1646 H   0  0  0  0  0  0  0  0  0  0  0  0
  1  2  1  0
  2  3  1  0
  3  4  2  3
  4  5  1  0
  5  6  1  0
  5  7  1  0
  7  8  1  0
  8  9  1  0
  8 10  1  0
 10 11  1  0
 11 12  1  0
 12 13  1  0
 11 14  1  0
 14 15  1  0
 15 16  1  0
 16 17  1  0
 16 18  1  0
 18 19  2  0
 18 20  1  0
 20 21  2  0
 20 22  1  0
 22 23  1  0
 23 24  1  0
 24 25  1  0
 25 26  1  0
 26 27  1  0
 27 28  1  0
 28 29  2  0
 28 30  1  0
 30 31  1  0
 31 32  1  0
 32 33  1  0
 32 34  2  3
 34 35  1  0
 35 36  1  0
 36 37  1  0
 37 38  1  0
 38 39  1  0
 38 40  1  0
 40 41  1  0
 41 42  1  0
 40 43  1  0
 31 44  1  0
 44 45  1  0
 44 46  1  0
 46 47  1  0
 46 48  1  0
 48 49  1  0
 49 50  2  0
 16 51  1  0
 51 52  1  0
 51 53  1  0
 53 54  1  0
 54 55  1  0
 55 56  1  0
 49  3  1  0
 54 14  1  0
 27 22  1  0
 43 35  1  0
  1 57  1  0
  1 58  1  0
  1 59  1  0
  2 60  1  0
  2 61  1  0
  4 62  1  0
  5 63  1  0
  6 64  1  0
  6 65  1  0
  6 66  1  0
  7 67  1  0
  7 68  1  0
  8 69  1  0
  9 70  1  0
  9 71  1  0
  9 72  1  0
 10 73  1  0
 10 74  1  0
 11 75  1  0
 13 76  1  0
 13 77  1  0
 13 78  1  0
 14 79  1  0
 17 80  1  0
 23 81  1  0
 23 82  1  0
 24 83  1  0
 24 84  1  0
 25 85  1  0
 25 86  1  0
 26 87  1  0
 26 88  1  0
 27 89  1  0
 31 90  1  0
 33 91  1  0
 33 92  1  0
 33 93  1  0
 34 94  1  0
 35 95  1  0
 36 96  1  0
 36 97  1  0
 37 98  1  0
 37 99  1  0
 38100  1  0
 39101  1  0
 40102  1  0
 42103  1  0
 42104  1  0
 42105  1  0
 43106  1  0
 43107  1  0
 44108  1  0
 45109  1  0
 45110  1  0
 45111  1  0
 46112  1  0
 47113  1  0
 48114  1  0
 48115  1  0
 51116  1  0
 52117  1  0
 52118  1  0
 52119  1  0
 53120  1  0
 53121  1  0
 54122  1  0
 56123  1  0
 56124  1  0
 56125  1  0
M  END
$$$$
