
     RDKit          3D

 57 59  0  0  0  0  0  0  0  0999 V2000
   -6.5425   -3.4460    0.0289 C   0  0  0  0  0  0  0  0  0  0  0  0
   -5.8234   -2.5054    0.8142 O   0  0  0  0  0  0  0  0  0  0  0  0
   -4.9643   -1.6567    0.1624 C   0  0  0  0  0  0  0  0  0  0  0  0
   -4.6268   -1.7636   -1.1920 C   0  0  0  0  0  0  0  0  0  0  0  0
   -3.7265   -0.8657   -1.7676 C   0  0  0  0  0  0  0  0  0  0  0  0
   -3.1493    0.1312   -0.9808 C   0  0  0  0  0  0  0  0  0  0  0  0
   -2.0065    1.2863   -1.7108 S   0  0  0  0  0  6  0  0  0  0  0  0
   -2.1089    2.5208   -0.9640 O   0  0  0  0  0  0  0  0  0  0  0  0
   -2.2104    1.2550   -3.1431 O   0  0  0  0  0  0  0  0  0  0  0  0
   -0.5026    0.6240   -1.4023 N   0  0  0  0  0  0  0  0  0  0  0  0
   -0.0005    0.5115   -0.0300 C   0  0  0  0  0  0  0  0  0  0  0  0
    0.2580   -0.9709    0.1136 C   0  0  0  0  0  0  0  0  0  0  0  0
    0.6580   -1.3837   -1.1952 O   0  0  0  0  0  0  0  0  0  0  0  0
   -0.1147   -0.6021   -2.1243 C   0  0  0  0  0  0  0  0  0  0  0  0
    0.7323   -0.2579   -3.3722 C   0  0  0  0  0  0  0  0  0  0  0  0
    1.8086    0.6768   -3.0716 N   0  0  0  0  0  0  0  0  0  0  0  0
    3.0147    0.2323   -2.5791 C   0  0  0  0  0  0  0  0  0  0  0  0
    3.4652   -0.9023   -2.6612 O   0  0  0  0  0  0  0  0  0  0  0  0
    3.7958    1.3158   -1.8042 C   0  0  0  0  0  0  0  0  0  0  0  0
    3.3278    2.4384   -1.6802 O   0  0  0  0  0  0  0  0  0  0  0  0
    4.9684    0.8556   -1.2523 N   0  0  0  0  0  0  0  0  0  0  0  0
    5.6739    1.6075   -0.2481 C   0  0  0  0  0  0  0  0  0  0  0  0
    5.1440    1.2852    1.1284 C   0  0  0  0  0  0  0  0  0  0  0  0
    5.6777    0.2194    1.8697 C   0  0  0  0  0  0  0  0  0  0  0  0
    5.1582   -0.0948    3.1264 C   0  0  0  0  0  0  0  0  0  0  0  0
    4.1013    0.6489    3.6380 C   0  0  0  0  0  0  0  0  0  0  0  0
    3.6007    0.3432    4.8425 F   0  0  0  0  0  0  0  0  0  0  0  0
    3.5520    1.7018    2.9171 C   0  0  0  0  0  0  0  0  0  0  0  0
    4.0707    2.0184    1.6615 C   0  0  0  0  0  0  0  0  0  0  0  0
   -3.5072    0.2761    0.3638 C   0  0  0  0  0  0  0  0  0  0  0  0
   -4.4035   -0.6243    0.9451 C   0  0  0  0  0  0  0  0  0  0  0  0
   -4.7932   -0.5865    2.2607 O   0  0  0  0  0  0  0  0  0  0  0  0
   -4.3370    0.4961    3.0596 C   0  0  0  0  0  0  0  0  0  0  0  0
   -7.2198   -3.9882    0.6942 H   0  0  0  0  0  0  0  0  0  0  0  0
   -5.8666   -4.1792   -0.4257 H   0  0  0  0  0  0  0  0  0  0  0  0
   -7.1522   -2.9435   -0.7299 H   0  0  0  0  0  0  0  0  0  0  0  0
   -5.0494   -2.5356   -1.8269 H   0  0  0  0  0  0  0  0  0  0  0  0
   -3.4885   -0.9520   -2.8257 H   0  0  0  0  0  0  0  0  0  0  0  0
    0.9364    1.0770    0.0324 H   0  0  0  0  0  0  0  0  0  0  0  0
   -0.6743    0.8904    0.7395 H   0  0  0  0  0  0  0  0  0  0  0  0
   -0.6515   -1.5174    0.3858 H   0  0  0  0  0  0  0  0  0  0  0  0
    1.0438   -1.1980    0.8389 H   0  0  0  0  0  0  0  0  0  0  0  0
   -0.9749   -1.2115   -2.4147 H   0  0  0  0  0  0  0  0  0  0  0  0
    0.1098    0.2230   -4.1326 H   0  0  0  0  0  0  0  0  0  0  0  0
    1.1663   -1.1714   -3.7924 H   0  0  0  0  0  0  0  0  0  0  0  0
    1.5367    1.6086   -2.7654 H   0  0  0  0  0  0  0  0  0  0  0  0
    5.1260   -0.1457   -1.3333 H   0  0  0  0  0  0  0  0  0  0  0  0
    6.7353    1.3520   -0.3201 H   0  0  0  0  0  0  0  0  0  0  0  0
    5.5813    2.6808   -0.4466 H   0  0  0  0  0  0  0  0  0  0  0  0
    6.5005   -0.3703    1.4713 H   0  0  0  0  0  0  0  0  0  0  0  0
    5.5684   -0.9139    3.7087 H   0  0  0  0  0  0  0  0  0  0  0  0
    2.7267    2.2687    3.3356 H   0  0  0  0  0  0  0  0  0  0  0  0
    3.6326    2.8384    1.0926 H   0  0  0  0  0  0  0  0  0  0  0  0
   -3.0820    1.0944    0.9342 H   0  0  0  0  0  0  0  0  0  0  0  0
   -4.6727    1.4570    2.6554 H   0  0  0  0  0  0  0  0  0  0  0  0
   -3.2479    0.4702    3.1694 H   0  0  0  0  0  0  0  0  0  0  0  0
   -4.7741    0.3822    4.0564 H   0  0  0  0  0  0  0  0  0  0  0  0
  1  2  1  0
  2  3  1  0
  3  4  2  0
  4  5  1  0
  5  6  2  0
  6  7  1  0
  7  8  2  0
  7  9  2  0
  7 10  1  0
 10 11  1  0
 11 12  1  0
 12 13  1  0
 13 14  1  0
 14 15  1  0
 15 16  1  0
 16 17  1  0
 17 18  2  0
 17 19  1  0
 19 20  2  0
 19 21  1  0
 21 22  1  0
 22 23  1  0
 23 24  2  0
 24 25  1  0
 25 26  2  0
 26 27  1  0
 26 28  1  0
 28 29  2  0
  6 30  1  0
 30 31  2  0
 31 32  1  0
 32 33  1  0
 31  3  1  0
 14 10  1  0
 29 23  1  0
  1 34  1  0
  1 35  1  0
  1 36  1  0
  4 37  1  0
  5 38  1  0
 11 39  1  0
 11 40  1  0
 12 41  1  0
 12 42  1  0
 14 43  1  0
 15 44  1  0
 15 45  1  0
 16 46  1  0
 21 47  1  0
 22 48  1  0
 22 49  1  0
 24 50  1  0
 25 51  1  0
 28 52  1  0
 29 53  1  0
 30 54  1  0
 33 55  1  0
 33 56  1  0
 33 57  1  0
M  END
$$$$
