
     RDKit          3D

 24 24  0  0  0  0  0  0  0  0999 V2000
   -4.0492    0.6744    0.1665 C   0  0  0  0  0  0  0  0  0  0  0  0
   -2.7148    0.1222    0.0419 N   0  0  0  0  0  0  0  0  0  0  0  0
   -2.4073   -1.2059   -0.0360 C   0  0  0  0  0  0  0  0  0  0  0  0
   -3.5114   -2.4618    0.0151 S   0  0  0  0  0  0  0  0  0  0  0  0
   -1.0931   -1.5292   -0.2241 N   0  0  0  0  0  0  0  0  0  0  0  0
    0.0958   -0.8049   -0.0011 C   0  0  0  0  0  0  0  0  0  0  0  0
    0.1762    0.3470    0.7830 C   0  0  0  0  0  0  0  0  0  0  0  0
    1.4023    0.9960    0.9698 C   0  0  0  0  0  0  0  0  0  0  0  0
    2.5721    0.4884    0.3961 C   0  0  0  0  0  0  0  0  0  0  0  0
    3.8789    1.2034    0.5706 C   0  0  0  0  0  0  0  0  0  0  0  0
    2.4950   -0.6729   -0.3773 C   0  0  0  0  0  0  0  0  0  0  0  0
    1.2697   -1.3212   -0.5606 C   0  0  0  0  0  0  0  0  0  0  0  0
   -3.9586    1.7474    0.3524 H   0  0  0  0  0  0  0  0  0  0  0  0
   -4.5946    0.5079   -0.7663 H   0  0  0  0  0  0  0  0  0  0  0  0
   -4.5779    0.2027    0.9986 H   0  0  0  0  0  0  0  0  0  0  0  0
   -2.0415    0.7210   -0.4187 H   0  0  0  0  0  0  0  0  0  0  0  0
   -0.9688   -2.4942   -0.5122 H   0  0  0  0  0  0  0  0  0  0  0  0
   -0.6892    0.7401    1.3071 H   0  0  0  0  0  0  0  0  0  0  0  0
    1.4376    1.8933    1.5840 H   0  0  0  0  0  0  0  0  0  0  0  0
    4.0115    1.9401   -0.2276 H   0  0  0  0  0  0  0  0  0  0  0  0
    3.9173    1.7172    1.5369 H   0  0  0  0  0  0  0  0  0  0  0  0
    4.7166    0.4986    0.5446 H   0  0  0  0  0  0  0  0  0  0  0  0
    3.3886   -1.0849   -0.8411 H   0  0  0  0  0  0  0  0  0  0  0  0
    1.2447   -2.2247   -1.1648 H   0  0  0  0  0  0  0  0  0  0  0  0
  1  2  1  0
  2  3  1  0
  3  4  2  0
  3  5  1  0
  5  6  1  0
  6  7  2  0
  7  8  1  0
  8  9  2  0
  9 10  1  0
  9 11  1  0
 11 12  2  0
 12  6  1  0
  1 13  1  0
  1 14  1  0
  1 15  1  0
  2 16  1  0
  5 17  1  0
  7 18  1  0
  8 19  1  0
 10 20  1  0
 10 21  1  0
 10 22  1  0
 11 23  1  0
 12 24  1  0
M  END
$$$$
