
     RDKit          3D

 44 46  0  0  0  0  0  0  0  0999 V2000
   -1.0878   -2.4749    3.1434 C   0  0  0  0  0  0  0  0  0  0  0  0
   -1.4339   -1.3468    2.2084 C   0  0  0  0  0  0  0  0  0  0  0  0
   -2.6742   -1.3689    1.5461 C   0  0  0  0  0  0  0  0  0  0  0  0
   -3.0782   -0.3339    0.6832 C   0  0  0  0  0  0  0  0  0  0  0  0
   -4.4292   -0.4389    0.0335 C   0  0  0  0  0  0  0  0  0  0  0  0
   -2.1933    0.7364    0.4750 C   0  0  0  0  0  0  0  0  0  0  0  0
   -2.5606    2.0788   -0.6488 S   0  0  0  0  0  6  0  0  0  0  0  0
   -3.4889    1.6271   -1.6634 O   0  0  0  0  0  0  0  0  0  0  0  0
   -2.8528    3.2358    0.1709 O   0  0  0  0  0  0  0  0  0  0  0  0
   -1.0987    2.4135   -1.4074 N   0  0  0  0  0  0  0  0  0  0  0  0
   -0.3091    1.4340   -2.0761 C   0  0  0  0  0  0  0  0  0  0  0  0
   -0.8462    0.3222   -2.7256 C   0  0  0  0  0  0  0  0  0  0  0  0
   -0.0087   -0.5849   -3.3793 C   0  0  0  0  0  0  0  0  0  0  0  0
    1.3644   -0.3674   -3.4010 C   0  0  0  0  0  0  0  0  0  0  0  0
    2.1292   -1.2918   -4.0577 O   0  0  0  0  0  0  0  0  0  0  0  0
    1.9204    0.7568   -2.7834 C   0  0  0  0  0  0  0  0  0  0  0  0
    3.6761    1.0658   -2.8453 S   0  0  0  0  0  0  0  0  0  0  0  0
    4.1928    0.4787   -1.2849 C   0  0  0  0  0  0  0  0  0  0  0  0
    3.4565    0.5881   -0.1351 N   0  0  0  0  0  0  0  0  0  0  0  0
    4.2332    0.0392    0.7687 C   0  0  0  0  0  0  0  0  0  0  0  0
    5.3850   -0.3784    0.1829 N   0  0  0  0  0  0  0  0  0  0  0  0
    5.3851   -0.1042   -1.1303 N   0  0  0  0  0  0  0  0  0  0  0  0
    1.0703    1.6633   -2.1378 C   0  0  0  0  0  0  0  0  0  0  0  0
   -0.9672    0.7848    1.1613 C   0  0  0  0  0  0  0  0  0  0  0  0
   -0.5752   -0.2495    2.0244 C   0  0  0  0  0  0  0  0  0  0  0  0
    0.7468   -0.1529    2.7338 C   0  0  0  0  0  0  0  0  0  0  0  0
   -0.0511   -2.7962    3.0057 H   0  0  0  0  0  0  0  0  0  0  0  0
   -1.2328   -2.1585    4.1806 H   0  0  0  0  0  0  0  0  0  0  0  0
   -1.7156   -3.3505    2.9603 H   0  0  0  0  0  0  0  0  0  0  0  0
   -3.3455   -2.2118    1.7130 H   0  0  0  0  0  0  0  0  0  0  0  0
   -4.9758    0.5061    0.1140 H   0  0  0  0  0  0  0  0  0  0  0  0
   -5.0526   -1.1952    0.5275 H   0  0  0  0  0  0  0  0  0  0  0  0
   -4.3250   -0.7303   -1.0162 H   0  0  0  0  0  0  0  0  0  0  0  0
   -0.6445    3.2451   -1.0338 H   0  0  0  0  0  0  0  0  0  0  0  0
   -1.9143    0.1348   -2.7504 H   0  0  0  0  0  0  0  0  0  0  0  0
   -0.4305   -1.4541   -3.8780 H   0  0  0  0  0  0  0  0  0  0  0  0
    3.0576   -1.0040   -3.9854 H   0  0  0  0  0  0  0  0  0  0  0  0
    4.0249   -0.0796    1.8221 H   0  0  0  0  0  0  0  0  0  0  0  0
    6.1877   -0.8370    0.5984 H   0  0  0  0  0  0  0  0  0  0  0  0
    1.4963    2.5416   -1.6617 H   0  0  0  0  0  0  0  0  0  0  0  0
   -0.3030    1.6374    1.0240 H   0  0  0  0  0  0  0  0  0  0  0  0
    0.5903   -0.1028    3.8167 H   0  0  0  0  0  0  0  0  0  0  0  0
    1.3735   -1.0188    2.4924 H   0  0  0  0  0  0  0  0  0  0  0  0
    1.3044    0.7419    2.4355 H   0  0  0  0  0  0  0  0  0  0  0  0
  1  2  1  0
  2  3  2  0
  3  4  1  0
  4  5  1  0
  4  6  2  0
  6  7  1  0
  7  8  2  0
  7  9  2  0
  7 10  1  0
 10 11  1  0
 11 12  2  0
 12 13  1  0
 13 14  2  0
 14 15  1  0
 14 16  1  0
 16 17  1  0
 17 18  1  0
 18 19  1  0
 19 20  2  0
 20 21  1  0
 21 22  1  0
 16 23  2  0
  6 24  1  0
 24 25  2  0
 25 26  1  0
 25  2  1  0
 23 11  1  0
 22 18  2  0
  1 27  1  0
  1 28  1  0
  1 29  1  0
  3 30  1  0
  5 31  1  0
  5 32  1  0
  5 33  1  0
 10 34  1  0
 12 35  1  0
 13 36  1  0
 15 37  1  0
 20 38  1  0
 21 39  1  0
 23 40  1  0
 24 41  1  0
 26 42  1  0
 26 43  1  0
 26 44  1  0
M  END
$$$$
