
     RDKit          3D

114117  0  0  0  0  0  0  0  0999 V2000
    0.2225   -6.5048   -0.9420 C   0  0  0  0  0  0  0  0  0  0  0  0
    0.9405   -5.1742   -1.1944 C   0  0  0  0  0  0  0  0  0  0  0  0
    0.7263   -4.7587   -2.6577 C   0  0  0  0  0  0  0  0  0  0  0  0
    0.4433   -4.1077   -0.1892 C   0  0  0  0  0  0  0  0  0  0  0  0
   -0.7969   -3.5713   -0.6833 O   0  0  0  0  0  0  0  0  0  0  0  0
   -1.5077   -2.8259    0.2126 C   0  0  0  0  0  0  0  0  0  0  0  0
   -1.2873   -2.8061    1.4162 O   0  0  0  0  0  0  0  0  0  0  0  0
   -2.6492   -2.0927   -0.5166 C   0  0  0  0  0  0  0  0  0  0  0  0
   -3.7016   -3.1299   -0.9616 C   0  0  0  0  0  0  0  0  0  0  0  0
   -4.8343   -2.5824   -1.7986 C   0  0  0  0  0  0  0  0  0  0  0  0
   -4.5841   -1.8770   -2.9832 C   0  0  0  0  0  0  0  0  0  0  0  0
   -5.6412   -1.4108   -3.7665 C   0  0  0  0  0  0  0  0  0  0  0  0
   -6.9564   -1.6337   -3.3705 C   0  0  0  0  0  0  0  0  0  0  0  0
   -7.2173   -2.3376   -2.1947 C   0  0  0  0  0  0  0  0  0  0  0  0
   -6.1643   -2.8151   -1.4143 C   0  0  0  0  0  0  0  0  0  0  0  0
   -3.2267   -0.9714    0.2779 N   0  0  0  0  0  0  0  0  0  0  0  0
   -3.7414   -1.2645    1.6085 C   0  0  0  0  0  0  0  0  0  0  0  0
   -2.9900    0.3271   -0.1702 C   0  0  0  0  0  0  0  0  0  0  0  0
   -2.4551    0.5471   -1.2620 O   0  0  0  0  0  0  0  0  0  0  0  0
   -3.4564    1.5204    0.6959 C   0  0  0  0  0  0  0  0  0  0  0  0
   -4.6899    2.2031    0.0563 C   0  0  0  0  0  0  0  0  0  0  0  0
   -5.8788    1.2539   -0.1091 C   0  0  0  0  0  0  0  0  0  0  0  0
   -5.1242    3.4153    0.8871 C   0  0  0  0  0  0  0  0  0  0  0  0
   -2.3791    2.4870    0.6965 O   0  0  0  0  0  0  0  0  0  0  0  0
   -1.3819    2.2394    1.5955 C   0  0  0  0  0  0  0  0  0  0  0  0
   -1.4548    1.3963    2.4801 O   0  0  0  0  0  0  0  0  0  0  0  0
   -0.1960    3.1857    1.3498 C   0  0  0  0  0  0  0  0  0  0  0  0
   -0.5945    4.6325    1.7093 C   0  0  0  0  0  0  0  0  0  0  0  0
    0.5222    5.6400    1.5138 C   0  0  0  0  0  0  0  0  0  0  0  0
    1.0331    5.8866    0.2321 C   0  0  0  0  0  0  0  0  0  0  0  0
    2.0790    6.7952    0.0520 C   0  0  0  0  0  0  0  0  0  0  0  0
    2.6233    7.4633    1.1480 C   0  0  0  0  0  0  0  0  0  0  0  0
    2.1190    7.2286    2.4242 C   0  0  0  0  0  0  0  0  0  0  0  0
    1.0729    6.3229    2.6076 C   0  0  0  0  0  0  0  0  0  0  0  0
    1.0378    2.7202    2.0336 N   0  0  0  0  0  0  0  0  0  0  0  0
    1.0550    2.6945    3.4913 C   0  0  0  0  0  0  0  0  0  0  0  0
    1.9333    1.9627    1.2725 C   0  0  0  0  0  0  0  0  0  0  0  0
    1.7574    1.7630    0.0688 O   0  0  0  0  0  0  0  0  0  0  0  0
    3.2109    1.4286    1.9685 C   0  0  0  0  0  0  0  0  0  0  0  0
    4.3093    2.5209    1.9545 C   0  0  0  0  0  0  0  0  0  0  0  0
    5.4402    2.1523    2.9192 C   0  0  0  0  0  0  0  0  0  0  0  0
    4.8945    2.7509    0.5570 C   0  0  0  0  0  0  0  0  0  0  0  0
    3.7185    0.2434    1.3293 O   0  0  0  0  0  0  0  0  0  0  0  0
    3.0016   -0.8880    1.5899 C   0  0  0  0  0  0  0  0  0  0  0  0
    2.0824   -0.9338    2.4003 O   0  0  0  0  0  0  0  0  0  0  0  0
    3.6152   -2.1342    0.9222 C   0  0  0  0  0  0  0  0  0  0  0  0
    4.6111   -1.9193   -0.2400 C   0  0  0  0  0  0  0  0  0  0  0  0
    4.0895   -1.7405   -1.6434 C   0  0  0  0  0  0  0  0  0  0  0  0
    4.1474   -2.8044   -2.5598 C   0  0  0  0  0  0  0  0  0  0  0  0
    3.7036   -2.6384   -3.8739 C   0  0  0  0  0  0  0  0  0  0  0  0
    3.1753   -1.4152   -4.2809 C   0  0  0  0  0  0  0  0  0  0  0  0
    3.1064   -0.3564   -3.3798 C   0  0  0  0  0  0  0  0  0  0  0  0
    3.5706   -0.5121   -2.0723 C   0  0  0  0  0  0  0  0  0  0  0  0
    2.6441   -3.2388    0.7309 N   0  0  0  0  0  0  0  0  0  0  0  0
    2.9144   -4.4628    1.4696 C   0  0  0  0  0  0  0  0  0  0  0  0
    1.4881   -2.9793    0.0032 C   0  0  0  0  0  0  0  0  0  0  0  0
    1.2705   -1.8641   -0.4716 O   0  0  0  0  0  0  0  0  0  0  0  0
    0.4354   -6.8715    0.0663 H   0  0  0  0  0  0  0  0  0  0  0  0
    0.5575   -7.2739   -1.6489 H   0  0  0  0  0  0  0  0  0  0  0  0
   -0.8631   -6.4034   -1.0370 H   0  0  0  0  0  0  0  0  0  0  0  0
    2.0127   -5.3529   -1.0535 H   0  0  0  0  0  0  0  0  0  0  0  0
    1.2363   -5.4591   -3.3304 H   0  0  0  0  0  0  0  0  0  0  0  0
   -0.3376   -4.7650   -2.9216 H   0  0  0  0  0  0  0  0  0  0  0  0
    1.1199   -3.7589   -2.8463 H   0  0  0  0  0  0  0  0  0  0  0  0
    0.2541   -4.5746    0.7852 H   0  0  0  0  0  0  0  0  0  0  0  0
   -2.1781   -1.6696   -1.4113 H   0  0  0  0  0  0  0  0  0  0  0  0
   -3.2202   -3.9181   -1.5523 H   0  0  0  0  0  0  0  0  0  0  0  0
   -4.1052   -3.6408   -0.0784 H   0  0  0  0  0  0  0  0  0  0  0  0
   -3.5667   -1.6868   -3.3085 H   0  0  0  0  0  0  0  0  0  0  0  0
   -5.4306   -0.8636   -4.6826 H   0  0  0  0  0  0  0  0  0  0  0  0
   -7.7794   -1.2640   -3.9761 H   0  0  0  0  0  0  0  0  0  0  0  0
   -8.2453   -2.5231   -1.8902 H   0  0  0  0  0  0  0  0  0  0  0  0
   -6.3906   -3.3720   -0.5054 H   0  0  0  0  0  0  0  0  0  0  0  0
   -4.6424   -0.6739    1.7956 H   0  0  0  0  0  0  0  0  0  0  0  0
   -2.9833   -1.0116    2.3578 H   0  0  0  0  0  0  0  0  0  0  0  0
   -4.0167   -2.3181    1.6999 H   0  0  0  0  0  0  0  0  0  0  0  0
   -3.6944    1.2414    1.7234 H   0  0  0  0  0  0  0  0  0  0  0  0
   -4.4096    2.5769   -0.9388 H   0  0  0  0  0  0  0  0  0  0  0  0
   -6.2249    0.8752    0.8566 H   0  0  0  0  0  0  0  0  0  0  0  0
   -5.6188    0.4031   -0.7434 H   0  0  0  0  0  0  0  0  0  0  0  0
   -6.7187    1.7667   -0.5884 H   0  0  0  0  0  0  0  0  0  0  0  0
   -5.9803    3.9184    0.4263 H   0  0  0  0  0  0  0  0  0  0  0  0
   -5.4158    3.1146    1.8973 H   0  0  0  0  0  0  0  0  0  0  0  0
   -4.3174    4.1530    0.9760 H   0  0  0  0  0  0  0  0  0  0  0  0
   -0.0134    3.1512    0.2669 H   0  0  0  0  0  0  0  0  0  0  0  0
   -1.4450    4.9466    1.0871 H   0  0  0  0  0  0  0  0  0  0  0  0
   -0.9680    4.6871    2.7405 H   0  0  0  0  0  0  0  0  0  0  0  0
    0.6231    5.3723   -0.6383 H   0  0  0  0  0  0  0  0  0  0  0  0
    2.4710    6.9737   -0.9468 H   0  0  0  0  0  0  0  0  0  0  0  0
    3.4351    8.1700    1.0024 H   0  0  0  0  0  0  0  0  0  0  0  0
    2.5385    7.7488    3.2776 H   0  0  0  0  0  0  0  0  0  0  0  0
    0.6910    6.1521    3.6098 H   0  0  0  0  0  0  0  0  0  0  0  0
    2.0376    3.0135    3.8478 H   0  0  0  0  0  0  0  0  0  0  0  0
    0.3120    3.3701    3.9083 H   0  0  0  0  0  0  0  0  0  0  0  0
    0.8609    1.6761    3.8383 H   0  0  0  0  0  0  0  0  0  0  0  0
    2.9922    1.1818    3.0137 H   0  0  0  0  0  0  0  0  0  0  0  0
    3.8758    3.4688    2.2963 H   0  0  0  0  0  0  0  0  0  0  0  0
    5.9232    1.2147    2.6346 H   0  0  0  0  0  0  0  0  0  0  0  0
    5.0603    2.0488    3.9418 H   0  0  0  0  0  0  0  0  0  0  0  0
    6.2059    2.9345    2.9291 H   0  0  0  0  0  0  0  0  0  0  0  0
    5.3631    1.8443    0.1594 H   0  0  0  0  0  0  0  0  0  0  0  0
    5.6540    3.5371    0.5860 H   0  0  0  0  0  0  0  0  0  0  0  0
    4.1222    3.0717   -0.1507 H   0  0  0  0  0  0  0  0  0  0  0  0
    4.2715   -2.4777    1.7369 H   0  0  0  0  0  0  0  0  0  0  0  0
    5.2850   -2.7903   -0.2561 H   0  0  0  0  0  0  0  0  0  0  0  0
    5.2745   -1.0729   -0.0191 H   0  0  0  0  0  0  0  0  0  0  0  0
    4.5525   -3.7664   -2.2620 H   0  0  0  0  0  0  0  0  0  0  0  0
    3.7424   -3.4669   -4.5725 H   0  0  0  0  0  0  0  0  0  0  0  0
    2.8210   -1.2850   -5.2974 H   0  0  0  0  0  0  0  0  0  0  0  0
    2.6883    0.5981   -3.6855 H   0  0  0  0  0  0  0  0  0  0  0  0
    3.4922    0.3283   -1.3820 H   0  0  0  0  0  0  0  0  0  0  0  0
    2.1671   -5.2394    1.3170 H   0  0  0  0  0  0  0  0  0  0  0  0
    3.8913   -4.8483    1.1599 H   0  0  0  0  0  0  0  0  0  0  0  0
    2.9477   -4.2210    2.5397 H   0  0  0  0  0  0  0  0  0  0  0  0
  1  2  1  0
  2  3  1  0
  2  4  1  0
  4  5  1  0
  5  6  1  0
  6  7  2  0
  6  8  1  0
  8  9  1  0
  9 10  1  0
 10 11  2  0
 11 12  1  0
 12 13  2  0
 13 14  1  0
 14 15  2  0
  8 16  1  0
 16 17  1  0
 16 18  1  0
 18 19  2  0
 18 20  1  0
 20 21  1  0
 21 22  1  0
 21 23  1  0
 20 24  1  0
 24 25  1  0
 25 26  2  0
 25 27  1  0
 27 28  1  0
 28 29  1  0
 29 30  2  0
 30 31  1  0
 31 32  2  0
 32 33  1  0
 33 34  2  0
 27 35  1  0
 35 36  1  0
 35 37  1  0
 37 38  2  0
 37 39  1  0
 39 40  1  0
 40 41  1  0
 40 42  1  0
 39 43  1  0
 43 44  1  0
 44 45  2  0
 44 46  1  0
 46 47  1  0
 47 48  1  0
 48 49  2  0
 49 50  1  0
 50 51  2  0
 51 52  1  0
 52 53  2  0
 46 54  1  0
 54 55  1  0
 54 56  1  0
 56 57  2  0
 56  4  1  0
 15 10  1  0
 34 29  1  0
 53 48  1  0
  1 58  1  0
  1 59  1  0
  1 60  1  0
  2 61  1  0
  3 62  1  0
  3 63  1  0
  3 64  1  0
  4 65  1  0
  8 66  1  0
  9 67  1  0
  9 68  1  0
 11 69  1  0
 12 70  1  0
 13 71  1  0
 14 72  1  0
 15 73  1  0
 17 74  1  0
 17 75  1  0
 17 76  1  0
 20 77  1  0
 21 78  1  0
 22 79  1  0
 22 80  1  0
 22 81  1  0
 23 82  1  0
 23 83  1  0
 23 84  1  0
 27 85  1  0
 28 86  1  0
 28 87  1  0
 30 88  1  0
 31 89  1  0
 32 90  1  0
 33 91  1  0
 34 92  1  0
 36 93  1  0
 36 94  1  0
 36 95  1  0
 39 96  1  0
 40 97  1  0
 41 98  1  0
 41 99  1  0
 41100  1  0
 42101  1  0
 42102  1  0
 42103  1  0
 46104  1  0
 47105  1  0
 47106  1  0
 49107  1  0
 50108  1  0
 51109  1  0
 52110  1  0
 53111  1  0
 55112  1  0
 55113  1  0
 55114  1  0
M  END
$$$$
