
     RDKit          3D

 55 58  0  0  0  0  0  0  0  0999 V2000
    2.3290   -3.7884    0.2812 O   0  0  0  0  0  0  0  0  0  0  0  0
    1.4591   -3.3910    1.0600 C   0  0  0  0  0  0  0  0  0  0  0  0
    0.1025   -4.0624    1.1760 C   0  0  0  0  0  0  0  0  0  0  0  0
   -1.1251   -3.2095    0.1376 S   0  0  0  0  0  0  0  0  0  0  0  0
   -1.3682   -1.7837    1.0845 C   0  0  0  0  0  0  0  0  0  0  0  0
   -1.2180   -1.7280    2.3876 N   0  0  0  0  0  0  0  0  0  0  0  0
   -1.2798   -0.4112    2.7534 N   0  0  0  0  0  0  0  0  0  0  0  0
   -1.4895    0.3188    1.6685 C   0  0  0  0  0  0  0  0  0  0  0  0
   -1.4763    1.7791    1.6310 C   0  0  0  0  0  0  0  0  0  0  0  0
   -0.3009    2.4458    2.0083 C   0  0  0  0  0  0  0  0  0  0  0  0
   -0.2368    3.8408    1.9985 C   0  0  0  0  0  0  0  0  0  0  0  0
   -1.3500    4.5857    1.6160 C   0  0  0  0  0  0  0  0  0  0  0  0
   -2.5286    3.9387    1.2423 C   0  0  0  0  0  0  0  0  0  0  0  0
   -2.5888    2.5430    1.2534 C   0  0  0  0  0  0  0  0  0  0  0  0
   -3.7509    1.9176    0.8941 O   0  0  0  0  0  0  0  0  0  0  0  0
   -1.5884   -0.5304    0.5804 N   0  0  0  0  0  0  0  0  0  0  0  0
   -1.6461   -0.1435   -0.8194 C   0  0  0  0  0  0  0  0  0  0  0  0
   -2.8542   -0.6754   -1.5626 C   0  0  0  0  0  0  0  0  0  0  0  0
   -4.1258   -0.7626   -0.9749 C   0  0  0  0  0  0  0  0  0  0  0  0
   -5.2209   -1.2256   -1.7080 C   0  0  0  0  0  0  0  0  0  0  0  0
   -5.0633   -1.5966   -3.0411 C   0  0  0  0  0  0  0  0  0  0  0  0
   -3.8110   -1.5035   -3.6436 C   0  0  0  0  0  0  0  0  0  0  0  0
   -2.7155   -1.0414   -2.9115 C   0  0  0  0  0  0  0  0  0  0  0  0
    1.6538   -2.3113    1.9123 N   0  0  0  0  0  0  0  0  0  0  0  0
    2.7536   -1.4749    1.6177 N   0  0  0  0  0  0  0  0  0  0  0  0
    2.5538   -0.4820    0.6722 C   0  0  0  0  0  0  0  0  0  0  0  0
    1.4663   -0.0747    0.2779 O   0  0  0  0  0  0  0  0  0  0  0  0
    3.7965    0.0234    0.0674 C   0  0  0  0  0  0  0  0  0  0  0  0
    4.3455   -0.6872   -1.0066 C   0  0  0  0  0  0  0  0  0  0  0  0
    5.5209   -0.2308   -1.6034 C   0  0  0  0  0  0  0  0  0  0  0  0
    6.1376    0.9299   -1.1301 C   0  0  0  0  0  0  0  0  0  0  0  0
    5.5840    1.6393   -0.0590 C   0  0  0  0  0  0  0  0  0  0  0  0
    4.4107    1.1831    0.5421 C   0  0  0  0  0  0  0  0  0  0  0  0
    3.8747    1.8599    1.6002 O   0  0  0  0  0  0  0  0  0  0  0  0
    0.2034   -5.0922    0.8185 H   0  0  0  0  0  0  0  0  0  0  0  0
   -0.2141   -4.1165    2.2219 H   0  0  0  0  0  0  0  0  0  0  0  0
    0.5762    1.8705    2.3052 H   0  0  0  0  0  0  0  0  0  0  0  0
    0.6822    4.3406    2.2952 H   0  0  0  0  0  0  0  0  0  0  0  0
   -1.2998    5.6715    1.6121 H   0  0  0  0  0  0  0  0  0  0  0  0
   -3.3867    4.5365    0.9492 H   0  0  0  0  0  0  0  0  0  0  0  0
   -4.4401    2.5873    0.7544 H   0  0  0  0  0  0  0  0  0  0  0  0
   -1.6350    0.9465   -0.9022 H   0  0  0  0  0  0  0  0  0  0  0  0
   -0.7202   -0.5099   -1.2796 H   0  0  0  0  0  0  0  0  0  0  0  0
   -4.2797   -0.4792    0.0647 H   0  0  0  0  0  0  0  0  0  0  0  0
   -6.1961   -1.2986   -1.2340 H   0  0  0  0  0  0  0  0  0  0  0  0
   -5.9154   -1.9592   -3.6095 H   0  0  0  0  0  0  0  0  0  0  0  0
   -3.6858   -1.7909   -4.6842 H   0  0  0  0  0  0  0  0  0  0  0  0
   -1.7464   -0.9742   -3.4026 H   0  0  0  0  0  0  0  0  0  0  0  0
    0.8337   -1.8255    2.2929 H   0  0  0  0  0  0  0  0  0  0  0  0
    3.6582   -1.9421    1.6349 H   0  0  0  0  0  0  0  0  0  0  0  0
    3.8574   -1.5872   -1.3764 H   0  0  0  0  0  0  0  0  0  0  0  0
    5.9550   -0.7771   -2.4377 H   0  0  0  0  0  0  0  0  0  0  0  0
    7.0538    1.2833   -1.5995 H   0  0  0  0  0  0  0  0  0  0  0  0
    6.0841    2.5370    0.2924 H   0  0  0  0  0  0  0  0  0  0  0  0
    4.3657    2.6881    1.7311 H   0  0  0  0  0  0  0  0  0  0  0  0
  1  2  2  0
  2  3  1  0
  3  4  1  0
  4  5  1  0
  5  6  2  0
  6  7  1  0
  7  8  2  0
  8  9  1  0
  9 10  2  0
 10 11  1  0
 11 12  2  0
 12 13  1  0
 13 14  2  0
 14 15  1  0
  8 16  1  0
 16 17  1  0
 17 18  1  0
 18 19  2  0
 19 20  1  0
 20 21  2  0
 21 22  1  0
 22 23  2  0
  2 24  1  0
 24 25  1  0
 25 26  1  0
 26 27  2  0
 26 28  1  0
 28 29  2  0
 29 30  1  0
 30 31  2  0
 31 32  1  0
 32 33  2  0
 33 34  1  0
 16  5  1  0
 23 18  1  0
 33 28  1  0
 14  9  1  0
  3 35  1  0
  3 36  1  0
 10 37  1  0
 11 38  1  0
 12 39  1  0
 13 40  1  0
 15 41  1  0
 17 42  1  0
 17 43  1  0
 19 44  1  0
 20 45  1  0
 21 46  1  0
 22 47  1  0
 23 48  1  0
 24 49  1  0
 25 50  1  0
 29 51  1  0
 30 52  1  0
 31 53  1  0
 32 54  1  0
 34 55  1  0
M  END
$$$$
