
     RDKit          3D

 40 42  0  0  0  0  0  0  0  0999 V2000
    2.3268    5.2593    0.5892 C   0  0  0  0  0  0  0  0  0  0  0  0
    1.8722    3.8108    0.5439 C   0  0  0  0  0  0  0  0  0  0  0  0
    0.0717    3.7376    0.2723 S   0  0  0  0  0  0  0  0  0  0  0  0
   -0.1946    1.9696    0.2864 C   0  0  0  0  0  0  0  0  0  0  0  0
   -1.4841    1.4984    0.1736 C   0  0  0  0  0  0  0  0  0  0  0  0
   -1.6642    0.1297    0.1772 C   0  0  0  0  0  0  0  0  0  0  0  0
   -2.9582   -0.4061    0.0774 N   0  0  0  0  0  0  0  0  0  0  0  0
   -3.7128   -0.0134   -1.1353 C   0  0  0  0  0  0  0  0  0  0  0  0
   -3.3111   -0.8848   -2.3382 C   0  0  0  0  0  0  0  0  0  0  0  0
   -3.5070   -2.2805   -2.0579 O   0  0  0  0  0  0  0  0  0  0  0  0
   -2.7074   -2.6800   -0.9300 C   0  0  0  0  0  0  0  0  0  0  0  0
   -3.0593   -1.8633    0.3259 C   0  0  0  0  0  0  0  0  0  0  0  0
   -0.6134   -0.6937    0.3187 N   0  0  0  0  0  0  0  0  0  0  0  0
    0.6160   -0.1538    0.4219 C   0  0  0  0  0  0  0  0  0  0  0  0
    1.7637   -1.0747    0.5608 C   0  0  0  0  0  0  0  0  0  0  0  0
    1.5850   -2.4710    0.6202 C   0  0  0  0  0  0  0  0  0  0  0  0
    2.6700   -3.3444    0.7504 C   0  0  0  0  0  0  0  0  0  0  0  0
    3.9647   -2.8404    0.8248 C   0  0  0  0  0  0  0  0  0  0  0  0
    4.1745   -1.4662    0.7696 C   0  0  0  0  0  0  0  0  0  0  0  0
    3.0867   -0.5963    0.6394 C   0  0  0  0  0  0  0  0  0  0  0  0
    0.8686    1.1632    0.4005 N   0  0  0  0  0  0  0  0  0  0  0  0
    2.1125    5.7781   -0.3514 H   0  0  0  0  0  0  0  0  0  0  0  0
    1.8461    5.8066    1.4073 H   0  0  0  0  0  0  0  0  0  0  0  0
    3.4088    5.3045    0.7524 H   0  0  0  0  0  0  0  0  0  0  0  0
    2.1224    3.3201    1.4900 H   0  0  0  0  0  0  0  0  0  0  0  0
    2.3891    3.2919   -0.2698 H   0  0  0  0  0  0  0  0  0  0  0  0
   -2.3242    2.1773    0.1133 H   0  0  0  0  0  0  0  0  0  0  0  0
   -4.7773   -0.1751   -0.9237 H   0  0  0  0  0  0  0  0  0  0  0  0
   -3.6011    1.0478   -1.3807 H   0  0  0  0  0  0  0  0  0  0  0  0
   -3.9361   -0.6327   -3.2006 H   0  0  0  0  0  0  0  0  0  0  0  0
   -2.2656   -0.7197   -2.6240 H   0  0  0  0  0  0  0  0  0  0  0  0
   -1.6498   -2.5896   -1.1999 H   0  0  0  0  0  0  0  0  0  0  0  0
   -2.9088   -3.7401   -0.7458 H   0  0  0  0  0  0  0  0  0  0  0  0
   -4.1038   -2.0714    0.5912 H   0  0  0  0  0  0  0  0  0  0  0  0
   -2.4565   -2.1772    1.1865 H   0  0  0  0  0  0  0  0  0  0  0  0
    0.5832   -2.8936    0.5662 H   0  0  0  0  0  0  0  0  0  0  0  0
    2.4997   -4.4170    0.7937 H   0  0  0  0  0  0  0  0  0  0  0  0
    4.8087   -3.5175    0.9261 H   0  0  0  0  0  0  0  0  0  0  0  0
    5.1836   -1.0664    0.8276 H   0  0  0  0  0  0  0  0  0  0  0  0
    3.2813    0.4742    0.5986 H   0  0  0  0  0  0  0  0  0  0  0  0
  1  2  1  0
  2  3  1  0
  3  4  1  0
  4  5  2  0
  5  6  1  0
  6  7  1  0
  7  8  1  0
  8  9  1  0
  9 10  1  0
 10 11  1  0
 11 12  1  0
  6 13  2  0
 13 14  1  0
 14 15  1  0
 15 16  2  0
 16 17  1  0
 17 18  2  0
 18 19  1  0
 19 20  2  0
 14 21  2  0
 21  4  1  0
 12  7  1  0
 20 15  1  0
  1 22  1  0
  1 23  1  0
  1 24  1  0
  2 25  1  0
  2 26  1  0
  5 27  1  0
  8 28  1  0
  8 29  1  0
  9 30  1  0
  9 31  1  0
 11 32  1  0
 11 33  1  0
 12 34  1  0
 12 35  1  0
 16 36  1  0
 17 37  1  0
 18 38  1  0
 19 39  1  0
 20 40  1  0
M  END
$$$$
