
     RDKit          3D

 36 38  0  0  0  0  0  0  0  0999 V2000
   -5.7468    0.4389    0.0985 C   0  0  0  0  0  0  0  0  0  0  0  0
   -4.2686    0.7023    0.0374 C   0  0  0  0  0  0  0  0  0  0  0  0
   -3.7956    2.0186   -0.1086 C   0  0  0  0  0  0  0  0  0  0  0  0
   -2.4286    2.2787   -0.2006 C   0  0  0  0  0  0  0  0  0  0  0  0
   -1.5490    1.2079   -0.1526 C   0  0  0  0  0  0  0  0  0  0  0  0
   -1.9917   -0.1252   -0.0197 C   0  0  0  0  0  0  0  0  0  0  0  0
   -3.3592   -0.3705    0.0684 C   0  0  0  0  0  0  0  0  0  0  0  0
   -0.9460   -1.0755    0.0095 N   0  0  0  0  0  0  0  0  0  0  0  0
   -1.2828   -2.4876   -0.0550 C   0  0  0  0  0  0  0  0  0  0  0  0
    0.3027   -0.4753   -0.1652 C   0  0  0  0  0  0  0  0  0  0  0  0
    1.4916   -1.1038   -0.2337 C   0  0  0  0  0  0  0  0  0  0  0  0
    2.7899   -0.4482   -0.4167 C   0  0  0  0  0  0  0  0  0  0  0  0
    3.3032   -0.2921   -1.7099 C   0  0  0  0  0  0  0  0  0  0  0  0
    4.5230    0.3426   -1.9016 C   0  0  0  0  0  0  0  0  0  0  0  0
    5.2159    0.8187   -0.8002 C   0  0  0  0  0  0  0  0  0  0  0  0
    4.6799    0.6470    0.4699 C   0  0  0  0  0  0  0  0  0  0  0  0
    3.4954    0.0154    0.6520 N   0  0  0  0  0  4  0  0  0  0  0  0
    2.9773   -0.1323    2.0277 C   0  0  0  0  0  0  0  0  0  0  0  0
    0.2304    1.3104   -0.2762 S   0  0  0  0  0  0  0  0  0  0  0  0
   -6.2752    1.2809    0.5578 H   0  0  0  0  0  0  0  0  0  0  0  0
   -6.1399    0.2815   -0.9105 H   0  0  0  0  0  0  0  0  0  0  0  0
   -5.9602   -0.4475    0.7051 H   0  0  0  0  0  0  0  0  0  0  0  0
   -4.4985    2.8491   -0.1540 H   0  0  0  0  0  0  0  0  0  0  0  0
   -2.0707    3.2967   -0.3150 H   0  0  0  0  0  0  0  0  0  0  0  0
   -3.7432   -1.3813    0.1630 H   0  0  0  0  0  0  0  0  0  0  0  0
   -0.4050   -3.1270    0.0771 H   0  0  0  0  0  0  0  0  0  0  0  0
   -1.7296   -2.7349   -1.0243 H   0  0  0  0  0  0  0  0  0  0  0  0
   -1.9822   -2.7641    0.7418 H   0  0  0  0  0  0  0  0  0  0  0  0
    1.5488   -2.1854   -0.1713 H   0  0  0  0  0  0  0  0  0  0  0  0
    2.7457   -0.6533   -2.5730 H   0  0  0  0  0  0  0  0  0  0  0  0
    4.9240    0.4732   -2.9057 H   0  0  0  0  0  0  0  0  0  0  0  0
    6.1690    1.3276   -0.9303 H   0  0  0  0  0  0  0  0  0  0  0  0
    5.1973    1.0174    1.3509 H   0  0  0  0  0  0  0  0  0  0  0  0
    2.1499    0.5681    2.1581 H   0  0  0  0  0  0  0  0  0  0  0  0
    3.7688    0.0960    2.7465 H   0  0  0  0  0  0  0  0  0  0  0  0
    2.6601   -1.1674    2.1772 H   0  0  0  0  0  0  0  0  0  0  0  0
  1  2  1  0
  2  3  2  0
  3  4  1  0
  4  5  2  0
  5  6  1  0
  6  7  2  0
  6  8  1  0
  8  9  1  0
  8 10  1  0
 10 11  2  3
 11 12  1  0
 12 13  2  0
 13 14  1  0
 14 15  2  0
 15 16  1  0
 16 17  2  0
 17 18  1  0
 10 19  1  0
  7  2  1  0
 17 12  1  0
 19  5  1  0
  1 20  1  0
  1 21  1  0
  1 22  1  0
  3 23  1  0
  4 24  1  0
  7 25  1  0
  9 26  1  0
  9 27  1  0
  9 28  1  0
 11 29  1  0
 13 30  1  0
 14 31  1  0
 15 32  1  0
 16 33  1  0
 18 34  1  0
 18 35  1  0
 18 36  1  0
M  CHG  1  17   1
M  END
$$$$
