
     RDKit          3D

 57 60  0  0  0  0  0  0  0  0999 V2000
    7.7364    3.7271   -0.7200 C   0  0  0  0  0  0  0  0  0  0  0  0
    6.9052    2.4641   -0.6275 C   0  0  0  0  0  0  0  0  0  0  0  0
    5.7161    2.7739    0.0941 O   0  0  0  0  0  0  0  0  0  0  0  0
    4.8531    1.7374    0.3361 C   0  0  0  0  0  0  0  0  0  0  0  0
    3.6886    2.1073    1.0171 C   0  0  0  0  0  0  0  0  0  0  0  0
    2.7283    1.1494    1.3544 C   0  0  0  0  0  0  0  0  0  0  0  0
    2.9226   -0.2015    1.0168 C   0  0  0  0  0  0  0  0  0  0  0  0
    1.9493   -1.1214    1.4604 N   0  0  0  0  0  0  0  0  0  0  0  0
    1.9227   -2.4927    1.2604 C   0  0  0  0  0  0  0  0  0  0  0  0
    2.6582   -3.1297    0.4991 O   0  0  0  0  0  0  0  0  0  0  0  0
    0.8713   -3.2027    2.0974 C   0  0  0  0  0  0  0  0  0  0  0  0
   -0.6876   -3.3623    1.1886 S   0  0  0  0  0  0  0  0  0  0  0  0
   -1.3354   -1.7591    1.3347 C   0  0  0  0  0  0  0  0  0  0  0  0
   -0.8078   -0.8159    2.0859 N   0  0  0  0  0  0  0  0  0  0  0  0
   -1.6305    0.2710    2.0351 N   0  0  0  0  0  0  0  0  0  0  0  0
   -2.6636   -0.0247    1.2692 C   0  0  0  0  0  0  0  0  0  0  0  0
   -3.7063    0.9614    0.8442 C   0  0  0  0  0  0  0  0  0  0  0  0
   -3.7367    1.2017   -0.6412 C   0  0  0  0  0  0  0  0  0  0  0  0
   -4.7492    0.9129   -1.5449 C   0  0  0  0  0  0  0  0  0  0  0  0
   -4.3009    1.2824   -2.8304 C   0  0  0  0  0  0  0  0  0  0  0  0
   -3.0335    1.7994   -2.6893 C   0  0  0  0  0  0  0  0  0  0  0  0
   -2.7062    1.7784   -1.3561 N   0  0  0  0  0  0  0  0  0  0  0  0
   -1.4663    2.2969   -0.8151 C   0  0  0  0  0  0  0  0  0  0  0  0
   -2.5451   -1.3372    0.8147 N   0  0  0  0  0  0  0  0  0  0  0  0
   -3.4601   -2.0653    0.0093 C   0  0  0  0  0  0  0  0  0  0  0  0
   -4.8159   -2.1132    0.3615 C   0  0  0  0  0  0  0  0  0  0  0  0
   -5.7139   -2.8327   -0.4378 C   0  0  0  0  0  0  0  0  0  0  0  0
   -5.2572   -3.4833   -1.5780 C   0  0  0  0  0  0  0  0  0  0  0  0
   -6.1258   -4.1649   -2.3382 F   0  0  0  0  0  0  0  0  0  0  0  0
   -3.9137   -3.4352   -1.9361 C   0  0  0  0  0  0  0  0  0  0  0  0
   -3.0042   -2.7333   -1.1310 C   0  0  0  0  0  0  0  0  0  0  0  0
    4.0755   -0.5609    0.3191 C   0  0  0  0  0  0  0  0  0  0  0  0
    5.0339    0.4056   -0.0228 C   0  0  0  0  0  0  0  0  0  0  0  0
    8.6591    3.5519   -1.2855 H   0  0  0  0  0  0  0  0  0  0  0  0
    8.0024    4.0851    0.2827 H   0  0  0  0  0  0  0  0  0  0  0  0
    7.1648    4.5258   -1.2015 H   0  0  0  0  0  0  0  0  0  0  0  0
    7.4941    1.7006   -0.1004 H   0  0  0  0  0  0  0  0  0  0  0  0
    6.6515    2.1159   -1.6374 H   0  0  0  0  0  0  0  0  0  0  0  0
    3.5346    3.1480    1.2961 H   0  0  0  0  0  0  0  0  0  0  0  0
    1.8364    1.4697    1.8924 H   0  0  0  0  0  0  0  0  0  0  0  0
    1.1612   -0.7279    1.9647 H   0  0  0  0  0  0  0  0  0  0  0  0
    0.7319   -2.7021    3.0643 H   0  0  0  0  0  0  0  0  0  0  0  0
    1.2508   -4.2062    2.3201 H   0  0  0  0  0  0  0  0  0  0  0  0
   -3.5217    1.9216    1.3500 H   0  0  0  0  0  0  0  0  0  0  0  0
   -4.6849    0.6352    1.2041 H   0  0  0  0  0  0  0  0  0  0  0  0
   -5.7080    0.4659   -1.3020 H   0  0  0  0  0  0  0  0  0  0  0  0
   -4.8401    1.1794   -3.7595 H   0  0  0  0  0  0  0  0  0  0  0  0
   -2.3500    2.1901   -3.4289 H   0  0  0  0  0  0  0  0  0  0  0  0
   -0.9777    2.9363   -1.5669 H   0  0  0  0  0  0  0  0  0  0  0  0
   -1.6929    2.8930    0.0750 H   0  0  0  0  0  0  0  0  0  0  0  0
   -0.8158    1.4550   -0.5668 H   0  0  0  0  0  0  0  0  0  0  0  0
   -5.1857   -1.6387    1.2689 H   0  0  0  0  0  0  0  0  0  0  0  0
   -6.7619   -2.8923   -0.1719 H   0  0  0  0  0  0  0  0  0  0  0  0
   -3.5800   -3.9275   -2.8502 H   0  0  0  0  0  0  0  0  0  0  0  0
   -1.9588   -2.6827   -1.4383 H   0  0  0  0  0  0  0  0  0  0  0  0
    4.2736   -1.5994    0.0400 H   0  0  0  0  0  0  0  0  0  0  0  0
    5.9158    0.0703   -0.5503 H   0  0  0  0  0  0  0  0  0  0  0  0
  1  2  1  0
  2  3  1  0
  3  4  1  0
  4  5  2  0
  5  6  1  0
  6  7  2  0
  7  8  1  0
  8  9  1  0
  9 10  2  0
  9 11  1  0
 11 12  1  0
 12 13  1  0
 13 14  2  0
 14 15  1  0
 15 16  2  0
 16 17  1  0
 17 18  1  0
 18 19  2  0
 19 20  1  0
 20 21  2  0
 21 22  1  0
 22 23  1  0
 16 24  1  0
 24 25  1  0
 25 26  2  0
 26 27  1  0
 27 28  2  0
 28 29  1  0
 28 30  1  0
 30 31  2  0
  7 32  1  0
 32 33  2  0
 33  4  1  0
 24 13  1  0
 31 25  1  0
 22 18  1  0
  1 34  1  0
  1 35  1  0
  1 36  1  0
  2 37  1  0
  2 38  1  0
  5 39  1  0
  6 40  1  0
  8 41  1  0
 11 42  1  0
 11 43  1  0
 17 44  1  0
 17 45  1  0
 19 46  1  0
 20 47  1  0
 21 48  1  0
 23 49  1  0
 23 50  1  0
 23 51  1  0
 26 52  1  0
 27 53  1  0
 30 54  1  0
 31 55  1  0
 32 56  1  0
 33 57  1  0
M  END
$$$$
