
     RDKit          3D

 56 58  0  0  0  0  0  0  0  0999 V2000
    9.5023    2.6871   -2.2339 C   0  0  0  0  0  0  0  0  0  0  0  0
    8.0501    2.3514   -1.9404 C   0  0  0  0  0  0  0  0  0  0  0  0
    8.0090    1.6409   -0.7042 O   0  0  0  0  0  0  0  0  0  0  0  0
    6.7749    1.3209   -0.2108 C   0  0  0  0  0  0  0  0  0  0  0  0
    5.5506    1.5709   -0.8295 C   0  0  0  0  0  0  0  0  0  0  0  0
    4.3516    1.2007   -0.2047 C   0  0  0  0  0  0  0  0  0  0  0  0
    4.3618    0.5719    1.0421 C   0  0  0  0  0  0  0  0  0  0  0  0
    3.1997    0.1882    1.7434 N   0  0  0  0  0  0  0  0  0  0  0  0
    1.8814    0.3688    1.3578 C   0  0  0  0  0  0  0  0  0  0  0  0
    1.4869    0.8597    0.3057 O   0  0  0  0  0  0  0  0  0  0  0  0
    0.9163   -0.1117    2.4249 C   0  0  0  0  0  0  0  0  0  0  0  0
   -0.5249    0.1467    2.0116 C   0  0  0  0  0  0  0  0  0  0  0  0
   -1.4368   -0.2409    3.0916 N   0  0  0  0  0  0  0  0  0  0  0  0
   -2.2444   -1.7009    3.0516 S   0  0  0  0  0  6  0  0  0  0  0  0
   -2.8554   -1.8576    4.3524 O   0  0  0  0  0  0  0  0  0  0  0  0
   -1.3523   -2.6957    2.5026 O   0  0  0  0  0  0  0  0  0  0  0  0
   -3.5384   -1.3711    1.8847 C   0  0  0  0  0  0  0  0  0  0  0  0
   -4.6835   -0.6945    2.3048 C   0  0  0  0  0  0  0  0  0  0  0  0
   -5.7055   -0.4224    1.3876 C   0  0  0  0  0  0  0  0  0  0  0  0
   -5.5985   -0.8243    0.0449 C   0  0  0  0  0  0  0  0  0  0  0  0
   -4.4551   -1.5227   -0.3455 C   0  0  0  0  0  0  0  0  0  0  0  0
   -3.4245   -1.8061    0.5658 C   0  0  0  0  0  0  0  0  0  0  0  0
   -4.3217   -1.9585   -1.7448 C   0  0  0  0  0  0  0  0  0  0  0  0
   -3.3155   -2.5764   -2.0804 O   0  0  0  0  0  0  0  0  0  0  0  0
   -5.3562   -1.6269   -2.6048 N   0  0  0  0  0  0  0  0  0  0  0  0
   -5.2469   -2.0214   -3.9987 C   0  0  0  0  0  0  0  0  0  0  0  0
   -6.4960   -0.9156   -2.2486 C   0  0  0  0  0  0  0  0  0  0  0  0
   -7.3638   -0.6382   -3.0814 O   0  0  0  0  0  0  0  0  0  0  0  0
   -6.6058   -0.5333   -0.9141 N   0  0  0  0  0  0  0  0  0  0  0  0
   -7.7958    0.2079   -0.5107 C   0  0  0  0  0  0  0  0  0  0  0  0
    5.5925    0.3149    1.6547 C   0  0  0  0  0  0  0  0  0  0  0  0
    6.7884    0.6873    1.0320 C   0  0  0  0  0  0  0  0  0  0  0  0
    9.9322    3.2917   -1.4269 H   0  0  0  0  0  0  0  0  0  0  0  0
    9.5927    3.2364   -3.1742 H   0  0  0  0  0  0  0  0  0  0  0  0
   10.1050    1.7763   -2.2974 H   0  0  0  0  0  0  0  0  0  0  0  0
    7.6591    1.7274   -2.7481 H   0  0  0  0  0  0  0  0  0  0  0  0
    7.4769    3.2818   -1.8700 H   0  0  0  0  0  0  0  0  0  0  0  0
    5.4839    2.0573   -1.7989 H   0  0  0  0  0  0  0  0  0  0  0  0
    3.4230    1.4256   -0.7236 H   0  0  0  0  0  0  0  0  0  0  0  0
    3.3569   -0.2648    2.6362 H   0  0  0  0  0  0  0  0  0  0  0  0
    1.1388    0.4169    3.3602 H   0  0  0  0  0  0  0  0  0  0  0  0
    1.0801   -1.1818    2.5917 H   0  0  0  0  0  0  0  0  0  0  0  0
   -0.7641   -0.3845    1.0838 H   0  0  0  0  0  0  0  0  0  0  0  0
   -0.6812    1.2130    1.8087 H   0  0  0  0  0  0  0  0  0  0  0  0
   -1.4075    0.2319    3.9937 H   0  0  0  0  0  0  0  0  0  0  0  0
   -4.7871   -0.3718    3.3393 H   0  0  0  0  0  0  0  0  0  0  0  0
   -6.5767    0.1131    1.7565 H   0  0  0  0  0  0  0  0  0  0  0  0
   -2.5412   -2.3523    0.2386 H   0  0  0  0  0  0  0  0  0  0  0  0
   -6.1450   -2.5778   -4.2881 H   0  0  0  0  0  0  0  0  0  0  0  0
   -4.3699   -2.6442   -4.1931 H   0  0  0  0  0  0  0  0  0  0  0  0
   -5.1851   -1.1183   -4.6155 H   0  0  0  0  0  0  0  0  0  0  0  0
   -8.4808    0.3829   -1.3469 H   0  0  0  0  0  0  0  0  0  0  0  0
   -7.4997    1.1861   -0.1178 H   0  0  0  0  0  0  0  0  0  0  0  0
   -8.3371   -0.3630    0.2509 H   0  0  0  0  0  0  0  0  0  0  0  0
    5.6465   -0.1720    2.6248 H   0  0  0  0  0  0  0  0  0  0  0  0
    7.7353    0.4910    1.5270 H   0  0  0  0  0  0  0  0  0  0  0  0
  1  2  1  0
  2  3  1  0
  3  4  1  0
  4  5  2  0
  5  6  1  0
  6  7  2  0
  7  8  1  0
  8  9  1  0
  9 10  2  0
  9 11  1  0
 11 12  1  0
 12 13  1  0
 13 14  1  0
 14 15  2  0
 14 16  2  0
 14 17  1  0
 17 18  2  0
 18 19  1  0
 19 20  2  0
 20 21  1  0
 21 22  2  0
 21 23  1  0
 23 24  2  0
 23 25  1  0
 25 26  1  0
 25 27  1  0
 27 28  2  0
 27 29  1  0
 29 30  1  0
  7 31  1  0
 31 32  2  0
 32  4  1  0
 22 17  1  0
 29 20  1  0
  1 33  1  0
  1 34  1  0
  1 35  1  0
  2 36  1  0
  2 37  1  0
  5 38  1  0
  6 39  1  0
  8 40  1  0
 11 41  1  0
 11 42  1  0
 12 43  1  0
 12 44  1  0
 13 45  1  0
 18 46  1  0
 19 47  1  0
 22 48  1  0
 26 49  1  0
 26 50  1  0
 26 51  1  0
 30 52  1  0
 30 53  1  0
 30 54  1  0
 31 55  1  0
 32 56  1  0
M  END
$$$$
