
     RDKit          3D

 53 56  0  0  0  0  0  0  0  0999 V2000
   -7.8917   -1.3555    1.3255 C   0  0  0  0  0  0  0  0  0  0  0  0
   -8.1917   -0.6076    0.1521 O   0  0  0  0  0  0  0  0  0  0  0  0
   -7.2558    0.3002   -0.2621 C   0  0  0  0  0  0  0  0  0  0  0  0
   -7.6007    1.0078   -1.4156 C   0  0  0  0  0  0  0  0  0  0  0  0
   -6.7367    1.9632   -1.9505 C   0  0  0  0  0  0  0  0  0  0  0  0
   -5.5112    2.2200   -1.3343 C   0  0  0  0  0  0  0  0  0  0  0  0
   -5.1508    1.5171   -0.1776 C   0  0  0  0  0  0  0  0  0  0  0  0
   -3.8488    1.7411    0.5248 C   0  0  0  0  0  0  0  0  0  0  0  0
   -3.6453    1.1637    1.5917 O   0  0  0  0  0  0  0  0  0  0  0  0
   -2.8192    2.6672   -0.1279 C   0  0  0  0  0  0  0  0  0  0  0  0
   -1.5904    2.8087    0.5692 O   0  0  0  0  0  0  0  0  0  0  0  0
   -0.6577    1.8175    0.4617 C   0  0  0  0  0  0  0  0  0  0  0  0
   -0.8085    0.6051   -0.2075 C   0  0  0  0  0  0  0  0  0  0  0  0
    0.2378   -0.3325   -0.2270 C   0  0  0  0  0  0  0  0  0  0  0  0
    1.4546   -0.0825    0.4231 C   0  0  0  0  0  0  0  0  0  0  0  0
    2.5928   -1.0249    0.4398 C   0  0  0  0  0  0  0  0  0  0  0  0
    2.4154   -2.3152   -0.3198 C   0  0  0  0  0  0  0  0  0  0  0  0
    3.7169   -0.6875    1.1139 C   0  0  0  0  0  0  0  0  0  0  0  0
    4.9630   -1.5448    1.2270 C   0  0  0  0  0  0  0  0  0  0  0  0
    5.9983   -1.2510    0.1603 C   0  0  0  0  0  0  0  0  0  0  0  0
    6.0974   -2.0492   -0.9877 C   0  0  0  0  0  0  0  0  0  0  0  0
    7.0492   -1.7681   -1.9712 C   0  0  0  0  0  0  0  0  0  0  0  0
    7.9117   -0.6845   -1.8216 C   0  0  0  0  0  0  0  0  0  0  0  0
    7.8259    0.1166   -0.6859 C   0  0  0  0  0  0  0  0  0  0  0  0
    6.8767   -0.1653    0.2988 C   0  0  0  0  0  0  0  0  0  0  0  0
    3.7997    0.5868    1.8874 C   0  0  0  0  0  0  0  0  0  0  0  0
    4.7583    0.8529    2.6050 O   0  0  0  0  0  0  0  0  0  0  0  0
    2.7437    1.4728    1.7780 O   0  0  0  0  0  0  0  0  0  0  0  0
    1.5755    1.1340    1.0835 C   0  0  0  0  0  0  0  0  0  0  0  0
    0.5466    2.0788    1.1105 C   0  0  0  0  0  0  0  0  0  0  0  0
   -6.0318    0.5589    0.3553 C   0  0  0  0  0  0  0  0  0  0  0  0
   -6.9946   -1.9675    1.1847 H   0  0  0  0  0  0  0  0  0  0  0  0
   -7.7921   -0.6994    2.1968 H   0  0  0  0  0  0  0  0  0  0  0  0
   -8.7305   -2.0338    1.5118 H   0  0  0  0  0  0  0  0  0  0  0  0
   -8.5552    0.8114   -1.8995 H   0  0  0  0  0  0  0  0  0  0  0  0
   -7.0241    2.5064   -2.8476 H   0  0  0  0  0  0  0  0  0  0  0  0
   -4.8684    2.9748   -1.7774 H   0  0  0  0  0  0  0  0  0  0  0  0
   -2.6375    2.3736   -1.1673 H   0  0  0  0  0  0  0  0  0  0  0  0
   -3.2636    3.6682   -0.1452 H   0  0  0  0  0  0  0  0  0  0  0  0
   -1.7301    0.3378   -0.7132 H   0  0  0  0  0  0  0  0  0  0  0  0
    0.0633   -1.2641   -0.7584 H   0  0  0  0  0  0  0  0  0  0  0  0
    2.2358   -2.1160   -1.3829 H   0  0  0  0  0  0  0  0  0  0  0  0
    1.5693   -2.8838    0.0832 H   0  0  0  0  0  0  0  0  0  0  0  0
    3.2780   -2.9805   -0.2703 H   0  0  0  0  0  0  0  0  0  0  0  0
    5.4313   -1.4315    2.2139 H   0  0  0  0  0  0  0  0  0  0  0  0
    4.7091   -2.6110    1.2037 H   0  0  0  0  0  0  0  0  0  0  0  0
    5.4392   -2.9027   -1.1290 H   0  0  0  0  0  0  0  0  0  0  0  0
    7.1176   -2.3970   -2.8547 H   0  0  0  0  0  0  0  0  0  0  0  0
    8.6517   -0.4660   -2.5870 H   0  0  0  0  0  0  0  0  0  0  0  0
    8.4978    0.9620   -0.5637 H   0  0  0  0  0  0  0  0  0  0  0  0
    6.8334    0.4715    1.1804 H   0  0  0  0  0  0  0  0  0  0  0  0
    0.6835    3.0142    1.6476 H   0  0  0  0  0  0  0  0  0  0  0  0
   -5.7373    0.0262    1.2553 H   0  0  0  0  0  0  0  0  0  0  0  0
  1  2  1  0
  2  3  1  0
  3  4  2  0
  4  5  1  0
  5  6  2  0
  6  7  1  0
  7  8  1  0
  8  9  2  0
  8 10  1  0
 10 11  1  0
 11 12  1  0
 12 13  2  0
 13 14  1  0
 14 15  2  0
 15 16  1  0
 16 17  1  0
 16 18  2  0
 18 19  1  0
 19 20  1  0
 20 21  2  0
 21 22  1  0
 22 23  2  0
 23 24  1  0
 24 25  2  0
 18 26  1  0
 26 27  2  0
 26 28  1  0
 28 29  1  0
 29 30  2  0
  7 31  2  0
 31  3  1  0
 30 12  1  0
 29 15  1  0
 25 20  1  0
  1 32  1  0
  1 33  1  0
  1 34  1  0
  4 35  1  0
  5 36  1  0
  6 37  1  0
 10 38  1  0
 10 39  1  0
 13 40  1  0
 14 41  1  0
 17 42  1  0
 17 43  1  0
 17 44  1  0
 19 45  1  0
 19 46  1  0
 21 47  1  0
 22 48  1  0
 23 49  1  0
 24 50  1  0
 25 51  1  0
 30 52  1  0
 31 53  1  0
M  END
$$$$
