
     RDKit          3D

 34 36  0  0  0  0  0  0  0  0999 V2000
    0.6980    2.1543   -0.5438 O   0  0  0  0  0  0  0  0  0  0  0  0
    0.7102    0.9853   -0.1827 C   0  0  0  0  0  0  0  0  0  0  0  0
    2.0047    0.3555    0.1457 C   0  0  0  0  0  0  0  0  0  0  0  0
    2.8126    0.9486    1.1212 C   0  0  0  0  0  0  0  0  0  0  0  0
    4.0478    0.3783    1.4359 C   0  0  0  0  0  0  0  0  0  0  0  0
    4.4726   -0.7688    0.7640 C   0  0  0  0  0  0  0  0  0  0  0  0
    5.9937   -1.4715    1.1537 Cl  0  0  0  0  0  0  0  0  0  0  0  0
    3.6780   -1.3472   -0.2275 C   0  0  0  0  0  0  0  0  0  0  0  0
    2.4418   -0.7803   -0.5449 C   0  0  0  0  0  0  0  0  0  0  0  0
   -0.4356    0.2443   -0.0509 N   0  0  0  0  0  0  0  0  0  0  0  0
   -0.5976   -1.0848    0.5562 C   0  0  0  0  0  0  0  0  0  0  0  0
   -1.0318   -1.9923   -0.5681 C   0  0  0  0  0  0  0  0  0  0  0  0
   -2.2933   -1.6640   -0.8967 C   0  0  0  0  0  0  0  0  0  0  0  0
   -2.6710   -0.4749   -0.0272 C   0  0  0  0  0  0  0  0  0  0  0  0
   -1.9530   -0.9516    1.2517 C   0  0  0  0  0  0  0  0  0  0  0  0
   -1.8086    0.7824   -0.4317 C   0  0  0  0  0  0  0  0  0  0  0  0
   -2.0024    1.1496   -1.9026 C   0  0  0  0  0  0  0  0  0  0  0  0
   -1.4221    2.3087   -2.2679 F   0  0  0  0  0  0  0  0  0  0  0  0
   -1.5086    0.2011   -2.7382 F   0  0  0  0  0  0  0  0  0  0  0  0
   -3.3225    1.2610   -2.1986 F   0  0  0  0  0  0  0  0  0  0  0  0
   -2.2868    2.0171    0.3358 C   0  0  0  0  0  0  0  0  0  0  0  0
   -3.6262    2.1821    0.1893 F   0  0  0  0  0  0  0  0  0  0  0  0
   -1.7103    3.1747   -0.0333 F   0  0  0  0  0  0  0  0  0  0  0  0
   -2.0746    1.8925    1.6702 F   0  0  0  0  0  0  0  0  0  0  0  0
    2.4844    1.8534    1.6287 H   0  0  0  0  0  0  0  0  0  0  0  0
    4.6755    0.8364    2.1961 H   0  0  0  0  0  0  0  0  0  0  0  0
    4.0220   -2.2291   -0.7622 H   0  0  0  0  0  0  0  0  0  0  0  0
    1.8378   -1.2111   -1.3393 H   0  0  0  0  0  0  0  0  0  0  0  0
    0.2230   -1.4390    1.1793 H   0  0  0  0  0  0  0  0  0  0  0  0
   -0.4286   -2.7624   -1.0247 H   0  0  0  0  0  0  0  0  0  0  0  0
   -2.8935   -2.1003   -1.6825 H   0  0  0  0  0  0  0  0  0  0  0  0
   -3.7458   -0.3208    0.0822 H   0  0  0  0  0  0  0  0  0  0  0  0
   -1.9496   -0.2258    2.0670 H   0  0  0  0  0  0  0  0  0  0  0  0
   -2.3404   -1.9012    1.6456 H   0  0  0  0  0  0  0  0  0  0  0  0
  1  2  2  0
  2  3  1  0
  3  4  2  0
  4  5  1  0
  5  6  2  0
  6  7  1  0
  6  8  1  0
  8  9  2  0
  2 10  1  0
 10 11  1  0
 11 12  1  0
 12 13  2  0
 13 14  1  0
 14 15  1  0
 14 16  1  0
 16 17  1  0
 17 18  1  0
 17 19  1  0
 17 20  1  0
 16 21  1  0
 21 22  1  0
 21 23  1  0
 21 24  1  0
  9  3  1  0
 16 10  1  0
 15 11  1  0
  4 25  1  0
  5 26  1  0
  8 27  1  0
  9 28  1  0
 11 29  1  0
 12 30  1  0
 13 31  1  0
 14 32  1  0
 15 33  1  0
 15 34  1  0
M  END
$$$$
