
     RDKit          3D

 38 40  0  0  0  0  0  0  0  0999 V2000
   -1.5464    1.7898   -3.1370 C   0  0  0  0  0  0  0  0  0  0  0  0
   -1.4564    0.9509   -1.8940 C   0  0  0  0  0  0  0  0  0  0  0  0
   -2.5073    0.0780   -1.5790 C   0  0  0  0  0  0  0  0  0  0  0  0
   -2.4481   -0.7320   -0.4437 C   0  0  0  0  0  0  0  0  0  0  0  0
   -3.5344   -1.5354   -0.2306 O   0  0  0  0  0  0  0  0  0  0  0  0
   -1.3324   -0.7073    0.4003 C   0  0  0  0  0  0  0  0  0  0  0  0
   -1.1156   -1.7808    1.8111 S   0  0  0  0  0  0  0  0  0  0  0  0
   -2.4035   -1.2750    2.8635 C   0  0  0  0  0  0  0  0  0  0  0  0
   -3.7230   -1.3603    2.4982 N   0  0  0  0  0  0  0  0  0  0  0  0
   -4.3493   -0.9170    3.5639 C   0  0  0  0  0  0  0  0  0  0  0  0
   -3.4416   -0.5922    4.5227 N   0  0  0  0  0  0  0  0  0  0  0  0
   -2.1883   -0.8179    4.0991 N   0  0  0  0  0  0  0  0  0  0  0  0
   -0.2772    0.1568    0.0805 C   0  0  0  0  0  0  0  0  0  0  0  0
   -0.3373    0.9797   -1.0499 C   0  0  0  0  0  0  0  0  0  0  0  0
    0.7901    1.7983   -1.3506 N   0  0  0  0  0  0  0  0  0  0  0  0
    2.0600    1.1173   -2.2373 S   0  0  0  0  0  6  0  0  0  0  0  0
    1.5391    0.1411   -3.1683 O   0  0  0  0  0  0  0  0  0  0  0  0
    2.8655    2.2304   -2.6950 O   0  0  0  0  0  0  0  0  0  0  0  0
    2.9987    0.2713   -0.9887 C   0  0  0  0  0  0  0  0  0  0  0  0
    2.9279   -1.1225   -0.8896 C   0  0  0  0  0  0  0  0  0  0  0  0
    3.6729   -1.7798    0.0916 C   0  0  0  0  0  0  0  0  0  0  0  0
    4.4881   -1.0445    0.9535 C   0  0  0  0  0  0  0  0  0  0  0  0
    5.4045   -1.8578    2.1612 Cl  0  0  0  0  0  0  0  0  0  0  0  0
    4.5694    0.3448    0.8429 C   0  0  0  0  0  0  0  0  0  0  0  0
    3.8254    1.0088   -0.1345 C   0  0  0  0  0  0  0  0  0  0  0  0
   -1.3286    2.8385   -2.9113 H   0  0  0  0  0  0  0  0  0  0  0  0
   -0.8453    1.4270   -3.8943 H   0  0  0  0  0  0  0  0  0  0  0  0
   -2.5527    1.7579   -3.5686 H   0  0  0  0  0  0  0  0  0  0  0  0
   -3.3853    0.0174   -2.2189 H   0  0  0  0  0  0  0  0  0  0  0  0
   -3.5822   -1.7350    0.7282 H   0  0  0  0  0  0  0  0  0  0  0  0
   -5.4173   -0.8149    3.6963 H   0  0  0  0  0  0  0  0  0  0  0  0
   -3.5952   -0.2281    5.4569 H   0  0  0  0  0  0  0  0  0  0  0  0
    0.5985    0.1949    0.7241 H   0  0  0  0  0  0  0  0  0  0  0  0
    0.6121    2.7546   -1.6547 H   0  0  0  0  0  0  0  0  0  0  0  0
    2.2950   -1.6987   -1.5620 H   0  0  0  0  0  0  0  0  0  0  0  0
    3.6151   -2.8621    0.1778 H   0  0  0  0  0  0  0  0  0  0  0  0
    5.2115    0.9127    1.5116 H   0  0  0  0  0  0  0  0  0  0  0  0
    3.8937    2.0908   -0.2251 H   0  0  0  0  0  0  0  0  0  0  0  0
  1  2  1  0
  2  3  2  0
  3  4  1  0
  4  5  1  0
  4  6  2  0
  6  7  1  0
  7  8  1  0
  8  9  1  0
  9 10  2  0
 10 11  1  0
 11 12  1  0
  6 13  1  0
 13 14  2  0
 14 15  1  0
 15 16  1  0
 16 17  2  0
 16 18  2  0
 16 19  1  0
 19 20  2  0
 20 21  1  0
 21 22  2  0
 22 23  1  0
 22 24  1  0
 24 25  2  0
 14  2  1  0
 25 19  1  0
 12  8  2  0
  1 26  1  0
  1 27  1  0
  1 28  1  0
  3 29  1  0
  5 30  1  0
 10 31  1  0
 11 32  1  0
 13 33  1  0
 15 34  1  0
 20 35  1  0
 21 36  1  0
 24 37  1  0
 25 38  1  0
M  END
$$$$
