
     RDKit          3D

 58 63  0  0  0  0  0  0  0  0999 V2000
    7.6474    2.6386    1.3821 C   0  0  0  0  0  0  0  0  0  0  0  0
    6.4478    1.7635    1.2584 C   0  0  0  0  0  0  0  0  0  0  0  0
    5.4354    1.5592    2.1729 C   0  0  0  0  0  0  0  0  0  0  0  0
    4.4572    0.6394    1.6954 C   0  0  0  0  0  0  0  0  0  0  0  0
    4.7426    0.1837    0.4220 C   0  0  0  0  0  0  0  0  0  0  0  0
    4.0122   -0.7690   -0.3971 C   0  0  0  0  0  0  0  0  0  0  0  0
    4.5611   -1.7465   -0.9094 O   0  0  0  0  0  0  0  0  0  0  0  0
    2.6328   -0.5701   -0.5599 N   0  0  0  0  0  0  0  0  0  0  0  0
    1.9520    0.7065   -0.4030 C   0  0  0  0  0  0  0  0  0  0  0  0
    0.6547    0.5481    0.3898 C   0  0  0  0  0  0  0  0  0  0  0  0
   -0.1352   -0.7535    0.0392 C   0  0  0  0  0  0  0  0  0  0  0  0
    0.3836   -1.3446   -1.2941 C   0  0  0  0  0  0  0  0  0  0  0  0
    1.8879   -1.6179   -1.2432 C   0  0  0  0  0  0  0  0  0  0  0  0
    0.2264   -1.6687    1.1105 O   0  0  0  0  0  0  0  0  0  0  0  0
   -0.5881   -2.7340    1.3477 C   0  0  0  0  0  0  0  0  0  0  0  0
   -0.0724   -3.7232    2.1854 C   0  0  0  0  0  0  0  0  0  0  0  0
   -0.8266   -4.8641    2.4712 C   0  0  0  0  0  0  0  0  0  0  0  0
   -2.0986   -5.0113    1.9186 C   0  0  0  0  0  0  0  0  0  0  0  0
   -3.0220   -6.4197    2.2668 Cl  0  0  0  0  0  0  0  0  0  0  0  0
   -2.6259   -4.0250    1.0896 C   0  0  0  0  0  0  0  0  0  0  0  0
   -1.8652   -2.8827    0.8191 C   0  0  0  0  0  0  0  0  0  0  0  0
   -2.4000   -1.8167   -0.0375 C   0  0  0  0  0  0  0  0  0  0  0  0
   -3.3791   -2.0375   -0.7461 O   0  0  0  0  0  0  0  0  0  0  0  0
   -1.6646   -0.4829    0.0150 C   0  0  0  0  0  0  0  0  0  0  0  0
   -2.1323    0.4432   -1.1005 C   0  0  0  0  0  0  0  0  0  0  0  0
   -3.1439    1.2294   -0.3380 C   0  0  0  0  0  0  0  0  0  0  0  0
   -4.1197    2.1212   -1.0088 C   0  0  0  0  0  0  0  0  0  0  0  0
   -4.0977    2.3242   -2.3940 C   0  0  0  0  0  0  0  0  0  0  0  0
   -5.0314    3.1779   -2.9916 C   0  0  0  0  0  0  0  0  0  0  0  0
   -5.9839    3.8275   -2.2077 C   0  0  0  0  0  0  0  0  0  0  0  0
   -7.1273    4.8773   -2.9483 Cl  0  0  0  0  0  0  0  0  0  0  0  0
   -6.0130    3.6322   -0.8291 C   0  0  0  0  0  0  0  0  0  0  0  0
   -5.0812    2.7802   -0.2299 C   0  0  0  0  0  0  0  0  0  0  0  0
   -3.0764    1.0991    0.9485 N   0  0  0  0  0  0  0  0  0  0  0  0
   -2.0526    0.1709    1.2347 O   0  0  0  0  0  0  0  0  0  0  0  0
    6.2103    0.8389   -0.1623 S   0  0  0  0  0  0  0  0  0  0  0  0
    8.5666    2.0738    1.1957 H   0  0  0  0  0  0  0  0  0  0  0  0
    7.7172    3.0648    2.3882 H   0  0  0  0  0  0  0  0  0  0  0  0
    7.5948    3.4675    0.6689 H   0  0  0  0  0  0  0  0  0  0  0  0
    5.4017    2.0378    3.1446 H   0  0  0  0  0  0  0  0  0  0  0  0
    3.5900    0.3203    2.2612 H   0  0  0  0  0  0  0  0  0  0  0  0
    2.5818    1.4704    0.0561 H   0  0  0  0  0  0  0  0  0  0  0  0
    1.7326    1.0761   -1.4131 H   0  0  0  0  0  0  0  0  0  0  0  0
    0.9018    0.5472    1.4601 H   0  0  0  0  0  0  0  0  0  0  0  0
    0.0593    1.4516    0.2209 H   0  0  0  0  0  0  0  0  0  0  0  0
    0.1746   -0.6497   -2.1167 H   0  0  0  0  0  0  0  0  0  0  0  0
   -0.1219   -2.2841   -1.5450 H   0  0  0  0  0  0  0  0  0  0  0  0
    2.0877   -2.5654   -0.7280 H   0  0  0  0  0  0  0  0  0  0  0  0
    2.2798   -1.7163   -2.2626 H   0  0  0  0  0  0  0  0  0  0  0  0
    0.9221   -3.6111    2.6119 H   0  0  0  0  0  0  0  0  0  0  0  0
   -0.4157   -5.6323    3.1219 H   0  0  0  0  0  0  0  0  0  0  0  0
   -3.6212   -4.1361    0.6654 H   0  0  0  0  0  0  0  0  0  0  0  0
   -2.5596   -0.0748   -1.9621 H   0  0  0  0  0  0  0  0  0  0  0  0
   -1.3581    1.1331   -1.4487 H   0  0  0  0  0  0  0  0  0  0  0  0
   -3.3682    1.8335   -3.0312 H   0  0  0  0  0  0  0  0  0  0  0  0
   -5.0112    3.3311   -4.0680 H   0  0  0  0  0  0  0  0  0  0  0  0
   -6.7548    4.1359   -0.2147 H   0  0  0  0  0  0  0  0  0  0  0  0
   -5.1141    2.6331    0.8485 H   0  0  0  0  0  0  0  0  0  0  0  0
  1  2  1  0
  2  3  2  0
  3  4  1  0
  4  5  2  0
  5  6  1  0
  6  7  2  0
  6  8  1  0
  8  9  1  0
  9 10  1  0
 10 11  1  0
 11 12  1  0
 12 13  1  0
 11 14  1  0
 14 15  1  0
 15 16  2  0
 16 17  1  0
 17 18  2  0
 18 19  1  0
 18 20  1  0
 20 21  2  0
 21 22  1  0
 22 23  2  0
 22 24  1  0
 24 25  1  0
 25 26  1  0
 26 27  1  0
 27 28  2  0
 28 29  1  0
 29 30  2  0
 30 31  1  0
 30 32  1  0
 32 33  2  0
 26 34  2  0
 34 35  1  0
  5 36  1  0
 36  2  1  0
 13  8  1  0
 21 15  1  0
 35 24  1  0
 24 11  1  0
 33 27  1  0
  1 37  1  0
  1 38  1  0
  1 39  1  0
  3 40  1  0
  4 41  1  0
  9 42  1  0
  9 43  1  0
 10 44  1  0
 10 45  1  0
 12 46  1  0
 12 47  1  0
 13 48  1  0
 13 49  1  0
 16 50  1  0
 17 51  1  0
 20 52  1  0
 25 53  1  0
 25 54  1  0
 28 55  1  0
 29 56  1  0
 32 57  1  0
 33 58  1  0
M  END
$$$$
