
     RDKit          3D

 35 36  0  0  0  0  0  0  0  0999 V2000
   -5.2397   -2.1355   -1.0250 C   0  0  0  0  0  0  0  0  0  0  0  0
   -4.0514   -1.2241   -0.9403 C   0  0  0  0  0  0  0  0  0  0  0  0
   -4.1933    0.0842   -0.4673 C   0  0  0  0  0  0  0  0  0  0  0  0
   -3.0839    0.9313   -0.3545 C   0  0  0  0  0  0  0  0  0  0  0  0
   -1.8092    0.4838   -0.7046 C   0  0  0  0  0  0  0  0  0  0  0  0
   -0.6562    1.2915   -0.6112 N   0  0  0  0  0  0  0  0  0  0  0  0
   -0.5418    2.5942   -0.1599 C   0  0  0  0  0  0  0  0  0  0  0  0
   -1.4599    3.3306    0.1863 O   0  0  0  0  0  0  0  0  0  0  0  0
    0.9075    3.0948   -0.1878 C   0  0  0  0  0  0  0  0  0  0  0  0
    1.8691    2.0333   -0.2318 O   0  0  0  0  0  0  0  0  0  0  0  0
    2.1937    1.5146    0.9771 C   0  0  0  0  0  0  0  0  0  0  0  0
    1.7372    1.8357    2.0589 O   0  0  0  0  0  0  0  0  0  0  0  0
    3.0858    0.3609    0.7819 C   0  0  0  0  0  0  0  0  0  0  0  0
    2.6652   -0.8597    1.3297 C   0  0  0  0  0  0  0  0  0  0  0  0
    3.4496   -1.9969    1.1587 C   0  0  0  0  0  0  0  0  0  0  0  0
    2.9269   -3.5004    1.8076 Cl  0  0  0  0  0  0  0  0  0  0  0  0
    4.6539   -1.9257    0.4602 C   0  0  0  0  0  0  0  0  0  0  0  0
    5.0826   -0.7038   -0.0663 C   0  0  0  0  0  0  0  0  0  0  0  0
    4.3022    0.4458    0.0952 C   0  0  0  0  0  0  0  0  0  0  0  0
    4.9212    1.9288   -0.5344 Cl  0  0  0  0  0  0  0  0  0  0  0  0
   -1.6678   -0.8390   -1.1628 C   0  0  0  0  0  0  0  0  0  0  0  0
    0.0385   -1.5448   -1.6335 Br  0  0  0  0  0  0  0  0  0  0  0  0
   -2.7752   -1.6864   -1.2758 C   0  0  0  0  0  0  0  0  0  0  0  0
   -5.1168   -2.8629   -1.8343 H   0  0  0  0  0  0  0  0  0  0  0  0
   -6.1529   -1.5685   -1.2344 H   0  0  0  0  0  0  0  0  0  0  0  0
   -5.3662   -2.6741   -0.0808 H   0  0  0  0  0  0  0  0  0  0  0  0
   -5.1731    0.4616   -0.1794 H   0  0  0  0  0  0  0  0  0  0  0  0
   -3.2540    1.9381    0.0150 H   0  0  0  0  0  0  0  0  0  0  0  0
    0.2088    0.8485   -0.9056 H   0  0  0  0  0  0  0  0  0  0  0  0
    1.0850    3.7541    0.6695 H   0  0  0  0  0  0  0  0  0  0  0  0
    1.0350    3.6871   -1.0997 H   0  0  0  0  0  0  0  0  0  0  0  0
    1.7273   -0.9188    1.8791 H   0  0  0  0  0  0  0  0  0  0  0  0
    5.2673   -2.8143    0.3286 H   0  0  0  0  0  0  0  0  0  0  0  0
    6.0317   -0.6554   -0.5964 H   0  0  0  0  0  0  0  0  0  0  0  0
   -2.6467   -2.7088   -1.6238 H   0  0  0  0  0  0  0  0  0  0  0  0
  1  2  1  0
  2  3  2  0
  3  4  1  0
  4  5  2  0
  5  6  1  0
  6  7  1  0
  7  8  2  0
  7  9  1  0
  9 10  1  0
 10 11  1  0
 11 12  2  0
 11 13  1  0
 13 14  2  0
 14 15  1  0
 15 16  1  0
 15 17  2  0
 17 18  1  0
 18 19  2  0
 19 20  1  0
  5 21  1  0
 21 22  1  0
 21 23  2  0
 23  2  1  0
 19 13  1  0
  1 24  1  0
  1 25  1  0
  1 26  1  0
  3 27  1  0
  4 28  1  0
  6 29  1  0
  9 30  1  0
  9 31  1  0
 14 32  1  0
 17 33  1  0
 18 34  1  0
 23 35  1  0
M  END
$$$$
