
     RDKit          3D

 44 46  0  0  0  0  0  0  0  0999 V2000
   -4.8499   -2.8627   -2.6708 C   0  0  0  0  0  0  0  0  0  0  0  0
   -4.2299   -2.0380   -1.5807 C   0  0  0  0  0  0  0  0  0  0  0  0
   -4.9300   -0.9567   -1.0274 C   0  0  0  0  0  0  0  0  0  0  0  0
   -4.3704   -0.2074    0.0086 C   0  0  0  0  0  0  0  0  0  0  0  0
   -3.1048   -0.5441    0.4946 C   0  0  0  0  0  0  0  0  0  0  0  0
   -2.3995    0.4061    1.8161 S   0  0  0  0  0  6  0  0  0  0  0  0
   -1.2326   -0.2837    2.3220 O   0  0  0  0  0  0  0  0  0  0  0  0
   -3.4831    0.7842    2.6999 O   0  0  0  0  0  0  0  0  0  0  0  0
   -1.9183    1.8297    1.0361 N   0  0  0  0  0  0  0  0  0  0  0  0
   -0.6709    1.8228    0.3527 C   0  0  0  0  0  0  0  0  0  0  0  0
   -0.6018    1.3467   -0.9557 C   0  0  0  0  0  0  0  0  0  0  0  0
    0.6279    1.2879   -1.6228 C   0  0  0  0  0  0  0  0  0  0  0  0
    0.7001    0.7733   -3.0317 C   0  0  0  0  0  0  0  0  0  0  0  0
    1.7846    1.7025   -0.9466 C   0  0  0  0  0  0  0  0  0  0  0  0
    2.9708    1.6093   -1.6284 O   0  0  0  0  0  0  0  0  0  0  0  0
    1.7247    2.1886    0.3712 C   0  0  0  0  0  0  0  0  0  0  0  0
    3.1432    2.8319    1.2504 S   0  0  0  0  0  0  0  0  0  0  0  0
    4.1025    1.4006    1.4915 C   0  0  0  0  0  0  0  0  0  0  0  0
    4.6386    0.7392    0.4577 N   0  0  0  0  0  0  0  0  0  0  0  0
    5.2837   -0.2566    1.0911 N   0  0  0  0  0  0  0  0  0  0  0  0
    5.1440   -0.1574    2.4464 C   0  0  0  0  0  0  0  0  0  0  0  0
    5.7528   -1.1153    3.3917 C   0  0  0  0  0  0  0  0  0  0  0  0
    4.4061    0.8957    2.7226 N   0  0  0  0  0  0  0  0  0  0  0  0
    0.4824    2.2405    1.0160 C   0  0  0  0  0  0  0  0  0  0  0  0
   -2.4075   -1.6365   -0.0268 C   0  0  0  0  0  0  0  0  0  0  0  0
   -2.9728   -2.3805   -1.0634 C   0  0  0  0  0  0  0  0  0  0  0  0
   -4.0807   -3.2863   -3.3252 H   0  0  0  0  0  0  0  0  0  0  0  0
   -5.4340   -3.6793   -2.2356 H   0  0  0  0  0  0  0  0  0  0  0  0
   -5.5076   -2.2508   -3.2971 H   0  0  0  0  0  0  0  0  0  0  0  0
   -5.9185   -0.6947   -1.3996 H   0  0  0  0  0  0  0  0  0  0  0  0
   -4.9226    0.6288    0.4314 H   0  0  0  0  0  0  0  0  0  0  0  0
   -2.1354    2.6414    1.6137 H   0  0  0  0  0  0  0  0  0  0  0  0
   -1.5086    1.0321   -1.4664 H   0  0  0  0  0  0  0  0  0  0  0  0
    1.3026   -0.1398   -3.0703 H   0  0  0  0  0  0  0  0  0  0  0  0
    1.1407    1.5284   -3.6907 H   0  0  0  0  0  0  0  0  0  0  0  0
   -0.2943    0.5338   -3.4230 H   0  0  0  0  0  0  0  0  0  0  0  0
    3.6877    1.5256   -0.9623 H   0  0  0  0  0  0  0  0  0  0  0  0
    5.7892   -0.9502    0.5506 H   0  0  0  0  0  0  0  0  0  0  0  0
    5.5196   -0.8385    4.4244 H   0  0  0  0  0  0  0  0  0  0  0  0
    5.3717   -2.1259    3.2160 H   0  0  0  0  0  0  0  0  0  0  0  0
    6.8413   -1.1289    3.2807 H   0  0  0  0  0  0  0  0  0  0  0  0
    0.4163    2.5978    2.0407 H   0  0  0  0  0  0  0  0  0  0  0  0
   -1.4297   -1.9112    0.3632 H   0  0  0  0  0  0  0  0  0  0  0  0
   -2.4275   -3.2324   -1.4649 H   0  0  0  0  0  0  0  0  0  0  0  0
  1  2  1  0
  2  3  2  0
  3  4  1  0
  4  5  2  0
  5  6  1  0
  6  7  2  0
  6  8  2  0
  6  9  1  0
  9 10  1  0
 10 11  2  0
 11 12  1  0
 12 13  1  0
 12 14  2  0
 14 15  1  0
 14 16  1  0
 16 17  1  0
 17 18  1  0
 18 19  2  0
 19 20  1  0
 20 21  1  0
 21 22  1  0
 21 23  2  0
 16 24  2  0
  5 25  1  0
 25 26  2  0
 26  2  1  0
 24 10  1  0
 23 18  1  0
  1 27  1  0
  1 28  1  0
  1 29  1  0
  3 30  1  0
  4 31  1  0
  9 32  1  0
 11 33  1  0
 13 34  1  0
 13 35  1  0
 13 36  1  0
 15 37  1  0
 20 38  1  0
 22 39  1  0
 22 40  1  0
 22 41  1  0
 24 42  1  0
 25 43  1  0
 26 44  1  0
M  END
$$$$
