
     RDKit          3D

 81 84  0  0  0  0  0  0  0  0999 V2000
   -4.5093    5.4990   -1.0179 C   0  0  0  0  0  0  0  0  0  0  0  0
   -4.6197    4.9134    0.2752 O   0  0  0  0  0  0  0  0  0  0  0  0
   -3.6037    4.0789    0.6533 C   0  0  0  0  0  0  0  0  0  0  0  0
   -3.5009    3.8664    2.0307 C   0  0  0  0  0  0  0  0  0  0  0  0
   -2.5202    3.0206    2.5494 C   0  0  0  0  0  0  0  0  0  0  0  0
   -1.6524    2.3655    1.6754 C   0  0  0  0  0  0  0  0  0  0  0  0
   -0.3614    1.3301    2.3327 S   0  0  0  0  0  6  0  0  0  0  0  0
    0.6693    1.2640    1.3152 O   0  0  0  0  0  0  0  0  0  0  0  0
   -0.0583    1.8035    3.6637 O   0  0  0  0  0  0  0  0  0  0  0  0
   -1.0731   -0.2132    2.4677 N   0  0  0  0  0  0  0  0  0  0  0  0
   -2.2136   -0.3165    3.4002 C   0  0  0  0  0  0  0  0  0  0  0  0
   -1.2451   -0.9950    1.2097 C   0  0  0  0  0  0  0  0  0  0  0  0
    0.0532   -1.7636    0.8257 C   0  0  0  0  0  0  0  0  0  0  0  0
    0.1491   -1.6548   -0.6138 O   0  0  0  0  0  0  0  0  0  0  0  0
    1.3507   -2.1115   -1.0965 C   0  0  0  0  0  0  0  0  0  0  0  0
    2.4502   -1.2352   -1.1985 C   0  0  0  0  0  0  0  0  0  0  0  0
    2.2823    0.0961   -0.7649 N   0  0  0  0  0  0  0  0  0  0  0  0
    3.0245    1.2087   -1.1308 C   0  0  0  0  0  0  0  0  0  0  0  0
    3.9706    1.2053   -1.9062 O   0  0  0  0  0  0  0  0  0  0  0  0
    2.4988    2.3327   -0.5162 N   0  0  0  0  0  0  0  0  0  0  0  0
    2.7355    3.6832   -0.8239 C   0  0  0  0  0  0  0  0  0  0  0  0
    2.1594    4.6446    0.0150 C   0  0  0  0  0  0  0  0  0  0  0  0
    2.2988    6.0089   -0.2635 C   0  0  0  0  0  0  0  0  0  0  0  0
    3.0211    6.4377   -1.3863 C   0  0  0  0  0  0  0  0  0  0  0  0
    3.1370    7.9086   -1.7028 C   0  0  0  0  0  0  0  0  0  0  0  0
    3.3510    8.6727   -0.5943 F   0  0  0  0  0  0  0  0  0  0  0  0
    4.1548    8.2018   -2.5584 F   0  0  0  0  0  0  0  0  0  0  0  0
    2.0068    8.4047   -2.2797 F   0  0  0  0  0  0  0  0  0  0  0  0
    3.5977    5.4712   -2.2225 C   0  0  0  0  0  0  0  0  0  0  0  0
    3.4553    4.1066   -1.9424 C   0  0  0  0  0  0  0  0  0  0  0  0
    3.6526   -1.7055   -1.7352 C   0  0  0  0  0  0  0  0  0  0  0  0
    3.7528   -3.0138   -2.2120 C   0  0  0  0  0  0  0  0  0  0  0  0
    2.6456   -3.8545   -2.1719 C   0  0  0  0  0  0  0  0  0  0  0  0
    1.4404   -3.4072   -1.6111 C   0  0  0  0  0  0  0  0  0  0  0  0
    0.2859   -4.3221   -1.7288 C   0  0  0  0  0  0  0  0  0  0  0  0
   -0.0710   -4.6217   -2.8653 O   0  0  0  0  0  0  0  0  0  0  0  0
   -0.1935   -4.9595   -0.5688 N   0  0  0  0  0  0  0  0  0  0  0  0
   -0.8011   -6.2889   -0.8303 C   0  0  0  0  0  0  0  0  0  0  0  0
   -0.5825   -7.2448    0.3491 C   0  0  0  0  0  0  0  0  0  0  0  0
   -2.2781   -6.2231   -1.2889 C   0  0  0  0  0  0  0  0  0  0  0  0
   -3.1788   -5.9634   -0.2118 O   0  0  0  0  0  0  0  0  0  0  0  0
   -0.8562   -4.1315    0.4500 C   0  0  0  0  0  0  0  0  0  0  0  0
    0.0870   -3.2474    1.2838 C   0  0  0  0  0  0  0  0  0  0  0  0
   -0.2113   -3.3965    2.7767 C   0  0  0  0  0  0  0  0  0  0  0  0
   -1.7335    2.5850    0.2967 C   0  0  0  0  0  0  0  0  0  0  0  0
   -2.7147    3.4393   -0.2134 C   0  0  0  0  0  0  0  0  0  0  0  0
   -5.3201    6.2228   -1.1250 H   0  0  0  0  0  0  0  0  0  0  0  0
   -4.6247    4.7488   -1.8088 H   0  0  0  0  0  0  0  0  0  0  0  0
   -3.5603    6.0378   -1.1227 H   0  0  0  0  0  0  0  0  0  0  0  0
   -4.1938    4.3740    2.6978 H   0  0  0  0  0  0  0  0  0  0  0  0
   -2.4380    2.8888    3.6240 H   0  0  0  0  0  0  0  0  0  0  0  0
   -1.9920    0.1780    4.3507 H   0  0  0  0  0  0  0  0  0  0  0  0
   -2.4217   -1.3650    3.6347 H   0  0  0  0  0  0  0  0  0  0  0  0
   -3.1153    0.1223    2.9596 H   0  0  0  0  0  0  0  0  0  0  0  0
   -1.5387   -0.3115    0.4042 H   0  0  0  0  0  0  0  0  0  0  0  0
   -2.0903   -1.6909    1.3090 H   0  0  0  0  0  0  0  0  0  0  0  0
    0.9166   -1.2621    1.2802 H   0  0  0  0  0  0  0  0  0  0  0  0
    1.3856    0.3114   -0.3470 H   0  0  0  0  0  0  0  0  0  0  0  0
    1.9385    2.1343    0.3100 H   0  0  0  0  0  0  0  0  0  0  0  0
    1.5877    4.3457    0.8909 H   0  0  0  0  0  0  0  0  0  0  0  0
    1.8416    6.7380    0.4012 H   0  0  0  0  0  0  0  0  0  0  0  0
    4.1614    5.7714   -3.1054 H   0  0  0  0  0  0  0  0  0  0  0  0
    3.9033    3.3934   -2.6283 H   0  0  0  0  0  0  0  0  0  0  0  0
    4.5286   -1.0667   -1.7939 H   0  0  0  0  0  0  0  0  0  0  0  0
    4.6889   -3.3586   -2.6456 H   0  0  0  0  0  0  0  0  0  0  0  0
    2.7110   -4.8532   -2.5957 H   0  0  0  0  0  0  0  0  0  0  0  0
   -0.2391   -6.7262   -1.6684 H   0  0  0  0  0  0  0  0  0  0  0  0
   -0.9298   -8.2529    0.0904 H   0  0  0  0  0  0  0  0  0  0  0  0
    0.4851   -7.3019    0.5989 H   0  0  0  0  0  0  0  0  0  0  0  0
   -1.1108   -6.9296    1.2571 H   0  0  0  0  0  0  0  0  0  0  0  0
   -2.5746   -7.1720   -1.7458 H   0  0  0  0  0  0  0  0  0  0  0  0
   -2.4219   -5.4389   -2.0365 H   0  0  0  0  0  0  0  0  0  0  0  0
   -3.2624   -6.7886    0.2951 H   0  0  0  0  0  0  0  0  0  0  0  0
   -1.3855   -4.7993    1.1320 H   0  0  0  0  0  0  0  0  0  0  0  0
   -1.6261   -3.5433   -0.0628 H   0  0  0  0  0  0  0  0  0  0  0  0
    1.1105   -3.6183    1.1533 H   0  0  0  0  0  0  0  0  0  0  0  0
   -1.2648   -3.2256    2.9947 H   0  0  0  0  0  0  0  0  0  0  0  0
    0.0267   -4.4122    3.1107 H   0  0  0  0  0  0  0  0  0  0  0  0
    0.3903   -2.7035    3.3717 H   0  0  0  0  0  0  0  0  0  0  0  0
   -1.0440    2.1033   -0.3913 H   0  0  0  0  0  0  0  0  0  0  0  0
   -2.7738    3.5716   -1.2877 H   0  0  0  0  0  0  0  0  0  0  0  0
  1  2  1  0
  2  3  1  0
  3  4  2  0
  4  5  1  0
  5  6  2  0
  6  7  1  0
  7  8  2  0
  7  9  2  0
  7 10  1  0
 10 11  1  0
 10 12  1  0
 12 13  1  0
 13 14  1  0
 14 15  1  0
 15 16  2  0
 16 17  1  0
 17 18  1  0
 18 19  2  0
 18 20  1  0
 20 21  1  0
 21 22  2  0
 22 23  1  0
 23 24  2  0
 24 25  1  0
 25 26  1  0
 25 27  1  0
 25 28  1  0
 24 29  1  0
 29 30  2  0
 16 31  1  0
 31 32  2  0
 32 33  1  0
 33 34  2  0
 34 35  1  0
 35 36  2  0
 35 37  1  0
 37 38  1  0
 38 39  1  0
 38 40  1  0
 40 41  1  0
 37 42  1  0
 42 43  1  0
 43 44  1  0
  6 45  1  0
 45 46  2  0
 46  3  1  0
 43 13  1  0
 34 15  1  0
 30 21  1  0
  1 47  1  0
  1 48  1  0
  1 49  1  0
  4 50  1  0
  5 51  1  0
 11 52  1  0
 11 53  1  0
 11 54  1  0
 12 55  1  0
 12 56  1  0
 13 57  1  0
 17 58  1  0
 20 59  1  0
 22 60  1  0
 23 61  1  0
 29 62  1  0
 30 63  1  0
 31 64  1  0
 32 65  1  0
 33 66  1  0
 38 67  1  0
 39 68  1  0
 39 69  1  0
 39 70  1  0
 40 71  1  0
 40 72  1  0
 41 73  1  0
 42 74  1  0
 42 75  1  0
 43 76  1  0
 44 77  1  0
 44 78  1  0
 44 79  1  0
 45 80  1  0
 46 81  1  0
M  END
$$$$
