
     RDKit          3D

 34 36  0  0  0  0  0  0  0  0999 V2000
    4.7985    1.8448   -0.5478 C   0  0  0  0  0  0  0  0  0  0  0  0
    4.5538    0.5792    0.1104 N   0  0  0  0  0  0  0  0  0  0  0  0
    5.6110   -0.2036    0.4153 N   0  0  0  0  0  0  0  0  0  0  0  0
    5.0569   -1.2616    1.0053 C   0  0  0  0  0  0  0  0  0  0  0  0
    3.6565   -1.1666    1.0620 C   0  0  0  0  0  0  0  0  0  0  0  0
    2.6540   -2.3264    1.7867 Cl  0  0  0  0  0  0  0  0  0  0  0  0
    3.3328    0.0336    0.4532 C   0  0  0  0  0  0  0  0  0  0  0  0
    2.0612    0.6905    0.2107 C   0  0  0  0  0  0  0  0  0  0  0  0
    2.0142    1.8999    0.0141 O   0  0  0  0  0  0  0  0  0  0  0  0
    0.9774   -0.1661    0.1728 N   0  0  0  0  0  0  0  0  0  0  0  0
   -0.3634    0.1635    0.0103 C   0  0  0  0  0  0  0  0  0  0  0  0
   -0.8881    1.7945    0.0714 S   0  0  0  0  0  0  0  0  0  0  0  0
   -2.4739    1.3262   -0.1127 C   0  0  0  0  0  0  0  0  0  0  0  0
   -2.6502   -0.0245   -0.2312 C   0  0  0  0  0  0  0  0  0  0  0  0
   -1.4160   -0.7421   -0.1808 C   0  0  0  0  0  0  0  0  0  0  0  0
   -1.1882   -2.1815   -0.2908 C   0  0  0  0  0  0  0  0  0  0  0  0
   -2.2435   -2.9481   -0.6911 N   0  0  0  0  0  0  0  0  0  0  0  0
   -0.0978   -2.7058   -0.0794 O   0  0  0  0  0  0  0  0  0  0  0  0
   -4.0977   -0.3430   -0.3654 C   0  0  0  0  0  0  0  0  0  0  0  0
   -4.7836    0.9964    0.0458 C   0  0  0  0  0  0  0  0  0  0  0  0
   -3.7241    2.1185   -0.1539 C   0  0  0  0  0  0  0  0  0  0  0  0
    4.1956    1.8904   -1.4578 H   0  0  0  0  0  0  0  0  0  0  0  0
    5.8571    1.9160   -0.8130 H   0  0  0  0  0  0  0  0  0  0  0  0
    4.5393    2.6491    0.1445 H   0  0  0  0  0  0  0  0  0  0  0  0
    5.6960   -2.0536    1.3738 H   0  0  0  0  0  0  0  0  0  0  0  0
    1.1603   -1.1683    0.2244 H   0  0  0  0  0  0  0  0  0  0  0  0
   -2.0340   -3.9170   -0.8904 H   0  0  0  0  0  0  0  0  0  0  0  0
   -3.0521   -2.5440   -1.1351 H   0  0  0  0  0  0  0  0  0  0  0  0
   -4.4162   -1.1596    0.2884 H   0  0  0  0  0  0  0  0  0  0  0  0
   -4.3405   -0.5890   -1.4045 H   0  0  0  0  0  0  0  0  0  0  0  0
   -5.0544    0.9458    1.1089 H   0  0  0  0  0  0  0  0  0  0  0  0
   -5.7022    1.1842   -0.5185 H   0  0  0  0  0  0  0  0  0  0  0  0
   -3.8495    2.5970   -1.1306 H   0  0  0  0  0  0  0  0  0  0  0  0
   -3.7893    2.8712    0.6363 H   0  0  0  0  0  0  0  0  0  0  0  0
  1  2  1  0
  2  3  1  0
  3  4  2  0
  4  5  1  0
  5  6  1  0
  5  7  2  0
  7  8  1  0
  8  9  2  0
  8 10  1  0
 10 11  1  0
 11 12  1  0
 12 13  1  0
 13 14  2  0
 14 15  1  0
 15 16  1  0
 16 17  1  0
 16 18  2  0
 14 19  1  0
 19 20  1  0
 20 21  1  0
  7  2  1  0
 15 11  2  0
 21 13  1  0
  1 22  1  0
  1 23  1  0
  1 24  1  0
  4 25  1  0
 10 26  1  0
 17 27  1  0
 17 28  1  0
 19 29  1  0
 19 30  1  0
 20 31  1  0
 20 32  1  0
 21 33  1  0
 21 34  1  0
M  END
$$$$
