
     RDKit          3D

 41 43  0  0  0  0  0  0  0  0999 V2000
   -4.7188   -0.5040    2.0889 C   0  0  0  0  0  0  0  0  0  0  0  0
   -3.4727   -0.8293    1.3204 C   0  0  0  0  0  0  0  0  0  0  0  0
   -2.5699   -1.7771    1.8029 C   0  0  0  0  0  0  0  0  0  0  0  0
   -1.4334   -2.1168    1.0634 C   0  0  0  0  0  0  0  0  0  0  0  0
   -1.1616   -1.5198   -0.1805 C   0  0  0  0  0  0  0  0  0  0  0  0
    0.0692   -1.9648   -0.9171 C   0  0  0  0  0  0  0  0  0  0  0  0
   -2.0720   -0.5621   -0.6634 C   0  0  0  0  0  0  0  0  0  0  0  0
   -1.8847    0.2942   -2.2267 S   0  0  0  0  0  6  0  0  0  0  0  0
   -0.8276   -0.3106   -3.0048 O   0  0  0  0  0  0  0  0  0  0  0  0
   -3.2129    0.4515   -2.7857 O   0  0  0  0  0  0  0  0  0  0  0  0
   -1.4035    1.8459   -1.7510 N   0  0  0  0  0  0  0  0  0  0  0  0
   -0.2546    1.9952   -0.9276 C   0  0  0  0  0  0  0  0  0  0  0  0
   -0.4172    2.3981    0.3969 C   0  0  0  0  0  0  0  0  0  0  0  0
    0.6969    2.5077    1.2266 C   0  0  0  0  0  0  0  0  0  0  0  0
    1.9654    2.2045    0.7334 C   0  0  0  0  0  0  0  0  0  0  0  0
    2.9935    2.3213    1.6281 O   0  0  0  0  0  0  0  0  0  0  0  0
    2.1460    1.8086   -0.5994 C   0  0  0  0  0  0  0  0  0  0  0  0
    3.7403    1.4876   -1.3374 S   0  0  0  0  0  0  0  0  0  0  0  0
    4.2766    0.0906   -0.4519 C   0  0  0  0  0  0  0  0  0  0  0  0
    4.4737    0.1171    0.9059 N   0  0  0  0  0  0  0  0  0  0  0  0
    4.8922   -1.1007    1.1627 C   0  0  0  0  0  0  0  0  0  0  0  0
    4.9567   -1.8132    0.0065 N   0  0  0  0  0  0  0  0  0  0  0  0
    4.5701   -1.0704   -1.0414 N   0  0  0  0  0  0  0  0  0  0  0  0
    1.0178    1.7126   -1.4266 C   0  0  0  0  0  0  0  0  0  0  0  0
   -3.2264   -0.2385    0.0775 C   0  0  0  0  0  0  0  0  0  0  0  0
   -5.0581    0.5145    1.8731 H   0  0  0  0  0  0  0  0  0  0  0  0
   -4.5378   -0.5641    3.1674 H   0  0  0  0  0  0  0  0  0  0  0  0
   -5.5156   -1.2053    1.8231 H   0  0  0  0  0  0  0  0  0  0  0  0
   -2.7475   -2.2691    2.7572 H   0  0  0  0  0  0  0  0  0  0  0  0
   -0.7575   -2.8672    1.4708 H   0  0  0  0  0  0  0  0  0  0  0  0
    0.7228   -1.1192   -1.1376 H   0  0  0  0  0  0  0  0  0  0  0  0
    0.6625   -2.6648   -0.3180 H   0  0  0  0  0  0  0  0  0  0  0  0
   -0.2045   -2.4873   -1.8385 H   0  0  0  0  0  0  0  0  0  0  0  0
   -2.2025    2.4510   -1.5703 H   0  0  0  0  0  0  0  0  0  0  0  0
   -1.4013    2.6176    0.7999 H   0  0  0  0  0  0  0  0  0  0  0  0
    0.5806    2.8174    2.2622 H   0  0  0  0  0  0  0  0  0  0  0  0
    3.7205    1.7344    1.3306 H   0  0  0  0  0  0  0  0  0  0  0  0
    5.1605   -1.5073    2.1276 H   0  0  0  0  0  0  0  0  0  0  0  0
    5.2488   -2.7730   -0.1431 H   0  0  0  0  0  0  0  0  0  0  0  0
    1.1298    1.4171   -2.4683 H   0  0  0  0  0  0  0  0  0  0  0  0
   -3.9437    0.4780   -0.3214 H   0  0  0  0  0  0  0  0  0  0  0  0
  1  2  1  0
  2  3  2  0
  3  4  1  0
  4  5  2  0
  5  6  1  0
  5  7  1  0
  7  8  1  0
  8  9  2  0
  8 10  2  0
  8 11  1  0
 11 12  1  0
 12 13  2  0
 13 14  1  0
 14 15  2  0
 15 16  1  0
 15 17  1  0
 17 18  1  0
 18 19  1  0
 19 20  1  0
 20 21  2  0
 21 22  1  0
 22 23  1  0
 17 24  2  0
  7 25  2  0
 25  2  1  0
 24 12  1  0
 23 19  2  0
  1 26  1  0
  1 27  1  0
  1 28  1  0
  3 29  1  0
  4 30  1  0
  6 31  1  0
  6 32  1  0
  6 33  1  0
 11 34  1  0
 13 35  1  0
 14 36  1  0
 16 37  1  0
 21 38  1  0
 22 39  1  0
 24 40  1  0
 25 41  1  0
M  END
$$$$
