
     RDKit          3D

 59 62  0  0  0  0  0  0  0  0999 V2000
    8.1278    0.1117   -0.1736 C   0  0  0  0  0  0  0  0  0  0  0  0
    7.3626    0.1949   -1.3695 O   0  0  0  0  0  0  0  0  0  0  0  0
    6.0082    0.3287   -1.2324 C   0  0  0  0  0  0  0  0  0  0  0  0
    5.2986    0.3027   -2.4380 C   0  0  0  0  0  0  0  0  0  0  0  0
    3.9065    0.4266   -2.4520 C   0  0  0  0  0  0  0  0  0  0  0  0
    3.2124    0.5861   -1.2529 C   0  0  0  0  0  0  0  0  0  0  0  0
    1.7566    0.7132   -1.2218 C   0  0  0  0  0  0  0  0  0  0  0  0
    1.0995    0.8542   -0.0549 C   0  0  0  0  0  0  0  0  0  0  0  0
   -0.3923    0.9873    0.0297 C   0  0  0  0  0  0  0  0  0  0  0  0
   -1.0192   -0.2817   -0.4168 N   0  0  0  0  0  0  0  0  0  0  0  0
   -1.1587   -1.2986    0.6656 C   0  0  0  0  0  0  0  0  0  0  0  0
   -0.7065   -2.6918    0.2142 C   0  0  0  0  0  0  0  0  0  0  0  0
    0.7538   -2.7782   -0.2003 C   0  0  0  0  0  0  0  0  0  0  0  0
    1.0316   -4.2479   -0.0062 C   0  0  0  0  0  0  0  0  0  0  0  0
    0.2444   -4.5567    1.2502 C   0  0  0  0  0  0  0  0  0  0  0  0
   -0.8483   -3.6260    1.3071 O   0  0  0  0  0  0  0  0  0  0  0  0
   -2.2786   -0.1435   -1.5473 S   0  0  0  0  0  6  0  0  0  0  0  0
   -1.8338    0.7627   -2.5880 O   0  0  0  0  0  0  0  0  0  0  0  0
   -2.7518   -1.4692   -1.8776 O   0  0  0  0  0  0  0  0  0  0  0  0
   -3.5775    0.6806   -0.6422 C   0  0  0  0  0  0  0  0  0  0  0  0
   -4.5289   -0.0734    0.0491 C   0  0  0  0  0  0  0  0  0  0  0  0
   -5.5587    0.5774    0.7340 C   0  0  0  0  0  0  0  0  0  0  0  0
   -5.6582    1.9771    0.7105 C   0  0  0  0  0  0  0  0  0  0  0  0
   -6.7798    2.6237    1.4555 C   0  0  0  0  0  0  0  0  0  0  0  0
   -6.9938    4.1074    1.3087 C   0  0  0  0  0  0  0  0  0  0  0  0
   -7.5052    1.9449    2.1790 O   0  0  0  0  0  0  0  0  0  0  0  0
   -4.7150    2.7221   -0.0103 C   0  0  0  0  0  0  0  0  0  0  0  0
   -3.6807    2.0750   -0.6938 C   0  0  0  0  0  0  0  0  0  0  0  0
    1.8597    0.9185    1.2268 C   0  0  0  0  0  0  0  0  0  0  0  0
    1.2942    1.0752    2.3046 O   0  0  0  0  0  0  0  0  0  0  0  0
    3.2218    0.7891    1.1523 N   0  0  0  0  0  0  0  0  0  0  0  0
    3.9240    0.6192   -0.0481 C   0  0  0  0  0  0  0  0  0  0  0  0
    5.3157    0.4886   -0.0291 C   0  0  0  0  0  0  0  0  0  0  0  0
    9.1751   -0.0238   -0.4582 H   0  0  0  0  0  0  0  0  0  0  0  0
    7.8294   -0.7580    0.4241 H   0  0  0  0  0  0  0  0  0  0  0  0
    8.0566    1.0375    0.4078 H   0  0  0  0  0  0  0  0  0  0  0  0
    5.8371    0.1839   -3.3771 H   0  0  0  0  0  0  0  0  0  0  0  0
    3.3806    0.4014   -3.4039 H   0  0  0  0  0  0  0  0  0  0  0  0
    1.2185    0.6672   -2.1635 H   0  0  0  0  0  0  0  0  0  0  0  0
   -0.6828    1.8268   -0.6119 H   0  0  0  0  0  0  0  0  0  0  0  0
   -0.7509    1.2514    1.0305 H   0  0  0  0  0  0  0  0  0  0  0  0
   -0.5736   -1.0090    1.5475 H   0  0  0  0  0  0  0  0  0  0  0  0
   -2.1911   -1.3408    1.0298 H   0  0  0  0  0  0  0  0  0  0  0  0
   -1.3412   -3.0654   -0.5959 H   0  0  0  0  0  0  0  0  0  0  0  0
    0.9311   -2.4390   -1.2247 H   0  0  0  0  0  0  0  0  0  0  0  0
    1.3907   -2.1967    0.4770 H   0  0  0  0  0  0  0  0  0  0  0  0
    0.6266   -4.8184   -0.8507 H   0  0  0  0  0  0  0  0  0  0  0  0
    2.0947   -4.4880    0.0870 H   0  0  0  0  0  0  0  0  0  0  0  0
   -0.1436   -5.5798    1.2586 H   0  0  0  0  0  0  0  0  0  0  0  0
    0.8545   -4.4073    2.1474 H   0  0  0  0  0  0  0  0  0  0  0  0
   -4.4822   -1.1617    0.0584 H   0  0  0  0  0  0  0  0  0  0  0  0
   -6.2920   -0.0145    1.2804 H   0  0  0  0  0  0  0  0  0  0  0  0
   -7.0841    4.3772    0.2528 H   0  0  0  0  0  0  0  0  0  0  0  0
   -6.1745    4.6541    1.7835 H   0  0  0  0  0  0  0  0  0  0  0  0
   -7.9293    4.3875    1.8056 H   0  0  0  0  0  0  0  0  0  0  0  0
   -4.7641    3.8061   -0.0599 H   0  0  0  0  0  0  0  0  0  0  0  0
   -2.9682    2.6646   -1.2693 H   0  0  0  0  0  0  0  0  0  0  0  0
    3.7173    0.8266    2.0341 H   0  0  0  0  0  0  0  0  0  0  0  0
    5.8345    0.5180    0.9211 H   0  0  0  0  0  0  0  0  0  0  0  0
  1  2  1  0
  2  3  1  0
  3  4  2  0
  4  5  1  0
  5  6  2  0
  6  7  1  0
  7  8  2  0
  8  9  1  0
  9 10  1  0
 10 11  1  0
 11 12  1  0
 12 13  1  0
 13 14  1  0
 14 15  1  0
 15 16  1  0
 10 17  1  0
 17 18  2  0
 17 19  2  0
 17 20  1  0
 20 21  2  0
 21 22  1  0
 22 23  2  0
 23 24  1  0
 24 25  1  0
 24 26  2  0
 23 27  1  0
 27 28  2  0
  8 29  1  0
 29 30  2  0
 29 31  1  0
 31 32  1  0
 32 33  2  0
 33  3  1  0
 32  6  1  0
 16 12  1  0
 28 20  1  0
  1 34  1  0
  1 35  1  0
  1 36  1  0
  4 37  1  0
  5 38  1  0
  7 39  1  0
  9 40  1  0
  9 41  1  0
 11 42  1  0
 11 43  1  0
 12 44  1  0
 13 45  1  0
 13 46  1  0
 14 47  1  0
 14 48  1  0
 15 49  1  0
 15 50  1  0
 21 51  1  0
 22 52  1  0
 25 53  1  0
 25 54  1  0
 25 55  1  0
 27 56  1  0
 28 57  1  0
 31 58  1  0
 33 59  1  0
M  END
$$$$
