
     RDKit          3D

 55 60  0  0  0  0  0  0  0  0999 V2000
    2.9644    1.5227    3.2432 O   0  0  0  0  0  0  0  0  0  0  0  0
    3.0990    1.5742    2.0224 C   0  0  0  0  0  0  0  0  0  0  0  0
    3.9522    2.5877    1.4209 C   0  0  0  0  0  0  0  0  0  0  0  0
    4.2561    3.8823    1.9363 C   0  0  0  0  0  0  0  0  0  0  0  0
    5.1331    4.4638    1.0521 C   0  0  0  0  0  0  0  0  0  0  0  0
    5.4150    3.6085    0.0369 O   0  0  0  0  0  0  0  0  0  0  0  0
    4.7188    2.4684    0.2781 C   0  0  0  0  0  0  0  0  0  0  0  0
    2.4696    0.6489    1.1678 N   0  0  0  0  0  0  0  0  0  0  0  0
    1.8500   -0.4898    1.8326 C   0  0  0  0  0  0  0  0  0  0  0  0
    1.5508   -1.6359    0.8770 C   0  0  0  0  0  0  0  0  0  0  0  0
    0.8865   -1.2520   -0.4726 C   0  0  0  0  0  0  0  0  0  0  0  0
    1.6001   -0.0023   -1.0427 C   0  0  0  0  0  0  0  0  0  0  0  0
    1.7893    1.1197   -0.0348 C   0  0  0  0  0  0  0  0  0  0  0  0
    1.2712   -2.3815   -1.3240 O   0  0  0  0  0  0  0  0  0  0  0  0
    0.5996   -2.5750   -2.4922 C   0  0  0  0  0  0  0  0  0  0  0  0
    1.1703   -3.4769   -3.3900 C   0  0  0  0  0  0  0  0  0  0  0  0
    0.5590   -3.7211   -4.6225 C   0  0  0  0  0  0  0  0  0  0  0  0
   -0.6256   -3.0626   -4.9525 C   0  0  0  0  0  0  0  0  0  0  0  0
   -1.3709   -3.3592   -6.4736 Cl  0  0  0  0  0  0  0  0  0  0  0  0
   -1.2090   -2.1701   -4.0577 C   0  0  0  0  0  0  0  0  0  0  0  0
   -0.5925   -1.9442   -2.8232 C   0  0  0  0  0  0  0  0  0  0  0  0
   -1.1859   -1.0266   -1.8452 C   0  0  0  0  0  0  0  0  0  0  0  0
   -2.0239   -0.2072   -2.2135 O   0  0  0  0  0  0  0  0  0  0  0  0
   -0.6698   -1.1467   -0.4097 C   0  0  0  0  0  0  0  0  0  0  0  0
   -1.2908   -0.0624    0.4543 C   0  0  0  0  0  0  0  0  0  0  0  0
   -2.5047   -0.8029    0.9102 C   0  0  0  0  0  0  0  0  0  0  0  0
   -3.6649   -0.1205    1.5293 C   0  0  0  0  0  0  0  0  0  0  0  0
   -3.6430    1.2492    1.8183 C   0  0  0  0  0  0  0  0  0  0  0  0
   -4.7567    1.8583    2.4068 C   0  0  0  0  0  0  0  0  0  0  0  0
   -5.8882    1.1011    2.7070 C   0  0  0  0  0  0  0  0  0  0  0  0
   -7.2535    1.8559    3.4309 Cl  0  0  0  0  0  0  0  0  0  0  0  0
   -5.9179   -0.2625    2.4252 C   0  0  0  0  0  0  0  0  0  0  0  0
   -4.8066   -0.8732    1.8375 C   0  0  0  0  0  0  0  0  0  0  0  0
   -2.4386   -2.0866    0.7535 N   0  0  0  0  0  0  0  0  0  0  0  0
   -1.2057   -2.3714    0.1275 O   0  0  0  0  0  0  0  0  0  0  0  0
    3.8754    4.3250    2.8469 H   0  0  0  0  0  0  0  0  0  0  0  0
    5.6331    5.4217    1.0108 H   0  0  0  0  0  0  0  0  0  0  0  0
    4.8746    1.6722   -0.4369 H   0  0  0  0  0  0  0  0  0  0  0  0
    2.5336   -0.8552    2.6100 H   0  0  0  0  0  0  0  0  0  0  0  0
    0.9590   -0.1450    2.3622 H   0  0  0  0  0  0  0  0  0  0  0  0
    2.5134   -2.1217    0.6550 H   0  0  0  0  0  0  0  0  0  0  0  0
    0.9699   -2.4080    1.3954 H   0  0  0  0  0  0  0  0  0  0  0  0
    1.0755    0.3862   -1.9229 H   0  0  0  0  0  0  0  0  0  0  0  0
    2.5916   -0.3024   -1.4114 H   0  0  0  0  0  0  0  0  0  0  0  0
    2.3360    1.9362   -0.5107 H   0  0  0  0  0  0  0  0  0  0  0  0
    0.8329    1.5534    0.2733 H   0  0  0  0  0  0  0  0  0  0  0  0
    2.0958   -3.9878   -3.1341 H   0  0  0  0  0  0  0  0  0  0  0  0
    1.0112   -4.4236   -5.3183 H   0  0  0  0  0  0  0  0  0  0  0  0
   -2.1374   -1.6633   -4.3097 H   0  0  0  0  0  0  0  0  0  0  0  0
   -0.7235    0.1771    1.3492 H   0  0  0  0  0  0  0  0  0  0  0  0
   -1.5282    0.8598   -0.0802 H   0  0  0  0  0  0  0  0  0  0  0  0
   -2.7753    1.8646    1.6009 H   0  0  0  0  0  0  0  0  0  0  0  0
   -4.7354    2.9225    2.6287 H   0  0  0  0  0  0  0  0  0  0  0  0
   -6.7982   -0.8561    2.6579 H   0  0  0  0  0  0  0  0  0  0  0  0
   -4.8406   -1.9396    1.6203 H   0  0  0  0  0  0  0  0  0  0  0  0
  1  2  2  0
  2  3  1  0
  3  4  1  0
  4  5  2  0
  5  6  1  0
  6  7  1  0
  2  8  1  0
  8  9  1  0
  9 10  1  0
 10 11  1  0
 11 12  1  0
 12 13  1  0
 11 14  1  0
 14 15  1  0
 15 16  2  0
 16 17  1  0
 17 18  2  0
 18 19  1  0
 18 20  1  0
 20 21  2  0
 21 22  1  0
 22 23  2  0
 22 24  1  0
 24 25  1  0
 25 26  1  0
 26 27  1  0
 27 28  2  0
 28 29  1  0
 29 30  2  0
 30 31  1  0
 30 32  1  0
 32 33  2  0
 26 34  2  0
 34 35  1  0
  7  3  2  0
 13  8  1  0
 21 15  1  0
 35 24  1  0
 24 11  1  0
 33 27  1  0
  4 36  1  0
  5 37  1  0
  7 38  1  0
  9 39  1  0
  9 40  1  0
 10 41  1  0
 10 42  1  0
 12 43  1  0
 12 44  1  0
 13 45  1  0
 13 46  1  0
 16 47  1  0
 17 48  1  0
 20 49  1  0
 25 50  1  0
 25 51  1  0
 28 52  1  0
 29 53  1  0
 32 54  1  0
 33 55  1  0
M  END
$$$$
