
     RDKit          3D

 48 51  0  0  0  0  0  0  0  0999 V2000
   -1.4405    2.3662   -2.0887 C   0  0  0  0  0  0  0  0  0  0  0  0
   -0.8956    2.7956   -0.7389 C   0  0  0  0  0  0  0  0  0  0  0  0
   -0.9106    1.7266    0.2340 N   0  0  0  0  0  0  0  0  0  0  0  0
   -1.9041    1.4589    1.1427 C   0  0  0  0  0  0  0  0  0  0  0  0
   -3.3945    2.3284    1.2448 S   0  0  0  0  0  0  0  0  0  0  0  0
   -4.4819    1.0667    1.9739 C   0  0  0  0  0  0  0  0  0  0  0  0
   -5.0140    0.1012    0.9423 C   0  0  0  0  0  0  0  0  0  0  0  0
   -6.1815    0.4037    0.2205 C   0  0  0  0  0  0  0  0  0  0  0  0
   -6.6694   -0.4858   -0.7374 C   0  0  0  0  0  0  0  0  0  0  0  0
   -5.9889   -1.6724   -0.9811 C   0  0  0  0  0  0  0  0  0  0  0  0
   -6.4528   -2.5199   -1.9101 F   0  0  0  0  0  0  0  0  0  0  0  0
   -4.8299   -1.9886   -0.2836 C   0  0  0  0  0  0  0  0  0  0  0  0
   -4.3414   -1.1020    0.6775 C   0  0  0  0  0  0  0  0  0  0  0  0
   -1.5455    0.4627    1.9133 N   0  0  0  0  0  0  0  0  0  0  0  0
   -0.3254    0.0227    1.4767 N   0  0  0  0  0  0  0  0  0  0  0  0
    0.0532    0.7655    0.4542 C   0  0  0  0  0  0  0  0  0  0  0  0
    1.4035    0.5115   -0.2867 C   0  0  0  0  0  0  0  0  0  0  0  0
    1.9919    1.1946   -1.3558 C   0  0  0  0  0  0  0  0  0  0  0  0
    3.1690    0.6785   -1.6956 N   0  0  0  0  0  0  0  0  0  0  0  0
    3.4254   -0.2629   -0.7427 N   0  0  0  0  0  0  0  0  0  0  0  0
    4.7630   -0.7475   -0.6127 C   0  0  0  0  0  0  0  0  0  0  0  0
    5.2408   -1.3138    0.5757 C   0  0  0  0  0  0  0  0  0  0  0  0
    6.5661   -1.7519    0.6657 C   0  0  0  0  0  0  0  0  0  0  0  0
    7.4280   -1.6140   -0.4185 C   0  0  0  0  0  0  0  0  0  0  0  0
    6.9723   -1.0262   -1.5944 C   0  0  0  0  0  0  0  0  0  0  0  0
    5.6498   -0.5875   -1.6904 C   0  0  0  0  0  0  0  0  0  0  0  0
    2.2795   -0.5287   -0.0150 C   0  0  0  0  0  0  0  0  0  0  0  0
    2.1051   -1.7363    0.8072 C   0  0  0  0  0  0  0  0  0  0  0  0
    2.4040   -1.5105    2.1084 F   0  0  0  0  0  0  0  0  0  0  0  0
    2.8909   -2.7659    0.3960 F   0  0  0  0  0  0  0  0  0  0  0  0
    0.8426   -2.2247    0.7566 F   0  0  0  0  0  0  0  0  0  0  0  0
   -0.8678    1.5314   -2.5049 H   0  0  0  0  0  0  0  0  0  0  0  0
   -1.3950    3.1991   -2.7963 H   0  0  0  0  0  0  0  0  0  0  0  0
   -2.4837    2.0449   -2.0118 H   0  0  0  0  0  0  0  0  0  0  0  0
    0.1281    3.1674   -0.8212 H   0  0  0  0  0  0  0  0  0  0  0  0
   -1.4777    3.6362   -0.3485 H   0  0  0  0  0  0  0  0  0  0  0  0
   -3.9808    0.5329    2.7885 H   0  0  0  0  0  0  0  0  0  0  0  0
   -5.3262    1.5893    2.4397 H   0  0  0  0  0  0  0  0  0  0  0  0
   -6.7165    1.3330    0.4028 H   0  0  0  0  0  0  0  0  0  0  0  0
   -7.5727   -0.2607   -1.2957 H   0  0  0  0  0  0  0  0  0  0  0  0
   -4.3107   -2.9198   -0.4910 H   0  0  0  0  0  0  0  0  0  0  0  0
   -3.4294   -1.3554    1.2177 H   0  0  0  0  0  0  0  0  0  0  0  0
    1.6355    2.0385   -1.9292 H   0  0  0  0  0  0  0  0  0  0  0  0
    4.6335   -1.3996    1.4699 H   0  0  0  0  0  0  0  0  0  0  0  0
    6.9290   -2.1915    1.5928 H   0  0  0  0  0  0  0  0  0  0  0  0
    8.4576   -1.9543   -0.3423 H   0  0  0  0  0  0  0  0  0  0  0  0
    7.6456   -0.9054   -2.4385 H   0  0  0  0  0  0  0  0  0  0  0  0
    5.3220   -0.1304   -2.6218 H   0  0  0  0  0  0  0  0  0  0  0  0
  1  2  1  0
  2  3  1  0
  3  4  1  0
  4  5  1  0
  5  6  1  0
  6  7  1  0
  7  8  2  0
  8  9  1  0
  9 10  2  0
 10 11  1  0
 10 12  1  0
 12 13  2  0
  4 14  2  0
 14 15  1  0
 15 16  2  0
 16 17  1  0
 17 18  1  0
 18 19  2  0
 19 20  1  0
 20 21  1  0
 21 22  2  0
 22 23  1  0
 23 24  2  0
 24 25  1  0
 25 26  2  0
 20 27  1  0
 27 28  1  0
 28 29  1  0
 28 30  1  0
 28 31  1  0
 16  3  1  0
 27 17  2  0
 13  7  1  0
 26 21  1  0
  1 32  1  0
  1 33  1  0
  1 34  1  0
  2 35  1  0
  2 36  1  0
  6 37  1  0
  6 38  1  0
  8 39  1  0
  9 40  1  0
 12 41  1  0
 13 42  1  0
 18 43  1  0
 22 44  1  0
 23 45  1  0
 24 46  1  0
 25 47  1  0
 26 48  1  0
M  END
$$$$
