
     RDKit          3D

 47 50  0  0  0  0  0  0  0  0999 V2000
   -6.1286    0.4267   -2.2402 C   0  0  0  0  0  0  0  0  0  0  0  0
   -6.1049    1.2558   -0.9633 C   0  0  0  0  0  0  0  0  0  0  0  0
   -4.6886    1.4693   -0.4326 C   0  0  0  0  0  0  0  0  0  0  0  0
   -4.1419    0.2068   -0.0569 O   0  0  0  0  0  0  0  0  0  0  0  0
   -2.9031    0.1972    0.5251 C   0  0  0  0  0  0  0  0  0  0  0  0
   -2.0866    1.3198    0.6824 C   0  0  0  0  0  0  0  0  0  0  0  0
   -0.8474    1.2158    1.3285 C   0  0  0  0  0  0  0  0  0  0  0  0
   -0.4034   -0.0135    1.8237 C   0  0  0  0  0  0  0  0  0  0  0  0
    0.8663   -0.1393    2.5438 C   0  0  0  0  0  0  0  0  0  0  0  0
    2.0931    0.0602    2.0389 C   0  0  0  0  0  0  0  0  0  0  0  0
    3.5364   -0.1482    3.0354 S   0  0  0  0  0  0  0  0  0  0  0  0
    4.5184    0.2482    1.6898 C   0  0  0  0  0  0  0  0  0  0  0  0
    5.7968    0.3604    1.4789 N   0  0  0  0  0  0  0  0  0  0  0  0
    5.8258    0.7174    0.1392 C   0  0  0  0  0  0  0  0  0  0  0  0
    7.1661    0.9754   -0.6247 C   0  0  0  0  0  0  0  0  0  0  0  0
    7.2836    1.3308   -1.9552 C   0  0  0  0  0  0  0  0  0  0  0  0
    8.6684    1.4578   -2.2231 C   0  0  0  0  0  0  0  0  0  0  0  0
    9.3114    1.1737   -1.0422 C   0  0  0  0  0  0  0  0  0  0  0  0
    8.4122    0.8811   -0.0685 O   0  0  0  0  0  0  0  0  0  0  0  0
    4.6173    0.8253   -0.4535 N   0  0  0  0  0  0  0  0  0  0  0  0
    3.8100    0.5144    0.5764 N   0  0  0  0  0  0  0  0  0  0  0  0
    2.4332    0.4467    0.6283 C   0  0  0  0  0  0  0  0  0  0  0  0
    1.7187    0.6769   -0.3283 O   0  0  0  0  0  0  0  0  0  0  0  0
   -1.2162   -1.1386    1.6730 C   0  0  0  0  0  0  0  0  0  0  0  0
   -2.4407   -1.0374    1.0057 C   0  0  0  0  0  0  0  0  0  0  0  0
   -3.1809   -2.1916    0.9238 O   0  0  0  0  0  0  0  0  0  0  0  0
   -3.2484   -2.6691   -0.4248 C   0  0  0  0  0  0  0  0  0  0  0  0
   -3.6838   -4.1228   -0.3802 C   0  0  0  0  0  0  0  0  0  0  0  0
   -5.7311   -0.5787   -2.0707 H   0  0  0  0  0  0  0  0  0  0  0  0
   -7.1556    0.3243   -2.6040 H   0  0  0  0  0  0  0  0  0  0  0  0
   -5.5359    0.9035   -3.0274 H   0  0  0  0  0  0  0  0  0  0  0  0
   -6.5692    2.2291   -1.1580 H   0  0  0  0  0  0  0  0  0  0  0  0
   -6.7079    0.7426   -0.2048 H   0  0  0  0  0  0  0  0  0  0  0  0
   -4.0722    1.9337   -1.2115 H   0  0  0  0  0  0  0  0  0  0  0  0
   -4.7417    2.1296    0.4415 H   0  0  0  0  0  0  0  0  0  0  0  0
   -2.3818    2.2973    0.3162 H   0  0  0  0  0  0  0  0  0  0  0  0
   -0.2383    2.1108    1.4370 H   0  0  0  0  0  0  0  0  0  0  0  0
    0.7497   -0.4489    3.5821 H   0  0  0  0  0  0  0  0  0  0  0  0
    6.4614    1.4773   -2.6426 H   0  0  0  0  0  0  0  0  0  0  0  0
    9.1388    1.7227   -3.1595 H   0  0  0  0  0  0  0  0  0  0  0  0
   10.3499    1.1375   -0.7433 H   0  0  0  0  0  0  0  0  0  0  0  0
   -0.9087   -2.1053    2.0631 H   0  0  0  0  0  0  0  0  0  0  0  0
   -3.9846   -2.0955   -0.9960 H   0  0  0  0  0  0  0  0  0  0  0  0
   -2.2710   -2.5999   -0.9191 H   0  0  0  0  0  0  0  0  0  0  0  0
   -3.7641   -4.5367   -1.3892 H   0  0  0  0  0  0  0  0  0  0  0  0
   -4.6529   -4.2199    0.1201 H   0  0  0  0  0  0  0  0  0  0  0  0
   -2.9679   -4.7227    0.1912 H   0  0  0  0  0  0  0  0  0  0  0  0
  1  2  1  0
  2  3  1  0
  3  4  1  0
  4  5  1  0
  5  6  2  0
  6  7  1  0
  7  8  2  0
  8  9  1  0
  9 10  2  3
 10 11  1  0
 11 12  1  0
 12 13  2  0
 13 14  1  0
 14 15  1  0
 15 16  2  0
 16 17  1  0
 17 18  2  0
 18 19  1  0
 14 20  2  0
 20 21  1  0
 21 22  1  0
 22 23  2  0
  8 24  1  0
 24 25  2  0
 25 26  1  0
 26 27  1  0
 27 28  1  0
 25  5  1  0
 22 10  1  0
 21 12  1  0
 19 15  1  0
  1 29  1  0
  1 30  1  0
  1 31  1  0
  2 32  1  0
  2 33  1  0
  3 34  1  0
  3 35  1  0
  6 36  1  0
  7 37  1  0
  9 38  1  0
 16 39  1  0
 17 40  1  0
 18 41  1  0
 24 42  1  0
 27 43  1  0
 27 44  1  0
 28 45  1  0
 28 46  1  0
 28 47  1  0
M  END
$$$$
