
     RDKit          3D

 33 33  0  0  0  0  0  0  0  0999 V2000
   -4.7055   -0.0084    0.5622 C   0  0  0  0  0  0  0  0  0  0  0  0
   -3.4627   -0.8289    0.2123 C   0  0  0  0  0  0  0  0  0  0  0  0
   -3.4788   -2.1491    0.9856 C   0  0  0  0  0  0  0  0  0  0  0  0
   -2.2149   -0.1316    0.5465 N   0  0  0  0  0  0  0  0  0  0  0  0
   -1.9195    0.9844   -0.3501 C   0  0  0  0  0  0  0  0  0  0  0  0
   -0.5543    1.5929   -0.0322 C   0  0  0  0  0  0  0  0  0  0  0  0
    0.5972    0.6084   -0.2245 C   0  0  0  0  0  0  0  0  0  0  0  0
    1.8168    1.3221   -0.0088 O   0  0  0  0  0  0  0  0  0  0  0  0
    2.9941    0.6351   -0.1392 C   0  0  0  0  0  0  0  0  0  0  0  0
    3.0865   -0.7284   -0.4399 C   0  0  0  0  0  0  0  0  0  0  0  0
    4.3368   -1.3465   -0.5524 C   0  0  0  0  0  0  0  0  0  0  0  0
    5.5004   -0.6051   -0.3646 C   0  0  0  0  0  0  0  0  0  0  0  0
    7.0334   -1.3728   -0.5049 Cl  0  0  0  0  0  0  0  0  0  0  0  0
    5.4303    0.7509   -0.0642 C   0  0  0  0  0  0  0  0  0  0  0  0
    4.1800    1.3662    0.0479 C   0  0  0  0  0  0  0  0  0  0  0  0
    4.1457    3.2227    0.4600 Br  0  0  0  0  0  0  0  0  0  0  0  0
   -5.6154   -0.5880    0.3712 H   0  0  0  0  0  0  0  0  0  0  0  0
   -4.7106    0.2815    1.6189 H   0  0  0  0  0  0  0  0  0  0  0  0
   -4.7694    0.9028   -0.0406 H   0  0  0  0  0  0  0  0  0  0  0  0
   -3.4783   -1.0717   -0.8573 H   0  0  0  0  0  0  0  0  0  0  0  0
   -4.3745   -2.7300    0.7399 H   0  0  0  0  0  0  0  0  0  0  0  0
   -3.4726   -1.9833    2.0690 H   0  0  0  0  0  0  0  0  0  0  0  0
   -2.6074   -2.7634    0.7317 H   0  0  0  0  0  0  0  0  0  0  0  0
   -2.2549    0.2019    1.5107 H   0  0  0  0  0  0  0  0  0  0  0  0
   -2.6766    1.7694   -0.2501 H   0  0  0  0  0  0  0  0  0  0  0  0
   -1.9245    0.6456   -1.3929 H   0  0  0  0  0  0  0  0  0  0  0  0
   -0.5360    1.9813    0.9944 H   0  0  0  0  0  0  0  0  0  0  0  0
   -0.3917    2.4653   -0.6780 H   0  0  0  0  0  0  0  0  0  0  0  0
    0.5143   -0.2095    0.5003 H   0  0  0  0  0  0  0  0  0  0  0  0
    0.5734    0.2124   -1.2468 H   0  0  0  0  0  0  0  0  0  0  0  0
    2.2043   -1.3428   -0.5912 H   0  0  0  0  0  0  0  0  0  0  0  0
    4.3925   -2.4070   -0.7859 H   0  0  0  0  0  0  0  0  0  0  0  0
    6.3418    1.3237    0.0817 H   0  0  0  0  0  0  0  0  0  0  0  0
  1  2  1  0
  2  3  1  0
  2  4  1  0
  4  5  1  0
  5  6  1  0
  6  7  1  0
  7  8  1  0
  8  9  1  0
  9 10  2  0
 10 11  1  0
 11 12  2  0
 12 13  1  0
 12 14  1  0
 14 15  2  0
 15 16  1  0
 15  9  1  0
  1 17  1  0
  1 18  1  0
  1 19  1  0
  2 20  1  0
  3 21  1  0
  3 22  1  0
  3 23  1  0
  4 24  1  0
  5 25  1  0
  5 26  1  0
  6 27  1  0
  6 28  1  0
  7 29  1  0
  7 30  1  0
 10 31  1  0
 11 32  1  0
 14 33  1  0
M  END
$$$$
