
     RDKit          3D

 59 62  0  0  0  0  0  0  0  0999 V2000
   -6.2472    1.7468   -3.8864 C   0  0  0  0  0  0  0  0  0  0  0  0
   -5.6714    0.4505   -4.0098 O   0  0  0  0  0  0  0  0  0  0  0  0
   -4.7000    0.1191   -3.1053 C   0  0  0  0  0  0  0  0  0  0  0  0
   -4.2380   -1.1965   -3.2010 C   0  0  0  0  0  0  0  0  0  0  0  0
   -3.2546   -1.6719   -2.3290 C   0  0  0  0  0  0  0  0  0  0  0  0
   -2.7222   -0.8328   -1.3446 C   0  0  0  0  0  0  0  0  0  0  0  0
   -1.7129   -1.3392   -0.4249 C   0  0  0  0  0  0  0  0  0  0  0  0
   -0.4163   -1.7417   -0.6733 C   0  0  0  0  0  0  0  0  0  0  0  0
    0.1919   -2.2038    0.4632 N   0  0  0  0  0  0  0  0  0  0  0  0
   -0.7185   -2.1034    1.4040 C   0  0  0  0  0  0  0  0  0  0  0  0
   -0.4754   -2.5850    3.0493 S   0  0  0  0  0  0  0  0  0  0  0  0
    1.1323   -3.4160    2.9408 C   0  0  0  0  0  0  0  0  0  0  0  0
    2.2687   -2.4139    3.0404 C   0  0  0  0  0  0  0  0  0  0  0  0
    2.8220   -2.2144    4.1207 O   0  0  0  0  0  0  0  0  0  0  0  0
    2.5681   -1.8154    1.8394 N   0  0  0  0  0  0  0  0  0  0  0  0
    3.5798   -0.9331    1.5796 C   0  0  0  0  0  0  0  0  0  0  0  0
    3.6669   -0.3115    0.4267 N   0  0  0  0  0  0  0  0  0  0  0  0
    4.7869    0.5126    0.4005 C   0  0  0  0  0  0  0  0  0  0  0  0
    5.0813    1.3286   -0.8502 C   0  0  0  0  0  0  0  0  0  0  0  0
    6.1761    0.6283   -1.6759 C   0  0  0  0  0  0  0  0  0  0  0  0
    5.5586    2.7494   -0.4819 C   0  0  0  0  0  0  0  0  0  0  0  0
    3.8244    1.4750   -1.7339 C   0  0  0  0  0  0  0  0  0  0  0  0
    5.5480    0.4556    1.5558 C   0  0  0  0  0  0  0  0  0  0  0  0
    4.8302   -0.6087    2.6876 S   0  0  0  0  0  0  0  0  0  0  0  0
   -1.8920   -1.5621    0.9333 N   0  0  0  0  0  0  0  0  0  0  0  0
   -3.1231   -1.3446    1.6839 C   0  0  0  0  0  0  0  0  0  0  0  0
   -3.1938    0.0377    2.2272 C   0  0  0  0  0  0  0  0  0  0  0  0
   -2.3140    0.8561    2.9058 C   0  0  0  0  0  0  0  0  0  0  0  0
   -2.9949    2.0743    3.1382 C   0  0  0  0  0  0  0  0  0  0  0  0
   -4.2492    1.9201    2.6008 C   0  0  0  0  0  0  0  0  0  0  0  0
   -4.3810    0.6894    2.0496 O   0  0  0  0  0  0  0  0  0  0  0  0
   -3.1708    0.4894   -1.2639 C   0  0  0  0  0  0  0  0  0  0  0  0
   -4.1577    0.9650   -2.1383 C   0  0  0  0  0  0  0  0  0  0  0  0
   -5.5053    2.5277   -4.0738 H   0  0  0  0  0  0  0  0  0  0  0  0
   -7.0320    1.8413   -4.6468 H   0  0  0  0  0  0  0  0  0  0  0  0
   -6.7166    1.8767   -2.9062 H   0  0  0  0  0  0  0  0  0  0  0  0
   -4.6521   -1.8598   -3.9578 H   0  0  0  0  0  0  0  0  0  0  0  0
   -2.9188   -2.7032   -2.4208 H   0  0  0  0  0  0  0  0  0  0  0  0
    0.1060   -1.7210   -1.6225 H   0  0  0  0  0  0  0  0  0  0  0  0
    1.2170   -4.1065    3.7867 H   0  0  0  0  0  0  0  0  0  0  0  0
    1.2233   -4.0208    2.0315 H   0  0  0  0  0  0  0  0  0  0  0  0
    1.9036   -1.9124    1.0721 H   0  0  0  0  0  0  0  0  0  0  0  0
    5.8614   -0.3750   -1.9820 H   0  0  0  0  0  0  0  0  0  0  0  0
    6.4119    1.1965   -2.5820 H   0  0  0  0  0  0  0  0  0  0  0  0
    7.1034    0.5185   -1.1016 H   0  0  0  0  0  0  0  0  0  0  0  0
    5.7370    3.3541   -1.3789 H   0  0  0  0  0  0  0  0  0  0  0  0
    4.8124    3.2712    0.1311 H   0  0  0  0  0  0  0  0  0  0  0  0
    6.4955    2.7286    0.0839 H   0  0  0  0  0  0  0  0  0  0  0  0
    3.4580    0.5012   -2.0793 H   0  0  0  0  0  0  0  0  0  0  0  0
    4.0348    2.0795   -2.6239 H   0  0  0  0  0  0  0  0  0  0  0  0
    3.0086    1.9615   -1.1851 H   0  0  0  0  0  0  0  0  0  0  0  0
    6.4679    0.9744    1.7891 H   0  0  0  0  0  0  0  0  0  0  0  0
   -3.1870   -2.0814    2.4888 H   0  0  0  0  0  0  0  0  0  0  0  0
   -3.9638   -1.5497    1.0106 H   0  0  0  0  0  0  0  0  0  0  0  0
   -1.3005    0.6121    3.1928 H   0  0  0  0  0  0  0  0  0  0  0  0
   -2.6165    2.9552    3.6382 H   0  0  0  0  0  0  0  0  0  0  0  0
   -5.1182    2.5601    2.5326 H   0  0  0  0  0  0  0  0  0  0  0  0
   -2.7576    1.1680   -0.5210 H   0  0  0  0  0  0  0  0  0  0  0  0
   -4.4745    1.9992   -2.0339 H   0  0  0  0  0  0  0  0  0  0  0  0
  1  2  1  0
  2  3  1  0
  3  4  2  0
  4  5  1  0
  5  6  2  0
  6  7  1  0
  7  8  2  0
  8  9  1  0
  9 10  2  0
 10 11  1  0
 11 12  1  0
 12 13  1  0
 13 14  2  0
 13 15  1  0
 15 16  1  0
 16 17  2  0
 17 18  1  0
 18 19  1  0
 19 20  1  0
 19 21  1  0
 19 22  1  0
 18 23  2  0
 23 24  1  0
 10 25  1  0
 25 26  1  0
 26 27  1  0
 27 28  2  0
 28 29  1  0
 29 30  2  0
 30 31  1  0
  6 32  1  0
 32 33  2  0
 33  3  1  0
 25  7  1  0
 31 27  1  0
 24 16  1  0
  1 34  1  0
  1 35  1  0
  1 36  1  0
  4 37  1  0
  5 38  1  0
  8 39  1  0
 12 40  1  0
 12 41  1  0
 15 42  1  0
 20 43  1  0
 20 44  1  0
 20 45  1  0
 21 46  1  0
 21 47  1  0
 21 48  1  0
 22 49  1  0
 22 50  1  0
 22 51  1  0
 23 52  1  0
 26 53  1  0
 26 54  1  0
 28 55  1  0
 29 56  1  0
 30 57  1  0
 32 58  1  0
 33 59  1  0
M  END
$$$$
