
     RDKit          3D

 33 33  0  0  0  0  0  0  0  0999 V2000
   -4.9549   -0.2328    0.1816 C   0  0  0  0  0  0  0  0  0  0  0  0
   -3.4461   -0.1323    0.4282 C   0  0  0  0  0  0  0  0  0  0  0  0
   -3.1515   -0.4075    1.9038 C   0  0  0  0  0  0  0  0  0  0  0  0
   -2.7780   -1.0820   -0.4710 N   0  0  0  0  0  0  0  0  0  0  0  0
   -1.3132   -1.0504   -0.4449 C   0  0  0  0  0  0  0  0  0  0  0  0
   -0.7156    0.2364   -1.0224 C   0  0  0  0  0  0  0  0  0  0  0  0
    0.8078    0.1607   -1.1136 C   0  0  0  0  0  0  0  0  0  0  0  0
    1.3442    0.0342    0.2089 O   0  0  0  0  0  0  0  0  0  0  0  0
    2.6958    0.2555    0.2174 C   0  0  0  0  0  0  0  0  0  0  0  0
    3.5558   -0.7275   -0.2780 C   0  0  0  0  0  0  0  0  0  0  0  0
    4.9363   -0.5265   -0.2358 C   0  0  0  0  0  0  0  0  0  0  0  0
    5.4491    0.6485    0.3145 C   0  0  0  0  0  0  0  0  0  0  0  0
    7.1520    0.8917    0.3637 Cl  0  0  0  0  0  0  0  0  0  0  0  0
    4.5972    1.6241    0.8306 C   0  0  0  0  0  0  0  0  0  0  0  0
    3.2167    1.4218    0.7886 C   0  0  0  0  0  0  0  0  0  0  0  0
    2.0823    2.7625    1.5046 Br  0  0  0  0  0  0  0  0  0  0  0  0
   -5.2009   -0.0007   -0.8608 H   0  0  0  0  0  0  0  0  0  0  0  0
   -5.3332   -1.2370    0.4043 H   0  0  0  0  0  0  0  0  0  0  0  0
   -5.4984    0.4787    0.8130 H   0  0  0  0  0  0  0  0  0  0  0  0
   -3.1462    0.8938    0.1881 H   0  0  0  0  0  0  0  0  0  0  0  0
   -3.3776   -1.4460    2.1703 H   0  0  0  0  0  0  0  0  0  0  0  0
   -3.7579    0.2409    2.5460 H   0  0  0  0  0  0  0  0  0  0  0  0
   -2.1033   -0.2111    2.1498 H   0  0  0  0  0  0  0  0  0  0  0  0
   -3.1002   -0.9266   -1.4260 H   0  0  0  0  0  0  0  0  0  0  0  0
   -0.9676   -1.8967   -1.0514 H   0  0  0  0  0  0  0  0  0  0  0  0
   -0.9363   -1.2434    0.5646 H   0  0  0  0  0  0  0  0  0  0  0  0
   -0.9851    1.0869   -0.3860 H   0  0  0  0  0  0  0  0  0  0  0  0
   -1.1234    0.4222   -2.0229 H   0  0  0  0  0  0  0  0  0  0  0  0
    1.1034   -0.7011   -1.7239 H   0  0  0  0  0  0  0  0  0  0  0  0
    1.1781    1.0772   -1.5913 H   0  0  0  0  0  0  0  0  0  0  0  0
    3.1569   -1.6536   -0.6829 H   0  0  0  0  0  0  0  0  0  0  0  0
    5.6051   -1.2908   -0.6236 H   0  0  0  0  0  0  0  0  0  0  0  0
    5.0089    2.5308    1.2651 H   0  0  0  0  0  0  0  0  0  0  0  0
  1  2  1  0
  2  3  1  0
  2  4  1  0
  4  5  1  0
  5  6  1  0
  6  7  1  0
  7  8  1  0
  8  9  1  0
  9 10  2  0
 10 11  1  0
 11 12  2  0
 12 13  1  0
 12 14  1  0
 14 15  2  0
 15 16  1  0
 15  9  1  0
  1 17  1  0
  1 18  1  0
  1 19  1  0
  2 20  1  0
  3 21  1  0
  3 22  1  0
  3 23  1  0
  4 24  1  0
  5 25  1  0
  5 26  1  0
  6 27  1  0
  6 28  1  0
  7 29  1  0
  7 30  1  0
 10 31  1  0
 11 32  1  0
 14 33  1  0
M  END
$$$$
