
     RDKit          3D

 53 52  0  0  0  0  0  0  0  0999 V2000
   -7.6285    3.4905    0.2878 C   0  0  0  0  0  0  0  0  0  0  0  0
   -7.5963    2.1136   -0.3752 C   0  0  0  0  0  0  0  0  0  0  0  0
   -7.8044    2.2414   -1.8842 C   0  0  0  0  0  0  0  0  0  0  0  0
   -6.3211    1.3242   -0.0266 C   0  0  0  0  0  0  0  0  0  0  0  0
   -5.0102    1.9697   -0.4782 C   0  0  0  0  0  0  0  0  0  0  0  0
   -3.8690    1.1593   -0.0998 N   0  0  0  0  0  0  0  0  0  0  0  0
   -3.4239    0.1171   -0.8859 C   0  0  0  0  0  0  0  0  0  0  0  0
   -3.9594   -0.2072   -1.9403 O   0  0  0  0  0  0  0  0  0  0  0  0
   -2.2605   -0.6407   -0.2768 C   0  0  0  0  0  0  0  0  0  0  0  0
   -1.3718   -1.2977   -1.3268 C   0  0  0  0  0  0  0  0  0  0  0  0
   -0.2323   -0.1065   -2.1241 S   0  0  0  0  0  0  0  0  0  0  0  0
    1.0649    0.0127   -0.8436 C   0  0  0  0  0  0  0  0  0  0  0  0
    2.0572   -1.1373   -0.9563 C   0  0  0  0  0  0  0  0  0  0  0  0
    3.1217   -1.0378    0.1159 C   0  0  0  0  0  0  0  0  0  0  0  0
    3.1019   -0.2036    1.0138 O   0  0  0  0  0  0  0  0  0  0  0  0
    4.1017   -2.0003   -0.0103 N   0  0  0  0  0  0  0  0  0  0  0  0
    5.2504   -2.0416    0.8748 C   0  0  0  0  0  0  0  0  0  0  0  0
    6.3486   -1.0878    0.4010 C   0  0  0  0  0  0  0  0  0  0  0  0
    7.6212   -1.0699    1.2673 C   0  0  0  0  0  0  0  0  0  0  0  0
    7.3474   -0.5847    2.6909 C   0  0  0  0  0  0  0  0  0  0  0  0
    8.3287   -2.4247    1.2906 C   0  0  0  0  0  0  0  0  0  0  0  0
   -7.4657    3.4076    1.3675 H   0  0  0  0  0  0  0  0  0  0  0  0
   -8.6024    3.9679    0.1330 H   0  0  0  0  0  0  0  0  0  0  0  0
   -6.8654    4.1586   -0.1240 H   0  0  0  0  0  0  0  0  0  0  0  0
   -8.4429    1.5393    0.0236 H   0  0  0  0  0  0  0  0  0  0  0  0
   -7.7704    1.2591   -2.3665 H   0  0  0  0  0  0  0  0  0  0  0  0
   -7.0446    2.8780   -2.3485 H   0  0  0  0  0  0  0  0  0  0  0  0
   -8.7829    2.6841   -2.0997 H   0  0  0  0  0  0  0  0  0  0  0  0
   -6.2856    1.1723    1.0606 H   0  0  0  0  0  0  0  0  0  0  0  0
   -6.3995    0.3198   -0.4632 H   0  0  0  0  0  0  0  0  0  0  0  0
   -4.9940    2.1084   -1.5637 H   0  0  0  0  0  0  0  0  0  0  0  0
   -4.8692    2.9456   -0.0046 H   0  0  0  0  0  0  0  0  0  0  0  0
   -3.4319    1.3330    0.7956 H   0  0  0  0  0  0  0  0  0  0  0  0
   -2.7068   -1.4259    0.3463 H   0  0  0  0  0  0  0  0  0  0  0  0
   -1.6851    0.0080    0.3919 H   0  0  0  0  0  0  0  0  0  0  0  0
   -1.9700   -1.7615   -2.1177 H   0  0  0  0  0  0  0  0  0  0  0  0
   -0.7804   -2.0964   -0.8691 H   0  0  0  0  0  0  0  0  0  0  0  0
    1.5856    0.9650   -0.9952 H   0  0  0  0  0  0  0  0  0  0  0  0
    0.6083    0.0568    0.1500 H   0  0  0  0  0  0  0  0  0  0  0  0
    1.5569   -2.1048   -0.8370 H   0  0  0  0  0  0  0  0  0  0  0  0
    2.5521   -1.1181   -1.9349 H   0  0  0  0  0  0  0  0  0  0  0  0
    4.1199   -2.5751   -0.8432 H   0  0  0  0  0  0  0  0  0  0  0  0
    5.6031   -3.0772    0.8780 H   0  0  0  0  0  0  0  0  0  0  0  0
    4.9190   -1.7861    1.8863 H   0  0  0  0  0  0  0  0  0  0  0  0
    6.6256   -1.3495   -0.6291 H   0  0  0  0  0  0  0  0  0  0  0  0
    5.9449   -0.0681    0.3491 H   0  0  0  0  0  0  0  0  0  0  0  0
    8.3091   -0.3502    0.8044 H   0  0  0  0  0  0  0  0  0  0  0  0
    6.8254    0.3777    2.6813 H   0  0  0  0  0  0  0  0  0  0  0  0
    6.7395   -1.2989    3.2551 H   0  0  0  0  0  0  0  0  0  0  0  0
    8.2875   -0.4485    3.2366 H   0  0  0  0  0  0  0  0  0  0  0  0
    7.7414   -3.1823    1.8190 H   0  0  0  0  0  0  0  0  0  0  0  0
    8.5162   -2.7843    0.2735 H   0  0  0  0  0  0  0  0  0  0  0  0
    9.2959   -2.3429    1.7985 H   0  0  0  0  0  0  0  0  0  0  0  0
  1  2  1  0
  2  3  1  0
  2  4  1  0
  4  5  1  0
  5  6  1  0
  6  7  1  0
  7  8  2  0
  7  9  1  0
  9 10  1  0
 10 11  1  0
 11 12  1  0
 12 13  1  0
 13 14  1  0
 14 15  2  0
 14 16  1  0
 16 17  1  0
 17 18  1  0
 18 19  1  0
 19 20  1  0
 19 21  1  0
  1 22  1  0
  1 23  1  0
  1 24  1  0
  2 25  1  0
  3 26  1  0
  3 27  1  0
  3 28  1  0
  4 29  1  0
  4 30  1  0
  5 31  1  0
  5 32  1  0
  6 33  1  0
  9 34  1  0
  9 35  1  0
 10 36  1  0
 10 37  1  0
 12 38  1  0
 12 39  1  0
 13 40  1  0
 13 41  1  0
 16 42  1  0
 17 43  1  0
 17 44  1  0
 18 45  1  0
 18 46  1  0
 19 47  1  0
 20 48  1  0
 20 49  1  0
 20 50  1  0
 21 51  1  0
 21 52  1  0
 21 53  1  0
M  END
$$$$
