
     RDKit          3D

 27 27  0  0  0  0  0  0  0  0999 V2000
    3.5555   -1.1739   -0.3614 C   0  0  0  0  0  0  0  0  0  0  0  0
    2.3012   -0.4149   -0.1495 C   0  0  0  0  0  0  0  0  0  0  0  0
    2.1383    0.9636    0.0453 C   0  0  0  0  0  0  0  0  0  0  0  0
    0.7819    1.1685    0.2462 C   0  0  0  0  0  0  0  0  0  0  0  0
    0.1917    2.4327    0.5664 C   0  0  0  0  0  0  0  0  0  0  0  0
    0.6029    3.5404    0.2565 O   0  0  0  0  0  0  0  0  0  0  0  0
   -0.8735    2.3176    1.3782 O   0  0  0  0  0  0  0  0  0  0  0  0
    0.1979   -0.0688    0.0415 N   0  0  0  0  0  0  0  0  0  0  0  0
   -1.2245   -0.4579   -0.0992 C   0  0  0  0  0  0  0  0  0  0  0  0
   -1.3554   -1.8008   -0.8770 C   0  0  0  0  0  0  0  0  0  0  0  0
   -2.0357    0.5677   -0.9192 C   0  0  0  0  0  0  0  0  0  0  0  0
   -1.8536   -0.6828    1.2868 C   0  0  0  0  0  0  0  0  0  0  0  0
    1.1295   -1.0469   -0.1119 N   0  0  0  0  0  0  0  0  0  0  0  0
    3.7129   -1.8900    0.4516 H   0  0  0  0  0  0  0  0  0  0  0  0
    4.4211   -0.5046   -0.3957 H   0  0  0  0  0  0  0  0  0  0  0  0
    3.5167   -1.7251   -1.3065 H   0  0  0  0  0  0  0  0  0  0  0  0
    2.9085    1.7226    0.0860 H   0  0  0  0  0  0  0  0  0  0  0  0
   -1.1084    3.2506    1.5629 H   0  0  0  0  0  0  0  0  0  0  0  0
   -0.8953   -1.7315   -1.8700 H   0  0  0  0  0  0  0  0  0  0  0  0
   -2.4073   -2.0768   -1.0180 H   0  0  0  0  0  0  0  0  0  0  0  0
   -0.8793   -2.6314   -0.3424 H   0  0  0  0  0  0  0  0  0  0  0  0
   -1.5319    0.8042   -1.8637 H   0  0  0  0  0  0  0  0  0  0  0  0
   -3.0312    0.1774   -1.1634 H   0  0  0  0  0  0  0  0  0  0  0  0
   -2.2055    1.5059   -0.3896 H   0  0  0  0  0  0  0  0  0  0  0  0
   -1.3017   -1.4445    1.8503 H   0  0  0  0  0  0  0  0  0  0  0  0
   -2.8919   -1.0225    1.1974 H   0  0  0  0  0  0  0  0  0  0  0  0
   -1.8629    0.2213    1.8985 H   0  0  0  0  0  0  0  0  0  0  0  0
  1  2  1  0
  2  3  1  0
  3  4  2  0
  4  5  1  0
  5  6  2  0
  5  7  1  0
  4  8  1  0
  8  9  1  0
  9 10  1  0
  9 11  1  0
  9 12  1  0
  8 13  1  0
 13  2  2  0
  1 14  1  0
  1 15  1  0
  1 16  1  0
  3 17  1  0
  7 18  1  0
 10 19  1  0
 10 20  1  0
 10 21  1  0
 11 22  1  0
 11 23  1  0
 11 24  1  0
 12 25  1  0
 12 26  1  0
 12 27  1  0
M  END
$$$$
