
     RDKit          3D

 67 72  0  0  0  0  0  0  0  0999 V2000
    3.0138    1.1019   -2.2245 O   0  0  0  0  0  0  0  0  0  0  0  0
    2.5855    0.6532   -1.1577 C   0  0  0  0  0  0  0  0  0  0  0  0
    3.5388    0.1688   -0.0484 C   0  0  0  0  0  0  0  0  0  0  0  0
    4.9304    0.8047   -0.2206 C   0  0  0  0  0  0  0  0  0  0  0  0
    5.9700    0.2125    0.7066 C   0  0  0  0  0  0  0  0  0  0  0  0
    6.3297    0.8758    1.8876 C   0  0  0  0  0  0  0  0  0  0  0  0
    7.2702    0.3166    2.7535 C   0  0  0  0  0  0  0  0  0  0  0  0
    7.8595   -0.9085    2.4477 C   0  0  0  0  0  0  0  0  0  0  0  0
    7.5099   -1.5755    1.2751 C   0  0  0  0  0  0  0  0  0  0  0  0
    6.5694   -1.0187    0.4073 C   0  0  0  0  0  0  0  0  0  0  0  0
    2.9975    0.4791    1.2710 N   0  0  0  0  0  0  0  0  0  0  0  0
    1.6954    0.0032    1.4400 C   0  0  0  0  0  0  0  0  0  0  0  0
    1.4312   -0.4319    2.6804 N   0  0  0  0  0  0  0  0  0  0  0  0
    0.1726   -0.7934    2.9122 C   0  0  0  0  0  0  0  0  0  0  0  0
   -0.8362   -0.7072    2.0426 N   0  0  0  0  0  0  0  0  0  0  0  0
   -0.5575   -0.2378    0.8036 C   0  0  0  0  0  0  0  0  0  0  0  0
   -1.6798    0.0446   -0.0095 N   0  0  0  0  0  0  0  0  0  0  0  0
   -2.0828    1.4634    0.2348 C   0  0  0  0  0  0  0  0  0  0  0  0
   -3.5449    1.7354   -0.1868 C   0  0  0  0  0  0  0  0  0  0  0  0
   -4.4833    0.8762    0.5583 N   0  0  0  0  0  0  0  0  0  0  0  0
   -5.7718    1.2926    0.8457 C   0  0  0  0  0  0  0  0  0  0  0  0
   -6.4223    2.2673    0.0706 C   0  0  0  0  0  0  0  0  0  0  0  0
   -7.7276    2.6914    0.3499 C   0  0  0  0  0  0  0  0  0  0  0  0
   -8.4224    2.1465    1.4220 C   0  0  0  0  0  0  0  0  0  0  0  0
   -7.8101    1.1788    2.2081 C   0  0  0  0  0  0  0  0  0  0  0  0
   -6.5050    0.7602    1.9188 C   0  0  0  0  0  0  0  0  0  0  0  0
   -3.9315   -0.3847    1.0903 C   0  0  0  0  0  0  0  0  0  0  0  0
   -2.8015   -0.9166    0.1814 C   0  0  0  0  0  0  0  0  0  0  0  0
    0.7547    0.0668    0.4005 C   0  0  0  0  0  0  0  0  0  0  0  0
    1.2148    0.4311   -0.9237 N   0  0  0  0  0  0  0  0  0  0  0  0
    0.3732    0.4020   -2.1134 C   0  0  0  0  0  0  0  0  0  0  0  0
    0.5061   -0.9014   -2.8840 C   0  0  0  0  0  0  0  0  0  0  0  0
   -0.1499   -2.0648   -2.4585 C   0  0  0  0  0  0  0  0  0  0  0  0
   -0.0095   -3.2623   -3.1648 C   0  0  0  0  0  0  0  0  0  0  0  0
    0.7919   -3.3060   -4.3022 C   0  0  0  0  0  0  0  0  0  0  0  0
    0.9669   -4.7815   -5.1693 Cl  0  0  0  0  0  0  0  0  0  0  0  0
    1.4550   -2.1630   -4.7387 C   0  0  0  0  0  0  0  0  0  0  0  0
    1.3130   -0.9666   -4.0317 C   0  0  0  0  0  0  0  0  0  0  0  0
    3.6240   -0.9215   -0.1628 H   0  0  0  0  0  0  0  0  0  0  0  0
    5.2885    0.6767   -1.2506 H   0  0  0  0  0  0  0  0  0  0  0  0
    4.8715    1.8902   -0.0635 H   0  0  0  0  0  0  0  0  0  0  0  0
    5.8760    1.8318    2.1418 H   0  0  0  0  0  0  0  0  0  0  0  0
    7.5435    0.8377    3.6675 H   0  0  0  0  0  0  0  0  0  0  0  0
    8.5928   -1.3426    3.1222 H   0  0  0  0  0  0  0  0  0  0  0  0
    7.9717   -2.5300    1.0357 H   0  0  0  0  0  0  0  0  0  0  0  0
    6.3111   -1.5513   -0.5055 H   0  0  0  0  0  0  0  0  0  0  0  0
    3.5533    0.1551    2.0602 H   0  0  0  0  0  0  0  0  0  0  0  0
   -0.0586   -1.1727    3.9013 H   0  0  0  0  0  0  0  0  0  0  0  0
   -1.9834    1.7227    1.2990 H   0  0  0  0  0  0  0  0  0  0  0  0
   -1.4211    2.1331   -0.3274 H   0  0  0  0  0  0  0  0  0  0  0  0
   -3.6638    1.5505   -1.2611 H   0  0  0  0  0  0  0  0  0  0  0  0
   -3.7469    2.7960    0.0044 H   0  0  0  0  0  0  0  0  0  0  0  0
   -5.9290    2.7031   -0.7936 H   0  0  0  0  0  0  0  0  0  0  0  0
   -8.1974    3.4436   -0.2780 H   0  0  0  0  0  0  0  0  0  0  0  0
   -9.4348    2.4724    1.6425 H   0  0  0  0  0  0  0  0  0  0  0  0
   -8.3410    0.7470    3.0521 H   0  0  0  0  0  0  0  0  0  0  0  0
   -6.0625    0.0169    2.5755 H   0  0  0  0  0  0  0  0  0  0  0  0
   -3.5626   -0.2198    2.1089 H   0  0  0  0  0  0  0  0  0  0  0  0
   -4.7075   -1.1584    1.1283 H   0  0  0  0  0  0  0  0  0  0  0  0
   -2.4526   -1.8951    0.5359 H   0  0  0  0  0  0  0  0  0  0  0  0
   -3.2239   -1.1017   -0.8152 H   0  0  0  0  0  0  0  0  0  0  0  0
    0.6837    1.2268   -2.7695 H   0  0  0  0  0  0  0  0  0  0  0  0
   -0.6743    0.6177   -1.9288 H   0  0  0  0  0  0  0  0  0  0  0  0
   -0.7763   -2.0498   -1.5721 H   0  0  0  0  0  0  0  0  0  0  0  0
   -0.5261   -4.1542   -2.8211 H   0  0  0  0  0  0  0  0  0  0  0  0
    2.0856   -2.1939   -5.6229 H   0  0  0  0  0  0  0  0  0  0  0  0
    1.8471   -0.0824   -4.3775 H   0  0  0  0  0  0  0  0  0  0  0  0
  1  2  2  0
  2  3  1  0
  3  4  1  0
  4  5  1  0
  5  6  2  0
  6  7  1  0
  7  8  2  0
  8  9  1  0
  9 10  2  0
  3 11  1  0
 11 12  1  0
 12 13  2  0
 13 14  1  0
 14 15  2  0
 15 16  1  0
 16 17  1  0
 17 18  1  0
 18 19  1  0
 19 20  1  0
 20 21  1  0
 21 22  2  0
 22 23  1  0
 23 24  2  0
 24 25  1  0
 25 26  2  0
 20 27  1  0
 27 28  1  0
 16 29  2  0
 29 30  1  0
 30 31  1  0
 31 32  1  0
 32 33  2  0
 33 34  1  0
 34 35  2  0
 35 36  1  0
 35 37  1  0
 37 38  2  0
 30  2  1  0
 38 32  1  0
 10  5  1  0
 29 12  1  0
 28 17  1  0
 26 21  1  0
  3 39  1  0
  4 40  1  0
  4 41  1  0
  6 42  1  0
  7 43  1  0
  8 44  1  0
  9 45  1  0
 10 46  1  0
 11 47  1  0
 14 48  1  0
 18 49  1  0
 18 50  1  0
 19 51  1  0
 19 52  1  0
 22 53  1  0
 23 54  1  0
 24 55  1  0
 25 56  1  0
 26 57  1  0
 27 58  1  0
 27 59  1  0
 28 60  1  0
 28 61  1  0
 31 62  1  0
 31 63  1  0
 33 64  1  0
 34 65  1  0
 37 66  1  0
 38 67  1  0
M  END
$$$$
