
     RDKit          3D

 53 55  0  0  0  0  0  0  0  0999 V2000
   -7.1065   -0.3587   -2.0407 C   0  0  0  0  0  0  0  0  0  0  0  0
   -6.3373   -0.1152   -0.8719 O   0  0  0  0  0  0  0  0  0  0  0  0
   -6.2694   -1.1183    0.0604 C   0  0  0  0  0  0  0  0  0  0  0  0
   -6.8901   -2.3663   -0.0666 C   0  0  0  0  0  0  0  0  0  0  0  0
   -6.7497   -3.3329    0.9340 C   0  0  0  0  0  0  0  0  0  0  0  0
   -5.9811   -3.0662    2.0631 C   0  0  0  0  0  0  0  0  0  0  0  0
   -5.3595   -1.8266    2.2000 C   0  0  0  0  0  0  0  0  0  0  0  0
   -5.5071   -0.8376    1.2104 C   0  0  0  0  0  0  0  0  0  0  0  0
   -4.8059    0.4862    1.3869 C   0  0  0  0  0  0  0  0  0  0  0  0
   -3.5259    0.4844    0.7271 N   0  0  0  0  0  0  0  0  0  0  0  0
   -2.3584    0.1707    1.3761 C   0  0  0  0  0  0  0  0  0  0  0  0
   -2.2166    0.0047    2.5810 O   0  0  0  0  0  0  0  0  0  0  0  0
   -1.1434    0.0267    0.4293 C   0  0  0  0  0  0  0  0  0  0  0  0
   -1.2797    0.1913   -0.7751 O   0  0  0  0  0  0  0  0  0  0  0  0
    0.0220   -0.2970    1.0884 N   0  0  0  0  0  0  0  0  0  0  0  0
    1.3158   -0.2891    0.4283 C   0  0  0  0  0  0  0  0  0  0  0  0
    2.0335    1.0740    0.5190 C   0  0  0  0  0  0  0  0  0  0  0  0
    1.3335    2.0652   -0.2537 O   0  0  0  0  0  0  0  0  0  0  0  0
    2.3320    3.0025   -0.6533 C   0  0  0  0  0  0  0  0  0  0  0  0
    3.5140    2.1275   -0.9994 C   0  0  0  0  0  0  0  0  0  0  0  0
    3.3966    0.9922   -0.0604 N   0  0  0  0  0  0  0  0  0  0  0  0
    4.6041    0.8170    1.1048 S   0  0  0  0  0  6  0  0  0  0  0  0
    4.2893   -0.3500    1.8993 O   0  0  0  0  0  0  0  0  0  0  0  0
    4.8017    2.1142    1.7172 O   0  0  0  0  0  0  0  0  0  0  0  0
    6.0311    0.4263    0.1242 C   0  0  0  0  0  0  0  0  0  0  0  0
    6.0541   -0.7780   -0.5881 C   0  0  0  0  0  0  0  0  0  0  0  0
    7.1716   -1.0982   -1.3609 C   0  0  0  0  0  0  0  0  0  0  0  0
    8.2541   -0.2184   -1.4099 C   0  0  0  0  0  0  0  0  0  0  0  0
    9.7666   -0.6540   -2.4570 Br  0  0  0  0  0  0  0  0  0  0  0  0
    8.2330    0.9788   -0.6925 C   0  0  0  0  0  0  0  0  0  0  0  0
    7.1174    1.3050    0.0816 C   0  0  0  0  0  0  0  0  0  0  0  0
   -7.0719    0.5460   -2.6571 H   0  0  0  0  0  0  0  0  0  0  0  0
   -6.6828   -1.1793   -2.6279 H   0  0  0  0  0  0  0  0  0  0  0  0
   -8.1543   -0.5490   -1.7911 H   0  0  0  0  0  0  0  0  0  0  0  0
   -7.4914   -2.6226   -0.9344 H   0  0  0  0  0  0  0  0  0  0  0  0
   -7.2353   -4.2996    0.8250 H   0  0  0  0  0  0  0  0  0  0  0  0
   -5.8641   -3.8202    2.8359 H   0  0  0  0  0  0  0  0  0  0  0  0
   -4.7534   -1.6291    3.0816 H   0  0  0  0  0  0  0  0  0  0  0  0
   -5.4016    1.3047    0.9686 H   0  0  0  0  0  0  0  0  0  0  0  0
   -4.6745    0.7074    2.4525 H   0  0  0  0  0  0  0  0  0  0  0  0
   -3.5011    0.4735   -0.2888 H   0  0  0  0  0  0  0  0  0  0  0  0
   -0.0350   -0.3470    2.1030 H   0  0  0  0  0  0  0  0  0  0  0  0
    1.9112   -1.0720    0.9061 H   0  0  0  0  0  0  0  0  0  0  0  0
    1.1718   -0.5652   -0.6223 H   0  0  0  0  0  0  0  0  0  0  0  0
    2.0496    1.4304    1.5569 H   0  0  0  0  0  0  0  0  0  0  0  0
    1.9791    3.5978   -1.4989 H   0  0  0  0  0  0  0  0  0  0  0  0
    2.5500    3.6677    0.1897 H   0  0  0  0  0  0  0  0  0  0  0  0
    4.4577    2.6735   -0.9411 H   0  0  0  0  0  0  0  0  0  0  0  0
    3.4169    1.7258   -2.0128 H   0  0  0  0  0  0  0  0  0  0  0  0
    5.2113   -1.4647   -0.5415 H   0  0  0  0  0  0  0  0  0  0  0  0
    7.1915   -2.0334   -1.9155 H   0  0  0  0  0  0  0  0  0  0  0  0
    9.0801    1.6595   -0.7270 H   0  0  0  0  0  0  0  0  0  0  0  0
    7.1064    2.2357    0.6441 H   0  0  0  0  0  0  0  0  0  0  0  0
  1  2  1  0
  2  3  1  0
  3  4  2  0
  4  5  1  0
  5  6  2  0
  6  7  1  0
  7  8  2  0
  8  9  1  0
  9 10  1  0
 10 11  1  0
 11 12  2  0
 11 13  1  0
 13 14  2  0
 13 15  1  0
 15 16  1  0
 16 17  1  0
 17 18  1  0
 18 19  1  0
 19 20  1  0
 20 21  1  0
 21 22  1  0
 22 23  2  0
 22 24  2  0
 22 25  1  0
 25 26  2  0
 26 27  1  0
 27 28  2  0
 28 29  1  0
 28 30  1  0
 30 31  2  0
  8  3  1  0
 21 17  1  0
 31 25  1  0
  1 32  1  0
  1 33  1  0
  1 34  1  0
  4 35  1  0
  5 36  1  0
  6 37  1  0
  7 38  1  0
  9 39  1  0
  9 40  1  0
 10 41  1  0
 15 42  1  0
 16 43  1  0
 16 44  1  0
 17 45  1  0
 19 46  1  0
 19 47  1  0
 20 48  1  0
 20 49  1  0
 26 50  1  0
 27 51  1  0
 30 52  1  0
 31 53  1  0
M  END
$$$$
