
     RDKit          3D

 51 55  0  0  0  0  0  0  0  0999 V2000
    9.1842    1.6597    1.5135 Cl  0  0  0  0  0  0  0  0  0  0  0  0
    7.4761    1.4802    1.3250 C   0  0  0  0  0  0  0  0  0  0  0  0
    6.9514    1.5703    0.0327 C   0  0  0  0  0  0  0  0  0  0  0  0
    5.5779    1.4312   -0.1815 C   0  0  0  0  0  0  0  0  0  0  0  0
    4.7127    1.2046    0.8959 C   0  0  0  0  0  0  0  0  0  0  0  0
    3.2286    1.0344    0.6653 C   0  0  0  0  0  0  0  0  0  0  0  0
    2.8581   -0.4390    0.4211 C   0  0  0  0  0  0  0  0  0  0  0  0
    1.4130   -0.6336    0.2540 N   0  0  0  0  0  0  0  0  0  0  0  0
    1.0315   -2.0526    0.3416 C   0  0  0  0  0  0  0  0  0  0  0  0
   -0.4998   -2.2552    0.2261 C   0  0  0  0  0  0  0  0  0  0  0  0
   -1.0990   -1.5285   -0.9135 N   0  0  0  0  0  0  0  0  0  0  0  0
   -2.3389   -0.9078   -0.7448 C   0  0  0  0  0  0  0  0  0  0  0  0
   -2.4863    0.3252   -1.1654 N   0  0  0  0  0  0  0  0  0  0  0  0
   -3.7010    1.0123   -0.9836 C   0  0  0  0  0  0  0  0  0  0  0  0
   -3.7912    2.3303   -1.4360 C   0  0  0  0  0  0  0  0  0  0  0  0
   -4.9697    3.0629   -1.2707 C   0  0  0  0  0  0  0  0  0  0  0  0
   -6.0739    2.4807   -0.6475 C   0  0  0  0  0  0  0  0  0  0  0  0
   -6.0061    1.1649   -0.1880 C   0  0  0  0  0  0  0  0  0  0  0  0
   -4.8198    0.4450   -0.3603 C   0  0  0  0  0  0  0  0  0  0  0  0
   -4.6689   -0.8863    0.0589 N   0  0  0  0  0  0  0  0  0  0  0  0
   -5.5798   -1.7168    0.6682 C   0  0  0  0  0  0  0  0  0  0  0  0
   -4.9979   -2.9557    0.8207 C   0  0  0  0  0  0  0  0  0  0  0  0
   -3.6858   -2.8677    0.3001 C   0  0  0  0  0  0  0  0  0  0  0  0
   -3.4860   -1.5681   -0.1331 C   0  0  0  0  0  0  0  0  0  0  0  0
   -0.1022   -0.8946   -1.7900 C   0  0  0  0  0  0  0  0  0  0  0  0
    0.8775   -0.0123   -0.9823 C   0  0  0  0  0  0  0  0  0  0  0  0
    5.2453    1.1106    2.1903 C   0  0  0  0  0  0  0  0  0  0  0  0
    6.6210    1.2489    2.4070 C   0  0  0  0  0  0  0  0  0  0  0  0
    7.1959    1.1187    4.0315 Cl  0  0  0  0  0  0  0  0  0  0  0  0
    7.6088    1.7494   -0.8150 H   0  0  0  0  0  0  0  0  0  0  0  0
    5.1883    1.5035   -1.1954 H   0  0  0  0  0  0  0  0  0  0  0  0
    2.6811    1.4209    1.5349 H   0  0  0  0  0  0  0  0  0  0  0  0
    2.9285    1.6628   -0.1821 H   0  0  0  0  0  0  0  0  0  0  0  0
    3.1976   -1.0172    1.2910 H   0  0  0  0  0  0  0  0  0  0  0  0
    3.4044   -0.8353   -0.4453 H   0  0  0  0  0  0  0  0  0  0  0  0
    1.5403   -2.6335   -0.4393 H   0  0  0  0  0  0  0  0  0  0  0  0
    1.3526   -2.4679    1.3048 H   0  0  0  0  0  0  0  0  0  0  0  0
   -0.7012   -3.3257    0.1149 H   0  0  0  0  0  0  0  0  0  0  0  0
   -0.9561   -1.9193    1.1659 H   0  0  0  0  0  0  0  0  0  0  0  0
   -2.9319    2.7869   -1.9194 H   0  0  0  0  0  0  0  0  0  0  0  0
   -5.0232    4.0880   -1.6282 H   0  0  0  0  0  0  0  0  0  0  0  0
   -6.9890    3.0542   -0.5209 H   0  0  0  0  0  0  0  0  0  0  0  0
   -6.8781    0.7332    0.2914 H   0  0  0  0  0  0  0  0  0  0  0  0
   -6.5719   -1.3799    0.9308 H   0  0  0  0  0  0  0  0  0  0  0  0
   -5.4720   -3.8293    1.2494 H   0  0  0  0  0  0  0  0  0  0  0  0
   -2.9688   -3.6743    0.2457 H   0  0  0  0  0  0  0  0  0  0  0  0
    0.4581   -1.6873   -2.3028 H   0  0  0  0  0  0  0  0  0  0  0  0
   -0.5698   -0.3086   -2.5902 H   0  0  0  0  0  0  0  0  0  0  0  0
    1.6853    0.2771   -1.6661 H   0  0  0  0  0  0  0  0  0  0  0  0
    0.3671    0.9118   -0.6861 H   0  0  0  0  0  0  0  0  0  0  0  0
    4.5830    0.9289    3.0350 H   0  0  0  0  0  0  0  0  0  0  0  0
  1  2  1  0
  2  3  2  0
  3  4  1  0
  4  5  2  0
  5  6  1  0
  6  7  1  0
  7  8  1  0
  8  9  1  0
  9 10  1  0
 10 11  1  0
 11 12  1  0
 12 13  2  0
 13 14  1  0
 14 15  2  0
 15 16  1  0
 16 17  2  0
 17 18  1  0
 18 19  2  0
 19 20  1  0
 20 21  1  0
 21 22  2  0
 22 23  1  0
 23 24  2  0
 11 25  1  0
 25 26  1  0
  5 27  1  0
 27 28  2  0
 28 29  1  0
 28  2  1  0
 26  8  1  0
 24 12  1  0
 19 14  1  0
 24 20  1  0
  3 30  1  0
  4 31  1  0
  6 32  1  0
  6 33  1  0
  7 34  1  0
  7 35  1  0
  9 36  1  0
  9 37  1  0
 10 38  1  0
 10 39  1  0
 15 40  1  0
 16 41  1  0
 17 42  1  0
 18 43  1  0
 21 44  1  0
 22 45  1  0
 23 46  1  0
 25 47  1  0
 25 48  1  0
 26 49  1  0
 26 50  1  0
 27 51  1  0
M  END
$$$$
