
     RDKit          3D

 44 46  0  0  0  0  0  0  0  0999 V2000
   -7.3041    0.4815   -0.3361 C   0  0  0  0  0  0  0  0  0  0  0  0
   -5.8139    0.3073   -0.3078 C   0  0  0  0  0  0  0  0  0  0  0  0
   -5.0640    0.4357   -1.4832 C   0  0  0  0  0  0  0  0  0  0  0  0
   -3.6750    0.2446   -1.4782 C   0  0  0  0  0  0  0  0  0  0  0  0
   -2.9049    0.3982   -2.7587 C   0  0  0  0  0  0  0  0  0  0  0  0
   -3.0397   -0.0471   -0.2613 C   0  0  0  0  0  0  0  0  0  0  0  0
   -1.6782   -0.2189   -0.2378 O   0  0  0  0  0  0  0  0  0  0  0  0
   -1.0267    1.0266    0.0459 C   0  0  0  0  0  0  0  0  0  0  0  0
    0.4922    0.8458    0.0802 C   0  0  0  0  0  0  0  0  0  0  0  0
    1.2270    1.8027    0.3086 O   0  0  0  0  0  0  0  0  0  0  0  0
    0.8743   -0.4533   -0.1653 N   0  0  0  0  0  0  0  0  0  0  0  0
    2.1751   -0.8579   -0.1863 C   0  0  0  0  0  0  0  0  0  0  0  0
    3.2614   -0.1594    0.0065 N   0  0  0  0  0  0  0  0  0  0  0  0
    4.3734   -0.9858   -0.1087 C   0  0  0  0  0  0  0  0  0  0  0  0
    5.7340   -0.4801    0.0580 C   0  0  0  0  0  0  0  0  0  0  0  0
    5.9539    0.8654    0.3409 C   0  0  0  0  0  0  0  0  0  0  0  0
    7.2630    1.3148    0.4937 C   0  0  0  0  0  0  0  0  0  0  0  0
    8.3111    0.4126    0.3606 C   0  0  0  0  0  0  0  0  0  0  0  0
    8.0057   -0.9086    0.0786 C   0  0  0  0  0  0  0  0  0  0  0  0
    6.7473   -1.3763   -0.0756 N   0  0  0  0  0  0  0  0  0  0  0  0
    4.0807   -2.3087   -0.3908 C   0  0  0  0  0  0  0  0  0  0  0  0
    2.3825   -2.5197   -0.5136 S   0  0  0  0  0  0  0  0  0  0  0  0
   -3.7781   -0.2480    0.9152 C   0  0  0  0  0  0  0  0  0  0  0  0
   -3.1188   -0.6246    2.2113 C   0  0  0  0  0  0  0  0  0  0  0  0
   -5.1658   -0.0508    0.8806 C   0  0  0  0  0  0  0  0  0  0  0  0
   -7.6721    0.8543    0.6256 H   0  0  0  0  0  0  0  0  0  0  0  0
   -7.7884   -0.4752   -0.5540 H   0  0  0  0  0  0  0  0  0  0  0  0
   -7.5977    1.2095   -1.0996 H   0  0  0  0  0  0  0  0  0  0  0  0
   -5.5695    0.6835   -2.4151 H   0  0  0  0  0  0  0  0  0  0  0  0
   -2.0725   -0.3114   -2.8062 H   0  0  0  0  0  0  0  0  0  0  0  0
   -3.5424    0.1977   -3.6266 H   0  0  0  0  0  0  0  0  0  0  0  0
   -2.5144    1.4168   -2.8432 H   0  0  0  0  0  0  0  0  0  0  0  0
   -1.2501    1.7645   -0.7330 H   0  0  0  0  0  0  0  0  0  0  0  0
   -1.3322    1.4072    1.0272 H   0  0  0  0  0  0  0  0  0  0  0  0
    0.1568   -1.1459   -0.3396 H   0  0  0  0  0  0  0  0  0  0  0  0
    5.1198    1.5548    0.4411 H   0  0  0  0  0  0  0  0  0  0  0  0
    7.4582    2.3603    0.7147 H   0  0  0  0  0  0  0  0  0  0  0  0
    9.3412    0.7312    0.4738 H   0  0  0  0  0  0  0  0  0  0  0  0
    8.7914   -1.6503   -0.0345 H   0  0  0  0  0  0  0  0  0  0  0  0
    4.7669   -3.1332   -0.5257 H   0  0  0  0  0  0  0  0  0  0  0  0
   -2.2827   -1.3112    2.0437 H   0  0  0  0  0  0  0  0  0  0  0  0
   -2.7519    0.2712    2.7212 H   0  0  0  0  0  0  0  0  0  0  0  0
   -3.8226   -1.1380    2.8752 H   0  0  0  0  0  0  0  0  0  0  0  0
   -5.7506   -0.1819    1.7896 H   0  0  0  0  0  0  0  0  0  0  0  0
  1  2  1  0
  2  3  2  0
  3  4  1  0
  4  5  1  0
  4  6  2  0
  6  7  1  0
  7  8  1  0
  8  9  1  0
  9 10  2  0
  9 11  1  0
 11 12  1  0
 12 13  2  0
 13 14  1  0
 14 15  1  0
 15 16  2  0
 16 17  1  0
 17 18  2  0
 18 19  1  0
 19 20  2  0
 14 21  2  0
 21 22  1  0
  6 23  1  0
 23 24  1  0
 23 25  2  0
 25  2  1  0
 22 12  1  0
 20 15  1  0
  1 26  1  0
  1 27  1  0
  1 28  1  0
  3 29  1  0
  5 30  1  0
  5 31  1  0
  5 32  1  0
  8 33  1  0
  8 34  1  0
 11 35  1  0
 16 36  1  0
 17 37  1  0
 18 38  1  0
 19 39  1  0
 21 40  1  0
 24 41  1  0
 24 42  1  0
 24 43  1  0
 25 44  1  0
M  END
$$$$
