
     RDKit          3D

 44 46  0  0  0  0  0  0  0  0999 V2000
   -5.0267    1.8796   -2.8742 C   0  0  0  0  0  0  0  0  0  0  0  0
   -3.9987    2.1898   -1.7834 C   0  0  0  0  0  0  0  0  0  0  0  0
   -4.6879    2.6745   -0.5055 C   0  0  0  0  0  0  0  0  0  0  0  0
   -3.0951    0.9985   -1.5125 C   0  0  0  0  0  0  0  0  0  0  0  0
   -1.7153    1.1042   -1.7537 C   0  0  0  0  0  0  0  0  0  0  0  0
   -0.8634    0.0244   -1.5138 C   0  0  0  0  0  0  0  0  0  0  0  0
   -1.3904   -1.1698   -1.0192 C   0  0  0  0  0  0  0  0  0  0  0  0
   -0.3199   -2.5506   -0.7150 S   0  0  0  0  0  6  0  0  0  0  0  0
    0.9845   -2.2691   -1.2747 O   0  0  0  0  0  0  0  0  0  0  0  0
   -1.0460   -3.7483   -1.0840 O   0  0  0  0  0  0  0  0  0  0  0  0
   -0.2139   -2.5739    0.9745 N   0  0  0  0  0  0  0  0  0  0  0  0
    0.7153   -1.6932    1.5931 C   0  0  0  0  0  0  0  0  0  0  0  0
    0.3401   -0.3828    1.8794 C   0  0  0  0  0  0  0  0  0  0  0  0
    1.2662    0.4920    2.4436 C   0  0  0  0  0  0  0  0  0  0  0  0
    2.5650    0.0573    2.7041 C   0  0  0  0  0  0  0  0  0  0  0  0
    3.4093    0.9902    3.2410 O   0  0  0  0  0  0  0  0  0  0  0  0
    2.9566   -1.2599    2.4229 C   0  0  0  0  0  0  0  0  0  0  0  0
    4.5655   -1.9274    2.8221 S   0  0  0  0  0  0  0  0  0  0  0  0
    5.6127   -1.0123    1.7784 C   0  0  0  0  0  0  0  0  0  0  0  0
    5.6739    0.3582    1.8187 N   0  0  0  0  0  0  0  0  0  0  0  0
    6.5768    0.6352    0.9061 C   0  0  0  0  0  0  0  0  0  0  0  0
    7.0424   -0.5201    0.3609 N   0  0  0  0  0  0  0  0  0  0  0  0
    6.4533   -1.5894    0.9171 N   0  0  0  0  0  0  0  0  0  0  0  0
    2.0139   -2.1324    1.8599 C   0  0  0  0  0  0  0  0  0  0  0  0
   -2.7606   -1.3012   -0.7858 C   0  0  0  0  0  0  0  0  0  0  0  0
   -3.6065   -0.2175   -1.0288 C   0  0  0  0  0  0  0  0  0  0  0  0
   -5.7275    1.0959   -2.5664 H   0  0  0  0  0  0  0  0  0  0  0  0
   -4.5331    1.5439   -3.7931 H   0  0  0  0  0  0  0  0  0  0  0  0
   -5.6127    2.7729   -3.1158 H   0  0  0  0  0  0  0  0  0  0  0  0
   -3.3807    3.0202   -2.1501 H   0  0  0  0  0  0  0  0  0  0  0  0
   -5.2672    3.5833   -0.7019 H   0  0  0  0  0  0  0  0  0  0  0  0
   -5.3751    1.9239   -0.1001 H   0  0  0  0  0  0  0  0  0  0  0  0
   -3.9518    2.9076    0.2719 H   0  0  0  0  0  0  0  0  0  0  0  0
   -1.2924    2.0319   -2.1347 H   0  0  0  0  0  0  0  0  0  0  0  0
    0.2021    0.1252   -1.7086 H   0  0  0  0  0  0  0  0  0  0  0  0
   -0.2580   -3.5323    1.3200 H   0  0  0  0  0  0  0  0  0  0  0  0
   -0.6701   -0.0359    1.6812 H   0  0  0  0  0  0  0  0  0  0  0  0
    0.9814    1.5149    2.6750 H   0  0  0  0  0  0  0  0  0  0  0  0
    4.3221    0.7560    2.9681 H   0  0  0  0  0  0  0  0  0  0  0  0
    6.9225    1.6151    0.6083 H   0  0  0  0  0  0  0  0  0  0  0  0
    7.7390   -0.6548   -0.3639 H   0  0  0  0  0  0  0  0  0  0  0  0
    2.2960   -3.1547    1.6196 H   0  0  0  0  0  0  0  0  0  0  0  0
   -3.1735   -2.2375   -0.4176 H   0  0  0  0  0  0  0  0  0  0  0  0
   -4.6721   -0.3317   -0.8408 H   0  0  0  0  0  0  0  0  0  0  0  0
  1  2  1  0
  2  3  1  0
  2  4  1  0
  4  5  2  0
  5  6  1  0
  6  7  2  0
  7  8  1  0
  8  9  2  0
  8 10  2  0
  8 11  1  0
 11 12  1  0
 12 13  2  0
 13 14  1  0
 14 15  2  0
 15 16  1  0
 15 17  1  0
 17 18  1  0
 18 19  1  0
 19 20  1  0
 20 21  2  0
 21 22  1  0
 22 23  1  0
 17 24  2  0
  7 25  1  0
 25 26  2  0
 26  4  1  0
 24 12  1  0
 23 19  2  0
  1 27  1  0
  1 28  1  0
  1 29  1  0
  2 30  1  0
  3 31  1  0
  3 32  1  0
  3 33  1  0
  5 34  1  0
  6 35  1  0
 11 36  1  0
 13 37  1  0
 14 38  1  0
 16 39  1  0
 21 40  1  0
 22 41  1  0
 24 42  1  0
 25 43  1  0
 26 44  1  0
M  END
$$$$
