
     RDKit          3D

 41 43  0  0  0  0  0  0  0  0999 V2000
   -3.2029    2.3197    0.8688 C   0  0  0  0  0  0  0  0  0  0  0  0
   -2.5436    1.5194   -0.1314 N   0  0  0  0  0  0  0  0  0  0  0  0
   -1.5402    1.9113   -0.9724 C   0  0  0  0  0  0  0  0  0  0  0  0
   -0.7397    3.4392   -0.8921 S   0  0  0  0  0  0  0  0  0  0  0  0
    0.5896    3.1926   -2.1068 C   0  0  0  0  0  0  0  0  0  0  0  0
    1.7582    2.4411   -1.4914 C   0  0  0  0  0  0  0  0  0  0  0  0
    2.7720    3.0364   -1.1276 O   0  0  0  0  0  0  0  0  0  0  0  0
    1.5627    1.0654   -1.4143 N   0  0  0  0  0  0  0  0  0  0  0  0
    2.5005    0.1316   -1.0489 N   0  0  0  0  0  0  0  0  0  0  0  0
    3.4318    0.4619   -0.2103 C   0  0  0  0  0  0  0  0  0  0  0  0
    4.4478   -0.5032    0.1450 C   0  0  0  0  0  0  0  0  0  0  0  0
    4.6189   -1.7955   -0.3158 C   0  0  0  0  0  0  0  0  0  0  0  0
    5.7447   -2.4389    0.2810 C   0  0  0  0  0  0  0  0  0  0  0  0
    6.3837   -1.6050    1.1733 C   0  0  0  0  0  0  0  0  0  0  0  0
    7.5492   -1.9201    1.9579 N   0  0  0  0  0  4  0  0  0  0  0  0
    8.0212   -3.0555    1.8068 O   0  0  0  0  0  0  0  0  0  0  0  0
    7.9961   -1.0548    2.7219 O   0  0  0  0  0  1  0  0  0  0  0  0
    5.6474   -0.0780    1.2901 S   0  0  0  0  0  0  0  0  0  0  0  0
   -1.2657    0.9494   -1.8197 N   0  0  0  0  0  0  0  0  0  0  0  0
   -2.0795   -0.1102   -1.5180 N   0  0  0  0  0  0  0  0  0  0  0  0
   -2.8256    0.2123   -0.4746 C   0  0  0  0  0  0  0  0  0  0  0  0
   -3.7982   -0.6696    0.1661 C   0  0  0  0  0  0  0  0  0  0  0  0
   -3.8206   -0.8559    1.5558 C   0  0  0  0  0  0  0  0  0  0  0  0
   -4.7589   -1.7123    2.1409 C   0  0  0  0  0  0  0  0  0  0  0  0
   -5.6712   -2.3948    1.3385 C   0  0  0  0  0  0  0  0  0  0  0  0
   -6.8252   -3.4458    2.0609 Cl  0  0  0  0  0  0  0  0  0  0  0  0
   -5.6479   -2.2361   -0.0447 C   0  0  0  0  0  0  0  0  0  0  0  0
   -4.7093   -1.3803   -0.6284 C   0  0  0  0  0  0  0  0  0  0  0  0
   -2.6138    2.2752    1.7877 H   0  0  0  0  0  0  0  0  0  0  0  0
   -4.2124    1.9407    1.0438 H   0  0  0  0  0  0  0  0  0  0  0  0
   -3.2884    3.3511    0.5186 H   0  0  0  0  0  0  0  0  0  0  0  0
    0.9512    4.1781   -2.4198 H   0  0  0  0  0  0  0  0  0  0  0  0
    0.2364    2.6856   -3.0105 H   0  0  0  0  0  0  0  0  0  0  0  0
    0.7352    0.6652   -1.8665 H   0  0  0  0  0  0  0  0  0  0  0  0
    3.4761    1.4430    0.2904 H   0  0  0  0  0  0  0  0  0  0  0  0
    3.9629   -2.2550   -1.0479 H   0  0  0  0  0  0  0  0  0  0  0  0
    6.0593   -3.4537    0.0632 H   0  0  0  0  0  0  0  0  0  0  0  0
   -3.0970   -0.3567    2.1960 H   0  0  0  0  0  0  0  0  0  0  0  0
   -4.7662   -1.8505    3.2191 H   0  0  0  0  0  0  0  0  0  0  0  0
   -6.3494   -2.7765   -0.6745 H   0  0  0  0  0  0  0  0  0  0  0  0
   -4.6893   -1.2709   -1.7120 H   0  0  0  0  0  0  0  0  0  0  0  0
  1  2  1  0
  2  3  1  0
  3  4  1  0
  4  5  1  0
  5  6  1  0
  6  7  2  0
  6  8  1  0
  8  9  1  0
  9 10  2  3
 10 11  1  0
 11 12  2  0
 12 13  1  0
 13 14  2  0
 14 15  1  0
 15 16  2  0
 15 17  1  0
 14 18  1  0
  3 19  2  0
 19 20  1  0
 20 21  2  0
 21 22  1  0
 22 23  2  0
 23 24  1  0
 24 25  2  0
 25 26  1  0
 25 27  1  0
 27 28  2  0
 21  2  1  0
 28 22  1  0
 18 11  1  0
  1 29  1  0
  1 30  1  0
  1 31  1  0
  5 32  1  0
  5 33  1  0
  8 34  1  0
 10 35  1  0
 12 36  1  0
 13 37  1  0
 23 38  1  0
 24 39  1  0
 27 40  1  0
 28 41  1  0
M  CHG  2  15   1  17  -1
M  END
$$$$
