
     RDKit          3D

 64 69  0  0  0  0  0  0  0  0999 V2000
    7.8759    1.2318   -2.8281 F   0  0  0  0  0  0  0  0  0  0  0  0
    6.7618    1.5481   -2.1055 C   0  0  0  0  0  0  0  0  0  0  0  0
    5.7069    1.1306   -2.8616 F   0  0  0  0  0  0  0  0  0  0  0  0
    6.7034    2.9114   -2.1031 F   0  0  0  0  0  0  0  0  0  0  0  0
    6.7552    0.9633   -0.7082 C   0  0  0  0  0  0  0  0  0  0  0  0
    7.9139    0.3148   -0.2351 C   0  0  0  0  0  0  0  0  0  0  0  0
    7.9629   -0.2298    1.0477 C   0  0  0  0  0  0  0  0  0  0  0  0
    6.8543   -0.1369    1.8816 C   0  0  0  0  0  0  0  0  0  0  0  0
    5.6989    0.5012    1.4344 C   0  0  0  0  0  0  0  0  0  0  0  0
    5.6304    1.0625    0.1448 C   0  0  0  0  0  0  0  0  0  0  0  0
    4.3379    1.7367   -0.2799 C   0  0  0  0  0  0  0  0  0  0  0  0
    3.2740    0.7570   -0.8191 C   0  0  0  0  0  0  0  0  0  0  0  0
    2.6541   -0.0811    0.2221 N   0  0  0  0  0  0  0  0  0  0  0  0
    1.6709    0.6459    1.0543 C   0  0  0  0  0  0  0  0  0  0  0  0
    0.1935    0.4746    0.6368 C   0  0  0  0  0  0  0  0  0  0  0  0
   -0.2226   -0.9450    0.5601 N   0  0  0  0  0  0  0  0  0  0  0  0
   -1.3555   -1.2189   -0.2097 C   0  0  0  0  0  0  0  0  0  0  0  0
   -1.2376   -1.9725   -1.2735 N   0  0  0  0  0  0  0  0  0  0  0  0
   -2.3508   -2.2327   -2.0973 C   0  0  0  0  0  0  0  0  0  0  0  0
   -2.1677   -3.0364   -3.2249 C   0  0  0  0  0  0  0  0  0  0  0  0
   -3.2354   -3.3210   -4.0807 C   0  0  0  0  0  0  0  0  0  0  0  0
   -4.5025   -2.7991   -3.8159 C   0  0  0  0  0  0  0  0  0  0  0  0
   -4.7089   -1.9916   -2.6958 C   0  0  0  0  0  0  0  0  0  0  0  0
   -3.6307   -1.7169   -1.8486 C   0  0  0  0  0  0  0  0  0  0  0  0
   -3.7512   -0.9251   -0.6953 N   0  0  0  0  0  0  0  0  0  0  0  0
   -4.8597   -0.2968   -0.1796 C   0  0  0  0  0  0  0  0  0  0  0  0
   -4.5035    0.3217    1.0051 C   0  0  0  0  0  0  0  0  0  0  0  0
   -5.4213    1.0875    1.8374 C   0  0  0  0  0  0  0  0  0  0  0  0
   -6.7686    0.7197    1.9618 C   0  0  0  0  0  0  0  0  0  0  0  0
   -7.6347    1.4584    2.7718 C   0  0  0  0  0  0  0  0  0  0  0  0
   -7.1634    2.5709    3.4654 C   0  0  0  0  0  0  0  0  0  0  0  0
   -5.8271    2.9470    3.3500 C   0  0  0  0  0  0  0  0  0  0  0  0
   -4.9600    2.2087    2.5415 C   0  0  0  0  0  0  0  0  0  0  0  0
   -3.1190    0.0545    1.1968 C   0  0  0  0  0  0  0  0  0  0  0  0
   -2.6674   -0.6844    0.1186 C   0  0  0  0  0  0  0  0  0  0  0  0
    0.9188   -1.8844    0.4828 C   0  0  0  0  0  0  0  0  0  0  0  0
    2.0462   -1.2926   -0.3814 C   0  0  0  0  0  0  0  0  0  0  0  0
    8.7935    0.2277   -0.8736 H   0  0  0  0  0  0  0  0  0  0  0  0
    8.8640   -0.7306    1.3930 H   0  0  0  0  0  0  0  0  0  0  0  0
    6.8867   -0.5675    2.8796 H   0  0  0  0  0  0  0  0  0  0  0  0
    4.8340    0.5516    2.0955 H   0  0  0  0  0  0  0  0  0  0  0  0
    4.5464    2.4844   -1.0541 H   0  0  0  0  0  0  0  0  0  0  0  0
    3.9500    2.3219    0.5612 H   0  0  0  0  0  0  0  0  0  0  0  0
    2.4960    1.3229   -1.3496 H   0  0  0  0  0  0  0  0  0  0  0  0
    3.7588    0.1146   -1.5662 H   0  0  0  0  0  0  0  0  0  0  0  0
    1.9026    1.7149    1.1159 H   0  0  0  0  0  0  0  0  0  0  0  0
    1.7817    0.2690    2.0794 H   0  0  0  0  0  0  0  0  0  0  0  0
   -0.4296    1.0017    1.3619 H   0  0  0  0  0  0  0  0  0  0  0  0
    0.0451    0.9533   -0.3383 H   0  0  0  0  0  0  0  0  0  0  0  0
   -1.1821   -3.4426   -3.4362 H   0  0  0  0  0  0  0  0  0  0  0  0
   -3.0753   -3.9507   -4.9534 H   0  0  0  0  0  0  0  0  0  0  0  0
   -5.3307   -3.0237   -4.4838 H   0  0  0  0  0  0  0  0  0  0  0  0
   -5.7040   -1.6001   -2.5106 H   0  0  0  0  0  0  0  0  0  0  0  0
   -5.8127   -0.3343   -0.6872 H   0  0  0  0  0  0  0  0  0  0  0  0
   -7.1550   -0.1544    1.4435 H   0  0  0  0  0  0  0  0  0  0  0  0
   -8.6767    1.1615    2.8638 H   0  0  0  0  0  0  0  0  0  0  0  0
   -7.8362    3.1424    4.0971 H   0  0  0  0  0  0  0  0  0  0  0  0
   -5.4580    3.8168    3.8876 H   0  0  0  0  0  0  0  0  0  0  0  0
   -3.9235    2.5259    2.4592 H   0  0  0  0  0  0  0  0  0  0  0  0
   -2.5187    0.3615    2.0428 H   0  0  0  0  0  0  0  0  0  0  0  0
    0.6163   -2.8634    0.0925 H   0  0  0  0  0  0  0  0  0  0  0  0
    1.2858   -2.0739    1.4997 H   0  0  0  0  0  0  0  0  0  0  0  0
    2.8338   -2.0430   -0.5144 H   0  0  0  0  0  0  0  0  0  0  0  0
    1.6364   -1.0671   -1.3750 H   0  0  0  0  0  0  0  0  0  0  0  0
  1  2  1  0
  2  3  1  0
  2  4  1  0
  2  5  1  0
  5  6  2  0
  6  7  1  0
  7  8  2  0
  8  9  1  0
  9 10  2  0
 10 11  1  0
 11 12  1  0
 12 13  1  0
 13 14  1  0
 14 15  1  0
 15 16  1  0
 16 17  1  0
 17 18  2  0
 18 19  1  0
 19 20  2  0
 20 21  1  0
 21 22  2  0
 22 23  1  0
 23 24  2  0
 24 25  1  0
 25 26  1  0
 26 27  2  0
 27 28  1  0
 28 29  2  0
 29 30  1  0
 30 31  2  0
 31 32  1  0
 32 33  2  0
 27 34  1  0
 34 35  2  0
 16 36  1  0
 36 37  1  0
 10  5  1  0
 37 13  1  0
 35 17  1  0
 24 19  1  0
 35 25  1  0
 33 28  1  0
  6 38  1  0
  7 39  1  0
  8 40  1  0
  9 41  1  0
 11 42  1  0
 11 43  1  0
 12 44  1  0
 12 45  1  0
 14 46  1  0
 14 47  1  0
 15 48  1  0
 15 49  1  0
 20 50  1  0
 21 51  1  0
 22 52  1  0
 23 53  1  0
 26 54  1  0
 29 55  1  0
 30 56  1  0
 31 57  1  0
 32 58  1  0
 33 59  1  0
 34 60  1  0
 36 61  1  0
 36 62  1  0
 37 63  1  0
 37 64  1  0
M  END
$$$$
