
     RDKit          3D

 57 59  0  0  0  0  0  0  0  0999 V2000
   -9.0545    0.5753   -0.2440 C   0  0  0  0  0  0  0  0  0  0  0  0
   -8.1342    1.1556   -1.1600 O   0  0  0  0  0  0  0  0  0  0  0  0
   -6.9084    0.5602   -1.2694 C   0  0  0  0  0  0  0  0  0  0  0  0
   -6.0596    1.1469   -2.2136 C   0  0  0  0  0  0  0  0  0  0  0  0
   -4.7751    0.6441   -2.4291 C   0  0  0  0  0  0  0  0  0  0  0  0
   -4.3285   -0.4428   -1.6750 C   0  0  0  0  0  0  0  0  0  0  0  0
   -2.6982   -1.1048   -1.9593 S   0  0  0  0  0  6  0  0  0  0  0  0
   -2.7001   -2.4750   -1.4929 O   0  0  0  0  0  0  0  0  0  0  0  0
   -2.3292   -0.7734   -3.3184 O   0  0  0  0  0  0  0  0  0  0  0  0
   -1.7128   -0.2233   -0.9313 N   0  0  0  0  0  0  0  0  0  0  0  0
   -1.5206    1.2149   -1.1375 C   0  0  0  0  0  0  0  0  0  0  0  0
   -1.9664    1.8093    0.1795 C   0  0  0  0  0  0  0  0  0  0  0  0
   -1.6102    0.8194    1.1482 O   0  0  0  0  0  0  0  0  0  0  0  0
   -1.8400   -0.4557    0.5185 C   0  0  0  0  0  0  0  0  0  0  0  0
   -0.7985   -1.4766    1.0135 C   0  0  0  0  0  0  0  0  0  0  0  0
    0.5445   -1.1889    0.5361 N   0  0  0  0  0  0  0  0  0  0  0  0
    1.6646   -1.7139    1.1287 C   0  0  0  0  0  0  0  0  0  0  0  0
    1.6974   -2.3554    2.1700 O   0  0  0  0  0  0  0  0  0  0  0  0
    2.9706   -1.4363    0.3476 C   0  0  0  0  0  0  0  0  0  0  0  0
    2.9393   -0.7843   -0.6863 O   0  0  0  0  0  0  0  0  0  0  0  0
    4.0802   -1.9859    0.9435 N   0  0  0  0  0  0  0  0  0  0  0  0
    5.4226   -1.7292    0.4805 C   0  0  0  0  0  0  0  0  0  0  0  0
    6.0430   -0.5542    1.1936 C   0  0  0  0  0  0  0  0  0  0  0  0
    6.2159   -0.5893    2.5888 C   0  0  0  0  0  0  0  0  0  0  0  0
    6.7979    0.4851    3.2656 C   0  0  0  0  0  0  0  0  0  0  0  0
    7.2269    1.6056    2.5582 C   0  0  0  0  0  0  0  0  0  0  0  0
    7.0703    1.6547    1.1742 C   0  0  0  0  0  0  0  0  0  0  0  0
    6.4677    0.5882    0.5008 C   0  0  0  0  0  0  0  0  0  0  0  0
    6.3577    0.6238   -0.8648 O   0  0  0  0  0  0  0  0  0  0  0  0
    5.3890    1.5909   -1.2733 C   0  0  0  0  0  0  0  0  0  0  0  0
   -5.1798   -1.0578   -0.7523 C   0  0  0  0  0  0  0  0  0  0  0  0
   -6.4659   -0.5479   -0.5439 C   0  0  0  0  0  0  0  0  0  0  0  0
   -8.6757    0.6293    0.7819 H   0  0  0  0  0  0  0  0  0  0  0  0
   -9.9814    1.1558   -0.2881 H   0  0  0  0  0  0  0  0  0  0  0  0
   -9.2937   -0.4559   -0.5245 H   0  0  0  0  0  0  0  0  0  0  0  0
   -6.4110    1.9968   -2.7952 H   0  0  0  0  0  0  0  0  0  0  0  0
   -4.1432    1.0977   -3.1892 H   0  0  0  0  0  0  0  0  0  0  0  0
   -2.0634    1.6358   -1.9851 H   0  0  0  0  0  0  0  0  0  0  0  0
   -0.4512    1.3900   -1.2990 H   0  0  0  0  0  0  0  0  0  0  0  0
   -1.4723    2.7571    0.4078 H   0  0  0  0  0  0  0  0  0  0  0  0
   -3.0519    1.9533    0.2139 H   0  0  0  0  0  0  0  0  0  0  0  0
   -2.8440   -0.7750    0.8095 H   0  0  0  0  0  0  0  0  0  0  0  0
   -0.7774   -1.4947    2.1088 H   0  0  0  0  0  0  0  0  0  0  0  0
   -1.0466   -2.4827    0.6601 H   0  0  0  0  0  0  0  0  0  0  0  0
    0.6562   -0.8139   -0.4036 H   0  0  0  0  0  0  0  0  0  0  0  0
    3.9308   -2.4253    1.8462 H   0  0  0  0  0  0  0  0  0  0  0  0
    5.4029   -1.5917   -0.6050 H   0  0  0  0  0  0  0  0  0  0  0  0
    6.0175   -2.6269    0.6834 H   0  0  0  0  0  0  0  0  0  0  0  0
    5.9001   -1.4605    3.1584 H   0  0  0  0  0  0  0  0  0  0  0  0
    6.9242    0.4426    4.3447 H   0  0  0  0  0  0  0  0  0  0  0  0
    7.6927    2.4355    3.0826 H   0  0  0  0  0  0  0  0  0  0  0  0
    7.4317    2.5172    0.6218 H   0  0  0  0  0  0  0  0  0  0  0  0
    5.8152    2.5987   -1.2406 H   0  0  0  0  0  0  0  0  0  0  0  0
    4.4787    1.5447   -0.6644 H   0  0  0  0  0  0  0  0  0  0  0  0
    5.1148    1.3729   -2.3100 H   0  0  0  0  0  0  0  0  0  0  0  0
   -4.8589   -1.9366   -0.1967 H   0  0  0  0  0  0  0  0  0  0  0  0
   -7.0999   -1.0438    0.1842 H   0  0  0  0  0  0  0  0  0  0  0  0
  1  2  1  0
  2  3  1  0
  3  4  2  0
  4  5  1  0
  5  6  2  0
  6  7  1  0
  7  8  2  0
  7  9  2  0
  7 10  1  0
 10 11  1  0
 11 12  1  0
 12 13  1  0
 13 14  1  0
 14 15  1  0
 15 16  1  0
 16 17  1  0
 17 18  2  0
 17 19  1  0
 19 20  2  0
 19 21  1  0
 21 22  1  0
 22 23  1  0
 23 24  2  0
 24 25  1  0
 25 26  2  0
 26 27  1  0
 27 28  2  0
 28 29  1  0
 29 30  1  0
  6 31  1  0
 31 32  2  0
 32  3  1  0
 14 10  1  0
 28 23  1  0
  1 33  1  0
  1 34  1  0
  1 35  1  0
  4 36  1  0
  5 37  1  0
 11 38  1  0
 11 39  1  0
 12 40  1  0
 12 41  1  0
 14 42  1  0
 15 43  1  0
 15 44  1  0
 16 45  1  0
 21 46  1  0
 22 47  1  0
 22 48  1  0
 24 49  1  0
 25 50  1  0
 26 51  1  0
 27 52  1  0
 30 53  1  0
 30 54  1  0
 30 55  1  0
 31 56  1  0
 32 57  1  0
M  END
$$$$
