
     RDKit          3D

 57 62  0  0  0  0  0  0  0  0999 V2000
    7.1095   -4.3417   -0.2797 C   0  0  0  0  0  0  0  0  0  0  0  0
    7.0656   -2.9677    0.0842 O   0  0  0  0  0  0  0  0  0  0  0  0
    5.8820   -2.3105   -0.0959 C   0  0  0  0  0  0  0  0  0  0  0  0
    5.9163   -0.9524    0.2236 C   0  0  0  0  0  0  0  0  0  0  0  0
    4.7784   -0.1504    0.0833 C   0  0  0  0  0  0  0  0  0  0  0  0
    3.5852   -0.7070   -0.3780 C   0  0  0  0  0  0  0  0  0  0  0  0
    2.2986    0.1779   -0.5417 C   0  0  0  0  0  0  0  0  0  0  0  0
    1.0234   -0.2663   -0.8677 C   0  0  0  0  0  0  0  0  0  0  0  0
    0.1518    0.8233   -0.8822 N   0  0  0  0  0  4  0  0  0  0  0  0
   -1.2875    0.7966   -1.1927 C   0  0  0  0  0  0  0  0  0  0  0  0
   -2.1501    1.2514   -0.0014 C   0  0  0  0  0  0  0  0  0  0  0  0
   -1.8080    2.2051    0.6977 O   0  0  0  0  0  0  0  0  0  0  0  0
   -3.3466    0.5358    0.1281 N   0  0  0  0  0  0  0  0  0  0  0  0
   -3.2955   -0.8656    0.4613 C   0  0  0  0  0  0  0  0  0  0  0  0
   -2.1066   -1.3990    1.0123 C   0  0  0  0  0  0  0  0  0  0  0  0
   -1.9870   -2.7525    1.3376 C   0  0  0  0  0  0  0  0  0  0  0  0
   -3.0610   -3.6065    1.1338 C   0  0  0  0  0  0  0  0  0  0  0  0
   -4.2526   -3.0992    0.6225 C   0  0  0  0  0  0  0  0  0  0  0  0
   -4.3810   -1.7367    0.2983 C   0  0  0  0  0  0  0  0  0  0  0  0
   -5.9404   -1.2227   -0.3490 S   0  0  0  0  0  0  0  0  0  0  0  0
   -5.8372    0.5281   -0.0919 C   0  0  0  0  0  0  0  0  0  0  0  0
   -7.0514    1.2331   -0.1628 C   0  0  0  0  0  0  0  0  0  0  0  0
   -7.0773    2.6224   -0.0935 C   0  0  0  0  0  0  0  0  0  0  0  0
   -5.8871    3.3185    0.0373 C   0  0  0  0  0  0  0  0  0  0  0  0
   -4.6770    2.6229    0.1113 C   0  0  0  0  0  0  0  0  0  0  0  0
   -4.6191    1.2128    0.0673 C   0  0  0  0  0  0  0  0  0  0  0  0
    0.8661    1.9091   -0.5907 C   0  0  0  0  0  0  0  0  0  0  0  0
    2.1338    1.5437   -0.4139 N   0  0  0  0  0  0  0  0  0  0  0  0
    2.9990    2.6927   -0.1786 C   0  0  0  0  0  0  0  0  0  0  0  0
    2.1152    3.8971   -0.5990 C   0  0  0  0  0  0  0  0  0  0  0  0
    0.6707    3.3754   -0.4859 C   0  0  0  0  0  0  0  0  0  0  0  0
    3.5415   -2.0734   -0.6837 C   0  0  0  0  0  0  0  0  0  0  0  0
    4.6879   -2.8699   -0.5476 C   0  0  0  0  0  0  0  0  0  0  0  0
    6.4322   -4.9356    0.3408 H   0  0  0  0  0  0  0  0  0  0  0  0
    6.8890   -4.4754   -1.3439 H   0  0  0  0  0  0  0  0  0  0  0  0
    8.1272   -4.7029   -0.1006 H   0  0  0  0  0  0  0  0  0  0  0  0
    6.8443   -0.5182    0.5931 H   0  0  0  0  0  0  0  0  0  0  0  0
    4.8619    0.8923    0.3652 H   0  0  0  0  0  0  0  0  0  0  0  0
    0.6159   -1.2408   -1.0825 H   0  0  0  0  0  0  0  0  0  0  0  0
   -1.4652    1.4941   -2.0184 H   0  0  0  0  0  0  0  0  0  0  0  0
   -1.5592   -0.2038   -1.5409 H   0  0  0  0  0  0  0  0  0  0  0  0
   -1.2562   -0.7641    1.2544 H   0  0  0  0  0  0  0  0  0  0  0  0
   -1.0683   -3.1360    1.7748 H   0  0  0  0  0  0  0  0  0  0  0  0
   -2.9847   -4.6604    1.3914 H   0  0  0  0  0  0  0  0  0  0  0  0
   -5.0938   -3.7790    0.4858 H   0  0  0  0  0  0  0  0  0  0  0  0
   -7.9921    0.7006   -0.2894 H   0  0  0  0  0  0  0  0  0  0  0  0
   -8.0203    3.1554   -0.1533 H   0  0  0  0  0  0  0  0  0  0  0  0
   -5.8937    4.4058    0.0871 H   0  0  0  0  0  0  0  0  0  0  0  0
   -3.7887    3.2344    0.2325 H   0  0  0  0  0  0  0  0  0  0  0  0
    3.2461    2.7352    0.8858 H   0  0  0  0  0  0  0  0  0  0  0  0
    3.9018    2.6368   -0.7901 H   0  0  0  0  0  0  0  0  0  0  0  0
    2.3257    4.1426   -1.6461 H   0  0  0  0  0  0  0  0  0  0  0  0
    2.2961    4.7916    0.0019 H   0  0  0  0  0  0  0  0  0  0  0  0
    0.2520    3.5735    0.5005 H   0  0  0  0  0  0  0  0  0  0  0  0
    0.0181    3.7113   -1.2913 H   0  0  0  0  0  0  0  0  0  0  0  0
    2.6353   -2.5559   -1.0402 H   0  0  0  0  0  0  0  0  0  0  0  0
    4.6168   -3.9257   -0.7974 H   0  0  0  0  0  0  0  0  0  0  0  0
  1  2  1  0
  2  3  1  0
  3  4  2  0
  4  5  1  0
  5  6  2  0
  6  7  1  0
  7  8  2  0
  8  9  1  0
  9 10  1  0
 10 11  1  0
 11 12  2  0
 11 13  1  0
 13 14  1  0
 14 15  2  0
 15 16  1  0
 16 17  2  0
 17 18  1  0
 18 19  2  0
 19 20  1  0
 20 21  1  0
 21 22  2  0
 22 23  1  0
 23 24  2  0
 24 25  1  0
 25 26  2  0
  9 27  2  0
 27 28  1  0
 28 29  1  0
 29 30  1  0
 30 31  1  0
  6 32  1  0
 32 33  2  0
 33  3  1  0
 28  7  1  0
 26 13  1  0
 31 27  1  0
 19 14  1  0
 26 21  1  0
  1 34  1  0
  1 35  1  0
  1 36  1  0
  4 37  1  0
  5 38  1  0
  8 39  1  0
 10 40  1  0
 10 41  1  0
 15 42  1  0
 16 43  1  0
 17 44  1  0
 18 45  1  0
 22 46  1  0
 23 47  1  0
 24 48  1  0
 25 49  1  0
 29 50  1  0
 29 51  1  0
 30 52  1  0
 30 53  1  0
 31 54  1  0
 31 55  1  0
 32 56  1  0
 33 57  1  0
M  CHG  1   9   1
M  END
$$$$
