
     RDKit          3D

 51 53  0  0  0  0  0  0  0  0999 V2000
    4.2956   -3.9813    2.1917 C   0  0  0  0  0  0  0  0  0  0  0  0
    4.1540   -2.7163    1.5566 O   0  0  0  0  0  0  0  0  0  0  0  0
    2.8879   -2.3164    1.2157 C   0  0  0  0  0  0  0  0  0  0  0  0
    1.7311   -3.0719    1.4423 C   0  0  0  0  0  0  0  0  0  0  0  0
    0.4748   -2.5707    1.0913 C   0  0  0  0  0  0  0  0  0  0  0  0
    0.3673   -1.3082    0.5113 C   0  0  0  0  0  0  0  0  0  0  0  0
   -0.9497   -0.7377    0.1601 C   0  0  0  0  0  0  0  0  0  0  0  0
   -2.0530   -1.3681    0.4105 N   0  0  0  0  0  0  0  0  0  0  0  0
   -3.2323   -0.7286    0.1169 N   0  0  0  0  0  0  0  0  0  0  0  0
   -3.4866    0.6244    0.3107 C   0  0  0  0  0  0  0  0  0  0  0  0
   -2.6358    1.4599    0.6138 O   0  0  0  0  0  0  0  0  0  0  0  0
   -4.9122    1.0762    0.1338 C   0  0  0  0  0  0  0  0  0  0  0  0
   -5.1239    2.4689    0.1394 C   0  0  0  0  0  0  0  0  0  0  0  0
   -6.4006    3.0053   -0.0189 C   0  0  0  0  0  0  0  0  0  0  0  0
   -7.4858    2.1566   -0.1889 C   0  0  0  0  0  0  0  0  0  0  0  0
   -7.2984    0.7718   -0.1916 C   0  0  0  0  0  0  0  0  0  0  0  0
   -6.0206    0.2149   -0.0216 C   0  0  0  0  0  0  0  0  0  0  0  0
   -5.7895   -1.1376    0.0092 O   0  0  0  0  0  0  0  0  0  0  0  0
   -6.9136   -2.0103   -0.0467 C   0  0  0  0  0  0  0  0  0  0  0  0
    1.5142   -0.5491    0.2712 C   0  0  0  0  0  0  0  0  0  0  0  0
    2.7873   -1.0487    0.6068 C   0  0  0  0  0  0  0  0  0  0  0  0
    4.0199   -0.1901    0.3976 C   0  0  0  0  0  0  0  0  0  0  0  0
    3.8495    0.6303   -0.7633 O   0  0  0  0  0  0  0  0  0  0  0  0
    4.8361    1.5273   -1.0679 C   0  0  0  0  0  0  0  0  0  0  0  0
    6.0287    1.7344   -0.3688 C   0  0  0  0  0  0  0  0  0  0  0  0
    6.3262    1.0234    0.7279 F   0  0  0  0  0  0  0  0  0  0  0  0
    6.9485    2.6907   -0.7988 C   0  0  0  0  0  0  0  0  0  0  0  0
    8.0886    2.8701   -0.1171 F   0  0  0  0  0  0  0  0  0  0  0  0
    6.6928    3.4515   -1.9305 C   0  0  0  0  0  0  0  0  0  0  0  0
    7.5809    4.3686   -2.3399 F   0  0  0  0  0  0  0  0  0  0  0  0
    5.5170    3.2598   -2.6363 C   0  0  0  0  0  0  0  0  0  0  0  0
    5.2637    3.9920   -3.7312 F   0  0  0  0  0  0  0  0  0  0  0  0
    4.5975    2.3063   -2.2080 C   0  0  0  0  0  0  0  0  0  0  0  0
    3.4625    2.1388   -2.9040 F   0  0  0  0  0  0  0  0  0  0  0  0
    3.7674   -4.0027    3.1505 H   0  0  0  0  0  0  0  0  0  0  0  0
    3.9623   -4.7917    1.5353 H   0  0  0  0  0  0  0  0  0  0  0  0
    5.3602   -4.1352    2.3955 H   0  0  0  0  0  0  0  0  0  0  0  0
    1.7679   -4.0541    1.9013 H   0  0  0  0  0  0  0  0  0  0  0  0
   -0.4153   -3.1654    1.2829 H   0  0  0  0  0  0  0  0  0  0  0  0
   -0.9265    0.2428   -0.3447 H   0  0  0  0  0  0  0  0  0  0  0  0
   -4.0406   -1.3452    0.1047 H   0  0  0  0  0  0  0  0  0  0  0  0
   -4.2832    3.1501    0.2690 H   0  0  0  0  0  0  0  0  0  0  0  0
   -6.5429    4.0841   -0.0078 H   0  0  0  0  0  0  0  0  0  0  0  0
   -8.4837    2.5708   -0.3159 H   0  0  0  0  0  0  0  0  0  0  0  0
   -8.1805    0.1530   -0.3255 H   0  0  0  0  0  0  0  0  0  0  0  0
   -7.6045   -1.8253    0.7823 H   0  0  0  0  0  0  0  0  0  0  0  0
   -6.5433   -3.0352    0.0567 H   0  0  0  0  0  0  0  0  0  0  0  0
   -7.4210   -1.9358   -1.0141 H   0  0  0  0  0  0  0  0  0  0  0  0
    1.4204    0.4416   -0.1700 H   0  0  0  0  0  0  0  0  0  0  0  0
    4.9018   -0.8234    0.2449 H   0  0  0  0  0  0  0  0  0  0  0  0
    4.1394    0.4351    1.2905 H   0  0  0  0  0  0  0  0  0  0  0  0
  1  2  1  0
  2  3  1  0
  3  4  2  0
  4  5  1  0
  5  6  2  0
  6  7  1  0
  7  8  2  3
  8  9  1  0
  9 10  1  0
 10 11  2  0
 10 12  1  0
 12 13  2  0
 13 14  1  0
 14 15  2  0
 15 16  1  0
 16 17  2  0
 17 18  1  0
 18 19  1  0
  6 20  1  0
 20 21  2  0
 21 22  1  0
 22 23  1  0
 23 24  1  0
 24 25  2  0
 25 26  1  0
 25 27  1  0
 27 28  1  0
 27 29  2  0
 29 30  1  0
 29 31  1  0
 31 32  1  0
 31 33  2  0
 33 34  1  0
 21  3  1  0
 33 24  1  0
 17 12  1  0
  1 35  1  0
  1 36  1  0
  1 37  1  0
  4 38  1  0
  5 39  1  0
  7 40  1  0
  9 41  1  0
 13 42  1  0
 14 43  1  0
 15 44  1  0
 16 45  1  0
 19 46  1  0
 19 47  1  0
 19 48  1  0
 20 49  1  0
 22 50  1  0
 22 51  1  0
M  END
$$$$
