
     RDKit          3D

 50 53  0  0  0  0  0  0  0  0999 V2000
   -0.5982    1.3636    4.4666 C   0  0  0  0  0  0  0  0  0  0  0  0
   -0.5154    1.3899    2.9476 C   0  0  0  0  0  0  0  0  0  0  0  0
   -0.9742    0.0806    2.3209 C   0  0  0  0  0  0  0  0  0  0  0  0
   -1.3925   -0.8382    3.0293 O   0  0  0  0  0  0  0  0  0  0  0  0
   -0.9151   -0.0260    0.9336 N   0  0  0  0  0  0  0  0  0  0  0  0
   -1.5211   -1.2107    0.3125 C   0  0  0  0  0  0  0  0  0  0  0  0
   -2.9488   -0.9632   -0.1269 C   0  0  0  0  0  0  0  0  0  0  0  0
   -3.2665   -0.8127   -1.4836 C   0  0  0  0  0  0  0  0  0  0  0  0
   -4.5864   -0.5860   -1.8850 C   0  0  0  0  0  0  0  0  0  0  0  0
   -5.6129   -0.5018   -0.9376 C   0  0  0  0  0  0  0  0  0  0  0  0
   -7.0323   -0.3126   -1.3819 C   0  0  0  0  0  0  0  0  0  0  0  0
   -5.3003   -0.6565    0.4172 C   0  0  0  0  0  0  0  0  0  0  0  0
   -3.9814   -0.8825    0.8178 C   0  0  0  0  0  0  0  0  0  0  0  0
   -0.4118    1.0149    0.0266 C   0  0  0  0  0  0  0  0  0  0  0  0
    0.9149    0.6114   -0.5601 C   0  0  0  0  0  0  0  0  0  0  0  0
    2.0786    0.6767    0.1157 C   0  0  0  0  0  0  0  0  0  0  0  0
    3.3468    0.3045   -0.5118 C   0  0  0  0  0  0  0  0  0  0  0  0
    4.5542    0.3717    0.1944 C   0  0  0  0  0  0  0  0  0  0  0  0
    5.7053    0.0069   -0.4733 C   0  0  0  0  0  0  0  0  0  0  0  0
    5.6855   -0.4136   -1.7849 C   0  0  0  0  0  0  0  0  0  0  0  0
    4.5150   -0.4956   -2.5088 C   0  0  0  0  0  0  0  0  0  0  0  0
    3.3375   -0.1265   -1.8557 C   0  0  0  0  0  0  0  0  0  0  0  0
    2.1198   -0.1755   -2.5420 N   0  0  0  0  0  0  0  0  0  0  0  0
    0.9175    0.1821   -1.9941 C   0  0  0  0  0  0  0  0  0  0  0  0
   -0.1101    0.1493   -2.6636 O   0  0  0  0  0  0  0  0  0  0  0  0
    6.9261   -0.7236   -2.2475 O   0  0  0  0  0  0  0  0  0  0  0  0
    7.7303   -0.4520   -1.0794 C   0  0  0  0  0  0  0  0  0  0  0  0
    6.9611    0.0137    0.0500 O   0  0  0  0  0  0  0  0  0  0  0  0
   -0.2178    2.3012    4.8889 H   0  0  0  0  0  0  0  0  0  0  0  0
   -1.6340    1.2333    4.8003 H   0  0  0  0  0  0  0  0  0  0  0  0
   -0.0062    0.5378    4.8783 H   0  0  0  0  0  0  0  0  0  0  0  0
    0.5217    1.5834    2.6634 H   0  0  0  0  0  0  0  0  0  0  0  0
   -1.1506    2.2020    2.5753 H   0  0  0  0  0  0  0  0  0  0  0  0
   -0.9043   -1.5253   -0.5376 H   0  0  0  0  0  0  0  0  0  0  0  0
   -1.5119   -2.0601    1.0088 H   0  0  0  0  0  0  0  0  0  0  0  0
   -2.4884   -0.8745   -2.2419 H   0  0  0  0  0  0  0  0  0  0  0  0
   -4.8079   -0.4827   -2.9452 H   0  0  0  0  0  0  0  0  0  0  0  0
   -7.0941    0.4516   -2.1642 H   0  0  0  0  0  0  0  0  0  0  0  0
   -7.6677    0.0135   -0.5504 H   0  0  0  0  0  0  0  0  0  0  0  0
   -7.4263   -1.2572   -1.7687 H   0  0  0  0  0  0  0  0  0  0  0  0
   -6.0809   -0.6105    1.1728 H   0  0  0  0  0  0  0  0  0  0  0  0
   -3.7632   -1.0054    1.8774 H   0  0  0  0  0  0  0  0  0  0  0  0
   -1.1695    1.2161   -0.7385 H   0  0  0  0  0  0  0  0  0  0  0  0
   -0.2842    1.9639    0.5549 H   0  0  0  0  0  0  0  0  0  0  0  0
    2.1130    0.9990    1.1511 H   0  0  0  0  0  0  0  0  0  0  0  0
    4.6013    0.6947    1.2288 H   0  0  0  0  0  0  0  0  0  0  0  0
    4.5269   -0.8306   -3.5388 H   0  0  0  0  0  0  0  0  0  0  0  0
    2.0913   -0.4792   -3.5073 H   0  0  0  0  0  0  0  0  0  0  0  0
    8.2542   -1.3712   -0.7922 H   0  0  0  0  0  0  0  0  0  0  0  0
    8.4730    0.3119   -1.3361 H   0  0  0  0  0  0  0  0  0  0  0  0
  1  2  1  0
  2  3  1  0
  3  4  2  0
  3  5  1  0
  5  6  1  0
  6  7  1  0
  7  8  2  0
  8  9  1  0
  9 10  2  0
 10 11  1  0
 10 12  1  0
 12 13  2  0
  5 14  1  0
 14 15  1  0
 15 16  2  0
 16 17  1  0
 17 18  2  0
 18 19  1  0
 19 20  2  0
 20 21  1  0
 21 22  2  0
 22 23  1  0
 23 24  1  0
 24 25  2  0
 20 26  1  0
 26 27  1  0
 27 28  1  0
 13  7  1  0
 24 15  1  0
 22 17  1  0
 28 19  1  0
  1 29  1  0
  1 30  1  0
  1 31  1  0
  2 32  1  0
  2 33  1  0
  6 34  1  0
  6 35  1  0
  8 36  1  0
  9 37  1  0
 11 38  1  0
 11 39  1  0
 11 40  1  0
 12 41  1  0
 13 42  1  0
 14 43  1  0
 14 44  1  0
 16 45  1  0
 18 46  1  0
 21 47  1  0
 23 48  1  0
 27 49  1  0
 27 50  1  0
M  END
$$$$
