
     RDKit          3D

 43 43  0  0  0  0  0  0  0  0999 V2000
   -4.7398    2.6196    0.3231 C   0  0  0  0  0  0  0  0  0  0  0  0
   -4.2359    2.1721    1.6603 C   0  0  0  0  0  0  0  0  0  0  0  0
   -5.0968    2.8743    2.9999 Cl  0  0  0  0  0  0  0  0  0  0  0  0
   -3.2348    1.3184    1.9331 C   0  0  0  0  0  0  0  0  0  0  0  0
   -2.3536    0.6037    0.9603 C   0  0  0  0  0  0  0  0  0  0  0  0
   -2.5307   -0.9227    0.9295 N   0  0  0  0  0  4  0  0  0  0  0  0
   -3.9686   -1.2964    0.5920 C   0  0  0  0  0  0  0  0  0  0  0  0
   -2.1505   -1.5470    2.2724 C   0  0  0  0  0  0  0  0  0  0  0  0
   -1.6079   -1.5186   -0.1902 C   0  0  0  0  0  0  0  0  0  0  0  0
   -0.1190   -1.2350   -0.0265 C   0  0  0  0  0  0  0  0  0  0  0  0
    0.5776   -1.7582    0.8325 O   0  0  0  0  0  0  0  0  0  0  0  0
    0.2754   -0.2651   -0.8968 O   0  0  0  0  0  0  0  0  0  0  0  0
    1.6488    0.1604   -0.7830 C   0  0  0  0  0  0  0  0  0  0  0  0
    2.5427   -0.6804   -1.6930 C   0  0  0  0  0  0  0  0  0  0  0  0
    3.9852   -0.2684   -1.5781 C   0  0  0  0  0  0  0  0  0  0  0  0
    4.5283    0.6790   -2.4546 C   0  0  0  0  0  0  0  0  0  0  0  0
    5.8572    1.0836   -2.3197 C   0  0  0  0  0  0  0  0  0  0  0  0
    6.6525    0.5495   -1.3055 C   0  0  0  0  0  0  0  0  0  0  0  0
    6.1212   -0.3919   -0.4282 C   0  0  0  0  0  0  0  0  0  0  0  0
    4.7930   -0.7990   -0.5611 C   0  0  0  0  0  0  0  0  0  0  0  0
   -4.1830    2.1862   -0.5099 H   0  0  0  0  0  0  0  0  0  0  0  0
   -5.7893    2.3363    0.1957 H   0  0  0  0  0  0  0  0  0  0  0  0
   -4.6626    3.7098    0.2249 H   0  0  0  0  0  0  0  0  0  0  0  0
   -2.9955    1.1440    2.9820 H   0  0  0  0  0  0  0  0  0  0  0  0
   -2.4992    0.9525   -0.0666 H   0  0  0  0  0  0  0  0  0  0  0  0
   -1.3092    0.8014    1.2263 H   0  0  0  0  0  0  0  0  0  0  0  0
   -4.0323   -2.3891    0.5182 H   0  0  0  0  0  0  0  0  0  0  0  0
   -4.6294   -0.9382    1.3897 H   0  0  0  0  0  0  0  0  0  0  0  0
   -4.2308   -0.8330   -0.3657 H   0  0  0  0  0  0  0  0  0  0  0  0
   -1.1800   -1.1559    2.5831 H   0  0  0  0  0  0  0  0  0  0  0  0
   -2.9144   -1.2829    3.0129 H   0  0  0  0  0  0  0  0  0  0  0  0
   -2.1152   -2.6346    2.1487 H   0  0  0  0  0  0  0  0  0  0  0  0
   -1.7581   -2.6038   -0.1889 H   0  0  0  0  0  0  0  0  0  0  0  0
   -1.9695   -1.1302   -1.1487 H   0  0  0  0  0  0  0  0  0  0  0  0
    1.9794    0.1347    0.2604 H   0  0  0  0  0  0  0  0  0  0  0  0
    1.6789    1.2126   -1.0924 H   0  0  0  0  0  0  0  0  0  0  0  0
    2.2008   -0.5832   -2.7317 H   0  0  0  0  0  0  0  0  0  0  0  0
    2.4367   -1.7491   -1.4604 H   0  0  0  0  0  0  0  0  0  0  0  0
    3.9247    1.1084   -3.2502 H   0  0  0  0  0  0  0  0  0  0  0  0
    6.2756    1.8175   -3.0081 H   0  0  0  0  0  0  0  0  0  0  0  0
    7.6881    0.8650   -1.2036 H   0  0  0  0  0  0  0  0  0  0  0  0
    6.7436   -0.8092    0.3576 H   0  0  0  0  0  0  0  0  0  0  0  0
    4.3964   -1.5372    0.1326 H   0  0  0  0  0  0  0  0  0  0  0  0
  1  2  1  0
  2  3  1  0
  2  4  2  3
  4  5  1  0
  5  6  1  0
  6  7  1  0
  6  8  1  0
  6  9  1  0
  9 10  1  0
 10 11  2  0
 10 12  1  0
 12 13  1  0
 13 14  1  0
 14 15  1  0
 15 16  2  0
 16 17  1  0
 17 18  2  0
 18 19  1  0
 19 20  2  0
 20 15  1  0
  1 21  1  0
  1 22  1  0
  1 23  1  0
  4 24  1  0
  5 25  1  0
  5 26  1  0
  7 27  1  0
  7 28  1  0
  7 29  1  0
  8 30  1  0
  8 31  1  0
  8 32  1  0
  9 33  1  0
  9 34  1  0
 13 35  1  0
 13 36  1  0
 14 37  1  0
 14 38  1  0
 16 39  1  0
 17 40  1  0
 18 41  1  0
 19 42  1  0
 20 43  1  0
M  CHG  1   6   1
M  END
$$$$
