
     RDKit          3D

 38 39  0  0  0  0  0  0  0  0999 V2000
    1.2838    1.0287    1.8231 O   0  0  0  0  0  0  0  0  0  0  0  0
    0.3227    0.8830    1.0797 C   0  0  0  0  0  0  0  0  0  0  0  0
   -1.0528    1.0952    1.5839 C   0  0  0  0  0  0  0  0  0  0  0  0
   -2.0666    0.2862    1.2401 C   0  0  0  0  0  0  0  0  0  0  0  0
   -3.4493    0.5006    1.6950 C   0  0  0  0  0  0  0  0  0  0  0  0
   -3.7003    0.6464    3.0699 C   0  0  0  0  0  0  0  0  0  0  0  0
   -5.0035    0.8107    3.5527 C   0  0  0  0  0  0  0  0  0  0  0  0
   -6.0850    0.8224    2.6740 C   0  0  0  0  0  0  0  0  0  0  0  0
   -5.8681    0.6692    1.3065 C   0  0  0  0  0  0  0  0  0  0  0  0
   -4.5574    0.5103    0.8258 C   0  0  0  0  0  0  0  0  0  0  0  0
   -4.3888    0.3613   -0.6174 N   0  0  0  0  0  4  0  0  0  0  0  0
   -3.4696    0.9870   -1.1655 O   0  0  0  0  0  0  0  0  0  0  0  0
   -5.1889   -0.3803   -1.2049 O   0  0  0  0  0  1  0  0  0  0  0  0
    0.4003    0.5895   -0.2579 N   0  0  0  0  0  0  0  0  0  0  0  0
    1.6784    0.4551   -0.9295 C   0  0  0  0  0  0  0  0  0  0  0  0
    2.3473   -0.8904   -0.6389 C   0  0  0  0  0  0  0  0  0  0  0  0
    3.6629   -1.0285   -1.3654 C   0  0  0  0  0  0  0  0  0  0  0  0
    3.7214   -1.6445   -2.6246 C   0  0  0  0  0  0  0  0  0  0  0  0
    4.9386   -1.7522   -3.2986 C   0  0  0  0  0  0  0  0  0  0  0  0
    6.0930   -1.2418   -2.7166 C   0  0  0  0  0  0  0  0  0  0  0  0
    7.2600   -1.3456   -3.3660 F   0  0  0  0  0  0  0  0  0  0  0  0
    6.0542   -0.6240   -1.4728 C   0  0  0  0  0  0  0  0  0  0  0  0
    4.8388   -0.5150   -0.7965 C   0  0  0  0  0  0  0  0  0  0  0  0
   -1.1599    1.9230    2.2756 H   0  0  0  0  0  0  0  0  0  0  0  0
   -1.9055   -0.5571    0.5718 H   0  0  0  0  0  0  0  0  0  0  0  0
   -2.8813    0.6208    3.7881 H   0  0  0  0  0  0  0  0  0  0  0  0
   -5.1727    0.9221    4.6221 H   0  0  0  0  0  0  0  0  0  0  0  0
   -7.0959    0.9461    3.0567 H   0  0  0  0  0  0  0  0  0  0  0  0
   -6.7180    0.6752    0.6264 H   0  0  0  0  0  0  0  0  0  0  0  0
   -0.4362    0.6559   -0.8265 H   0  0  0  0  0  0  0  0  0  0  0  0
    2.3233    1.2850   -0.6168 H   0  0  0  0  0  0  0  0  0  0  0  0
    1.4895    0.5672   -2.0031 H   0  0  0  0  0  0  0  0  0  0  0  0
    2.5142   -1.0163    0.4383 H   0  0  0  0  0  0  0  0  0  0  0  0
    1.6775   -1.7109   -0.9275 H   0  0  0  0  0  0  0  0  0  0  0  0
    2.8212   -2.0448   -3.0857 H   0  0  0  0  0  0  0  0  0  0  0  0
    4.9943   -2.2294   -4.2715 H   0  0  0  0  0  0  0  0  0  0  0  0
    6.9677   -0.2314   -1.0380 H   0  0  0  0  0  0  0  0  0  0  0  0
    4.8107   -0.0285    0.1772 H   0  0  0  0  0  0  0  0  0  0  0  0
  1  2  2  0
  2  3  1  0
  3  4  2  3
  4  5  1  0
  5  6  2  0
  6  7  1  0
  7  8  2  0
  8  9  1  0
  9 10  2  0
 10 11  1  0
 11 12  2  0
 11 13  1  0
  2 14  1  0
 14 15  1  0
 15 16  1  0
 16 17  1  0
 17 18  2  0
 18 19  1  0
 19 20  2  0
 20 21  1  0
 20 22  1  0
 22 23  2  0
 10  5  1  0
 23 17  1  0
  3 24  1  0
  4 25  1  0
  6 26  1  0
  7 27  1  0
  8 28  1  0
  9 29  1  0
 14 30  1  0
 15 31  1  0
 15 32  1  0
 16 33  1  0
 16 34  1  0
 18 35  1  0
 19 36  1  0
 22 37  1  0
 23 38  1  0
M  CHG  2  11   1  13  -1
M  END
$$$$
