
     RDKit          3D

 38 38  0  0  0  0  0  0  0  0999 V2000
    4.7369   -0.6232   -4.0656 C   0  0  0  0  0  0  0  0  0  0  0  0
    3.7978   -1.0377   -2.9510 C   0  0  0  0  0  0  0  0  0  0  0  0
    3.4152    0.1374   -2.2230 O   0  0  0  0  0  0  0  0  0  0  0  0
    2.6071   -0.1131   -1.1551 C   0  0  0  0  0  0  0  0  0  0  0  0
    2.2063   -1.2219   -0.8258 O   0  0  0  0  0  0  0  0  0  0  0  0
    2.2600    1.1767   -0.4711 C   0  0  0  0  0  0  0  0  0  0  0  0
    1.5711    0.9625    0.8521 C   0  0  0  0  0  0  0  0  0  0  0  0
    2.1753    1.0624    1.9168 O   0  0  0  0  0  0  0  0  0  0  0  0
    0.1363    0.5821    0.8746 C   0  0  0  0  0  0  0  0  0  0  0  0
   -0.7967    1.1790    0.0143 C   0  0  0  0  0  0  0  0  0  0  0  0
   -2.1397    0.8024    0.0798 C   0  0  0  0  0  0  0  0  0  0  0  0
   -3.1377    1.3431   -0.6919 O   0  0  0  0  0  0  0  0  0  0  0  0
   -2.7498    2.0401   -1.8709 C   0  0  0  0  0  0  0  0  0  0  0  0
   -2.5327   -0.1610    1.0263 C   0  0  0  0  0  0  0  0  0  0  0  0
   -3.8524   -0.5514    1.0688 O   0  0  0  0  0  0  0  0  0  0  0  0
   -4.5546    0.2323    2.0387 C   0  0  0  0  0  0  0  0  0  0  0  0
   -1.5975   -0.7801    1.8772 C   0  0  0  0  0  0  0  0  0  0  0  0
   -2.0860   -1.7285    2.7368 O   0  0  0  0  0  0  0  0  0  0  0  0
   -1.1368   -2.5267    3.4315 C   0  0  0  0  0  0  0  0  0  0  0  0
   -0.2631   -0.3831    1.8095 C   0  0  0  0  0  0  0  0  0  0  0  0
    5.0637   -1.4907   -4.6475 H   0  0  0  0  0  0  0  0  0  0  0  0
    5.6192   -0.1194   -3.6557 H   0  0  0  0  0  0  0  0  0  0  0  0
    4.2476    0.0921   -4.7376 H   0  0  0  0  0  0  0  0  0  0  0  0
    4.3056   -1.7421   -2.2806 H   0  0  0  0  0  0  0  0  0  0  0  0
    2.9056   -1.5075   -3.3771 H   0  0  0  0  0  0  0  0  0  0  0  0
    3.1821    1.7334   -0.2716 H   0  0  0  0  0  0  0  0  0  0  0  0
    1.6500    1.7896   -1.1414 H   0  0  0  0  0  0  0  0  0  0  0  0
   -0.4818    1.9578   -0.6687 H   0  0  0  0  0  0  0  0  0  0  0  0
   -3.6595    2.2870   -2.4268 H   0  0  0  0  0  0  0  0  0  0  0  0
   -2.2497    2.9847   -1.6254 H   0  0  0  0  0  0  0  0  0  0  0  0
   -2.1235    1.4132   -2.5155 H   0  0  0  0  0  0  0  0  0  0  0  0
   -5.6058   -0.0650    2.0125 H   0  0  0  0  0  0  0  0  0  0  0  0
   -4.4991    1.3053    1.8037 H   0  0  0  0  0  0  0  0  0  0  0  0
   -4.1771    0.0441    3.0498 H   0  0  0  0  0  0  0  0  0  0  0  0
   -0.5939   -1.9320    4.1733 H   0  0  0  0  0  0  0  0  0  0  0  0
   -1.6861   -3.3062    3.9675 H   0  0  0  0  0  0  0  0  0  0  0  0
   -0.4474   -3.0217    2.7399 H   0  0  0  0  0  0  0  0  0  0  0  0
    0.4910   -0.8136    2.4639 H   0  0  0  0  0  0  0  0  0  0  0  0
  1  2  1  0
  2  3  1  0
  3  4  1  0
  4  5  2  0
  4  6  1  0
  6  7  1  0
  7  8  2  0
  7  9  1  0
  9 10  2  0
 10 11  1  0
 11 12  1  0
 12 13  1  0
 11 14  2  0
 14 15  1  0
 15 16  1  0
 14 17  1  0
 17 18  1  0
 18 19  1  0
 17 20  2  0
 20  9  1  0
  1 21  1  0
  1 22  1  0
  1 23  1  0
  2 24  1  0
  2 25  1  0
  6 26  1  0
  6 27  1  0
 10 28  1  0
 13 29  1  0
 13 30  1  0
 13 31  1  0
 16 32  1  0
 16 33  1  0
 16 34  1  0
 19 35  1  0
 19 36  1  0
 19 37  1  0
 20 38  1  0
M  END
$$$$
