
     RDKit          3D

 56 61  0  0  0  0  0  0  0  0999 V2000
    7.8293    2.7903   -2.9436 C   0  0  0  0  0  0  0  0  0  0  0  0
    6.4768    2.4438   -2.6731 O   0  0  0  0  0  0  0  0  0  0  0  0
    6.2470    1.6185   -1.6067 C   0  0  0  0  0  0  0  0  0  0  0  0
    7.2129    1.1065   -0.7467 C   0  0  0  0  0  0  0  0  0  0  0  0
    6.8313    0.2676    0.3011 C   0  0  0  0  0  0  0  0  0  0  0  0
    5.4815   -0.0637    0.4958 C   0  0  0  0  0  0  0  0  0  0  0  0
    5.0936   -0.9131    1.5443 C   0  0  0  0  0  0  0  0  0  0  0  0
    3.7298   -1.2016    1.6747 C   0  0  0  0  0  0  0  0  0  0  0  0
    2.9224   -1.9784    2.5394 C   0  0  0  0  0  0  0  0  0  0  0  0
    1.6105   -1.8354    2.1124 C   0  0  0  0  0  0  0  0  0  0  0  0
    0.4003   -2.4316    2.6651 C   0  0  0  0  0  0  0  0  0  0  0  0
    0.4829   -3.1697    3.6511 O   0  0  0  0  0  0  0  0  0  0  0  0
   -0.8505   -2.1789    2.0914 N   0  0  0  0  0  0  0  0  0  0  0  0
   -1.0826   -1.4215    0.8573 C   0  0  0  0  0  0  0  0  0  0  0  0
   -2.5495   -1.4527    0.3814 C   0  0  0  0  0  0  0  0  0  0  0  0
   -3.4725   -1.0598    1.4565 N   0  0  0  0  0  0  0  0  0  0  0  0
   -4.8796   -1.0665    1.0400 C   0  0  0  0  0  0  0  0  0  0  0  0
   -5.2017   -0.0189   -0.0060 C   0  0  0  0  0  0  0  0  0  0  0  0
   -5.7416   -0.3987   -1.2571 C   0  0  0  0  0  0  0  0  0  0  0  0
   -6.0501    0.5599   -2.2280 C   0  0  0  0  0  0  0  0  0  0  0  0
   -5.8125    1.8820   -1.9228 C   0  0  0  0  0  0  0  0  0  0  0  0
   -5.2910    2.2634   -0.7096 C   0  0  0  0  0  0  0  0  0  0  0  0
   -4.9780    1.3427    0.2671 C   0  0  0  0  0  0  0  0  0  0  0  0
   -5.1346    3.6108   -0.6122 O   0  0  0  0  0  0  0  0  0  0  0  0
   -5.6103    4.0329   -1.9064 C   0  0  0  0  0  0  0  0  0  0  0  0
   -6.0507    2.9416   -2.7417 O   0  0  0  0  0  0  0  0  0  0  0  0
   -3.2637   -1.8562    2.6830 C   0  0  0  0  0  0  0  0  0  0  0  0
   -2.0360   -2.7921    2.6848 C   0  0  0  0  0  0  0  0  0  0  0  0
    1.5852   -1.0005    1.0305 O   0  0  0  0  0  0  0  0  0  0  0  0
    2.8622   -0.6212    0.7606 C   0  0  0  0  0  0  0  0  0  0  0  0
    3.1811    0.1932   -0.2563 N   0  0  0  0  0  0  0  0  0  0  0  0
    4.4899    0.4563   -0.3705 C   0  0  0  0  0  0  0  0  0  0  0  0
    4.9026    1.2867   -1.4025 C   0  0  0  0  0  0  0  0  0  0  0  0
    8.4276    1.9013   -3.1696 H   0  0  0  0  0  0  0  0  0  0  0  0
    7.8390    3.4326   -3.8297 H   0  0  0  0  0  0  0  0  0  0  0  0
    8.2632    3.3591   -2.1145 H   0  0  0  0  0  0  0  0  0  0  0  0
    8.2667    1.3376   -0.8619 H   0  0  0  0  0  0  0  0  0  0  0  0
    7.5983   -0.1272    0.9646 H   0  0  0  0  0  0  0  0  0  0  0  0
    5.8169   -1.3389    2.2314 H   0  0  0  0  0  0  0  0  0  0  0  0
    3.2393   -2.5806    3.3803 H   0  0  0  0  0  0  0  0  0  0  0  0
   -0.4496   -1.8393    0.0680 H   0  0  0  0  0  0  0  0  0  0  0  0
   -0.7837   -0.3840    1.0438 H   0  0  0  0  0  0  0  0  0  0  0  0
   -2.6329   -0.7715   -0.4731 H   0  0  0  0  0  0  0  0  0  0  0  0
   -2.7949   -2.4596    0.0183 H   0  0  0  0  0  0  0  0  0  0  0  0
   -5.1685   -2.0642    0.6847 H   0  0  0  0  0  0  0  0  0  0  0  0
   -5.5239   -0.8470    1.9023 H   0  0  0  0  0  0  0  0  0  0  0  0
   -5.9212   -1.4487   -1.4788 H   0  0  0  0  0  0  0  0  0  0  0  0
   -6.4623    0.2751   -3.1891 H   0  0  0  0  0  0  0  0  0  0  0  0
   -4.5608    1.6630    1.2167 H   0  0  0  0  0  0  0  0  0  0  0  0
   -4.8009    4.5644   -2.4219 H   0  0  0  0  0  0  0  0  0  0  0  0
   -6.4489    4.7241   -1.7630 H   0  0  0  0  0  0  0  0  0  0  0  0
   -4.1420   -2.4691    2.9228 H   0  0  0  0  0  0  0  0  0  0  0  0
   -3.1524   -1.1401    3.5064 H   0  0  0  0  0  0  0  0  0  0  0  0
   -2.2531   -3.6902    2.0926 H   0  0  0  0  0  0  0  0  0  0  0  0
   -1.8419   -3.1243    3.7103 H   0  0  0  0  0  0  0  0  0  0  0  0
    4.1514    1.6915   -2.0786 H   0  0  0  0  0  0  0  0  0  0  0  0
  1  2  1  0
  2  3  1  0
  3  4  2  0
  4  5  1  0
  5  6  2  0
  6  7  1  0
  7  8  2  0
  8  9  1  0
  9 10  2  0
 10 11  1  0
 11 12  2  0
 11 13  1  0
 13 14  1  0
 14 15  1  0
 15 16  1  0
 16 17  1  0
 17 18  1  0
 18 19  2  0
 19 20  1  0
 20 21  2  0
 21 22  1  0
 22 23  2  0
 22 24  1  0
 24 25  1  0
 25 26  1  0
 16 27  1  0
 27 28  1  0
 10 29  1  0
 29 30  1  0
 30 31  2  0
 31 32  1  0
 32 33  2  0
 33  3  1  0
 32  6  1  0
 30  8  1  0
 28 13  1  0
 23 18  1  0
 26 21  1  0
  1 34  1  0
  1 35  1  0
  1 36  1  0
  4 37  1  0
  5 38  1  0
  7 39  1  0
  9 40  1  0
 14 41  1  0
 14 42  1  0
 15 43  1  0
 15 44  1  0
 17 45  1  0
 17 46  1  0
 19 47  1  0
 20 48  1  0
 23 49  1  0
 25 50  1  0
 25 51  1  0
 27 52  1  0
 27 53  1  0
 28 54  1  0
 28 55  1  0
 33 56  1  0
M  END
$$$$
