
     RDKit          3D

 59 64  0  0  0  0  0  0  0  0999 V2000
    3.3170    0.8916    2.7184 O   0  0  0  0  0  0  0  0  0  0  0  0
    3.2422    0.5109    1.5518 C   0  0  0  0  0  0  0  0  0  0  0  0
    4.4770    0.3485    0.7338 C   0  0  0  0  0  0  0  0  0  0  0  0
    5.6527    0.7812    1.2208 C   0  0  0  0  0  0  0  0  0  0  0  0
    6.8761    0.6434    0.4998 C   0  0  0  0  0  0  0  0  0  0  0  0
    7.1336    0.2287   -0.7985 C   0  0  0  0  0  0  0  0  0  0  0  0
    8.5205    0.2394   -1.1292 C   0  0  0  0  0  0  0  0  0  0  0  0
    9.2966    0.6651   -0.0748 C   0  0  0  0  0  0  0  0  0  0  0  0
    8.3566    1.0486    1.2960 S   0  0  0  0  0  0  0  0  0  0  0  0
    2.0303    0.2028    0.9424 N   0  0  0  0  0  0  0  0  0  0  0  0
    1.8579   -0.0835   -0.4818 C   0  0  0  0  0  0  0  0  0  0  0  0
    0.4077    0.0664   -0.9335 C   0  0  0  0  0  0  0  0  0  0  0  0
   -0.5406   -0.8552   -0.1215 C   0  0  0  0  0  0  0  0  0  0  0  0
   -0.1472   -0.8709    1.3816 C   0  0  0  0  0  0  0  0  0  0  0  0
    0.8235    0.2426    1.7604 C   0  0  0  0  0  0  0  0  0  0  0  0
   -0.2472   -2.1749   -0.6659 O   0  0  0  0  0  0  0  0  0  0  0  0
   -1.1717   -3.1597   -0.4843 C   0  0  0  0  0  0  0  0  0  0  0  0
   -0.7443   -4.4590   -0.7670 C   0  0  0  0  0  0  0  0  0  0  0  0
   -1.6147   -5.5365   -0.5912 C   0  0  0  0  0  0  0  0  0  0  0  0
   -2.9090   -5.3060   -0.1358 C   0  0  0  0  0  0  0  0  0  0  0  0
   -3.7418   -6.3409    0.0371 F   0  0  0  0  0  0  0  0  0  0  0  0
   -3.3516   -4.0185    0.1389 C   0  0  0  0  0  0  0  0  0  0  0  0
   -2.4758   -2.9455   -0.0502 C   0  0  0  0  0  0  0  0  0  0  0  0
   -2.9177   -1.5690    0.2051 C   0  0  0  0  0  0  0  0  0  0  0  0
   -3.9464   -1.3715    0.8475 O   0  0  0  0  0  0  0  0  0  0  0  0
   -2.0283   -0.4631   -0.3545 C   0  0  0  0  0  0  0  0  0  0  0  0
   -2.4346    0.8970    0.1987 C   0  0  0  0  0  0  0  0  0  0  0  0
   -3.2968    1.3578   -0.9268 C   0  0  0  0  0  0  0  0  0  0  0  0
   -4.1740    2.5472   -0.8104 C   0  0  0  0  0  0  0  0  0  0  0  0
   -4.1749    3.3491    0.3368 C   0  0  0  0  0  0  0  0  0  0  0  0
   -5.0121    4.4670    0.4088 C   0  0  0  0  0  0  0  0  0  0  0  0
   -5.8478    4.7869   -0.6603 C   0  0  0  0  0  0  0  0  0  0  0  0
   -5.8494    3.9925   -1.8055 C   0  0  0  0  0  0  0  0  0  0  0  0
   -5.0147    2.8753   -1.8817 C   0  0  0  0  0  0  0  0  0  0  0  0
   -3.1894    0.6624   -2.0143 N   0  0  0  0  0  0  0  0  0  0  0  0
   -2.2838   -0.3899   -1.7670 O   0  0  0  0  0  0  0  0  0  0  0  0
    4.4033   -0.1459   -0.2221 H   0  0  0  0  0  0  0  0  0  0  0  0
    5.6885    1.2488    2.2058 H   0  0  0  0  0  0  0  0  0  0  0  0
    6.3629   -0.0694   -1.4982 H   0  0  0  0  0  0  0  0  0  0  0  0
    8.9269   -0.0484   -2.0915 H   0  0  0  0  0  0  0  0  0  0  0  0
   10.3728    0.7719   -0.0432 H   0  0  0  0  0  0  0  0  0  0  0  0
    2.4835    0.6028   -1.0624 H   0  0  0  0  0  0  0  0  0  0  0  0
    2.2196   -1.1021   -0.6612 H   0  0  0  0  0  0  0  0  0  0  0  0
    0.3551   -0.1785   -2.0021 H   0  0  0  0  0  0  0  0  0  0  0  0
    0.1260    1.1199   -0.8349 H   0  0  0  0  0  0  0  0  0  0  0  0
   -1.0324   -0.7909    2.0238 H   0  0  0  0  0  0  0  0  0  0  0  0
    0.3214   -1.8319    1.6344 H   0  0  0  0  0  0  0  0  0  0  0  0
    0.3647    1.2283    1.6246 H   0  0  0  0  0  0  0  0  0  0  0  0
    1.0750    0.1509    2.8224 H   0  0  0  0  0  0  0  0  0  0  0  0
    0.2697   -4.6336   -1.1183 H   0  0  0  0  0  0  0  0  0  0  0  0
   -1.2909   -6.5510   -0.8044 H   0  0  0  0  0  0  0  0  0  0  0  0
   -4.3696   -3.8618    0.4841 H   0  0  0  0  0  0  0  0  0  0  0  0
   -2.9715    0.8519    1.1490 H   0  0  0  0  0  0  0  0  0  0  0  0
   -1.6055    1.6011    0.2967 H   0  0  0  0  0  0  0  0  0  0  0  0
   -3.5355    3.1301    1.1861 H   0  0  0  0  0  0  0  0  0  0  0  0
   -5.0137    5.0891    1.3009 H   0  0  0  0  0  0  0  0  0  0  0  0
   -6.4994    5.6561   -0.6011 H   0  0  0  0  0  0  0  0  0  0  0  0
   -6.5007    4.2396   -2.6402 H   0  0  0  0  0  0  0  0  0  0  0  0
   -5.0281    2.2629   -2.7815 H   0  0  0  0  0  0  0  0  0  0  0  0
  1  2  2  0
  2  3  1  0
  3  4  2  3
  4  5  1  0
  5  6  2  0
  6  7  1  0
  7  8  2  0
  8  9  1  0
  2 10  1  0
 10 11  1  0
 11 12  1  0
 12 13  1  0
 13 14  1  0
 14 15  1  0
 13 16  1  0
 16 17  1  0
 17 18  2  0
 18 19  1  0
 19 20  2  0
 20 21  1  0
 20 22  1  0
 22 23  2  0
 23 24  1  0
 24 25  2  0
 24 26  1  0
 26 27  1  0
 27 28  1  0
 28 29  1  0
 29 30  2  0
 30 31  1  0
 31 32  2  0
 32 33  1  0
 33 34  2  0
 28 35  2  0
 35 36  1  0
  9  5  1  0
 15 10  1  0
 23 17  1  0
 36 26  1  0
 26 13  1  0
 34 29  1  0
  3 37  1  0
  4 38  1  0
  6 39  1  0
  7 40  1  0
  8 41  1  0
 11 42  1  0
 11 43  1  0
 12 44  1  0
 12 45  1  0
 14 46  1  0
 14 47  1  0
 15 48  1  0
 15 49  1  0
 18 50  1  0
 19 51  1  0
 22 52  1  0
 27 53  1  0
 27 54  1  0
 30 55  1  0
 31 56  1  0
 32 57  1  0
 33 58  1  0
 34 59  1  0
M  END
$$$$
