
     RDKit          3D

 37 39  0  0  0  0  0  0  0  0999 V2000
   -4.7927   -2.1995    1.2913 C   0  0  0  0  0  0  0  0  0  0  0  0
   -4.3673   -1.6258   -0.0486 C   0  0  0  0  0  0  0  0  0  0  0  0
   -4.1110   -0.1960    0.0206 N   0  0  0  0  0  0  0  0  0  0  0  0
   -5.1489    0.6452   -0.1989 N   0  0  0  0  0  0  0  0  0  0  0  0
   -4.6079    1.8567   -0.0794 C   0  0  0  0  0  0  0  0  0  0  0  0
   -3.2372    1.7875    0.1918 C   0  0  0  0  0  0  0  0  0  0  0  0
   -2.1780    3.3046    0.4810 Br  0  0  0  0  0  0  0  0  0  0  0  0
   -2.9071    0.4469    0.2356 C   0  0  0  0  0  0  0  0  0  0  0  0
   -1.6510   -0.2350    0.4852 C   0  0  0  0  0  0  0  0  0  0  0  0
   -1.6338   -1.3462    1.0012 O   0  0  0  0  0  0  0  0  0  0  0  0
   -0.5435    0.4663    0.0504 N   0  0  0  0  0  0  0  0  0  0  0  0
    0.7935    0.1008    0.1450 C   0  0  0  0  0  0  0  0  0  0  0  0
    1.2737   -1.3085    0.9938 S   0  0  0  0  0  0  0  0  0  0  0  0
    2.8727   -1.0205    0.6339 C   0  0  0  0  0  0  0  0  0  0  0  0
    3.0872    0.1141   -0.0981 C   0  0  0  0  0  0  0  0  0  0  0  0
    1.8760    0.8110   -0.3905 C   0  0  0  0  0  0  0  0  0  0  0  0
    1.6943    2.0500   -1.1428 C   0  0  0  0  0  0  0  0  0  0  0  0
    2.8101    2.8016   -1.3706 N   0  0  0  0  0  0  0  0  0  0  0  0
    0.5976    2.4434   -1.5316 O   0  0  0  0  0  0  0  0  0  0  0  0
    4.5375    0.2709   -0.3917 C   0  0  0  0  0  0  0  0  0  0  0  0
    5.1144   -1.1311   -0.0235 C   0  0  0  0  0  0  0  0  0  0  0  0
    4.0975   -1.7882    0.9548 C   0  0  0  0  0  0  0  0  0  0  0  0
   -5.7141   -1.7259    1.6467 H   0  0  0  0  0  0  0  0  0  0  0  0
   -4.0254   -2.0448    2.0563 H   0  0  0  0  0  0  0  0  0  0  0  0
   -4.9754   -3.2748    1.2027 H   0  0  0  0  0  0  0  0  0  0  0  0
   -3.4739   -2.1247   -0.4345 H   0  0  0  0  0  0  0  0  0  0  0  0
   -5.1592   -1.7791   -0.7915 H   0  0  0  0  0  0  0  0  0  0  0  0
   -5.2406    2.7279   -0.1893 H   0  0  0  0  0  0  0  0  0  0  0  0
   -0.7071    1.3317   -0.4626 H   0  0  0  0  0  0  0  0  0  0  0  0
    2.6520    3.7176   -1.7687 H   0  0  0  0  0  0  0  0  0  0  0  0
    3.6543    2.6627   -0.8382 H   0  0  0  0  0  0  0  0  0  0  0  0
    4.7360    0.5116   -1.4397 H   0  0  0  0  0  0  0  0  0  0  0  0
    4.9767    1.0413    0.2509 H   0  0  0  0  0  0  0  0  0  0  0  0
    5.1779   -1.7403   -0.9350 H   0  0  0  0  0  0  0  0  0  0  0  0
    6.1212   -1.0687    0.4008 H   0  0  0  0  0  0  0  0  0  0  0  0
    4.4001   -1.6217    1.9937 H   0  0  0  0  0  0  0  0  0  0  0  0
    4.0015   -2.8608    0.7661 H   0  0  0  0  0  0  0  0  0  0  0  0
  1  2  1  0
  2  3  1  0
  3  4  1  0
  4  5  2  0
  5  6  1  0
  6  7  1  0
  6  8  2  0
  8  9  1  0
  9 10  2  0
  9 11  1  0
 11 12  1  0
 12 13  1  0
 13 14  1  0
 14 15  2  0
 15 16  1  0
 16 17  1  0
 17 18  1  0
 17 19  2  0
 15 20  1  0
 20 21  1  0
 21 22  1  0
  8  3  1  0
 16 12  2  0
 22 14  1  0
  1 23  1  0
  1 24  1  0
  1 25  1  0
  2 26  1  0
  2 27  1  0
  5 28  1  0
 11 29  1  0
 18 30  1  0
 18 31  1  0
 20 32  1  0
 20 33  1  0
 21 34  1  0
 21 35  1  0
 22 36  1  0
 22 37  1  0
M  END
$$$$
