
     RDKit          3D

 53 55  0  0  0  0  0  0  0  0999 V2000
   -7.0842   -4.0584    4.8298 C   0  0  0  0  0  0  0  0  0  0  0  0
   -5.9024   -4.4858    4.1641 O   0  0  0  0  0  0  0  0  0  0  0  0
   -5.0633   -3.5101    3.7015 C   0  0  0  0  0  0  0  0  0  0  0  0
   -5.2865   -2.1326    3.7762 C   0  0  0  0  0  0  0  0  0  0  0  0
   -4.3440   -1.2375    3.2589 C   0  0  0  0  0  0  0  0  0  0  0  0
   -3.1797   -1.7284    2.6640 C   0  0  0  0  0  0  0  0  0  0  0  0
   -1.9752   -0.6098    1.9969 S   0  0  0  0  0  6  0  0  0  0  0  0
   -0.6860   -0.9966    2.5222 O   0  0  0  0  0  0  0  0  0  0  0  0
   -2.4731    0.7422    2.1424 O   0  0  0  0  0  0  0  0  0  0  0  0
   -2.0091   -0.9698    0.3631 N   0  0  0  0  0  0  0  0  0  0  0  0
   -3.2593   -0.7755   -0.3869 C   0  0  0  0  0  0  0  0  0  0  0  0
   -2.8300   -0.0316   -1.6311 C   0  0  0  0  0  0  0  0  0  0  0  0
   -1.4630   -0.4046   -1.8153 O   0  0  0  0  0  0  0  0  0  0  0  0
   -0.8956   -0.5010   -0.4874 C   0  0  0  0  0  0  0  0  0  0  0  0
   -0.2833    0.8737   -0.1058 C   0  0  0  0  0  0  0  0  0  0  0  0
    0.6470    1.3830   -1.1007 N   0  0  0  0  0  0  0  0  0  0  0  0
    1.8759    0.8015   -1.3052 C   0  0  0  0  0  0  0  0  0  0  0  0
    2.3734   -0.0827   -0.6229 O   0  0  0  0  0  0  0  0  0  0  0  0
    2.6286    1.3506   -2.5388 C   0  0  0  0  0  0  0  0  0  0  0  0
    2.1082    2.2010   -3.2473 O   0  0  0  0  0  0  0  0  0  0  0  0
    3.8731    0.7940   -2.7104 N   0  0  0  0  0  0  0  0  0  0  0  0
    4.8017    1.2683   -3.7018 C   0  0  0  0  0  0  0  0  0  0  0  0
    5.7596    2.2683   -3.1064 C   0  0  0  0  0  0  0  0  0  0  0  0
    5.4088    3.6266   -3.0344 C   0  0  0  0  0  0  0  0  0  0  0  0
    6.2826    4.5528   -2.4636 C   0  0  0  0  0  0  0  0  0  0  0  0
    7.5029    4.1216   -1.9586 C   0  0  0  0  0  0  0  0  0  0  0  0
    8.3416    5.0106   -1.4104 F   0  0  0  0  0  0  0  0  0  0  0  0
    7.8653    2.7808   -2.0101 C   0  0  0  0  0  0  0  0  0  0  0  0
    6.9930    1.8520   -2.5802 C   0  0  0  0  0  0  0  0  0  0  0  0
   -2.9421   -3.1018    2.5905 C   0  0  0  0  0  0  0  0  0  0  0  0
   -3.8893   -3.9867    3.1075 C   0  0  0  0  0  0  0  0  0  0  0  0
   -6.8449   -3.4699    5.7218 H   0  0  0  0  0  0  0  0  0  0  0  0
   -7.6260   -4.9515    5.1556 H   0  0  0  0  0  0  0  0  0  0  0  0
   -7.7385   -3.5010    4.1514 H   0  0  0  0  0  0  0  0  0  0  0  0
   -6.1818   -1.7231    4.2330 H   0  0  0  0  0  0  0  0  0  0  0  0
   -4.5258   -0.1672    3.3295 H   0  0  0  0  0  0  0  0  0  0  0  0
   -3.6551   -1.7635   -0.6454 H   0  0  0  0  0  0  0  0  0  0  0  0
   -4.0322   -0.2261    0.1562 H   0  0  0  0  0  0  0  0  0  0  0  0
   -3.4175   -0.3050   -2.5117 H   0  0  0  0  0  0  0  0  0  0  0  0
   -2.8865    1.0539   -1.4949 H   0  0  0  0  0  0  0  0  0  0  0  0
   -0.1174   -1.2698   -0.5263 H   0  0  0  0  0  0  0  0  0  0  0  0
    0.2538    0.8077    0.8454 H   0  0  0  0  0  0  0  0  0  0  0  0
   -1.0623    1.6369   -0.0100 H   0  0  0  0  0  0  0  0  0  0  0  0
    0.3063    1.9765   -1.8529 H   0  0  0  0  0  0  0  0  0  0  0  0
    4.1953    0.1763   -1.9708 H   0  0  0  0  0  0  0  0  0  0  0  0
    5.3471    0.3994   -4.0861 H   0  0  0  0  0  0  0  0  0  0  0  0
    4.2635    1.7141   -4.5461 H   0  0  0  0  0  0  0  0  0  0  0  0
    4.4480    3.9649   -3.4200 H   0  0  0  0  0  0  0  0  0  0  0  0
    6.0171    5.6034   -2.4066 H   0  0  0  0  0  0  0  0  0  0  0  0
    8.8216    2.4680   -1.6034 H   0  0  0  0  0  0  0  0  0  0  0  0
    7.2803    0.8033   -2.6106 H   0  0  0  0  0  0  0  0  0  0  0  0
   -2.0297   -3.4847    2.1385 H   0  0  0  0  0  0  0  0  0  0  0  0
   -3.7110   -5.0585    3.0537 H   0  0  0  0  0  0  0  0  0  0  0  0
  1  2  1  0
  2  3  1  0
  3  4  2  0
  4  5  1  0
  5  6  2  0
  6  7  1  0
  7  8  2  0
  7  9  2  0
  7 10  1  0
 10 11  1  0
 11 12  1  0
 12 13  1  0
 13 14  1  0
 14 15  1  0
 15 16  1  0
 16 17  1  0
 17 18  2  0
 17 19  1  0
 19 20  2  0
 19 21  1  0
 21 22  1  0
 22 23  1  0
 23 24  2  0
 24 25  1  0
 25 26  2  0
 26 27  1  0
 26 28  1  0
 28 29  2  0
  6 30  1  0
 30 31  2  0
 31  3  1  0
 14 10  1  0
 29 23  1  0
  1 32  1  0
  1 33  1  0
  1 34  1  0
  4 35  1  0
  5 36  1  0
 11 37  1  0
 11 38  1  0
 12 39  1  0
 12 40  1  0
 14 41  1  0
 15 42  1  0
 15 43  1  0
 16 44  1  0
 21 45  1  0
 22 46  1  0
 22 47  1  0
 24 48  1  0
 25 49  1  0
 28 50  1  0
 29 51  1  0
 30 52  1  0
 31 53  1  0
M  END
$$$$
