
     RDKit          3D

 57 60  0  0  0  0  0  0  0  0999 V2000
   -9.2337    0.5835   -0.4244 C   0  0  0  0  0  0  0  0  0  0  0  0
   -8.2522   -0.2997    0.1049 O   0  0  0  0  0  0  0  0  0  0  0  0
   -6.9569    0.1399    0.1213 C   0  0  0  0  0  0  0  0  0  0  0  0
   -6.0590   -0.7235    0.7522 C   0  0  0  0  0  0  0  0  0  0  0  0
   -4.7009   -0.4061    0.8442 C   0  0  0  0  0  0  0  0  0  0  0  0
   -4.2274    0.7859    0.3015 C   0  0  0  0  0  0  0  0  0  0  0  0
   -2.8721    1.1834    0.3420 N   0  0  0  0  0  0  0  0  0  0  0  0
   -1.8141    0.5549    0.9780 C   0  0  0  0  0  0  0  0  0  0  0  0
   -1.8954   -0.4432    1.6872 O   0  0  0  0  0  0  0  0  0  0  0  0
   -0.4937    1.2665    0.7424 C   0  0  0  0  0  0  0  0  0  0  0  0
    0.6046    0.3485    0.4685 N   0  0  0  0  0  0  0  0  0  0  0  0
    1.6845    0.1698    1.2922 C   0  0  0  0  0  0  0  0  0  0  0  0
    2.5392   -0.7247    0.6798 C   0  0  0  0  0  0  0  0  0  0  0  0
    4.0734   -1.2471    1.2952 S   0  0  0  0  0  6  0  0  0  0  0  0
    4.0908   -2.6763    1.0534 O   0  0  0  0  0  0  0  0  0  0  0  0
    4.1340   -0.6758    2.6275 O   0  0  0  0  0  0  0  0  0  0  0  0
    5.2251   -0.4068    0.2141 C   0  0  0  0  0  0  0  0  0  0  0  0
    6.6336   -0.7620    0.6106 C   0  0  0  0  0  0  0  0  0  0  0  0
    7.3085   -0.0184    1.5889 C   0  0  0  0  0  0  0  0  0  0  0  0
    8.6138   -0.3499    1.9545 C   0  0  0  0  0  0  0  0  0  0  0  0
    9.2562   -1.4270    1.3488 C   0  0  0  0  0  0  0  0  0  0  0  0
    8.5928   -2.1777    0.3810 C   0  0  0  0  0  0  0  0  0  0  0  0
    7.2877   -1.8494    0.0135 C   0  0  0  0  0  0  0  0  0  0  0  0
    1.9637   -1.1019   -0.5679 C   0  0  0  0  0  0  0  0  0  0  0  0
    2.3430   -1.9692   -1.6161 C   0  0  0  0  0  0  0  0  0  0  0  0
    1.5300   -2.0929   -2.7474 C   0  0  0  0  0  0  0  0  0  0  0  0
    0.3465   -1.3707   -2.8483 C   0  0  0  0  0  0  0  0  0  0  0  0
   -0.0619   -0.5123   -1.8231 C   0  0  0  0  0  0  0  0  0  0  0  0
    0.7598   -0.3932   -0.6891 C   0  0  0  0  0  0  0  0  0  0  0  0
   -5.1286    1.6614   -0.3460 C   0  0  0  0  0  0  0  0  0  0  0  0
   -4.5626    2.8132   -0.8504 O   0  0  0  0  0  0  0  0  0  0  0  0
   -5.4221    3.7056   -1.5524 C   0  0  0  0  0  0  0  0  0  0  0  0
   -6.4882    1.3330   -0.4327 C   0  0  0  0  0  0  0  0  0  0  0  0
   -9.2615    1.5230    0.1355 H   0  0  0  0  0  0  0  0  0  0  0  0
  -10.2099    0.1024   -0.3170 H   0  0  0  0  0  0  0  0  0  0  0  0
   -9.0634    0.7620   -1.4905 H   0  0  0  0  0  0  0  0  0  0  0  0
   -6.4172   -1.6568    1.1798 H   0  0  0  0  0  0  0  0  0  0  0  0
   -4.0438   -1.1154    1.3395 H   0  0  0  0  0  0  0  0  0  0  0  0
   -2.7085    2.0687   -0.1275 H   0  0  0  0  0  0  0  0  0  0  0  0
   -0.2491    1.8499    1.6361 H   0  0  0  0  0  0  0  0  0  0  0  0
   -0.5484    1.9534   -0.1089 H   0  0  0  0  0  0  0  0  0  0  0  0
    1.7630    0.6742    2.2482 H   0  0  0  0  0  0  0  0  0  0  0  0
    5.0562    0.6718    0.2997 H   0  0  0  0  0  0  0  0  0  0  0  0
    5.0269   -0.7111   -0.8175 H   0  0  0  0  0  0  0  0  0  0  0  0
    6.8197    0.8188    2.0830 H   0  0  0  0  0  0  0  0  0  0  0  0
    9.1270    0.2289    2.7179 H   0  0  0  0  0  0  0  0  0  0  0  0
   10.2706   -1.6866    1.6365 H   0  0  0  0  0  0  0  0  0  0  0  0
    9.0907   -3.0239   -0.0842 H   0  0  0  0  0  0  0  0  0  0  0  0
    6.7836   -2.4565   -0.7359 H   0  0  0  0  0  0  0  0  0  0  0  0
    3.2509   -2.5621   -1.5457 H   0  0  0  0  0  0  0  0  0  0  0  0
    1.8210   -2.7697   -3.5470 H   0  0  0  0  0  0  0  0  0  0  0  0
   -0.2803   -1.4870   -3.7300 H   0  0  0  0  0  0  0  0  0  0  0  0
   -1.0012    0.0253   -1.9095 H   0  0  0  0  0  0  0  0  0  0  0  0
   -5.8344    3.2262   -2.4465 H   0  0  0  0  0  0  0  0  0  0  0  0
   -4.8176    4.5578   -1.8799 H   0  0  0  0  0  0  0  0  0  0  0  0
   -6.2130    4.0885   -0.8980 H   0  0  0  0  0  0  0  0  0  0  0  0
   -7.1796    2.0005   -0.9302 H   0  0  0  0  0  0  0  0  0  0  0  0
  1  2  1  0
  2  3  1  0
  3  4  2  0
  4  5  1  0
  5  6  2  0
  6  7  1  0
  7  8  1  0
  8  9  2  0
  8 10  1  0
 10 11  1  0
 11 12  1  0
 12 13  2  0
 13 14  1  0
 14 15  2  0
 14 16  2  0
 14 17  1  0
 17 18  1  0
 18 19  2  0
 19 20  1  0
 20 21  2  0
 21 22  1  0
 22 23  2  0
 13 24  1  0
 24 25  2  0
 25 26  1  0
 26 27  2  0
 27 28  1  0
 28 29  2  0
  6 30  1  0
 30 31  1  0
 31 32  1  0
 30 33  2  0
 33  3  1  0
 29 11  1  0
 23 18  1  0
 29 24  1  0
  1 34  1  0
  1 35  1  0
  1 36  1  0
  4 37  1  0
  5 38  1  0
  7 39  1  0
 10 40  1  0
 10 41  1  0
 12 42  1  0
 17 43  1  0
 17 44  1  0
 19 45  1  0
 20 46  1  0
 21 47  1  0
 22 48  1  0
 23 49  1  0
 25 50  1  0
 26 51  1  0
 27 52  1  0
 28 53  1  0
 32 54  1  0
 32 55  1  0
 32 56  1  0
 33 57  1  0
M  END
$$$$
