
     RDKit          3D

 50 52  0  0  0  0  0  0  0  0999 V2000
    1.5412   -1.0047   -2.5819 C   0  0  0  0  0  0  0  0  0  0  0  0
    2.2267   -1.5992   -1.3627 C   0  0  0  0  0  0  0  0  0  0  0  0
    2.7977   -0.5691   -0.4814 N   0  0  0  0  0  4  0  0  0  0  0  0
    2.2111   -0.1666    0.6397 C   0  0  0  0  0  0  0  0  0  0  0  0
    0.9698   -0.5916    1.1697 C   0  0  0  0  0  0  0  0  0  0  0  0
   -0.1961   -0.2214    0.6162 C   0  0  0  0  0  0  0  0  0  0  0  0
   -1.4689   -0.6361    1.1720 C   0  0  0  0  0  0  0  0  0  0  0  0
   -2.6550   -0.2344    0.6858 C   0  0  0  0  0  0  0  0  0  0  0  0
   -3.9303   -0.5597    1.1758 N   0  0  0  0  0  0  0  0  0  0  0  0
   -4.0968   -1.1941    2.4314 C   0  0  0  0  0  0  0  0  0  0  0  0
   -5.3809   -1.9702    2.6532 C   0  0  0  0  0  0  0  0  0  0  0  0
   -3.2465   -1.2084    3.3276 O   0  0  0  0  0  0  0  0  0  0  0  0
   -5.0807   -0.1181    0.4225 C   0  0  0  0  0  0  0  0  0  0  0  0
   -5.1059   -0.2399   -0.9769 C   0  0  0  0  0  0  0  0  0  0  0  0
   -6.2148    0.1900   -1.7135 C   0  0  0  0  0  0  0  0  0  0  0  0
   -7.3070    0.7592   -1.0621 C   0  0  0  0  0  0  0  0  0  0  0  0
   -7.2862    0.9113    0.3225 C   0  0  0  0  0  0  0  0  0  0  0  0
   -6.1782    0.4808    1.0606 C   0  0  0  0  0  0  0  0  0  0  0  0
    3.2044    0.9401    1.4946 S   0  0  0  0  0  0  0  0  0  0  0  0
    4.4225    0.8944    0.2796 C   0  0  0  0  0  0  0  0  0  0  0  0
    5.6425    1.5959    0.2378 C   0  0  0  0  0  0  0  0  0  0  0  0
    6.4855    1.3843   -0.8557 C   0  0  0  0  0  0  0  0  0  0  0  0
    7.6959    1.9851   -1.0563 O   0  0  0  0  0  0  0  0  0  0  0  0
    8.2080    2.8021   -0.0061 C   0  0  0  0  0  0  0  0  0  0  0  0
    6.1127    0.4985   -1.8683 C   0  0  0  0  0  0  0  0  0  0  0  0
    4.8981   -0.1978   -1.8223 C   0  0  0  0  0  0  0  0  0  0  0  0
    4.0386    0.0116   -0.7276 C   0  0  0  0  0  0  0  0  0  0  0  0
    2.2433   -0.4328   -3.1969 H   0  0  0  0  0  0  0  0  0  0  0  0
    0.7337   -0.3267   -2.2931 H   0  0  0  0  0  0  0  0  0  0  0  0
    1.1143   -1.8024   -3.2025 H   0  0  0  0  0  0  0  0  0  0  0  0
    3.0291   -2.2812   -1.6714 H   0  0  0  0  0  0  0  0  0  0  0  0
    1.5168   -2.2227   -0.8086 H   0  0  0  0  0  0  0  0  0  0  0  0
    0.9847   -1.1862    2.0825 H   0  0  0  0  0  0  0  0  0  0  0  0
   -0.2313    0.4316   -0.2542 H   0  0  0  0  0  0  0  0  0  0  0  0
   -1.4207   -1.3024    2.0313 H   0  0  0  0  0  0  0  0  0  0  0  0
   -2.6656    0.4260   -0.1792 H   0  0  0  0  0  0  0  0  0  0  0  0
   -5.1404   -2.8753    3.2229 H   0  0  0  0  0  0  0  0  0  0  0  0
   -6.0850   -1.3727    3.2373 H   0  0  0  0  0  0  0  0  0  0  0  0
   -5.8353   -2.3008    1.7159 H   0  0  0  0  0  0  0  0  0  0  0  0
   -4.2840   -0.7087   -1.5128 H   0  0  0  0  0  0  0  0  0  0  0  0
   -6.2324    0.0743   -2.7950 H   0  0  0  0  0  0  0  0  0  0  0  0
   -8.1727    1.0905   -1.6354 H   0  0  0  0  0  0  0  0  0  0  0  0
   -8.1305    1.3734    0.8311 H   0  0  0  0  0  0  0  0  0  0  0  0
   -6.1765    0.6598    2.1350 H   0  0  0  0  0  0  0  0  0  0  0  0
    5.8979    2.2794    1.0402 H   0  0  0  0  0  0  0  0  0  0  0  0
    7.5766    3.6832    0.1511 H   0  0  0  0  0  0  0  0  0  0  0  0
    8.3231    2.2278    0.9221 H   0  0  0  0  0  0  0  0  0  0  0  0
    9.2005    3.1522   -0.3081 H   0  0  0  0  0  0  0  0  0  0  0  0
    6.7860    0.3463   -2.7136 H   0  0  0  0  0  0  0  0  0  0  0  0
    4.6608   -0.8744   -2.6382 H   0  0  0  0  0  0  0  0  0  0  0  0
  1  2  1  0
  2  3  1  0
  3  4  2  0
  4  5  1  0
  5  6  2  3
  6  7  1  0
  7  8  2  3
  8  9  1  0
  9 10  1  0
 10 11  1  0
 10 12  2  0
  9 13  1  0
 13 14  2  0
 14 15  1  0
 15 16  2  0
 16 17  1  0
 17 18  2  0
  4 19  1  0
 19 20  1  0
 20 21  2  0
 21 22  1  0
 22 23  1  0
 23 24  1  0
 22 25  2  0
 25 26  1  0
 26 27  2  0
 27  3  1  0
 18 13  1  0
 27 20  1  0
  1 28  1  0
  1 29  1  0
  1 30  1  0
  2 31  1  0
  2 32  1  0
  5 33  1  0
  6 34  1  0
  7 35  1  0
  8 36  1  0
 11 37  1  0
 11 38  1  0
 11 39  1  0
 14 40  1  0
 15 41  1  0
 16 42  1  0
 17 43  1  0
 18 44  1  0
 21 45  1  0
 24 46  1  0
 24 47  1  0
 24 48  1  0
 25 49  1  0
 26 50  1  0
M  CHG  1   3   1
M  END
$$$$
