
     RDKit          3D

 38 40  0  0  0  0  0  0  0  0999 V2000
   -0.5382   -0.0123   -2.8430 C   0  0  0  0  0  0  0  0  0  0  0  0
   -0.6600   -0.3057   -1.3735 C   0  0  0  0  0  0  0  0  0  0  0  0
   -0.9102   -1.6243   -0.9608 C   0  0  0  0  0  0  0  0  0  0  0  0
   -1.0411   -1.9303    0.3954 C   0  0  0  0  0  0  0  0  0  0  0  0
   -1.2680   -3.2262    0.7738 O   0  0  0  0  0  0  0  0  0  0  0  0
   -0.9405   -0.9284    1.3664 C   0  0  0  0  0  0  0  0  0  0  0  0
   -1.1020   -1.2747    3.1097 S   0  0  0  0  0  0  0  0  0  0  0  0
   -2.8324   -1.1997    3.3300 C   0  0  0  0  0  0  0  0  0  0  0  0
   -3.7220   -0.7898    2.3680 N   0  0  0  0  0  0  0  0  0  0  0  0
   -4.8798   -0.8671    2.9795 C   0  0  0  0  0  0  0  0  0  0  0  0
   -4.6914   -1.3016    4.2515 N   0  0  0  0  0  0  0  0  0  0  0  0
   -3.3932   -1.5160    4.5047 N   0  0  0  0  0  0  0  0  0  0  0  0
   -0.6898    0.3869    0.9577 C   0  0  0  0  0  0  0  0  0  0  0  0
   -0.5436    0.6996   -0.3979 C   0  0  0  0  0  0  0  0  0  0  0  0
   -0.2603    2.0414   -0.7865 N   0  0  0  0  0  0  0  0  0  0  0  0
    1.1542    2.8020   -0.2736 S   0  0  0  0  0  6  0  0  0  0  0  0
    1.1666    2.8960    1.1694 O   0  0  0  0  0  0  0  0  0  0  0  0
    1.2912    3.9827   -1.1013 O   0  0  0  0  0  0  0  0  0  0  0  0
    2.4332    1.6617   -0.7602 C   0  0  0  0  0  0  0  0  0  0  0  0
    3.0058    1.7684   -2.0325 C   0  0  0  0  0  0  0  0  0  0  0  0
    4.0157    0.8799   -2.4080 C   0  0  0  0  0  0  0  0  0  0  0  0
    4.4529   -0.0954   -1.5101 C   0  0  0  0  0  0  0  0  0  0  0  0
    5.6929   -1.1914   -1.9805 Cl  0  0  0  0  0  0  0  0  0  0  0  0
    3.8967   -0.1861   -0.2335 C   0  0  0  0  0  0  0  0  0  0  0  0
    2.8885    0.7007    0.1493 C   0  0  0  0  0  0  0  0  0  0  0  0
   -1.3711    0.6175   -3.1715 H   0  0  0  0  0  0  0  0  0  0  0  0
   -0.5577   -0.9307   -3.4390 H   0  0  0  0  0  0  0  0  0  0  0  0
    0.4075    0.4930   -3.0598 H   0  0  0  0  0  0  0  0  0  0  0  0
   -0.9969   -2.4116   -1.7052 H   0  0  0  0  0  0  0  0  0  0  0  0
   -1.4362   -3.7682   -0.0134 H   0  0  0  0  0  0  0  0  0  0  0  0
   -5.8491   -0.6287    2.5671 H   0  0  0  0  0  0  0  0  0  0  0  0
   -5.3739   -1.4639    4.9835 H   0  0  0  0  0  0  0  0  0  0  0  0
   -0.6289    1.1750    1.7052 H   0  0  0  0  0  0  0  0  0  0  0  0
   -0.5674    2.3640   -1.7015 H   0  0  0  0  0  0  0  0  0  0  0  0
    2.6769    2.5354   -2.7302 H   0  0  0  0  0  0  0  0  0  0  0  0
    4.4622    0.9556   -3.3965 H   0  0  0  0  0  0  0  0  0  0  0  0
    4.2452   -0.9406    0.4680 H   0  0  0  0  0  0  0  0  0  0  0  0
    2.4641    0.6332    1.1494 H   0  0  0  0  0  0  0  0  0  0  0  0
  1  2  1  0
  2  3  2  0
  3  4  1  0
  4  5  1  0
  4  6  2  0
  6  7  1  0
  7  8  1  0
  8  9  1  0
  9 10  2  0
 10 11  1  0
 11 12  1  0
  6 13  1  0
 13 14  2  0
 14 15  1  0
 15 16  1  0
 16 17  2  0
 16 18  2  0
 16 19  1  0
 19 20  2  0
 20 21  1  0
 21 22  2  0
 22 23  1  0
 22 24  1  0
 24 25  2  0
 14  2  1  0
 25 19  1  0
 12  8  2  0
  1 26  1  0
  1 27  1  0
  1 28  1  0
  3 29  1  0
  5 30  1  0
 10 31  1  0
 11 32  1  0
 13 33  1  0
 15 34  1  0
 20 35  1  0
 21 36  1  0
 24 37  1  0
 25 38  1  0
M  END
$$$$
