
     RDKit          3D

 48 51  0  0  0  0  0  0  0  0999 V2000
    1.2002   -1.7830    2.1945 C   0  0  0  0  0  0  0  0  0  0  0  0
    1.5903   -0.4317    1.6873 C   0  0  0  0  0  0  0  0  0  0  0  0
    0.7933    0.5826    1.3105 C   0  0  0  0  0  0  0  0  0  0  0  0
   -0.5558    0.8109    1.3207 N   0  0  0  0  0  0  0  0  0  0  0  0
   -1.5487    0.1383    1.9977 C   0  0  0  0  0  0  0  0  0  0  0  0
   -1.3594   -0.7505    2.8277 O   0  0  0  0  0  0  0  0  0  0  0  0
   -2.9531    0.6828    1.7771 C   0  0  0  0  0  0  0  0  0  0  0  0
   -3.3034    1.1965    0.0694 S   0  0  0  0  0  0  0  0  0  0  0  0
   -3.4306   -0.4180   -0.6946 C   0  0  0  0  0  0  0  0  0  0  0  0
   -2.3108   -1.1610   -0.5991 N   0  0  0  0  0  0  0  0  0  0  0  0
   -2.3591   -2.3693   -1.1632 C   0  0  0  0  0  0  0  0  0  0  0  0
   -3.4073   -2.8910   -1.8156 N   0  0  0  0  0  0  0  0  0  0  0  0
   -4.5084   -2.1316   -1.9084 C   0  0  0  0  0  0  0  0  0  0  0  0
   -5.6141   -2.6471   -2.5792 C   0  0  0  0  0  0  0  0  0  0  0  0
   -6.8091   -1.9294   -2.7081 C   0  0  0  0  0  0  0  0  0  0  0  0
   -6.9106   -0.6596   -2.1605 C   0  0  0  0  0  0  0  0  0  0  0  0
   -5.8111   -0.1139   -1.4948 C   0  0  0  0  0  0  0  0  0  0  0  0
   -4.5970   -0.8461   -1.3568 C   0  0  0  0  0  0  0  0  0  0  0  0
    1.7078    1.6260    0.7426 C   0  0  0  0  0  0  0  0  0  0  0  0
    1.2831    2.6626    0.2503 O   0  0  0  0  0  0  0  0  0  0  0  0
    3.0075    1.1263    0.8584 N   0  0  0  0  0  0  0  0  0  0  0  0
    4.1225    1.5296    0.0775 C   0  0  0  0  0  0  0  0  0  0  0  0
    5.1613    0.6361   -0.2269 C   0  0  0  0  0  0  0  0  0  0  0  0
    6.2599    1.0388   -0.9938 C   0  0  0  0  0  0  0  0  0  0  0  0
    6.3360    2.3436   -1.4704 C   0  0  0  0  0  0  0  0  0  0  0  0
    5.3124    3.2426   -1.1839 C   0  0  0  0  0  0  0  0  0  0  0  0
    4.2142    2.8378   -0.4183 C   0  0  0  0  0  0  0  0  0  0  0  0
    2.9592   -0.1499    1.4935 N   0  0  0  0  0  0  0  0  0  0  0  0
    3.8371   -0.2433    2.6769 C   0  0  0  0  0  0  0  0  0  0  0  0
    1.0922   -1.7777    3.2827 H   0  0  0  0  0  0  0  0  0  0  0  0
    1.9648   -2.5233    1.9311 H   0  0  0  0  0  0  0  0  0  0  0  0
    0.2793   -2.1426    1.7243 H   0  0  0  0  0  0  0  0  0  0  0  0
   -0.8402    1.6340    0.7894 H   0  0  0  0  0  0  0  0  0  0  0  0
   -3.0727    1.5575    2.4269 H   0  0  0  0  0  0  0  0  0  0  0  0
   -3.6851   -0.0709    2.0887 H   0  0  0  0  0  0  0  0  0  0  0  0
   -1.4681   -2.9865   -1.0855 H   0  0  0  0  0  0  0  0  0  0  0  0
   -5.5459   -3.6451   -3.0097 H   0  0  0  0  0  0  0  0  0  0  0  0
   -7.6541   -2.3682   -3.2374 H   0  0  0  0  0  0  0  0  0  0  0  0
   -7.8379   -0.0934   -2.2517 H   0  0  0  0  0  0  0  0  0  0  0  0
   -5.9085    0.8844   -1.0740 H   0  0  0  0  0  0  0  0  0  0  0  0
    5.1141   -0.3998    0.0982 H   0  0  0  0  0  0  0  0  0  0  0  0
    7.0498    0.3280   -1.2250 H   0  0  0  0  0  0  0  0  0  0  0  0
    7.1886    2.6588   -2.0673 H   0  0  0  0  0  0  0  0  0  0  0  0
    5.3660    4.2644   -1.5508 H   0  0  0  0  0  0  0  0  0  0  0  0
    3.4429    3.5738   -0.2024 H   0  0  0  0  0  0  0  0  0  0  0  0
    4.8802   -0.0392    2.4245 H   0  0  0  0  0  0  0  0  0  0  0  0
    3.8019   -1.2520    3.1017 H   0  0  0  0  0  0  0  0  0  0  0  0
    3.5263    0.4686    3.4502 H   0  0  0  0  0  0  0  0  0  0  0  0
  1  2  1  0
  2  3  2  0
  3  4  1  0
  4  5  1  0
  5  6  2  0
  5  7  1  0
  7  8  1  0
  8  9  1  0
  9 10  2  0
 10 11  1  0
 11 12  2  0
 12 13  1  0
 13 14  2  0
 14 15  1  0
 15 16  2  0
 16 17  1  0
 17 18  2  0
  3 19  1  0
 19 20  2  0
 19 21  1  0
 21 22  1  0
 22 23  2  0
 23 24  1  0
 24 25  2  0
 25 26  1  0
 26 27  2  0
 21 28  1  0
 28 29  1  0
 28  2  1  0
 18  9  1  0
 27 22  1  0
 18 13  1  0
  1 30  1  0
  1 31  1  0
  1 32  1  0
  4 33  1  0
  7 34  1  0
  7 35  1  0
 11 36  1  0
 14 37  1  0
 15 38  1  0
 16 39  1  0
 17 40  1  0
 23 41  1  0
 24 42  1  0
 25 43  1  0
 26 44  1  0
 27 45  1  0
 29 46  1  0
 29 47  1  0
 29 48  1  0
M  END
$$$$
