
     RDKit          3D

 65 68  0  0  0  0  0  0  0  0999 V2000
    5.2347    2.8630    5.1585 C   0  0  0  0  0  0  0  0  0  0  0  0
    4.9555    1.6486    4.3701 C   0  0  0  0  0  0  0  0  0  0  0  0
    4.5989    1.4098    3.0623 C   0  0  0  0  0  0  0  0  0  0  0  0
    4.5050    0.0083    2.9685 C   0  0  0  0  0  0  0  0  0  0  0  0
    4.1989   -0.7731    1.8764 N   0  0  0  0  0  0  0  0  0  0  0  0
    3.9227   -0.2998    0.6116 C   0  0  0  0  0  0  0  0  0  0  0  0
    3.9290    0.8783    0.2557 O   0  0  0  0  0  0  0  0  0  0  0  0
    3.5797   -1.3936   -0.3794 C   0  0  0  0  0  0  0  0  0  0  0  0
    2.1058   -1.2919   -0.7583 C   0  0  0  0  0  0  0  0  0  0  0  0
    1.1945   -1.7985    0.3507 C   0  0  0  0  0  0  0  0  0  0  0  0
    1.6838   -2.3549    1.3363 O   0  0  0  0  0  0  0  0  0  0  0  0
   -0.1795   -1.6365    0.1767 N   0  0  0  0  0  0  0  0  0  0  0  0
   -1.0399   -2.0337    1.2966 C   0  0  0  0  0  0  0  0  0  0  0  0
   -1.6721   -3.3781    1.0564 C   0  0  0  0  0  0  0  0  0  0  0  0
   -3.0223   -3.6773    1.0084 C   0  0  0  0  0  0  0  0  0  0  0  0
   -3.2753   -5.0570    0.7881 C   0  0  0  0  0  0  0  0  0  0  0  0
   -2.1078   -5.7816    0.6907 C   0  0  0  0  0  0  0  0  0  0  0  0
   -0.7192   -4.7963    0.8579 S   0  0  0  0  0  0  0  0  0  0  0  0
   -0.7600   -0.7944   -0.8944 C   0  0  0  0  0  0  0  0  0  0  0  0
   -0.7980    0.6969   -0.4483 C   0  0  0  0  0  0  0  0  0  0  0  0
   -0.8576    1.0544    0.7282 O   0  0  0  0  0  0  0  0  0  0  0  0
   -0.7710    1.5966   -1.5032 N   0  0  0  0  0  0  0  0  0  0  0  0
   -0.8091    3.0232   -1.2613 C   0  0  0  0  0  0  0  0  0  0  0  0
   -0.4035    3.8290   -2.4873 C   0  0  0  0  0  0  0  0  0  0  0  0
   -0.9151    5.2215   -2.1505 C   0  0  0  0  0  0  0  0  0  0  0  0
   -2.2672    4.9709   -1.4924 C   0  0  0  0  0  0  0  0  0  0  0  0
   -2.2085    3.5474   -0.9306 C   0  0  0  0  0  0  0  0  0  0  0  0
   -2.0840   -1.3034   -1.4566 C   0  0  0  0  0  0  0  0  0  0  0  0
   -2.0688   -2.4349   -2.2947 C   0  0  0  0  0  0  0  0  0  0  0  0
   -3.2490   -2.9348   -2.8462 C   0  0  0  0  0  0  0  0  0  0  0  0
   -4.4648   -2.3101   -2.5688 C   0  0  0  0  0  0  0  0  0  0  0  0
   -4.5024   -1.1947   -1.7310 C   0  0  0  0  0  0  0  0  0  0  0  0
   -3.3209   -0.6954   -1.1747 C   0  0  0  0  0  0  0  0  0  0  0  0
    4.7635   -0.5670    4.1582 N   0  0  0  0  0  0  0  0  0  0  0  0
    5.0608    0.4656    5.0294 O   0  0  0  0  0  0  0  0  0  0  0  0
    6.2511    2.8344    5.5540 H   0  0  0  0  0  0  0  0  0  0  0  0
    4.5375    2.9541    5.9948 H   0  0  0  0  0  0  0  0  0  0  0  0
    5.1452    3.7612    4.5448 H   0  0  0  0  0  0  0  0  0  0  0  0
    4.4483    2.1501    2.2815 H   0  0  0  0  0  0  0  0  0  0  0  0
    4.0911   -1.7577    2.0944 H   0  0  0  0  0  0  0  0  0  0  0  0
    4.2077   -1.2342   -1.2636 H   0  0  0  0  0  0  0  0  0  0  0  0
    3.8412   -2.3836    0.0121 H   0  0  0  0  0  0  0  0  0  0  0  0
    1.8594   -0.2496   -0.9913 H   0  0  0  0  0  0  0  0  0  0  0  0
    1.9295   -1.9092   -1.6442 H   0  0  0  0  0  0  0  0  0  0  0  0
   -1.8132   -1.2740    1.4443 H   0  0  0  0  0  0  0  0  0  0  0  0
   -0.4727   -2.0707    2.2343 H   0  0  0  0  0  0  0  0  0  0  0  0
   -3.7975   -2.9267    1.1106 H   0  0  0  0  0  0  0  0  0  0  0  0
   -4.2629   -5.4998    0.7069 H   0  0  0  0  0  0  0  0  0  0  0  0
   -2.0049   -6.8447    0.5292 H   0  0  0  0  0  0  0  0  0  0  0  0
   -0.0718   -0.8104   -1.7506 H   0  0  0  0  0  0  0  0  0  0  0  0
   -1.0315    1.2615   -2.4231 H   0  0  0  0  0  0  0  0  0  0  0  0
   -0.1293    3.2505   -0.4295 H   0  0  0  0  0  0  0  0  0  0  0  0
    0.6761    3.8060   -2.6630 H   0  0  0  0  0  0  0  0  0  0  0  0
   -0.9027    3.4456   -3.3846 H   0  0  0  0  0  0  0  0  0  0  0  0
   -0.2415    5.7146   -1.4408 H   0  0  0  0  0  0  0  0  0  0  0  0
   -1.0007    5.8607   -3.0350 H   0  0  0  0  0  0  0  0  0  0  0  0
   -2.4683    5.7068   -0.7077 H   0  0  0  0  0  0  0  0  0  0  0  0
   -3.0673    5.0548   -2.2368 H   0  0  0  0  0  0  0  0  0  0  0  0
   -2.3928    3.5417    0.1487 H   0  0  0  0  0  0  0  0  0  0  0  0
   -2.9889    2.9283   -1.3907 H   0  0  0  0  0  0  0  0  0  0  0  0
   -1.1316   -2.9518   -2.5038 H   0  0  0  0  0  0  0  0  0  0  0  0
   -3.2137   -3.8171   -3.4834 H   0  0  0  0  0  0  0  0  0  0  0  0
   -5.3879   -2.6973   -2.9968 H   0  0  0  0  0  0  0  0  0  0  0  0
   -5.4554   -0.7170   -1.5046 H   0  0  0  0  0  0  0  0  0  0  0  0
   -3.3896    0.1672   -0.5113 H   0  0  0  0  0  0  0  0  0  0  0  0
  1  2  1  0
  2  3  2  0
  3  4  1  0
  4  5  1  0
  5  6  1  0
  6  7  2  0
  6  8  1  0
  8  9  1  0
  9 10  1  0
 10 11  2  0
 10 12  1  0
 12 13  1  0
 13 14  1  0
 14 15  2  0
 15 16  1  0
 16 17  2  0
 17 18  1  0
 12 19  1  0
 19 20  1  0
 20 21  2  0
 20 22  1  0
 22 23  1  0
 23 24  1  0
 24 25  1  0
 25 26  1  0
 26 27  1  0
 19 28  1  0
 28 29  2  0
 29 30  1  0
 30 31  2  0
 31 32  1  0
 32 33  2  0
  4 34  2  0
 34 35  1  0
 35  2  1  0
 18 14  1  0
 27 23  1  0
 33 28  1  0
  1 36  1  0
  1 37  1  0
  1 38  1  0
  3 39  1  0
  5 40  1  0
  8 41  1  0
  8 42  1  0
  9 43  1  0
  9 44  1  0
 13 45  1  0
 13 46  1  0
 15 47  1  0
 16 48  1  0
 17 49  1  0
 19 50  1  0
 22 51  1  0
 23 52  1  0
 24 53  1  0
 24 54  1  0
 25 55  1  0
 25 56  1  0
 26 57  1  0
 26 58  1  0
 27 59  1  0
 27 60  1  0
 29 61  1  0
 30 62  1  0
 31 63  1  0
 32 64  1  0
 33 65  1  0
M  END
$$$$
