
     RDKit          3D

 33 35  0  0  0  0  0  0  0  0999 V2000
    1.7957   -0.5560    1.4316 O   0  0  0  0  0  0  0  0  0  0  0  0
    1.8221   -0.2939    0.2381 C   0  0  0  0  0  0  0  0  0  0  0  0
    0.7215   -0.0718   -0.5625 N   0  0  0  0  0  0  0  0  0  0  0  0
   -0.5549   -0.1894   -0.0859 C   0  0  0  0  0  0  0  0  0  0  0  0
   -1.0044   -0.6970    1.0323 N   0  0  0  0  0  0  0  0  0  0  0  0
   -2.3831   -0.6335    1.1026 N   0  0  0  0  0  0  0  0  0  0  0  0
   -2.9290   -0.0808    0.0335 C   0  0  0  0  0  0  0  0  0  0  0  0
   -4.3801    0.1143   -0.1517 C   0  0  0  0  0  0  0  0  0  0  0  0
   -5.2554   -0.3192    0.8641 C   0  0  0  0  0  0  0  0  0  0  0  0
   -6.6395   -0.1621    0.7460 C   0  0  0  0  0  0  0  0  0  0  0  0
   -7.1638    0.4320   -0.3921 C   0  0  0  0  0  0  0  0  0  0  0  0
   -8.4887    0.5846   -0.5101 F   0  0  0  0  0  0  0  0  0  0  0  0
   -6.3301    0.8712   -1.4116 C   0  0  0  0  0  0  0  0  0  0  0  0
   -4.9443    0.7138   -1.2930 C   0  0  0  0  0  0  0  0  0  0  0  0
   -1.7581    0.3894   -1.1460 S   0  0  0  0  0  0  0  0  0  0  0  0
    2.9831   -0.2169   -0.5254 N   0  0  0  0  0  0  0  0  0  0  0  0
    4.2882   -0.1536    0.0145 C   0  0  0  0  0  0  0  0  0  0  0  0
    5.3303   -0.7163   -0.7332 C   0  0  0  0  0  0  0  0  0  0  0  0
    6.6444   -0.6820   -0.2549 C   0  0  0  0  0  0  0  0  0  0  0  0
    6.9320   -0.0685    0.9637 C   0  0  0  0  0  0  0  0  0  0  0  0
    5.9071    0.5253    1.6974 C   0  0  0  0  0  0  0  0  0  0  0  0
    4.5979    0.4893    1.2199 C   0  0  0  0  0  0  0  0  0  0  0  0
    3.6663    1.1668    1.9057 F   0  0  0  0  0  0  0  0  0  0  0  0
    0.8445    0.4140   -1.4342 H   0  0  0  0  0  0  0  0  0  0  0  0
   -4.8587   -0.7873    1.7654 H   0  0  0  0  0  0  0  0  0  0  0  0
   -7.3043   -0.4996    1.5350 H   0  0  0  0  0  0  0  0  0  0  0  0
   -6.7620    1.3346   -2.2935 H   0  0  0  0  0  0  0  0  0  0  0  0
   -4.3255    1.0717   -2.1117 H   0  0  0  0  0  0  0  0  0  0  0  0
    2.8995   -0.6238   -1.4453 H   0  0  0  0  0  0  0  0  0  0  0  0
    5.1350   -1.2073   -1.6826 H   0  0  0  0  0  0  0  0  0  0  0  0
    7.4449   -1.1378   -0.8332 H   0  0  0  0  0  0  0  0  0  0  0  0
    7.9532   -0.0419    1.3357 H   0  0  0  0  0  0  0  0  0  0  0  0
    6.1162    1.0319    2.6346 H   0  0  0  0  0  0  0  0  0  0  0  0
  1  2  2  0
  2  3  1  0
  3  4  1  0
  4  5  2  0
  5  6  1  0
  6  7  2  0
  7  8  1  0
  8  9  2  0
  9 10  1  0
 10 11  2  0
 11 12  1  0
 11 13  1  0
 13 14  2  0
  7 15  1  0
  2 16  1  0
 16 17  1  0
 17 18  2  0
 18 19  1  0
 19 20  2  0
 20 21  1  0
 21 22  2  0
 22 23  1  0
 15  4  1  0
 22 17  1  0
 14  8  1  0
  3 24  1  0
  9 25  1  0
 10 26  1  0
 13 27  1  0
 14 28  1  0
 16 29  1  0
 18 30  1  0
 19 31  1  0
 20 32  1  0
 21 33  1  0
M  END
$$$$
