
     RDKit          3D

 47 49  0  0  0  0  0  0  0  0999 V2000
    7.8515   -0.5971   -0.5006 C   0  0  0  0  0  0  0  0  0  0  0  0
    7.5236   -0.1558    0.9176 C   0  0  0  0  0  0  0  0  0  0  0  0
    6.0380   -0.0089    1.1285 C   0  0  0  0  0  0  0  0  0  0  0  0
    5.2734   -1.0931    1.5780 C   0  0  0  0  0  0  0  0  0  0  0  0
    3.8954   -0.9579    1.7618 C   0  0  0  0  0  0  0  0  0  0  0  0
    3.2605    0.2539    1.4834 C   0  0  0  0  0  0  0  0  0  0  0  0
    1.8766    0.3831    1.6523 N   0  0  0  0  0  0  0  0  0  0  0  0
    1.1011    0.1098    0.6607 C   0  0  0  0  0  0  0  0  0  0  0  0
    1.4608   -0.3065   -0.5821 N   0  0  0  0  0  0  0  0  0  0  0  0
    0.4640   -0.5385   -1.4837 C   0  0  0  0  0  0  0  0  0  0  0  0
    0.6372   -0.9059   -2.6349 O   0  0  0  0  0  0  0  0  0  0  0  0
   -0.8582   -0.2732   -0.8539 C   0  0  0  0  0  0  0  0  0  0  0  0
   -2.0033   -0.4172   -1.5341 C   0  0  0  0  0  0  0  0  0  0  0  0
   -3.3561   -0.1683   -1.0200 C   0  0  0  0  0  0  0  0  0  0  0  0
   -3.8830   -0.9317    0.0342 C   0  0  0  0  0  0  0  0  0  0  0  0
   -5.1777   -0.6976    0.5032 C   0  0  0  0  0  0  0  0  0  0  0  0
   -5.7809   -1.3817    1.5246 O   0  0  0  0  0  0  0  0  0  0  0  0
   -4.9786   -2.2867    2.2691 C   0  0  0  0  0  0  0  0  0  0  0  0
   -5.9402    0.3004   -0.1144 C   0  0  0  0  0  0  0  0  0  0  0  0
   -7.2202    0.5461    0.3240 O   0  0  0  0  0  0  0  0  0  0  0  0
   -5.4351    1.0659   -1.1758 C   0  0  0  0  0  0  0  0  0  0  0  0
   -6.3024    2.0048   -1.6764 O   0  0  0  0  0  0  0  0  0  0  0  0
   -5.8236    2.8159   -2.7430 C   0  0  0  0  0  0  0  0  0  0  0  0
   -4.1389    0.8241   -1.6278 C   0  0  0  0  0  0  0  0  0  0  0  0
   -0.6353    0.2419    0.7771 S   0  0  0  0  0  0  0  0  0  0  0  0
    4.0217    1.3405    1.0490 C   0  0  0  0  0  0  0  0  0  0  0  0
    5.4001    1.2098    0.8641 C   0  0  0  0  0  0  0  0  0  0  0  0
    7.3926   -1.5644   -0.7316 H   0  0  0  0  0  0  0  0  0  0  0  0
    7.4910    0.1299   -1.2362 H   0  0  0  0  0  0  0  0  0  0  0  0
    8.9343   -0.6970   -0.6250 H   0  0  0  0  0  0  0  0  0  0  0  0
    8.0229    0.7963    1.1348 H   0  0  0  0  0  0  0  0  0  0  0  0
    7.9287   -0.8807    1.6343 H   0  0  0  0  0  0  0  0  0  0  0  0
    5.7477   -2.0474    1.7967 H   0  0  0  0  0  0  0  0  0  0  0  0
    3.3146   -1.8001    2.1283 H   0  0  0  0  0  0  0  0  0  0  0  0
    2.4237   -0.4387   -0.8474 H   0  0  0  0  0  0  0  0  0  0  0  0
   -1.9677   -0.7274   -2.5781 H   0  0  0  0  0  0  0  0  0  0  0  0
   -3.2667   -1.7108    0.4711 H   0  0  0  0  0  0  0  0  0  0  0  0
   -5.5886   -2.6787    3.0886 H   0  0  0  0  0  0  0  0  0  0  0  0
   -4.1133   -1.7814    2.7109 H   0  0  0  0  0  0  0  0  0  0  0  0
   -4.6684   -3.1351    1.6508 H   0  0  0  0  0  0  0  0  0  0  0  0
   -7.5495    1.2707   -0.2396 H   0  0  0  0  0  0  0  0  0  0  0  0
   -4.9589    3.4101   -2.4295 H   0  0  0  0  0  0  0  0  0  0  0  0
   -5.5903    2.2100   -3.6247 H   0  0  0  0  0  0  0  0  0  0  0  0
   -6.6227    3.5107   -3.0185 H   0  0  0  0  0  0  0  0  0  0  0  0
   -3.7133    1.3946   -2.4469 H   0  0  0  0  0  0  0  0  0  0  0  0
    3.5395    2.2956    0.8579 H   0  0  0  0  0  0  0  0  0  0  0  0
    5.9742    2.0680    0.5213 H   0  0  0  0  0  0  0  0  0  0  0  0
  1  2  1  0
  2  3  1  0
  3  4  2  0
  4  5  1  0
  5  6  2  0
  6  7  1  0
  7  8  2  3
  8  9  1  0
  9 10  1  0
 10 11  2  0
 10 12  1  0
 12 13  2  3
 13 14  1  0
 14 15  2  0
 15 16  1  0
 16 17  1  0
 17 18  1  0
 16 19  2  0
 19 20  1  0
 19 21  1  0
 21 22  1  0
 22 23  1  0
 21 24  2  0
 12 25  1  0
  6 26  1  0
 26 27  2  0
 27  3  1  0
 25  8  1  0
 24 14  1  0
  1 28  1  0
  1 29  1  0
  1 30  1  0
  2 31  1  0
  2 32  1  0
  4 33  1  0
  5 34  1  0
  9 35  1  0
 13 36  1  0
 15 37  1  0
 18 38  1  0
 18 39  1  0
 18 40  1  0
 20 41  1  0
 23 42  1  0
 23 43  1  0
 23 44  1  0
 24 45  1  0
 26 46  1  0
 27 47  1  0
M  END
$$$$
