
     RDKit          3D

 57 60  0  0  0  0  0  0  0  0999 V2000
   -1.8866    0.2902    3.6199 C   0  0  0  0  0  0  0  0  0  0  0  0
   -2.4199    1.1559    2.4847 C   0  0  0  0  0  0  0  0  0  0  0  0
   -1.4348    1.4151    1.3291 C   0  0  0  0  0  0  0  0  0  0  0  0
   -0.8112   -0.1336    0.5528 S   0  0  0  0  0  0  0  0  0  0  0  0
   -2.2915   -0.7805   -0.1437 C   0  0  0  0  0  0  0  0  0  0  0  0
   -3.1366    0.0975   -0.5938 N   0  0  0  0  0  0  0  0  0  0  0  0
   -4.3073   -0.4322   -1.1262 C   0  0  0  0  0  0  0  0  0  0  0  0
   -5.3569    0.3474   -1.6611 C   0  0  0  0  0  0  0  0  0  0  0  0
   -6.3883   -0.4570   -2.1058 C   0  0  0  0  0  0  0  0  0  0  0  0
   -6.0548   -2.1281   -1.8613 S   0  0  0  0  0  0  0  0  0  0  0  0
   -4.5484   -1.7721   -1.1714 C   0  0  0  0  0  0  0  0  0  0  0  0
   -3.6189   -2.7428   -0.6813 C   0  0  0  0  0  0  0  0  0  0  0  0
   -3.8224   -3.9546   -0.6951 O   0  0  0  0  0  0  0  0  0  0  0  0
   -2.4431   -2.1696   -0.1715 N   0  0  0  0  0  0  0  0  0  0  0  0
   -1.4270   -3.1118    0.3168 C   0  0  0  0  0  0  0  0  0  0  0  0
   -0.3286   -3.3779   -0.6968 C   0  0  0  0  0  0  0  0  0  0  0  0
    1.0112   -3.0838   -0.3978 C   0  0  0  0  0  0  0  0  0  0  0  0
    2.0227   -3.3077   -1.3379 C   0  0  0  0  0  0  0  0  0  0  0  0
    1.7021   -3.8342   -2.5973 C   0  0  0  0  0  0  0  0  0  0  0  0
    2.7241   -4.0554   -3.6443 C   0  0  0  0  0  0  0  0  0  0  0  0
    2.5177   -4.4922   -4.7588 O   0  0  0  0  0  0  0  0  0  0  0  0
    3.9616   -3.6929   -3.2578 O   0  0  0  0  0  0  0  0  0  0  0  0
    0.3781   -4.1613   -2.8907 C   0  0  0  0  0  0  0  0  0  0  0  0
   -0.6264   -3.9432   -1.9454 C   0  0  0  0  0  0  0  0  0  0  0  0
   -0.2514    2.3048    1.7736 C   0  0  0  0  0  0  0  0  0  0  0  0
   -0.3015    2.9792    2.7952 O   0  0  0  0  0  0  0  0  0  0  0  0
    0.8064    2.3042    0.8823 N   0  0  0  0  0  0  0  0  0  0  0  0
    2.0108    3.0302    0.9644 C   0  0  0  0  0  0  0  0  0  0  0  0
    2.2419    4.0509    1.8853 C   0  0  0  0  0  0  0  0  0  0  0  0
    3.4702    4.7252    1.9046 C   0  0  0  0  0  0  0  0  0  0  0  0
    4.4963    4.3894    0.9985 C   0  0  0  0  0  0  0  0  0  0  0  0
    5.7983    5.1371    1.0445 C   0  0  0  0  0  0  0  0  0  0  0  0
    4.2569    3.3649    0.0690 C   0  0  0  0  0  0  0  0  0  0  0  0
    5.4549    2.8904   -1.0952 Cl  0  0  0  0  0  0  0  0  0  0  0  0
    3.0273    2.6953    0.0507 C   0  0  0  0  0  0  0  0  0  0  0  0
   -2.6414    0.2067    4.4090 H   0  0  0  0  0  0  0  0  0  0  0  0
   -1.6549   -0.7267    3.2845 H   0  0  0  0  0  0  0  0  0  0  0  0
   -0.9849    0.7204    4.0673 H   0  0  0  0  0  0  0  0  0  0  0  0
   -2.7382    2.1164    2.9073 H   0  0  0  0  0  0  0  0  0  0  0  0
   -3.3336    0.6899    2.0979 H   0  0  0  0  0  0  0  0  0  0  0  0
   -1.9467    2.0034    0.5574 H   0  0  0  0  0  0  0  0  0  0  0  0
   -5.3678    1.4265   -1.7178 H   0  0  0  0  0  0  0  0  0  0  0  0
   -7.3227   -0.1534   -2.5568 H   0  0  0  0  0  0  0  0  0  0  0  0
   -1.8766   -4.0712    0.5864 H   0  0  0  0  0  0  0  0  0  0  0  0
   -1.0042   -2.7326    1.2518 H   0  0  0  0  0  0  0  0  0  0  0  0
    1.2836   -2.6650    0.5674 H   0  0  0  0  0  0  0  0  0  0  0  0
    3.0560   -3.0618   -1.0780 H   0  0  0  0  0  0  0  0  0  0  0  0
    4.5122   -3.8705   -4.0466 H   0  0  0  0  0  0  0  0  0  0  0  0
    0.1188   -4.5890   -3.8586 H   0  0  0  0  0  0  0  0  0  0  0  0
   -1.6448   -4.2255   -2.1969 H   0  0  0  0  0  0  0  0  0  0  0  0
    0.7533    1.6011    0.1490 H   0  0  0  0  0  0  0  0  0  0  0  0
    1.4835    4.3598    2.6038 H   0  0  0  0  0  0  0  0  0  0  0  0
    3.6152    5.5223    2.6354 H   0  0  0  0  0  0  0  0  0  0  0  0
    5.8217    5.8435    1.8809 H   0  0  0  0  0  0  0  0  0  0  0  0
    5.9389    5.7109    0.1213 H   0  0  0  0  0  0  0  0  0  0  0  0
    6.6357    4.4429    1.1781 H   0  0  0  0  0  0  0  0  0  0  0  0
    2.8720    1.9051   -0.6810 H   0  0  0  0  0  0  0  0  0  0  0  0
  1  2  1  0
  2  3  1  0
  3  4  1  0
  4  5  1  0
  5  6  2  0
  6  7  1  0
  7  8  1  0
  8  9  2  0
  9 10  1  0
 10 11  1  0
 11 12  1  0
 12 13  2  0
 12 14  1  0
 14 15  1  0
 15 16  1  0
 16 17  2  0
 17 18  1  0
 18 19  2  0
 19 20  1  0
 20 21  2  0
 20 22  1  0
 19 23  1  0
 23 24  2  0
  3 25  1  0
 25 26  2  0
 25 27  1  0
 27 28  1  0
 28 29  2  0
 29 30  1  0
 30 31  2  0
 31 32  1  0
 31 33  1  0
 33 34  1  0
 33 35  2  0
 14  5  1  0
 24 16  1  0
 35 28  1  0
 11  7  2  0
  1 36  1  0
  1 37  1  0
  1 38  1  0
  2 39  1  0
  2 40  1  0
  3 41  1  0
  8 42  1  0
  9 43  1  0
 15 44  1  0
 15 45  1  0
 17 46  1  0
 18 47  1  0
 22 48  1  0
 23 49  1  0
 24 50  1  0
 27 51  1  0
 29 52  1  0
 30 53  1  0
 32 54  1  0
 32 55  1  0
 32 56  1  0
 35 57  1  0
M  END
$$$$
