
     RDKit          3D

 49 50  0  0  0  0  0  0  0  0999 V2000
    5.5785   -2.8526    0.7660 C   0  0  0  0  0  0  0  0  0  0  0  0
    5.4986   -1.7156   -0.2342 C   0  0  0  0  0  0  0  0  0  0  0  0
    4.2222   -1.0860   -0.0854 O   0  0  0  0  0  0  0  0  0  0  0  0
    3.9606   -0.1108   -1.0055 C   0  0  0  0  0  0  0  0  0  0  0  0
    4.7543    0.2172   -1.8816 O   0  0  0  0  0  0  0  0  0  0  0  0
    2.6402    0.5162   -0.8368 C   0  0  0  0  0  0  0  0  0  0  0  0
    2.1564    1.6691   -1.5515 C   0  0  0  0  0  0  0  0  0  0  0  0
    2.9171    2.4325   -2.5856 C   0  0  0  0  0  0  0  0  0  0  0  0
    0.8695    1.9321   -1.1073 C   0  0  0  0  0  0  0  0  0  0  0  0
   -0.0856    2.9963   -1.5380 C   0  0  0  0  0  0  0  0  0  0  0  0
    0.5679    1.0135   -0.1200 N   0  0  0  0  0  0  0  0  0  0  0  0
   -0.6591    1.0288    0.6878 C   0  0  0  0  0  0  0  0  0  0  0  0
   -1.7812    0.1498    0.1724 C   0  0  0  0  0  0  0  0  0  0  0  0
   -1.6948   -0.5959   -1.0134 C   0  0  0  0  0  0  0  0  0  0  0  0
   -2.7575   -1.3971   -1.4299 C   0  0  0  0  0  0  0  0  0  0  0  0
   -3.9236   -1.4774   -0.6673 C   0  0  0  0  0  0  0  0  0  0  0  0
   -4.0446   -0.7486    0.5181 C   0  0  0  0  0  0  0  0  0  0  0  0
   -5.1428   -0.7950    1.3371 O   0  0  0  0  0  0  0  0  0  0  0  0
   -6.0766   -1.8431    1.1188 C   0  0  0  0  0  0  0  0  0  0  0  0
   -2.9815    0.0883    0.9136 C   0  0  0  0  0  0  0  0  0  0  0  0
   -3.0112    0.8320    2.0726 O   0  0  0  0  0  0  0  0  0  0  0  0
   -4.1183    1.7310    2.1351 C   0  0  0  0  0  0  0  0  0  0  0  0
    1.6157    0.1208    0.0256 C   0  0  0  0  0  0  0  0  0  0  0  0
    1.5657   -1.0377    0.9706 C   0  0  0  0  0  0  0  0  0  0  0  0
    5.4636   -2.4752    1.7881 H   0  0  0  0  0  0  0  0  0  0  0  0
    4.7685   -3.5709    0.5995 H   0  0  0  0  0  0  0  0  0  0  0  0
    6.5365   -3.3746    0.6878 H   0  0  0  0  0  0  0  0  0  0  0  0
    5.6087   -2.1111   -1.2511 H   0  0  0  0  0  0  0  0  0  0  0  0
    6.2916   -0.9880   -0.0320 H   0  0  0  0  0  0  0  0  0  0  0  0
    3.9192    2.6860   -2.2194 H   0  0  0  0  0  0  0  0  0  0  0  0
    3.0157    1.8355   -3.4998 H   0  0  0  0  0  0  0  0  0  0  0  0
    2.4234    3.3739   -2.8480 H   0  0  0  0  0  0  0  0  0  0  0  0
   -1.1046    2.6066   -1.6224 H   0  0  0  0  0  0  0  0  0  0  0  0
    0.1815    3.4026   -2.5179 H   0  0  0  0  0  0  0  0  0  0  0  0
   -0.0834    3.8201   -0.8172 H   0  0  0  0  0  0  0  0  0  0  0  0
   -0.3727    0.7340    1.7045 H   0  0  0  0  0  0  0  0  0  0  0  0
   -0.9979    2.0700    0.7419 H   0  0  0  0  0  0  0  0  0  0  0  0
   -0.7985   -0.5699   -1.6319 H   0  0  0  0  0  0  0  0  0  0  0  0
   -2.6718   -1.9662   -2.3532 H   0  0  0  0  0  0  0  0  0  0  0  0
   -4.7200   -2.1197   -1.0278 H   0  0  0  0  0  0  0  0  0  0  0  0
   -6.6198   -1.6931    0.1806 H   0  0  0  0  0  0  0  0  0  0  0  0
   -6.8071   -1.8137    1.9333 H   0  0  0  0  0  0  0  0  0  0  0  0
   -5.5898   -2.8238    1.1439 H   0  0  0  0  0  0  0  0  0  0  0  0
   -4.9467    1.2758    2.6857 H   0  0  0  0  0  0  0  0  0  0  0  0
   -4.4481    2.0696    1.1455 H   0  0  0  0  0  0  0  0  0  0  0  0
   -3.7947    2.6123    2.6988 H   0  0  0  0  0  0  0  0  0  0  0  0
    0.5582   -1.2546    1.3327 H   0  0  0  0  0  0  0  0  0  0  0  0
    1.9144   -1.9513    0.4763 H   0  0  0  0  0  0  0  0  0  0  0  0
    2.2037   -0.8422    1.8375 H   0  0  0  0  0  0  0  0  0  0  0  0
  1  2  1  0
  2  3  1  0
  3  4  1  0
  4  5  2  0
  4  6  1  0
  6  7  1  0
  7  8  1  0
  7  9  2  0
  9 10  1  0
  9 11  1  0
 11 12  1  0
 12 13  1  0
 13 14  2  0
 14 15  1  0
 15 16  2  0
 16 17  1  0
 17 18  1  0
 18 19  1  0
 17 20  2  0
 20 21  1  0
 21 22  1  0
 11 23  1  0
 23 24  1  0
 23  6  2  0
 20 13  1  0
  1 25  1  0
  1 26  1  0
  1 27  1  0
  2 28  1  0
  2 29  1  0
  8 30  1  0
  8 31  1  0
  8 32  1  0
 10 33  1  0
 10 34  1  0
 10 35  1  0
 12 36  1  0
 12 37  1  0
 14 38  1  0
 15 39  1  0
 16 40  1  0
 19 41  1  0
 19 42  1  0
 19 43  1  0
 22 44  1  0
 22 45  1  0
 22 46  1  0
 24 47  1  0
 24 48  1  0
 24 49  1  0
M  END
$$$$
