
     RDKit          3D

 48 51  0  0  0  0  0  0  0  0999 V2000
   -1.1253    1.3556    1.9474 C   0  0  0  0  0  0  0  0  0  0  0  0
   -0.3681    0.0365    1.9704 C   0  0  0  0  0  0  0  0  0  0  0  0
   -0.7286   -0.8804    0.9109 N   0  0  0  0  0  0  0  0  0  0  0  0
   -1.8669   -1.6529    0.8748 C   0  0  0  0  0  0  0  0  0  0  0  0
   -3.2023   -1.4921    1.9625 S   0  0  0  0  0  0  0  0  0  0  0  0
   -4.5464   -2.2221    0.9779 C   0  0  0  0  0  0  0  0  0  0  0  0
   -5.1508   -1.2304    0.0100 C   0  0  0  0  0  0  0  0  0  0  0  0
   -6.1829   -0.3693    0.4227 C   0  0  0  0  0  0  0  0  0  0  0  0
   -6.7408    0.5463   -0.4709 C   0  0  0  0  0  0  0  0  0  0  0  0
   -6.2639    0.6095   -1.7744 C   0  0  0  0  0  0  0  0  0  0  0  0
   -6.8085    1.4816   -2.6339 F   0  0  0  0  0  0  0  0  0  0  0  0
   -5.2363   -0.2228   -2.2013 C   0  0  0  0  0  0  0  0  0  0  0  0
   -4.6797   -1.1445   -1.3099 C   0  0  0  0  0  0  0  0  0  0  0  0
   -1.7623   -2.5651   -0.0601 N   0  0  0  0  0  0  0  0  0  0  0  0
   -0.5336   -2.4194   -0.6368 N   0  0  0  0  0  0  0  0  0  0  0  0
    0.0808   -1.3852   -0.0884 C   0  0  0  0  0  0  0  0  0  0  0  0
    1.5114   -0.9995   -0.5929 C   0  0  0  0  0  0  0  0  0  0  0  0
    2.2695   -1.8474   -1.4194 C   0  0  0  0  0  0  0  0  0  0  0  0
    3.4574   -1.3364   -1.7235 N   0  0  0  0  0  0  0  0  0  0  0  0
    3.5240   -0.1757   -1.0196 N   0  0  0  0  0  0  0  0  0  0  0  0
    4.7875    0.4838   -0.9207 C   0  0  0  0  0  0  0  0  0  0  0  0
    5.7961    0.1603   -1.8457 C   0  0  0  0  0  0  0  0  0  0  0  0
    7.0496    0.7771   -1.7786 C   0  0  0  0  0  0  0  0  0  0  0  0
    7.3154    1.7081   -0.7794 C   0  0  0  0  0  0  0  0  0  0  0  0
    6.3324    2.0174    0.1581 C   0  0  0  0  0  0  0  0  0  0  0  0
    5.0744    1.4067    0.0955 C   0  0  0  0  0  0  0  0  0  0  0  0
    2.2808    0.1447   -0.4930 C   0  0  0  0  0  0  0  0  0  0  0  0
    1.9265    1.5202   -0.1456 C   0  0  0  0  0  0  0  0  0  0  0  0
    0.6092    1.7534   -0.3716 F   0  0  0  0  0  0  0  0  0  0  0  0
    2.5935    2.4565   -0.8657 F   0  0  0  0  0  0  0  0  0  0  0  0
    2.1451    1.7887    1.1642 F   0  0  0  0  0  0  0  0  0  0  0  0
   -2.1399    1.2445    2.3379 H   0  0  0  0  0  0  0  0  0  0  0  0
   -1.2160    1.7640    0.9396 H   0  0  0  0  0  0  0  0  0  0  0  0
   -0.6191    2.0921    2.5793 H   0  0  0  0  0  0  0  0  0  0  0  0
   -0.5343   -0.4761    2.9253 H   0  0  0  0  0  0  0  0  0  0  0  0
    0.7072    0.2071    1.9184 H   0  0  0  0  0  0  0  0  0  0  0  0
   -4.2162   -3.1265    0.4548 H   0  0  0  0  0  0  0  0  0  0  0  0
   -5.3254   -2.5593    1.6737 H   0  0  0  0  0  0  0  0  0  0  0  0
   -6.5600   -0.4157    1.4418 H   0  0  0  0  0  0  0  0  0  0  0  0
   -7.5454    1.2060   -0.1620 H   0  0  0  0  0  0  0  0  0  0  0  0
   -4.8766   -0.1523   -3.2231 H   0  0  0  0  0  0  0  0  0  0  0  0
   -3.8747   -1.7946   -1.6509 H   0  0  0  0  0  0  0  0  0  0  0  0
    1.9999   -2.8240   -1.8069 H   0  0  0  0  0  0  0  0  0  0  0  0
    5.6146   -0.5614   -2.6420 H   0  0  0  0  0  0  0  0  0  0  0  0
    7.8153    0.5279   -2.5096 H   0  0  0  0  0  0  0  0  0  0  0  0
    8.2918    2.1842   -0.7251 H   0  0  0  0  0  0  0  0  0  0  0  0
    6.5495    2.7319    0.9502 H   0  0  0  0  0  0  0  0  0  0  0  0
    4.3721    1.6491    0.8841 H   0  0  0  0  0  0  0  0  0  0  0  0
  1  2  1  0
  2  3  1  0
  3  4  1  0
  4  5  1  0
  5  6  1  0
  6  7  1  0
  7  8  2  0
  8  9  1  0
  9 10  2  0
 10 11  1  0
 10 12  1  0
 12 13  2  0
  4 14  2  0
 14 15  1  0
 15 16  2  0
 16 17  1  0
 17 18  1  0
 18 19  2  0
 19 20  1  0
 20 21  1  0
 21 22  2  0
 22 23  1  0
 23 24  2  0
 24 25  1  0
 25 26  2  0
 20 27  1  0
 27 28  1  0
 28 29  1  0
 28 30  1  0
 28 31  1  0
 16  3  1  0
 27 17  2  0
 13  7  1  0
 26 21  1  0
  1 32  1  0
  1 33  1  0
  1 34  1  0
  2 35  1  0
  2 36  1  0
  6 37  1  0
  6 38  1  0
  8 39  1  0
  9 40  1  0
 12 41  1  0
 13 42  1  0
 18 43  1  0
 22 44  1  0
 23 45  1  0
 24 46  1  0
 25 47  1  0
 26 48  1  0
M  END
$$$$
