
     RDKit          3D

 61 65  0  0  0  0  0  0  0  0999 V2000
   -8.2131    0.2965    2.8884 C   0  0  0  0  0  0  0  0  0  0  0  0
   -7.5317   -0.2742    1.7773 O   0  0  0  0  0  0  0  0  0  0  0  0
   -6.2880    0.2242    1.4779 C   0  0  0  0  0  0  0  0  0  0  0  0
   -5.5327    1.0198    2.3452 C   0  0  0  0  0  0  0  0  0  0  0  0
   -4.2675    1.4764    1.9629 C   0  0  0  0  0  0  0  0  0  0  0  0
   -3.7355    1.1486    0.7093 C   0  0  0  0  0  0  0  0  0  0  0  0
   -2.4252    1.6299    0.2802 C   0  0  0  0  0  0  0  0  0  0  0  0
   -1.8549    1.5548   -0.9065 N   0  0  0  0  0  0  0  0  0  0  0  0
   -0.6292    2.1753   -0.7456 C   0  0  0  0  0  0  0  0  0  0  0  0
    0.2815    2.3118   -1.9143 C   0  0  0  0  0  0  0  0  0  0  0  0
    1.6832    2.1146   -1.5755 N   0  0  0  0  0  0  0  0  0  0  0  0
    2.3401    0.9205   -1.4043 C   0  0  0  0  0  0  0  0  0  0  0  0
    1.5444   -0.6162   -1.4699 S   0  0  0  0  0  0  0  0  0  0  0  0
    2.8776   -1.6872   -2.0781 C   0  0  0  0  0  0  0  0  0  0  0  0
    3.5475   -2.4909   -0.9906 C   0  0  0  0  0  0  0  0  0  0  0  0
    4.6984   -2.0065   -0.3526 C   0  0  0  0  0  0  0  0  0  0  0  0
    5.3516   -2.7701    0.6207 C   0  0  0  0  0  0  0  0  0  0  0  0
    4.8574   -4.0270    0.9877 C   0  0  0  0  0  0  0  0  0  0  0  0
    5.5852   -4.8727    1.9934 C   0  0  0  0  0  0  0  0  0  0  0  0
    3.7006   -4.5097    0.3607 C   0  0  0  0  0  0  0  0  0  0  0  0
    3.0466   -3.7455   -0.6123 C   0  0  0  0  0  0  0  0  0  0  0  0
    3.6242    1.0947   -1.1897 N   0  0  0  0  0  0  0  0  0  0  0  0
    3.8219    2.4499   -1.2319 C   0  0  0  0  0  0  0  0  0  0  0  0
    5.0009    3.1767   -1.0721 C   0  0  0  0  0  0  0  0  0  0  0  0
    4.8767    4.5526   -1.1801 C   0  0  0  0  0  0  0  0  0  0  0  0
    3.7178    5.2089   -1.4224 N   0  0  0  0  0  0  0  0  0  0  0  0
    2.5761    4.5015   -1.5809 C   0  0  0  0  0  0  0  0  0  0  0  0
    2.6279    3.1177   -1.4801 C   0  0  0  0  0  0  0  0  0  0  0  0
   -0.5149    2.6123    0.5609 C   0  0  0  0  0  0  0  0  0  0  0  0
    0.5076    3.3208    1.3518 C   0  0  0  0  0  0  0  0  0  0  0  0
   -1.6631    2.2714    1.2191 O   0  0  0  0  0  0  0  0  0  0  0  0
   -4.4941    0.3415   -0.1552 C   0  0  0  0  0  0  0  0  0  0  0  0
   -5.7610   -0.1259    0.2184 C   0  0  0  0  0  0  0  0  0  0  0  0
   -6.5626   -0.9122   -0.5727 O   0  0  0  0  0  0  0  0  0  0  0  0
   -6.0645   -1.2862   -1.8510 C   0  0  0  0  0  0  0  0  0  0  0  0
   -7.7238    0.0287    3.8342 H   0  0  0  0  0  0  0  0  0  0  0  0
   -9.2274   -0.1210    2.9128 H   0  0  0  0  0  0  0  0  0  0  0  0
   -8.3002    1.3849    2.7834 H   0  0  0  0  0  0  0  0  0  0  0  0
   -5.8948    1.2946    3.3310 H   0  0  0  0  0  0  0  0  0  0  0  0
   -3.7015    2.0914    2.6595 H   0  0  0  0  0  0  0  0  0  0  0  0
    0.0253    1.5960   -2.7028 H   0  0  0  0  0  0  0  0  0  0  0  0
    0.1674    3.3094   -2.3531 H   0  0  0  0  0  0  0  0  0  0  0  0
    3.6212   -1.1155   -2.6500 H   0  0  0  0  0  0  0  0  0  0  0  0
    2.4337   -2.3797   -2.8054 H   0  0  0  0  0  0  0  0  0  0  0  0
    5.0999   -1.0297   -0.6188 H   0  0  0  0  0  0  0  0  0  0  0  0
    6.2522   -2.3751    1.0866 H   0  0  0  0  0  0  0  0  0  0  0  0
    4.8770   -5.3869    2.6531 H   0  0  0  0  0  0  0  0  0  0  0  0
    6.2388   -4.2631    2.6294 H   0  0  0  0  0  0  0  0  0  0  0  0
    6.1987   -5.6197    1.4770 H   0  0  0  0  0  0  0  0  0  0  0  0
    3.3048   -5.4886    0.6241 H   0  0  0  0  0  0  0  0  0  0  0  0
    2.1488   -4.1421   -1.0840 H   0  0  0  0  0  0  0  0  0  0  0  0
    5.9497    2.6945   -0.8837 H   0  0  0  0  0  0  0  0  0  0  0  0
    5.7478    5.1933   -1.0721 H   0  0  0  0  0  0  0  0  0  0  0  0
    1.6729    5.0681   -1.7695 H   0  0  0  0  0  0  0  0  0  0  0  0
    0.1406    3.5497    2.3582 H   0  0  0  0  0  0  0  0  0  0  0  0
    1.4086    2.7092    1.4522 H   0  0  0  0  0  0  0  0  0  0  0  0
    0.7754    4.2674    0.8746 H   0  0  0  0  0  0  0  0  0  0  0  0
   -4.0680    0.0918   -1.1230 H   0  0  0  0  0  0  0  0  0  0  0  0
   -5.1525   -1.8874   -1.7602 H   0  0  0  0  0  0  0  0  0  0  0  0
   -6.8239   -1.9051   -2.3373 H   0  0  0  0  0  0  0  0  0  0  0  0
   -5.8997   -0.4071   -2.4843 H   0  0  0  0  0  0  0  0  0  0  0  0
  1  2  1  0
  2  3  1  0
  3  4  2  0
  4  5  1  0
  5  6  2  0
  6  7  1  0
  7  8  2  0
  8  9  1  0
  9 10  1  0
 10 11  1  0
 11 12  1  0
 12 13  1  0
 13 14  1  0
 14 15  1  0
 15 16  2  0
 16 17  1  0
 17 18  2  0
 18 19  1  0
 18 20  1  0
 20 21  2  0
 12 22  2  0
 22 23  1  0
 23 24  2  0
 24 25  1  0
 25 26  2  0
 26 27  1  0
 27 28  2  0
  9 29  2  0
 29 30  1  0
 29 31  1  0
  6 32  1  0
 32 33  2  0
 33 34  1  0
 34 35  1  0
 33  3  1  0
 31  7  1  0
 28 11  1  0
 21 15  1  0
 28 23  1  0
  1 36  1  0
  1 37  1  0
  1 38  1  0
  4 39  1  0
  5 40  1  0
 10 41  1  0
 10 42  1  0
 14 43  1  0
 14 44  1  0
 16 45  1  0
 17 46  1  0
 19 47  1  0
 19 48  1  0
 19 49  1  0
 20 50  1  0
 21 51  1  0
 24 52  1  0
 25 53  1  0
 27 54  1  0
 30 55  1  0
 30 56  1  0
 30 57  1  0
 32 58  1  0
 35 59  1  0
 35 60  1  0
 35 61  1  0
M  END
$$$$
