
     RDKit          3D

 50 53  0  0  0  0  0  0  0  0999 V2000
    8.2480    2.0796    1.0205 C   0  0  0  0  0  0  0  0  0  0  0  0
    7.3081    2.2962   -0.0243 O   0  0  0  0  0  0  0  0  0  0  0  0
    6.1599    1.5571    0.0173 C   0  0  0  0  0  0  0  0  0  0  0  0
    5.2713    1.7987   -1.0296 C   0  0  0  0  0  0  0  0  0  0  0  0
    4.0518    1.1149   -1.1062 C   0  0  0  0  0  0  0  0  0  0  0  0
    3.6891    0.1661   -0.1359 C   0  0  0  0  0  0  0  0  0  0  0  0
    2.4068   -0.5621   -0.1978 C   0  0  0  0  0  0  0  0  0  0  0  0
    1.2322    0.0260   -0.6292 C   0  0  0  0  0  0  0  0  0  0  0  0
    0.0712   -0.7466   -0.6564 C   0  0  0  0  0  0  0  0  0  0  0  0
   -1.1669   -0.0459   -1.0697 C   0  0  0  0  0  0  0  0  0  0  0  0
   -1.1718    0.5125   -2.1584 O   0  0  0  0  0  0  0  0  0  0  0  0
   -2.1684   -0.0666   -0.1184 N   0  0  0  0  0  0  0  0  0  0  0  0
   -3.4518    0.5115   -0.2143 C   0  0  0  0  0  0  0  0  0  0  0  0
   -3.9142    1.1904   -1.3361 C   0  0  0  0  0  0  0  0  0  0  0  0
   -5.1900    1.7599   -1.3373 C   0  0  0  0  0  0  0  0  0  0  0  0
   -6.0373    1.6422   -0.2252 C   0  0  0  0  0  0  0  0  0  0  0  0
   -7.3704    2.3362   -0.2545 C   0  0  0  0  0  0  0  0  0  0  0  0
   -5.6044    0.9068    0.8899 C   0  0  0  0  0  0  0  0  0  0  0  0
   -6.3564    0.8556    2.0775 N   0  0  0  0  0  0  0  0  0  0  0  0
   -4.2969    0.3942    0.8978 C   0  0  0  0  0  0  0  0  0  0  0  0
    0.0914   -2.1114   -0.2981 C   0  0  0  0  0  0  0  0  0  0  0  0
   -1.0183   -2.9930   -0.3724 C   0  0  0  0  0  0  0  0  0  0  0  0
   -0.9059   -4.3245    0.0225 C   0  0  0  0  0  0  0  0  0  0  0  0
    0.3126   -4.7977    0.4857 C   0  0  0  0  0  0  0  0  0  0  0  0
    1.4124   -3.9392    0.5386 C   0  0  0  0  0  0  0  0  0  0  0  0
    1.3290   -2.6086    0.1479 C   0  0  0  0  0  0  0  0  0  0  0  0
    2.4406   -1.8543    0.2112 N   0  0  0  0  0  0  0  0  0  0  0  0
    4.6044   -0.0735    0.9044 C   0  0  0  0  0  0  0  0  0  0  0  0
    5.8225    0.6158    0.9868 C   0  0  0  0  0  0  0  0  0  0  0  0
    8.6071    1.0447    1.0215 H   0  0  0  0  0  0  0  0  0  0  0  0
    7.8241    2.3518    1.9918 H   0  0  0  0  0  0  0  0  0  0  0  0
    9.1078    2.7307    0.8351 H   0  0  0  0  0  0  0  0  0  0  0  0
    5.5278    2.5245   -1.7972 H   0  0  0  0  0  0  0  0  0  0  0  0
    3.3976    1.3233   -1.9509 H   0  0  0  0  0  0  0  0  0  0  0  0
    1.1981    1.0716   -0.9166 H   0  0  0  0  0  0  0  0  0  0  0  0
   -1.9539   -0.5204    0.7627 H   0  0  0  0  0  0  0  0  0  0  0  0
   -3.3049    1.3117   -2.2257 H   0  0  0  0  0  0  0  0  0  0  0  0
   -5.5115    2.3125   -2.2173 H   0  0  0  0  0  0  0  0  0  0  0  0
   -8.1735    1.6526    0.0383 H   0  0  0  0  0  0  0  0  0  0  0  0
   -7.3593    3.1930    0.4243 H   0  0  0  0  0  0  0  0  0  0  0  0
   -7.6101    2.7034   -1.2562 H   0  0  0  0  0  0  0  0  0  0  0  0
   -6.1385    0.0507    2.6558 H   0  0  0  0  0  0  0  0  0  0  0  0
   -7.3548    0.9370    1.9276 H   0  0  0  0  0  0  0  0  0  0  0  0
   -3.9416   -0.1079    1.7936 H   0  0  0  0  0  0  0  0  0  0  0  0
   -1.9776   -2.6533   -0.7592 H   0  0  0  0  0  0  0  0  0  0  0  0
   -1.7640   -4.9898   -0.0408 H   0  0  0  0  0  0  0  0  0  0  0  0
    0.4192   -5.8349    0.7945 H   0  0  0  0  0  0  0  0  0  0  0  0
    2.3689   -4.3228    0.8879 H   0  0  0  0  0  0  0  0  0  0  0  0
    4.3645   -0.8083    1.6732 H   0  0  0  0  0  0  0  0  0  0  0  0
    6.4759    0.3897    1.8215 H   0  0  0  0  0  0  0  0  0  0  0  0
  1  2  1  0
  2  3  1  0
  3  4  2  0
  4  5  1  0
  5  6  2  0
  6  7  1  0
  7  8  2  0
  8  9  1  0
  9 10  1  0
 10 11  2  0
 10 12  1  0
 12 13  1  0
 13 14  2  0
 14 15  1  0
 15 16  2  0
 16 17  1  0
 16 18  1  0
 18 19  1  0
 18 20  2  0
  9 21  2  0
 21 22  1  0
 22 23  2  0
 23 24  1  0
 24 25  2  0
 25 26  1  0
 26 27  2  0
  6 28  1  0
 28 29  2  0
 29  3  1  0
 27  7  1  0
 20 13  1  0
 26 21  1  0
  1 30  1  0
  1 31  1  0
  1 32  1  0
  4 33  1  0
  5 34  1  0
  8 35  1  0
 12 36  1  0
 14 37  1  0
 15 38  1  0
 17 39  1  0
 17 40  1  0
 17 41  1  0
 19 42  1  0
 19 43  1  0
 20 44  1  0
 22 45  1  0
 23 46  1  0
 24 47  1  0
 25 48  1  0
 28 49  1  0
 29 50  1  0
M  END
$$$$
