
     RDKit          3D

 51 55  0  0  0  0  0  0  0  0999 V2000
   -3.5671   -2.3650   -1.5085 C   0  0  0  0  0  0  0  0  0  0  0  0
   -2.9121   -1.0427   -1.1922 C   0  0  0  0  0  0  0  0  0  0  0  0
   -1.5586   -1.1289   -0.8936 N   0  0  0  0  0  0  0  0  0  0  0  0
   -0.8143   -0.0451   -0.5891 C   0  0  0  0  0  0  0  0  0  0  0  0
    0.5090    0.1425   -0.2535 C   0  0  0  0  0  0  0  0  0  0  0  0
    1.5062   -0.9035   -0.1296 C   0  0  0  0  0  0  0  0  0  0  0  0
    1.2185   -2.0937   -0.2258 O   0  0  0  0  0  0  0  0  0  0  0  0
    2.7934   -0.4705    0.0869 N   0  0  0  0  0  0  0  0  0  0  0  0
    3.8838   -1.4142    0.1441 C   0  0  0  0  0  0  0  0  0  0  0  0
    5.1712   -0.7142    0.4879 C   0  0  0  0  0  0  0  0  0  0  0  0
    5.4895   -0.4372    1.8382 C   0  0  0  0  0  0  0  0  0  0  0  0
    6.6639    0.2430    2.1759 C   0  0  0  0  0  0  0  0  0  0  0  0
    7.4930    0.6386    1.1494 C   0  0  0  0  0  0  0  0  0  0  0  0
    7.1886    0.3819   -0.1662 C   0  0  0  0  0  0  0  0  0  0  0  0
    6.0386   -0.2864   -0.5307 C   0  0  0  0  0  0  0  0  0  0  0  0
    8.1320    0.8607   -1.0206 O   0  0  0  0  0  0  0  0  0  0  0  0
    9.0692    1.4434   -0.0905 C   0  0  0  0  0  0  0  0  0  0  0  0
    8.6668    1.3102    1.2888 O   0  0  0  0  0  0  0  0  0  0  0  0
    0.5963    1.5440   -0.0716 C   0  0  0  0  0  0  0  0  0  0  0  0
   -0.5563    2.1856   -0.2856 N   0  0  0  0  0  0  0  0  0  0  0  0
   -1.4259    1.1862   -0.5980 N   0  0  0  0  0  0  0  0  0  0  0  0
   -2.7797    1.4026   -0.9001 C   0  0  0  0  0  0  0  0  0  0  0  0
   -3.2480    2.5347   -0.9290 O   0  0  0  0  0  0  0  0  0  0  0  0
   -3.5671    0.1468   -1.1902 C   0  0  0  0  0  0  0  0  0  0  0  0
   -5.0289    0.3801   -1.4854 C   0  0  0  0  0  0  0  0  0  0  0  0
   -5.8927    0.4100   -0.2459 C   0  0  0  0  0  0  0  0  0  0  0  0
   -6.0460    1.5901    0.4985 C   0  0  0  0  0  0  0  0  0  0  0  0
   -6.8304    1.6058    1.6554 C   0  0  0  0  0  0  0  0  0  0  0  0
   -7.4714    0.4443    2.0846 C   0  0  0  0  0  0  0  0  0  0  0  0
   -7.3277   -0.7335    1.3551 C   0  0  0  0  0  0  0  0  0  0  0  0
   -6.5447   -0.7424    0.2033 C   0  0  0  0  0  0  0  0  0  0  0  0
   -6.4259   -1.8901   -0.4788 F   0  0  0  0  0  0  0  0  0  0  0  0
   -4.5383   -2.2678   -1.9957 H   0  0  0  0  0  0  0  0  0  0  0  0
   -2.9369   -2.9441   -2.1932 H   0  0  0  0  0  0  0  0  0  0  0  0
   -3.6980   -2.9478   -0.5909 H   0  0  0  0  0  0  0  0  0  0  0  0
   -1.1395   -2.0639   -0.8700 H   0  0  0  0  0  0  0  0  0  0  0  0
    3.0230    0.5094    0.0110 H   0  0  0  0  0  0  0  0  0  0  0  0
    3.9592   -1.9171   -0.8275 H   0  0  0  0  0  0  0  0  0  0  0  0
    3.6530   -2.1874    0.8866 H   0  0  0  0  0  0  0  0  0  0  0  0
    4.8146   -0.7542    2.6318 H   0  0  0  0  0  0  0  0  0  0  0  0
    6.9143    0.4551    3.2093 H   0  0  0  0  0  0  0  0  0  0  0  0
    5.8220   -0.4700   -1.5782 H   0  0  0  0  0  0  0  0  0  0  0  0
    9.1761    2.5093   -0.3230 H   0  0  0  0  0  0  0  0  0  0  0  0
   10.0421    0.9559   -0.2209 H   0  0  0  0  0  0  0  0  0  0  0  0
    1.4566    2.1367    0.2124 H   0  0  0  0  0  0  0  0  0  0  0  0
   -5.1604    1.3214   -2.0353 H   0  0  0  0  0  0  0  0  0  0  0  0
   -5.4188   -0.3701   -2.1823 H   0  0  0  0  0  0  0  0  0  0  0  0
   -5.5544    2.5099    0.1836 H   0  0  0  0  0  0  0  0  0  0  0  0
   -6.9386    2.5288    2.2207 H   0  0  0  0  0  0  0  0  0  0  0  0
   -8.0805    0.4593    2.9847 H   0  0  0  0  0  0  0  0  0  0  0  0
   -7.8187   -1.6463    1.6758 H   0  0  0  0  0  0  0  0  0  0  0  0
  1  2  1  0
  2  3  1  0
  3  4  1  0
  4  5  2  0
  5  6  1  0
  6  7  2  0
  6  8  1  0
  8  9  1  0
  9 10  1  0
 10 11  2  0
 11 12  1  0
 12 13  2  0
 13 14  1  0
 14 15  2  0
 14 16  1  0
 16 17  1  0
 17 18  1  0
  5 19  1  0
 19 20  2  0
 20 21  1  0
 21 22  1  0
 22 23  2  0
 22 24  1  0
 24 25  1  0
 25 26  1  0
 26 27  2  0
 27 28  1  0
 28 29  2  0
 29 30  1  0
 30 31  2  0
 31 32  1  0
 24  2  2  0
 31 26  1  0
 21  4  1  0
 15 10  1  0
 18 13  1  0
  1 33  1  0
  1 34  1  0
  1 35  1  0
  3 36  1  0
  8 37  1  0
  9 38  1  0
  9 39  1  0
 11 40  1  0
 12 41  1  0
 15 42  1  0
 17 43  1  0
 17 44  1  0
 19 45  1  0
 25 46  1  0
 25 47  1  0
 27 48  1  0
 28 49  1  0
 29 50  1  0
 30 51  1  0
M  END
$$$$
