
     RDKit          3D

 39 39  0  0  0  0  0  0  0  0999 V2000
   -0.9500   -3.5094   -0.2748 C   0  0  0  0  0  0  0  0  0  0  0  0
   -1.9721   -2.4343    0.0440 C   0  0  0  0  0  0  0  0  0  0  0  0
   -1.4012   -1.1343   -0.1649 O   0  0  0  0  0  0  0  0  0  0  0  0
   -0.7038   -0.6057    0.8978 C   0  0  0  0  0  0  0  0  0  0  0  0
   -0.5506   -1.1995    1.9594 O   0  0  0  0  0  0  0  0  0  0  0  0
   -0.0658    0.7574    0.5200 C   0  0  0  0  0  0  0  0  0  0  0  0
   -0.8513    1.3845   -0.5608 N   0  0  0  0  0  0  0  0  0  0  0  0
   -2.0970    1.9143   -0.3422 C   0  0  0  0  0  0  0  0  0  0  0  0
   -2.5825    2.0234    0.7733 O   0  0  0  0  0  0  0  0  0  0  0  0
   -2.7976    2.3296   -1.6202 C   0  0  0  0  0  0  0  0  0  0  0  0
   -4.1574    2.9509   -1.3570 C   0  0  0  0  0  0  0  0  0  0  0  0
    1.1828    0.6033   -0.2876 N   0  0  0  0  0  0  0  0  0  0  0  0
    2.3471   -0.0786    0.0310 C   0  0  0  0  0  0  0  0  0  0  0  0
    2.5232   -0.9420    1.1116 C   0  0  0  0  0  0  0  0  0  0  0  0
    3.7231   -1.6424    1.3017 C   0  0  0  0  0  0  0  0  0  0  0  0
    4.7690   -1.5090    0.3965 C   0  0  0  0  0  0  0  0  0  0  0  0
    4.6126   -0.6775   -0.7035 C   0  0  0  0  0  0  0  0  0  0  0  0
    3.4129    0.0182   -0.8832 C   0  0  0  0  0  0  0  0  0  0  0  0
    0.1041    1.5918    1.8320 C   0  0  0  0  0  0  0  0  0  0  0  0
    1.1652    1.1826    2.5734 F   0  0  0  0  0  0  0  0  0  0  0  0
   -0.9645    1.5680    2.6559 F   0  0  0  0  0  0  0  0  0  0  0  0
    0.3509    2.8987    1.5287 F   0  0  0  0  0  0  0  0  0  0  0  0
   -0.0867   -3.4433    0.3949 H   0  0  0  0  0  0  0  0  0  0  0  0
   -0.5706   -3.3883   -1.2948 H   0  0  0  0  0  0  0  0  0  0  0  0
   -1.3915   -4.5052   -0.1780 H   0  0  0  0  0  0  0  0  0  0  0  0
   -2.3648   -2.5393    1.0617 H   0  0  0  0  0  0  0  0  0  0  0  0
   -2.8233   -2.5222   -0.6390 H   0  0  0  0  0  0  0  0  0  0  0  0
   -0.6975    0.9410   -1.4555 H   0  0  0  0  0  0  0  0  0  0  0  0
   -2.1616    3.0491   -2.1478 H   0  0  0  0  0  0  0  0  0  0  0  0
   -2.9170    1.4441   -2.2543 H   0  0  0  0  0  0  0  0  0  0  0  0
   -4.0668    3.8437   -0.7294 H   0  0  0  0  0  0  0  0  0  0  0  0
   -4.8190    2.2458   -0.8430 H   0  0  0  0  0  0  0  0  0  0  0  0
   -4.6327    3.2413   -2.2990 H   0  0  0  0  0  0  0  0  0  0  0  0
    1.4132    1.5078   -0.6969 H   0  0  0  0  0  0  0  0  0  0  0  0
    1.7622   -1.0891    1.8677 H   0  0  0  0  0  0  0  0  0  0  0  0
    3.8325   -2.2934    2.1660 H   0  0  0  0  0  0  0  0  0  0  0  0
    5.6966   -2.0541    0.5467 H   0  0  0  0  0  0  0  0  0  0  0  0
    5.4163   -0.5720   -1.4271 H   0  0  0  0  0  0  0  0  0  0  0  0
    3.3139    0.6442   -1.7679 H   0  0  0  0  0  0  0  0  0  0  0  0
  1  2  1  0
  2  3  1  0
  3  4  1  0
  4  5  2  0
  4  6  1  0
  6  7  1  0
  7  8  1  0
  8  9  2  0
  8 10  1  0
 10 11  1  0
  6 12  1  0
 12 13  1  0
 13 14  2  0
 14 15  1  0
 15 16  2  0
 16 17  1  0
 17 18  2  0
  6 19  1  0
 19 20  1  0
 19 21  1  0
 19 22  1  0
 18 13  1  0
  1 23  1  0
  1 24  1  0
  1 25  1  0
  2 26  1  0
  2 27  1  0
  7 28  1  0
 10 29  1  0
 10 30  1  0
 11 31  1  0
 11 32  1  0
 11 33  1  0
 12 34  1  0
 14 35  1  0
 15 36  1  0
 16 37  1  0
 17 38  1  0
 18 39  1  0
M  END
$$$$
