
     RDKit          3D

 34 36  0  0  0  0  0  0  0  0999 V2000
   -0.2340   -1.9823    1.2000 O   0  0  0  0  0  0  0  0  0  0  0  0
    0.2641   -1.0255    0.6222 C   0  0  0  0  0  0  0  0  0  0  0  0
    1.7330   -0.8759    0.6292 C   0  0  0  0  0  0  0  0  0  0  0  0
    2.5179   -1.9256    0.1412 C   0  0  0  0  0  0  0  0  0  0  0  0
    3.9097   -1.8114    0.1532 C   0  0  0  0  0  0  0  0  0  0  0  0
    4.5058   -0.6584    0.6662 C   0  0  0  0  0  0  0  0  0  0  0  0
    6.2203   -0.5182    0.6790 Cl  0  0  0  0  0  0  0  0  0  0  0  0
    3.7238    0.3793    1.1765 C   0  0  0  0  0  0  0  0  0  0  0  0
    2.3315    0.2694    1.1659 C   0  0  0  0  0  0  0  0  0  0  0  0
   -0.4897   -0.0985   -0.0499 N   0  0  0  0  0  0  0  0  0  0  0  0
   -0.0317    0.9727   -0.9467 C   0  0  0  0  0  0  0  0  0  0  0  0
   -0.4113    2.2625   -0.2623 C   0  0  0  0  0  0  0  0  0  0  0  0
   -1.7489    2.3811   -0.3227 C   0  0  0  0  0  0  0  0  0  0  0  0
   -2.2653    1.1165   -0.9914 C   0  0  0  0  0  0  0  0  0  0  0  0
   -1.1230    0.9763   -2.0179 C   0  0  0  0  0  0  0  0  0  0  0  0
   -2.0125   -0.1280   -0.0556 C   0  0  0  0  0  0  0  0  0  0  0  0
   -2.6615   -1.3775   -0.6555 C   0  0  0  0  0  0  0  0  0  0  0  0
   -2.0812   -1.7303   -1.8301 F   0  0  0  0  0  0  0  0  0  0  0  0
   -3.9675   -1.1459   -0.9443 F   0  0  0  0  0  0  0  0  0  0  0  0
   -2.6249   -2.4694    0.1286 F   0  0  0  0  0  0  0  0  0  0  0  0
   -2.6931    0.0401    1.3025 C   0  0  0  0  0  0  0  0  0  0  0  0
   -2.6525   -1.0555    2.0847 F   0  0  0  0  0  0  0  0  0  0  0  0
   -2.1440    1.0444    2.0315 F   0  0  0  0  0  0  0  0  0  0  0  0
   -4.0024    0.3622    1.1455 F   0  0  0  0  0  0  0  0  0  0  0  0
    2.0481   -2.8298   -0.2405 H   0  0  0  0  0  0  0  0  0  0  0  0
    4.5210   -2.6252   -0.2286 H   0  0  0  0  0  0  0  0  0  0  0  0
    4.1931    1.2669    1.5935 H   0  0  0  0  0  0  0  0  0  0  0  0
    1.7237    1.0627    1.5931 H   0  0  0  0  0  0  0  0  0  0  0  0
    0.9920    0.8976   -1.3121 H   0  0  0  0  0  0  0  0  0  0  0  0
    0.2754    2.9581    0.1959 H   0  0  0  0  0  0  0  0  0  0  0  0
   -2.3494    3.1758    0.0966 H   0  0  0  0  0  0  0  0  0  0  0  0
   -3.2616    1.2120   -1.4260 H   0  0  0  0  0  0  0  0  0  0  0  0
   -1.0520    1.8223   -2.7153 H   0  0  0  0  0  0  0  0  0  0  0  0
   -1.1525    0.0573   -2.6064 H   0  0  0  0  0  0  0  0  0  0  0  0
  1  2  2  0
  2  3  1  0
  3  4  2  0
  4  5  1  0
  5  6  2  0
  6  7  1  0
  6  8  1  0
  8  9  2  0
  2 10  1  0
 10 11  1  0
 11 12  1  0
 12 13  2  0
 13 14  1  0
 14 15  1  0
 14 16  1  0
 16 17  1  0
 17 18  1  0
 17 19  1  0
 17 20  1  0
 16 21  1  0
 21 22  1  0
 21 23  1  0
 21 24  1  0
  9  3  1  0
 16 10  1  0
 15 11  1  0
  4 25  1  0
  5 26  1  0
  8 27  1  0
  9 28  1  0
 11 29  1  0
 12 30  1  0
 13 31  1  0
 14 32  1  0
 15 33  1  0
 15 34  1  0
M  END
$$$$
