
     RDKit          3D

 59 62  0  0  0  0  0  0  0  0999 V2000
   -1.6330    0.8818   -2.9364 C   0  0  0  0  0  0  0  0  0  0  0  0
   -2.1895    0.1395   -1.8466 O   0  0  0  0  0  0  0  0  0  0  0  0
   -3.5514    0.3198   -1.7908 C   0  0  0  0  0  0  0  0  0  0  0  0
   -4.3692   -0.6284   -2.4351 C   0  0  0  0  0  0  0  0  0  0  0  0
   -3.7853   -1.7993   -3.1755 C   0  0  0  0  0  0  0  0  0  0  0  0
   -5.7604   -0.4497   -2.4160 C   0  0  0  0  0  0  0  0  0  0  0  0
   -6.3213    0.6300   -1.7365 C   0  0  0  0  0  0  0  0  0  0  0  0
   -8.1995    0.8527   -1.7220 Br  0  0  0  0  0  0  0  0  0  0  0  0
   -5.5136    1.5379   -1.0579 C   0  0  0  0  0  0  0  0  0  0  0  0
   -4.1172    1.3835   -1.0628 C   0  0  0  0  0  0  0  0  0  0  0  0
   -3.3279    2.3810   -0.2707 C   0  0  0  0  0  0  0  0  0  0  0  0
   -3.8493    3.4636   -0.0196 O   0  0  0  0  0  0  0  0  0  0  0  0
   -2.0789    1.9741    0.1349 N   0  0  0  0  0  0  0  0  0  0  0  0
   -1.1178    2.6799    0.8886 C   0  0  0  0  0  0  0  0  0  0  0  0
   -1.3089    3.9730    1.3778 C   0  0  0  0  0  0  0  0  0  0  0  0
   -0.2982    4.6044    2.1056 C   0  0  0  0  0  0  0  0  0  0  0  0
    0.9053    3.9472    2.3504 C   0  0  0  0  0  0  0  0  0  0  0  0
    1.1058    2.6535    1.8661 C   0  0  0  0  0  0  0  0  0  0  0  0
    0.1050    2.0032    1.1282 C   0  0  0  0  0  0  0  0  0  0  0  0
    0.2651    0.6831    0.6359 N   0  0  0  0  0  0  0  0  0  0  0  0
    1.4889    0.4531   -0.1660 C   0  0  0  0  0  0  0  0  0  0  0  0
    2.5167   -0.4547    0.5330 C   0  0  0  0  0  0  0  0  0  0  0  0
    1.9393   -1.7210    1.0092 N   0  0  0  0  0  0  0  0  0  0  0  0
    2.6762   -2.8458    1.3520 C   0  0  0  0  0  0  0  0  0  0  0  0
    2.1927   -3.8694    1.8282 O   0  0  0  0  0  0  0  0  0  0  0  0
    4.1370   -2.8028    1.1570 C   0  0  0  0  0  0  0  0  0  0  0  0
    4.9611   -2.5145    2.2471 C   0  0  0  0  0  0  0  0  0  0  0  0
    6.3429   -2.4756    2.0673 C   0  0  0  0  0  0  0  0  0  0  0  0
    6.8903   -2.7310    0.8078 C   0  0  0  0  0  0  0  0  0  0  0  0
    6.0613   -3.0326   -0.2745 C   0  0  0  0  0  0  0  0  0  0  0  0
    4.6783   -3.0762   -0.1017 C   0  0  0  0  0  0  0  0  0  0  0  0
    0.4940   -1.7165    1.2706 C   0  0  0  0  0  0  0  0  0  0  0  0
   -0.0119   -0.3259    1.6898 C   0  0  0  0  0  0  0  0  0  0  0  0
   -2.0254    0.5300   -3.8955 H   0  0  0  0  0  0  0  0  0  0  0  0
   -0.5524    0.7178   -2.9302 H   0  0  0  0  0  0  0  0  0  0  0  0
   -1.8138    1.9555   -2.8265 H   0  0  0  0  0  0  0  0  0  0  0  0
   -3.4150   -1.4807   -4.1537 H   0  0  0  0  0  0  0  0  0  0  0  0
   -2.9661   -2.2516   -2.6071 H   0  0  0  0  0  0  0  0  0  0  0  0
   -4.5368   -2.5805   -3.3306 H   0  0  0  0  0  0  0  0  0  0  0  0
   -6.4069   -1.1580   -2.9304 H   0  0  0  0  0  0  0  0  0  0  0  0
   -5.9660    2.3632   -0.5108 H   0  0  0  0  0  0  0  0  0  0  0  0
   -1.7488    1.0533   -0.1539 H   0  0  0  0  0  0  0  0  0  0  0  0
   -2.2341    4.5137    1.2066 H   0  0  0  0  0  0  0  0  0  0  0  0
   -0.4562    5.6119    2.4830 H   0  0  0  0  0  0  0  0  0  0  0  0
    1.6864    4.4406    2.9229 H   0  0  0  0  0  0  0  0  0  0  0  0
    2.0454    2.1559    2.0846 H   0  0  0  0  0  0  0  0  0  0  0  0
    1.9656    1.3923   -0.4753 H   0  0  0  0  0  0  0  0  0  0  0  0
    1.1680   -0.0425   -1.0911 H   0  0  0  0  0  0  0  0  0  0  0  0
    2.9363    0.0490    1.4121 H   0  0  0  0  0  0  0  0  0  0  0  0
    3.3424   -0.6554   -0.1555 H   0  0  0  0  0  0  0  0  0  0  0  0
    4.5300   -2.3346    3.2275 H   0  0  0  0  0  0  0  0  0  0  0  0
    6.9948   -2.2582    2.9094 H   0  0  0  0  0  0  0  0  0  0  0  0
    7.9691   -2.7062    0.6733 H   0  0  0  0  0  0  0  0  0  0  0  0
    6.4957   -3.2418   -1.2481 H   0  0  0  0  0  0  0  0  0  0  0  0
    4.0293   -3.3231   -0.9370 H   0  0  0  0  0  0  0  0  0  0  0  0
    0.0041   -2.0328    0.3407 H   0  0  0  0  0  0  0  0  0  0  0  0
    0.2445   -2.4500    2.0446 H   0  0  0  0  0  0  0  0  0  0  0  0
    0.4756   -0.0476    2.6339 H   0  0  0  0  0  0  0  0  0  0  0  0
   -1.0923   -0.3740    1.8699 H   0  0  0  0  0  0  0  0  0  0  0  0
  1  2  1  0
  2  3  1  0
  3  4  2  0
  4  5  1  0
  4  6  1  0
  6  7  2  0
  7  8  1  0
  7  9  1  0
  9 10  2  0
 10 11  1  0
 11 12  2  0
 11 13  1  0
 13 14  1  0
 14 15  2  0
 15 16  1  0
 16 17  2  0
 17 18  1  0
 18 19  2  0
 19 20  1  0
 20 21  1  0
 21 22  1  0
 22 23  1  0
 23 24  1  0
 24 25  2  0
 24 26  1  0
 26 27  2  0
 27 28  1  0
 28 29  2  0
 29 30  1  0
 30 31  2  0
 23 32  1  0
 32 33  1  0
 10  3  1  0
 19 14  1  0
 33 20  1  0
 31 26  1  0
  1 34  1  0
  1 35  1  0
  1 36  1  0
  5 37  1  0
  5 38  1  0
  5 39  1  0
  6 40  1  0
  9 41  1  0
 13 42  1  0
 15 43  1  0
 16 44  1  0
 17 45  1  0
 18 46  1  0
 21 47  1  0
 21 48  1  0
 22 49  1  0
 22 50  1  0
 27 51  1  0
 28 52  1  0
 29 53  1  0
 30 54  1  0
 31 55  1  0
 32 56  1  0
 32 57  1  0
 33 58  1  0
 33 59  1  0
M  END
$$$$
