
     RDKit          3D

 35 36  0  0  0  0  0  0  0  0999 V2000
   -6.5849   -1.3295   -2.1228 C   0  0  0  0  0  0  0  0  0  0  0  0
   -5.2759   -0.7783   -1.6409 C   0  0  0  0  0  0  0  0  0  0  0  0
   -4.1680   -1.6160   -1.4831 C   0  0  0  0  0  0  0  0  0  0  0  0
   -2.9337   -1.1036   -1.0635 C   0  0  0  0  0  0  0  0  0  0  0  0
   -2.7783    0.2592   -0.8028 C   0  0  0  0  0  0  0  0  0  0  0  0
   -1.5567    0.8333   -0.3762 N   0  0  0  0  0  0  0  0  0  0  0  0
   -0.3470    0.1975   -0.1393 C   0  0  0  0  0  0  0  0  0  0  0  0
   -0.1249   -1.0034   -0.2568 O   0  0  0  0  0  0  0  0  0  0  0  0
    0.7326    1.1842    0.3135 C   0  0  0  0  0  0  0  0  0  0  0  0
    1.9977    0.5395    0.4464 O   0  0  0  0  0  0  0  0  0  0  0  0
    2.9616    1.3338    0.9669 C   0  0  0  0  0  0  0  0  0  0  0  0
    2.8277    2.4928    1.3155 O   0  0  0  0  0  0  0  0  0  0  0  0
    4.2174    0.5603    1.0472 C   0  0  0  0  0  0  0  0  0  0  0  0
    4.1782   -0.7312    1.5991 C   0  0  0  0  0  0  0  0  0  0  0  0
    5.3533   -1.4695    1.7173 C   0  0  0  0  0  0  0  0  0  0  0  0
    5.3069   -3.0477    2.3983 Cl  0  0  0  0  0  0  0  0  0  0  0  0
    6.5683   -0.9366    1.2920 C   0  0  0  0  0  0  0  0  0  0  0  0
    6.6085    0.3459    0.7393 C   0  0  0  0  0  0  0  0  0  0  0  0
    5.4352    1.0992    0.6148 C   0  0  0  0  0  0  0  0  0  0  0  0
    5.5675    2.6527   -0.1264 Cl  0  0  0  0  0  0  0  0  0  0  0  0
   -3.8928    1.1004   -0.9780 C   0  0  0  0  0  0  0  0  0  0  0  0
   -3.7776    2.9743   -0.6576 Br  0  0  0  0  0  0  0  0  0  0  0  0
   -5.1267    0.5900   -1.3971 C   0  0  0  0  0  0  0  0  0  0  0  0
   -6.6245   -1.2975   -3.2160 H   0  0  0  0  0  0  0  0  0  0  0  0
   -6.7176   -2.3655   -1.7938 H   0  0  0  0  0  0  0  0  0  0  0  0
   -7.4236   -0.7515   -1.7207 H   0  0  0  0  0  0  0  0  0  0  0  0
   -4.2522   -2.6826   -1.6847 H   0  0  0  0  0  0  0  0  0  0  0  0
   -2.1123   -1.8051   -0.9548 H   0  0  0  0  0  0  0  0  0  0  0  0
   -1.5935    1.8373   -0.2296 H   0  0  0  0  0  0  0  0  0  0  0  0
    0.8106    1.9796   -0.4369 H   0  0  0  0  0  0  0  0  0  0  0  0
    0.4185    1.5992    1.2788 H   0  0  0  0  0  0  0  0  0  0  0  0
    3.2352   -1.1559    1.9379 H   0  0  0  0  0  0  0  0  0  0  0  0
    7.4857   -1.5134    1.3840 H   0  0  0  0  0  0  0  0  0  0  0  0
    7.5603    0.7512    0.4018 H   0  0  0  0  0  0  0  0  0  0  0  0
   -5.9748    1.2572   -1.5339 H   0  0  0  0  0  0  0  0  0  0  0  0
  1  2  1  0
  2  3  2  0
  3  4  1  0
  4  5  2  0
  5  6  1  0
  6  7  1  0
  7  8  2  0
  7  9  1  0
  9 10  1  0
 10 11  1  0
 11 12  2  0
 11 13  1  0
 13 14  2  0
 14 15  1  0
 15 16  1  0
 15 17  2  0
 17 18  1  0
 18 19  2  0
 19 20  1  0
  5 21  1  0
 21 22  1  0
 21 23  2  0
 23  2  1  0
 19 13  1  0
  1 24  1  0
  1 25  1  0
  1 26  1  0
  3 27  1  0
  4 28  1  0
  6 29  1  0
  9 30  1  0
  9 31  1  0
 14 32  1  0
 17 33  1  0
 18 34  1  0
 23 35  1  0
M  END
$$$$
