
     RDKit          3D

102104  0  0  0  0  0  0  0  0999 V2000
    9.2289    1.2532    0.1692 C   0  0  0  0  0  0  0  0  0  0  0  0
    7.7197    1.0665    0.1915 C   0  0  0  0  0  0  0  0  0  0  0  0
    7.1367    1.3807    1.5695 C   0  0  0  0  0  0  0  0  0  0  0  0
    5.6358    1.0934    1.6721 C   0  0  0  0  0  0  0  0  0  0  0  0
    4.7830    2.0011    0.7782 C   0  0  0  0  0  0  0  0  0  0  0  0
    3.2749    1.7784    0.9922 C   0  0  0  0  0  0  0  0  0  0  0  0
    2.4756    2.7057    0.0682 C   0  0  0  0  0  0  0  0  0  0  0  0
    1.0849    2.9874    0.6014 C   0  0  0  0  0  0  0  0  0  0  0  0
    0.8097    2.9910    1.7949 O   0  0  0  0  0  0  0  0  0  0  0  0
    0.1793    3.3327   -0.3834 N   0  0  0  0  0  0  0  0  0  0  0  0
   -1.2503    3.3725   -0.0820 C   0  0  0  0  0  0  0  0  0  0  0  0
   -1.9422    4.6530   -0.5725 C   0  0  0  0  0  0  0  0  0  0  0  0
   -2.2279    4.7893   -2.0845 C   0  0  0  0  0  0  0  0  0  0  0  0
   -3.0582    6.0564   -2.3259 C   0  0  0  0  0  0  0  0  0  0  0  0
   -0.9648    4.8434   -2.9433 C   0  0  0  0  0  0  0  0  0  0  0  0
   -1.8839    2.0968   -0.6658 C   0  0  0  0  0  0  0  0  0  0  0  0
   -1.3485    1.4608   -1.5734 O   0  0  0  0  0  0  0  0  0  0  0  0
   -3.1058    1.7542   -0.1248 N   0  0  0  0  0  0  0  0  0  0  0  0
   -3.6773    0.4417   -0.4381 C   0  0  0  0  0  0  0  0  0  0  0  0
   -5.2046    0.4201   -0.3148 C   0  0  0  0  0  0  0  0  0  0  0  0
   -5.8774    1.2397   -1.3920 C   0  0  0  0  0  0  0  0  0  0  0  0
   -6.2840    2.5562   -1.1349 C   0  0  0  0  0  0  0  0  0  0  0  0
   -6.8734    3.3233   -2.1406 C   0  0  0  0  0  0  0  0  0  0  0  0
   -7.0589    2.7838   -3.4119 C   0  0  0  0  0  0  0  0  0  0  0  0
   -6.6572    1.4760   -3.6792 C   0  0  0  0  0  0  0  0  0  0  0  0
   -6.0685    0.7066   -2.6745 C   0  0  0  0  0  0  0  0  0  0  0  0
   -3.0771   -0.5161    0.6034 C   0  0  0  0  0  0  0  0  0  0  0  0
   -3.0421   -0.2313    1.8012 O   0  0  0  0  0  0  0  0  0  0  0  0
   -2.5789   -1.6973    0.0944 N   0  0  0  0  0  0  0  0  0  0  0  0
   -1.6310   -2.4716    0.8945 C   0  0  0  0  0  0  0  0  0  0  0  0
   -1.8315   -3.9800    0.7085 C   0  0  0  0  0  0  0  0  0  0  0  0
   -3.1950   -4.5058    1.1988 C   0  0  0  0  0  0  0  0  0  0  0  0
   -3.3267   -5.9925    0.8604 C   0  0  0  0  0  0  0  0  0  0  0  0
   -3.3920   -4.3012    2.7013 C   0  0  0  0  0  0  0  0  0  0  0  0
   -0.2289   -2.0807    0.3810 C   0  0  0  0  0  0  0  0  0  0  0  0
   -0.0430   -1.7188   -0.7808 O   0  0  0  0  0  0  0  0  0  0  0  0
    0.7942   -2.2371    1.2899 N   0  0  0  0  0  0  0  0  0  0  0  0
    2.1487   -1.7879    0.9447 C   0  0  0  0  0  0  0  0  0  0  0  0
    3.2255   -2.6906    1.5594 C   0  0  0  0  0  0  0  0  0  0  0  0
    3.1854   -4.1030    1.0228 C   0  0  0  0  0  0  0  0  0  0  0  0
    3.6351   -4.3847   -0.2747 C   0  0  0  0  0  0  0  0  0  0  0  0
    3.5741   -5.6854   -0.7773 C   0  0  0  0  0  0  0  0  0  0  0  0
    3.0634   -6.7160    0.0103 C   0  0  0  0  0  0  0  0  0  0  0  0
    2.6144   -6.4470    1.3022 C   0  0  0  0  0  0  0  0  0  0  0  0
    2.6747   -5.1470    1.8069 C   0  0  0  0  0  0  0  0  0  0  0  0
    2.3346   -0.3771    1.5032 C   0  0  0  0  0  0  0  0  0  0  0  0
    1.9704   -0.0433    2.6243 O   0  0  0  0  0  0  0  0  0  0  0  0
    2.9906    0.4111    0.6084 O   0  0  0  0  0  0  0  0  0  0  0  0
    9.6239    1.0318   -0.8285 H   0  0  0  0  0  0  0  0  0  0  0  0
    9.7208    0.5860    0.8851 H   0  0  0  0  0  0  0  0  0  0  0  0
    9.4982    2.2849    0.4191 H   0  0  0  0  0  0  0  0  0  0  0  0
    7.4825    0.0339   -0.0873 H   0  0  0  0  0  0  0  0  0  0  0  0
    7.2771    1.7198   -0.5673 H   0  0  0  0  0  0  0  0  0  0  0  0
    7.6516    0.7740    2.3242 H   0  0  0  0  0  0  0  0  0  0  0  0
    7.3299    2.4298    1.8233 H   0  0  0  0  0  0  0  0  0  0  0  0
    5.4529    0.0408    1.4265 H   0  0  0  0  0  0  0  0  0  0  0  0
    5.3293    1.2320    2.7162 H   0  0  0  0  0  0  0  0  0  0  0  0
    5.0319    3.0492    0.9831 H   0  0  0  0  0  0  0  0  0  0  0  0
    5.0265    1.8012   -0.2721 H   0  0  0  0  0  0  0  0  0  0  0  0
    3.0427    1.9608    2.0471 H   0  0  0  0  0  0  0  0  0  0  0  0
    2.4024    2.2699   -0.9351 H   0  0  0  0  0  0  0  0  0  0  0  0
    2.9645    3.6842   -0.0159 H   0  0  0  0  0  0  0  0  0  0  0  0
    0.3926    2.9760   -1.3093 H   0  0  0  0  0  0  0  0  0  0  0  0
   -1.3751    3.3252    1.0068 H   0  0  0  0  0  0  0  0  0  0  0  0
   -1.3605    5.5213   -0.2336 H   0  0  0  0  0  0  0  0  0  0  0  0
   -2.9084    4.7151   -0.0537 H   0  0  0  0  0  0  0  0  0  0  0  0
   -2.8353    3.9382   -2.4168 H   0  0  0  0  0  0  0  0  0  0  0  0
   -2.5096    6.9553   -2.0224 H   0  0  0  0  0  0  0  0  0  0  0  0
   -3.9951    6.0222   -1.7587 H   0  0  0  0  0  0  0  0  0  0  0  0
   -3.3189    6.1577   -3.3854 H   0  0  0  0  0  0  0  0  0  0  0  0
   -0.4788    3.8664   -2.9990 H   0  0  0  0  0  0  0  0  0  0  0  0
   -0.2453    5.5704   -2.5514 H   0  0  0  0  0  0  0  0  0  0  0  0
   -1.2061    5.1302   -3.9734 H   0  0  0  0  0  0  0  0  0  0  0  0
   -3.2713    2.0757    0.8245 H   0  0  0  0  0  0  0  0  0  0  0  0
   -3.3686    0.1390   -1.4456 H   0  0  0  0  0  0  0  0  0  0  0  0
   -5.5188    0.7839    0.6731 H   0  0  0  0  0  0  0  0  0  0  0  0
   -5.5743   -0.6126   -0.3786 H   0  0  0  0  0  0  0  0  0  0  0  0
   -6.1392    2.9942   -0.1504 H   0  0  0  0  0  0  0  0  0  0  0  0
   -7.1834    4.3443   -1.9318 H   0  0  0  0  0  0  0  0  0  0  0  0
   -7.5137    3.3836   -4.1959 H   0  0  0  0  0  0  0  0  0  0  0  0
   -6.7991    1.0562   -4.6719 H   0  0  0  0  0  0  0  0  0  0  0  0
   -5.7541   -0.3091   -2.9034 H   0  0  0  0  0  0  0  0  0  0  0  0
   -2.3308   -1.6677   -0.8928 H   0  0  0  0  0  0  0  0  0  0  0  0
   -1.7005   -2.1917    1.9505 H   0  0  0  0  0  0  0  0  0  0  0  0
   -1.0276   -4.5199    1.2275 H   0  0  0  0  0  0  0  0  0  0  0  0
   -1.7193   -4.2272   -0.3568 H   0  0  0  0  0  0  0  0  0  0  0  0
   -3.9973   -3.9741    0.6726 H   0  0  0  0  0  0  0  0  0  0  0  0
   -4.3028   -6.3779    1.1751 H   0  0  0  0  0  0  0  0  0  0  0  0
   -3.2386   -6.1564   -0.2190 H   0  0  0  0  0  0  0  0  0  0  0  0
   -2.5515   -6.5865    1.3585 H   0  0  0  0  0  0  0  0  0  0  0  0
   -4.3330   -4.7526    3.0339 H   0  0  0  0  0  0  0  0  0  0  0  0
   -2.5786   -4.7592    3.2743 H   0  0  0  0  0  0  0  0  0  0  0  0
   -3.4362   -3.2382    2.9577 H   0  0  0  0  0  0  0  0  0  0  0  0
    0.5466   -2.1842    2.2729 H   0  0  0  0  0  0  0  0  0  0  0  0
    2.2501   -1.7539   -0.1461 H   0  0  0  0  0  0  0  0  0  0  0  0
    3.1270   -2.7108    2.6535 H   0  0  0  0  0  0  0  0  0  0  0  0
    4.2228   -2.2744    1.3637 H   0  0  0  0  0  0  0  0  0  0  0  0
    4.0288   -3.5920   -0.9070 H   0  0  0  0  0  0  0  0  0  0  0  0
    3.9198   -5.8934   -1.7867 H   0  0  0  0  0  0  0  0  0  0  0  0
    3.0126   -7.7277   -0.3839 H   0  0  0  0  0  0  0  0  0  0  0  0
    2.2135   -7.2496    1.9166 H   0  0  0  0  0  0  0  0  0  0  0  0
    2.3134   -4.9548    2.8150 H   0  0  0  0  0  0  0  0  0  0  0  0
  1  2  1  0
  2  3  1  0
  3  4  1  0
  4  5  1  0
  5  6  1  0
  6  7  1  0
  7  8  1  0
  8  9  2  0
  8 10  1  0
 10 11  1  0
 11 12  1  0
 12 13  1  0
 13 14  1  0
 13 15  1  0
 11 16  1  0
 16 17  2  0
 16 18  1  0
 18 19  1  0
 19 20  1  0
 20 21  1  0
 21 22  2  0
 22 23  1  0
 23 24  2  0
 24 25  1  0
 25 26  2  0
 19 27  1  0
 27 28  2  0
 27 29  1  0
 29 30  1  0
 30 31  1  0
 31 32  1  0
 32 33  1  0
 32 34  1  0
 30 35  1  0
 35 36  2  0
 35 37  1  0
 37 38  1  0
 38 39  1  0
 39 40  1  0
 40 41  2  0
 41 42  1  0
 42 43  2  0
 43 44  1  0
 44 45  2  0
 38 46  1  0
 46 47  2  0
 46 48  1  0
 48  6  1  0
 26 21  1  0
 45 40  1  0
  1 49  1  0
  1 50  1  0
  1 51  1  0
  2 52  1  0
  2 53  1  0
  3 54  1  0
  3 55  1  0
  4 56  1  0
  4 57  1  0
  5 58  1  0
  5 59  1  0
  6 60  1  0
  7 61  1  0
  7 62  1  0
 10 63  1  0
 11 64  1  0
 12 65  1  0
 12 66  1  0
 13 67  1  0
 14 68  1  0
 14 69  1  0
 14 70  1  0
 15 71  1  0
 15 72  1  0
 15 73  1  0
 18 74  1  0
 19 75  1  0
 20 76  1  0
 20 77  1  0
 22 78  1  0
 23 79  1  0
 24 80  1  0
 25 81  1  0
 26 82  1  0
 29 83  1  0
 30 84  1  0
 31 85  1  0
 31 86  1  0
 32 87  1  0
 33 88  1  0
 33 89  1  0
 33 90  1  0
 34 91  1  0
 34 92  1  0
 34 93  1  0
 37 94  1  0
 38 95  1  0
 39 96  1  0
 39 97  1  0
 41 98  1  0
 42 99  1  0
 43100  1  0
 44101  1  0
 45102  1  0
M  END
$$$$
