
     RDKit          3D

 53 58  0  0  0  0  0  0  0  0999 V2000
   -0.8400    0.3731    1.5657 O   0  0  0  0  0  0  0  0  0  0  0  0
   -1.3417    0.5594    0.4542 C   0  0  0  0  0  0  0  0  0  0  0  0
   -0.4440    0.5400   -0.8086 C   0  0  0  0  0  0  0  0  0  0  0  0
    0.9016    0.0107   -0.5049 N   0  0  0  0  0  4  0  0  0  0  0  0
    2.1142    0.6846   -0.6386 C   0  0  0  0  0  0  0  0  0  0  0  0
    3.1433   -0.1435   -0.2000 C   0  0  0  0  0  0  0  0  0  0  0  0
    4.6803    0.1931   -0.2120 C   0  0  0  0  0  0  0  0  0  0  0  0
    5.1230    1.4243   -0.7125 C   0  0  0  0  0  0  0  0  0  0  0  0
    6.4892    1.7259   -0.7390 C   0  0  0  0  0  0  0  0  0  0  0  0
    7.4138    0.8013   -0.2628 C   0  0  0  0  0  0  0  0  0  0  0  0
    9.0903    1.1672   -0.3003 Cl  0  0  0  0  0  0  0  0  0  0  0  0
    6.9827   -0.4264    0.2339 C   0  0  0  0  0  0  0  0  0  0  0  0
    5.6170   -0.7322    0.2566 C   0  0  0  0  0  0  0  0  0  0  0  0
    2.4794   -1.2833    0.2172 N   0  0  0  0  0  0  0  0  0  0  0  0
    1.1668   -1.1883    0.0119 C   0  0  0  0  0  0  0  0  0  0  0  0
    0.4268   -2.4193    0.3838 C   0  0  0  0  0  0  0  0  0  0  0  0
    1.4804   -3.1994    1.1932 C   0  0  0  0  0  0  0  0  0  0  0  0
    2.8452   -2.5665    0.8009 C   0  0  0  0  0  0  0  0  0  0  0  0
   -2.7145    0.6292    0.1629 N   0  0  0  0  0  0  0  0  0  0  0  0
   -3.6747   -0.2282    0.8167 C   0  0  0  0  0  0  0  0  0  0  0  0
   -3.4244   -0.7639    2.0963 C   0  0  0  0  0  0  0  0  0  0  0  0
   -4.3362   -1.6178    2.7285 C   0  0  0  0  0  0  0  0  0  0  0  0
   -5.5189   -1.9694    2.0915 C   0  0  0  0  0  0  0  0  0  0  0  0
   -5.7901   -1.4627    0.8230 C   0  0  0  0  0  0  0  0  0  0  0  0
   -4.8832   -0.5971    0.1882 C   0  0  0  0  0  0  0  0  0  0  0  0
   -5.2926   -0.0976   -1.4700 S   0  0  0  0  0  0  0  0  0  0  0  0
   -4.3710    1.4119   -1.5386 C   0  0  0  0  0  0  0  0  0  0  0  0
   -4.8098    2.4075   -2.4271 C   0  0  0  0  0  0  0  0  0  0  0  0
   -4.1327    3.6206   -2.5296 C   0  0  0  0  0  0  0  0  0  0  0  0
   -3.0123    3.8499   -1.7401 C   0  0  0  0  0  0  0  0  0  0  0  0
   -2.5619    2.8581   -0.8637 C   0  0  0  0  0  0  0  0  0  0  0  0
   -3.2160    1.6096   -0.7667 C   0  0  0  0  0  0  0  0  0  0  0  0
   -0.3246    1.5446   -1.2271 H   0  0  0  0  0  0  0  0  0  0  0  0
   -0.8861   -0.1257   -1.5624 H   0  0  0  0  0  0  0  0  0  0  0  0
    2.0910    1.6829   -1.0445 H   0  0  0  0  0  0  0  0  0  0  0  0
    4.4354    2.1731   -1.0948 H   0  0  0  0  0  0  0  0  0  0  0  0
    6.8281    2.6802   -1.1347 H   0  0  0  0  0  0  0  0  0  0  0  0
    7.7057   -1.1500    0.6043 H   0  0  0  0  0  0  0  0  0  0  0  0
    5.3293   -1.6998    0.6467 H   0  0  0  0  0  0  0  0  0  0  0  0
    0.1647   -2.9173   -0.5537 H   0  0  0  0  0  0  0  0  0  0  0  0
   -0.4570   -2.1614    0.9660 H   0  0  0  0  0  0  0  0  0  0  0  0
    1.3040   -3.0307    2.2635 H   0  0  0  0  0  0  0  0  0  0  0  0
    1.4518   -4.2796    1.0130 H   0  0  0  0  0  0  0  0  0  0  0  0
    3.3570   -3.1671    0.0429 H   0  0  0  0  0  0  0  0  0  0  0  0
    3.4773   -2.4289    1.6824 H   0  0  0  0  0  0  0  0  0  0  0  0
   -2.5471   -0.4894    2.6758 H   0  0  0  0  0  0  0  0  0  0  0  0
   -4.1241   -1.9934    3.7291 H   0  0  0  0  0  0  0  0  0  0  0  0
   -6.2317   -2.6306    2.5796 H   0  0  0  0  0  0  0  0  0  0  0  0
   -6.7140   -1.7564    0.3266 H   0  0  0  0  0  0  0  0  0  0  0  0
   -5.7028    2.2535   -3.0341 H   0  0  0  0  0  0  0  0  0  0  0  0
   -4.4979    4.3931   -3.2046 H   0  0  0  0  0  0  0  0  0  0  0  0
   -2.5161    4.8164   -1.7782 H   0  0  0  0  0  0  0  0  0  0  0  0
   -1.7331    3.1154   -0.2054 H   0  0  0  0  0  0  0  0  0  0  0  0
  1  2  2  0
  2  3  1  0
  3  4  1  0
  4  5  1  0
  5  6  2  0
  6  7  1  0
  7  8  2  0
  8  9  1  0
  9 10  2  0
 10 11  1  0
 10 12  1  0
 12 13  2  0
  6 14  1  0
 14 15  1  0
 15 16  1  0
 16 17  1  0
 17 18  1  0
  2 19  1  0
 19 20  1  0
 20 21  2  0
 21 22  1  0
 22 23  2  0
 23 24  1  0
 24 25  2  0
 25 26  1  0
 26 27  1  0
 27 28  2  0
 28 29  1  0
 29 30  2  0
 30 31  1  0
 31 32  2  0
 15  4  2  0
 32 19  1  0
 13  7  1  0
 18 14  1  0
 25 20  1  0
 32 27  1  0
  3 33  1  0
  3 34  1  0
  5 35  1  0
  8 36  1  0
  9 37  1  0
 12 38  1  0
 13 39  1  0
 16 40  1  0
 16 41  1  0
 17 42  1  0
 17 43  1  0
 18 44  1  0
 18 45  1  0
 21 46  1  0
 22 47  1  0
 23 48  1  0
 24 49  1  0
 28 50  1  0
 29 51  1  0
 30 52  1  0
 31 53  1  0
M  CHG  1   4   1
M  END
$$$$
