
     RDKit          3D

 51 55  0  0  0  0  0  0  0  0999 V2000
   -3.2773   -3.1346   -0.5207 C   0  0  0  0  0  0  0  0  0  0  0  0
   -2.7493   -1.7295   -0.6813 C   0  0  0  0  0  0  0  0  0  0  0  0
   -1.3908   -1.5884   -0.4371 N   0  0  0  0  0  0  0  0  0  0  0  0
   -0.7613   -0.3966   -0.5224 C   0  0  0  0  0  0  0  0  0  0  0  0
    0.5422    0.0092   -0.3328 C   0  0  0  0  0  0  0  0  0  0  0  0
    1.6449   -0.8528    0.0487 C   0  0  0  0  0  0  0  0  0  0  0  0
    1.4991   -2.0613    0.2147 O   0  0  0  0  0  0  0  0  0  0  0  0
    2.8567   -0.2264    0.2205 N   0  0  0  0  0  0  0  0  0  0  0  0
    4.0127   -0.9710    0.6572 C   0  0  0  0  0  0  0  0  0  0  0  0
    5.2349   -0.0928    0.6744 C   0  0  0  0  0  0  0  0  0  0  0  0
    5.5927    0.6085    1.8495 C   0  0  0  0  0  0  0  0  0  0  0  0
    6.7071    1.4534    1.8717 C   0  0  0  0  0  0  0  0  0  0  0  0
    7.4362    1.5836    0.7103 C   0  0  0  0  0  0  0  0  0  0  0  0
    7.0913    0.9140   -0.4394 C   0  0  0  0  0  0  0  0  0  0  0  0
    5.9986    0.0746   -0.4927 C   0  0  0  0  0  0  0  0  0  0  0  0
    7.9348    1.1850   -1.4708 O   0  0  0  0  0  0  0  0  0  0  0  0
    8.8557    2.0967   -0.8357 C   0  0  0  0  0  0  0  0  0  0  0  0
    8.5412    2.3589    0.5479 O   0  0  0  0  0  0  0  0  0  0  0  0
    0.4867    1.3974   -0.6051 C   0  0  0  0  0  0  0  0  0  0  0  0
   -0.7353    1.8328   -0.9265 N   0  0  0  0  0  0  0  0  0  0  0  0
   -1.5018    0.7095   -0.8712 N   0  0  0  0  0  0  0  0  0  0  0  0
   -2.8788    0.6924   -1.1468 C   0  0  0  0  0  0  0  0  0  0  0  0
   -3.4734    1.7122   -1.4725 O   0  0  0  0  0  0  0  0  0  0  0  0
   -3.5243   -0.6663   -1.0155 C   0  0  0  0  0  0  0  0  0  0  0  0
   -4.9993   -0.6879   -1.3336 C   0  0  0  0  0  0  0  0  0  0  0  0
   -5.8943   -0.1747   -0.2274 C   0  0  0  0  0  0  0  0  0  0  0  0
   -5.7058   -0.5306    1.1175 C   0  0  0  0  0  0  0  0  0  0  0  0
   -6.5727   -0.0574    2.1077 C   0  0  0  0  0  0  0  0  0  0  0  0
   -7.6460    0.7647    1.7682 C   0  0  0  0  0  0  0  0  0  0  0  0
   -7.8581    1.1080    0.4356 C   0  0  0  0  0  0  0  0  0  0  0  0
   -6.9914    0.6342   -0.5459 C   0  0  0  0  0  0  0  0  0  0  0  0
   -7.2374    0.9562   -1.8241 F   0  0  0  0  0  0  0  0  0  0  0  0
   -2.8896   -3.5806    0.4024 H   0  0  0  0  0  0  0  0  0  0  0  0
   -4.3663   -3.1873   -0.4548 H   0  0  0  0  0  0  0  0  0  0  0  0
   -2.9534   -3.7547   -1.3628 H   0  0  0  0  0  0  0  0  0  0  0  0
   -0.8615   -2.4310   -0.1932 H   0  0  0  0  0  0  0  0  0  0  0  0
    2.9330    0.7784    0.1673 H   0  0  0  0  0  0  0  0  0  0  0  0
    3.8093   -1.3751    1.6559 H   0  0  0  0  0  0  0  0  0  0  0  0
    4.1601   -1.8292   -0.0094 H   0  0  0  0  0  0  0  0  0  0  0  0
    4.9993    0.4945    2.7553 H   0  0  0  0  0  0  0  0  0  0  0  0
    6.9894    1.9903    2.7704 H   0  0  0  0  0  0  0  0  0  0  0  0
    5.7451   -0.4368   -1.4159 H   0  0  0  0  0  0  0  0  0  0  0  0
    8.8430    3.0458   -1.3840 H   0  0  0  0  0  0  0  0  0  0  0  0
    9.8646    1.6717   -0.8916 H   0  0  0  0  0  0  0  0  0  0  0  0
    1.2889    2.1238   -0.5861 H   0  0  0  0  0  0  0  0  0  0  0  0
   -5.1574   -0.1000   -2.2476 H   0  0  0  0  0  0  0  0  0  0  0  0
   -5.3391   -1.6952   -1.5983 H   0  0  0  0  0  0  0  0  0  0  0  0
   -4.8834   -1.1765    1.4145 H   0  0  0  0  0  0  0  0  0  0  0  0
   -6.4090   -0.3319    3.1472 H   0  0  0  0  0  0  0  0  0  0  0  0
   -8.3174    1.1332    2.5394 H   0  0  0  0  0  0  0  0  0  0  0  0
   -8.6931    1.7400    0.1512 H   0  0  0  0  0  0  0  0  0  0  0  0
  1  2  1  0
  2  3  1  0
  3  4  1  0
  4  5  2  0
  5  6  1  0
  6  7  2  0
  6  8  1  0
  8  9  1  0
  9 10  1  0
 10 11  2  0
 11 12  1  0
 12 13  2  0
 13 14  1  0
 14 15  2  0
 14 16  1  0
 16 17  1  0
 17 18  1  0
  5 19  1  0
 19 20  2  0
 20 21  1  0
 21 22  1  0
 22 23  2  0
 22 24  1  0
 24 25  1  0
 25 26  1  0
 26 27  2  0
 27 28  1  0
 28 29  2  0
 29 30  1  0
 30 31  2  0
 31 32  1  0
 24  2  2  0
 31 26  1  0
 21  4  1  0
 15 10  1  0
 18 13  1  0
  1 33  1  0
  1 34  1  0
  1 35  1  0
  3 36  1  0
  8 37  1  0
  9 38  1  0
  9 39  1  0
 11 40  1  0
 12 41  1  0
 15 42  1  0
 17 43  1  0
 17 44  1  0
 19 45  1  0
 25 46  1  0
 25 47  1  0
 27 48  1  0
 28 49  1  0
 29 50  1  0
 30 51  1  0
M  END
$$$$
