
     RDKit          3D

 38 39  0  0  0  0  0  0  0  0999 V2000
   -1.2243   -1.4209    0.7669 O   0  0  0  0  0  0  0  0  0  0  0  0
   -0.7589   -0.8684   -0.2222 C   0  0  0  0  0  0  0  0  0  0  0  0
   -1.5314    0.0757   -1.0759 C   0  0  0  0  0  0  0  0  0  0  0  0
   -2.7024    0.6443   -0.7416 C   0  0  0  0  0  0  0  0  0  0  0  0
   -3.4320    0.4421    0.5143 C   0  0  0  0  0  0  0  0  0  0  0  0
   -4.4093   -0.5652    0.5406 C   0  0  0  0  0  0  0  0  0  0  0  0
   -5.1618   -0.8027    1.6967 C   0  0  0  0  0  0  0  0  0  0  0  0
   -4.9597   -0.0312    2.8461 C   0  0  0  0  0  0  0  0  0  0  0  0
   -3.9892    0.9686    2.8446 C   0  0  0  0  0  0  0  0  0  0  0  0
   -3.2260    1.1900    1.6858 C   0  0  0  0  0  0  0  0  0  0  0  0
   -2.2457    2.2661    1.7263 N   0  0  0  0  0  4  0  0  0  0  0  0
   -1.0705    2.0072    1.4317 O   0  0  0  0  0  0  0  0  0  0  0  0
   -2.6590    3.3810    2.0784 O   0  0  0  0  0  1  0  0  0  0  0  0
    0.5212   -1.0571   -0.6840 N   0  0  0  0  0  0  0  0  0  0  0  0
    1.4933   -1.8718    0.0270 C   0  0  0  0  0  0  0  0  0  0  0  0
    2.6616   -1.0351    0.5687 C   0  0  0  0  0  0  0  0  0  0  0  0
    3.4651   -0.3635   -0.5272 C   0  0  0  0  0  0  0  0  0  0  0  0
    3.3579    1.0219   -0.7357 C   0  0  0  0  0  0  0  0  0  0  0  0
    4.0745    1.6340   -1.7707 C   0  0  0  0  0  0  0  0  0  0  0  0
    4.9021    0.8648   -2.5886 C   0  0  0  0  0  0  0  0  0  0  0  0
    5.5815    1.4526   -3.5842 F   0  0  0  0  0  0  0  0  0  0  0  0
    5.0261   -0.5080   -2.3957 C   0  0  0  0  0  0  0  0  0  0  0  0
    4.3079   -1.1248   -1.3667 C   0  0  0  0  0  0  0  0  0  0  0  0
   -1.0994    0.3086   -2.0495 H   0  0  0  0  0  0  0  0  0  0  0  0
   -3.1836    1.3177   -1.4463 H   0  0  0  0  0  0  0  0  0  0  0  0
   -4.5797   -1.1894   -0.3383 H   0  0  0  0  0  0  0  0  0  0  0  0
   -5.9036   -1.6031    1.6986 H   0  0  0  0  0  0  0  0  0  0  0  0
   -5.5508   -0.2220    3.7399 H   0  0  0  0  0  0  0  0  0  0  0  0
   -3.8262    1.5652    3.7434 H   0  0  0  0  0  0  0  0  0  0  0  0
    0.8550   -0.5399   -1.4864 H   0  0  0  0  0  0  0  0  0  0  0  0
    1.0111   -2.3922    0.8584 H   0  0  0  0  0  0  0  0  0  0  0  0
    1.8443   -2.6346   -0.6808 H   0  0  0  0  0  0  0  0  0  0  0  0
    2.2819   -0.2775    1.2675 H   0  0  0  0  0  0  0  0  0  0  0  0
    3.3362   -1.6782    1.1483 H   0  0  0  0  0  0  0  0  0  0  0  0
    2.7133    1.6281   -0.0991 H   0  0  0  0  0  0  0  0  0  0  0  0
    3.9969    2.7047   -1.9390 H   0  0  0  0  0  0  0  0  0  0  0  0
    5.6746   -1.0871   -3.0468 H   0  0  0  0  0  0  0  0  0  0  0  0
    4.4089   -2.1998   -1.2213 H   0  0  0  0  0  0  0  0  0  0  0  0
  1  2  2  0
  2  3  1  0
  3  4  2  3
  4  5  1  0
  5  6  2  0
  6  7  1  0
  7  8  2  0
  8  9  1  0
  9 10  2  0
 10 11  1  0
 11 12  2  0
 11 13  1  0
  2 14  1  0
 14 15  1  0
 15 16  1  0
 16 17  1  0
 17 18  2  0
 18 19  1  0
 19 20  2  0
 20 21  1  0
 20 22  1  0
 22 23  2  0
 10  5  1  0
 23 17  1  0
  3 24  1  0
  4 25  1  0
  6 26  1  0
  7 27  1  0
  8 28  1  0
  9 29  1  0
 14 30  1  0
 15 31  1  0
 15 32  1  0
 16 33  1  0
 16 34  1  0
 18 35  1  0
 19 36  1  0
 22 37  1  0
 23 38  1  0
M  CHG  2  11   1  13  -1
M  END
$$$$
