
     RDKit          3D

 38 40  0  0  0  0  0  0  0  0999 V2000
   -0.7081    0.8512   -2.6951 C   0  0  0  0  0  0  0  0  0  0  0  0
   -0.8019    0.3422   -1.2845 C   0  0  0  0  0  0  0  0  0  0  0  0
   -1.6300    1.0127   -0.3732 C   0  0  0  0  0  0  0  0  0  0  0  0
   -1.7553    0.5631    0.9410 C   0  0  0  0  0  0  0  0  0  0  0  0
   -2.5905    1.2920    1.7428 O   0  0  0  0  0  0  0  0  0  0  0  0
   -1.0578   -0.5652    1.3850 C   0  0  0  0  0  0  0  0  0  0  0  0
   -1.0915   -1.1520    3.0715 S   0  0  0  0  0  0  0  0  0  0  0  0
   -2.7508   -1.6400    3.2581 C   0  0  0  0  0  0  0  0  0  0  0  0
   -3.1459   -2.9377    3.4133 N   0  0  0  0  0  0  0  0  0  0  0  0
   -4.4479   -2.8381    3.5391 C   0  0  0  0  0  0  0  0  0  0  0  0
   -4.8121   -1.5310    3.4688 N   0  0  0  0  0  0  0  0  0  0  0  0
   -3.7403   -0.7368    3.2923 N   0  0  0  0  0  0  0  0  0  0  0  0
   -0.2262   -1.2333    0.4768 C   0  0  0  0  0  0  0  0  0  0  0  0
   -0.0914   -0.7857   -0.8433 C   0  0  0  0  0  0  0  0  0  0  0  0
    0.7877   -1.4699   -1.7328 N   0  0  0  0  0  0  0  0  0  0  0  0
    2.4420   -1.5448   -1.4098 S   0  0  0  0  0  6  0  0  0  0  0  0
    3.0632   -2.0135   -2.6313 O   0  0  0  0  0  0  0  0  0  0  0  0
    2.6649   -2.2209   -0.1508 O   0  0  0  0  0  0  0  0  0  0  0  0
    2.8992    0.1639   -1.2022 C   0  0  0  0  0  0  0  0  0  0  0  0
    3.3115    0.9082   -2.3131 C   0  0  0  0  0  0  0  0  0  0  0  0
    3.6819    2.2443   -2.1459 C   0  0  0  0  0  0  0  0  0  0  0  0
    3.6499    2.8207   -0.8750 C   0  0  0  0  0  0  0  0  0  0  0  0
    4.1030    4.4683   -0.6759 Cl  0  0  0  0  0  0  0  0  0  0  0  0
    3.2596    2.0712    0.2353 C   0  0  0  0  0  0  0  0  0  0  0  0
    2.8908    0.7340    0.0758 C   0  0  0  0  0  0  0  0  0  0  0  0
   -1.0858    0.0984   -3.3943 H   0  0  0  0  0  0  0  0  0  0  0  0
    0.3272    1.0963   -2.9481 H   0  0  0  0  0  0  0  0  0  0  0  0
   -1.3023    1.7604   -2.8362 H   0  0  0  0  0  0  0  0  0  0  0  0
   -2.1906    1.8941   -0.6784 H   0  0  0  0  0  0  0  0  0  0  0  0
   -2.8644    0.7207    2.4932 H   0  0  0  0  0  0  0  0  0  0  0  0
   -5.1504   -3.6473    3.6804 H   0  0  0  0  0  0  0  0  0  0  0  0
   -5.7371   -1.1192    3.5327 H   0  0  0  0  0  0  0  0  0  0  0  0
    0.3193   -2.1177    0.8024 H   0  0  0  0  0  0  0  0  0  0  0  0
    0.5891   -1.4460   -2.7307 H   0  0  0  0  0  0  0  0  0  0  0  0
    3.3496    0.4593   -3.3032 H   0  0  0  0  0  0  0  0  0  0  0  0
    3.9996    2.8286   -3.0060 H   0  0  0  0  0  0  0  0  0  0  0  0
    3.2442    2.5200    1.2256 H   0  0  0  0  0  0  0  0  0  0  0  0
    2.5973    0.1497    0.9457 H   0  0  0  0  0  0  0  0  0  0  0  0
  1  2  1  0
  2  3  2  0
  3  4  1  0
  4  5  1  0
  4  6  2  0
  6  7  1  0
  7  8  1  0
  8  9  1  0
  9 10  2  0
 10 11  1  0
 11 12  1  0
  6 13  1  0
 13 14  2  0
 14 15  1  0
 15 16  1  0
 16 17  2  0
 16 18  2  0
 16 19  1  0
 19 20  2  0
 20 21  1  0
 21 22  2  0
 22 23  1  0
 22 24  1  0
 24 25  2  0
 14  2  1  0
 25 19  1  0
 12  8  2  0
  1 26  1  0
  1 27  1  0
  1 28  1  0
  3 29  1  0
  5 30  1  0
 10 31  1  0
 11 32  1  0
 13 33  1  0
 15 34  1  0
 20 35  1  0
 21 36  1  0
 24 37  1  0
 25 38  1  0
M  END
$$$$
