
     RDKit          3D

 60 64  0  0  0  0  0  0  0  0999 V2000
   -0.4011   -3.0982    0.8722 C   0  0  0  0  0  0  0  0  0  0  0  0
   -1.3688   -2.0211    0.6869 N   0  0  0  0  0  0  0  0  0  0  0  0
   -2.6854   -2.2875    1.0690 C   0  0  0  0  0  0  0  0  0  0  0  0
   -3.0158   -3.3673    1.5691 O   0  0  0  0  0  0  0  0  0  0  0  0
   -3.7411   -1.2534    0.8155 C   0  0  0  0  0  0  0  0  0  0  0  0
   -4.9980   -1.6985    0.6262 C   0  0  0  0  0  0  0  0  0  0  0  0
   -6.1797   -0.8623    0.3960 C   0  0  0  0  0  0  0  0  0  0  0  0
   -6.9915   -0.4873    1.4703 C   0  0  0  0  0  0  0  0  0  0  0  0
   -8.1132    0.3181    1.2565 C   0  0  0  0  0  0  0  0  0  0  0  0
   -8.4427    0.7534   -0.0362 C   0  0  0  0  0  0  0  0  0  0  0  0
   -9.6390    1.6424   -0.2719 C   0  0  0  0  0  0  0  0  0  0  0  0
  -10.3020    1.3443   -1.4244 F   0  0  0  0  0  0  0  0  0  0  0  0
   -9.2969    2.9568   -0.3674 F   0  0  0  0  0  0  0  0  0  0  0  0
  -10.5704    1.5697    0.7199 F   0  0  0  0  0  0  0  0  0  0  0  0
   -7.6189    0.3767   -1.1086 C   0  0  0  0  0  0  0  0  0  0  0  0
   -6.4967   -0.4278   -0.8943 C   0  0  0  0  0  0  0  0  0  0  0  0
   -3.3156    0.4093    0.8806 S   0  0  0  0  0  0  0  0  0  0  0  0
   -1.7581    0.3350    0.0394 C   0  0  0  0  0  0  0  0  0  0  0  0
   -1.3304    1.5109   -0.6025 C   0  0  0  0  0  0  0  0  0  0  0  0
   -0.0922    1.5671   -1.2362 C   0  0  0  0  0  0  0  0  0  0  0  0
    0.7357    0.4494   -1.2075 C   0  0  0  0  0  0  0  0  0  0  0  0
    2.0446    0.5077   -1.8989 C   0  0  0  0  0  0  0  0  0  0  0  0
    2.0714    0.9722   -3.0354 O   0  0  0  0  0  0  0  0  0  0  0  0
    3.1679    0.0074   -1.2394 N   0  0  0  0  0  0  0  0  0  0  0  0
    4.4367    0.0154   -1.9825 C   0  0  0  0  0  0  0  0  0  0  0  0
    5.2291    1.3126   -1.7129 C   0  0  0  0  0  0  0  0  0  0  0  0
    5.4034    1.5697   -0.2579 N   0  0  0  0  0  0  0  0  0  0  0  0
    6.4656    0.8689    0.3362 C   0  0  0  0  0  0  0  0  0  0  0  0
    6.9009    1.2267    1.6145 C   0  0  0  0  0  0  0  0  0  0  0  0
    7.9609    0.5445    2.2106 C   0  0  0  0  0  0  0  0  0  0  0  0
    8.5788   -0.4818    1.5156 C   0  0  0  0  0  0  0  0  0  0  0  0
    8.1096   -0.7717    0.2491 C   0  0  0  0  0  0  0  0  0  0  0  0
    7.0813   -0.1226   -0.3432 N   0  0  0  0  0  0  0  0  0  0  0  0
    4.1286    1.5044    0.4943 C   0  0  0  0  0  0  0  0  0  0  0  0
    3.3653    0.1888    0.2088 C   0  0  0  0  0  0  0  0  0  0  0  0
    0.3076   -0.7343   -0.5892 C   0  0  0  0  0  0  0  0  0  0  0  0
   -0.9457   -0.8109    0.0458 C   0  0  0  0  0  0  0  0  0  0  0  0
   -0.1871   -3.5580   -0.0978 H   0  0  0  0  0  0  0  0  0  0  0  0
    0.5153   -2.7029    1.3225 H   0  0  0  0  0  0  0  0  0  0  0  0
   -0.7756   -3.8793    1.5399 H   0  0  0  0  0  0  0  0  0  0  0  0
   -5.2101   -2.7667    0.6346 H   0  0  0  0  0  0  0  0  0  0  0  0
   -6.7528   -0.8139    2.4805 H   0  0  0  0  0  0  0  0  0  0  0  0
   -8.7303    0.6055    2.1069 H   0  0  0  0  0  0  0  0  0  0  0  0
   -7.8496    0.7105   -2.1193 H   0  0  0  0  0  0  0  0  0  0  0  0
   -5.8716   -0.7079   -1.7396 H   0  0  0  0  0  0  0  0  0  0  0  0
   -1.9652    2.3958   -0.6125 H   0  0  0  0  0  0  0  0  0  0  0  0
    0.2233    2.4750   -1.7456 H   0  0  0  0  0  0  0  0  0  0  0  0
    4.9975   -0.8696   -1.6644 H   0  0  0  0  0  0  0  0  0  0  0  0
    4.2494   -0.0906   -3.0565 H   0  0  0  0  0  0  0  0  0  0  0  0
    4.6692    2.1609   -2.1273 H   0  0  0  0  0  0  0  0  0  0  0  0
    6.1908    1.3014   -2.2403 H   0  0  0  0  0  0  0  0  0  0  0  0
    6.4399    2.0570    2.1386 H   0  0  0  0  0  0  0  0  0  0  0  0
    8.3047    0.8260    3.2014 H   0  0  0  0  0  0  0  0  0  0  0  0
    9.4099   -1.0316    1.9412 H   0  0  0  0  0  0  0  0  0  0  0  0
    8.5621   -1.5579   -0.3483 H   0  0  0  0  0  0  0  0  0  0  0  0
    4.2698    1.6249    1.5739 H   0  0  0  0  0  0  0  0  0  0  0  0
    3.5096    2.3516    0.1719 H   0  0  0  0  0  0  0  0  0  0  0  0
    2.4143    0.2125    0.7445 H   0  0  0  0  0  0  0  0  0  0  0  0
    3.9337   -0.6749    0.5725 H   0  0  0  0  0  0  0  0  0  0  0  0
    0.9686   -1.5947   -0.6456 H   0  0  0  0  0  0  0  0  0  0  0  0
  1  2  1  0
  2  3  1  0
  3  4  2  0
  3  5  1  0
  5  6  2  3
  6  7  1  0
  7  8  2  0
  8  9  1  0
  9 10  2  0
 10 11  1  0
 11 12  1  0
 11 13  1  0
 11 14  1  0
 10 15  1  0
 15 16  2  0
  5 17  1  0
 17 18  1  0
 18 19  2  0
 19 20  1  0
 20 21  2  0
 21 22  1  0
 22 23  2  0
 22 24  1  0
 24 25  1  0
 25 26  1  0
 26 27  1  0
 27 28  1  0
 28 29  2  0
 29 30  1  0
 30 31  2  0
 31 32  1  0
 32 33  2  0
 27 34  1  0
 34 35  1  0
 21 36  1  0
 36 37  2  0
 37  2  1  0
 16  7  1  0
 37 18  1  0
 35 24  1  0
 33 28  1  0
  1 38  1  0
  1 39  1  0
  1 40  1  0
  6 41  1  0
  8 42  1  0
  9 43  1  0
 15 44  1  0
 16 45  1  0
 19 46  1  0
 20 47  1  0
 25 48  1  0
 25 49  1  0
 26 50  1  0
 26 51  1  0
 29 52  1  0
 30 53  1  0
 31 54  1  0
 32 55  1  0
 34 56  1  0
 34 57  1  0
 35 58  1  0
 35 59  1  0
 36 60  1  0
M  END
$$$$
