
     RDKit          3D

 43 45  0  0  0  0  0  0  0  0999 V2000
   -2.4531   -1.3041    1.4976 C   0  0  0  0  0  0  0  0  0  0  0  0
   -3.0548   -0.4859    0.3936 C   0  0  0  0  0  0  0  0  0  0  0  0
   -3.6941   -0.9512   -0.5410 O   0  0  0  0  0  0  0  0  0  0  0  0
   -2.7798    0.8561    0.6340 O   0  0  0  0  0  0  0  0  0  0  0  0
   -3.1602    1.6988   -0.4186 C   0  0  0  0  0  0  0  0  0  0  0  0
   -4.3102    2.4693   -0.2387 C   0  0  0  0  0  0  0  0  0  0  0  0
   -4.7140    3.3399   -1.2488 C   0  0  0  0  0  0  0  0  0  0  0  0
   -3.9655    3.4416   -2.4226 C   0  0  0  0  0  0  0  0  0  0  0  0
   -2.8041    2.6794   -2.5885 C   0  0  0  0  0  0  0  0  0  0  0  0
   -2.3754    1.8088   -1.5797 C   0  0  0  0  0  0  0  0  0  0  0  0
   -1.1543    1.0217   -1.7973 C   0  0  0  0  0  0  0  0  0  0  0  0
   -0.1232    1.0508   -0.9381 C   0  0  0  0  0  0  0  0  0  0  0  0
    1.0769    0.2153   -1.0226 C   0  0  0  0  0  0  0  0  0  0  0  0
    1.6082   -0.2458   -2.2172 C   0  0  0  0  0  0  0  0  0  0  0  0
    2.7482   -1.0428   -2.1742 C   0  0  0  0  0  0  0  0  0  0  0  0
    3.3324   -1.3612   -0.9431 C   0  0  0  0  0  0  0  0  0  0  0  0
    4.4851   -2.1671   -0.8621 C   0  0  0  0  0  0  0  0  0  0  0  0
    5.0614   -2.4655    0.3730 C   0  0  0  0  0  0  0  0  0  0  0  0
    4.4884   -1.9670    1.5358 C   0  0  0  0  0  0  0  0  0  0  0  0
    3.3341   -1.1850    1.4424 C   0  0  0  0  0  0  0  0  0  0  0  0
    2.8068   -0.6709    2.6375 O   0  0  0  0  0  0  0  0  0  0  0  0
    1.6361   -1.3130    3.0178 C   0  0  0  0  0  0  0  0  0  0  0  0
    1.0162   -0.5506    4.1508 C   0  0  0  0  0  0  0  0  0  0  0  0
    1.1795   -2.3537    2.5616 O   0  0  0  0  0  0  0  0  0  0  0  0
    2.7358   -0.8453    0.2242 C   0  0  0  0  0  0  0  0  0  0  0  0
    1.6390   -0.0551    0.1771 N   0  0  0  0  0  0  0  0  0  0  0  0
   -1.3773   -1.1191    1.5511 H   0  0  0  0  0  0  0  0  0  0  0  0
   -2.6105   -2.3660    1.2885 H   0  0  0  0  0  0  0  0  0  0  0  0
   -2.9343   -1.0567    2.4469 H   0  0  0  0  0  0  0  0  0  0  0  0
   -4.8911    2.3843    0.6745 H   0  0  0  0  0  0  0  0  0  0  0  0
   -5.6140    3.9365   -1.1246 H   0  0  0  0  0  0  0  0  0  0  0  0
   -4.2856    4.1173   -3.2121 H   0  0  0  0  0  0  0  0  0  0  0  0
   -2.2338    2.7782   -3.5091 H   0  0  0  0  0  0  0  0  0  0  0  0
   -1.1643    0.3815   -2.6745 H   0  0  0  0  0  0  0  0  0  0  0  0
   -0.1609    1.6821   -0.0529 H   0  0  0  0  0  0  0  0  0  0  0  0
    1.1581    0.0026   -3.1716 H   0  0  0  0  0  0  0  0  0  0  0  0
    3.1728   -1.4134   -3.1037 H   0  0  0  0  0  0  0  0  0  0  0  0
    4.9419   -2.5650   -1.7660 H   0  0  0  0  0  0  0  0  0  0  0  0
    5.9530   -3.0851    0.4245 H   0  0  0  0  0  0  0  0  0  0  0  0
    4.9257   -2.1879    2.5045 H   0  0  0  0  0  0  0  0  0  0  0  0
    0.0428   -0.9880    4.3909 H   0  0  0  0  0  0  0  0  0  0  0  0
    1.6589   -0.6092    5.0324 H   0  0  0  0  0  0  0  0  0  0  0  0
    0.8594    0.4903    3.8559 H   0  0  0  0  0  0  0  0  0  0  0  0
  1  2  1  0
  2  3  2  0
  2  4  1  0
  4  5  1  0
  5  6  2  0
  6  7  1  0
  7  8  2  0
  8  9  1  0
  9 10  2  0
 10 11  1  0
 11 12  2  0
 12 13  1  0
 13 14  2  0
 14 15  1  0
 15 16  2  0
 16 17  1  0
 17 18  2  0
 18 19  1  0
 19 20  2  0
 20 21  1  0
 21 22  1  0
 22 23  1  0
 22 24  2  0
 20 25  1  0
 25 26  2  0
 10  5  1  0
 26 13  1  0
 25 16  1  0
  1 27  1  0
  1 28  1  0
  1 29  1  0
  6 30  1  0
  7 31  1  0
  8 32  1  0
  9 33  1  0
 11 34  1  0
 12 35  1  0
 14 36  1  0
 15 37  1  0
 17 38  1  0
 18 39  1  0
 19 40  1  0
 23 41  1  0
 23 42  1  0
 23 43  1  0
M  END
$$$$
