
     RDKit          3D

 59 63  0  0  0  0  0  0  0  0999 V2000
   -5.1627   -3.7076    1.0429 C   0  0  0  0  0  0  0  0  0  0  0  0
   -4.7408   -2.7275   -0.0444 C   0  0  0  0  0  0  0  0  0  0  0  0
   -3.3535   -2.1164    0.1995 C   0  0  0  0  0  0  0  0  0  0  0  0
   -3.3904   -1.2514    1.3765 N   0  0  0  0  0  0  0  0  0  0  0  0
   -2.1534   -0.6390    1.6110 C   0  0  0  0  0  0  0  0  0  0  0  0
   -1.8515   -0.4602    2.9036 N   0  0  0  0  0  0  0  0  0  0  0  0
   -0.7000    0.1668    3.1460 C   0  0  0  0  0  0  0  0  0  0  0  0
    0.1830    0.5749    2.2285 N   0  0  0  0  0  0  0  0  0  0  0  0
   -0.1206    0.3596    0.9295 C   0  0  0  0  0  0  0  0  0  0  0  0
    0.9085    0.6087   -0.0127 N   0  0  0  0  0  0  0  0  0  0  0  0
    1.8397    1.6969    0.4026 C   0  0  0  0  0  0  0  0  0  0  0  0
    3.1715    1.1624    0.9678 C   0  0  0  0  0  0  0  0  0  0  0  0
    3.8729    0.3647   -0.0608 N   0  0  0  0  0  0  0  0  0  0  0  0
    5.1065   -0.1555    0.3258 C   0  0  0  0  0  0  0  0  0  0  0  0
    5.9416   -0.7776   -0.6050 C   0  0  0  0  0  0  0  0  0  0  0  0
    7.1822   -1.2789   -0.2119 C   0  0  0  0  0  0  0  0  0  0  0  0
    7.5786   -1.1421    1.1079 C   0  0  0  0  0  0  0  0  0  0  0  0
    6.7145   -0.4994    1.9719 C   0  0  0  0  0  0  0  0  0  0  0  0
    5.5087   -0.0075    1.6074 N   0  0  0  0  0  0  0  0  0  0  0  0
    3.0062   -0.4601   -0.9262 C   0  0  0  0  0  0  0  0  0  0  0  0
    1.6056   -0.6779   -0.3073 C   0  0  0  0  0  0  0  0  0  0  0  0
   -1.3415   -0.2209    0.5480 C   0  0  0  0  0  0  0  0  0  0  0  0
   -1.8059   -0.4350   -0.8013 N   0  0  0  0  0  0  0  0  0  0  0  0
   -1.4299    0.4721   -1.8845 C   0  0  0  0  0  0  0  0  0  0  0  0
   -2.1908    1.7835   -1.8364 C   0  0  0  0  0  0  0  0  0  0  0  0
   -3.4860    1.8750   -2.3715 C   0  0  0  0  0  0  0  0  0  0  0  0
   -4.2000    3.0741   -2.3108 C   0  0  0  0  0  0  0  0  0  0  0  0
   -3.6220    4.1911   -1.7118 C   0  0  0  0  0  0  0  0  0  0  0  0
   -4.5868    5.8143   -1.6255 Br  0  0  0  0  0  0  0  0  0  0  0  0
   -2.3385    4.1196   -1.1744 C   0  0  0  0  0  0  0  0  0  0  0  0
   -1.6265    2.9191   -1.2366 C   0  0  0  0  0  0  0  0  0  0  0  0
   -2.8832   -1.3058   -1.0341 C   0  0  0  0  0  0  0  0  0  0  0  0
   -3.3722   -1.4786   -2.1531 O   0  0  0  0  0  0  0  0  0  0  0  0
   -4.4257   -4.5090    1.1555 H   0  0  0  0  0  0  0  0  0  0  0  0
   -6.1226   -4.1657    0.7831 H   0  0  0  0  0  0  0  0  0  0  0  0
   -5.2849   -3.2106    2.0097 H   0  0  0  0  0  0  0  0  0  0  0  0
   -4.7445   -3.2656   -1.0001 H   0  0  0  0  0  0  0  0  0  0  0  0
   -5.4950   -1.9353   -0.1278 H   0  0  0  0  0  0  0  0  0  0  0  0
   -2.6282   -2.9287    0.3470 H   0  0  0  0  0  0  0  0  0  0  0  0
   -3.7051   -1.6593    2.2512 H   0  0  0  0  0  0  0  0  0  0  0  0
   -0.4478    0.3496    4.1846 H   0  0  0  0  0  0  0  0  0  0  0  0
    1.3754    2.4020    1.1031 H   0  0  0  0  0  0  0  0  0  0  0  0
    2.0567    2.2839   -0.4998 H   0  0  0  0  0  0  0  0  0  0  0  0
    2.9771    0.5575    1.8628 H   0  0  0  0  0  0  0  0  0  0  0  0
    3.7918    2.0195    1.2575 H   0  0  0  0  0  0  0  0  0  0  0  0
    5.6478   -0.8513   -1.6465 H   0  0  0  0  0  0  0  0  0  0  0  0
    7.8331   -1.7588   -0.9364 H   0  0  0  0  0  0  0  0  0  0  0  0
    8.5367   -1.5141    1.4521 H   0  0  0  0  0  0  0  0  0  0  0  0
    6.9736   -0.3524    3.0163 H   0  0  0  0  0  0  0  0  0  0  0  0
    2.9012    0.0540   -1.8893 H   0  0  0  0  0  0  0  0  0  0  0  0
    3.4364   -1.4482   -1.1289 H   0  0  0  0  0  0  0  0  0  0  0  0
    1.7265   -1.2748    0.6082 H   0  0  0  0  0  0  0  0  0  0  0  0
    1.0026   -1.2674   -1.0078 H   0  0  0  0  0  0  0  0  0  0  0  0
   -0.3561    0.6495   -1.9297 H   0  0  0  0  0  0  0  0  0  0  0  0
   -1.6480   -0.0082   -2.8477 H   0  0  0  0  0  0  0  0  0  0  0  0
   -3.9500    1.0069   -2.8377 H   0  0  0  0  0  0  0  0  0  0  0  0
   -5.2013    3.1220   -2.7284 H   0  0  0  0  0  0  0  0  0  0  0  0
   -1.8848    4.9872   -0.7023 H   0  0  0  0  0  0  0  0  0  0  0  0
   -0.6279    2.8759   -0.8094 H   0  0  0  0  0  0  0  0  0  0  0  0
  1  2  1  0
  2  3  1  0
  3  4  1  0
  4  5  1  0
  5  6  2  0
  6  7  1  0
  7  8  2  0
  8  9  1  0
  9 10  1  0
 10 11  1  0
 11 12  1  0
 12 13  1  0
 13 14  1  0
 14 15  2  0
 15 16  1  0
 16 17  2  0
 17 18  1  0
 18 19  2  0
 13 20  1  0
 20 21  1  0
  9 22  2  0
 22 23  1  0
 23 24  1  0
 24 25  1  0
 25 26  2  0
 26 27  1  0
 27 28  2  0
 28 29  1  0
 28 30  1  0
 30 31  2  0
 23 32  1  0
 32 33  2  0
 32  3  1  0
 22  5  1  0
 31 25  1  0
 21 10  1  0
 19 14  1  0
  1 34  1  0
  1 35  1  0
  1 36  1  0
  2 37  1  0
  2 38  1  0
  3 39  1  0
  4 40  1  0
  7 41  1  0
 11 42  1  0
 11 43  1  0
 12 44  1  0
 12 45  1  0
 15 46  1  0
 16 47  1  0
 17 48  1  0
 18 49  1  0
 20 50  1  0
 20 51  1  0
 21 52  1  0
 21 53  1  0
 24 54  1  0
 24 55  1  0
 26 56  1  0
 27 57  1  0
 30 58  1  0
 31 59  1  0
M  END
$$$$
