
     RDKit          3D

 37 38  0  0  0  0  0  0  0  0999 V2000
    5.7885    0.7851    0.8139 C   0  0  0  0  0  0  0  0  0  0  0  0
    4.5171    1.3818    0.2378 C   0  0  0  0  0  0  0  0  0  0  0  0
    3.4418    0.4117    0.1675 N   0  0  0  0  0  0  0  0  0  0  0  0
    2.4568    0.2164    1.0901 C   0  0  0  0  0  0  0  0  0  0  0  0
    1.6657   -0.8058    0.6040 C   0  0  0  0  0  0  0  0  0  0  0  0
    0.4570   -1.3998    1.2256 C   0  0  0  0  0  0  0  0  0  0  0  0
   -0.6987   -0.7042    0.7104 N   0  0  0  0  0  0  0  0  0  0  0  0
   -1.9646   -1.1456    1.0197 C   0  0  0  0  0  0  0  0  0  0  0  0
   -2.1898   -2.1588    1.6693 O   0  0  0  0  0  0  0  0  0  0  0  0
   -3.0903   -0.2963    0.5467 C   0  0  0  0  0  0  0  0  0  0  0  0
   -4.2707   -0.2726    1.3034 C   0  0  0  0  0  0  0  0  0  0  0  0
   -5.3563    0.5073    0.8984 C   0  0  0  0  0  0  0  0  0  0  0  0
   -5.2745    1.2599   -0.2734 C   0  0  0  0  0  0  0  0  0  0  0  0
   -4.1006    1.2207   -1.0403 C   0  0  0  0  0  0  0  0  0  0  0  0
   -4.0202    1.9992   -2.2835 N   0  0  0  0  0  4  0  0  0  0  0  0
   -2.9806    1.9079   -2.9521 O   0  0  0  0  0  0  0  0  0  0  0  0
   -4.9930    2.7038   -2.5868 O   0  0  0  0  0  1  0  0  0  0  0  0
   -3.0039    0.4441   -0.6386 C   0  0  0  0  0  0  0  0  0  0  0  0
    2.2681   -1.1535   -0.6376 C   0  0  0  0  0  0  0  0  0  0  0  0
    1.8296   -2.1919   -1.6036 C   0  0  0  0  0  0  0  0  0  0  0  0
    3.3453   -0.4025   -0.8960 N   0  0  0  0  0  0  0  0  0  0  0  0
    6.5786    1.5405    0.8533 H   0  0  0  0  0  0  0  0  0  0  0  0
    5.6227    0.4105    1.8291 H   0  0  0  0  0  0  0  0  0  0  0  0
    6.1456   -0.0514    0.2041 H   0  0  0  0  0  0  0  0  0  0  0  0
    4.6889    1.7625   -0.7749 H   0  0  0  0  0  0  0  0  0  0  0  0
    4.1712    2.2179    0.8562 H   0  0  0  0  0  0  0  0  0  0  0  0
    2.4031    0.7998    1.9983 H   0  0  0  0  0  0  0  0  0  0  0  0
    0.4713   -1.2840    2.3154 H   0  0  0  0  0  0  0  0  0  0  0  0
    0.3675   -2.4680    0.9999 H   0  0  0  0  0  0  0  0  0  0  0  0
   -0.5621    0.2469    0.3975 H   0  0  0  0  0  0  0  0  0  0  0  0
   -4.3443   -0.8641    2.2154 H   0  0  0  0  0  0  0  0  0  0  0  0
   -6.2660    0.5229    1.4956 H   0  0  0  0  0  0  0  0  0  0  0  0
   -6.1305    1.8598   -0.5781 H   0  0  0  0  0  0  0  0  0  0  0  0
   -2.1073    0.3929   -1.2534 H   0  0  0  0  0  0  0  0  0  0  0  0
    2.4797   -2.2255   -2.4839 H   0  0  0  0  0  0  0  0  0  0  0  0
    0.8090   -1.9876   -1.9427 H   0  0  0  0  0  0  0  0  0  0  0  0
    1.8457   -3.1801   -1.1337 H   0  0  0  0  0  0  0  0  0  0  0  0
  1  2  1  0
  2  3  1  0
  3  4  1  0
  4  5  2  0
  5  6  1  0
  6  7  1  0
  7  8  1  0
  8  9  2  0
  8 10  1  0
 10 11  2  0
 11 12  1  0
 12 13  2  0
 13 14  1  0
 14 15  1  0
 15 16  2  0
 15 17  1  0
 14 18  2  0
  5 19  1  0
 19 20  1  0
 19 21  2  0
 21  3  1  0
 18 10  1  0
  1 22  1  0
  1 23  1  0
  1 24  1  0
  2 25  1  0
  2 26  1  0
  4 27  1  0
  6 28  1  0
  6 29  1  0
  7 30  1  0
 11 31  1  0
 12 32  1  0
 13 33  1  0
 18 34  1  0
 20 35  1  0
 20 36  1  0
 20 37  1  0
M  CHG  2  15   1  17  -1
M  END
$$$$
