
     RDKit          3D

 27 27  0  0  0  0  0  0  0  0999 V2000
   -5.6433   -0.9143   -1.1312 C   0  0  0  0  0  0  0  0  0  0  0  0
   -4.7405   -0.8304   -0.1448 C   0  0  0  0  0  0  0  0  0  0  0  0
   -4.2082    0.4496    0.4143 C   0  0  0  0  0  0  0  0  0  0  0  0
   -2.8245    0.5423    0.0403 N   0  0  0  0  0  0  0  0  0  0  0  0
   -1.7947    0.2415    0.8993 C   0  0  0  0  0  0  0  0  0  0  0  0
   -1.8977   -0.0601    2.0801 O   0  0  0  0  0  0  0  0  0  0  0  0
   -0.4005    0.2999    0.2423 C   0  0  0  0  0  0  0  0  0  0  0  0
   -0.3118    0.5429   -0.9537 O   0  0  0  0  0  0  0  0  0  0  0  0
    0.6093    0.0375    1.1524 N   0  0  0  0  0  0  0  0  0  0  0  0
    1.9427   -0.1377    0.8819 N   0  0  0  0  0  0  0  0  0  0  0  0
    2.4580    0.4209   -0.1683 C   0  0  0  0  0  0  0  0  0  0  0  0
    3.8453    0.2200   -0.4847 C   0  0  0  0  0  0  0  0  0  0  0  0
    4.8404   -0.5225    0.1214 C   0  0  0  0  0  0  0  0  0  0  0  0
    6.0140   -0.3322   -0.6468 C   0  0  0  0  0  0  0  0  0  0  0  0
    5.6651    0.5134   -1.6728 C   0  0  0  0  0  0  0  0  0  0  0  0
    4.3538    0.8547   -1.5838 O   0  0  0  0  0  0  0  0  0  0  0  0
   -6.0526   -0.0305   -1.6108 H   0  0  0  0  0  0  0  0  0  0  0  0
   -5.9922   -1.8812   -1.4818 H   0  0  0  0  0  0  0  0  0  0  0  0
   -4.3686   -1.7476    0.3080 H   0  0  0  0  0  0  0  0  0  0  0  0
   -4.7216    1.3220   -0.0022 H   0  0  0  0  0  0  0  0  0  0  0  0
   -4.3206    0.4642    1.5027 H   0  0  0  0  0  0  0  0  0  0  0  0
   -2.5794    0.6902   -0.9349 H   0  0  0  0  0  0  0  0  0  0  0  0
    0.3074   -0.2894    2.0716 H   0  0  0  0  0  0  0  0  0  0  0  0
    1.9023    1.0867   -0.8471 H   0  0  0  0  0  0  0  0  0  0  0  0
    4.7213   -1.1260    1.0111 H   0  0  0  0  0  0  0  0  0  0  0  0
    6.9923   -0.7584   -0.4748 H   0  0  0  0  0  0  0  0  0  0  0  0
    6.2045    0.9447   -2.5048 H   0  0  0  0  0  0  0  0  0  0  0  0
  1  2  2  0
  2  3  1  0
  3  4  1  0
  4  5  1  0
  5  6  2  0
  5  7  1  0
  7  8  2  0
  7  9  1  0
  9 10  1  0
 10 11  2  3
 11 12  1  0
 12 13  2  0
 13 14  1  0
 14 15  2  0
 15 16  1  0
 16 12  1  0
  1 17  1  0
  1 18  1  0
  2 19  1  0
  3 20  1  0
  3 21  1  0
  4 22  1  0
  9 23  1  0
 11 24  1  0
 13 25  1  0
 14 26  1  0
 15 27  1  0
M  END
$$$$
