
     RDKit          3D

 53 56  0  0  0  0  0  0  0  0999 V2000
   -8.2219   -1.7127    2.1709 C   0  0  0  0  0  0  0  0  0  0  0  0
   -7.0374   -1.0479    1.7474 O   0  0  0  0  0  0  0  0  0  0  0  0
   -7.0064   -0.6008    0.4549 C   0  0  0  0  0  0  0  0  0  0  0  0
   -8.0489   -0.6856   -0.4651 C   0  0  0  0  0  0  0  0  0  0  0  0
   -7.8843   -0.1797   -1.7576 C   0  0  0  0  0  0  0  0  0  0  0  0
   -6.6756    0.4074   -2.1331 C   0  0  0  0  0  0  0  0  0  0  0  0
   -5.6168    0.4879   -1.2196 C   0  0  0  0  0  0  0  0  0  0  0  0
   -4.3321    1.1043   -1.6692 C   0  0  0  0  0  0  0  0  0  0  0  0
   -4.3079    1.6938   -2.7496 O   0  0  0  0  0  0  0  0  0  0  0  0
   -3.1094    0.9669   -0.7630 C   0  0  0  0  0  0  0  0  0  0  0  0
   -1.9312    1.3794   -1.4452 O   0  0  0  0  0  0  0  0  0  0  0  0
   -0.7458    1.2532   -0.7765 C   0  0  0  0  0  0  0  0  0  0  0  0
   -0.5961    0.9570    0.5755 C   0  0  0  0  0  0  0  0  0  0  0  0
    0.6837    0.8820    1.1485 C   0  0  0  0  0  0  0  0  0  0  0  0
    1.8383    1.0945    0.3834 C   0  0  0  0  0  0  0  0  0  0  0  0
    3.2107    1.0170    0.9236 C   0  0  0  0  0  0  0  0  0  0  0  0
    3.3446    0.6912    2.3896 C   0  0  0  0  0  0  0  0  0  0  0  0
    4.2574    1.2295    0.0920 C   0  0  0  0  0  0  0  0  0  0  0  0
    5.7200    1.1735    0.4874 C   0  0  0  0  0  0  0  0  0  0  0  0
    6.3735   -0.1567    0.1736 C   0  0  0  0  0  0  0  0  0  0  0  0
    6.2980   -1.2277    1.0760 C   0  0  0  0  0  0  0  0  0  0  0  0
    6.8873   -2.4566    0.7706 C   0  0  0  0  0  0  0  0  0  0  0  0
    7.5580   -2.6309   -0.4362 C   0  0  0  0  0  0  0  0  0  0  0  0
    7.6382   -1.5770   -1.3411 C   0  0  0  0  0  0  0  0  0  0  0  0
    7.0482   -0.3482   -1.0392 C   0  0  0  0  0  0  0  0  0  0  0  0
    4.0475    1.6152   -1.3358 C   0  0  0  0  0  0  0  0  0  0  0  0
    4.9797    1.9400   -2.0679 O   0  0  0  0  0  0  0  0  0  0  0  0
    2.7491    1.6148   -1.8141 O   0  0  0  0  0  0  0  0  0  0  0  0
    1.6585    1.3850   -0.9647 C   0  0  0  0  0  0  0  0  0  0  0  0
    0.3931    1.4722   -1.5488 C   0  0  0  0  0  0  0  0  0  0  0  0
   -5.7942   -0.0114    0.0752 C   0  0  0  0  0  0  0  0  0  0  0  0
   -8.0800   -2.0193    3.2126 H   0  0  0  0  0  0  0  0  0  0  0  0
   -8.3988   -2.6181    1.5788 H   0  0  0  0  0  0  0  0  0  0  0  0
   -9.0856   -1.0406    2.1393 H   0  0  0  0  0  0  0  0  0  0  0  0
   -9.0038   -1.1334   -0.2113 H   0  0  0  0  0  0  0  0  0  0  0  0
   -8.6983   -0.2436   -2.4752 H   0  0  0  0  0  0  0  0  0  0  0  0
   -6.5620    0.7956   -3.1424 H   0  0  0  0  0  0  0  0  0  0  0  0
   -3.2785    1.6128    0.1026 H   0  0  0  0  0  0  0  0  0  0  0  0
   -3.0103   -0.0885   -0.4778 H   0  0  0  0  0  0  0  0  0  0  0  0
   -1.4539    0.7794    1.2220 H   0  0  0  0  0  0  0  0  0  0  0  0
    0.7427    0.6499    2.2068 H   0  0  0  0  0  0  0  0  0  0  0  0
    4.3742    0.6269    2.7384 H   0  0  0  0  0  0  0  0  0  0  0  0
    2.8832   -0.2759    2.6193 H   0  0  0  0  0  0  0  0  0  0  0  0
    2.8651    1.4671    2.9974 H   0  0  0  0  0  0  0  0  0  0  0  0
    6.2831    1.9808    0.0018 H   0  0  0  0  0  0  0  0  0  0  0  0
    5.8585    1.3910    1.5517 H   0  0  0  0  0  0  0  0  0  0  0  0
    5.7845   -1.1155    2.0247 H   0  0  0  0  0  0  0  0  0  0  0  0
    6.8254   -3.2788    1.4791 H   0  0  0  0  0  0  0  0  0  0  0  0
    8.0157   -3.5876   -0.6748 H   0  0  0  0  0  0  0  0  0  0  0  0
    8.1564   -1.7089   -2.2897 H   0  0  0  0  0  0  0  0  0  0  0  0
    7.1206    0.4624   -1.7600 H   0  0  0  0  0  0  0  0  0  0  0  0
    0.2940    1.7041   -2.6059 H   0  0  0  0  0  0  0  0  0  0  0  0
   -5.0104    0.0475    0.8210 H   0  0  0  0  0  0  0  0  0  0  0  0
  1  2  1  0
  2  3  1  0
  3  4  2  0
  4  5  1  0
  5  6  2  0
  6  7  1  0
  7  8  1  0
  8  9  2  0
  8 10  1  0
 10 11  1  0
 11 12  1  0
 12 13  2  0
 13 14  1  0
 14 15  2  0
 15 16  1  0
 16 17  1  0
 16 18  2  0
 18 19  1  0
 19 20  1  0
 20 21  2  0
 21 22  1  0
 22 23  2  0
 23 24  1  0
 24 25  2  0
 18 26  1  0
 26 27  2  0
 26 28  1  0
 28 29  1  0
 29 30  2  0
  7 31  2  0
 31  3  1  0
 30 12  1  0
 29 15  1  0
 25 20  1  0
  1 32  1  0
  1 33  1  0
  1 34  1  0
  4 35  1  0
  5 36  1  0
  6 37  1  0
 10 38  1  0
 10 39  1  0
 13 40  1  0
 14 41  1  0
 17 42  1  0
 17 43  1  0
 17 44  1  0
 19 45  1  0
 19 46  1  0
 21 47  1  0
 22 48  1  0
 23 49  1  0
 24 50  1  0
 25 51  1  0
 30 52  1  0
 31 53  1  0
M  END
$$$$
