
     RDKit          3D

 37 38  0  0  0  0  0  0  0  0999 V2000
   -5.2328    1.0704   -2.0048 C   0  0  0  0  0  0  0  0  0  0  0  0
   -4.7363    0.2402   -0.9653 O   0  0  0  0  0  0  0  0  0  0  0  0
   -3.4616    0.4732   -0.5126 C   0  0  0  0  0  0  0  0  0  0  0  0
   -2.6197    1.4767   -1.0051 C   0  0  0  0  0  0  0  0  0  0  0  0
   -1.3324    1.6397   -0.4846 C   0  0  0  0  0  0  0  0  0  0  0  0
   -0.8751    0.7924    0.5288 C   0  0  0  0  0  0  0  0  0  0  0  0
    0.4881    0.9271    1.1128 C   0  0  0  0  0  0  0  0  0  0  0  0
    0.7004    0.5673    2.2651 O   0  0  0  0  0  0  0  0  0  0  0  0
    1.4637    1.4301    0.2783 N   0  0  0  0  0  0  0  0  0  0  0  0
    2.8474    1.4883    0.6926 C   0  0  0  0  0  0  0  0  0  0  0  0
    3.6038    0.2774    0.2074 C   0  0  0  0  0  0  0  0  0  0  0  0
    3.5649   -0.9191    0.9366 C   0  0  0  0  0  0  0  0  0  0  0  0
    4.2427   -2.0519    0.4801 C   0  0  0  0  0  0  0  0  0  0  0  0
    4.9635   -2.0052   -0.7156 C   0  0  0  0  0  0  0  0  0  0  0  0
    5.7766   -3.4426   -1.2228 Cl  0  0  0  0  0  0  0  0  0  0  0  0
    5.0022   -0.8194   -1.4564 C   0  0  0  0  0  0  0  0  0  0  0  0
    5.8648   -0.6856   -2.9481 Cl  0  0  0  0  0  0  0  0  0  0  0  0
    4.3224    0.3150   -0.9967 C   0  0  0  0  0  0  0  0  0  0  0  0
   -1.7193   -0.2024    1.0390 C   0  0  0  0  0  0  0  0  0  0  0  0
   -3.0090   -0.3701    0.5236 C   0  0  0  0  0  0  0  0  0  0  0  0
   -3.8973   -1.3243    0.9553 O   0  0  0  0  0  0  0  0  0  0  0  0
   -3.5116   -2.1332    2.0581 C   0  0  0  0  0  0  0  0  0  0  0  0
   -5.2868    2.1157   -1.6836 H   0  0  0  0  0  0  0  0  0  0  0  0
   -6.2502    0.7419   -2.2383 H   0  0  0  0  0  0  0  0  0  0  0  0
   -4.6330    0.9657   -2.9148 H   0  0  0  0  0  0  0  0  0  0  0  0
   -2.9401    2.1552   -1.7890 H   0  0  0  0  0  0  0  0  0  0  0  0
   -0.7144    2.4488   -0.8631 H   0  0  0  0  0  0  0  0  0  0  0  0
    1.2786    1.4826   -0.7131 H   0  0  0  0  0  0  0  0  0  0  0  0
    2.9237    1.5742    1.7825 H   0  0  0  0  0  0  0  0  0  0  0  0
    3.2765    2.4014    0.2654 H   0  0  0  0  0  0  0  0  0  0  0  0
    2.9972   -0.9733    1.8660 H   0  0  0  0  0  0  0  0  0  0  0  0
    4.1999   -2.9694    1.0625 H   0  0  0  0  0  0  0  0  0  0  0  0
    4.3550    1.2326   -1.5806 H   0  0  0  0  0  0  0  0  0  0  0  0
   -1.3414   -0.8364    1.8355 H   0  0  0  0  0  0  0  0  0  0  0  0
   -3.3132   -1.5244    2.9464 H   0  0  0  0  0  0  0  0  0  0  0  0
   -2.6497   -2.7589    1.8047 H   0  0  0  0  0  0  0  0  0  0  0  0
   -4.3476   -2.7994    2.2922 H   0  0  0  0  0  0  0  0  0  0  0  0
  1  2  1  0
  2  3  1  0
  3  4  2  0
  4  5  1  0
  5  6  2  0
  6  7  1  0
  7  8  2  0
  7  9  1  0
  9 10  1  0
 10 11  1  0
 11 12  2  0
 12 13  1  0
 13 14  2  0
 14 15  1  0
 14 16  1  0
 16 17  1  0
 16 18  2  0
  6 19  1  0
 19 20  2  0
 20 21  1  0
 21 22  1  0
 20  3  1  0
 18 11  1  0
  1 23  1  0
  1 24  1  0
  1 25  1  0
  4 26  1  0
  5 27  1  0
  9 28  1  0
 10 29  1  0
 10 30  1  0
 12 31  1  0
 13 32  1  0
 18 33  1  0
 19 34  1  0
 22 35  1  0
 22 36  1  0
 22 37  1  0
M  END
$$$$
