
     RDKit          3D

 42 46  0  0  0  0  0  0  0  0999 V2000
    5.1114    2.2190    0.0167 C   0  0  0  0  0  0  0  0  0  0  0  0
    5.2602    0.9217   -0.4696 C   0  0  0  0  0  0  0  0  0  0  0  0
    4.1657    0.0453   -0.5145 C   0  0  0  0  0  0  0  0  0  0  0  0
    4.3052   -1.2585   -1.0020 C   0  0  0  0  0  0  0  0  0  0  0  0
    3.2104   -2.1223   -1.0428 C   0  0  0  0  0  0  0  0  0  0  0  0
    1.9495   -1.7047   -0.5971 C   0  0  0  0  0  0  0  0  0  0  0  0
    0.8574   -2.5750   -0.6392 C   0  0  0  0  0  0  0  0  0  0  0  0
   -0.3947   -2.1606   -0.1930 C   0  0  0  0  0  0  0  0  0  0  0  0
   -0.5920   -0.8609    0.3062 C   0  0  0  0  0  0  0  0  0  0  0  0
   -1.9879   -0.4914    0.7872 C   0  0  0  0  0  0  0  0  0  0  0  0
   -2.6555    0.5323   -0.0338 N   0  0  0  0  0  0  0  0  0  0  0  0
   -3.9309    0.9641    0.5787 C   0  0  0  0  0  0  0  0  0  0  0  0
   -5.0722   -0.0585    0.4384 C   0  0  0  0  0  0  0  0  0  0  0  0
   -5.2897   -0.4185   -0.9307 O   0  0  0  0  0  0  0  0  0  0  0  0
   -4.0881   -0.9270   -1.5237 C   0  0  0  0  0  0  0  0  0  0  0  0
   -2.9371    0.0868   -1.4160 C   0  0  0  0  0  0  0  0  0  0  0  0
    0.5051    0.0440    0.3557 C   0  0  0  0  0  0  0  0  0  0  0  0
    0.4016    1.3656    0.8371 C   0  0  0  0  0  0  0  0  0  0  0  0
    1.5013    2.2270    0.8749 C   0  0  0  0  0  0  0  0  0  0  0  0
    2.7547    1.8006    0.4312 C   0  0  0  0  0  0  0  0  0  0  0  0
    3.8662    2.6560    0.4640 C   0  0  0  0  0  0  0  0  0  0  0  0
    2.8985    0.4842   -0.0605 C   0  0  0  0  0  0  0  0  0  0  0  0
    1.7786   -0.3908   -0.0989 C   0  0  0  0  0  0  0  0  0  0  0  0
    5.9657    2.8901    0.0463 H   0  0  0  0  0  0  0  0  0  0  0  0
    6.2397    0.5988   -0.8151 H   0  0  0  0  0  0  0  0  0  0  0  0
    5.2696   -1.6154   -1.3560 H   0  0  0  0  0  0  0  0  0  0  0  0
    3.3537   -3.1295   -1.4280 H   0  0  0  0  0  0  0  0  0  0  0  0
    0.9718   -3.5877   -1.0192 H   0  0  0  0  0  0  0  0  0  0  0  0
   -1.2229   -2.8647   -0.2380 H   0  0  0  0  0  0  0  0  0  0  0  0
   -1.8811   -0.1281    1.8184 H   0  0  0  0  0  0  0  0  0  0  0  0
   -2.6001   -1.3978    0.8697 H   0  0  0  0  0  0  0  0  0  0  0  0
   -4.2355    1.8919    0.0770 H   0  0  0  0  0  0  0  0  0  0  0  0
   -3.7843    1.2246    1.6335 H   0  0  0  0  0  0  0  0  0  0  0  0
   -6.0032    0.3781    0.8142 H   0  0  0  0  0  0  0  0  0  0  0  0
   -4.8782   -0.9655    1.0218 H   0  0  0  0  0  0  0  0  0  0  0  0
   -3.8327   -1.8841   -1.0554 H   0  0  0  0  0  0  0  0  0  0  0  0
   -4.3036   -1.1263   -2.5784 H   0  0  0  0  0  0  0  0  0  0  0  0
   -2.0390   -0.3077   -1.9029 H   0  0  0  0  0  0  0  0  0  0  0  0
   -3.2145    0.9803   -1.9910 H   0  0  0  0  0  0  0  0  0  0  0  0
   -0.5530    1.7550    1.1837 H   0  0  0  0  0  0  0  0  0  0  0  0
    1.3615    3.2374    1.2521 H   0  0  0  0  0  0  0  0  0  0  0  0
    3.7683    3.6722    0.8392 H   0  0  0  0  0  0  0  0  0  0  0  0
  1  2  2  0
  2  3  1  0
  3  4  2  0
  4  5  1  0
  5  6  2  0
  6  7  1  0
  7  8  2  0
  8  9  1  0
  9 10  1  0
 10 11  1  0
 11 12  1  0
 12 13  1  0
 13 14  1  0
 14 15  1  0
 15 16  1  0
  9 17  2  0
 17 18  1  0
 18 19  2  0
 19 20  1  0
 20 21  2  0
 20 22  1  0
 22 23  2  0
 21  1  1  0
 22  3  1  0
 23  6  1  0
 16 11  1  0
 23 17  1  0
  1 24  1  0
  2 25  1  0
  4 26  1  0
  5 27  1  0
  7 28  1  0
  8 29  1  0
 10 30  1  0
 10 31  1  0
 12 32  1  0
 12 33  1  0
 13 34  1  0
 13 35  1  0
 15 36  1  0
 15 37  1  0
 16 38  1  0
 16 39  1  0
 18 40  1  0
 19 41  1  0
 21 42  1  0
M  END
$$$$
