
     RDKit          3D

 57 61  0  0  0  0  0  0  0  0999 V2000
   -0.1002    1.7402   -1.6980 O   0  0  0  0  0  0  0  0  0  0  0  0
    0.2503    0.3993   -2.0912 C   0  0  0  0  0  0  0  0  0  0  0  0
    1.7688    0.2182   -1.8982 C   0  0  0  0  0  0  0  0  0  0  0  0
    2.1451    0.5617   -0.5351 N   0  0  0  0  0  0  0  0  0  0  0  0
    3.4481    0.4975   -0.0993 C   0  0  0  0  0  0  0  0  0  0  0  0
    4.3353   -0.1520   -0.8052 N   0  0  0  0  0  0  0  0  0  0  0  0
    5.6753   -0.2202   -0.3704 C   0  0  0  0  0  0  0  0  0  0  0  0
    6.5915   -0.9255   -1.1529 C   0  0  0  0  0  0  0  0  0  0  0  0
    7.9320   -1.0218   -0.7695 C   0  0  0  0  0  0  0  0  0  0  0  0
    8.3706   -0.4105    0.4059 C   0  0  0  0  0  0  0  0  0  0  0  0
    7.4731    0.2995    1.2043 C   0  0  0  0  0  0  0  0  0  0  0  0
    6.1354    0.3872    0.8082 C   0  0  0  0  0  0  0  0  0  0  0  0
    5.1662    1.0790    1.5532 N   0  0  0  0  0  0  0  0  0  0  0  0
    5.2925    1.7685    2.7357 C   0  0  0  0  0  0  0  0  0  0  0  0
    4.0535    2.2673    3.0778 C   0  0  0  0  0  0  0  0  0  0  0  0
    3.1456    1.8699    2.0677 C   0  0  0  0  0  0  0  0  0  0  0  0
    3.8575    1.1418    1.1319 C   0  0  0  0  0  0  0  0  0  0  0  0
   -0.5479   -0.6395   -1.2634 C   0  0  0  0  0  0  0  0  0  0  0  0
   -1.9579   -0.7983   -1.6871 N   0  0  0  0  0  0  0  0  0  0  0  0
   -2.7365    0.4474   -1.4877 C   0  0  0  0  0  0  0  0  0  0  0  0
   -4.2605    0.2329   -1.3221 C   0  0  0  0  0  0  0  0  0  0  0  0
   -4.5426   -0.6170   -0.1540 N   0  0  0  0  0  0  0  0  0  0  0  0
   -5.7438   -0.5459    0.5304 C   0  0  0  0  0  0  0  0  0  0  0  0
   -5.8819   -1.0392    1.8386 C   0  0  0  0  0  0  0  0  0  0  0  0
   -7.0940   -0.9685    2.5375 C   0  0  0  0  0  0  0  0  0  0  0  0
   -8.2105   -0.3982    1.9398 C   0  0  0  0  0  0  0  0  0  0  0  0
   -8.1100    0.0995    0.6471 C   0  0  0  0  0  0  0  0  0  0  0  0
   -6.8926    0.0252   -0.0421 C   0  0  0  0  0  0  0  0  0  0  0  0
   -3.4890   -1.5704    0.2263 C   0  0  0  0  0  0  0  0  0  0  0  0
   -2.6044   -1.9348   -0.9900 C   0  0  0  0  0  0  0  0  0  0  0  0
    0.2992    2.3389   -2.3535 H   0  0  0  0  0  0  0  0  0  0  0  0
    0.0097    0.2822   -3.1548 H   0  0  0  0  0  0  0  0  0  0  0  0
    2.0642   -0.8089   -2.1395 H   0  0  0  0  0  0  0  0  0  0  0  0
    2.2930    0.8965   -2.5820 H   0  0  0  0  0  0  0  0  0  0  0  0
    1.5820    1.3105   -0.1410 H   0  0  0  0  0  0  0  0  0  0  0  0
    6.2534   -1.4035   -2.0684 H   0  0  0  0  0  0  0  0  0  0  0  0
    8.6325   -1.5753   -1.3897 H   0  0  0  0  0  0  0  0  0  0  0  0
    9.4145   -0.4892    0.6998 H   0  0  0  0  0  0  0  0  0  0  0  0
    7.8367    0.7651    2.1141 H   0  0  0  0  0  0  0  0  0  0  0  0
    6.2399    1.8528    3.2480 H   0  0  0  0  0  0  0  0  0  0  0  0
    3.8294    2.8511    3.9615 H   0  0  0  0  0  0  0  0  0  0  0  0
    2.0868    2.0903    2.0335 H   0  0  0  0  0  0  0  0  0  0  0  0
   -0.5079   -0.3845   -0.1965 H   0  0  0  0  0  0  0  0  0  0  0  0
   -0.0520   -1.6099   -1.3927 H   0  0  0  0  0  0  0  0  0  0  0  0
   -2.3868    0.9752   -0.5898 H   0  0  0  0  0  0  0  0  0  0  0  0
   -2.5734    1.1070   -2.3474 H   0  0  0  0  0  0  0  0  0  0  0  0
   -4.6773   -0.2288   -2.2255 H   0  0  0  0  0  0  0  0  0  0  0  0
   -4.7165    1.2231   -1.2026 H   0  0  0  0  0  0  0  0  0  0  0  0
   -5.0310   -1.4727    2.3562 H   0  0  0  0  0  0  0  0  0  0  0  0
   -7.1564   -1.3568    3.5503 H   0  0  0  0  0  0  0  0  0  0  0  0
   -9.1522   -0.3419    2.4778 H   0  0  0  0  0  0  0  0  0  0  0  0
   -8.9766    0.5437    0.1651 H   0  0  0  0  0  0  0  0  0  0  0  0
   -6.8696    0.4077   -1.0584 H   0  0  0  0  0  0  0  0  0  0  0  0
   -2.8714   -1.1382    1.0226 H   0  0  0  0  0  0  0  0  0  0  0  0
   -3.9259   -2.5042    0.6003 H   0  0  0  0  0  0  0  0  0  0  0  0
   -1.8689   -2.6916   -0.6906 H   0  0  0  0  0  0  0  0  0  0  0  0
   -3.2441   -2.4318   -1.7318 H   0  0  0  0  0  0  0  0  0  0  0  0
  1  2  1  0
  2  3  1  0
  3  4  1  0
  4  5  1  0
  5  6  2  0
  6  7  1  0
  7  8  2  0
  8  9  1  0
  9 10  2  0
 10 11  1  0
 11 12  2  0
 12 13  1  0
 13 14  1  0
 14 15  2  0
 15 16  1  0
 16 17  2  0
  2 18  1  0
 18 19  1  0
 19 20  1  0
 20 21  1  0
 21 22  1  0
 22 23  1  0
 23 24  2  0
 24 25  1  0
 25 26  2  0
 26 27  1  0
 27 28  2  0
 22 29  1  0
 29 30  1  0
 17  5  1  0
 30 19  1  0
 12  7  1  0
 17 13  1  0
 28 23  1  0
  1 31  1  0
  2 32  1  0
  3 33  1  0
  3 34  1  0
  4 35  1  0
  8 36  1  0
  9 37  1  0
 10 38  1  0
 11 39  1  0
 14 40  1  0
 15 41  1  0
 16 42  1  0
 18 43  1  0
 18 44  1  0
 20 45  1  0
 20 46  1  0
 21 47  1  0
 21 48  1  0
 24 49  1  0
 25 50  1  0
 26 51  1  0
 27 52  1  0
 28 53  1  0
 29 54  1  0
 29 55  1  0
 30 56  1  0
 30 57  1  0
M  END
$$$$
