
     RDKit          3D

 57 59  0  0  0  0  0  0  0  0999 V2000
    8.6043   -1.8559   -1.8946 C   0  0  0  0  0  0  0  0  0  0  0  0
    7.5043   -2.0423   -2.7761 O   0  0  0  0  0  0  0  0  0  0  0  0
    6.2781   -2.2312   -2.1999 C   0  0  0  0  0  0  0  0  0  0  0  0
    6.0081   -2.2548   -0.8322 C   0  0  0  0  0  0  0  0  0  0  0  0
    4.7005   -2.4583   -0.3769 C   0  0  0  0  0  0  0  0  0  0  0  0
    3.6467   -2.6472   -1.2815 C   0  0  0  0  0  0  0  0  0  0  0  0
    2.2395   -2.8412   -0.7811 C   0  0  0  0  0  0  0  0  0  0  0  0
    1.6016   -1.5746   -0.5386 N   0  0  0  0  0  0  0  0  0  0  0  0
    1.5727   -0.9933    0.7069 C   0  0  0  0  0  0  0  0  0  0  0  0
    1.9739   -1.4906    1.7498 O   0  0  0  0  0  0  0  0  0  0  0  0
    0.9861    0.4391    0.7016 C   0  0  0  0  0  0  0  0  0  0  0  0
    0.6986    0.9927   -0.3519 O   0  0  0  0  0  0  0  0  0  0  0  0
    0.8131    0.9751    1.9572 N   0  0  0  0  0  0  0  0  0  0  0  0
    0.1677    2.2531    2.1585 C   0  0  0  0  0  0  0  0  0  0  0  0
   -1.3333    2.3100    1.7866 C   0  0  0  0  0  0  0  0  0  0  0  0
   -1.7943    3.6696    1.9518 O   0  0  0  0  0  0  0  0  0  0  0  0
   -2.4330    3.7324    3.2305 C   0  0  0  0  0  0  0  0  0  0  0  0
   -3.1074    2.3874    3.3601 C   0  0  0  0  0  0  0  0  0  0  0  0
   -2.1475    1.4910    2.7056 N   0  0  0  0  0  0  0  0  0  0  0  0
   -2.6837   -0.0186    2.1983 S   0  0  0  0  0  6  0  0  0  0  0  0
   -1.5615   -0.7477    1.6490 O   0  0  0  0  0  0  0  0  0  0  0  0
   -3.4663   -0.5790    3.2804 O   0  0  0  0  0  0  0  0  0  0  0  0
   -3.8032    0.3192    0.8540 C   0  0  0  0  0  0  0  0  0  0  0  0
   -5.1707    0.4466    1.1052 C   0  0  0  0  0  0  0  0  0  0  0  0
   -6.0451    0.6744    0.0408 C   0  0  0  0  0  0  0  0  0  0  0  0
   -5.5689    0.7562   -1.2718 C   0  0  0  0  0  0  0  0  0  0  0  0
   -6.5334    0.9849   -2.2134 O   0  0  0  0  0  0  0  0  0  0  0  0
   -6.1042    1.0824   -3.5658 C   0  0  0  0  0  0  0  0  0  0  0  0
   -4.2039    0.5949   -1.5176 C   0  0  0  0  0  0  0  0  0  0  0  0
   -3.3205    0.3649   -0.4575 C   0  0  0  0  0  0  0  0  0  0  0  0
    3.9223   -2.6121   -2.6532 C   0  0  0  0  0  0  0  0  0  0  0  0
    5.2290   -2.4093   -3.1046 C   0  0  0  0  0  0  0  0  0  0  0  0
    8.4749   -0.9542   -1.2869 H   0  0  0  0  0  0  0  0  0  0  0  0
    8.7603   -2.7382   -1.2655 H   0  0  0  0  0  0  0  0  0  0  0  0
    9.5028   -1.7198   -2.5046 H   0  0  0  0  0  0  0  0  0  0  0  0
    6.7873   -2.1151   -0.0908 H   0  0  0  0  0  0  0  0  0  0  0  0
    4.5045   -2.4642    0.6948 H   0  0  0  0  0  0  0  0  0  0  0  0
    2.2411   -3.4498    0.1304 H   0  0  0  0  0  0  0  0  0  0  0  0
    1.6394   -3.3744   -1.5265 H   0  0  0  0  0  0  0  0  0  0  0  0
    1.3531   -0.9776   -1.3202 H   0  0  0  0  0  0  0  0  0  0  0  0
    0.9041    0.3183    2.7293 H   0  0  0  0  0  0  0  0  0  0  0  0
    0.7077    2.9987    1.5621 H   0  0  0  0  0  0  0  0  0  0  0  0
    0.3160    2.5254    3.2097 H   0  0  0  0  0  0  0  0  0  0  0  0
   -1.4838    2.0517    0.7380 H   0  0  0  0  0  0  0  0  0  0  0  0
   -3.1375    4.5677    3.2601 H   0  0  0  0  0  0  0  0  0  0  0  0
   -1.6674    3.8833    3.9996 H   0  0  0  0  0  0  0  0  0  0  0  0
   -3.2810    2.1168    4.4038 H   0  0  0  0  0  0  0  0  0  0  0  0
   -4.0582    2.4058    2.8218 H   0  0  0  0  0  0  0  0  0  0  0  0
   -5.5654    0.3641    2.1153 H   0  0  0  0  0  0  0  0  0  0  0  0
   -7.1108    0.7804    0.2319 H   0  0  0  0  0  0  0  0  0  0  0  0
   -6.9870    1.2728   -4.1838 H   0  0  0  0  0  0  0  0  0  0  0  0
   -5.4151    1.9223   -3.7019 H   0  0  0  0  0  0  0  0  0  0  0  0
   -5.6557    0.1431   -3.9058 H   0  0  0  0  0  0  0  0  0  0  0  0
   -3.7943    0.6340   -2.5220 H   0  0  0  0  0  0  0  0  0  0  0  0
   -2.2622    0.2206   -0.6685 H   0  0  0  0  0  0  0  0  0  0  0  0
    3.1253   -2.7421   -3.3813 H   0  0  0  0  0  0  0  0  0  0  0  0
    5.4323   -2.3872   -4.1726 H   0  0  0  0  0  0  0  0  0  0  0  0
  1  2  1  0
  2  3  1  0
  3  4  2  0
  4  5  1  0
  5  6  2  0
  6  7  1  0
  7  8  1  0
  8  9  1  0
  9 10  2  0
  9 11  1  0
 11 12  2  0
 11 13  1  0
 13 14  1  0
 14 15  1  0
 15 16  1  0
 16 17  1  0
 17 18  1  0
 18 19  1  0
 19 20  1  0
 20 21  2  0
 20 22  2  0
 20 23  1  0
 23 24  2  0
 24 25  1  0
 25 26  2  0
 26 27  1  0
 27 28  1  0
 26 29  1  0
 29 30  2  0
  6 31  1  0
 31 32  2  0
 32  3  1  0
 19 15  1  0
 30 23  1  0
  1 33  1  0
  1 34  1  0
  1 35  1  0
  4 36  1  0
  5 37  1  0
  7 38  1  0
  7 39  1  0
  8 40  1  0
 13 41  1  0
 14 42  1  0
 14 43  1  0
 15 44  1  0
 17 45  1  0
 17 46  1  0
 18 47  1  0
 18 48  1  0
 24 49  1  0
 25 50  1  0
 28 51  1  0
 28 52  1  0
 28 53  1  0
 29 54  1  0
 30 55  1  0
 31 56  1  0
 32 57  1  0
M  END
$$$$
