
     RDKit          3D

 58 62  0  0  0  0  0  0  0  0999 V2000
    5.6672   -0.3003    5.6668 C   0  0  0  0  0  0  0  0  0  0  0  0
    5.7949   -0.4077    4.2578 O   0  0  0  0  0  0  0  0  0  0  0  0
    4.7273   -0.0131    3.4903 C   0  0  0  0  0  0  0  0  0  0  0  0
    3.5070    0.4399    4.0026 C   0  0  0  0  0  0  0  0  0  0  0  0
    2.4742    0.8167    3.1386 C   0  0  0  0  0  0  0  0  0  0  0  0
    2.6391    0.7506    1.7494 C   0  0  0  0  0  0  0  0  0  0  0  0
    1.5423    1.1535    0.8733 C   0  0  0  0  0  0  0  0  0  0  0  0
    0.4054    1.7514    1.1757 N   0  0  0  0  0  0  0  0  0  0  0  0
   -0.2529    1.8842   -0.0336 C   0  0  0  0  0  0  0  0  0  0  0  0
   -1.5722    2.5739   -0.0751 C   0  0  0  0  0  0  0  0  0  0  0  0
   -2.5007    1.9756   -1.0198 N   0  0  0  0  0  0  0  0  0  0  0  0
   -3.2384    0.8303   -0.8500 C   0  0  0  0  0  0  0  0  0  0  0  0
   -3.1910   -0.1168    0.5994 S   0  0  0  0  0  0  0  0  0  0  0  0
   -4.3605   -1.4495    0.2200 C   0  0  0  0  0  0  0  0  0  0  0  0
   -3.7169   -2.6260   -0.4665 C   0  0  0  0  0  0  0  0  0  0  0  0
   -3.0256   -3.5982    0.2747 C   0  0  0  0  0  0  0  0  0  0  0  0
   -2.4361   -4.6972   -0.3617 C   0  0  0  0  0  0  0  0  0  0  0  0
   -2.5368   -4.8375   -1.7446 C   0  0  0  0  0  0  0  0  0  0  0  0
   -3.2136   -3.8741   -2.4809 C   0  0  0  0  0  0  0  0  0  0  0  0
   -3.3063   -4.0110   -3.8172 F   0  0  0  0  0  0  0  0  0  0  0  0
   -3.7957   -2.7740   -1.8597 C   0  0  0  0  0  0  0  0  0  0  0  0
   -3.9742    0.5619   -1.9052 N   0  0  0  0  0  0  0  0  0  0  0  0
   -3.7303    1.5809   -2.7887 C   0  0  0  0  0  0  0  0  0  0  0  0
   -4.2536    1.7872   -4.0653 C   0  0  0  0  0  0  0  0  0  0  0  0
   -3.8221    2.9321   -4.7130 C   0  0  0  0  0  0  0  0  0  0  0  0
   -2.9513    3.8308   -4.1956 N   0  0  0  0  0  0  0  0  0  0  0  0
   -2.4434    3.6292   -2.9577 C   0  0  0  0  0  0  0  0  0  0  0  0
   -2.8298    2.4969   -2.2551 C   0  0  0  0  0  0  0  0  0  0  0  0
    0.5303    1.3346   -1.0343 C   0  0  0  0  0  0  0  0  0  0  0  0
    0.3981    1.1283   -2.4887 C   0  0  0  0  0  0  0  0  0  0  0  0
    1.6844    0.8768   -0.4615 O   0  0  0  0  0  0  0  0  0  0  0  0
    3.8668    0.2974    1.2386 C   0  0  0  0  0  0  0  0  0  0  0  0
    4.9075   -0.0896    2.0942 C   0  0  0  0  0  0  0  0  0  0  0  0
    6.1263   -0.5529    1.6688 O   0  0  0  0  0  0  0  0  0  0  0  0
    6.3315   -0.6847    0.2655 C   0  0  0  0  0  0  0  0  0  0  0  0
    4.8703   -0.9511    6.0450 H   0  0  0  0  0  0  0  0  0  0  0  0
    6.6081   -0.6333    6.1148 H   0  0  0  0  0  0  0  0  0  0  0  0
    5.5028    0.7365    5.9703 H   0  0  0  0  0  0  0  0  0  0  0  0
    3.3215    0.5065    5.0717 H   0  0  0  0  0  0  0  0  0  0  0  0
    1.5296    1.1590    3.5578 H   0  0  0  0  0  0  0  0  0  0  0  0
   -1.4248    3.6251   -0.3480 H   0  0  0  0  0  0  0  0  0  0  0  0
   -2.0499    2.5738    0.9109 H   0  0  0  0  0  0  0  0  0  0  0  0
   -5.2131   -1.0727   -0.3573 H   0  0  0  0  0  0  0  0  0  0  0  0
   -4.7868   -1.7924    1.1711 H   0  0  0  0  0  0  0  0  0  0  0  0
   -2.9362   -3.5012    1.3538 H   0  0  0  0  0  0  0  0  0  0  0  0
   -1.9058   -5.4469    0.2218 H   0  0  0  0  0  0  0  0  0  0  0  0
   -2.0900   -5.6884   -2.2552 H   0  0  0  0  0  0  0  0  0  0  0  0
   -4.3094   -2.0403   -2.4728 H   0  0  0  0  0  0  0  0  0  0  0  0
   -4.9564    1.0965   -4.5149 H   0  0  0  0  0  0  0  0  0  0  0  0
   -4.1858    3.1700   -5.7097 H   0  0  0  0  0  0  0  0  0  0  0  0
   -1.7492    4.3717   -2.5892 H   0  0  0  0  0  0  0  0  0  0  0  0
   -0.3794    0.3881   -2.6974 H   0  0  0  0  0  0  0  0  0  0  0  0
    0.1374    2.0636   -2.9913 H   0  0  0  0  0  0  0  0  0  0  0  0
    1.3359    0.7702   -2.9249 H   0  0  0  0  0  0  0  0  0  0  0  0
    3.9945    0.2582    0.1623 H   0  0  0  0  0  0  0  0  0  0  0  0
    7.3317   -1.1092    0.1050 H   0  0  0  0  0  0  0  0  0  0  0  0
    6.3012    0.2952   -0.2258 H   0  0  0  0  0  0  0  0  0  0  0  0
    5.6027   -1.3786   -0.1778 H   0  0  0  0  0  0  0  0  0  0  0  0
  1  2  1  0
  2  3  1  0
  3  4  2  0
  4  5  1  0
  5  6  2  0
  6  7  1  0
  7  8  2  0
  8  9  1  0
  9 10  1  0
 10 11  1  0
 11 12  1  0
 12 13  1  0
 13 14  1  0
 14 15  1  0
 15 16  2  0
 16 17  1  0
 17 18  2  0
 18 19  1  0
 19 20  1  0
 19 21  2  0
 12 22  2  0
 22 23  1  0
 23 24  2  0
 24 25  1  0
 25 26  2  0
 26 27  1  0
 27 28  2  0
  9 29  2  0
 29 30  1  0
 29 31  1  0
  6 32  1  0
 32 33  2  0
 33 34  1  0
 34 35  1  0
 33  3  1  0
 31  7  1  0
 28 11  1  0
 21 15  1  0
 28 23  1  0
  1 36  1  0
  1 37  1  0
  1 38  1  0
  4 39  1  0
  5 40  1  0
 10 41  1  0
 10 42  1  0
 14 43  1  0
 14 44  1  0
 16 45  1  0
 17 46  1  0
 18 47  1  0
 21 48  1  0
 24 49  1  0
 25 50  1  0
 27 51  1  0
 30 52  1  0
 30 53  1  0
 30 54  1  0
 32 55  1  0
 35 56  1  0
 35 57  1  0
 35 58  1  0
M  END
$$$$
