
     RDKit          3D

 58 62  0  0  0  0  0  0  0  0999 V2000
    8.0946    1.0230    2.5230 C   0  0  0  0  0  0  0  0  0  0  0  0
    7.4793    1.4941    1.3331 O   0  0  0  0  0  0  0  0  0  0  0  0
    6.1129    1.3994    1.2419 C   0  0  0  0  0  0  0  0  0  0  0  0
    5.2896    0.8696    2.2388 C   0  0  0  0  0  0  0  0  0  0  0  0
    3.9046    0.8159    2.0548 C   0  0  0  0  0  0  0  0  0  0  0  0
    3.3155    1.2888    0.8754 C   0  0  0  0  0  0  0  0  0  0  0  0
    1.8649    1.2191    0.7193 C   0  0  0  0  0  0  0  0  0  0  0  0
    0.9532    0.7988    1.5759 N   0  0  0  0  0  0  0  0  0  0  0  0
   -0.2442    0.9321    0.9007 C   0  0  0  0  0  0  0  0  0  0  0  0
   -1.5241    0.5457    1.5468 C   0  0  0  0  0  0  0  0  0  0  0  0
   -1.8311   -0.8539    1.2992 N   0  0  0  0  0  0  0  0  0  0  0  0
   -2.7573   -1.3719    0.4282 C   0  0  0  0  0  0  0  0  0  0  0  0
   -3.7219   -0.3993   -0.6315 S   0  0  0  0  0  0  0  0  0  0  0  0
   -4.6956   -1.6872   -1.4684 C   0  0  0  0  0  0  0  0  0  0  0  0
   -5.6113   -1.0846   -2.5058 C   0  0  0  0  0  0  0  0  0  0  0  0
   -5.1908   -0.9504   -3.8394 C   0  0  0  0  0  0  0  0  0  0  0  0
   -6.0318   -0.3779   -4.7977 C   0  0  0  0  0  0  0  0  0  0  0  0
   -7.2989    0.0714   -4.4316 C   0  0  0  0  0  0  0  0  0  0  0  0
   -7.7140   -0.0538   -3.1114 C   0  0  0  0  0  0  0  0  0  0  0  0
   -8.9303    0.3829   -2.7588 F   0  0  0  0  0  0  0  0  0  0  0  0
   -6.8865   -0.6232   -2.1488 C   0  0  0  0  0  0  0  0  0  0  0  0
   -2.8232   -2.6810    0.4981 N   0  0  0  0  0  0  0  0  0  0  0  0
   -1.9049   -3.0397    1.4521 C   0  0  0  0  0  0  0  0  0  0  0  0
   -1.5678   -4.3077    1.9240 C   0  0  0  0  0  0  0  0  0  0  0  0
   -0.5922   -4.3430    2.9064 C   0  0  0  0  0  0  0  0  0  0  0  0
    0.0341   -3.2563    3.4150 N   0  0  0  0  0  0  0  0  0  0  0  0
   -0.2879   -2.0256    2.9500 C   0  0  0  0  0  0  0  0  0  0  0  0
   -1.2667   -1.9197    1.9717 C   0  0  0  0  0  0  0  0  0  0  0  0
   -0.0030    1.4631   -0.3498 C   0  0  0  0  0  0  0  0  0  0  0  0
   -0.8342    1.8451   -1.5050 C   0  0  0  0  0  0  0  0  0  0  0  0
    1.3456    1.6447   -0.4752 O   0  0  0  0  0  0  0  0  0  0  0  0
    4.1460    1.8188   -0.1247 C   0  0  0  0  0  0  0  0  0  0  0  0
    5.5359    1.8771    0.0478 C   0  0  0  0  0  0  0  0  0  0  0  0
    6.4113    2.3825   -0.8826 O   0  0  0  0  0  0  0  0  0  0  0  0
    5.8774    2.8319   -2.1199 C   0  0  0  0  0  0  0  0  0  0  0  0
    7.7559    1.5918    3.3949 H   0  0  0  0  0  0  0  0  0  0  0  0
    9.1737    1.1773    2.4255 H   0  0  0  0  0  0  0  0  0  0  0  0
    7.9234   -0.0500    2.6582 H   0  0  0  0  0  0  0  0  0  0  0  0
    5.6906    0.4876    3.1719 H   0  0  0  0  0  0  0  0  0  0  0  0
    3.2826    0.3961    2.8445 H   0  0  0  0  0  0  0  0  0  0  0  0
   -2.3507    1.1742    1.2055 H   0  0  0  0  0  0  0  0  0  0  0  0
   -1.4609    0.6777    2.6334 H   0  0  0  0  0  0  0  0  0  0  0  0
   -4.0234   -2.4081   -1.9482 H   0  0  0  0  0  0  0  0  0  0  0  0
   -5.2898   -2.2404   -0.7318 H   0  0  0  0  0  0  0  0  0  0  0  0
   -4.2015   -1.2923   -4.1388 H   0  0  0  0  0  0  0  0  0  0  0  0
   -5.6971   -0.2819   -5.8275 H   0  0  0  0  0  0  0  0  0  0  0  0
   -7.9633    0.5188   -5.1636 H   0  0  0  0  0  0  0  0  0  0  0  0
   -7.2444   -0.6991   -1.1260 H   0  0  0  0  0  0  0  0  0  0  0  0
   -2.0408   -5.2032    1.5461 H   0  0  0  0  0  0  0  0  0  0  0  0
   -0.2725   -5.2918    3.3298 H   0  0  0  0  0  0  0  0  0  0  0  0
    0.2462   -1.1824    3.3709 H   0  0  0  0  0  0  0  0  0  0  0  0
   -1.0472    0.9704   -2.1264 H   0  0  0  0  0  0  0  0  0  0  0  0
   -1.7825    2.2797   -1.1761 H   0  0  0  0  0  0  0  0  0  0  0  0
   -0.3254    2.5880   -2.1270 H   0  0  0  0  0  0  0  0  0  0  0  0
    3.6869    2.1857   -1.0371 H   0  0  0  0  0  0  0  0  0  0  0  0
    5.2037    3.6827   -1.9728 H   0  0  0  0  0  0  0  0  0  0  0  0
    5.3779    2.0172   -2.6550 H   0  0  0  0  0  0  0  0  0  0  0  0
    6.7118    3.1732   -2.7403 H   0  0  0  0  0  0  0  0  0  0  0  0
  1  2  1  0
  2  3  1  0
  3  4  2  0
  4  5  1  0
  5  6  2  0
  6  7  1  0
  7  8  2  0
  8  9  1  0
  9 10  1  0
 10 11  1  0
 11 12  1  0
 12 13  1  0
 13 14  1  0
 14 15  1  0
 15 16  2  0
 16 17  1  0
 17 18  2  0
 18 19  1  0
 19 20  1  0
 19 21  2  0
 12 22  2  0
 22 23  1  0
 23 24  2  0
 24 25  1  0
 25 26  2  0
 26 27  1  0
 27 28  2  0
  9 29  2  0
 29 30  1  0
 29 31  1  0
  6 32  1  0
 32 33  2  0
 33 34  1  0
 34 35  1  0
 33  3  1  0
 31  7  1  0
 28 11  1  0
 21 15  1  0
 28 23  1  0
  1 36  1  0
  1 37  1  0
  1 38  1  0
  4 39  1  0
  5 40  1  0
 10 41  1  0
 10 42  1  0
 14 43  1  0
 14 44  1  0
 16 45  1  0
 17 46  1  0
 18 47  1  0
 21 48  1  0
 24 49  1  0
 25 50  1  0
 27 51  1  0
 30 52  1  0
 30 53  1  0
 30 54  1  0
 32 55  1  0
 35 56  1  0
 35 57  1  0
 35 58  1  0
M  END
$$$$
