
     RDKit          3D

 62 67  0  0  0  0  0  0  0  0999 V2000
   -4.4200   -3.4257    2.7406 C   0  0  0  0  0  0  0  0  0  0  0  0
   -3.9391   -2.1213    2.4485 O   0  0  0  0  0  0  0  0  0  0  0  0
   -3.0129   -1.5792    3.3045 C   0  0  0  0  0  0  0  0  0  0  0  0
   -2.4465   -2.2585    4.3897 C   0  0  0  0  0  0  0  0  0  0  0  0
   -1.4954   -1.6331    5.2014 C   0  0  0  0  0  0  0  0  0  0  0  0
   -1.0981   -0.3258    4.9374 C   0  0  0  0  0  0  0  0  0  0  0  0
   -1.6531    0.3615    3.8597 C   0  0  0  0  0  0  0  0  0  0  0  0
   -2.6130   -0.2530    3.0389 C   0  0  0  0  0  0  0  0  0  0  0  0
   -3.1638    0.5085    1.9097 C   0  0  0  0  0  0  0  0  0  0  0  0
   -4.6349    1.3455    2.1410 S   0  0  0  0  0  0  0  0  0  0  0  0
   -4.6371    1.9692    0.5383 C   0  0  0  0  0  0  0  0  0  0  0  0
   -5.6216    2.8070   -0.0309 C   0  0  0  0  0  0  0  0  0  0  0  0
   -5.4242    3.1906   -1.3411 C   0  0  0  0  0  0  0  0  0  0  0  0
   -4.3361    2.7867   -2.0647 C   0  0  0  0  0  0  0  0  0  0  0  0
   -3.3617    1.9677   -1.5287 C   0  0  0  0  0  0  0  0  0  0  0  0
   -3.5079    1.5417   -0.1789 C   0  0  0  0  0  0  0  0  0  0  0  0
   -2.6594    0.6965    0.6340 C   0  0  0  0  0  0  0  0  0  0  0  0
   -1.3995    0.0943    0.2129 C   0  0  0  0  0  0  0  0  0  0  0  0
   -0.2721    0.8982    0.0143 C   0  0  0  0  0  0  0  0  0  0  0  0
    0.9383    0.3304   -0.3998 C   0  0  0  0  0  0  0  0  0  0  0  0
    1.0285   -1.0449   -0.6197 C   0  0  0  0  0  0  0  0  0  0  0  0
    2.1444   -1.7243   -1.0238 O   0  0  0  0  0  0  0  0  0  0  0  0
    3.3293   -0.9554   -1.2517 C   0  0  0  0  0  0  0  0  0  0  0  0
    4.4428   -1.9200   -1.6991 C   0  0  0  0  0  0  0  0  0  0  0  0
    5.7700   -1.3527   -1.9647 N   0  0  0  0  0  0  0  0  0  0  0  0
    6.4027   -0.6976   -0.8075 C   0  0  0  0  0  0  0  0  0  0  0  0
    6.4799    0.8324   -0.9389 C   0  0  0  0  0  0  0  0  0  0  0  0
    7.1710    1.2728   -2.1154 O   0  0  0  0  0  0  0  0  0  0  0  0
    7.1033    0.3349   -3.1993 C   0  0  0  0  0  0  0  0  0  0  0  0
    5.8214   -0.5111   -3.1715 C   0  0  0  0  0  0  0  0  0  0  0  0
   -0.1004   -1.8448   -0.4231 C   0  0  0  0  0  0  0  0  0  0  0  0
   -1.3106   -1.2817   -0.0118 C   0  0  0  0  0  0  0  0  0  0  0  0
   -4.3409    3.2792   -3.3331 O   0  0  0  0  0  0  0  0  0  0  0  0
   -5.5667    4.0386   -3.3241 C   0  0  0  0  0  0  0  0  0  0  0  0
   -6.2580    3.9917   -2.0594 O   0  0  0  0  0  0  0  0  0  0  0  0
   -4.9051   -3.4594    3.7215 H   0  0  0  0  0  0  0  0  0  0  0  0
   -3.6167   -4.1664    2.6688 H   0  0  0  0  0  0  0  0  0  0  0  0
   -5.1734   -3.6800    1.9887 H   0  0  0  0  0  0  0  0  0  0  0  0
   -2.7195   -3.2805    4.6300 H   0  0  0  0  0  0  0  0  0  0  0  0
   -1.0620   -2.1717    6.0407 H   0  0  0  0  0  0  0  0  0  0  0  0
   -0.3566    0.1580    5.5676 H   0  0  0  0  0  0  0  0  0  0  0  0
   -1.3362    1.3822    3.6578 H   0  0  0  0  0  0  0  0  0  0  0  0
   -6.4887    3.1305    0.5328 H   0  0  0  0  0  0  0  0  0  0  0  0
   -2.5118    1.6566   -2.1271 H   0  0  0  0  0  0  0  0  0  0  0  0
   -0.3278    1.9713    0.1835 H   0  0  0  0  0  0  0  0  0  0  0  0
    1.7866    0.9914   -0.5398 H   0  0  0  0  0  0  0  0  0  0  0  0
    3.1381   -0.2144   -2.0351 H   0  0  0  0  0  0  0  0  0  0  0  0
    3.6231   -0.4535   -0.3231 H   0  0  0  0  0  0  0  0  0  0  0  0
    4.5467   -2.7046   -0.9373 H   0  0  0  0  0  0  0  0  0  0  0  0
    4.1006   -2.4630   -2.5905 H   0  0  0  0  0  0  0  0  0  0  0  0
    7.4278   -1.0845   -0.7478 H   0  0  0  0  0  0  0  0  0  0  0  0
    5.9184   -0.9735    0.1362 H   0  0  0  0  0  0  0  0  0  0  0  0
    5.4751    1.2698   -0.9554 H   0  0  0  0  0  0  0  0  0  0  0  0
    7.0023    1.2567   -0.0754 H   0  0  0  0  0  0  0  0  0  0  0  0
    7.1563    0.9077   -4.1307 H   0  0  0  0  0  0  0  0  0  0  0  0
    7.9948   -0.3019   -3.1582 H   0  0  0  0  0  0  0  0  0  0  0  0
    5.7843   -1.1506   -4.0601 H   0  0  0  0  0  0  0  0  0  0  0  0
    4.9661    0.1727   -3.2113 H   0  0  0  0  0  0  0  0  0  0  0  0
   -0.0386   -2.9170   -0.5923 H   0  0  0  0  0  0  0  0  0  0  0  0
   -2.1781   -1.9216    0.1328 H   0  0  0  0  0  0  0  0  0  0  0  0
   -5.3336    5.0838   -3.5581 H   0  0  0  0  0  0  0  0  0  0  0  0
   -6.2304    3.6436   -4.1019 H   0  0  0  0  0  0  0  0  0  0  0  0
  1  2  1  0
  2  3  1  0
  3  4  2  0
  4  5  1  0
  5  6  2  0
  6  7  1  0
  7  8  2  0
  8  9  1  0
  9 10  1  0
 10 11  1  0
 11 12  2  0
 12 13  1  0
 13 14  2  0
 14 15  1  0
 15 16  2  0
 16 17  1  0
 17 18  1  0
 18 19  2  0
 19 20  1  0
 20 21  2  0
 21 22  1  0
 22 23  1  0
 23 24  1  0
 24 25  1  0
 25 26  1  0
 26 27  1  0
 27 28  1  0
 28 29  1  0
 29 30  1  0
 21 31  1  0
 31 32  2  0
 14 33  1  0
 33 34  1  0
 34 35  1  0
  8  3  1  0
 17  9  2  0
 32 18  1  0
 16 11  1  0
 30 25  1  0
 35 13  1  0
  1 36  1  0
  1 37  1  0
  1 38  1  0
  4 39  1  0
  5 40  1  0
  6 41  1  0
  7 42  1  0
 12 43  1  0
 15 44  1  0
 19 45  1  0
 20 46  1  0
 23 47  1  0
 23 48  1  0
 24 49  1  0
 24 50  1  0
 26 51  1  0
 26 52  1  0
 27 53  1  0
 27 54  1  0
 29 55  1  0
 29 56  1  0
 30 57  1  0
 30 58  1  0
 31 59  1  0
 32 60  1  0
 34 61  1  0
 34 62  1  0
M  END
$$$$
