
     RDKit          3D

 41 42  0  0  0  0  0  0  0  0999 V2000
    6.9254    1.9976    0.9393 C   0  0  0  0  0  0  0  0  0  0  0  0
    5.5685    1.5656    1.0334 O   0  0  0  0  0  0  0  0  0  0  0  0
    5.2738    0.4847    0.2556 C   0  0  0  0  0  0  0  0  0  0  0  0
    6.0785   -0.0827   -0.4717 O   0  0  0  0  0  0  0  0  0  0  0  0
    3.8763    0.1251    0.4184 C   0  0  0  0  0  0  0  0  0  0  0  0
    2.9050    0.7632    1.1753 C   0  0  0  0  0  0  0  0  0  0  0  0
    1.6857    0.0814    0.9962 C   0  0  0  0  0  0  0  0  0  0  0  0
    1.8994   -0.9717    0.1210 C   0  0  0  0  0  0  0  0  0  0  0  0
    0.7619   -2.1674   -0.5361 S   0  0  0  0  0  6  0  0  0  0  0  0
    1.0193   -3.3718    0.2165 O   0  0  0  0  0  0  0  0  0  0  0  0
    0.9251   -2.0997   -1.9698 O   0  0  0  0  0  0  0  0  0  0  0  0
   -0.7897   -1.6593   -0.1517 N   0  0  0  0  0  0  0  0  0  0  0  0
   -1.3338   -0.5771   -0.9844 C   0  0  0  0  0  0  0  0  0  0  0  0
   -2.6752   -0.1094   -0.4695 C   0  0  0  0  0  0  0  0  0  0  0  0
   -2.8293    0.2898    0.8644 C   0  0  0  0  0  0  0  0  0  0  0  0
   -4.0674    0.7375    1.3312 C   0  0  0  0  0  0  0  0  0  0  0  0
   -5.1708    0.8008    0.4784 C   0  0  0  0  0  0  0  0  0  0  0  0
   -6.3198    1.2566    1.0628 O   0  0  0  0  0  0  0  0  0  0  0  0
   -7.4749    1.3331    0.2372 C   0  0  0  0  0  0  0  0  0  0  0  0
   -5.0239    0.4117   -0.8525 C   0  0  0  0  0  0  0  0  0  0  0  0
   -3.7841   -0.0381   -1.3235 C   0  0  0  0  0  0  0  0  0  0  0  0
    3.2524   -0.9644   -0.1787 N   0  0  0  0  0  0  0  0  0  0  0  0
    3.9420   -1.9464   -0.9967 C   0  0  0  0  0  0  0  0  0  0  0  0
    7.1596    2.3074   -0.0840 H   0  0  0  0  0  0  0  0  0  0  0  0
    7.6045    1.2060    1.2710 H   0  0  0  0  0  0  0  0  0  0  0  0
    7.0526    2.8605    1.5989 H   0  0  0  0  0  0  0  0  0  0  0  0
    3.0650    1.6441    1.7860 H   0  0  0  0  0  0  0  0  0  0  0  0
    0.7323    0.3317    1.4439 H   0  0  0  0  0  0  0  0  0  0  0  0
   -1.4132   -2.4631   -0.0759 H   0  0  0  0  0  0  0  0  0  0  0  0
   -0.6543    0.2816   -1.0010 H   0  0  0  0  0  0  0  0  0  0  0  0
   -1.4500   -0.9449   -2.0104 H   0  0  0  0  0  0  0  0  0  0  0  0
   -1.9870    0.2492    1.5515 H   0  0  0  0  0  0  0  0  0  0  0  0
   -4.1732    1.0398    2.3705 H   0  0  0  0  0  0  0  0  0  0  0  0
   -8.3000    1.7082    0.8505 H   0  0  0  0  0  0  0  0  0  0  0  0
   -7.7602    0.3437   -0.1355 H   0  0  0  0  0  0  0  0  0  0  0  0
   -7.3252    2.0386   -0.5867 H   0  0  0  0  0  0  0  0  0  0  0  0
   -5.8522    0.4466   -1.5523 H   0  0  0  0  0  0  0  0  0  0  0  0
   -3.6960   -0.3322   -2.3676 H   0  0  0  0  0  0  0  0  0  0  0  0
    4.1792   -1.4827   -1.9572 H   0  0  0  0  0  0  0  0  0  0  0  0
    3.3248   -2.8310   -1.1502 H   0  0  0  0  0  0  0  0  0  0  0  0
    4.8487   -2.2624   -0.4747 H   0  0  0  0  0  0  0  0  0  0  0  0
  1  2  1  0
  2  3  1  0
  3  4  2  0
  3  5  1  0
  5  6  2  0
  6  7  1  0
  7  8  2  0
  8  9  1  0
  9 10  2  0
  9 11  2  0
  9 12  1  0
 12 13  1  0
 13 14  1  0
 14 15  2  0
 15 16  1  0
 16 17  2  0
 17 18  1  0
 18 19  1  0
 17 20  1  0
 20 21  2  0
  8 22  1  0
 22 23  1  0
 22  5  1  0
 21 14  1  0
  1 24  1  0
  1 25  1  0
  1 26  1  0
  6 27  1  0
  7 28  1  0
 12 29  1  0
 13 30  1  0
 13 31  1  0
 15 32  1  0
 16 33  1  0
 19 34  1  0
 19 35  1  0
 19 36  1  0
 20 37  1  0
 21 38  1  0
 23 39  1  0
 23 40  1  0
 23 41  1  0
M  END
$$$$
