
     RDKit          3D

 33 33  0  0  0  0  0  0  0  0999 V2000
   -2.3938    1.3140   -2.2752 C   0  0  0  0  0  0  0  0  0  0  0  0
   -2.5094    1.4258   -0.7753 C   0  0  0  0  0  0  0  0  0  0  0  0
   -3.0682    2.3872   -0.2577 O   0  0  0  0  0  0  0  0  0  0  0  0
   -1.9023    0.3726   -0.1248 N   0  0  0  0  0  0  0  0  0  0  0  0
   -1.8194    0.1366    1.2642 C   0  0  0  0  0  0  0  0  0  0  0  0
   -2.4260    0.9452    2.2265 C   0  0  0  0  0  0  0  0  0  0  0  0
   -2.3147    0.6348    3.5875 C   0  0  0  0  0  0  0  0  0  0  0  0
   -1.6043   -0.4915    4.0005 C   0  0  0  0  0  0  0  0  0  0  0  0
   -0.9934   -1.3088    3.0536 C   0  0  0  0  0  0  0  0  0  0  0  0
   -1.0868   -0.9816    1.6989 C   0  0  0  0  0  0  0  0  0  0  0  0
   -0.4916   -1.8159    0.7850 O   0  0  0  0  0  0  0  0  0  0  0  0
    0.8869   -1.4870    0.6087 C   0  0  0  0  0  0  0  0  0  0  0  0
    1.1376   -0.9053   -0.7849 C   0  0  0  0  0  0  0  0  0  0  0  0
    0.2457   -0.7207   -1.6110 O   0  0  0  0  0  0  0  0  0  0  0  0
    2.4585   -0.5973   -1.0394 N   0  0  0  0  0  0  0  0  0  0  0  0
    2.8360    0.0768   -2.2865 C   0  0  0  0  0  0  0  0  0  0  0  0
    4.3329    0.0735   -2.5845 C   0  0  0  0  0  0  0  0  0  0  0  0
    4.7980   -1.1817   -2.7646 F   0  0  0  0  0  0  0  0  0  0  0  0
    4.6148    0.7862   -3.6950 F   0  0  0  0  0  0  0  0  0  0  0  0
    5.0219    0.6200   -1.5547 F   0  0  0  0  0  0  0  0  0  0  0  0
   -3.1811    1.9100   -2.7458 H   0  0  0  0  0  0  0  0  0  0  0  0
   -1.4167    1.6879   -2.5927 H   0  0  0  0  0  0  0  0  0  0  0  0
   -2.5152    0.2760   -2.5988 H   0  0  0  0  0  0  0  0  0  0  0  0
   -1.4139   -0.3066   -0.7107 H   0  0  0  0  0  0  0  0  0  0  0  0
   -3.0041    1.8218    1.9508 H   0  0  0  0  0  0  0  0  0  0  0  0
   -2.7988    1.2729    4.3233 H   0  0  0  0  0  0  0  0  0  0  0  0
   -1.5375   -0.7343    5.0578 H   0  0  0  0  0  0  0  0  0  0  0  0
   -0.4559   -2.1982    3.3678 H   0  0  0  0  0  0  0  0  0  0  0  0
    1.4595   -2.4170    0.6949 H   0  0  0  0  0  0  0  0  0  0  0  0
    1.2650   -0.7797    1.3589 H   0  0  0  0  0  0  0  0  0  0  0  0
    3.1009   -0.5316   -0.2559 H   0  0  0  0  0  0  0  0  0  0  0  0
    2.4802    1.1100   -2.2064 H   0  0  0  0  0  0  0  0  0  0  0  0
    2.2949   -0.3942   -3.1145 H   0  0  0  0  0  0  0  0  0  0  0  0
  1  2  1  0
  2  3  2  0
  2  4  1  0
  4  5  1  0
  5  6  2  0
  6  7  1  0
  7  8  2  0
  8  9  1  0
  9 10  2  0
 10 11  1  0
 11 12  1  0
 12 13  1  0
 13 14  2  0
 13 15  1  0
 15 16  1  0
 16 17  1  0
 17 18  1  0
 17 19  1  0
 17 20  1  0
 10  5  1  0
  1 21  1  0
  1 22  1  0
  1 23  1  0
  4 24  1  0
  6 25  1  0
  7 26  1  0
  8 27  1  0
  9 28  1  0
 12 29  1  0
 12 30  1  0
 15 31  1  0
 16 32  1  0
 16 33  1  0
M  END
$$$$
