
     RDKit          3D

 37 40  0  0  0  0  0  0  0  0999 V2000
   -4.3166    2.6975    0.5586 C   0  0  0  0  0  0  0  0  0  0  0  0
   -3.3389    1.5988    0.9359 C   0  0  0  0  0  0  0  0  0  0  0  0
   -2.6425    1.1325   -0.2185 O   0  0  0  0  0  0  0  0  0  0  0  0
   -3.1113    0.0233   -0.8744 C   0  0  0  0  0  0  0  0  0  0  0  0
   -4.3862   -0.5250   -0.7068 C   0  0  0  0  0  0  0  0  0  0  0  0
   -4.7759   -1.6502   -1.4397 C   0  0  0  0  0  0  0  0  0  0  0  0
   -3.9000   -2.2329   -2.3515 C   0  0  0  0  0  0  0  0  0  0  0  0
   -2.6299   -1.6905   -2.5363 C   0  0  0  0  0  0  0  0  0  0  0  0
   -2.2291   -0.5649   -1.8032 C   0  0  0  0  0  0  0  0  0  0  0  0
   -0.8790   -0.0318   -2.0320 C   0  0  0  0  0  0  0  0  0  0  0  0
    0.1681   -0.2164   -1.2167 C   0  0  0  0  0  0  0  0  0  0  0  0
    0.1983   -1.1449    0.2726 S   0  0  0  0  0  0  0  0  0  0  0  0
    1.8483   -0.7316    0.4850 C   0  0  0  0  0  0  0  0  0  0  0  0
    2.7609   -0.9907    1.3762 N   0  0  0  0  0  0  0  0  0  0  0  0
    3.8543   -0.3126    0.8527 C   0  0  0  0  0  0  0  0  0  0  0  0
    5.2446   -0.3075    1.5685 C   0  0  0  0  0  0  0  0  0  0  0  0
    5.5338   -0.9507    2.7569 C   0  0  0  0  0  0  0  0  0  0  0  0
    6.8958   -0.6880    3.0421 C   0  0  0  0  0  0  0  0  0  0  0  0
    7.3546    0.0981    2.0123 C   0  0  0  0  0  0  0  0  0  0  0  0
    6.3638    0.3343    1.1153 O   0  0  0  0  0  0  0  0  0  0  0  0
    3.6284    0.3335   -0.3093 N   0  0  0  0  0  0  0  0  0  0  0  0
    2.3325    0.0415   -0.5072 N   0  0  0  0  0  0  0  0  0  0  0  0
    1.4904    0.4015   -1.5371 C   0  0  0  0  0  0  0  0  0  0  0  0
    1.8226    1.0822   -2.4902 O   0  0  0  0  0  0  0  0  0  0  0  0
   -5.0852    2.3310   -0.1281 H   0  0  0  0  0  0  0  0  0  0  0  0
   -3.7962    3.5124    0.0443 H   0  0  0  0  0  0  0  0  0  0  0  0
   -4.8072    3.1011    1.4489 H   0  0  0  0  0  0  0  0  0  0  0  0
   -3.8154    0.7903    1.5012 H   0  0  0  0  0  0  0  0  0  0  0  0
   -2.5809    2.0244    1.6034 H   0  0  0  0  0  0  0  0  0  0  0  0
   -5.1103   -0.0943   -0.0240 H   0  0  0  0  0  0  0  0  0  0  0  0
   -5.7703   -2.0682   -1.3011 H   0  0  0  0  0  0  0  0  0  0  0  0
   -4.2076   -3.1062   -2.9212 H   0  0  0  0  0  0  0  0  0  0  0  0
   -1.9556   -2.1519   -3.2543 H   0  0  0  0  0  0  0  0  0  0  0  0
   -0.7764    0.5679   -2.9349 H   0  0  0  0  0  0  0  0  0  0  0  0
    4.8374   -1.5371    3.3407 H   0  0  0  0  0  0  0  0  0  0  0  0
    7.4712   -1.0286    3.8913 H   0  0  0  0  0  0  0  0  0  0  0  0
    8.3094    0.5496    1.7807 H   0  0  0  0  0  0  0  0  0  0  0  0
  1  2  1  0
  2  3  1  0
  3  4  1  0
  4  5  2  0
  5  6  1  0
  6  7  2  0
  7  8  1  0
  8  9  2  0
  9 10  1  0
 10 11  2  3
 11 12  1  0
 12 13  1  0
 13 14  2  0
 14 15  1  0
 15 16  1  0
 16 17  2  0
 17 18  1  0
 18 19  2  0
 19 20  1  0
 15 21  2  0
 21 22  1  0
 22 23  1  0
 23 24  2  0
  9  4  1  0
 23 11  1  0
 22 13  1  0
 20 16  1  0
  1 25  1  0
  1 26  1  0
  1 27  1  0
  2 28  1  0
  2 29  1  0
  5 30  1  0
  6 31  1  0
  7 32  1  0
  8 33  1  0
 10 34  1  0
 17 35  1  0
 18 36  1  0
 19 37  1  0
M  END
$$$$
