
     RDKit          3D

 45 47  0  0  0  0  0  0  0  0999 V2000
   -3.9430    2.5148    0.4255 O   0  0  0  0  0  0  0  0  0  0  0  0
   -3.4262    1.4045    0.3082 C   0  0  0  0  0  0  0  0  0  0  0  0
   -4.2237    0.1627   -0.0732 C   0  0  0  0  0  0  0  0  0  0  0  0
   -5.7021    0.4043   -0.2768 C   0  0  0  0  0  0  0  0  0  0  0  0
   -6.1958    0.7671   -1.5387 C   0  0  0  0  0  0  0  0  0  0  0  0
   -7.5604    1.0011   -1.7235 C   0  0  0  0  0  0  0  0  0  0  0  0
   -8.4361    0.8792   -0.6471 C   0  0  0  0  0  0  0  0  0  0  0  0
  -10.1173    1.1664   -0.8760 Cl  0  0  0  0  0  0  0  0  0  0  0  0
   -7.9591    0.5285    0.6137 C   0  0  0  0  0  0  0  0  0  0  0  0
   -6.5947    0.2943    0.7997 C   0  0  0  0  0  0  0  0  0  0  0  0
   -1.9860    1.2286    0.5334 C   0  0  0  0  0  0  0  0  0  0  0  0
   -1.1195    2.2384    0.9089 C   0  0  0  0  0  0  0  0  0  0  0  0
    0.1372    1.7147    1.0436 N   0  0  0  0  0  0  0  0  0  0  0  0
    0.1286    0.3738    0.7307 C   0  0  0  0  0  0  0  0  0  0  0  0
    1.2657   -0.5225    0.7587 C   0  0  0  0  0  0  0  0  0  0  0  0
    1.1512   -1.7434    0.8023 O   0  0  0  0  0  0  0  0  0  0  0  0
    2.4985    0.0953    0.6976 N   0  0  0  0  0  0  0  0  0  0  0  0
    3.7233   -0.6792    0.6618 C   0  0  0  0  0  0  0  0  0  0  0  0
    4.0051   -1.2327   -0.7350 C   0  0  0  0  0  0  0  0  0  0  0  0
    5.2294   -2.1460   -0.7667 C   0  0  0  0  0  0  0  0  0  0  0  0
    6.4674   -1.4563   -0.4711 N   0  0  0  0  0  0  0  0  0  0  0  0
    7.1435   -0.6154   -1.3096 C   0  0  0  0  0  0  0  0  0  0  0  0
    8.2388   -0.2028   -0.5872 C   0  0  0  0  0  0  0  0  0  0  0  0
    8.2432   -0.7761    0.6581 N   0  0  0  0  0  0  0  0  0  0  0  0
    7.1743   -1.5391    0.6936 C   0  0  0  0  0  0  0  0  0  0  0  0
   -1.1887    0.0525    0.4359 C   0  0  0  0  0  0  0  0  0  0  0  0
   -3.8011   -0.2538   -0.9960 H   0  0  0  0  0  0  0  0  0  0  0  0
   -4.0921   -0.5921    0.7119 H   0  0  0  0  0  0  0  0  0  0  0  0
   -5.5212    0.8780   -2.3849 H   0  0  0  0  0  0  0  0  0  0  0  0
   -7.9311    1.2833   -2.7051 H   0  0  0  0  0  0  0  0  0  0  0  0
   -8.6407    0.4418    1.4554 H   0  0  0  0  0  0  0  0  0  0  0  0
   -6.2339    0.0329    1.7922 H   0  0  0  0  0  0  0  0  0  0  0  0
   -1.3089    3.2868    1.1067 H   0  0  0  0  0  0  0  0  0  0  0  0
    0.9442    2.2325    1.3652 H   0  0  0  0  0  0  0  0  0  0  0  0
    2.5503    1.0617    0.4130 H   0  0  0  0  0  0  0  0  0  0  0  0
    4.5256   -0.0099    0.9878 H   0  0  0  0  0  0  0  0  0  0  0  0
    3.6426   -1.4959    1.3880 H   0  0  0  0  0  0  0  0  0  0  0  0
    4.1298   -0.4000   -1.4387 H   0  0  0  0  0  0  0  0  0  0  0  0
    3.1398   -1.8066   -1.0879 H   0  0  0  0  0  0  0  0  0  0  0  0
    5.3427   -2.5865   -1.7642 H   0  0  0  0  0  0  0  0  0  0  0  0
    5.1195   -2.9718   -0.0545 H   0  0  0  0  0  0  0  0  0  0  0  0
    6.8072   -0.3859   -2.3108 H   0  0  0  0  0  0  0  0  0  0  0  0
    9.0247    0.4739   -0.8972 H   0  0  0  0  0  0  0  0  0  0  0  0
    6.8703   -2.1558    1.5298 H   0  0  0  0  0  0  0  0  0  0  0  0
   -1.5213   -0.9451    0.1720 H   0  0  0  0  0  0  0  0  0  0  0  0
  1  2  2  0
  2  3  1  0
  3  4  1  0
  4  5  2  0
  5  6  1  0
  6  7  2  0
  7  8  1  0
  7  9  1  0
  9 10  2  0
  2 11  1  0
 11 12  2  0
 12 13  1  0
 13 14  1  0
 14 15  1  0
 15 16  2  0
 15 17  1  0
 17 18  1  0
 18 19  1  0
 19 20  1  0
 20 21  1  0
 21 22  1  0
 22 23  2  0
 23 24  1  0
 24 25  2  0
 14 26  2  0
 10  4  1  0
 26 11  1  0
 25 21  1  0
  3 27  1  0
  3 28  1  0
  5 29  1  0
  6 30  1  0
  9 31  1  0
 10 32  1  0
 12 33  1  0
 13 34  1  0
 17 35  1  0
 18 36  1  0
 18 37  1  0
 19 38  1  0
 19 39  1  0
 20 40  1  0
 20 41  1  0
 22 42  1  0
 23 43  1  0
 25 44  1  0
 26 45  1  0
M  END
$$$$
