
     RDKit          3D

 97 99  0  0  0  0  0  0  0  0999 V2000
   -1.4998    5.0840    0.7828 C   0  0  0  0  0  0  0  0  0  0  0  0
   -1.0507    3.7659    0.2294 C   0  0  0  0  0  0  0  0  0  0  0  0
   -0.0893    3.6225   -0.5113 O   0  0  0  0  0  0  0  0  0  0  0  0
   -1.8723    2.7808    0.6754 O   0  0  0  0  0  0  0  0  0  0  0  0
   -1.6008    1.4343    0.2059 C   0  0  1  0  0  0  0  0  0  0  0  0
   -0.9933    0.5915    1.3685 C   0  0  2  0  0  0  0  0  0  0  0  0
   -1.7841    0.7550    2.5714 O   0  0  0  0  0  0  0  0  0  0  0  0
   -2.5689   -0.2796    2.9672 C   0  0  0  0  0  0  0  0  0  0  0  0
   -3.2238    0.0435    4.2745 C   0  0  0  0  0  0  0  0  0  0  0  0
   -2.6969   -1.3453    2.3796 O   0  0  0  0  0  0  0  0  0  0  0  0
    0.4498    0.9487    1.7328 C   0  0  0  0  0  0  0  0  0  0  0  0
    0.6508    1.9731    2.8244 C   0  0  0  0  0  0  0  0  0  0  0  0
    1.5331    0.3550    1.1828 C   0  0  0  0  0  0  0  0  0  0  0  0
    1.5486   -0.6404    0.0224 C   0  0  1  0  0  0  0  0  0  0  0  0
    2.8504   -0.5617   -0.8121 C   0  0  1  0  0  0  0  0  0  0  0  0
    3.3153    0.7767   -0.9990 O   0  0  0  0  0  0  0  0  0  0  0  0
    2.6227    1.4903   -1.9288 C   0  0  0  0  0  0  0  0  0  0  0  0
    1.7340    1.0485   -2.6425 O   0  0  0  0  0  0  0  0  0  0  0  0
    3.1216    2.8876   -1.9964 C   0  0  0  0  0  0  0  0  0  0  0  0
    3.9757    3.4263   -1.0257 C   0  0  0  0  0  0  0  0  0  0  0  0
    4.4177    4.7478   -1.1386 C   0  0  0  0  0  0  0  0  0  0  0  0
    4.0124    5.5341   -2.2186 C   0  0  0  0  0  0  0  0  0  0  0  0
    3.1591    5.0049   -3.1849 C   0  0  0  0  0  0  0  0  0  0  0  0
    2.7119    3.6861   -3.0736 C   0  0  0  0  0  0  0  0  0  0  0  0
    3.8511   -1.4789   -0.0790 C   0  0  1  0  0  0  0  0  0  0  0  0
    5.0122   -0.7793    0.6153 C   0  0  0  0  0  0  0  0  0  0  0  0
    2.9932   -2.3187    0.8917 C   0  0  0  0  0  0  0  0  0  0  0  0
    1.5151   -2.1435    0.4397 C   0  0  1  0  0  0  0  0  0  0  0  0
    0.5589   -2.3025    1.5247 O   0  0  0  0  0  0  0  0  0  0  0  0
    0.6858   -3.3145    2.4244 C   0  0  0  0  0  0  0  0  0  0  0  0
   -0.4613   -3.3048    3.3852 C   0  0  0  0  0  0  0  0  0  0  0  0
    1.5870   -4.1409    2.4645 O   0  0  0  0  0  0  0  0  0  0  0  0
    1.1505   -3.1210   -0.7495 C   0  0  1  0  0  0  0  0  0  0  0  0
    0.7039   -4.3962   -0.2209 O   0  0  0  0  0  0  0  0  0  0  0  0
    1.5494   -5.4555   -0.3463 C   0  0  0  0  0  0  0  0  0  0  0  0
    0.9471   -6.6739    0.2822 C   0  0  0  0  0  0  0  0  0  0  0  0
    2.6436   -5.4298   -0.8914 O   0  0  0  0  0  0  0  0  0  0  0  0
    0.1218   -2.6484   -1.8316 C   0  0  1  0  0  0  0  0  0  0  0  0
   -0.2542   -3.8013   -2.7795 C   0  0  0  0  0  0  0  0  0  0  0  0
   -1.1684   -1.9724   -1.3862 C   0  0  0  0  0  0  0  0  0  0  0  0
   -1.5082   -0.7632   -1.8752 C   0  0  0  0  0  0  0  0  0  0  0  0
   -2.7923    0.0427   -1.7021 C   0  0  0  0  0  0  0  0  0  0  0  0
   -4.0227   -0.8750   -1.8944 C   0  0  0  0  0  0  0  0  0  0  0  0
   -2.8256    1.0781   -2.8596 C   0  0  0  0  0  0  0  0  0  0  0  0
   -2.9247    0.7822   -0.3165 C   0  0  2  0  0  0  0  0  0  0  0  0
   -3.9665    1.7911   -0.4544 O   0  0  0  0  0  0  0  0  0  0  0  0
   -4.7634    2.0141    0.6222 C   0  0  0  0  0  0  0  0  0  0  0  0
   -5.7110    3.1381    0.3293 C   0  0  0  0  0  0  0  0  0  0  0  0
   -4.7153    1.4152    1.6854 O   0  0  0  0  0  0  0  0  0  0  0  0
   -1.5659    5.0278    1.8730 H   0  0  0  0  0  0  0  0  0  0  0  0
   -0.7684    5.8539    0.5222 H   0  0  0  0  0  0  0  0  0  0  0  0
   -2.4672    5.3538    0.3533 H   0  0  0  0  0  0  0  0  0  0  0  0
   -0.8808    1.4668   -0.6168 H   0  0  0  0  0  0  0  0  0  0  0  0
   -1.0041   -0.4574    1.0643 H   0  0  0  0  0  0  0  0  0  0  0  0
   -3.7194    1.0152    4.2211 H   0  0  0  0  0  0  0  0  0  0  0  0
   -3.9819   -0.7112    4.4963 H   0  0  0  0  0  0  0  0  0  0  0  0
   -2.4750    0.0436    5.0698 H   0  0  0  0  0  0  0  0  0  0  0  0
    1.6998    2.2745    2.9205 H   0  0  0  0  0  0  0  0  0  0  0  0
    0.0779    2.8822    2.6253 H   0  0  0  0  0  0  0  0  0  0  0  0
    0.3394    1.5657    3.7919 H   0  0  0  0  0  0  0  0  0  0  0  0
    2.5112    0.6441    1.5623 H   0  0  0  0  0  0  0  0  0  0  0  0
    0.7175   -0.3611   -0.6158 H   0  0  0  0  0  0  0  0  0  0  0  0
    2.6870   -1.0118   -1.8006 H   0  0  0  0  0  0  0  0  0  0  0  0
    4.2921    2.8362   -0.1688 H   0  0  0  0  0  0  0  0  0  0  0  0
    5.0742    5.1667   -0.3795 H   0  0  0  0  0  0  0  0  0  0  0  0
    4.3557    6.5638   -2.2991 H   0  0  0  0  0  0  0  0  0  0  0  0
    2.8369    5.6184   -4.0224 H   0  0  0  0  0  0  0  0  0  0  0  0
    2.0346    3.2861   -3.8261 H   0  0  0  0  0  0  0  0  0  0  0  0
    4.2857   -2.1582   -0.8247 H   0  0  0  0  0  0  0  0  0  0  0  0
    5.6337   -0.2480   -0.1115 H   0  0  0  0  0  0  0  0  0  0  0  0
    5.6474   -1.5101    1.1246 H   0  0  0  0  0  0  0  0  0  0  0  0
    4.6725   -0.0568    1.3607 H   0  0  0  0  0  0  0  0  0  0  0  0
    3.1226   -1.9687    1.9235 H   0  0  0  0  0  0  0  0  0  0  0  0
    3.3176   -3.3644    0.8728 H   0  0  0  0  0  0  0  0  0  0  0  0
   -1.3856   -3.5361    2.8531 H   0  0  0  0  0  0  0  0  0  0  0  0
   -0.5207   -2.3353    3.8848 H   0  0  0  0  0  0  0  0  0  0  0  0
   -0.3036   -4.0742    4.1470 H   0  0  0  0  0  0  0  0  0  0  0  0
    2.0734   -3.2782   -1.3242 H   0  0  0  0  0  0  0  0  0  0  0  0
    1.4729   -7.5637   -0.0795 H   0  0  0  0  0  0  0  0  0  0  0  0
   -0.1026   -6.7632   -0.0069 H   0  0  0  0  0  0  0  0  0  0  0  0
    1.0369   -6.6159    1.3687 H   0  0  0  0  0  0  0  0  0  0  0  0
    0.6728   -1.9294   -2.4540 H   0  0  0  0  0  0  0  0  0  0  0  0
   -0.8275   -3.4307   -3.6375 H   0  0  0  0  0  0  0  0  0  0  0  0
   -0.8655   -4.5595   -2.2773 H   0  0  0  0  0  0  0  0  0  0  0  0
    0.6439   -4.2879   -3.1744 H   0  0  0  0  0  0  0  0  0  0  0  0
   -1.8325   -2.5238   -0.7250 H   0  0  0  0  0  0  0  0  0  0  0  0
   -0.7765   -0.2808   -2.5322 H   0  0  0  0  0  0  0  0  0  0  0  0
   -4.9530   -0.2997   -1.8864 H   0  0  0  0  0  0  0  0  0  0  0  0
   -4.0972   -1.6221   -1.0964 H   0  0  0  0  0  0  0  0  0  0  0  0
   -3.9747   -1.4106   -2.8496 H   0  0  0  0  0  0  0  0  0  0  0  0
   -3.7810    1.6111   -2.9046 H   0  0  0  0  0  0  0  0  0  0  0  0
   -2.6927    0.5904   -3.8337 H   0  0  0  0  0  0  0  0  0  0  0  0
   -2.0312    1.8272   -2.7483 H   0  0  0  0  0  0  0  0  0  0  0  0
   -3.2689    0.0259    0.3937 H   0  0  0  0  0  0  0  0  0  0  0  0
   -6.4617    3.1936    1.1231 H   0  0  0  0  0  0  0  0  0  0  0  0
   -5.1648    4.0831    0.2960 H   0  0  0  0  0  0  0  0  0  0  0  0
   -6.2325    2.9569   -0.6159 H   0  0  0  0  0  0  0  0  0  0  0  0
  1  2  1  0
  2  3  2  0
  2  4  1  0
  4  5  1  0
  5  6  1  0
  6  7  1  0
  7  8  1  0
  8  9  1  0
  8 10  2  0
  6 11  1  0
 11 12  1  0
 11 13  2  0
 13 14  1  0
 14 15  1  0
 15 16  1  0
 16 17  1  0
 17 18  2  0
 17 19  1  0
 19 20  2  0
 20 21  1  0
 21 22  2  0
 22 23  1  0
 23 24  2  0
 15 25  1  0
 25 26  1  0
 25 27  1  0
 27 28  1  0
 28 29  1  1
 29 30  1  0
 30 31  1  0
 30 32  2  0
 28 33  1  0
 33 34  1  0
 34 35  1  0
 35 36  1  0
 35 37  2  0
 33 38  1  0
 38 39  1  0
 38 40  1  0
 40 41  2  0
 41 42  1  0
 42 43  1  0
 42 44  1  0
 42 45  1  0
 45 46  1  0
 46 47  1  0
 47 48  1  0
 47 49  2  0
 45  5  1  0
 28 14  1  0
 24 19  1  0
  1 50  1  0
  1 51  1  0
  1 52  1  0
  5 53  1  6
  6 54  1  6
  9 55  1  0
  9 56  1  0
  9 57  1  0
 12 58  1  0
 12 59  1  0
 12 60  1  0
 13 61  1  0
 14 62  1  6
 15 63  1  6
 20 64  1  0
 21 65  1  0
 22 66  1  0
 23 67  1  0
 24 68  1  0
 25 69  1  6
 26 70  1  0
 26 71  1  0
 26 72  1  0
 27 73  1  0
 27 74  1  0
 31 75  1  0
 31 76  1  0
 31 77  1  0
 33 78  1  6
 36 79  1  0
 36 80  1  0
 36 81  1  0
 38 82  1  6
 39 83  1  0
 39 84  1  0
 39 85  1  0
 40 86  1  0
 41 87  1  0
 43 88  1  0
 43 89  1  0
 43 90  1  0
 44 91  1  0
 44 92  1  0
 44 93  1  0
 45 94  1  1
 48 95  1  0
 48 96  1  0
 48 97  1  0
M  END
$$$$
