
     RDKit          3D

 47 49  0  0  0  0  0  0  0  0999 V2000
    6.4921    1.7857    1.7364 C   0  0  0  0  0  0  0  0  0  0  0  0
    7.0092    0.6862    0.8208 C   0  0  0  0  0  0  0  0  0  0  0  0
    5.8842   -0.1067    0.2051 C   0  0  0  0  0  0  0  0  0  0  0  0
    5.2654   -1.1358    0.9269 C   0  0  0  0  0  0  0  0  0  0  0  0
    4.2188   -1.8656    0.3602 C   0  0  0  0  0  0  0  0  0  0  0  0
    3.7653   -1.5689   -0.9264 C   0  0  0  0  0  0  0  0  0  0  0  0
    2.7118   -2.2972   -1.4920 N   0  0  0  0  0  0  0  0  0  0  0  0
    1.5017   -1.9045   -1.2897 C   0  0  0  0  0  0  0  0  0  0  0  0
    1.0862   -0.8281   -0.5718 N   0  0  0  0  0  0  0  0  0  0  0  0
   -0.2579   -0.6056   -0.4721 C   0  0  0  0  0  0  0  0  0  0  0  0
   -0.7465    0.3245    0.1507 O   0  0  0  0  0  0  0  0  0  0  0  0
   -1.0014   -1.6574   -1.2296 C   0  0  0  0  0  0  0  0  0  0  0  0
   -2.3271   -1.8088   -1.3570 C   0  0  0  0  0  0  0  0  0  0  0  0
   -3.3581   -0.9466   -0.7723 C   0  0  0  0  0  0  0  0  0  0  0  0
   -4.1897   -1.4660    0.2276 C   0  0  0  0  0  0  0  0  0  0  0  0
   -5.1952   -0.6757    0.7847 C   0  0  0  0  0  0  0  0  0  0  0  0
   -5.9753   -1.2702    1.7407 O   0  0  0  0  0  0  0  0  0  0  0  0
   -5.9294   -0.5566    2.9780 C   0  0  0  0  0  0  0  0  0  0  0  0
   -5.3994    0.6200    0.3042 C   0  0  0  0  0  0  0  0  0  0  0  0
   -6.4226    1.3945    0.7921 O   0  0  0  0  0  0  0  0  0  0  0  0
   -4.5803    1.1511   -0.7034 C   0  0  0  0  0  0  0  0  0  0  0  0
   -4.9021    2.4302   -1.0891 O   0  0  0  0  0  0  0  0  0  0  0  0
   -4.0665    3.0322   -2.0704 C   0  0  0  0  0  0  0  0  0  0  0  0
   -3.5579    0.3649   -1.2385 C   0  0  0  0  0  0  0  0  0  0  0  0
    0.1319   -2.7562   -1.9529 S   0  0  0  0  0  0  0  0  0  0  0  0
    4.3884   -0.5540   -1.6534 C   0  0  0  0  0  0  0  0  0  0  0  0
    5.4360    0.1790   -1.0907 C   0  0  0  0  0  0  0  0  0  0  0  0
    5.9026    1.3722    2.5619 H   0  0  0  0  0  0  0  0  0  0  0  0
    5.8569    2.4913    1.1875 H   0  0  0  0  0  0  0  0  0  0  0  0
    7.3291    2.3455    2.1675 H   0  0  0  0  0  0  0  0  0  0  0  0
    7.6669    0.0106    1.3834 H   0  0  0  0  0  0  0  0  0  0  0  0
    7.6303    1.1279    0.0332 H   0  0  0  0  0  0  0  0  0  0  0  0
    5.6019   -1.3813    1.9323 H   0  0  0  0  0  0  0  0  0  0  0  0
    3.7593   -2.6728    0.9220 H   0  0  0  0  0  0  0  0  0  0  0  0
    1.7319   -0.2115   -0.1025 H   0  0  0  0  0  0  0  0  0  0  0  0
   -2.7257   -2.6498   -1.9241 H   0  0  0  0  0  0  0  0  0  0  0  0
   -4.0567   -2.4842    0.5878 H   0  0  0  0  0  0  0  0  0  0  0  0
   -6.6419    0.2784    2.9837 H   0  0  0  0  0  0  0  0  0  0  0  0
   -4.9142   -0.2052    3.2127 H   0  0  0  0  0  0  0  0  0  0  0  0
   -6.2342   -1.2504    3.7701 H   0  0  0  0  0  0  0  0  0  0  0  0
   -6.3474    2.2429    0.3135 H   0  0  0  0  0  0  0  0  0  0  0  0
   -4.0913    2.4701   -3.0087 H   0  0  0  0  0  0  0  0  0  0  0  0
   -3.0397    3.1453   -1.7004 H   0  0  0  0  0  0  0  0  0  0  0  0
   -4.4663    4.0316   -2.2767 H   0  0  0  0  0  0  0  0  0  0  0  0
   -2.9098    0.7452   -2.0220 H   0  0  0  0  0  0  0  0  0  0  0  0
    4.0607   -0.3362   -2.6660 H   0  0  0  0  0  0  0  0  0  0  0  0
    5.9060    0.9663   -1.6752 H   0  0  0  0  0  0  0  0  0  0  0  0
  1  2  1  0
  2  3  1  0
  3  4  2  0
  4  5  1  0
  5  6  2  0
  6  7  1  0
  7  8  2  3
  8  9  1  0
  9 10  1  0
 10 11  2  0
 10 12  1  0
 12 13  2  3
 13 14  1  0
 14 15  2  0
 15 16  1  0
 16 17  1  0
 17 18  1  0
 16 19  2  0
 19 20  1  0
 19 21  1  0
 21 22  1  0
 22 23  1  0
 21 24  2  0
 12 25  1  0
  6 26  1  0
 26 27  2  0
 27  3  1  0
 25  8  1  0
 24 14  1  0
  1 28  1  0
  1 29  1  0
  1 30  1  0
  2 31  1  0
  2 32  1  0
  4 33  1  0
  5 34  1  0
  9 35  1  0
 13 36  1  0
 15 37  1  0
 18 38  1  0
 18 39  1  0
 18 40  1  0
 20 41  1  0
 23 42  1  0
 23 43  1  0
 23 44  1  0
 24 45  1  0
 26 46  1  0
 27 47  1  0
M  END
$$$$
