
     RDKit          3D

 37 39  0  0  0  0  0  0  0  0999 V2000
   -8.0505    1.1351   -0.9154 C   0  0  0  0  0  0  0  0  0  0  0  0
   -7.5273    0.0465    0.0082 C   0  0  0  0  0  0  0  0  0  0  0  0
   -6.0657    0.2026    0.2656 C   0  0  0  0  0  0  0  0  0  0  0  0
   -5.5491    0.9694    1.2030 N   0  0  0  0  0  0  0  0  0  0  0  0
   -4.1666    0.9221    1.2118 N   0  0  0  0  0  0  0  0  0  0  0  0
   -3.7013    0.1237    0.2850 C   0  0  0  0  0  0  0  0  0  0  0  0
   -2.4165   -0.2075   -0.0480 N   0  0  0  0  0  0  0  0  0  0  0  0
   -1.3264    0.3158    0.6243 C   0  0  0  0  0  0  0  0  0  0  0  0
   -1.3707    1.1057    1.5602 O   0  0  0  0  0  0  0  0  0  0  0  0
   -0.0064   -0.2186    0.0515 C   0  0  0  0  0  0  0  0  0  0  0  0
    1.1172    0.3123    0.7339 O   0  0  0  0  0  0  0  0  0  0  0  0
    2.3555   -0.0882    0.3162 C   0  0  0  0  0  0  0  0  0  0  0  0
    2.6257   -0.9750   -0.7236 C   0  0  0  0  0  0  0  0  0  0  0  0
    3.9493   -1.2973   -1.0445 C   0  0  0  0  0  0  0  0  0  0  0  0
    5.0218   -0.7388   -0.3321 C   0  0  0  0  0  0  0  0  0  0  0  0
    6.3549   -1.0531   -0.6431 C   0  0  0  0  0  0  0  0  0  0  0  0
    7.4076   -0.4868    0.0777 C   0  0  0  0  0  0  0  0  0  0  0  0
    7.1413    0.3996    1.1171 C   0  0  0  0  0  0  0  0  0  0  0  0
    5.8218    0.7217    1.4381 C   0  0  0  0  0  0  0  0  0  0  0  0
    4.7517    0.1604    0.7224 C   0  0  0  0  0  0  0  0  0  0  0  0
    3.4177    0.4729    1.0313 C   0  0  0  0  0  0  0  0  0  0  0  0
   -4.8934   -0.6368   -0.6743 S   0  0  0  0  0  0  0  0  0  0  0  0
   -9.1267    1.0132   -1.0735 H   0  0  0  0  0  0  0  0  0  0  0  0
   -7.8799    2.1305   -0.4911 H   0  0  0  0  0  0  0  0  0  0  0  0
   -7.5576    1.0982   -1.8928 H   0  0  0  0  0  0  0  0  0  0  0  0
   -8.0637    0.0956    0.9633 H   0  0  0  0  0  0  0  0  0  0  0  0
   -7.7441   -0.9378   -0.4228 H   0  0  0  0  0  0  0  0  0  0  0  0
   -2.3006   -0.8550   -0.8118 H   0  0  0  0  0  0  0  0  0  0  0  0
    0.0282    0.0677   -1.0069 H   0  0  0  0  0  0  0  0  0  0  0  0
   -0.0259   -1.3107    0.1546 H   0  0  0  0  0  0  0  0  0  0  0  0
    1.8376   -1.4363   -1.3075 H   0  0  0  0  0  0  0  0  0  0  0  0
    4.1387   -1.9920   -1.8600 H   0  0  0  0  0  0  0  0  0  0  0  0
    6.5836   -1.7435   -1.4517 H   0  0  0  0  0  0  0  0  0  0  0  0
    8.4349   -0.7382   -0.1728 H   0  0  0  0  0  0  0  0  0  0  0  0
    7.9595    0.8417    1.6797 H   0  0  0  0  0  0  0  0  0  0  0  0
    5.6321    1.4164    2.2536 H   0  0  0  0  0  0  0  0  0  0  0  0
    3.1930    1.1645    1.8415 H   0  0  0  0  0  0  0  0  0  0  0  0
  1  2  1  0
  2  3  1  0
  3  4  2  0
  4  5  1  0
  5  6  2  0
  6  7  1  0
  7  8  1  0
  8  9  2  0
  8 10  1  0
 10 11  1  0
 11 12  1  0
 12 13  2  0
 13 14  1  0
 14 15  2  0
 15 16  1  0
 16 17  2  0
 17 18  1  0
 18 19  2  0
 19 20  1  0
 20 21  2  0
  6 22  1  0
 22  3  1  0
 21 12  1  0
 20 15  1  0
  1 23  1  0
  1 24  1  0
  1 25  1  0
  2 26  1  0
  2 27  1  0
  7 28  1  0
 10 29  1  0
 10 30  1  0
 13 31  1  0
 14 32  1  0
 16 33  1  0
 17 34  1  0
 18 35  1  0
 19 36  1  0
 21 37  1  0
M  END
$$$$
