
     RDKit          3D

 29 30  0  0  0  0  0  0  0  0999 V2000
    4.0829    0.0974   -1.3489 C   0  0  0  0  0  0  0  0  0  0  0  0
    2.7982    0.2462   -0.5537 C   0  0  0  0  0  0  0  0  0  0  0  0
    2.8626   -0.6224    0.6202 N   0  0  0  0  0  0  0  0  0  0  0  0
    1.9103   -0.2847    1.9597 S   0  0  0  0  0  6  0  0  0  0  0  0
    2.0663   -1.4048    2.8617 O   0  0  0  0  0  0  0  0  0  0  0  0
    2.1777    1.0728    2.3787 O   0  0  0  0  0  0  0  0  0  0  0  0
    0.2667   -0.3503    1.2924 C   0  0  0  0  0  0  0  0  0  0  0  0
   -0.3976   -1.5894    1.2213 C   0  0  0  0  0  0  0  0  0  0  0  0
   -1.6982   -1.6556    0.7192 C   0  0  0  0  0  0  0  0  0  0  0  0
   -2.2936   -0.4791    0.2933 C   0  0  0  0  0  0  0  0  0  0  0  0
   -1.6307    0.7447    0.3628 C   0  0  0  0  0  0  0  0  0  0  0  0
   -0.3559    0.8346    0.8851 C   0  0  0  0  0  0  0  0  0  0  0  0
   -2.4081    1.8426   -0.0812 N   0  0  0  0  0  0  0  0  0  0  0  0
   -3.6050    1.2003   -0.6669 C   0  0  0  0  0  0  0  0  0  0  0  0
   -3.6803   -0.2633   -0.1993 C   0  0  0  0  0  0  0  0  0  0  0  0
    4.0580    0.7357   -2.2375 H   0  0  0  0  0  0  0  0  0  0  0  0
    4.9523    0.3814   -0.7464 H   0  0  0  0  0  0  0  0  0  0  0  0
    4.2263   -0.9382   -1.6752 H   0  0  0  0  0  0  0  0  0  0  0  0
    2.6776    1.2934   -0.2605 H   0  0  0  0  0  0  0  0  0  0  0  0
    1.9490   -0.0467   -1.1789 H   0  0  0  0  0  0  0  0  0  0  0  0
    3.0456   -1.6152    0.4881 H   0  0  0  0  0  0  0  0  0  0  0  0
    0.0901   -2.4972    1.5711 H   0  0  0  0  0  0  0  0  0  0  0  0
   -2.2304   -2.6010    0.6806 H   0  0  0  0  0  0  0  0  0  0  0  0
    0.1448    1.7948    0.9587 H   0  0  0  0  0  0  0  0  0  0  0  0
   -2.6388    2.4232    0.7253 H   0  0  0  0  0  0  0  0  0  0  0  0
   -4.5129    1.7521   -0.3997 H   0  0  0  0  0  0  0  0  0  0  0  0
   -3.5128    1.2369   -1.7597 H   0  0  0  0  0  0  0  0  0  0  0  0
   -3.9480   -0.9341   -1.0204 H   0  0  0  0  0  0  0  0  0  0  0  0
   -4.3963   -0.3739    0.6216 H   0  0  0  0  0  0  0  0  0  0  0  0
  1  2  1  0
  2  3  1  0
  3  4  1  0
  4  5  2  0
  4  6  2  0
  4  7  1  0
  7  8  2  0
  8  9  1  0
  9 10  2  0
 10 11  1  0
 11 12  2  0
 11 13  1  0
 13 14  1  0
 14 15  1  0
 12  7  1  0
 15 10  1  0
  1 16  1  0
  1 17  1  0
  1 18  1  0
  2 19  1  0
  2 20  1  0
  3 21  1  0
  8 22  1  0
  9 23  1  0
 12 24  1  0
 13 25  1  0
 14 26  1  0
 14 27  1  0
 15 28  1  0
 15 29  1  0
M  END
$$$$
