
     RDKit          3D

 48 51  0  0  0  0  0  0  0  0999 V2000
   -0.2919   -2.8376    1.5179 C   0  0  0  0  0  0  0  0  0  0  0  0
   -0.6592   -1.5058    0.8816 C   0  0  0  0  0  0  0  0  0  0  0  0
   -0.9488   -1.5723   -0.5355 N   0  0  0  0  0  0  0  0  0  0  0  0
   -2.1320   -2.0070   -1.0855 C   0  0  0  0  0  0  0  0  0  0  0  0
   -3.3717   -2.8487   -0.2226 S   0  0  0  0  0  0  0  0  0  0  0  0
   -4.8343   -1.9104   -0.7619 C   0  0  0  0  0  0  0  0  0  0  0  0
   -4.9047   -0.5468   -0.1137 C   0  0  0  0  0  0  0  0  0  0  0  0
   -5.4046   -0.4020    1.1914 C   0  0  0  0  0  0  0  0  0  0  0  0
   -5.4437    0.8549    1.7967 C   0  0  0  0  0  0  0  0  0  0  0  0
   -4.9809    1.9658    1.1019 C   0  0  0  0  0  0  0  0  0  0  0  0
   -5.0147    3.1701    1.6871 F   0  0  0  0  0  0  0  0  0  0  0  0
   -4.4795    1.8451   -0.1880 C   0  0  0  0  0  0  0  0  0  0  0  0
   -4.4407    0.5901   -0.7965 C   0  0  0  0  0  0  0  0  0  0  0  0
   -2.2187   -1.6237   -2.3344 N   0  0  0  0  0  0  0  0  0  0  0  0
   -1.0980   -0.8962   -2.6164 N   0  0  0  0  0  0  0  0  0  0  0  0
   -0.3048   -0.9032   -1.5588 C   0  0  0  0  0  0  0  0  0  0  0  0
    1.0655   -0.1539   -1.6284 C   0  0  0  0  0  0  0  0  0  0  0  0
    1.3936    0.7279   -2.6727 C   0  0  0  0  0  0  0  0  0  0  0  0
    2.5990    1.2673   -2.5231 N   0  0  0  0  0  0  0  0  0  0  0  0
    3.0380    0.8050   -1.3216 N   0  0  0  0  0  0  0  0  0  0  0  0
    4.1884    1.4191   -0.7358 C   0  0  0  0  0  0  0  0  0  0  0  0
    5.0340    2.1907   -1.5522 C   0  0  0  0  0  0  0  0  0  0  0  0
    6.1612    2.8189   -1.0179 C   0  0  0  0  0  0  0  0  0  0  0  0
    6.4485    2.6975    0.3382 C   0  0  0  0  0  0  0  0  0  0  0  0
    5.6031    1.9579    1.1619 C   0  0  0  0  0  0  0  0  0  0  0  0
    4.4725    1.3258    0.6323 C   0  0  0  0  0  0  0  0  0  0  0  0
    2.2195   -0.2189   -0.8685 C   0  0  0  0  0  0  0  0  0  0  0  0
    2.6965   -1.2278    0.0776 C   0  0  0  0  0  0  0  0  0  0  0  0
    4.0346   -1.4287    0.0332 F   0  0  0  0  0  0  0  0  0  0  0  0
    2.1352   -2.4362   -0.1760 F   0  0  0  0  0  0  0  0  0  0  0  0
    2.3790   -0.9193    1.3590 F   0  0  0  0  0  0  0  0  0  0  0  0
    0.1265   -2.6731    2.5161 H   0  0  0  0  0  0  0  0  0  0  0  0
    0.4355   -3.3958    0.9248 H   0  0  0  0  0  0  0  0  0  0  0  0
   -1.1683   -3.4809    1.6371 H   0  0  0  0  0  0  0  0  0  0  0  0
    0.1347   -0.7738    1.0317 H   0  0  0  0  0  0  0  0  0  0  0  0
   -1.5398   -1.0836    1.3808 H   0  0  0  0  0  0  0  0  0  0  0  0
   -4.8595   -1.8273   -1.8544 H   0  0  0  0  0  0  0  0  0  0  0  0
   -5.7260   -2.4840   -0.4836 H   0  0  0  0  0  0  0  0  0  0  0  0
   -5.7638   -1.2690    1.7423 H   0  0  0  0  0  0  0  0  0  0  0  0
   -5.8305    0.9745    2.8036 H   0  0  0  0  0  0  0  0  0  0  0  0
   -4.1217    2.7256   -0.7122 H   0  0  0  0  0  0  0  0  0  0  0  0
   -4.0393    0.5010   -1.8058 H   0  0  0  0  0  0  0  0  0  0  0  0
    0.7948    1.0012   -3.5341 H   0  0  0  0  0  0  0  0  0  0  0  0
    4.8349    2.3039   -2.6173 H   0  0  0  0  0  0  0  0  0  0  0  0
    6.8117    3.4040   -1.6633 H   0  0  0  0  0  0  0  0  0  0  0  0
    7.3245    3.1880    0.7549 H   0  0  0  0  0  0  0  0  0  0  0  0
    5.8184    1.8815    2.2254 H   0  0  0  0  0  0  0  0  0  0  0  0
    3.8269    0.8100    1.3328 H   0  0  0  0  0  0  0  0  0  0  0  0
  1  2  1  0
  2  3  1  0
  3  4  1  0
  4  5  1  0
  5  6  1  0
  6  7  1  0
  7  8  2  0
  8  9  1  0
  9 10  2  0
 10 11  1  0
 10 12  1  0
 12 13  2  0
  4 14  2  0
 14 15  1  0
 15 16  2  0
 16 17  1  0
 17 18  1  0
 18 19  2  0
 19 20  1  0
 20 21  1  0
 21 22  2  0
 22 23  1  0
 23 24  2  0
 24 25  1  0
 25 26  2  0
 20 27  1  0
 27 28  1  0
 28 29  1  0
 28 30  1  0
 28 31  1  0
 16  3  1  0
 27 17  2  0
 13  7  1  0
 26 21  1  0
  1 32  1  0
  1 33  1  0
  1 34  1  0
  2 35  1  0
  2 36  1  0
  6 37  1  0
  6 38  1  0
  8 39  1  0
  9 40  1  0
 12 41  1  0
 13 42  1  0
 18 43  1  0
 22 44  1  0
 23 45  1  0
 24 46  1  0
 25 47  1  0
 26 48  1  0
M  END
$$$$
