
     RDKit          3D

 57 59  0  0  0  0  0  0  0  0999 V2000
    9.0133    2.3963    1.1019 C   0  0  0  0  0  0  0  0  0  0  0  0
    8.3544    1.6769    2.1371 O   0  0  0  0  0  0  0  0  0  0  0  0
    7.1704    1.0743    1.8146 C   0  0  0  0  0  0  0  0  0  0  0  0
    6.5878    0.3393    2.8476 C   0  0  0  0  0  0  0  0  0  0  0  0
    5.3770   -0.3277    2.6495 C   0  0  0  0  0  0  0  0  0  0  0  0
    4.7320   -0.2723    1.4140 C   0  0  0  0  0  0  0  0  0  0  0  0
    3.5602   -0.9743    1.3457 O   0  0  0  0  0  0  0  0  0  0  0  0
    2.9055   -1.0263    0.0715 C   0  0  0  0  0  0  0  0  0  0  0  0
    1.6780   -1.9245    0.2127 C   0  0  0  0  0  0  0  0  0  0  0  0
    0.8851   -2.2752   -1.3878 S   0  0  0  0  0  0  0  0  0  0  0  0
    0.0308   -0.8016   -1.6798 C   0  0  0  0  0  0  0  0  0  0  0  0
    0.0818    0.2881   -0.9532 N   0  0  0  0  0  0  0  0  0  0  0  0
   -0.7471    1.2150   -1.5337 N   0  0  0  0  0  0  0  0  0  0  0  0
   -1.2896    0.6715   -2.6068 C   0  0  0  0  0  0  0  0  0  0  0  0
   -2.2629    1.3558   -3.5036 C   0  0  0  0  0  0  0  0  0  0  0  0
   -3.7011    0.8355   -3.4026 C   0  0  0  0  0  0  0  0  0  0  0  0
   -4.1894    0.7033   -2.0424 N   0  0  0  0  0  0  0  0  0  0  0  0
   -4.1456   -0.5158   -1.3905 C   0  0  0  0  0  0  0  0  0  0  0  0
   -3.7937   -1.5554   -1.9396 O   0  0  0  0  0  0  0  0  0  0  0  0
   -4.5259   -0.5181    0.0480 C   0  0  0  0  0  0  0  0  0  0  0  0
   -5.4220    0.4167    0.5827 C   0  0  0  0  0  0  0  0  0  0  0  0
   -5.7778    0.3614    1.9371 C   0  0  0  0  0  0  0  0  0  0  0  0
   -5.2480   -0.6308    2.7626 C   0  0  0  0  0  0  0  0  0  0  0  0
   -5.5306   -0.8071    4.0897 O   0  0  0  0  0  0  0  0  0  0  0  0
   -6.3383    0.1831    4.7154 C   0  0  0  0  0  0  0  0  0  0  0  0
   -4.3613   -1.5678    2.2233 C   0  0  0  0  0  0  0  0  0  0  0  0
   -4.0013   -1.5160    0.8738 C   0  0  0  0  0  0  0  0  0  0  0  0
   -0.8073   -0.6096   -2.7465 N   0  0  0  0  0  0  0  0  0  0  0  0
   -1.1299   -1.5701   -3.7704 C   0  0  0  0  0  0  0  0  0  0  0  0
    5.3077    0.4688    0.3823 C   0  0  0  0  0  0  0  0  0  0  0  0
    6.5232    1.1392    0.5815 C   0  0  0  0  0  0  0  0  0  0  0  0
    9.2666    1.7382    0.2660 H   0  0  0  0  0  0  0  0  0  0  0  0
    8.4109    3.2469    0.7669 H   0  0  0  0  0  0  0  0  0  0  0  0
    9.9479    2.7917    1.5095 H   0  0  0  0  0  0  0  0  0  0  0  0
    7.0803    0.2838    3.8144 H   0  0  0  0  0  0  0  0  0  0  0  0
    4.9364   -0.8957    3.4655 H   0  0  0  0  0  0  0  0  0  0  0  0
    3.5922   -1.4520   -0.6715 H   0  0  0  0  0  0  0  0  0  0  0  0
    2.6069   -0.0158   -0.2279 H   0  0  0  0  0  0  0  0  0  0  0  0
    1.9839   -2.8844    0.6462 H   0  0  0  0  0  0  0  0  0  0  0  0
    0.9587   -1.4963    0.9197 H   0  0  0  0  0  0  0  0  0  0  0  0
   -2.2653    2.4223   -3.2401 H   0  0  0  0  0  0  0  0  0  0  0  0
   -1.9219    1.3006   -4.5443 H   0  0  0  0  0  0  0  0  0  0  0  0
   -4.3709    1.5359   -3.9123 H   0  0  0  0  0  0  0  0  0  0  0  0
   -3.7957   -0.1271   -3.9157 H   0  0  0  0  0  0  0  0  0  0  0  0
   -4.2405    1.5435   -1.4787 H   0  0  0  0  0  0  0  0  0  0  0  0
   -5.8813    1.1747   -0.0432 H   0  0  0  0  0  0  0  0  0  0  0  0
   -6.4831    1.0975    2.3106 H   0  0  0  0  0  0  0  0  0  0  0  0
   -5.8618    1.1680    4.6666 H   0  0  0  0  0  0  0  0  0  0  0  0
   -7.3416    0.2061    4.2778 H   0  0  0  0  0  0  0  0  0  0  0  0
   -6.4436   -0.0879    5.7713 H   0  0  0  0  0  0  0  0  0  0  0  0
   -3.9514   -2.3485    2.8582 H   0  0  0  0  0  0  0  0  0  0  0  0
   -3.3125   -2.2552    0.4722 H   0  0  0  0  0  0  0  0  0  0  0  0
   -1.8259   -1.1439   -4.4935 H   0  0  0  0  0  0  0  0  0  0  0  0
   -0.2084   -1.8464   -4.2905 H   0  0  0  0  0  0  0  0  0  0  0  0
   -1.5832   -2.4469   -3.3012 H   0  0  0  0  0  0  0  0  0  0  0  0
    4.8358    0.5532   -0.5909 H   0  0  0  0  0  0  0  0  0  0  0  0
    6.9323    1.7056   -0.2489 H   0  0  0  0  0  0  0  0  0  0  0  0
  1  2  1  0
  2  3  1  0
  3  4  2  0
  4  5  1  0
  5  6  2  0
  6  7  1  0
  7  8  1  0
  8  9  1  0
  9 10  1  0
 10 11  1  0
 11 12  2  0
 12 13  1  0
 13 14  2  0
 14 15  1  0
 15 16  1  0
 16 17  1  0
 17 18  1  0
 18 19  2  0
 18 20  1  0
 20 21  2  0
 21 22  1  0
 22 23  2  0
 23 24  1  0
 24 25  1  0
 23 26  1  0
 26 27  2  0
 14 28  1  0
 28 29  1  0
  6 30  1  0
 30 31  2  0
 31  3  1  0
 28 11  1  0
 27 20  1  0
  1 32  1  0
  1 33  1  0
  1 34  1  0
  4 35  1  0
  5 36  1  0
  8 37  1  0
  8 38  1  0
  9 39  1  0
  9 40  1  0
 15 41  1  0
 15 42  1  0
 16 43  1  0
 16 44  1  0
 17 45  1  0
 21 46  1  0
 22 47  1  0
 25 48  1  0
 25 49  1  0
 25 50  1  0
 26 51  1  0
 27 52  1  0
 29 53  1  0
 29 54  1  0
 29 55  1  0
 30 56  1  0
 31 57  1  0
M  END
$$$$
