
     RDKit          3D

 54 57  0  0  0  0  0  0  0  0999 V2000
    0.4374    0.7579   -2.5424 O   0  0  0  0  0  0  0  0  0  0  0  0
   -0.2208    1.2583   -1.6345 C   0  0  0  0  0  0  0  0  0  0  0  0
   -1.4601    2.1097   -1.9420 C   0  0  0  0  0  0  0  0  0  0  0  0
   -2.6998    1.5132   -1.5559 O   0  0  0  0  0  0  0  0  0  0  0  0
   -3.0248    1.6351   -0.2472 C   0  0  0  0  0  0  0  0  0  0  0  0
   -2.3227    2.1653    0.6018 O   0  0  0  0  0  0  0  0  0  0  0  0
   -4.3496    1.0218    0.0340 C   0  0  0  0  0  0  0  0  0  0  0  0
   -5.0963    0.3623   -0.9541 C   0  0  0  0  0  0  0  0  0  0  0  0
   -6.3389   -0.1956   -0.6399 C   0  0  0  0  0  0  0  0  0  0  0  0
   -6.8386   -0.0951    0.6565 C   0  0  0  0  0  0  0  0  0  0  0  0
   -6.0848    0.5364    1.6506 C   0  0  0  0  0  0  0  0  0  0  0  0
   -4.8513    1.1066    1.3397 C   0  0  0  0  0  0  0  0  0  0  0  0
   -6.4993    0.6407    2.9538 O   0  0  0  0  0  0  0  0  0  0  0  0
   -7.5792   -0.2589    3.2321 C   0  0  0  0  0  0  0  0  0  0  0  0
   -8.6237   -0.1996    2.1296 C   0  0  0  0  0  0  0  0  0  0  0  0
   -8.0724   -0.6468    0.8853 O   0  0  0  0  0  0  0  0  0  0  0  0
    0.0574    1.1734   -0.2819 N   0  0  0  0  0  0  0  0  0  0  0  0
    1.0953    0.4601    0.3471 C   0  0  0  0  0  0  0  0  0  0  0  0
    1.2021    0.5949    1.7394 C   0  0  0  0  0  0  0  0  0  0  0  0
    2.2049   -0.0684    2.4516 C   0  0  0  0  0  0  0  0  0  0  0  0
    3.1137   -0.8770    1.7767 C   0  0  0  0  0  0  0  0  0  0  0  0
    3.0088   -1.0144    0.3899 C   0  0  0  0  0  0  0  0  0  0  0  0
    4.1539   -2.0802   -0.4502 S   0  0  0  0  0  6  0  0  0  0  0  0
    4.4121   -3.2081    0.4207 O   0  0  0  0  0  0  0  0  0  0  0  0
    3.7122   -2.2753   -1.8141 O   0  0  0  0  0  0  0  0  0  0  0  0
    5.5692   -1.1293   -0.5047 N   0  0  0  0  0  0  0  0  0  0  0  0
    5.5020    0.0915   -1.3764 C   0  0  0  0  0  0  0  0  0  0  0  0
    6.3018   -0.1073   -2.6674 C   0  0  0  0  0  0  0  0  0  0  0  0
    7.6984   -0.3376   -2.4296 O   0  0  0  0  0  0  0  0  0  0  0  0
    7.9567   -1.0285   -1.1988 C   0  0  0  0  0  0  0  0  0  0  0  0
    6.8047   -1.9390   -0.7654 C   0  0  0  0  0  0  0  0  0  0  0  0
    1.9985   -0.3620   -0.3270 C   0  0  0  0  0  0  0  0  0  0  0  0
   -1.3436    3.1073   -1.5001 H   0  0  0  0  0  0  0  0  0  0  0  0
   -1.5018    2.2575   -3.0269 H   0  0  0  0  0  0  0  0  0  0  0  0
   -4.7269    0.2739   -1.9733 H   0  0  0  0  0  0  0  0  0  0  0  0
   -6.9200   -0.7003   -1.4077 H   0  0  0  0  0  0  0  0  0  0  0  0
   -4.2824    1.6055    2.1211 H   0  0  0  0  0  0  0  0  0  0  0  0
   -7.1700   -1.2707    3.3440 H   0  0  0  0  0  0  0  0  0  0  0  0
   -8.0205    0.0387    4.1885 H   0  0  0  0  0  0  0  0  0  0  0  0
   -9.0072    0.8194    1.9943 H   0  0  0  0  0  0  0  0  0  0  0  0
   -9.4679   -0.8527    2.3721 H   0  0  0  0  0  0  0  0  0  0  0  0
   -0.5755    1.6846    0.3365 H   0  0  0  0  0  0  0  0  0  0  0  0
    0.5028    1.2221    2.2892 H   0  0  0  0  0  0  0  0  0  0  0  0
    2.2720    0.0449    3.5309 H   0  0  0  0  0  0  0  0  0  0  0  0
    3.8922   -1.4002    2.3279 H   0  0  0  0  0  0  0  0  0  0  0  0
    5.9212    0.9219   -0.7957 H   0  0  0  0  0  0  0  0  0  0  0  0
    4.4709    0.3591   -1.6203 H   0  0  0  0  0  0  0  0  0  0  0  0
    5.9123   -0.9543   -3.2434 H   0  0  0  0  0  0  0  0  0  0  0  0
    6.2225    0.7823   -3.3001 H   0  0  0  0  0  0  0  0  0  0  0  0
    8.8707   -1.6143   -1.3382 H   0  0  0  0  0  0  0  0  0  0  0  0
    8.1640   -0.2752   -0.4298 H   0  0  0  0  0  0  0  0  0  0  0  0
    6.6066   -2.6743   -1.5542 H   0  0  0  0  0  0  0  0  0  0  0  0
    7.0807   -2.4650    0.1543 H   0  0  0  0  0  0  0  0  0  0  0  0
    1.9333   -0.5143   -1.3999 H   0  0  0  0  0  0  0  0  0  0  0  0
  1  2  2  0
  2  3  1  0
  3  4  1  0
  4  5  1  0
  5  6  2  0
  5  7  1  0
  7  8  2  0
  8  9  1  0
  9 10  2  0
 10 11  1  0
 11 12  2  0
 11 13  1  0
 13 14  1  0
 14 15  1  0
 15 16  1  0
  2 17  1  0
 17 18  1  0
 18 19  2  0
 19 20  1  0
 20 21  2  0
 21 22  1  0
 22 23  1  0
 23 24  2  0
 23 25  2  0
 23 26  1  0
 26 27  1  0
 27 28  1  0
 28 29  1  0
 29 30  1  0
 30 31  1  0
 22 32  2  0
 12  7  1  0
 32 18  1  0
 16 10  1  0
 31 26  1  0
  3 33  1  0
  3 34  1  0
  8 35  1  0
  9 36  1  0
 12 37  1  0
 14 38  1  0
 14 39  1  0
 15 40  1  0
 15 41  1  0
 17 42  1  0
 19 43  1  0
 20 44  1  0
 21 45  1  0
 27 46  1  0
 27 47  1  0
 28 48  1  0
 28 49  1  0
 30 50  1  0
 30 51  1  0
 31 52  1  0
 31 53  1  0
 32 54  1  0
M  END
$$$$
