
     RDKit          3D

 50 53  0  0  0  0  0  0  0  0999 V2000
    8.1602    1.9590    1.7314 C   0  0  0  0  0  0  0  0  0  0  0  0
    7.8343    0.5502    1.2694 C   0  0  0  0  0  0  0  0  0  0  0  0
    6.5371    0.1719    1.7333 O   0  0  0  0  0  0  0  0  0  0  0  0
    5.4961    0.1946    0.8505 C   0  0  0  0  0  0  0  0  0  0  0  0
    5.4350    1.0280   -0.2689 C   0  0  0  0  0  0  0  0  0  0  0  0
    4.2972    1.0368   -1.0880 C   0  0  0  0  0  0  0  0  0  0  0  0
    3.1903    0.2314   -0.7883 C   0  0  0  0  0  0  0  0  0  0  0  0
    2.0079    0.2832   -1.6923 C   0  0  0  0  0  0  0  0  0  0  0  0
    2.2135    0.4421   -2.8889 O   0  0  0  0  0  0  0  0  0  0  0  0
    0.7837    0.1718   -1.0599 N   0  0  0  0  0  0  0  0  0  0  0  0
   -0.4931    0.1776   -1.6637 C   0  0  0  0  0  0  0  0  0  0  0  0
   -0.7045    0.2398   -3.0407 C   0  0  0  0  0  0  0  0  0  0  0  0
   -2.0024    0.2579   -3.5569 C   0  0  0  0  0  0  0  0  0  0  0  0
   -3.1011    0.2055   -2.7001 C   0  0  0  0  0  0  0  0  0  0  0  0
   -2.9156    0.1258   -1.3134 C   0  0  0  0  0  0  0  0  0  0  0  0
   -4.0754    0.0591   -0.3959 C   0  0  0  0  0  0  0  0  0  0  0  0
   -5.0031   -0.8937   -0.5926 C   0  0  0  0  0  0  0  0  0  0  0  0
   -6.1613   -0.9999    0.2788 C   0  0  0  0  0  0  0  0  0  0  0  0
   -7.1454   -1.9734    0.0931 C   0  0  0  0  0  0  0  0  0  0  0  0
   -8.2452   -2.0304    0.9556 C   0  0  0  0  0  0  0  0  0  0  0  0
   -8.3653   -1.1169    2.0054 C   0  0  0  0  0  0  0  0  0  0  0  0
   -7.3859   -0.1443    2.1963 C   0  0  0  0  0  0  0  0  0  0  0  0
   -6.2968   -0.1002    1.3291 C   0  0  0  0  0  0  0  0  0  0  0  0
   -5.3280    0.8916    1.5549 O   0  0  0  0  0  0  0  0  0  0  0  0
   -4.2008    1.0138    0.7476 C   0  0  0  0  0  0  0  0  0  0  0  0
   -3.3536    1.8702    0.9821 O   0  0  0  0  0  0  0  0  0  0  0  0
   -1.6043    0.1149   -0.8092 C   0  0  0  0  0  0  0  0  0  0  0  0
    3.2339   -0.6146    0.3204 C   0  0  0  0  0  0  0  0  0  0  0  0
    4.3860   -0.6176    1.1217 C   0  0  0  0  0  0  0  0  0  0  0  0
    4.4015   -1.5132    2.2635 N   0  0  0  0  0  4  0  0  0  0  0  0
    5.2945   -2.3694    2.3121 O   0  0  0  0  0  0  0  0  0  0  0  0
    3.4716   -1.3930    3.0740 O   0  0  0  0  0  1  0  0  0  0  0  0
    8.0947    2.0290    2.8223 H   0  0  0  0  0  0  0  0  0  0  0  0
    9.1692    2.2456    1.4213 H   0  0  0  0  0  0  0  0  0  0  0  0
    7.4488    2.6850    1.3263 H   0  0  0  0  0  0  0  0  0  0  0  0
    8.5455   -0.1440    1.7306 H   0  0  0  0  0  0  0  0  0  0  0  0
    7.9529    0.4347    0.1858 H   0  0  0  0  0  0  0  0  0  0  0  0
    6.2469    1.7022   -0.5255 H   0  0  0  0  0  0  0  0  0  0  0  0
    4.2712    1.6892   -1.9607 H   0  0  0  0  0  0  0  0  0  0  0  0
    0.7793    0.1675   -0.0476 H   0  0  0  0  0  0  0  0  0  0  0  0
    0.1207    0.2842   -3.7444 H   0  0  0  0  0  0  0  0  0  0  0  0
   -2.1521    0.3202   -4.6321 H   0  0  0  0  0  0  0  0  0  0  0  0
   -4.1010    0.2374   -3.1276 H   0  0  0  0  0  0  0  0  0  0  0  0
   -4.9190   -1.6137   -1.4011 H   0  0  0  0  0  0  0  0  0  0  0  0
   -7.0708   -2.6936   -0.7182 H   0  0  0  0  0  0  0  0  0  0  0  0
   -9.0102   -2.7894    0.8086 H   0  0  0  0  0  0  0  0  0  0  0  0
   -9.2217   -1.1650    2.6736 H   0  0  0  0  0  0  0  0  0  0  0  0
   -7.4700    0.5698    3.0103 H   0  0  0  0  0  0  0  0  0  0  0  0
   -1.4540    0.0662    0.2676 H   0  0  0  0  0  0  0  0  0  0  0  0
    2.4086   -1.2839    0.5506 H   0  0  0  0  0  0  0  0  0  0  0  0
  1  2  1  0
  2  3  1  0
  3  4  1  0
  4  5  2  0
  5  6  1  0
  6  7  2  0
  7  8  1  0
  8  9  2  0
  8 10  1  0
 10 11  1  0
 11 12  2  0
 12 13  1  0
 13 14  2  0
 14 15  1  0
 15 16  1  0
 16 17  2  0
 17 18  1  0
 18 19  2  0
 19 20  1  0
 20 21  2  0
 21 22  1  0
 22 23  2  0
 23 24  1  0
 24 25  1  0
 25 26  2  0
 15 27  2  0
  7 28  1  0
 28 29  2  0
 29 30  1  0
 30 31  2  0
 30 32  1  0
 29  4  1  0
 27 11  1  0
 25 16  1  0
 23 18  1  0
  1 33  1  0
  1 34  1  0
  1 35  1  0
  2 36  1  0
  2 37  1  0
  5 38  1  0
  6 39  1  0
 10 40  1  0
 12 41  1  0
 13 42  1  0
 14 43  1  0
 17 44  1  0
 19 45  1  0
 20 46  1  0
 21 47  1  0
 22 48  1  0
 27 49  1  0
 28 50  1  0
M  CHG  2  30   1  32  -1
M  END
$$$$
