
     RDKit          3D

 68 71  0  0  0  0  0  0  0  0999 V2000
   -2.3995   -6.7363   -0.8548 C   0  0  0  0  0  0  0  0  0  0  0  0
   -2.3502   -5.2895   -0.4650 C   0  0  0  0  0  0  0  0  0  0  0  0
   -1.6641   -4.8907    0.6853 C   0  0  0  0  0  0  0  0  0  0  0  0
   -1.5928   -3.5395    1.0332 C   0  0  0  0  0  0  0  0  0  0  0  0
   -2.2032   -2.5535    0.2375 C   0  0  0  0  0  0  0  0  0  0  0  0
   -2.0594   -1.0928    0.6409 C   0  0  0  0  0  0  0  0  0  0  0  0
   -3.2789   -0.1682    0.3510 C   0  0  0  0  0  0  0  0  0  0  0  0
   -4.4213   -0.5662    0.1407 O   0  0  0  0  0  0  0  0  0  0  0  0
   -2.9893    1.1839    0.4712 N   0  0  0  0  0  0  0  0  0  0  0  0
   -3.9841    2.2057    0.2378 C   0  0  0  0  0  0  0  0  0  0  0  0
   -4.2643    2.4353   -1.2514 C   0  0  0  0  0  0  0  0  0  0  0  0
   -4.5631    3.9292   -1.3988 C   0  0  0  0  0  0  0  0  0  0  0  0
   -4.4793    4.5183    0.0039 C   0  0  0  0  0  0  0  0  0  0  0  0
   -3.5471    3.5754    0.7448 C   0  0  0  0  0  0  0  0  0  0  0  0
   -0.7858   -0.4962    0.1457 N   0  0  0  0  0  0  0  0  0  0  0  0
   -0.6489   -0.2835   -1.3026 C   0  0  0  0  0  0  0  0  0  0  0  0
    0.0201   -1.4198   -1.9928 C   0  0  0  0  0  0  0  0  0  0  0  0
    0.7822   -2.5009   -1.5937 C   0  0  0  0  0  0  0  0  0  0  0  0
    1.1017   -3.2256   -2.7680 C   0  0  0  0  0  0  0  0  0  0  0  0
    0.5301   -2.5370   -3.8118 C   0  0  0  0  0  0  0  0  0  0  0  0
   -0.1230   -1.4389   -3.3536 O   0  0  0  0  0  0  0  0  0  0  0  0
    0.2072   -0.2000    1.0687 C   0  0  0  0  0  0  0  0  0  0  0  0
    0.0685   -0.4334    2.2694 O   0  0  0  0  0  0  0  0  0  0  0  0
    1.4730    0.4690    0.5595 C   0  0  0  0  0  0  0  0  0  0  0  0
    2.5114    0.6055    1.6707 C   0  0  0  0  0  0  0  0  0  0  0  0
    3.7368    1.3702    1.2142 C   0  0  0  0  0  0  0  0  0  0  0  0
    3.7974    1.9189    0.1190 O   0  0  0  0  0  0  0  0  0  0  0  0
    4.7213    1.3706    2.1755 N   0  0  0  0  0  0  0  0  0  0  0  0
    5.9424    1.9969    2.0691 C   0  0  0  0  0  0  0  0  0  0  0  0
    6.4698    2.7711    1.0131 C   0  0  0  0  0  0  0  0  0  0  0  0
    7.7149    3.1499    1.4508 C   0  0  0  0  0  0  0  0  0  0  0  0
    8.8061    3.9581    0.8786 C   0  0  0  0  0  0  0  0  0  0  0  0
    7.9283    2.6268    2.6872 O   0  0  0  0  0  0  0  0  0  0  0  0
    6.8160    1.9052    3.0781 N   0  0  0  0  0  0  0  0  0  0  0  0
   -2.8711   -2.9605   -0.9257 C   0  0  0  0  0  0  0  0  0  0  0  0
   -2.9418   -4.3133   -1.2732 C   0  0  0  0  0  0  0  0  0  0  0  0
   -2.4794   -7.3735    0.0323 H   0  0  0  0  0  0  0  0  0  0  0  0
   -1.4939   -7.0064   -1.4061 H   0  0  0  0  0  0  0  0  0  0  0  0
   -3.2706   -6.9456   -1.4841 H   0  0  0  0  0  0  0  0  0  0  0  0
   -1.1798   -5.6288    1.3200 H   0  0  0  0  0  0  0  0  0  0  0  0
   -1.0492   -3.2555    1.9333 H   0  0  0  0  0  0  0  0  0  0  0  0
   -2.0410   -1.0926    1.7400 H   0  0  0  0  0  0  0  0  0  0  0  0
   -2.0302    1.4478    0.6616 H   0  0  0  0  0  0  0  0  0  0  0  0
   -4.9146    1.9050    0.7380 H   0  0  0  0  0  0  0  0  0  0  0  0
   -5.1086    1.8250   -1.5893 H   0  0  0  0  0  0  0  0  0  0  0  0
   -3.4030    2.1652   -1.8743 H   0  0  0  0  0  0  0  0  0  0  0  0
   -3.8138    4.3941   -2.0512 H   0  0  0  0  0  0  0  0  0  0  0  0
   -5.5448    4.1054   -1.8496 H   0  0  0  0  0  0  0  0  0  0  0  0
   -4.1179    5.5504    0.0011 H   0  0  0  0  0  0  0  0  0  0  0  0
   -5.4709    4.5086    0.4706 H   0  0  0  0  0  0  0  0  0  0  0  0
   -3.6404    3.6661    1.8311 H   0  0  0  0  0  0  0  0  0  0  0  0
   -2.5033    3.7816    0.4772 H   0  0  0  0  0  0  0  0  0  0  0  0
   -0.0702    0.6282   -1.4814 H   0  0  0  0  0  0  0  0  0  0  0  0
   -1.6392   -0.1130   -1.7387 H   0  0  0  0  0  0  0  0  0  0  0  0
    1.0548   -2.7515   -0.5769 H   0  0  0  0  0  0  0  0  0  0  0  0
    1.6725   -4.1402   -2.8435 H   0  0  0  0  0  0  0  0  0  0  0  0
    0.4954   -2.6906   -4.8822 H   0  0  0  0  0  0  0  0  0  0  0  0
    1.2058    1.4616    0.1763 H   0  0  0  0  0  0  0  0  0  0  0  0
    1.9055   -0.1173   -0.2574 H   0  0  0  0  0  0  0  0  0  0  0  0
    2.0871    1.1371    2.5301 H   0  0  0  0  0  0  0  0  0  0  0  0
    2.8217   -0.3906    2.0084 H   0  0  0  0  0  0  0  0  0  0  0  0
    4.5900    0.8812    3.0510 H   0  0  0  0  0  0  0  0  0  0  0  0
    6.0124    3.0221    0.0678 H   0  0  0  0  0  0  0  0  0  0  0  0
    9.3305    4.5161    1.6610 H   0  0  0  0  0  0  0  0  0  0  0  0
    9.5310    3.3130    0.3728 H   0  0  0  0  0  0  0  0  0  0  0  0
    8.4192    4.6821    0.1534 H   0  0  0  0  0  0  0  0  0  0  0  0
   -3.3476   -2.2334   -1.5802 H   0  0  0  0  0  0  0  0  0  0  0  0
   -3.4672   -4.5959   -2.1829 H   0  0  0  0  0  0  0  0  0  0  0  0
  1  2  1  0
  2  3  2  0
  3  4  1  0
  4  5  2  0
  5  6  1  0
  6  7  1  0
  7  8  2  0
  7  9  1  0
  9 10  1  0
 10 11  1  0
 11 12  1  0
 12 13  1  0
 13 14  1  0
  6 15  1  0
 15 16  1  0
 16 17  1  0
 17 18  2  0
 18 19  1  0
 19 20  2  0
 20 21  1  0
 15 22  1  0
 22 23  2  0
 22 24  1  0
 24 25  1  0
 25 26  1  0
 26 27  2  0
 26 28  1  0
 28 29  1  0
 29 30  1  0
 30 31  2  0
 31 32  1  0
 31 33  1  0
 33 34  1  0
  5 35  1  0
 35 36  2  0
 36  2  1  0
 14 10  1  0
 21 17  1  0
 34 29  2  0
  1 37  1  0
  1 38  1  0
  1 39  1  0
  3 40  1  0
  4 41  1  0
  6 42  1  0
  9 43  1  0
 10 44  1  0
 11 45  1  0
 11 46  1  0
 12 47  1  0
 12 48  1  0
 13 49  1  0
 13 50  1  0
 14 51  1  0
 14 52  1  0
 16 53  1  0
 16 54  1  0
 18 55  1  0
 19 56  1  0
 20 57  1  0
 24 58  1  0
 24 59  1  0
 25 60  1  0
 25 61  1  0
 28 62  1  0
 30 63  1  0
 32 64  1  0
 32 65  1  0
 32 66  1  0
 35 67  1  0
 36 68  1  0
M  END
$$$$
