
     RDKit          3D

 37 40  0  0  0  0  0  0  0  0999 V2000
   -3.4785    1.3131    1.8588 C   0  0  0  0  0  0  0  0  0  0  0  0
   -3.5450    1.9771    0.4943 C   0  0  0  0  0  0  0  0  0  0  0  0
   -2.7117    1.2997   -0.4438 O   0  0  0  0  0  0  0  0  0  0  0  0
   -3.1936    0.2039   -1.1121 C   0  0  0  0  0  0  0  0  0  0  0  0
   -4.4841   -0.3166   -0.9815 C   0  0  0  0  0  0  0  0  0  0  0  0
   -4.8750   -1.4378   -1.7205 C   0  0  0  0  0  0  0  0  0  0  0  0
   -3.9825   -2.0490   -2.5966 C   0  0  0  0  0  0  0  0  0  0  0  0
   -2.6917   -1.5433   -2.7348 C   0  0  0  0  0  0  0  0  0  0  0  0
   -2.2897   -0.4228   -1.9947 C   0  0  0  0  0  0  0  0  0  0  0  0
   -0.9143    0.0655   -2.1665 C   0  0  0  0  0  0  0  0  0  0  0  0
    0.0857   -0.1394   -1.2984 C   0  0  0  0  0  0  0  0  0  0  0  0
    0.0157   -1.0483    0.2019 S   0  0  0  0  0  0  0  0  0  0  0  0
    1.6641   -0.6781    0.4919 C   0  0  0  0  0  0  0  0  0  0  0  0
    2.5252   -0.9488    1.4289 N   0  0  0  0  0  0  0  0  0  0  0  0
    3.6609   -0.3096    0.9542 C   0  0  0  0  0  0  0  0  0  0  0  0
    5.0159   -0.3302    1.7356 C   0  0  0  0  0  0  0  0  0  0  0  0
    6.1903    0.2781    1.3341 C   0  0  0  0  0  0  0  0  0  0  0  0
    7.1544    0.0053    2.3346 C   0  0  0  0  0  0  0  0  0  0  0  0
    6.5118   -0.7516    3.2849 C   0  0  0  0  0  0  0  0  0  0  0  0
    5.2178   -0.9605    2.9326 O   0  0  0  0  0  0  0  0  0  0  0  0
    3.5123    0.3275   -0.2273 N   0  0  0  0  0  0  0  0  0  0  0  0
    2.2182    0.0670   -0.4841 N   0  0  0  0  0  0  0  0  0  0  0  0
    1.4394    0.4359   -1.5593 C   0  0  0  0  0  0  0  0  0  0  0  0
    1.8410    1.0941   -2.5017 O   0  0  0  0  0  0  0  0  0  0  0  0
   -4.0540    1.8829    2.5938 H   0  0  0  0  0  0  0  0  0  0  0  0
   -2.4404    1.2447    2.2009 H   0  0  0  0  0  0  0  0  0  0  0  0
   -3.8694    0.2918    1.8278 H   0  0  0  0  0  0  0  0  0  0  0  0
   -3.1408    2.9917    0.5870 H   0  0  0  0  0  0  0  0  0  0  0  0
   -4.5716    2.0987    0.1332 H   0  0  0  0  0  0  0  0  0  0  0  0
   -5.2159    0.1194   -0.3106 H   0  0  0  0  0  0  0  0  0  0  0  0
   -5.8816   -1.8343   -1.6095 H   0  0  0  0  0  0  0  0  0  0  0  0
   -4.2908   -2.9200   -3.1693 H   0  0  0  0  0  0  0  0  0  0  0  0
   -2.0015   -2.0311   -3.4193 H   0  0  0  0  0  0  0  0  0  0  0  0
   -0.7503    0.6493   -3.0706 H   0  0  0  0  0  0  0  0  0  0  0  0
    6.3244    0.8487    0.4250 H   0  0  0  0  0  0  0  0  0  0  0  0
    8.1879    0.3208    2.3600 H   0  0  0  0  0  0  0  0  0  0  0  0
    6.8174   -1.1975    4.2213 H   0  0  0  0  0  0  0  0  0  0  0  0
  1  2  1  0
  2  3  1  0
  3  4  1  0
  4  5  2  0
  5  6  1  0
  6  7  2  0
  7  8  1  0
  8  9  2  0
  9 10  1  0
 10 11  2  3
 11 12  1  0
 12 13  1  0
 13 14  2  0
 14 15  1  0
 15 16  1  0
 16 17  2  0
 17 18  1  0
 18 19  2  0
 19 20  1  0
 15 21  2  0
 21 22  1  0
 22 23  1  0
 23 24  2  0
  9  4  1  0
 23 11  1  0
 22 13  1  0
 20 16  1  0
  1 25  1  0
  1 26  1  0
  1 27  1  0
  2 28  1  0
  2 29  1  0
  5 30  1  0
  6 31  1  0
  7 32  1  0
  8 33  1  0
 10 34  1  0
 17 35  1  0
 18 36  1  0
 19 37  1  0
M  END
$$$$
