
     RDKit          3D

 51 55  0  0  0  0  0  0  0  0999 V2000
    5.6600   -1.9639    1.2814 F   0  0  0  0  0  0  0  0  0  0  0  0
    6.1922   -1.0635    0.4428 C   0  0  0  0  0  0  0  0  0  0  0  0
    7.5554   -0.7953    0.5246 C   0  0  0  0  0  0  0  0  0  0  0  0
    8.1260    0.1441   -0.3317 C   0  0  0  0  0  0  0  0  0  0  0  0
    7.3276    0.8098   -1.2625 C   0  0  0  0  0  0  0  0  0  0  0  0
    5.9591    0.5365   -1.3397 C   0  0  0  0  0  0  0  0  0  0  0  0
    5.3768   -0.4107   -0.4865 C   0  0  0  0  0  0  0  0  0  0  0  0
    3.8981   -0.7029   -0.5488 C   0  0  0  0  0  0  0  0  0  0  0  0
    3.1224    0.0521    0.5443 C   0  0  0  0  0  0  0  0  0  0  0  0
    1.6765   -0.2079    0.4986 N   0  0  0  0  0  0  0  0  0  0  0  0
    1.0296    0.3177   -0.7242 C   0  0  0  0  0  0  0  0  0  0  0  0
   -0.4001    0.8835   -0.5377 C   0  0  0  0  0  0  0  0  0  0  0  0
   -1.1627    0.0681    0.4094 N   0  0  0  0  0  0  0  0  0  0  0  0
   -2.5495    0.0157    0.3314 C   0  0  0  0  0  0  0  0  0  0  0  0
   -3.2563    0.3347    1.3871 N   0  0  0  0  0  0  0  0  0  0  0  0
   -4.6640    0.3341    1.3377 C   0  0  0  0  0  0  0  0  0  0  0  0
   -5.3677    0.6995    2.4869 C   0  0  0  0  0  0  0  0  0  0  0  0
   -6.7650    0.7285    2.4896 C   0  0  0  0  0  0  0  0  0  0  0  0
   -7.4745    0.3909    1.3365 C   0  0  0  0  0  0  0  0  0  0  0  0
   -6.7923    0.0219    0.1765 C   0  0  0  0  0  0  0  0  0  0  0  0
   -5.3944   -0.0017    0.1893 C   0  0  0  0  0  0  0  0  0  0  0  0
   -4.6294   -0.3761   -0.9269 N   0  0  0  0  0  0  0  0  0  0  0  0
   -5.0414   -0.7847   -2.1735 C   0  0  0  0  0  0  0  0  0  0  0  0
   -3.9249   -1.1285   -2.9044 C   0  0  0  0  0  0  0  0  0  0  0  0
   -2.7991   -0.9033   -2.0789 C   0  0  0  0  0  0  0  0  0  0  0  0
   -3.2534   -0.3945   -0.8747 C   0  0  0  0  0  0  0  0  0  0  0  0
   -0.5147   -0.0673    1.7298 C   0  0  0  0  0  0  0  0  0  0  0  0
    0.9928    0.2869    1.7042 C   0  0  0  0  0  0  0  0  0  0  0  0
    8.1616   -1.3204    1.2558 H   0  0  0  0  0  0  0  0  0  0  0  0
    9.1901    0.3580   -0.2741 H   0  0  0  0  0  0  0  0  0  0  0  0
    7.7721    1.5438   -1.9307 H   0  0  0  0  0  0  0  0  0  0  0  0
    5.3525    1.0663   -2.0709 H   0  0  0  0  0  0  0  0  0  0  0  0
    3.7391   -1.7844   -0.4473 H   0  0  0  0  0  0  0  0  0  0  0  0
    3.5258   -0.4371   -1.5458 H   0  0  0  0  0  0  0  0  0  0  0  0
    3.5112   -0.2733    1.5183 H   0  0  0  0  0  0  0  0  0  0  0  0
    3.3206    1.1304    0.4776 H   0  0  0  0  0  0  0  0  0  0  0  0
    0.9844   -0.5067   -1.4464 H   0  0  0  0  0  0  0  0  0  0  0  0
    1.6308    1.1119   -1.1852 H   0  0  0  0  0  0  0  0  0  0  0  0
   -0.3437    1.9103   -0.1530 H   0  0  0  0  0  0  0  0  0  0  0  0
   -0.8823    0.9515   -1.5172 H   0  0  0  0  0  0  0  0  0  0  0  0
   -4.8176    0.9643    3.3859 H   0  0  0  0  0  0  0  0  0  0  0  0
   -7.2973    1.0147    3.3930 H   0  0  0  0  0  0  0  0  0  0  0  0
   -8.5616    0.4136    1.3437 H   0  0  0  0  0  0  0  0  0  0  0  0
   -7.3651   -0.2404   -0.7065 H   0  0  0  0  0  0  0  0  0  0  0  0
   -6.0865   -0.8247   -2.4435 H   0  0  0  0  0  0  0  0  0  0  0  0
   -3.9246   -1.5137   -3.9160 H   0  0  0  0  0  0  0  0  0  0  0  0
   -1.7654   -1.0966   -2.3329 H   0  0  0  0  0  0  0  0  0  0  0  0
   -0.9979    0.5780    2.4728 H   0  0  0  0  0  0  0  0  0  0  0  0
   -0.6336   -1.1066    2.0591 H   0  0  0  0  0  0  0  0  0  0  0  0
    1.4517   -0.1393    2.6048 H   0  0  0  0  0  0  0  0  0  0  0  0
    1.1085    1.3770    1.7771 H   0  0  0  0  0  0  0  0  0  0  0  0
  1  2  1  0
  2  3  2  0
  3  4  1  0
  4  5  2  0
  5  6  1  0
  6  7  2  0
  7  8  1  0
  8  9  1  0
  9 10  1  0
 10 11  1  0
 11 12  1  0
 12 13  1  0
 13 14  1  0
 14 15  2  0
 15 16  1  0
 16 17  2  0
 17 18  1  0
 18 19  2  0
 19 20  1  0
 20 21  2  0
 21 22  1  0
 22 23  1  0
 23 24  2  0
 24 25  1  0
 25 26  2  0
 13 27  1  0
 27 28  1  0
  7  2  1  0
 28 10  1  0
 26 14  1  0
 21 16  1  0
 26 22  1  0
  3 29  1  0
  4 30  1  0
  5 31  1  0
  6 32  1  0
  8 33  1  0
  8 34  1  0
  9 35  1  0
  9 36  1  0
 11 37  1  0
 11 38  1  0
 12 39  1  0
 12 40  1  0
 17 41  1  0
 18 42  1  0
 19 43  1  0
 20 44  1  0
 23 45  1  0
 24 46  1  0
 25 47  1  0
 27 48  1  0
 27 49  1  0
 28 50  1  0
 28 51  1  0
M  END
$$$$
