
     RDKit          3D

 29 30  0  0  0  0  0  0  0  0999 V2000
    4.0447   -1.3416   -0.8341 C   0  0  0  0  0  0  0  0  0  0  0  0
    2.8360   -0.8808   -0.0396 C   0  0  0  0  0  0  0  0  0  0  0  0
    2.7993    0.5794   -0.0337 N   0  0  0  0  0  0  0  0  0  0  0  0
    1.9747    1.3872    1.1849 S   0  0  0  0  0  6  0  0  0  0  0  0
    1.9632    2.7848    0.8156 O   0  0  0  0  0  0  0  0  0  0  0  0
    2.5010    0.9354    2.4539 O   0  0  0  0  0  0  0  0  0  0  0  0
    0.3232    0.7611    1.0111 C   0  0  0  0  0  0  0  0  0  0  0  0
   -0.1665   -0.1831    1.9330 C   0  0  0  0  0  0  0  0  0  0  0  0
   -1.4625   -0.6831    1.7966 C   0  0  0  0  0  0  0  0  0  0  0  0
   -2.2394   -0.2052    0.7537 C   0  0  0  0  0  0  0  0  0  0  0  0
   -1.7595    0.7508   -0.1406 C   0  0  0  0  0  0  0  0  0  0  0  0
   -0.4716    1.2378   -0.0377 C   0  0  0  0  0  0  0  0  0  0  0  0
   -2.6816    1.0893   -1.1629 N   0  0  0  0  0  0  0  0  0  0  0  0
   -3.9381    0.4575   -0.7024 C   0  0  0  0  0  0  0  0  0  0  0  0
   -3.6095   -0.6178    0.3470 C   0  0  0  0  0  0  0  0  0  0  0  0
    4.0921   -2.4347   -0.8575 H   0  0  0  0  0  0  0  0  0  0  0  0
    4.9727   -0.9671   -0.3891 H   0  0  0  0  0  0  0  0  0  0  0  0
    3.9990   -0.9788   -1.8665 H   0  0  0  0  0  0  0  0  0  0  0  0
    2.9038   -1.2758    0.9786 H   0  0  0  0  0  0  0  0  0  0  0  0
    1.9252   -1.2671   -0.5076 H   0  0  0  0  0  0  0  0  0  0  0  0
    2.8101    1.0800   -0.9204 H   0  0  0  0  0  0  0  0  0  0  0  0
    0.4602   -0.5329    2.7512 H   0  0  0  0  0  0  0  0  0  0  0  0
   -1.8456   -1.4263    2.4888 H   0  0  0  0  0  0  0  0  0  0  0  0
   -0.1040    1.9824   -0.7360 H   0  0  0  0  0  0  0  0  0  0  0  0
   -2.3555    0.6914   -2.0427 H   0  0  0  0  0  0  0  0  0  0  0  0
   -4.5679    1.2361   -0.2531 H   0  0  0  0  0  0  0  0  0  0  0  0
   -4.4951    0.0365   -1.5465 H   0  0  0  0  0  0  0  0  0  0  0  0
   -3.5855   -1.6134   -0.1079 H   0  0  0  0  0  0  0  0  0  0  0  0
   -4.3230   -0.6022    1.1754 H   0  0  0  0  0  0  0  0  0  0  0  0
  1  2  1  0
  2  3  1  0
  3  4  1  0
  4  5  2  0
  4  6  2  0
  4  7  1  0
  7  8  2  0
  8  9  1  0
  9 10  2  0
 10 11  1  0
 11 12  2  0
 11 13  1  0
 13 14  1  0
 14 15  1  0
 12  7  1  0
 15 10  1  0
  1 16  1  0
  1 17  1  0
  1 18  1  0
  2 19  1  0
  2 20  1  0
  3 21  1  0
  8 22  1  0
  9 23  1  0
 12 24  1  0
 13 25  1  0
 14 26  1  0
 14 27  1  0
 15 28  1  0
 15 29  1  0
M  END
$$$$
