
     RDKit          3D

 37 39  0  0  0  0  0  0  0  0999 V2000
    6.0016    0.1039   -0.6577 C   0  0  0  0  0  0  0  0  0  0  0  0
    5.4554   -0.2132    0.6163 O   0  0  0  0  0  0  0  0  0  0  0  0
    4.0917   -0.2582    0.7239 C   0  0  0  0  0  0  0  0  0  0  0  0
    3.6302   -0.5987    2.0052 C   0  0  0  0  0  0  0  0  0  0  0  0
    2.2660   -0.6878    2.2775 C   0  0  0  0  0  0  0  0  0  0  0  0
    1.3768   -0.4277    1.2480 C   0  0  0  0  0  0  0  0  0  0  0  0
    1.8103   -0.0808   -0.0502 C   0  0  0  0  0  0  0  0  0  0  0  0
    3.1787    0.0012   -0.3066 C   0  0  0  0  0  0  0  0  0  0  0  0
    0.7523    0.1538   -0.9601 N   0  0  0  0  0  0  0  0  0  0  0  0
    1.0643    0.3273   -2.3690 C   0  0  0  0  0  0  0  0  0  0  0  0
   -0.4949   -0.0753   -0.3741 C   0  0  0  0  0  0  0  0  0  0  0  0
   -1.6945    0.0134   -0.9796 C   0  0  0  0  0  0  0  0  0  0  0  0
   -2.9902   -0.2351   -0.3397 C   0  0  0  0  0  0  0  0  0  0  0  0
   -3.5514   -1.5162   -0.4031 C   0  0  0  0  0  0  0  0  0  0  0  0
   -4.7688   -1.7730    0.2131 C   0  0  0  0  0  0  0  0  0  0  0  0
   -5.4115   -0.7489    0.8898 C   0  0  0  0  0  0  0  0  0  0  0  0
   -4.8288    0.5114    0.9332 C   0  0  0  0  0  0  0  0  0  0  0  0
   -3.6470    0.7596    0.3192 N   0  0  0  0  0  4  0  0  0  0  0  0
   -3.0782    2.1203    0.4053 C   0  0  0  0  0  0  0  0  0  0  0  0
   -0.4037   -0.5011    1.3621 S   0  0  0  0  0  0  0  0  0  0  0  0
    5.7088    1.1111   -0.9717 H   0  0  0  0  0  0  0  0  0  0  0  0
    7.0920    0.0862   -0.5683 H   0  0  0  0  0  0  0  0  0  0  0  0
    5.7158   -0.6426   -1.4061 H   0  0  0  0  0  0  0  0  0  0  0  0
    4.3508   -0.7992    2.7963 H   0  0  0  0  0  0  0  0  0  0  0  0
    1.9210   -0.9584    3.2698 H   0  0  0  0  0  0  0  0  0  0  0  0
    3.5288    0.2660   -1.2955 H   0  0  0  0  0  0  0  0  0  0  0  0
    1.4776   -0.5958   -2.7903 H   0  0  0  0  0  0  0  0  0  0  0  0
    0.1813    0.5925   -2.9578 H   0  0  0  0  0  0  0  0  0  0  0  0
    1.7833    1.1408   -2.5167 H   0  0  0  0  0  0  0  0  0  0  0  0
   -1.7650    0.2677   -2.0319 H   0  0  0  0  0  0  0  0  0  0  0  0
   -3.0334   -2.3216   -0.9219 H   0  0  0  0  0  0  0  0  0  0  0  0
   -5.2068   -2.7694    0.1733 H   0  0  0  0  0  0  0  0  0  0  0  0
   -6.3616   -0.9326    1.3875 H   0  0  0  0  0  0  0  0  0  0  0  0
   -5.3064    1.3311    1.4636 H   0  0  0  0  0  0  0  0  0  0  0  0
   -2.7698    2.4388   -0.5936 H   0  0  0  0  0  0  0  0  0  0  0  0
   -2.2366    2.0953    1.1006 H   0  0  0  0  0  0  0  0  0  0  0  0
   -3.8380    2.8154    0.7727 H   0  0  0  0  0  0  0  0  0  0  0  0
  1  2  1  0
  2  3  1  0
  3  4  2  0
  4  5  1  0
  5  6  2  0
  6  7  1  0
  7  8  2  0
  7  9  1  0
  9 10  1  0
  9 11  1  0
 11 12  2  3
 12 13  1  0
 13 14  2  0
 14 15  1  0
 15 16  2  0
 16 17  1  0
 17 18  2  0
 18 19  1  0
 11 20  1  0
  8  3  1  0
 18 13  1  0
 20  6  1  0
  1 21  1  0
  1 22  1  0
  1 23  1  0
  4 24  1  0
  5 25  1  0
  8 26  1  0
 10 27  1  0
 10 28  1  0
 10 29  1  0
 12 30  1  0
 14 31  1  0
 15 32  1  0
 16 33  1  0
 17 34  1  0
 19 35  1  0
 19 36  1  0
 19 37  1  0
M  CHG  1  18   1
M  END
$$$$
