
     RDKit          3D

 59 62  0  0  0  0  0  0  0  0999 V2000
    6.2294    0.6229    5.4565 C   0  0  0  0  0  0  0  0  0  0  0  0
    5.4972    0.5023    4.1520 C   0  0  0  0  0  0  0  0  0  0  0  0
    4.1390    0.1731    4.1414 C   0  0  0  0  0  0  0  0  0  0  0  0
    3.4405    0.0878    2.9327 C   0  0  0  0  0  0  0  0  0  0  0  0
    4.0886    0.3220    1.7092 C   0  0  0  0  0  0  0  0  0  0  0  0
    3.3299    0.2346    0.4982 N   0  0  0  0  0  0  0  0  0  0  0  0
    1.9691    0.2141    0.5813 N   0  0  0  0  0  0  0  0  0  0  0  0
    1.5437    0.3943   -0.6709 C   0  0  0  0  0  0  0  0  0  0  0  0
    0.1601    0.5463   -1.0987 C   0  0  0  0  0  0  0  0  0  0  0  0
   -0.8003    0.5034   -0.3297 O   0  0  0  0  0  0  0  0  0  0  0  0
    0.0361    0.7371   -2.4904 N   0  0  0  0  0  0  0  0  0  0  0  0
   -1.2789    0.9786   -3.0804 C   0  0  0  0  0  0  0  0  0  0  0  0
   -1.9274   -0.2926   -3.6342 C   0  0  0  0  0  0  0  0  0  0  0  0
   -2.4853   -1.2239   -2.5598 C   0  0  0  0  0  0  0  0  0  0  0  0
   -3.6408   -0.5769   -1.8207 C   0  0  0  0  0  0  0  0  0  0  0  0
   -4.6611   -0.2183   -2.4019 O   0  0  0  0  0  0  0  0  0  0  0  0
   -3.4172   -0.4074   -0.4723 N   0  0  0  0  0  0  0  0  0  0  0  0
   -4.3661    0.3229    0.3416 C   0  0  0  0  0  0  0  0  0  0  0  0
   -5.4945   -0.5436    0.7698 C   0  0  0  0  0  0  0  0  0  0  0  0
   -5.6866   -1.9074    0.8733 C   0  0  0  0  0  0  0  0  0  0  0  0
   -7.0024   -2.0950    1.3646 C   0  0  0  0  0  0  0  0  0  0  0  0
   -7.5333   -0.8359    1.5368 C   0  0  0  0  0  0  0  0  0  0  0  0
   -8.8371   -0.3363    2.0099 C   0  0  0  0  0  0  0  0  0  0  0  0
   -6.6196    0.1108    1.1858 O   0  0  0  0  0  0  0  0  0  0  0  0
    1.1023    0.7239   -3.3977 N   0  0  0  0  0  0  0  0  0  0  0  0
    2.3330    0.5687   -2.9946 C   0  0  0  0  0  0  0  0  0  0  0  0
    3.4291    0.5851   -4.0218 C   0  0  0  0  0  0  0  0  0  0  0  0
    2.5982    0.3991   -1.5874 C   0  0  0  0  0  0  0  0  0  0  0  0
    3.7434    0.1785   -0.8400 C   0  0  0  0  0  0  0  0  0  0  0  0
    5.1297   -0.1102   -1.2897 C   0  0  0  0  0  0  0  0  0  0  0  0
    5.4380    0.6870    1.7290 C   0  0  0  0  0  0  0  0  0  0  0  0
    6.1362    0.7707    2.9399 C   0  0  0  0  0  0  0  0  0  0  0  0
    5.9568    1.5597    5.9540 H   0  0  0  0  0  0  0  0  0  0  0  0
    5.9841   -0.2179    6.1149 H   0  0  0  0  0  0  0  0  0  0  0  0
    7.3157    0.6126    5.3037 H   0  0  0  0  0  0  0  0  0  0  0  0
    3.6091   -0.0118    5.0725 H   0  0  0  0  0  0  0  0  0  0  0  0
    2.3842   -0.1717    2.9655 H   0  0  0  0  0  0  0  0  0  0  0  0
   -1.1410    1.6965   -3.8974 H   0  0  0  0  0  0  0  0  0  0  0  0
   -1.9286    1.4658   -2.3447 H   0  0  0  0  0  0  0  0  0  0  0  0
   -1.2019   -0.8468   -4.2427 H   0  0  0  0  0  0  0  0  0  0  0  0
   -2.7427    0.0048   -4.3049 H   0  0  0  0  0  0  0  0  0  0  0  0
   -1.7008   -1.5459   -1.8694 H   0  0  0  0  0  0  0  0  0  0  0  0
   -2.8776   -2.1331   -3.0305 H   0  0  0  0  0  0  0  0  0  0  0  0
   -2.4410   -0.2827   -0.2013 H   0  0  0  0  0  0  0  0  0  0  0  0
   -3.8273    0.6763    1.2283 H   0  0  0  0  0  0  0  0  0  0  0  0
   -4.7270    1.1964   -0.2142 H   0  0  0  0  0  0  0  0  0  0  0  0
   -4.9640   -2.6668    0.6147 H   0  0  0  0  0  0  0  0  0  0  0  0
   -7.5007   -3.0326    1.5650 H   0  0  0  0  0  0  0  0  0  0  0  0
   -8.7028    0.2772    2.9055 H   0  0  0  0  0  0  0  0  0  0  0  0
   -9.3192    0.2722    1.2397 H   0  0  0  0  0  0  0  0  0  0  0  0
   -9.5101   -1.1624    2.2596 H   0  0  0  0  0  0  0  0  0  0  0  0
    4.2191    1.2794   -3.7196 H   0  0  0  0  0  0  0  0  0  0  0  0
    3.8430   -0.4214   -4.1369 H   0  0  0  0  0  0  0  0  0  0  0  0
    3.0364    0.9090   -4.9903 H   0  0  0  0  0  0  0  0  0  0  0  0
    5.1233   -0.6528   -2.2389 H   0  0  0  0  0  0  0  0  0  0  0  0
    5.6906    0.8178   -1.4383 H   0  0  0  0  0  0  0  0  0  0  0  0
    5.6636   -0.7612   -0.5899 H   0  0  0  0  0  0  0  0  0  0  0  0
    5.9807    0.9602    0.8351 H   0  0  0  0  0  0  0  0  0  0  0  0
    7.1849    1.0635    2.9298 H   0  0  0  0  0  0  0  0  0  0  0  0
  1  2  1  0
  2  3  2  0
  3  4  1  0
  4  5  2  0
  5  6  1  0
  6  7  1  0
  7  8  2  0
  8  9  1  0
  9 10  2  0
  9 11  1  0
 11 12  1  0
 12 13  1  0
 13 14  1  0
 14 15  1  0
 15 16  2  0
 15 17  1  0
 17 18  1  0
 18 19  1  0
 19 20  2  0
 20 21  1  0
 21 22  2  0
 22 23  1  0
 22 24  1  0
 11 25  1  0
 25 26  2  0
 26 27  1  0
 26 28  1  0
 28 29  2  0
 29 30  1  0
  5 31  1  0
 31 32  2  0
 32  2  1  0
 29  6  1  0
 28  8  1  0
 24 19  1  0
  1 33  1  0
  1 34  1  0
  1 35  1  0
  3 36  1  0
  4 37  1  0
 12 38  1  0
 12 39  1  0
 13 40  1  0
 13 41  1  0
 14 42  1  0
 14 43  1  0
 17 44  1  0
 18 45  1  0
 18 46  1  0
 20 47  1  0
 21 48  1  0
 23 49  1  0
 23 50  1  0
 23 51  1  0
 27 52  1  0
 27 53  1  0
 27 54  1  0
 30 55  1  0
 30 56  1  0
 30 57  1  0
 31 58  1  0
 32 59  1  0
M  END
$$$$
