
     RDKit          3D

 59 62  0  0  0  0  0  0  0  0999 V2000
    7.0514    1.0393    1.0957 C   0  0  0  0  0  0  0  0  0  0  0  0
    6.6192   -0.2387    1.5462 O   0  0  0  0  0  0  0  0  0  0  0  0
    5.2699   -0.4533    1.6082 C   0  0  0  0  0  0  0  0  0  0  0  0
    4.9053   -1.7215    2.0730 C   0  0  0  0  0  0  0  0  0  0  0  0
    3.5606   -2.0842    2.1896 C   0  0  0  0  0  0  0  0  0  0  0  0
    2.5656   -1.1727    1.8378 C   0  0  0  0  0  0  0  0  0  0  0  0
    1.1468   -1.5109    1.9348 C   0  0  0  0  0  0  0  0  0  0  0  0
    0.1963   -0.6321    1.5646 C   0  0  0  0  0  0  0  0  0  0  0  0
   -1.2749   -0.9273    1.6341 C   0  0  0  0  0  0  0  0  0  0  0  0
   -1.8081   -1.2949    0.2949 N   0  0  0  0  0  0  0  0  0  0  0  0
   -1.3267   -2.6020   -0.2441 C   0  0  0  0  0  0  0  0  0  0  0  0
   -0.3545   -2.3618   -1.4089 C   0  0  0  0  0  0  0  0  0  0  0  0
    0.2208   -3.6564   -1.9646 C   0  0  0  0  0  0  0  0  0  0  0  0
    0.5395   -3.2681   -3.3864 C   0  0  0  0  0  0  0  0  0  0  0  0
   -0.6275   -2.3687   -3.7297 C   0  0  0  0  0  0  0  0  0  0  0  0
   -1.0060   -1.7069   -2.5163 O   0  0  0  0  0  0  0  0  0  0  0  0
   -3.4873   -1.0378    0.1179 S   0  0  0  0  0  6  0  0  0  0  0  0
   -3.9283   -1.5376   -1.1660 O   0  0  0  0  0  0  0  0  0  0  0  0
   -4.1094   -1.4927    1.3457 O   0  0  0  0  0  0  0  0  0  0  0  0
   -3.6040    0.7309    0.0453 C   0  0  0  0  0  0  0  0  0  0  0  0
   -4.3300    1.4326    1.0085 C   0  0  0  0  0  0  0  0  0  0  0  0
   -4.3953    2.8257    0.9319 C   0  0  0  0  0  0  0  0  0  0  0  0
   -3.7401    3.5153   -0.1014 C   0  0  0  0  0  0  0  0  0  0  0  0
   -3.8296    5.0059   -0.1274 C   0  0  0  0  0  0  0  0  0  0  0  0
   -3.0536    5.7651   -1.1718 C   0  0  0  0  0  0  0  0  0  0  0  0
   -4.5312    5.5937    0.6938 O   0  0  0  0  0  0  0  0  0  0  0  0
   -3.0278    2.7953   -1.0703 C   0  0  0  0  0  0  0  0  0  0  0  0
   -2.9620    1.4015   -0.9995 C   0  0  0  0  0  0  0  0  0  0  0  0
    0.5879    0.7411    1.1235 C   0  0  0  0  0  0  0  0  0  0  0  0
   -0.2419    1.6069    0.8666 O   0  0  0  0  0  0  0  0  0  0  0  0
    1.9284    1.0079    1.0299 N   0  0  0  0  0  0  0  0  0  0  0  0
    2.9320    0.0950    1.3731 C   0  0  0  0  0  0  0  0  0  0  0  0
    4.2757    0.4608    1.2567 C   0  0  0  0  0  0  0  0  0  0  0  0
    6.7021    1.8325    1.7649 H   0  0  0  0  0  0  0  0  0  0  0  0
    6.7322    1.2223    0.0644 H   0  0  0  0  0  0  0  0  0  0  0  0
    8.1455    1.0473    1.1122 H   0  0  0  0  0  0  0  0  0  0  0  0
    5.6800   -2.4343    2.3484 H   0  0  0  0  0  0  0  0  0  0  0  0
    3.3093   -3.0763    2.5551 H   0  0  0  0  0  0  0  0  0  0  0  0
    0.8871   -2.5007    2.2957 H   0  0  0  0  0  0  0  0  0  0  0  0
   -1.4674   -1.7513    2.3335 H   0  0  0  0  0  0  0  0  0  0  0  0
   -1.7944   -0.0545    2.0440 H   0  0  0  0  0  0  0  0  0  0  0  0
   -0.8418   -3.1895    0.5431 H   0  0  0  0  0  0  0  0  0  0  0  0
   -2.1706   -3.2077   -0.5928 H   0  0  0  0  0  0  0  0  0  0  0  0
    0.4623   -1.7003   -1.0988 H   0  0  0  0  0  0  0  0  0  0  0  0
    1.0922   -4.0068   -1.4042 H   0  0  0  0  0  0  0  0  0  0  0  0
   -0.5315   -4.4546   -1.9619 H   0  0  0  0  0  0  0  0  0  0  0  0
    1.4747   -2.6964   -3.4140 H   0  0  0  0  0  0  0  0  0  0  0  0
    0.6367   -4.1199   -4.0643 H   0  0  0  0  0  0  0  0  0  0  0  0
   -0.3770   -1.6267   -4.4929 H   0  0  0  0  0  0  0  0  0  0  0  0
   -1.4886   -2.9503   -4.0758 H   0  0  0  0  0  0  0  0  0  0  0  0
   -4.8404    0.9123    1.8154 H   0  0  0  0  0  0  0  0  0  0  0  0
   -4.9563    3.3752    1.6864 H   0  0  0  0  0  0  0  0  0  0  0  0
   -3.4381    5.5357   -2.1688 H   0  0  0  0  0  0  0  0  0  0  0  0
   -1.9882    5.5313   -1.0996 H   0  0  0  0  0  0  0  0  0  0  0  0
   -3.1733    6.8391   -0.9977 H   0  0  0  0  0  0  0  0  0  0  0  0
   -2.5077    3.2906   -1.8845 H   0  0  0  0  0  0  0  0  0  0  0  0
   -2.3977    0.8419   -1.7447 H   0  0  0  0  0  0  0  0  0  0  0  0
    2.1665    1.9403    0.7203 H   0  0  0  0  0  0  0  0  0  0  0  0
    4.5233    1.4516    0.8942 H   0  0  0  0  0  0  0  0  0  0  0  0
  1  2  1  0
  2  3  1  0
  3  4  2  0
  4  5  1  0
  5  6  2  0
  6  7  1  0
  7  8  2  0
  8  9  1  0
  9 10  1  0
 10 11  1  0
 11 12  1  0
 12 13  1  0
 13 14  1  0
 14 15  1  0
 15 16  1  0
 10 17  1  0
 17 18  2  0
 17 19  2  0
 17 20  1  0
 20 21  2  0
 21 22  1  0
 22 23  2  0
 23 24  1  0
 24 25  1  0
 24 26  2  0
 23 27  1  0
 27 28  2  0
  8 29  1  0
 29 30  2  0
 29 31  1  0
 31 32  1  0
 32 33  2  0
 33  3  1  0
 32  6  1  0
 16 12  1  0
 28 20  1  0
  1 34  1  0
  1 35  1  0
  1 36  1  0
  4 37  1  0
  5 38  1  0
  7 39  1  0
  9 40  1  0
  9 41  1  0
 11 42  1  0
 11 43  1  0
 12 44  1  0
 13 45  1  0
 13 46  1  0
 14 47  1  0
 14 48  1  0
 15 49  1  0
 15 50  1  0
 21 51  1  0
 22 52  1  0
 25 53  1  0
 25 54  1  0
 25 55  1  0
 27 56  1  0
 28 57  1  0
 31 58  1  0
 33 59  1  0
M  END
$$$$
