
     RDKit          3D

 65 70  0  0  0  0  0  0  0  0999 V2000
   -6.0674   -4.4042    0.0956 C   0  0  0  0  0  0  0  0  0  0  0  0
   -4.6594   -4.4725    0.2837 O   0  0  0  0  0  0  0  0  0  0  0  0
   -3.9348   -3.3725   -0.0861 C   0  0  0  0  0  0  0  0  0  0  0  0
   -2.5529   -3.4976    0.0879 C   0  0  0  0  0  0  0  0  0  0  0  0
   -1.6850   -2.4573   -0.2609 C   0  0  0  0  0  0  0  0  0  0  0  0
   -2.1952   -1.2611   -0.7686 C   0  0  0  0  0  0  0  0  0  0  0  0
   -3.5818   -1.1441   -0.9217 C   0  0  0  0  0  0  0  0  0  0  0  0
   -4.4505   -2.1877   -0.6058 C   0  0  0  0  0  0  0  0  0  0  0  0
   -4.1185    0.0067   -1.4427 O   0  0  0  0  0  0  0  0  0  0  0  0
   -3.5486    1.1557   -0.8075 C   0  0  0  0  0  0  0  0  0  0  0  0
   -2.0208    1.2180   -0.8931 C   0  0  0  0  0  0  0  0  0  0  0  0
   -1.3603   -0.1071   -1.2688 C   0  0  0  0  0  0  0  0  0  0  0  0
   -0.0095   -0.0219   -0.7063 N   0  0  0  0  0  0  0  0  0  0  0  0
    1.0169   -0.7154   -1.3125 C   0  0  0  0  0  0  0  0  0  0  0  0
    0.8287   -1.3668   -2.3406 O   0  0  0  0  0  0  0  0  0  0  0  0
    2.3844   -0.7337   -0.7313 C   0  0  0  0  0  0  0  0  0  0  0  0
    3.4180   -1.0575   -1.6375 C   0  0  0  0  0  0  0  0  0  0  0  0
    4.7319   -1.2614   -1.2098 C   0  0  0  0  0  0  0  0  0  0  0  0
    5.7805   -1.5722   -2.0375 O   0  0  0  0  0  0  0  0  0  0  0  0
    5.4975   -1.7840   -3.4141 C   0  0  0  0  0  0  0  0  0  0  0  0
    5.0294   -1.1589    0.1566 C   0  0  0  0  0  0  0  0  0  0  0  0
    6.3366   -1.3810    0.5083 O   0  0  0  0  0  0  0  0  0  0  0  0
    6.6716   -1.3566    1.8882 C   0  0  0  0  0  0  0  0  0  0  0  0
    4.0081   -0.8388    1.0579 C   0  0  0  0  0  0  0  0  0  0  0  0
    2.6888   -0.5965    0.6262 C   0  0  0  0  0  0  0  0  0  0  0  0
    1.7967   -0.2416    1.6477 N   0  0  0  0  0  0  0  0  0  0  0  0
    0.6194    0.4447    1.6097 C   0  0  0  0  0  0  0  0  0  0  0  0
    0.0729    0.6478    2.6980 O   0  0  0  0  0  0  0  0  0  0  0  0
    0.1127    1.0593    0.2915 C   0  0  0  0  0  0  0  0  0  0  0  0
    1.0414    2.1880   -0.1915 C   0  0  0  0  0  0  0  0  0  0  0  0
   -1.3694    1.5555    0.4691 C   0  0  0  0  0  0  0  0  0  0  0  0
   -1.5903    2.9826    0.9517 C   0  0  0  0  0  0  0  0  0  0  0  0
   -1.7652    3.2153    2.3261 C   0  0  0  0  0  0  0  0  0  0  0  0
   -1.9728    4.5047    2.8207 C   0  0  0  0  0  0  0  0  0  0  0  0
   -2.0101    5.5876    1.9490 C   0  0  0  0  0  0  0  0  0  0  0  0
   -1.8385    5.3799    0.5839 C   0  0  0  0  0  0  0  0  0  0  0  0
   -1.6303    4.0893    0.0888 C   0  0  0  0  0  0  0  0  0  0  0  0
   -6.3191   -4.2759   -0.9624 H   0  0  0  0  0  0  0  0  0  0  0  0
   -6.4951   -5.3557    0.4262 H   0  0  0  0  0  0  0  0  0  0  0  0
   -6.5091   -3.6105    0.7071 H   0  0  0  0  0  0  0  0  0  0  0  0
   -2.1443   -4.4258    0.4814 H   0  0  0  0  0  0  0  0  0  0  0  0
   -0.6160   -2.6111   -0.1489 H   0  0  0  0  0  0  0  0  0  0  0  0
   -5.5116   -2.0404   -0.7684 H   0  0  0  0  0  0  0  0  0  0  0  0
   -3.9141    1.1948    0.2273 H   0  0  0  0  0  0  0  0  0  0  0  0
   -3.9712    2.0372   -1.3037 H   0  0  0  0  0  0  0  0  0  0  0  0
   -1.7313    1.9552   -1.6519 H   0  0  0  0  0  0  0  0  0  0  0  0
   -1.2967   -0.1952   -2.3614 H   0  0  0  0  0  0  0  0  0  0  0  0
    3.1614   -1.1663   -2.6884 H   0  0  0  0  0  0  0  0  0  0  0  0
    6.4345   -2.0561   -3.9096 H   0  0  0  0  0  0  0  0  0  0  0  0
    4.7961   -2.6136   -3.5513 H   0  0  0  0  0  0  0  0  0  0  0  0
    5.1267   -0.8679   -3.8853 H   0  0  0  0  0  0  0  0  0  0  0  0
    6.5125   -0.3606    2.3140 H   0  0  0  0  0  0  0  0  0  0  0  0
    6.1160   -2.1190    2.4442 H   0  0  0  0  0  0  0  0  0  0  0  0
    7.7369   -1.5900    1.9783 H   0  0  0  0  0  0  0  0  0  0  0  0
    4.2336   -0.7430    2.1157 H   0  0  0  0  0  0  0  0  0  0  0  0
    2.0845   -0.4091    2.6060 H   0  0  0  0  0  0  0  0  0  0  0  0
    2.0647    1.8580   -0.3831 H   0  0  0  0  0  0  0  0  0  0  0  0
    0.6804    2.6259   -1.1283 H   0  0  0  0  0  0  0  0  0  0  0  0
    1.1248    2.9813    0.5594 H   0  0  0  0  0  0  0  0  0  0  0  0
   -1.8625    0.9008    1.2054 H   0  0  0  0  0  0  0  0  0  0  0  0
   -1.7432    2.3872    3.0338 H   0  0  0  0  0  0  0  0  0  0  0  0
   -2.1052    4.6591    3.8886 H   0  0  0  0  0  0  0  0  0  0  0  0
   -2.1717    6.5912    2.3331 H   0  0  0  0  0  0  0  0  0  0  0  0
   -1.8646    6.2253   -0.0993 H   0  0  0  0  0  0  0  0  0  0  0  0
   -1.4905    3.9792   -0.9829 H   0  0  0  0  0  0  0  0  0  0  0  0
  1  2  1  0
  2  3  1  0
  3  4  2  0
  4  5  1  0
  5  6  2  0
  6  7  1  0
  7  8  2  0
  7  9  1  0
  9 10  1  0
 10 11  1  0
 11 12  1  0
 12 13  1  0
 13 14  1  0
 14 15  2  0
 14 16  1  0
 16 17  2  0
 17 18  1  0
 18 19  1  0
 19 20  1  0
 18 21  2  0
 21 22  1  0
 22 23  1  0
 21 24  1  0
 24 25  2  0
 25 26  1  0
 26 27  1  0
 27 28  2  0
 27 29  1  0
 29 30  1  0
 29 31  1  0
 31 32  1  0
 32 33  2  0
 33 34  1  0
 34 35  2  0
 35 36  1  0
 36 37  2  0
  8  3  1  0
 31 11  1  0
 37 32  1  0
 12  6  1  0
 29 13  1  0
 25 16  1  0
  1 38  1  0
  1 39  1  0
  1 40  1  0
  4 41  1  0
  5 42  1  0
  8 43  1  0
 10 44  1  0
 10 45  1  0
 11 46  1  0
 12 47  1  0
 17 48  1  0
 20 49  1  0
 20 50  1  0
 20 51  1  0
 23 52  1  0
 23 53  1  0
 23 54  1  0
 24 55  1  0
 26 56  1  0
 30 57  1  0
 30 58  1  0
 30 59  1  0
 31 60  1  0
 33 61  1  0
 34 62  1  0
 35 63  1  0
 36 64  1  0
 37 65  1  0
M  END
$$$$
