
     RDKit          3D

 31 32  0  0  0  0  0  0  0  0999 V2000
    3.0827   -2.6492   -0.9191 C   0  0  0  0  0  0  0  0  0  0  0  0
    2.6425   -1.3022   -1.4740 C   0  0  0  0  0  0  0  0  0  0  0  0
    2.7807   -0.2291   -0.4930 N   0  0  0  0  0  0  0  0  0  0  0  0
    1.8154    0.4090    0.2315 C   0  0  0  0  0  0  0  0  0  0  0  0
    0.4065    0.0640    0.2551 C   0  0  0  0  0  0  0  0  0  0  0  0
   -0.1211   -1.2114    0.2198 C   0  0  0  0  0  0  0  0  0  0  0  0
   -1.8291   -1.2386    0.2715 S   0  0  0  0  0  0  0  0  0  0  0  0
   -1.9199    0.4657    0.3985 C   0  0  0  0  0  0  0  0  0  0  0  0
   -3.2413    1.1938    0.5108 C   0  0  0  0  0  0  0  0  0  0  0  0
   -4.1132    0.9967   -0.7301 C   0  0  0  0  0  0  0  0  0  0  0  0
   -3.9990    0.8165    1.7845 C   0  0  0  0  0  0  0  0  0  0  0  0
   -0.6566    1.0255    0.3901 C   0  0  0  0  0  0  0  0  0  0  0  0
    2.2418    1.4280    0.9259 N   0  0  0  0  0  0  0  0  0  0  0  0
    3.5788    1.4723    0.6710 N   0  0  0  0  0  0  0  0  0  0  0  0
    3.9332    0.4734   -0.2205 C   0  0  0  0  0  0  0  0  0  0  0  0
    5.4753    0.2745   -0.7951 S   0  0  0  0  0  0  0  0  0  0  0  0
    2.5403   -2.9054   -0.0046 H   0  0  0  0  0  0  0  0  0  0  0  0
    4.1491   -2.6515   -0.6745 H   0  0  0  0  0  0  0  0  0  0  0  0
    2.9061   -3.4379   -1.6571 H   0  0  0  0  0  0  0  0  0  0  0  0
    1.6067   -1.3560   -1.8189 H   0  0  0  0  0  0  0  0  0  0  0  0
    3.2535   -1.0572   -2.3497 H   0  0  0  0  0  0  0  0  0  0  0  0
    0.4005   -2.1548    0.1789 H   0  0  0  0  0  0  0  0  0  0  0  0
   -3.0193    2.2680    0.5775 H   0  0  0  0  0  0  0  0  0  0  0  0
   -3.5700    1.2746   -1.6402 H   0  0  0  0  0  0  0  0  0  0  0  0
   -5.0112    1.6215   -0.6721 H   0  0  0  0  0  0  0  0  0  0  0  0
   -4.4401   -0.0431   -0.8401 H   0  0  0  0  0  0  0  0  0  0  0  0
   -4.3212   -0.2305    1.7745 H   0  0  0  0  0  0  0  0  0  0  0  0
   -4.8946    1.4372    1.8970 H   0  0  0  0  0  0  0  0  0  0  0  0
   -3.3743    0.9658    2.6721 H   0  0  0  0  0  0  0  0  0  0  0  0
   -0.4850    2.0938    0.4708 H   0  0  0  0  0  0  0  0  0  0  0  0
    4.1829    2.1867    1.0595 H   0  0  0  0  0  0  0  0  0  0  0  0
  1  2  1  0
  2  3  1  0
  3  4  1  0
  4  5  1  0
  5  6  2  0
  6  7  1  0
  7  8  1  0
  8  9  1  0
  9 10  1  0
  9 11  1  0
  8 12  2  0
  4 13  2  0
 13 14  1  0
 14 15  1  0
 15 16  2  0
 15  3  1  0
 12  5  1  0
  1 17  1  0
  1 18  1  0
  1 19  1  0
  2 20  1  0
  2 21  1  0
  6 22  1  0
  9 23  1  0
 10 24  1  0
 10 25  1  0
 10 26  1  0
 11 27  1  0
 11 28  1  0
 11 29  1  0
 12 30  1  0
 14 31  1  0
M  END
$$$$
