
     RDKit          3D

 57 59  0  0  0  0  0  0  0  0999 V2000
    4.2779    1.5954    3.0359 C   0  0  0  0  0  0  0  0  0  0  0  0
    4.6567    1.0833    1.6508 C   0  0  0  0  0  0  0  0  0  0  0  0
    5.2981    2.4502    0.5930 S   0  0  0  0  0  0  0  0  0  0  0  0
    6.9268    2.7407    1.3588 C   0  0  0  0  0  0  0  0  0  0  0  0
    7.8514    1.5518    1.3011 C   0  0  0  0  0  0  0  0  0  0  0  0
    8.2625    0.9128    2.4804 C   0  0  0  0  0  0  0  0  0  0  0  0
    9.1148   -0.1917    2.4286 C   0  0  0  0  0  0  0  0  0  0  0  0
    9.5686   -0.6671    1.2000 C   0  0  0  0  0  0  0  0  0  0  0  0
    9.1741   -0.0372    0.0220 C   0  0  0  0  0  0  0  0  0  0  0  0
    8.3227    1.0677    0.0712 C   0  0  0  0  0  0  0  0  0  0  0  0
    3.4324    0.4191    1.0047 C   0  0  0  0  0  0  0  0  0  0  0  0
    3.2745   -0.7998    1.0821 O   0  0  0  0  0  0  0  0  0  0  0  0
    2.5229    1.3160    0.4510 N   0  0  0  0  0  0  0  0  0  0  0  0
    1.2613    1.0315    0.0007 N   0  0  0  0  0  0  0  0  0  0  0  0
    1.0398   -0.1351   -0.5180 C   0  0  0  0  0  0  0  0  0  0  0  0
   -0.3050   -0.5322   -0.9843 C   0  0  0  0  0  0  0  0  0  0  0  0
   -0.4712   -1.7893   -1.5664 C   0  0  0  0  0  0  0  0  0  0  0  0
   -1.7347   -2.1790   -2.0171 C   0  0  0  0  0  0  0  0  0  0  0  0
   -2.8345   -1.3234   -1.8951 C   0  0  0  0  0  0  0  0  0  0  0  0
   -4.0045   -1.8351   -2.3819 O   0  0  0  0  0  0  0  0  0  0  0  0
   -5.1243   -0.9720   -2.4756 C   0  0  0  0  0  0  0  0  0  0  0  0
   -5.9366   -0.7735   -1.1881 C   0  0  0  0  0  0  0  0  0  0  0  0
   -5.6973   -1.3460   -0.1301 O   0  0  0  0  0  0  0  0  0  0  0  0
   -6.9724    0.1316   -1.3321 N   0  0  0  0  0  0  0  0  0  0  0  0
   -7.9424    0.3218   -0.2759 C   0  0  0  0  0  0  0  0  0  0  0  0
   -9.0716   -0.6108   -0.5091 C   0  0  0  0  0  0  0  0  0  0  0  0
   -9.3433   -1.8925   -0.0758 C   0  0  0  0  0  0  0  0  0  0  0  0
  -10.5812   -2.2556   -0.6570 C   0  0  0  0  0  0  0  0  0  0  0  0
  -10.9824   -1.1771   -1.4108 C   0  0  0  0  0  0  0  0  0  0  0  0
  -10.0694   -0.1743   -1.3329 O   0  0  0  0  0  0  0  0  0  0  0  0
   -2.6634   -0.0722   -1.3002 C   0  0  0  0  0  0  0  0  0  0  0  0
   -1.3998    0.3248   -0.8472 C   0  0  0  0  0  0  0  0  0  0  0  0
    3.8347    0.7886    3.6319 H   0  0  0  0  0  0  0  0  0  0  0  0
    3.5348    2.4004    2.9872 H   0  0  0  0  0  0  0  0  0  0  0  0
    5.1489    1.9629    3.5870 H   0  0  0  0  0  0  0  0  0  0  0  0
    5.4244    0.3067    1.7245 H   0  0  0  0  0  0  0  0  0  0  0  0
    6.7834    3.0839    2.3887 H   0  0  0  0  0  0  0  0  0  0  0  0
    7.4015    3.5749    0.8282 H   0  0  0  0  0  0  0  0  0  0  0  0
    7.9198    1.2671    3.4501 H   0  0  0  0  0  0  0  0  0  0  0  0
    9.4238   -0.6834    3.3474 H   0  0  0  0  0  0  0  0  0  0  0  0
   10.2291   -1.5293    1.1601 H   0  0  0  0  0  0  0  0  0  0  0  0
    9.5267   -0.4082   -0.9369 H   0  0  0  0  0  0  0  0  0  0  0  0
    8.0217    1.5460   -0.8588 H   0  0  0  0  0  0  0  0  0  0  0  0
    2.7041    2.3074    0.5861 H   0  0  0  0  0  0  0  0  0  0  0  0
    1.8355   -0.8812   -0.6782 H   0  0  0  0  0  0  0  0  0  0  0  0
    0.3668   -2.4738   -1.6693 H   0  0  0  0  0  0  0  0  0  0  0  0
   -1.8653   -3.1609   -2.4664 H   0  0  0  0  0  0  0  0  0  0  0  0
   -5.8070   -1.4380   -3.1969 H   0  0  0  0  0  0  0  0  0  0  0  0
   -4.8472    0.0000   -2.9029 H   0  0  0  0  0  0  0  0  0  0  0  0
   -7.2761    0.3810   -2.2643 H   0  0  0  0  0  0  0  0  0  0  0  0
   -7.4857    0.1501    0.7037 H   0  0  0  0  0  0  0  0  0  0  0  0
   -8.2821    1.3614   -0.3233 H   0  0  0  0  0  0  0  0  0  0  0  0
   -8.7134   -2.4869    0.5739 H   0  0  0  0  0  0  0  0  0  0  0  0
  -11.1144   -3.1889   -0.5445 H   0  0  0  0  0  0  0  0  0  0  0  0
  -11.8454   -0.9767   -2.0311 H   0  0  0  0  0  0  0  0  0  0  0  0
   -3.4896    0.6146   -1.1534 H   0  0  0  0  0  0  0  0  0  0  0  0
   -1.2792    1.2995   -0.3806 H   0  0  0  0  0  0  0  0  0  0  0  0
  1  2  1  0
  2  3  1  0
  3  4  1  0
  4  5  1  0
  5  6  2  0
  6  7  1  0
  7  8  2  0
  8  9  1  0
  9 10  2  0
  2 11  1  0
 11 12  2  0
 11 13  1  0
 13 14  1  0
 14 15  2  3
 15 16  1  0
 16 17  2  0
 17 18  1  0
 18 19  2  0
 19 20  1  0
 20 21  1  0
 21 22  1  0
 22 23  2  0
 22 24  1  0
 24 25  1  0
 25 26  1  0
 26 27  2  0
 27 28  1  0
 28 29  2  0
 29 30  1  0
 19 31  1  0
 31 32  2  0
 10  5  1  0
 32 16  1  0
 30 26  1  0
  1 33  1  0
  1 34  1  0
  1 35  1  0
  2 36  1  0
  4 37  1  0
  4 38  1  0
  6 39  1  0
  7 40  1  0
  8 41  1  0
  9 42  1  0
 10 43  1  0
 13 44  1  0
 15 45  1  0
 17 46  1  0
 18 47  1  0
 21 48  1  0
 21 49  1  0
 24 50  1  0
 25 51  1  0
 25 52  1  0
 27 53  1  0
 28 54  1  0
 29 55  1  0
 31 56  1  0
 32 57  1  0
M  END
$$$$
