
     RDKit          3D

 44 46  0  0  0  0  0  0  0  0999 V2000
   -3.0245   -1.0144    3.6050 C   0  0  0  0  0  0  0  0  0  0  0  0
   -2.5718   -1.2573    2.1953 C   0  0  0  0  0  0  0  0  0  0  0  0
   -1.6040   -2.2217    1.9182 C   0  0  0  0  0  0  0  0  0  0  0  0
   -1.1335   -2.4388    0.6092 C   0  0  0  0  0  0  0  0  0  0  0  0
   -0.1189   -3.5388    0.4335 C   0  0  0  0  0  0  0  0  0  0  0  0
   -1.6556   -1.6509   -0.4524 C   0  0  0  0  0  0  0  0  0  0  0  0
   -1.0357   -1.9156   -2.1316 S   0  0  0  0  0  6  0  0  0  0  0  0
   -1.8288   -1.1732   -3.0873 O   0  0  0  0  0  0  0  0  0  0  0  0
   -0.8397   -3.3384   -2.3197 O   0  0  0  0  0  0  0  0  0  0  0  0
    0.5100   -1.2255   -2.0870 N   0  0  0  0  0  0  0  0  0  0  0  0
    0.6492    0.1267   -1.6729 C   0  0  0  0  0  0  0  0  0  0  0  0
    0.2378    1.1610   -2.5111 C   0  0  0  0  0  0  0  0  0  0  0  0
    0.3405    2.4860   -2.0867 C   0  0  0  0  0  0  0  0  0  0  0  0
    0.8501    2.7678   -0.8182 C   0  0  0  0  0  0  0  0  0  0  0  0
    0.9410    4.0691   -0.4040 O   0  0  0  0  0  0  0  0  0  0  0  0
    1.2641    1.7338    0.0339 C   0  0  0  0  0  0  0  0  0  0  0  0
    1.8942    2.0536    1.6740 S   0  0  0  0  0  0  0  0  0  0  0  0
    3.6153    2.1023    1.3895 C   0  0  0  0  0  0  0  0  0  0  0  0
    4.2288    1.6000    0.2686 N   0  0  0  0  0  0  0  0  0  0  0  0
    5.4992    1.8376    0.4915 C   0  0  0  0  0  0  0  0  0  0  0  0
    5.6409    2.4393    1.7001 N   0  0  0  0  0  0  0  0  0  0  0  0
    4.4554    2.6028    2.3037 N   0  0  0  0  0  0  0  0  0  0  0  0
    1.1557    0.4074   -0.4039 C   0  0  0  0  0  0  0  0  0  0  0  0
   -2.6448   -0.6722   -0.1826 C   0  0  0  0  0  0  0  0  0  0  0  0
   -3.2960    0.1982   -1.2237 C   0  0  0  0  0  0  0  0  0  0  0  0
   -3.0751   -0.4877    1.1463 C   0  0  0  0  0  0  0  0  0  0  0  0
   -4.0556   -0.6457    3.6275 H   0  0  0  0  0  0  0  0  0  0  0  0
   -2.3744   -0.2756    4.0840 H   0  0  0  0  0  0  0  0  0  0  0  0
   -2.9991   -1.9409    4.1885 H   0  0  0  0  0  0  0  0  0  0  0  0
   -1.2101   -2.8194    2.7400 H   0  0  0  0  0  0  0  0  0  0  0  0
    0.2801   -3.8705    1.3992 H   0  0  0  0  0  0  0  0  0  0  0  0
   -0.5803   -4.4106   -0.0392 H   0  0  0  0  0  0  0  0  0  0  0  0
    0.7435   -3.2026   -0.1451 H   0  0  0  0  0  0  0  0  0  0  0  0
    1.2252   -1.8872   -1.7938 H   0  0  0  0  0  0  0  0  0  0  0  0
   -0.1635    0.9405   -3.4980 H   0  0  0  0  0  0  0  0  0  0  0  0
    0.0154    3.2787   -2.7536 H   0  0  0  0  0  0  0  0  0  0  0  0
    0.6416    4.6548   -1.1175 H   0  0  0  0  0  0  0  0  0  0  0  0
    6.3285    1.6047   -0.1607 H   0  0  0  0  0  0  0  0  0  0  0  0
    6.4842    2.7535    2.1670 H   0  0  0  0  0  0  0  0  0  0  0  0
    1.4667   -0.4011    0.2516 H   0  0  0  0  0  0  0  0  0  0  0  0
   -3.8745   -0.4106   -1.9249 H   0  0  0  0  0  0  0  0  0  0  0  0
   -2.5546    0.8037   -1.7494 H   0  0  0  0  0  0  0  0  0  0  0  0
   -4.0018    0.9054   -0.7727 H   0  0  0  0  0  0  0  0  0  0  0  0
   -3.8247    0.2718    1.3688 H   0  0  0  0  0  0  0  0  0  0  0  0
  1  2  1  0
  2  3  2  0
  3  4  1  0
  4  5  1  0
  4  6  2  0
  6  7  1  0
  7  8  2  0
  7  9  2  0
  7 10  1  0
 10 11  1  0
 11 12  2  0
 12 13  1  0
 13 14  2  0
 14 15  1  0
 14 16  1  0
 16 17  1  0
 17 18  1  0
 18 19  1  0
 19 20  2  0
 20 21  1  0
 21 22  1  0
 16 23  2  0
  6 24  1  0
 24 25  1  0
 24 26  2  0
 26  2  1  0
 23 11  1  0
 22 18  2  0
  1 27  1  0
  1 28  1  0
  1 29  1  0
  3 30  1  0
  5 31  1  0
  5 32  1  0
  5 33  1  0
 10 34  1  0
 12 35  1  0
 13 36  1  0
 15 37  1  0
 20 38  1  0
 21 39  1  0
 23 40  1  0
 25 41  1  0
 25 42  1  0
 25 43  1  0
 26 44  1  0
M  END
$$$$
