
     RDKit          3D

 33 34  0  0  0  0  0  0  0  0999 V2000
   -1.9597    1.9685   -0.9918 N   0  0  0  0  0  0  0  0  0  0  0  0
   -1.8769    1.1739    0.0286 C   0  0  0  0  0  0  0  0  0  0  0  0
   -0.6743    0.7612    0.5612 N   0  0  0  0  0  0  0  0  0  0  0  0
    0.3305    0.6467   -0.4218 O   0  0  0  0  0  0  0  0  0  0  0  0
    0.6005   -0.6659   -0.7233 C   0  0  0  0  0  0  0  0  0  0  0  0
    0.0816   -1.6212   -0.1528 O   0  0  0  0  0  0  0  0  0  0  0  0
    1.6203   -0.7632   -1.8272 C   0  0  0  0  0  0  0  0  0  0  0  0
    3.0257   -0.5317   -1.3393 C   0  0  0  0  0  0  0  0  0  0  0  0
    3.7243   -1.5552   -0.6835 C   0  0  0  0  0  0  0  0  0  0  0  0
    5.0189   -1.3364   -0.2109 C   0  0  0  0  0  0  0  0  0  0  0  0
    5.6248   -0.0938   -0.3849 C   0  0  0  0  0  0  0  0  0  0  0  0
    4.9368    0.9319   -1.0302 C   0  0  0  0  0  0  0  0  0  0  0  0
    3.6419    0.7162   -1.5042 C   0  0  0  0  0  0  0  0  0  0  0  0
   -3.1289    0.6674    0.6349 C   0  0  0  0  0  0  0  0  0  0  0  0
   -3.4011   -0.7029    0.5166 C   0  0  0  0  0  0  0  0  0  0  0  0
   -4.5692   -1.2295    1.0689 C   0  0  0  0  0  0  0  0  0  0  0  0
   -5.4619   -0.3928    1.7380 C   0  0  0  0  0  0  0  0  0  0  0  0
   -5.1874    0.9720    1.8593 C   0  0  0  0  0  0  0  0  0  0  0  0
   -4.0190    1.5088    1.3092 C   0  0  0  0  0  0  0  0  0  0  0  0
   -3.7142    3.1909    1.5508 Cl  0  0  0  0  0  0  0  0  0  0  0  0
   -1.0012    2.2307   -1.2463 H   0  0  0  0  0  0  0  0  0  0  0  0
   -0.7204   -0.0672    1.1603 H   0  0  0  0  0  0  0  0  0  0  0  0
    1.5417   -1.7573   -2.2844 H   0  0  0  0  0  0  0  0  0  0  0  0
    1.3525   -0.0568   -2.6224 H   0  0  0  0  0  0  0  0  0  0  0  0
    3.2645   -2.5307   -0.5344 H   0  0  0  0  0  0  0  0  0  0  0  0
    5.5547   -2.1355    0.2952 H   0  0  0  0  0  0  0  0  0  0  0  0
    6.6330    0.0761   -0.0157 H   0  0  0  0  0  0  0  0  0  0  0  0
    5.4091    1.9021   -1.1627 H   0  0  0  0  0  0  0  0  0  0  0  0
    3.1204    1.5316   -2.0013 H   0  0  0  0  0  0  0  0  0  0  0  0
   -2.7179   -1.3583   -0.0191 H   0  0  0  0  0  0  0  0  0  0  0  0
   -4.7866   -2.2907    0.9710 H   0  0  0  0  0  0  0  0  0  0  0  0
   -6.3743   -0.8021    2.1661 H   0  0  0  0  0  0  0  0  0  0  0  0
   -5.8883    1.6132    2.3887 H   0  0  0  0  0  0  0  0  0  0  0  0
  1  2  2  3
  2  3  1  0
  3  4  1  0
  4  5  1  0
  5  6  2  0
  5  7  1  0
  7  8  1  0
  8  9  2  0
  9 10  1  0
 10 11  2  0
 11 12  1  0
 12 13  2  0
  2 14  1  0
 14 15  2  0
 15 16  1  0
 16 17  2  0
 17 18  1  0
 18 19  2  0
 19 20  1  0
 13  8  1  0
 19 14  1  0
  1 21  1  0
  3 22  1  0
  7 23  1  0
  7 24  1  0
  9 25  1  0
 10 26  1  0
 11 27  1  0
 12 28  1  0
 13 29  1  0
 15 30  1  0
 16 31  1  0
 17 32  1  0
 18 33  1  0
M  END
$$$$
