
     RDKit          3D

 58 62  0  0  0  0  0  0  0  0999 V2000
    8.1466    1.0512    2.3590 C   0  0  0  0  0  0  0  0  0  0  0  0
    7.0302    1.9313    2.3305 O   0  0  0  0  0  0  0  0  0  0  0  0
    5.8959    1.4794    1.7138 C   0  0  0  0  0  0  0  0  0  0  0  0
    4.8465    2.4031    1.6825 C   0  0  0  0  0  0  0  0  0  0  0  0
    3.6262    2.0799    1.0820 C   0  0  0  0  0  0  0  0  0  0  0  0
    3.4325    0.8270    0.5034 C   0  0  0  0  0  0  0  0  0  0  0  0
    2.1829    0.5474   -0.0832 N   0  0  0  0  0  0  0  0  0  0  0  0
    1.9493   -0.6203   -0.6273 C   0  0  0  0  0  0  0  0  0  0  0  0
    0.6937   -0.8758   -1.1758 N   0  0  0  0  0  0  0  0  0  0  0  0
   -0.1278   -1.9169   -0.5269 C   0  0  0  0  0  0  0  0  0  0  0  0
   -1.3360   -2.3028   -1.4086 C   0  0  0  0  0  0  0  0  0  0  0  0
   -2.1932   -1.1707   -1.8354 N   0  0  0  0  0  0  0  0  0  0  0  0
   -2.9937   -0.6542   -0.7080 C   0  0  0  0  0  0  0  0  0  0  0  0
   -4.0892    0.3406   -1.1481 C   0  0  0  0  0  0  0  0  0  0  0  0
   -5.1046    0.7594   -0.0924 C   0  0  0  0  0  0  0  0  0  0  0  0
   -4.8453    0.5977    1.2806 C   0  0  0  0  0  0  0  0  0  0  0  0
   -5.7712    1.0003    2.2451 C   0  0  0  0  0  0  0  0  0  0  0  0
   -6.9720    1.5820    1.8605 C   0  0  0  0  0  0  0  0  0  0  0  0
   -7.2454    1.7702    0.5083 C   0  0  0  0  0  0  0  0  0  0  0  0
   -6.3221    1.3772   -0.4817 C   0  0  0  0  0  0  0  0  0  0  0  0
   -6.6739    1.6185   -1.9374 C   0  0  0  0  0  0  0  0  0  0  0  0
   -5.6800    2.2418   -2.6309 F   0  0  0  0  0  0  0  0  0  0  0  0
   -6.9396    0.4646   -2.6102 F   0  0  0  0  0  0  0  0  0  0  0  0
   -7.7777    2.4028   -2.1066 F   0  0  0  0  0  0  0  0  0  0  0  0
   -1.3172   -0.1467   -2.4532 C   0  0  0  0  0  0  0  0  0  0  0  0
   -0.1107    0.2915   -1.5946 C   0  0  0  0  0  0  0  0  0  0  0  0
    3.0179   -1.6046   -0.6475 C   0  0  0  0  0  0  0  0  0  0  0  0
    3.0983   -2.8599   -1.2229 C   0  0  0  0  0  0  0  0  0  0  0  0
    4.3784   -3.3846   -0.9308 C   0  0  0  0  0  0  0  0  0  0  0  0
    5.0570   -2.4271   -0.2075 C   0  0  0  0  0  0  0  0  0  0  0  0
    4.2349   -1.3343   -0.0634 N   0  0  0  0  0  0  0  0  0  0  0  0
    4.4899   -0.0929    0.5439 C   0  0  0  0  0  0  0  0  0  0  0  0
    5.7191    0.2191    1.1409 C   0  0  0  0  0  0  0  0  0  0  0  0
    8.9663    1.5676    2.8676 H   0  0  0  0  0  0  0  0  0  0  0  0
    7.9193    0.1446    2.9296 H   0  0  0  0  0  0  0  0  0  0  0  0
    8.4837    0.8077    1.3459 H   0  0  0  0  0  0  0  0  0  0  0  0
    4.9799    3.3859    2.1285 H   0  0  0  0  0  0  0  0  0  0  0  0
    2.8207    2.8090    1.0650 H   0  0  0  0  0  0  0  0  0  0  0  0
   -0.4695   -1.5542    0.4503 H   0  0  0  0  0  0  0  0  0  0  0  0
    0.4593   -2.8215   -0.3403 H   0  0  0  0  0  0  0  0  0  0  0  0
   -0.9603   -2.7962   -2.3152 H   0  0  0  0  0  0  0  0  0  0  0  0
   -1.9405   -3.0595   -0.8934 H   0  0  0  0  0  0  0  0  0  0  0  0
   -3.4976   -1.5039   -0.2281 H   0  0  0  0  0  0  0  0  0  0  0  0
   -2.3543   -0.1940    0.0533 H   0  0  0  0  0  0  0  0  0  0  0  0
   -3.6204    1.2596   -1.5182 H   0  0  0  0  0  0  0  0  0  0  0  0
   -4.6306   -0.1214   -1.9826 H   0  0  0  0  0  0  0  0  0  0  0  0
   -3.9166    0.1571    1.6341 H   0  0  0  0  0  0  0  0  0  0  0  0
   -5.5494    0.8606    3.3005 H   0  0  0  0  0  0  0  0  0  0  0  0
   -7.6927    1.8944    2.6120 H   0  0  0  0  0  0  0  0  0  0  0  0
   -8.1895    2.2350    0.2243 H   0  0  0  0  0  0  0  0  0  0  0  0
   -1.8949    0.7336   -2.7533 H   0  0  0  0  0  0  0  0  0  0  0  0
   -0.9342   -0.5680   -3.3929 H   0  0  0  0  0  0  0  0  0  0  0  0
    0.5090    0.9664   -2.1980 H   0  0  0  0  0  0  0  0  0  0  0  0
   -0.4522    0.8511   -0.7155 H   0  0  0  0  0  0  0  0  0  0  0  0
    2.3171   -3.3429   -1.7952 H   0  0  0  0  0  0  0  0  0  0  0  0
    4.7689   -4.3505   -1.2247 H   0  0  0  0  0  0  0  0  0  0  0  0
    6.0602   -2.4448    0.1923 H   0  0  0  0  0  0  0  0  0  0  0  0
    6.5187   -0.5099    1.1541 H   0  0  0  0  0  0  0  0  0  0  0  0
  1  2  1  0
  2  3  1  0
  3  4  2  0
  4  5  1  0
  5  6  2  0
  6  7  1  0
  7  8  2  0
  8  9  1  0
  9 10  1  0
 10 11  1  0
 11 12  1  0
 12 13  1  0
 13 14  1  0
 14 15  1  0
 15 16  2  0
 16 17  1  0
 17 18  2  0
 18 19  1  0
 19 20  2  0
 20 21  1  0
 21 22  1  0
 21 23  1  0
 21 24  1  0
 12 25  1  0
 25 26  1  0
  8 27  1  0
 27 28  2  0
 28 29  1  0
 29 30  2  0
 30 31  1  0
 31 32  1  0
 32 33  2  0
 33  3  1  0
 32  6  1  0
 26  9  1  0
 31 27  1  0
 20 15  1  0
  1 34  1  0
  1 35  1  0
  1 36  1  0
  4 37  1  0
  5 38  1  0
 10 39  1  0
 10 40  1  0
 11 41  1  0
 11 42  1  0
 13 43  1  0
 13 44  1  0
 14 45  1  0
 14 46  1  0
 16 47  1  0
 17 48  1  0
 18 49  1  0
 19 50  1  0
 25 51  1  0
 25 52  1  0
 26 53  1  0
 26 54  1  0
 28 55  1  0
 29 56  1  0
 30 57  1  0
 33 58  1  0
M  END
$$$$
