
     RDKit          3D

 55 58  0  0  0  0  0  0  0  0999 V2000
    2.6522    0.0173   -1.6051 O   0  0  0  0  0  0  0  0  0  0  0  0
    2.0299   -0.6423   -0.7668 C   0  0  0  0  0  0  0  0  0  0  0  0
    0.7312   -1.3440   -1.1219 C   0  0  0  0  0  0  0  0  0  0  0  0
   -0.4450   -1.5010    0.2514 S   0  0  0  0  0  0  0  0  0  0  0  0
   -1.0422    0.1184    0.3332 C   0  0  0  0  0  0  0  0  0  0  0  0
   -0.3080    1.2021    0.3114 N   0  0  0  0  0  0  0  0  0  0  0  0
   -1.1492    2.2734    0.4489 N   0  0  0  0  0  0  0  0  0  0  0  0
   -2.3951    1.8318    0.5138 C   0  0  0  0  0  0  0  0  0  0  0  0
   -3.5517    2.6989    0.7410 C   0  0  0  0  0  0  0  0  0  0  0  0
   -4.7321    2.5725   -0.0045 C   0  0  0  0  0  0  0  0  0  0  0  0
   -5.8313    3.3999    0.2524 C   0  0  0  0  0  0  0  0  0  0  0  0
   -5.7611    4.3696    1.2499 C   0  0  0  0  0  0  0  0  0  0  0  0
   -4.5857    4.5287    1.9797 C   0  0  0  0  0  0  0  0  0  0  0  0
   -3.4882    3.7109    1.7132 C   0  0  0  0  0  0  0  0  0  0  0  0
   -2.3584    3.9520    2.4510 O   0  0  0  0  0  0  0  0  0  0  0  0
   -2.3675    0.4517    0.4496 N   0  0  0  0  0  0  0  0  0  0  0  0
   -3.4852   -0.4648    0.5959 C   0  0  0  0  0  0  0  0  0  0  0  0
   -3.8494   -1.1968   -0.6797 C   0  0  0  0  0  0  0  0  0  0  0  0
   -3.6560   -0.6530   -1.9606 C   0  0  0  0  0  0  0  0  0  0  0  0
   -4.0247   -1.3676   -3.1033 C   0  0  0  0  0  0  0  0  0  0  0  0
   -4.6032   -2.6290   -2.9838 C   0  0  0  0  0  0  0  0  0  0  0  0
   -4.8205   -3.1757   -1.7209 C   0  0  0  0  0  0  0  0  0  0  0  0
   -4.4514   -2.4638   -0.5774 C   0  0  0  0  0  0  0  0  0  0  0  0
    2.5236   -0.8915    0.5001 N   0  0  0  0  0  0  0  0  0  0  0  0
    3.8747   -0.5943    0.7360 N   0  0  0  0  0  0  0  0  0  0  0  0
    4.6814   -1.6156    1.1973 C   0  0  0  0  0  0  0  0  0  0  0  0
    4.2142   -2.6673    1.6376 O   0  0  0  0  0  0  0  0  0  0  0  0
    6.1604   -1.4002    1.1328 C   0  0  0  0  0  0  0  0  0  0  0  0
    6.9782   -2.4095    1.6694 C   0  0  0  0  0  0  0  0  0  0  0  0
    8.3694   -2.2898    1.6464 C   0  0  0  0  0  0  0  0  0  0  0  0
    8.9614   -1.1602    1.0858 C   0  0  0  0  0  0  0  0  0  0  0  0
    8.1655   -0.1495    0.5456 C   0  0  0  0  0  0  0  0  0  0  0  0
    6.7722   -0.2696    0.5681 C   0  0  0  0  0  0  0  0  0  0  0  0
    6.0178    0.7344    0.0206 O   0  0  0  0  0  0  0  0  0  0  0  0
    0.2518   -0.8120   -1.9519 H   0  0  0  0  0  0  0  0  0  0  0  0
    0.9863   -2.3514   -1.4697 H   0  0  0  0  0  0  0  0  0  0  0  0
   -4.8152    1.8413   -0.8032 H   0  0  0  0  0  0  0  0  0  0  0  0
   -6.7420    3.2902   -0.3319 H   0  0  0  0  0  0  0  0  0  0  0  0
   -6.6162    5.0122    1.4505 H   0  0  0  0  0  0  0  0  0  0  0  0
   -4.5160    5.2945    2.7466 H   0  0  0  0  0  0  0  0  0  0  0  0
   -1.6021    3.5225    1.9996 H   0  0  0  0  0  0  0  0  0  0  0  0
   -4.3587    0.0787    0.9661 H   0  0  0  0  0  0  0  0  0  0  0  0
   -3.2035   -1.1760    1.3825 H   0  0  0  0  0  0  0  0  0  0  0  0
   -3.2095    0.3297   -2.0990 H   0  0  0  0  0  0  0  0  0  0  0  0
   -3.8586   -0.9380   -4.0900 H   0  0  0  0  0  0  0  0  0  0  0  0
   -4.8871   -3.1842   -3.8744 H   0  0  0  0  0  0  0  0  0  0  0  0
   -5.2753   -4.1588   -1.6257 H   0  0  0  0  0  0  0  0  0  0  0  0
   -4.6343   -2.9127    0.3984 H   0  0  0  0  0  0  0  0  0  0  0  0
    2.1541   -1.6695    1.0455 H   0  0  0  0  0  0  0  0  0  0  0  0
    4.2833    0.1563    0.1714 H   0  0  0  0  0  0  0  0  0  0  0  0
    6.5301   -3.2994    2.1102 H   0  0  0  0  0  0  0  0  0  0  0  0
    8.9877   -3.0797    2.0657 H   0  0  0  0  0  0  0  0  0  0  0  0
   10.0447   -1.0683    1.0674 H   0  0  0  0  0  0  0  0  0  0  0  0
    8.6491    0.7210    0.1102 H   0  0  0  0  0  0  0  0  0  0  0  0
    6.6053    1.4280   -0.3265 H   0  0  0  0  0  0  0  0  0  0  0  0
  1  2  2  0
  2  3  1  0
  3  4  1  0
  4  5  1  0
  5  6  2  0
  6  7  1  0
  7  8  2  0
  8  9  1  0
  9 10  2  0
 10 11  1  0
 11 12  2  0
 12 13  1  0
 13 14  2  0
 14 15  1  0
  8 16  1  0
 16 17  1  0
 17 18  1  0
 18 19  2  0
 19 20  1  0
 20 21  2  0
 21 22  1  0
 22 23  2  0
  2 24  1  0
 24 25  1  0
 25 26  1  0
 26 27  2  0
 26 28  1  0
 28 29  2  0
 29 30  1  0
 30 31  2  0
 31 32  1  0
 32 33  2  0
 33 34  1  0
 16  5  1  0
 23 18  1  0
 33 28  1  0
 14  9  1  0
  3 35  1  0
  3 36  1  0
 10 37  1  0
 11 38  1  0
 12 39  1  0
 13 40  1  0
 15 41  1  0
 17 42  1  0
 17 43  1  0
 19 44  1  0
 20 45  1  0
 21 46  1  0
 22 47  1  0
 23 48  1  0
 24 49  1  0
 25 50  1  0
 29 51  1  0
 30 52  1  0
 31 53  1  0
 32 54  1  0
 34 55  1  0
M  END
$$$$
