
     RDKit          3D

 48 49  0  0  0  0  0  0  0  0999 V2000
   -7.5294   -2.0240    0.9407 C   0  0  0  0  0  0  0  0  0  0  0  0
   -6.8250   -0.7824    0.4737 C   0  0  0  0  0  0  0  0  0  0  0  0
   -7.5555    0.3054   -0.0031 C   0  0  0  0  0  0  0  0  0  0  0  0
   -6.8954    1.4393   -0.4736 C   0  0  0  0  0  0  0  0  0  0  0  0
   -5.4914    1.5078   -0.4829 C   0  0  0  0  0  0  0  0  0  0  0  0
   -4.8457    2.7613   -1.0104 C   0  0  0  0  0  0  0  0  0  0  0  0
   -4.7422    0.4073   -0.0131 C   0  0  0  0  0  0  0  0  0  0  0  0
   -3.3291    0.4845   -0.0463 N   0  0  0  0  0  0  0  0  0  0  0  0
   -2.4104   -0.4435    0.4156 C   0  0  0  0  0  0  0  0  0  0  0  0
   -2.6486   -1.5126    0.9650 O   0  0  0  0  0  0  0  0  0  0  0  0
   -0.9876    0.0180    0.1611 C   0  0  0  0  0  0  0  0  0  0  0  0
    0.0315   -0.9741    0.7094 C   0  0  0  0  0  0  0  0  0  0  0  0
    1.4501   -0.5182    0.4412 C   0  0  0  0  0  0  0  0  0  0  0  0
    1.7096    0.5203   -0.1603 O   0  0  0  0  0  0  0  0  0  0  0  0
    2.3844   -1.4164    0.9588 N   0  0  0  0  0  0  0  0  0  0  0  0
    3.7380   -1.1935    0.9887 N   0  0  0  0  0  0  0  0  0  0  0  0
    4.2752   -0.6395   -0.0548 C   0  0  0  0  0  0  0  0  0  0  0  0
    5.7182   -0.3147   -0.0880 C   0  0  0  0  0  0  0  0  0  0  0  0
    6.2487    0.1923   -1.2795 C   0  0  0  0  0  0  0  0  0  0  0  0
    7.6152    0.5049   -1.3427 C   0  0  0  0  0  0  0  0  0  0  0  0
    8.1800    1.0328   -2.5917 N   0  0  0  0  0  4  0  0  0  0  0  0
    9.3537    1.4277   -2.5730 O   0  0  0  0  0  0  0  0  0  0  0  0
    7.4456    1.0522   -3.5894 O   0  0  0  0  0  1  0  0  0  0  0  0
    8.4482    0.3174   -0.2308 C   0  0  0  0  0  0  0  0  0  0  0  0
    7.9082   -0.1882    0.9537 C   0  0  0  0  0  0  0  0  0  0  0  0
    6.5523   -0.5052    1.0223 C   0  0  0  0  0  0  0  0  0  0  0  0
    6.1053   -1.0001    2.2155 O   0  0  0  0  0  0  0  0  0  0  0  0
   -5.4228   -0.7256    0.4552 C   0  0  0  0  0  0  0  0  0  0  0  0
   -8.4825   -1.7714    1.4173 H   0  0  0  0  0  0  0  0  0  0  0  0
   -6.9298   -2.5631    1.6813 H   0  0  0  0  0  0  0  0  0  0  0  0
   -7.7226   -2.6853    0.0898 H   0  0  0  0  0  0  0  0  0  0  0  0
   -8.6423    0.2759   -0.0156 H   0  0  0  0  0  0  0  0  0  0  0  0
   -7.4892    2.2728   -0.8410 H   0  0  0  0  0  0  0  0  0  0  0  0
   -5.5917    3.5204   -1.2720 H   0  0  0  0  0  0  0  0  0  0  0  0
   -4.2667    2.5407   -1.9130 H   0  0  0  0  0  0  0  0  0  0  0  0
   -4.1926    3.2015   -0.2504 H   0  0  0  0  0  0  0  0  0  0  0  0
   -2.9406    1.3314   -0.4394 H   0  0  0  0  0  0  0  0  0  0  0  0
   -0.8483    0.9982    0.6325 H   0  0  0  0  0  0  0  0  0  0  0  0
   -0.8530    0.1379   -0.9209 H   0  0  0  0  0  0  0  0  0  0  0  0
   -0.1077   -1.9581    0.2466 H   0  0  0  0  0  0  0  0  0  0  0  0
   -0.1002   -1.0854    1.7920 H   0  0  0  0  0  0  0  0  0  0  0  0
    2.0592   -2.0649    1.6715 H   0  0  0  0  0  0  0  0  0  0  0  0
    3.7029   -0.4168   -0.9725 H   0  0  0  0  0  0  0  0  0  0  0  0
    5.6041    0.3390   -2.1451 H   0  0  0  0  0  0  0  0  0  0  0  0
    9.5101    0.5549   -0.2693 H   0  0  0  0  0  0  0  0  0  0  0  0
    8.5434   -0.3430    1.8229 H   0  0  0  0  0  0  0  0  0  0  0  0
    5.1459   -1.1862    2.1172 H   0  0  0  0  0  0  0  0  0  0  0  0
   -4.8795   -1.5987    0.8067 H   0  0  0  0  0  0  0  0  0  0  0  0
  1  2  1  0
  2  3  2  0
  3  4  1  0
  4  5  2  0
  5  6  1  0
  5  7  1  0
  7  8  1  0
  8  9  1  0
  9 10  2  0
  9 11  1  0
 11 12  1  0
 12 13  1  0
 13 14  2  0
 13 15  1  0
 15 16  1  0
 16 17  2  3
 17 18  1  0
 18 19  2  0
 19 20  1  0
 20 21  1  0
 21 22  2  0
 21 23  1  0
 20 24  2  0
 24 25  1  0
 25 26  2  0
 26 27  1  0
  7 28  2  0
 28  2  1  0
 26 18  1  0
  1 29  1  0
  1 30  1  0
  1 31  1  0
  3 32  1  0
  4 33  1  0
  6 34  1  0
  6 35  1  0
  6 36  1  0
  8 37  1  0
 11 38  1  0
 11 39  1  0
 12 40  1  0
 12 41  1  0
 15 42  1  0
 17 43  1  0
 19 44  1  0
 24 45  1  0
 25 46  1  0
 27 47  1  0
 28 48  1  0
M  CHG  2  21   1  23  -1
M  END
$$$$
