
     RDKit          3D

 57 62  0  0  0  0  0  0  0  0999 V2000
    1.7360   -1.6710   -5.2548 C   0  0  0  0  0  0  0  0  0  0  0  0
    1.0616   -1.3506   -4.0444 O   0  0  0  0  0  0  0  0  0  0  0  0
    1.7906   -1.4280   -2.8881 C   0  0  0  0  0  0  0  0  0  0  0  0
    3.1342   -1.8365   -2.7906 C   0  0  0  0  0  0  0  0  0  0  0  0
    3.7827   -1.8843   -1.5505 C   0  0  0  0  0  0  0  0  0  0  0  0
    3.0586   -1.5200   -0.4357 C   0  0  0  0  0  0  0  0  0  0  0  0
    1.7269   -1.1081   -0.5090 C   0  0  0  0  0  0  0  0  0  0  0  0
    1.0821   -1.0612   -1.7367 C   0  0  0  0  0  0  0  0  0  0  0  0
    1.2391   -0.8048    0.8805 C   0  0  0  0  0  0  0  0  0  0  0  0
    0.0693   -1.6323    1.3147 N   0  0  0  0  0  0  0  0  0  0  0  0
   -1.1311   -0.7588    1.5343 C   0  0  2  0  0  0  0  0  0  0  0  0
   -2.2997   -1.0731    0.5760 C   0  0  0  0  0  0  0  0  0  0  0  0
   -2.8169   -2.4910    0.6548 C   0  0  0  0  0  0  0  0  0  0  0  0
   -2.7402   -3.3331   -0.4641 C   0  0  0  0  0  0  0  0  0  0  0  0
   -3.2194   -4.6424   -0.3999 C   0  0  0  0  0  0  0  0  0  0  0  0
   -3.7825   -5.1222    0.7806 C   0  0  0  0  0  0  0  0  0  0  0  0
   -3.8684   -4.2929    1.8972 C   0  0  0  0  0  0  0  0  0  0  0  0
   -3.3905   -2.9827    1.8353 C   0  0  0  0  0  0  0  0  0  0  0  0
   -0.5935    0.6067    1.3262 C   0  0  0  0  0  0  0  0  0  0  0  0
    0.7404    0.5733    0.9316 C   0  0  0  0  0  0  0  0  0  0  0  0
    1.1960    1.8564    0.8003 C   0  0  0  0  0  0  0  0  0  0  0  0
    2.4461    2.2637    0.5842 O   0  0  0  0  0  0  0  0  0  0  0  0
    0.0948    2.7115    1.0086 N   0  0  0  0  0  0  0  0  0  0  0  0
    0.0879    4.1300    0.8141 C   0  0  0  0  0  0  0  0  0  0  0  0
   -0.7384    4.9566    1.5850 C   0  0  0  0  0  0  0  0  0  0  0  0
   -0.7323    6.3404    1.3881 C   0  0  0  0  0  0  0  0  0  0  0  0
    0.0882    6.9074    0.4158 C   0  0  0  0  0  0  0  0  0  0  0  0
    0.9017    6.0920   -0.3672 C   0  0  0  0  0  0  0  0  0  0  0  0
    0.9018    4.7084   -0.1729 C   0  0  0  0  0  0  0  0  0  0  0  0
   -0.9940    1.9150    1.4182 C   0  0  0  0  0  0  0  0  0  0  0  0
   -2.1783    2.4238    1.7471 O   0  0  0  0  0  0  0  0  0  0  0  0
    2.4976   -1.0759    1.7527 C   0  0  0  0  0  0  0  0  0  0  0  0
    2.6365   -0.9648    2.9623 O   0  0  0  0  0  0  0  0  0  0  0  0
    3.5023   -1.5062    0.8791 N   0  0  0  0  0  0  0  0  0  0  0  0
    1.0258   -1.5421   -6.0774 H   0  0  0  0  0  0  0  0  0  0  0  0
    2.5766   -0.9916   -5.4310 H   0  0  0  0  0  0  0  0  0  0  0  0
    2.0629   -2.7161   -5.2589 H   0  0  0  0  0  0  0  0  0  0  0  0
    3.7028   -2.1254   -3.6690 H   0  0  0  0  0  0  0  0  0  0  0  0
    4.8173   -2.2001   -1.4781 H   0  0  0  0  0  0  0  0  0  0  0  0
    0.0494   -0.7368   -1.8131 H   0  0  0  0  0  0  0  0  0  0  0  0
   -0.1283   -2.3324    0.6042 H   0  0  0  0  0  0  0  0  0  0  0  0
   -1.4468   -0.8784    2.5772 H   0  0  0  0  0  0  0  0  0  0  0  0
   -2.0043   -0.8485   -0.4582 H   0  0  0  0  0  0  0  0  0  0  0  0
   -3.1403   -0.3971    0.7865 H   0  0  0  0  0  0  0  0  0  0  0  0
   -2.3064   -2.9774   -1.3965 H   0  0  0  0  0  0  0  0  0  0  0  0
   -3.1541   -5.2882   -1.2721 H   0  0  0  0  0  0  0  0  0  0  0  0
   -4.1546   -6.1421    0.8306 H   0  0  0  0  0  0  0  0  0  0  0  0
   -4.3075   -4.6673    2.8184 H   0  0  0  0  0  0  0  0  0  0  0  0
   -3.4684   -2.3530    2.7185 H   0  0  0  0  0  0  0  0  0  0  0  0
    2.5416    3.1638    0.9457 H   0  0  0  0  0  0  0  0  0  0  0  0
   -1.3730    4.5542    2.3697 H   0  0  0  0  0  0  0  0  0  0  0  0
   -1.3704    6.9749    1.9984 H   0  0  0  0  0  0  0  0  0  0  0  0
    0.0860    7.9835    0.2623 H   0  0  0  0  0  0  0  0  0  0  0  0
    1.5255    6.5315   -1.1416 H   0  0  0  0  0  0  0  0  0  0  0  0
    1.5058    4.0978   -0.8412 H   0  0  0  0  0  0  0  0  0  0  0  0
   -2.7570    1.6894    2.0143 H   0  0  0  0  0  0  0  0  0  0  0  0
    4.4282   -1.7441    1.1980 H   0  0  0  0  0  0  0  0  0  0  0  0
  1  2  1  0
  2  3  1  0
  3  4  2  0
  4  5  1  0
  5  6  2  0
  6  7  1  0
  7  8  2  0
  7  9  1  0
  9 10  1  0
 10 11  1  0
 11 12  1  0
 12 13  1  0
 13 14  2  0
 14 15  1  0
 15 16  2  0
 16 17  1  0
 17 18  2  0
 11 19  1  0
 19 20  1  0
 20 21  2  0
 21 22  1  0
 21 23  1  0
 23 24  1  0
 24 25  2  0
 25 26  1  0
 26 27  2  0
 27 28  1  0
 28 29  2  0
 23 30  1  0
 30 31  1  0
  9 32  1  0
 32 33  2  0
 32 34  1  0
  8  3  1  0
 20  9  1  0
 29 24  1  0
 34  6  1  0
 18 13  1  0
 30 19  2  0
  1 35  1  0
  1 36  1  0
  1 37  1  0
  4 38  1  0
  5 39  1  0
  8 40  1  0
 10 41  1  0
 11 42  1  1
 12 43  1  0
 12 44  1  0
 14 45  1  0
 15 46  1  0
 16 47  1  0
 17 48  1  0
 18 49  1  0
 22 50  1  0
 25 51  1  0
 26 52  1  0
 27 53  1  0
 28 54  1  0
 29 55  1  0
 31 56  1  0
 34 57  1  0
M  END
$$$$
