
     RDKit          3D

 23 23  0  0  0  0  0  0  0  0999 V2000
   -2.2463    1.7892    0.1550 C   0  0  0  0  0  0  0  0  0  0  0  0
   -1.8636    0.3266    0.1273 C   0  0  0  0  0  0  0  0  0  0  0  0
   -0.4443    0.0050   -0.0173 C   0  0  0  0  0  0  0  0  0  0  0  0
    0.5731    0.8833   -0.0114 C   0  0  0  0  0  0  0  0  0  0  0  0
    1.9208    0.4522   -0.1740 C   0  0  0  0  0  0  0  0  0  0  0  0
    3.0794    1.2223   -0.1738 C   0  0  0  0  0  0  0  0  0  0  0  0
    4.1818    0.3573   -0.3710 C   0  0  0  0  0  0  0  0  0  0  0  0
    3.6517   -0.9014   -0.4837 C   0  0  0  0  0  0  0  0  0  0  0  0
    2.3031   -0.8586   -0.3685 O   0  0  0  0  0  0  0  0  0  0  0  0
   -2.8495   -0.5925    0.1969 C   0  0  0  0  0  0  0  0  0  0  0  0
   -2.7895   -2.0623    0.2059 C   0  0  0  0  0  0  0  0  0  0  0  0
   -3.6839   -2.7811   -0.2054 O   0  0  0  0  0  0  0  0  0  0  0  0
   -1.7007   -2.5698    0.7952 O   0  0  0  0  0  0  0  0  0  0  0  0
   -1.8091    2.2872    1.0273 H   0  0  0  0  0  0  0  0  0  0  0  0
   -1.9058    2.2976   -0.7538 H   0  0  0  0  0  0  0  0  0  0  0  0
   -3.3309    1.9347    0.2148 H   0  0  0  0  0  0  0  0  0  0  0  0
   -0.1979   -1.0466   -0.1527 H   0  0  0  0  0  0  0  0  0  0  0  0
    0.4070    1.9465    0.1190 H   0  0  0  0  0  0  0  0  0  0  0  0
    3.1159    2.2952   -0.0436 H   0  0  0  0  0  0  0  0  0  0  0  0
    5.2287    0.6195   -0.4238 H   0  0  0  0  0  0  0  0  0  0  0  0
    4.0758   -1.8833   -0.6399 H   0  0  0  0  0  0  0  0  0  0  0  0
   -3.8833   -0.2555    0.2278 H   0  0  0  0  0  0  0  0  0  0  0  0
   -1.8326   -3.5385    0.7497 H   0  0  0  0  0  0  0  0  0  0  0  0
  1  2  1  0
  2  3  1  0
  3  4  2  3
  4  5  1  0
  5  6  2  0
  6  7  1  0
  7  8  2  0
  8  9  1  0
  2 10  2  3
 10 11  1  0
 11 12  2  0
 11 13  1  0
  9  5  1  0
  1 14  1  0
  1 15  1  0
  1 16  1  0
  3 17  1  0
  4 18  1  0
  6 19  1  0
  7 20  1  0
  8 21  1  0
 10 22  1  0
 13 23  1  0
M  END
$$$$
