
     RDKit          3D

 69 74  0  0  0  0  0  0  0  0999 V2000
    7.4749   -1.1867   -0.5819 C   0  0  0  0  0  0  0  0  0  0  0  0
    6.5937   -1.8936    0.2784 O   0  0  0  0  0  0  0  0  0  0  0  0
    5.2583   -1.5810    0.2122 C   0  0  0  0  0  0  0  0  0  0  0  0
    4.6825   -0.7979   -0.7936 C   0  0  0  0  0  0  0  0  0  0  0  0
    3.3042   -0.5384   -0.7988 C   0  0  0  0  0  0  0  0  0  0  0  0
    2.4915   -1.0469    0.2311 C   0  0  0  0  0  0  0  0  0  0  0  0
    3.0689   -1.8488    1.2294 C   0  0  0  0  0  0  0  0  0  0  0  0
    4.4444   -2.1134    1.2309 C   0  0  0  0  0  0  0  0  0  0  0  0
    5.0831   -2.8856    2.1713 O   0  0  0  0  0  0  0  0  0  0  0  0
    4.3494   -3.2465    3.3327 C   0  0  0  0  0  0  0  0  0  0  0  0
    0.9910   -0.8026    0.2450 C   0  0  0  0  0  0  0  0  0  0  0  0
    0.6425    0.3536   -0.5982 N   0  0  0  0  0  0  0  0  0  0  0  0
   -0.7566    0.5055   -0.6317 C   0  0  0  0  0  0  0  0  0  0  0  0
   -1.5139   -0.3745   -1.3292 N   0  0  0  0  0  0  0  0  0  0  0  0
   -2.8540   -0.2174   -1.3723 C   0  0  0  0  0  0  0  0  0  0  0  0
   -3.6544   -1.2630   -2.1428 C   0  0  0  0  0  0  0  0  0  0  0  0
   -3.9230   -2.5183   -1.4049 N   0  0  0  0  0  0  0  0  0  0  0  0
   -4.4157   -3.5589   -2.3332 C   0  0  0  0  0  0  0  0  0  0  0  0
   -5.2017   -4.6529   -1.5966 C   0  0  0  0  0  0  0  0  0  0  0  0
   -6.4016   -4.1521   -0.9916 O   0  0  0  0  0  0  0  0  0  0  0  0
   -6.3025   -2.7748   -0.6010 C   0  0  0  0  0  0  0  0  0  0  0  0
   -4.8649   -2.3344   -0.2783 C   0  0  0  0  0  0  0  0  0  0  0  0
   -3.5491    0.7716   -0.7921 N   0  0  0  0  0  0  0  0  0  0  0  0
   -2.7733    1.6283   -0.1111 C   0  0  0  0  0  0  0  0  0  0  0  0
   -3.4715    2.9611    0.6892 S   0  0  0  0  0  0  0  0  0  0  0  0
   -1.9550    3.4991    1.2395 C   0  0  0  0  0  0  0  0  0  0  0  0
   -0.9222    2.6666    0.8494 C   0  0  0  0  0  0  0  0  0  0  0  0
   -1.3966    1.5721    0.0323 C   0  0  0  0  0  0  0  0  0  0  0  0
    0.5021    2.9446    1.2330 C   0  0  0  0  0  0  0  0  0  0  0  0
    0.6036    3.9852    2.3586 C   0  0  0  0  0  0  0  0  0  0  0  0
   -0.3463    5.1871    2.1783 C   0  0  0  0  0  0  0  0  0  0  0  0
    0.0540    6.0492    0.9765 C   0  0  0  0  0  0  0  0  0  0  0  0
   -1.8173    4.7270    2.0870 C   0  0  0  0  0  0  0  0  0  0  0  0
    1.1867    0.2121   -1.9562 C   0  0  0  0  0  0  0  0  0  0  0  0
    2.7122    0.3364   -1.8803 C   0  0  0  0  0  0  0  0  0  0  0  0
    7.3963   -0.1061   -0.4282 H   0  0  0  0  0  0  0  0  0  0  0  0
    7.3029   -1.4553   -1.6284 H   0  0  0  0  0  0  0  0  0  0  0  0
    8.4990   -1.4836   -0.3334 H   0  0  0  0  0  0  0  0  0  0  0  0
    5.2834   -0.3836   -1.5966 H   0  0  0  0  0  0  0  0  0  0  0  0
    2.4192   -2.2630    1.9945 H   0  0  0  0  0  0  0  0  0  0  0  0
    5.0458   -3.7089    4.0370 H   0  0  0  0  0  0  0  0  0  0  0  0
    3.5761   -3.9809    3.0920 H   0  0  0  0  0  0  0  0  0  0  0  0
    3.9200   -2.3681    3.8252 H   0  0  0  0  0  0  0  0  0  0  0  0
    0.4983   -1.7213   -0.1031 H   0  0  0  0  0  0  0  0  0  0  0  0
    0.6771   -0.6097    1.2773 H   0  0  0  0  0  0  0  0  0  0  0  0
   -4.5909   -0.8116   -2.4940 H   0  0  0  0  0  0  0  0  0  0  0  0
   -3.0655   -1.4979   -3.0387 H   0  0  0  0  0  0  0  0  0  0  0  0
   -5.0784   -3.1152   -3.0884 H   0  0  0  0  0  0  0  0  0  0  0  0
   -3.5631   -4.0067   -2.8539 H   0  0  0  0  0  0  0  0  0  0  0  0
   -4.5898   -5.1188   -0.8145 H   0  0  0  0  0  0  0  0  0  0  0  0
   -5.4936   -5.4437   -2.2964 H   0  0  0  0  0  0  0  0  0  0  0  0
   -6.7255   -2.1616   -1.4068 H   0  0  0  0  0  0  0  0  0  0  0  0
   -6.9405   -2.6399    0.2786 H   0  0  0  0  0  0  0  0  0  0  0  0
   -4.4953   -2.9599    0.5451 H   0  0  0  0  0  0  0  0  0  0  0  0
   -4.8736   -1.3075    0.1034 H   0  0  0  0  0  0  0  0  0  0  0  0
    1.0475    3.2906    0.3494 H   0  0  0  0  0  0  0  0  0  0  0  0
    0.9871    2.0257    1.5784 H   0  0  0  0  0  0  0  0  0  0  0  0
    0.3594    3.4940    3.3099 H   0  0  0  0  0  0  0  0  0  0  0  0
    1.6418    4.3280    2.4446 H   0  0  0  0  0  0  0  0  0  0  0  0
   -0.2551    5.8274    3.0670 H   0  0  0  0  0  0  0  0  0  0  0  0
   -0.5815    6.9382    0.9121 H   0  0  0  0  0  0  0  0  0  0  0  0
    1.0882    6.3948    1.0786 H   0  0  0  0  0  0  0  0  0  0  0  0
   -0.0274    5.5143    0.0230 H   0  0  0  0  0  0  0  0  0  0  0  0
   -2.4496    5.5394    1.7072 H   0  0  0  0  0  0  0  0  0  0  0  0
   -2.1765    4.4855    3.0980 H   0  0  0  0  0  0  0  0  0  0  0  0
    0.8056    1.0004   -2.6189 H   0  0  0  0  0  0  0  0  0  0  0  0
    0.9135   -0.7584   -2.3950 H   0  0  0  0  0  0  0  0  0  0  0  0
    3.1389    0.0758   -2.8561 H   0  0  0  0  0  0  0  0  0  0  0  0
    2.9831    1.3759   -1.6590 H   0  0  0  0  0  0  0  0  0  0  0  0
  1  2  1  0
  2  3  1  0
  3  4  2  0
  4  5  1  0
  5  6  2  0
  6  7  1  0
  7  8  2  0
  8  9  1  0
  9 10  1  0
  6 11  1  0
 11 12  1  0
 12 13  1  0
 13 14  2  0
 14 15  1  0
 15 16  1  0
 16 17  1  0
 17 18  1  0
 18 19  1  0
 19 20  1  0
 20 21  1  0
 21 22  1  0
 15 23  2  0
 23 24  1  0
 24 25  1  0
 25 26  1  0
 26 27  2  0
 27 28  1  0
 27 29  1  0
 29 30  1  0
 30 31  1  0
 31 32  1  0
 31 33  1  0
 12 34  1  0
 34 35  1  0
  8  3  1  0
 28 13  1  0
 35  5  1  0
 22 17  1  0
 28 24  2  0
 33 26  1  0
  1 36  1  0
  1 37  1  0
  1 38  1  0
  4 39  1  0
  7 40  1  0
 10 41  1  0
 10 42  1  0
 10 43  1  0
 11 44  1  0
 11 45  1  0
 16 46  1  0
 16 47  1  0
 18 48  1  0
 18 49  1  0
 19 50  1  0
 19 51  1  0
 21 52  1  0
 21 53  1  0
 22 54  1  0
 22 55  1  0
 29 56  1  0
 29 57  1  0
 30 58  1  0
 30 59  1  0
 31 60  1  0
 32 61  1  0
 32 62  1  0
 32 63  1  0
 33 64  1  0
 33 65  1  0
 34 66  1  0
 34 67  1  0
 35 68  1  0
 35 69  1  0
M  END
$$$$
