
     RDKit          3D

 47 50  0  0  0  0  0  0  0  0999 V2000
   -7.0341    1.3153    1.2208 C   0  0  0  0  0  0  0  0  0  0  0  0
   -6.8672    0.1022    0.3156 C   0  0  0  0  0  0  0  0  0  0  0  0
   -5.4748   -0.5164    0.4234 C   0  0  0  0  0  0  0  0  0  0  0  0
   -4.5104    0.4392   -0.0339 O   0  0  0  0  0  0  0  0  0  0  0  0
   -3.2402    0.0748    0.3388 C   0  0  0  0  0  0  0  0  0  0  0  0
   -2.6461    0.8375    1.3464 C   0  0  0  0  0  0  0  0  0  0  0  0
   -1.3450    0.5551    1.7547 C   0  0  0  0  0  0  0  0  0  0  0  0
   -0.6345   -0.4804    1.1418 C   0  0  0  0  0  0  0  0  0  0  0  0
    0.7434   -0.7618    1.5514 C   0  0  0  0  0  0  0  0  0  0  0  0
    1.8317   -0.2088    0.9978 C   0  0  0  0  0  0  0  0  0  0  0  0
    1.8716    0.9553   -0.3149 S   0  0  0  0  0  0  0  0  0  0  0  0
    3.5836    0.9839   -0.2252 C   0  0  0  0  0  0  0  0  0  0  0  0
    4.5354    1.6040   -0.8587 N   0  0  0  0  0  0  0  0  0  0  0  0
    5.6628    1.1061   -0.2215 C   0  0  0  0  0  0  0  0  0  0  0  0
    7.1082    1.5491   -0.6225 C   0  0  0  0  0  0  0  0  0  0  0  0
    8.2813    1.1033   -0.0431 C   0  0  0  0  0  0  0  0  0  0  0  0
    9.3423    1.7621   -0.7109 C   0  0  0  0  0  0  0  0  0  0  0  0
    8.7540    2.5682   -1.6562 C   0  0  0  0  0  0  0  0  0  0  0  0
    7.4028    2.4467   -1.6115 O   0  0  0  0  0  0  0  0  0  0  0  0
    5.4207    0.2146    0.7643 N   0  0  0  0  0  0  0  0  0  0  0  0
    4.0778    0.1685    0.7269 N   0  0  0  0  0  0  0  0  0  0  0  0
    3.1967   -0.5657    1.4914 C   0  0  0  0  0  0  0  0  0  0  0  0
    3.5286   -1.3357    2.3744 O   0  0  0  0  0  0  0  0  0  0  0  0
   -1.2294   -1.2309    0.1147 C   0  0  0  0  0  0  0  0  0  0  0  0
   -2.5344   -0.9550   -0.3046 C   0  0  0  0  0  0  0  0  0  0  0  0
   -3.1912   -1.5963   -1.3185 O   0  0  0  0  0  0  0  0  0  0  0  0
   -2.5453   -2.6470   -2.0318 C   0  0  0  0  0  0  0  0  0  0  0  0
   -1.6896   -2.0976   -3.1603 C   0  0  0  0  0  0  0  0  0  0  0  0
   -8.0531    1.7074    1.1413 H   0  0  0  0  0  0  0  0  0  0  0  0
   -6.3432    2.1180    0.9440 H   0  0  0  0  0  0  0  0  0  0  0  0
   -6.8523    1.0508    2.2679 H   0  0  0  0  0  0  0  0  0  0  0  0
   -7.6199   -0.6504    0.5772 H   0  0  0  0  0  0  0  0  0  0  0  0
   -7.0510    0.4137   -0.7199 H   0  0  0  0  0  0  0  0  0  0  0  0
   -5.4420   -1.4126   -0.2060 H   0  0  0  0  0  0  0  0  0  0  0  0
   -5.2793   -0.8067    1.4642 H   0  0  0  0  0  0  0  0  0  0  0  0
   -3.1999    1.6513    1.8061 H   0  0  0  0  0  0  0  0  0  0  0  0
   -0.8929    1.1539    2.5415 H   0  0  0  0  0  0  0  0  0  0  0  0
    0.8412   -1.4761    2.3682 H   0  0  0  0  0  0  0  0  0  0  0  0
    8.3522    0.3879    0.7654 H   0  0  0  0  0  0  0  0  0  0  0  0
   10.4028    1.6626   -0.5265 H   0  0  0  0  0  0  0  0  0  0  0  0
    9.1356    3.2541   -2.4000 H   0  0  0  0  0  0  0  0  0  0  0  0
   -0.6432   -2.0143   -0.3534 H   0  0  0  0  0  0  0  0  0  0  0  0
   -3.3443   -3.2542   -2.4721 H   0  0  0  0  0  0  0  0  0  0  0  0
   -1.9893   -3.3216   -1.3717 H   0  0  0  0  0  0  0  0  0  0  0  0
   -1.2812   -2.9123   -3.7651 H   0  0  0  0  0  0  0  0  0  0  0  0
   -2.2819   -1.4418   -3.8069 H   0  0  0  0  0  0  0  0  0  0  0  0
   -0.8569   -1.5001   -2.7789 H   0  0  0  0  0  0  0  0  0  0  0  0
  1  2  1  0
  2  3  1  0
  3  4  1  0
  4  5  1  0
  5  6  2  0
  6  7  1  0
  7  8  2  0
  8  9  1  0
  9 10  2  3
 10 11  1  0
 11 12  1  0
 12 13  2  0
 13 14  1  0
 14 15  1  0
 15 16  2  0
 16 17  1  0
 17 18  2  0
 18 19  1  0
 14 20  2  0
 20 21  1  0
 21 22  1  0
 22 23  2  0
  8 24  1  0
 24 25  2  0
 25 26  1  0
 26 27  1  0
 27 28  1  0
 25  5  1  0
 22 10  1  0
 21 12  1  0
 19 15  1  0
  1 29  1  0
  1 30  1  0
  1 31  1  0
  2 32  1  0
  2 33  1  0
  3 34  1  0
  3 35  1  0
  6 36  1  0
  7 37  1  0
  9 38  1  0
 16 39  1  0
 17 40  1  0
 18 41  1  0
 24 42  1  0
 27 43  1  0
 27 44  1  0
 28 45  1  0
 28 46  1  0
 28 47  1  0
M  END
$$$$
