
     RDKit          3D

 36 37  0  0  0  0  0  0  0  0999 V2000
    0.2828    1.4193    0.1177 O   0  0  0  0  0  0  0  0  0  0  0  0
   -0.1888    0.3117   -0.1294 C   0  0  0  0  0  0  0  0  0  0  0  0
    0.6241   -0.8219   -0.7616 C   0  0  0  0  0  0  0  0  0  0  0  0
    2.0301   -0.6561   -0.5851 O   0  0  0  0  0  0  0  0  0  0  0  0
    2.4576   -0.9183    0.6746 C   0  0  0  0  0  0  0  0  0  0  0  0
    1.7731   -1.3638    1.5822 O   0  0  0  0  0  0  0  0  0  0  0  0
    3.9072   -0.6167    0.8115 C   0  0  0  0  0  0  0  0  0  0  0  0
    4.6396    0.0223   -0.2000 C   0  0  0  0  0  0  0  0  0  0  0  0
    6.0000    0.2863   -0.0231 C   0  0  0  0  0  0  0  0  0  0  0  0
    6.6331   -0.0848    1.1630 C   0  0  0  0  0  0  0  0  0  0  0  0
    5.9042   -0.7161    2.1702 C   0  0  0  0  0  0  0  0  0  0  0  0
    6.6903   -1.1699    3.6322 Cl  0  0  0  0  0  0  0  0  0  0  0  0
    4.5468   -0.9828    2.0030 C   0  0  0  0  0  0  0  0  0  0  0  0
   -1.5060   -0.0118    0.1122 N   0  0  0  0  0  0  0  0  0  0  0  0
   -2.4051    0.9245    0.7644 C   0  0  0  0  0  0  0  0  0  0  0  0
   -3.8327    0.3848    0.9018 C   0  0  0  0  0  0  0  0  0  0  0  0
   -4.4683    0.1465   -0.3846 N   0  0  0  0  0  0  0  0  0  0  0  0
   -5.2762    1.0588   -1.0164 C   0  0  0  0  0  0  0  0  0  0  0  0
   -5.5490    2.2401   -0.3961 O   0  0  0  0  0  0  0  0  0  0  0  0
   -5.7148    0.6727   -2.2202 C   0  0  0  0  0  0  0  0  0  0  0  0
   -5.1034   -0.9002   -2.6387 S   0  0  0  0  0  0  0  0  0  0  0  0
   -4.1989   -0.9975   -1.1182 C   0  0  0  0  0  0  0  0  0  0  0  0
   -3.4509   -1.9177   -0.8232 O   0  0  0  0  0  0  0  0  0  0  0  0
    0.2989   -1.7985   -0.3836 H   0  0  0  0  0  0  0  0  0  0  0  0
    0.4259   -0.8044   -1.8387 H   0  0  0  0  0  0  0  0  0  0  0  0
    4.1608    0.3277   -1.1279 H   0  0  0  0  0  0  0  0  0  0  0  0
    6.5638    0.7842   -0.8086 H   0  0  0  0  0  0  0  0  0  0  0  0
    7.6916    0.1233    1.2977 H   0  0  0  0  0  0  0  0  0  0  0  0
    3.9864   -1.4729    2.7963 H   0  0  0  0  0  0  0  0  0  0  0  0
   -1.8104   -0.9774   -0.0073 H   0  0  0  0  0  0  0  0  0  0  0  0
   -1.9931    1.1378    1.7571 H   0  0  0  0  0  0  0  0  0  0  0  0
   -2.3948    1.8586    0.1912 H   0  0  0  0  0  0  0  0  0  0  0  0
   -4.4430    1.0739    1.4957 H   0  0  0  0  0  0  0  0  0  0  0  0
   -3.8060   -0.5695    1.4427 H   0  0  0  0  0  0  0  0  0  0  0  0
   -6.1188    2.7697   -0.9799 H   0  0  0  0  0  0  0  0  0  0  0  0
   -6.3561    1.2381   -2.8800 H   0  0  0  0  0  0  0  0  0  0  0  0
  1  2  2  0
  2  3  1  0
  3  4  1  0
  4  5  1  0
  5  6  2  0
  5  7  1  0
  7  8  2  0
  8  9  1  0
  9 10  2  0
 10 11  1  0
 11 12  1  0
 11 13  2  0
  2 14  1  0
 14 15  1  0
 15 16  1  0
 16 17  1  0
 17 18  1  0
 18 19  1  0
 18 20  2  0
 20 21  1  0
 21 22  1  0
 22 23  2  0
 13  7  1  0
 22 17  1  0
  3 24  1  0
  3 25  1  0
  8 26  1  0
  9 27  1  0
 10 28  1  0
 13 29  1  0
 14 30  1  0
 15 31  1  0
 15 32  1  0
 16 33  1  0
 16 34  1  0
 19 35  1  0
 20 36  1  0
M  END
$$$$
