
     RDKit          3D

 60 65  0  0  0  0  0  0  0  0999 V2000
   -5.1759   -3.9750   -0.9071 O   0  0  0  0  0  0  0  0  0  0  0  0
   -4.5258   -3.1753   -0.2446 C   0  0  0  0  0  0  0  0  0  0  0  0
   -3.1937   -3.3990    0.0812 N   0  0  0  0  0  0  0  0  0  0  0  0
   -2.4160   -2.5308    0.8482 C   0  0  0  0  0  0  0  0  0  0  0  0
   -0.9796   -2.9902    1.0568 C   0  0  0  0  0  0  0  0  0  0  0  0
   -0.1574   -2.7403   -0.2206 C   0  0  0  0  0  0  0  0  0  0  0  0
    0.7723   -1.5377   -0.0735 C   0  0  0  0  0  0  0  0  0  0  0  0
    1.7288   -1.7321    1.0516 N   0  0  0  0  0  0  0  0  0  0  0  0
    3.3232   -2.1778    0.6369 S   0  0  0  0  0  6  0  0  0  0  0  0
    4.0854   -2.3176    1.8602 O   0  0  0  0  0  0  0  0  0  0  0  0
    3.2329   -3.2637   -0.3178 O   0  0  0  0  0  0  0  0  0  0  0  0
    3.9297   -0.7327   -0.1927 C   0  0  0  0  0  0  0  0  0  0  0  0
    4.2006    0.4145    0.5625 C   0  0  0  0  0  0  0  0  0  0  0  0
    4.7144    1.5488   -0.0683 C   0  0  0  0  0  0  0  0  0  0  0  0
    4.9574    1.5292   -1.4410 C   0  0  0  0  0  0  0  0  0  0  0  0
    4.7087    0.3665   -2.1842 C   0  0  0  0  0  0  0  0  0  0  0  0
    4.1842   -0.7665   -1.5662 C   0  0  0  0  0  0  0  0  0  0  0  0
    4.9581    0.2713   -3.5294 O   0  0  0  0  0  0  0  0  0  0  0  0
    5.8529    1.3065   -3.9600 C   0  0  0  0  0  0  0  0  0  0  0  0
    5.4029    2.6566   -3.4224 C   0  0  0  0  0  0  0  0  0  0  0  0
    5.4580    2.6842   -1.9907 O   0  0  0  0  0  0  0  0  0  0  0  0
    1.1878   -2.4823    2.2166 C   0  0  0  0  0  0  0  0  0  0  0  0
   -0.3264   -2.3503    2.2902 C   0  0  0  0  0  0  0  0  0  0  0  0
   -2.8459   -1.3936    1.3188 N   0  0  0  0  0  0  0  0  0  0  0  0
   -4.1415   -1.1484    1.0093 C   0  0  0  0  0  0  0  0  0  0  0  0
   -5.0085   -1.9293    0.2855 C   0  0  0  0  0  0  0  0  0  0  0  0
   -6.2335   -1.3429    0.2108 N   0  0  0  0  0  0  0  0  0  0  0  0
   -6.1629   -0.1917    0.8797 N   0  0  0  0  0  0  0  0  0  0  0  0
   -4.8956   -0.0613    1.3446 N   0  0  0  0  0  0  0  0  0  0  0  0
   -4.5108    1.0886    2.1365 C   0  0  0  0  0  0  0  0  0  0  0  0
   -4.0276    2.2193    1.2699 C   0  0  0  0  0  0  0  0  0  0  0  0
   -4.9314    3.0214    0.5538 C   0  0  0  0  0  0  0  0  0  0  0  0
   -4.4681    4.0622   -0.2567 C   0  0  0  0  0  0  0  0  0  0  0  0
   -3.1005    4.3139   -0.3619 C   0  0  0  0  0  0  0  0  0  0  0  0
   -2.1942    3.5223    0.3434 C   0  0  0  0  0  0  0  0  0  0  0  0
   -2.6617    2.4844    1.1476 C   0  0  0  0  0  0  0  0  0  0  0  0
   -1.7719    1.7363    1.8161 F   0  0  0  0  0  0  0  0  0  0  0  0
   -2.8146   -4.2681   -0.2667 H   0  0  0  0  0  0  0  0  0  0  0  0
   -1.0182   -4.0783    1.2134 H   0  0  0  0  0  0  0  0  0  0  0  0
    0.4450   -3.6341   -0.4296 H   0  0  0  0  0  0  0  0  0  0  0  0
   -0.8036   -2.5930   -1.0954 H   0  0  0  0  0  0  0  0  0  0  0  0
    1.2999   -1.3714   -1.0183 H   0  0  0  0  0  0  0  0  0  0  0  0
    0.1978   -0.6212    0.1151 H   0  0  0  0  0  0  0  0  0  0  0  0
    4.0200    0.4258    1.6357 H   0  0  0  0  0  0  0  0  0  0  0  0
    4.9281    2.4443    0.5081 H   0  0  0  0  0  0  0  0  0  0  0  0
    4.0003   -1.6651   -2.1519 H   0  0  0  0  0  0  0  0  0  0  0  0
    6.8684    1.0534   -3.6259 H   0  0  0  0  0  0  0  0  0  0  0  0
    5.8477    1.3145   -5.0544 H   0  0  0  0  0  0  0  0  0  0  0  0
    6.0617    3.4493   -3.7920 H   0  0  0  0  0  0  0  0  0  0  0  0
    4.3765    2.8896   -3.7357 H   0  0  0  0  0  0  0  0  0  0  0  0
    1.4609   -3.5422    2.1491 H   0  0  0  0  0  0  0  0  0  0  0  0
    1.6305   -2.0715    3.1311 H   0  0  0  0  0  0  0  0  0  0  0  0
   -0.5868   -1.2881    2.3817 H   0  0  0  0  0  0  0  0  0  0  0  0
   -0.7028   -2.8394    3.1968 H   0  0  0  0  0  0  0  0  0  0  0  0
   -5.3828    1.4018    2.7236 H   0  0  0  0  0  0  0  0  0  0  0  0
   -3.7457    0.7680    2.8522 H   0  0  0  0  0  0  0  0  0  0  0  0
   -6.0030    2.8335    0.6126 H   0  0  0  0  0  0  0  0  0  0  0  0
   -5.1785    4.6732   -0.8113 H   0  0  0  0  0  0  0  0  0  0  0  0
   -2.7433    5.1243   -0.9947 H   0  0  0  0  0  0  0  0  0  0  0  0
   -1.1259    3.7067    0.2734 H   0  0  0  0  0  0  0  0  0  0  0  0
  1  2  2  0
  2  3  1  0
  3  4  1  0
  4  5  1  0
  5  6  1  0
  6  7  1  0
  7  8  1  0
  8  9  1  0
  9 10  2  0
  9 11  2  0
  9 12  1  0
 12 13  2  0
 13 14  1  0
 14 15  2  0
 15 16  1  0
 16 17  2  0
 16 18  1  0
 18 19  1  0
 19 20  1  0
 20 21  1  0
  8 22  1  0
 22 23  1  0
  4 24  2  0
 24 25  1  0
 25 26  2  0
 26 27  1  0
 27 28  2  0
 28 29  1  0
 29 30  1  0
 30 31  1  0
 31 32  2  0
 32 33  1  0
 33 34  2  0
 34 35  1  0
 35 36  2  0
 36 37  1  0
 26  2  1  0
 36 31  1  0
 23  5  1  0
 29 25  1  0
 17 12  1  0
 21 15  1  0
  3 38  1  0
  5 39  1  0
  6 40  1  0
  6 41  1  0
  7 42  1  0
  7 43  1  0
 13 44  1  0
 14 45  1  0
 17 46  1  0
 19 47  1  0
 19 48  1  0
 20 49  1  0
 20 50  1  0
 22 51  1  0
 22 52  1  0
 23 53  1  0
 23 54  1  0
 30 55  1  0
 30 56  1  0
 32 57  1  0
 33 58  1  0
 34 59  1  0
 35 60  1  0
M  END
$$$$
