
     RDKit          3D

 27 27  0  0  0  0  0  0  0  0999 V2000
   -6.1932   -1.2893   -0.1678 C   0  0  0  0  0  0  0  0  0  0  0  0
   -5.2642   -0.6904    0.5894 C   0  0  0  0  0  0  0  0  0  0  0  0
   -4.2824    0.3166    0.0881 C   0  0  0  0  0  0  0  0  0  0  0  0
   -2.9768   -0.2746    0.1578 N   0  0  0  0  0  0  0  0  0  0  0  0
   -1.8378    0.4896    0.0605 C   0  0  0  0  0  0  0  0  0  0  0  0
   -1.7820    1.7126    0.0728 O   0  0  0  0  0  0  0  0  0  0  0  0
   -0.5440   -0.3322   -0.0888 C   0  0  0  0  0  0  0  0  0  0  0  0
   -0.6125   -1.5497   -0.1824 O   0  0  0  0  0  0  0  0  0  0  0  0
    0.5743    0.4794   -0.1019 N   0  0  0  0  0  0  0  0  0  0  0  0
    1.8242   -0.0512   -0.2349 N   0  0  0  0  0  0  0  0  0  0  0  0
    2.7966    0.8050   -0.2424 C   0  0  0  0  0  0  0  0  0  0  0  0
    4.1703    0.4031   -0.3753 C   0  0  0  0  0  0  0  0  0  0  0  0
    5.3349    1.1471   -0.4051 C   0  0  0  0  0  0  0  0  0  0  0  0
    6.4015    0.2267   -0.5547 C   0  0  0  0  0  0  0  0  0  0  0  0
    5.8250   -1.0196   -0.6070 C   0  0  0  0  0  0  0  0  0  0  0  0
    4.4761   -0.9233   -0.4993 O   0  0  0  0  0  0  0  0  0  0  0  0
   -6.2883   -1.0811   -1.2292 H   0  0  0  0  0  0  0  0  0  0  0  0
   -6.8813   -2.0097    0.2647 H   0  0  0  0  0  0  0  0  0  0  0  0
   -5.2145   -0.9305    1.6497 H   0  0  0  0  0  0  0  0  0  0  0  0
   -4.4710    0.5996   -0.9530 H   0  0  0  0  0  0  0  0  0  0  0  0
   -4.3134    1.2247    0.6989 H   0  0  0  0  0  0  0  0  0  0  0  0
   -2.8591   -1.2685   -0.0276 H   0  0  0  0  0  0  0  0  0  0  0  0
    0.4289    1.4845   -0.0258 H   0  0  0  0  0  0  0  0  0  0  0  0
    2.6096    1.8895   -0.1462 H   0  0  0  0  0  0  0  0  0  0  0  0
    5.4075    2.2231   -0.3283 H   0  0  0  0  0  0  0  0  0  0  0  0
    7.4589    0.4424   -0.6168 H   0  0  0  0  0  0  0  0  0  0  0  0
    6.2127   -2.0236   -0.7124 H   0  0  0  0  0  0  0  0  0  0  0  0
  1  2  2  0
  2  3  1  0
  3  4  1  0
  4  5  1  0
  5  6  2  0
  5  7  1  0
  7  8  2  0
  7  9  1  0
  9 10  1  0
 10 11  2  3
 11 12  1  0
 12 13  2  0
 13 14  1  0
 14 15  2  0
 15 16  1  0
 16 12  1  0
  1 17  1  0
  1 18  1  0
  2 19  1  0
  3 20  1  0
  3 21  1  0
  4 22  1  0
  9 23  1  0
 11 24  1  0
 13 25  1  0
 14 26  1  0
 15 27  1  0
M  END
$$$$
