
     RDKit          3D

 24 24  0  0  0  0  0  0  0  0999 V2000
   -4.7358   -0.9023   -0.1035 C   0  0  0  0  0  0  0  0  0  0  0  0
   -3.4405   -0.3237   -0.4100 N   0  0  0  0  0  0  0  0  0  0  0  0
   -2.2157   -0.8180    0.0349 C   0  0  0  0  0  0  0  0  0  0  0  0
   -2.0502   -2.2343    0.9070 S   0  0  0  0  0  0  0  0  0  0  0  0
   -1.2050    0.0162   -0.4270 N   0  0  0  0  0  0  0  0  0  0  0  0
    0.1535    0.1316   -0.0589 C   0  0  0  0  0  0  0  0  0  0  0  0
    0.6742   -0.2735    1.1692 C   0  0  0  0  0  0  0  0  0  0  0  0
    2.0312   -0.0916    1.4637 C   0  0  0  0  0  0  0  0  0  0  0  0
    2.8857    0.5231    0.5441 C   0  0  0  0  0  0  0  0  0  0  0  0
    4.3452    0.6821    0.8488 C   0  0  0  0  0  0  0  0  0  0  0  0
    2.3648    0.9403   -0.6829 C   0  0  0  0  0  0  0  0  0  0  0  0
    1.0089    0.7581   -0.9742 C   0  0  0  0  0  0  0  0  0  0  0  0
   -5.4944   -0.3615   -0.6746 H   0  0  0  0  0  0  0  0  0  0  0  0
   -4.7540   -1.9585   -0.3836 H   0  0  0  0  0  0  0  0  0  0  0  0
   -4.9343   -0.7932    0.9661 H   0  0  0  0  0  0  0  0  0  0  0  0
   -3.4491    0.6723   -0.5836 H   0  0  0  0  0  0  0  0  0  0  0  0
   -1.4495    0.4856   -1.2889 H   0  0  0  0  0  0  0  0  0  0  0  0
    0.0478   -0.7089    1.9395 H   0  0  0  0  0  0  0  0  0  0  0  0
    2.4104   -0.4292    2.4260 H   0  0  0  0  0  0  0  0  0  0  0  0
    4.8955   -0.2034    0.5162 H   0  0  0  0  0  0  0  0  0  0  0  0
    4.5076    0.8172    1.9233 H   0  0  0  0  0  0  0  0  0  0  0  0
    4.7558    1.5637    0.3454 H   0  0  0  0  0  0  0  0  0  0  0  0
    3.0094    1.4102   -1.4221 H   0  0  0  0  0  0  0  0  0  0  0  0
    0.6385    1.0980   -1.9378 H   0  0  0  0  0  0  0  0  0  0  0  0
  1  2  1  0
  2  3  1  0
  3  4  2  0
  3  5  1  0
  5  6  1  0
  6  7  2  0
  7  8  1  0
  8  9  2  0
  9 10  1  0
  9 11  1  0
 11 12  2  0
 12  6  1  0
  1 13  1  0
  1 14  1  0
  1 15  1  0
  2 16  1  0
  5 17  1  0
  7 18  1  0
  8 19  1  0
 10 20  1  0
 10 21  1  0
 10 22  1  0
 11 23  1  0
 12 24  1  0
M  END
$$$$
