
     RDKit          3D

 49 51  0  0  0  0  0  0  0  0999 V2000
    2.4886   -1.1955   -2.6083 O   0  0  0  0  0  0  0  0  0  0  0  0
    2.3878   -1.5106   -1.4308 C   0  0  0  0  0  0  0  0  0  0  0  0
    3.0946   -2.4958   -0.7843 N   0  0  0  0  0  0  0  0  0  0  0  0
    4.1961   -3.1865   -1.4017 C   0  0  0  0  0  0  0  0  0  0  0  0
    5.5088   -2.5576   -1.0153 C   0  0  0  0  0  0  0  0  0  0  0  0
    6.0075   -1.4620   -1.7351 C   0  0  0  0  0  0  0  0  0  0  0  0
    7.2118   -0.8611   -1.3665 C   0  0  0  0  0  0  0  0  0  0  0  0
    7.9259   -1.3442   -0.2718 C   0  0  0  0  0  0  0  0  0  0  0  0
    7.4352   -2.4258    0.4576 C   0  0  0  0  0  0  0  0  0  0  0  0
    6.2304   -3.0283    0.0909 C   0  0  0  0  0  0  0  0  0  0  0  0
    1.3894   -0.7688   -0.5124 C   0  0  0  0  0  0  0  0  0  0  0  0
    1.2388   -1.1211    0.6488 O   0  0  0  0  0  0  0  0  0  0  0  0
    0.7188    0.2571   -1.1351 N   0  0  0  0  0  0  0  0  0  0  0  0
   -0.3859    0.9510   -0.4923 C   0  0  0  0  0  0  0  0  0  0  0  0
   -1.6594    0.0807   -0.3539 C   0  0  0  0  0  0  0  0  0  0  0  0
   -1.9898   -0.4106   -1.6808 O   0  0  0  0  0  0  0  0  0  0  0  0
   -3.3758   -0.1458   -1.9084 C   0  0  0  0  0  0  0  0  0  0  0  0
   -3.6797    1.0630   -1.0555 C   0  0  0  0  0  0  0  0  0  0  0  0
   -2.8714    0.7811    0.1321 N   0  0  0  0  0  0  0  0  0  0  0  0
   -2.6839    1.9777    1.2889 S   0  0  0  0  0  6  0  0  0  0  0  0
   -2.2659    3.1832    0.6059 O   0  0  0  0  0  0  0  0  0  0  0  0
   -1.9185    1.4301    2.3856 O   0  0  0  0  0  0  0  0  0  0  0  0
   -4.3464    2.2112    1.8687 C   0  0  0  0  0  0  0  0  0  0  0  0
   -5.0344    3.3924    1.5749 C   0  0  0  0  0  0  0  0  0  0  0  0
   -6.3397    3.5591    2.0418 C   0  0  0  0  0  0  0  0  0  0  0  0
   -6.9400    2.5514    2.7994 C   0  0  0  0  0  0  0  0  0  0  0  0
   -8.7081    2.7819    3.4277 Br  0  0  0  0  0  0  0  0  0  0  0  0
   -6.2479    1.3771    3.1004 C   0  0  0  0  0  0  0  0  0  0  0  0
   -4.9429    1.2050    2.6364 C   0  0  0  0  0  0  0  0  0  0  0  0
    2.9715   -2.5490    0.2226 H   0  0  0  0  0  0  0  0  0  0  0  0
    4.0824   -3.1903   -2.4919 H   0  0  0  0  0  0  0  0  0  0  0  0
    4.1596   -4.2292   -1.0677 H   0  0  0  0  0  0  0  0  0  0  0  0
    5.4530   -1.0691   -2.5860 H   0  0  0  0  0  0  0  0  0  0  0  0
    7.5897   -0.0131   -1.9317 H   0  0  0  0  0  0  0  0  0  0  0  0
    8.8627   -0.8743    0.0159 H   0  0  0  0  0  0  0  0  0  0  0  0
    7.9898   -2.7979    1.3151 H   0  0  0  0  0  0  0  0  0  0  0  0
    5.8583   -3.8668    0.6750 H   0  0  0  0  0  0  0  0  0  0  0  0
    0.8219    0.3068   -2.1457 H   0  0  0  0  0  0  0  0  0  0  0  0
   -0.5890    1.8282   -1.1159 H   0  0  0  0  0  0  0  0  0  0  0  0
   -0.0354    1.2908    0.4869 H   0  0  0  0  0  0  0  0  0  0  0  0
   -1.4728   -0.7944    0.2773 H   0  0  0  0  0  0  0  0  0  0  0  0
   -3.9480   -1.0224   -1.5847 H   0  0  0  0  0  0  0  0  0  0  0  0
   -3.5577    0.0255   -2.9725 H   0  0  0  0  0  0  0  0  0  0  0  0
   -4.7467    1.1400   -0.8365 H   0  0  0  0  0  0  0  0  0  0  0  0
   -3.3309    1.9754   -1.5507 H   0  0  0  0  0  0  0  0  0  0  0  0
   -4.5657    4.1833    0.9932 H   0  0  0  0  0  0  0  0  0  0  0  0
   -6.8775    4.4770    1.8162 H   0  0  0  0  0  0  0  0  0  0  0  0
   -6.7129    0.5964    3.6976 H   0  0  0  0  0  0  0  0  0  0  0  0
   -4.3962    0.2948    2.8756 H   0  0  0  0  0  0  0  0  0  0  0  0
  1  2  2  0
  2  3  1  0
  3  4  1  0
  4  5  1  0
  5  6  2  0
  6  7  1  0
  7  8  2  0
  8  9  1  0
  9 10  2  0
  2 11  1  0
 11 12  2  0
 11 13  1  0
 13 14  1  0
 14 15  1  0
 15 16  1  0
 16 17  1  0
 17 18  1  0
 18 19  1  0
 19 20  1  0
 20 21  2  0
 20 22  2  0
 20 23  1  0
 23 24  2  0
 24 25  1  0
 25 26  2  0
 26 27  1  0
 26 28  1  0
 28 29  2  0
 10  5  1  0
 19 15  1  0
 29 23  1  0
  3 30  1  0
  4 31  1  0
  4 32  1  0
  6 33  1  0
  7 34  1  0
  8 35  1  0
  9 36  1  0
 10 37  1  0
 13 38  1  0
 14 39  1  0
 14 40  1  0
 15 41  1  0
 17 42  1  0
 17 43  1  0
 18 44  1  0
 18 45  1  0
 24 46  1  0
 25 47  1  0
 28 48  1  0
 29 49  1  0
M  END
$$$$
