
     RDKit          3D

 43 45  0  0  0  0  0  0  0  0999 V2000
   -7.1892   -1.0349   -1.5146 C   0  0  0  0  0  0  0  0  0  0  0  0
   -6.8117   -0.3262   -0.2928 N   0  0  0  0  0  0  0  0  0  0  0  0
   -7.6994   -0.5273    0.8512 C   0  0  0  0  0  0  0  0  0  0  0  0
   -5.4581   -0.0529   -0.0601 C   0  0  0  0  0  0  0  0  0  0  0  0
   -4.9819    0.3565    1.1972 C   0  0  0  0  0  0  0  0  0  0  0  0
   -3.6278    0.6463    1.4315 C   0  0  0  0  0  0  0  0  0  0  0  0
   -2.6871    0.5363    0.4089 C   0  0  0  0  0  0  0  0  0  0  0  0
   -1.2843    0.8760    0.6840 C   0  0  0  0  0  0  0  0  0  0  0  0
   -0.2376    0.2334    0.1414 C   0  0  0  0  0  0  0  0  0  0  0  0
    1.1362    0.5895    0.4410 C   0  0  0  0  0  0  0  0  0  0  0  0
    2.2398    0.0089   -0.0529 C   0  0  0  0  0  0  0  0  0  0  0  0
    2.3366   -1.2864   -1.1659 S   0  0  0  0  0  0  0  0  0  0  0  0
    4.0992   -1.3478   -1.0905 C   0  0  0  0  0  0  0  0  0  0  0  0
    4.9068   -2.6131   -1.8345 S   0  0  0  0  0  0  0  0  0  0  0  0
    4.5778   -0.3057   -0.3020 N   0  0  0  0  0  0  0  0  0  0  0  0
    5.9673   -0.0062   -0.1002 C   0  0  0  0  0  0  0  0  0  0  0  0
    6.8913   -0.0579   -1.1552 C   0  0  0  0  0  0  0  0  0  0  0  0
    8.2420    0.2444   -0.9497 C   0  0  0  0  0  0  0  0  0  0  0  0
    8.6916    0.6140    0.3135 C   0  0  0  0  0  0  0  0  0  0  0  0
    7.7897    0.6902    1.3692 C   0  0  0  0  0  0  0  0  0  0  0  0
    6.4398    0.3883    1.1624 C   0  0  0  0  0  0  0  0  0  0  0  0
    3.6039    0.4684    0.3314 C   0  0  0  0  0  0  0  0  0  0  0  0
    3.7689    1.4241    1.0814 O   0  0  0  0  0  0  0  0  0  0  0  0
   -3.1375    0.1654   -0.8571 C   0  0  0  0  0  0  0  0  0  0  0  0
   -4.4943   -0.1212   -1.0809 C   0  0  0  0  0  0  0  0  0  0  0  0
   -6.7076   -2.0178   -1.5651 H   0  0  0  0  0  0  0  0  0  0  0  0
   -6.9337   -0.4524   -2.4062 H   0  0  0  0  0  0  0  0  0  0  0  0
   -8.2722   -1.1951   -1.5627 H   0  0  0  0  0  0  0  0  0  0  0  0
   -7.3656   -1.3707    1.4657 H   0  0  0  0  0  0  0  0  0  0  0  0
   -7.7635    0.3759    1.4674 H   0  0  0  0  0  0  0  0  0  0  0  0
   -8.7241   -0.7405    0.5263 H   0  0  0  0  0  0  0  0  0  0  0  0
   -5.6557    0.4683    2.0409 H   0  0  0  0  0  0  0  0  0  0  0  0
   -3.3255    0.9542    2.4298 H   0  0  0  0  0  0  0  0  0  0  0  0
   -1.1316    1.6902    1.3892 H   0  0  0  0  0  0  0  0  0  0  0  0
   -0.4093   -0.5965   -0.5404 H   0  0  0  0  0  0  0  0  0  0  0  0
    1.2639    1.4163    1.1415 H   0  0  0  0  0  0  0  0  0  0  0  0
    6.5810   -0.2896   -2.1705 H   0  0  0  0  0  0  0  0  0  0  0  0
    8.9395    0.1998   -1.7828 H   0  0  0  0  0  0  0  0  0  0  0  0
    9.7404    0.8505    0.4729 H   0  0  0  0  0  0  0  0  0  0  0  0
    8.1325    0.9852    2.3580 H   0  0  0  0  0  0  0  0  0  0  0  0
    5.7724    0.4466    2.0195 H   0  0  0  0  0  0  0  0  0  0  0  0
   -2.4502    0.1070   -1.6973 H   0  0  0  0  0  0  0  0  0  0  0  0
   -4.7722   -0.3932   -2.0944 H   0  0  0  0  0  0  0  0  0  0  0  0
  1  2  1  0
  2  3  1  0
  2  4  1  0
  4  5  2  0
  5  6  1  0
  6  7  2  0
  7  8  1  0
  8  9  2  3
  9 10  1  0
 10 11  2  3
 11 12  1  0
 12 13  1  0
 13 14  2  0
 13 15  1  0
 15 16  1  0
 16 17  2  0
 17 18  1  0
 18 19  2  0
 19 20  1  0
 20 21  2  0
 15 22  1  0
 22 23  2  0
  7 24  1  0
 24 25  2  0
 25  4  1  0
 22 11  1  0
 21 16  1  0
  1 26  1  0
  1 27  1  0
  1 28  1  0
  3 29  1  0
  3 30  1  0
  3 31  1  0
  5 32  1  0
  6 33  1  0
  8 34  1  0
  9 35  1  0
 10 36  1  0
 17 37  1  0
 18 38  1  0
 19 39  1  0
 20 40  1  0
 21 41  1  0
 24 42  1  0
 25 43  1  0
M  END
$$$$
