
     RDKit          3D

 41 43  0  0  0  0  0  0  0  0999 V2000
    6.9720    2.5781    1.1706 C   0  0  0  0  0  0  0  0  0  0  0  0
    5.8525    1.8385    1.1718 C   0  0  0  0  0  0  0  0  0  0  0  0
    4.7230    2.2159    0.3317 C   0  0  0  0  0  0  0  0  0  0  0  0
    3.6001    1.4755    0.3301 C   0  0  0  0  0  0  0  0  0  0  0  0
    3.4746    0.2651    1.1722 C   0  0  0  0  0  0  0  0  0  0  0  0
    2.3459   -0.4878    1.1742 C   0  0  0  0  0  0  0  0  0  0  0  0
    2.1586   -1.6176    1.9283 N   0  0  0  0  0  0  0  0  0  0  0  0
    0.9610   -2.2738    1.8255 C   0  0  0  0  0  0  0  0  0  0  0  0
    0.6620   -3.2842    2.4406 O   0  0  0  0  0  0  0  0  0  0  0  0
    0.1024   -1.5551    0.8526 C   0  0  0  0  0  0  0  0  0  0  0  0
   -1.1363   -1.9830    0.5722 C   0  0  0  0  0  0  0  0  0  0  0  0
   -2.0732   -1.3491   -0.3605 C   0  0  0  0  0  0  0  0  0  0  0  0
   -1.8352   -1.3584   -1.7364 C   0  0  0  0  0  0  0  0  0  0  0  0
   -2.7438   -0.7612   -2.6139 C   0  0  0  0  0  0  0  0  0  0  0  0
   -3.9038   -0.1519   -2.1247 C   0  0  0  0  0  0  0  0  0  0  0  0
   -4.8503    0.4578   -2.9108 O   0  0  0  0  0  0  0  0  0  0  0  0
   -4.6253    0.4838   -4.3126 C   0  0  0  0  0  0  0  0  0  0  0  0
   -4.1532   -0.1458   -0.7369 C   0  0  0  0  0  0  0  0  0  0  0  0
   -5.3150    0.4687   -0.3370 O   0  0  0  0  0  0  0  0  0  0  0  0
   -5.5885    0.5220    1.0554 C   0  0  0  0  0  0  0  0  0  0  0  0
   -3.2368   -0.7482    0.1345 C   0  0  0  0  0  0  0  0  0  0  0  0
    0.9137   -0.1669    0.2192 S   0  0  0  0  0  0  0  0  0  0  0  0
    4.6363   -0.0921    2.0170 C   0  0  0  0  0  0  0  0  0  0  0  0
    5.7569    0.6525    2.0140 C   0  0  0  0  0  0  0  0  0  0  0  0
    7.0701    3.4661    0.5538 H   0  0  0  0  0  0  0  0  0  0  0  0
    7.8286    2.3218    1.7861 H   0  0  0  0  0  0  0  0  0  0  0  0
    4.7960    3.1010   -0.2924 H   0  0  0  0  0  0  0  0  0  0  0  0
    2.7774    1.7849   -0.3058 H   0  0  0  0  0  0  0  0  0  0  0  0
    2.8493   -1.9927    2.5581 H   0  0  0  0  0  0  0  0  0  0  0  0
   -1.5250   -2.8678    1.0742 H   0  0  0  0  0  0  0  0  0  0  0  0
   -0.9420   -1.8308   -2.1393 H   0  0  0  0  0  0  0  0  0  0  0  0
   -2.5161   -0.7906   -3.6739 H   0  0  0  0  0  0  0  0  0  0  0  0
   -4.5983   -0.5292   -4.7272 H   0  0  0  0  0  0  0  0  0  0  0  0
   -3.7124    1.0370   -4.5566 H   0  0  0  0  0  0  0  0  0  0  0  0
   -5.4655    1.0095   -4.7765 H   0  0  0  0  0  0  0  0  0  0  0  0
   -4.8143    1.0825    1.5897 H   0  0  0  0  0  0  0  0  0  0  0  0
   -6.5353    1.0537    1.1901 H   0  0  0  0  0  0  0  0  0  0  0  0
   -5.7103   -0.4830    1.4725 H   0  0  0  0  0  0  0  0  0  0  0  0
   -3.4060   -0.7579    1.2063 H   0  0  0  0  0  0  0  0  0  0  0  0
    4.6054   -0.9649    2.6566 H   0  0  0  0  0  0  0  0  0  0  0  0
    6.6008    0.3777    2.6391 H   0  0  0  0  0  0  0  0  0  0  0  0
  1  2  2  0
  2  3  1  0
  3  4  2  0
  4  5  1  0
  5  6  2  3
  6  7  1  0
  7  8  1  0
  8  9  2  0
  8 10  1  0
 10 11  2  3
 11 12  1  0
 12 13  2  0
 13 14  1  0
 14 15  2  0
 15 16  1  0
 16 17  1  0
 15 18  1  0
 18 19  1  0
 19 20  1  0
 18 21  2  0
 10 22  1  0
  5 23  1  0
 23 24  2  0
 24  2  1  0
 22  6  1  0
 21 12  1  0
  1 25  1  0
  1 26  1  0
  3 27  1  0
  4 28  1  0
  7 29  1  0
 11 30  1  0
 13 31  1  0
 14 32  1  0
 17 33  1  0
 17 34  1  0
 17 35  1  0
 20 36  1  0
 20 37  1  0
 20 38  1  0
 21 39  1  0
 23 40  1  0
 24 41  1  0
M  END
$$$$
