
     RDKit          3D

 37 40  0  0  0  0  0  0  0  0999 V2000
   -3.0876    1.9122    2.0476 C   0  0  0  0  0  0  0  0  0  0  0  0
   -3.7456    0.9387    1.0863 C   0  0  0  0  0  0  0  0  0  0  0  0
   -2.8971    0.8096   -0.0523 O   0  0  0  0  0  0  0  0  0  0  0  0
   -3.2575   -0.1014   -1.0131 C   0  0  0  0  0  0  0  0  0  0  0  0
   -4.4637   -0.8089   -1.0271 C   0  0  0  0  0  0  0  0  0  0  0  0
   -4.7438   -1.7090   -2.0595 C   0  0  0  0  0  0  0  0  0  0  0  0
   -3.8254   -1.9073   -3.0871 C   0  0  0  0  0  0  0  0  0  0  0  0
   -2.6209   -1.2060   -3.0865 C   0  0  0  0  0  0  0  0  0  0  0  0
   -2.3288   -0.3050   -2.0534 C   0  0  0  0  0  0  0  0  0  0  0  0
   -1.0446    0.4082   -2.0952 C   0  0  0  0  0  0  0  0  0  0  0  0
    0.0159    0.1294   -1.3250 C   0  0  0  0  0  0  0  0  0  0  0  0
    0.1496   -1.1490   -0.1295 S   0  0  0  0  0  0  0  0  0  0  0  0
    1.7415   -0.6283    0.2349 C   0  0  0  0  0  0  0  0  0  0  0  0
    2.6765   -1.0111    1.0556 N   0  0  0  0  0  0  0  0  0  0  0  0
    3.6867   -0.1044    0.7610 C   0  0  0  0  0  0  0  0  0  0  0  0
    5.0664   -0.1356    1.4963 C   0  0  0  0  0  0  0  0  0  0  0  0
    5.4248   -1.0323    2.4848 C   0  0  0  0  0  0  0  0  0  0  0  0
    6.7478   -0.7069    2.8708 C   0  0  0  0  0  0  0  0  0  0  0  0
    7.1162    0.3669    2.0959 C   0  0  0  0  0  0  0  0  0  0  0  0
    6.1064    0.7205    1.2609 O   0  0  0  0  0  0  0  0  0  0  0  0
    3.3907    0.7951   -0.1993 N   0  0  0  0  0  0  0  0  0  0  0  0
    2.1365    0.4259   -0.5063 N   0  0  0  0  0  0  0  0  0  0  0  0
    1.2606    0.9492   -1.4328 C   0  0  0  0  0  0  0  0  0  0  0  0
    1.5151    1.8877   -2.1654 O   0  0  0  0  0  0  0  0  0  0  0  0
   -3.6995    2.0497    2.9434 H   0  0  0  0  0  0  0  0  0  0  0  0
   -2.0986    1.5490    2.3466 H   0  0  0  0  0  0  0  0  0  0  0  0
   -2.9379    2.8855    1.5684 H   0  0  0  0  0  0  0  0  0  0  0  0
   -3.8669   -0.0292    1.5863 H   0  0  0  0  0  0  0  0  0  0  0  0
   -4.7224    1.3352    0.7869 H   0  0  0  0  0  0  0  0  0  0  0  0
   -5.2123   -0.6801   -0.2526 H   0  0  0  0  0  0  0  0  0  0  0  0
   -5.6847   -2.2543   -2.0615 H   0  0  0  0  0  0  0  0  0  0  0  0
   -4.0478   -2.6068   -3.8891 H   0  0  0  0  0  0  0  0  0  0  0  0
   -1.9121   -1.3691   -3.8952 H   0  0  0  0  0  0  0  0  0  0  0  0
   -1.0070    1.2304   -2.8079 H   0  0  0  0  0  0  0  0  0  0  0  0
    4.7984   -1.8235    2.8738 H   0  0  0  0  0  0  0  0  0  0  0  0
    7.3569   -1.1933    3.6196 H   0  0  0  0  0  0  0  0  0  0  0  0
    8.0141    0.9645    2.0197 H   0  0  0  0  0  0  0  0  0  0  0  0
  1  2  1  0
  2  3  1  0
  3  4  1  0
  4  5  2  0
  5  6  1  0
  6  7  2  0
  7  8  1  0
  8  9  2  0
  9 10  1  0
 10 11  2  3
 11 12  1  0
 12 13  1  0
 13 14  2  0
 14 15  1  0
 15 16  1  0
 16 17  2  0
 17 18  1  0
 18 19  2  0
 19 20  1  0
 15 21  2  0
 21 22  1  0
 22 23  1  0
 23 24  2  0
  9  4  1  0
 23 11  1  0
 22 13  1  0
 20 16  1  0
  1 25  1  0
  1 26  1  0
  1 27  1  0
  2 28  1  0
  2 29  1  0
  5 30  1  0
  6 31  1  0
  7 32  1  0
  8 33  1  0
 10 34  1  0
 17 35  1  0
 18 36  1  0
 19 37  1  0
M  END
$$$$
