
     RDKit          3D

 58 60  0  0  0  0  0  0  0  0999 V2000
    7.4031    5.0465   -0.0094 C   0  0  0  0  0  0  0  0  0  0  0  0
    6.5544    4.0368    0.6447 C   0  0  0  0  0  0  0  0  0  0  0  0
    5.4685    3.2951    0.2510 C   0  0  0  0  0  0  0  0  0  0  0  0
    5.1386    2.5191    1.3831 C   0  0  0  0  0  0  0  0  0  0  0  0
    4.1280    1.5993    1.5522 N   0  0  0  0  0  0  0  0  0  0  0  0
    3.2096    1.2427    0.5923 C   0  0  0  0  0  0  0  0  0  0  0  0
    3.1611    1.6789   -0.5525 O   0  0  0  0  0  0  0  0  0  0  0  0
    2.2194    0.2199    1.1107 C   0  0  0  0  0  0  0  0  0  0  0  0
    1.2062   -0.1765    0.0405 C   0  0  0  0  0  0  0  0  0  0  0  0
    0.1606   -1.1305    0.5873 C   0  0  0  0  0  0  0  0  0  0  0  0
    0.2266   -1.5407    1.7467 O   0  0  0  0  0  0  0  0  0  0  0  0
   -0.8716   -1.5025   -0.2641 N   0  0  0  0  0  0  0  0  0  0  0  0
   -1.0338   -1.0057   -1.6429 C   0  0  0  0  0  0  0  0  0  0  0  0
   -2.0187    0.1666   -1.7603 C   0  0  0  0  0  0  0  0  0  0  0  0
   -2.4589    0.5328   -2.8464 O   0  0  0  0  0  0  0  0  0  0  0  0
   -2.2966    0.8152   -0.5756 N   0  0  0  0  0  0  0  0  0  0  0  0
   -3.2533    1.9065   -0.5031 C   0  0  0  0  0  0  0  0  0  0  0  0
   -3.1015    2.6904    0.7964 C   0  0  0  0  0  0  0  0  0  0  0  0
   -3.8735    1.8789    1.8349 C   0  0  0  0  0  0  0  0  0  0  0  0
   -4.8813    1.0344    1.0546 C   0  0  0  0  0  0  0  0  0  0  0  0
   -4.6895    1.3964   -0.4160 C   0  0  0  0  0  0  0  0  0  0  0  0
   -1.8804   -2.4499    0.2166 C   0  0  0  0  0  0  0  0  0  0  0  0
   -1.6307   -3.8528   -0.2863 C   0  0  0  0  0  0  0  0  0  0  0  0
   -0.5751   -4.6165    0.2397 C   0  0  0  0  0  0  0  0  0  0  0  0
   -0.3344   -5.9086   -0.2294 C   0  0  0  0  0  0  0  0  0  0  0  0
   -1.1470   -6.4384   -1.2241 C   0  0  0  0  0  0  0  0  0  0  0  0
   -0.9151   -7.6782   -1.6752 F   0  0  0  0  0  0  0  0  0  0  0  0
   -2.1972   -5.7010   -1.7580 C   0  0  0  0  0  0  0  0  0  0  0  0
   -2.4406   -4.4084   -1.2905 C   0  0  0  0  0  0  0  0  0  0  0  0
    5.9733    2.7739    2.3969 N   0  0  0  0  0  0  0  0  0  0  0  0
    6.8607    3.7275    1.9321 O   0  0  0  0  0  0  0  0  0  0  0  0
    8.4618    4.8440    0.1779 H   0  0  0  0  0  0  0  0  0  0  0  0
    7.1699    6.0452    0.3722 H   0  0  0  0  0  0  0  0  0  0  0  0
    7.2454    5.0484   -1.0923 H   0  0  0  0  0  0  0  0  0  0  0  0
    4.9865    3.3189   -0.7131 H   0  0  0  0  0  0  0  0  0  0  0  0
    4.1041    1.1812    2.4730 H   0  0  0  0  0  0  0  0  0  0  0  0
    2.7739   -0.6634    1.4506 H   0  0  0  0  0  0  0  0  0  0  0  0
    1.7040    0.6515    1.9775 H   0  0  0  0  0  0  0  0  0  0  0  0
    1.7298   -0.6669   -0.7876 H   0  0  0  0  0  0  0  0  0  0  0  0
    0.7046    0.7204   -0.3377 H   0  0  0  0  0  0  0  0  0  0  0  0
   -0.0777   -0.6719   -2.0517 H   0  0  0  0  0  0  0  0  0  0  0  0
   -1.3976   -1.8235   -2.2722 H   0  0  0  0  0  0  0  0  0  0  0  0
   -2.0350    0.3406    0.2806 H   0  0  0  0  0  0  0  0  0  0  0  0
   -3.1120    2.5476   -1.3796 H   0  0  0  0  0  0  0  0  0  0  0  0
   -2.0586    2.8441    1.0913 H   0  0  0  0  0  0  0  0  0  0  0  0
   -3.5705    3.6762    0.6890 H   0  0  0  0  0  0  0  0  0  0  0  0
   -4.3672    2.5326    2.5607 H   0  0  0  0  0  0  0  0  0  0  0  0
   -3.1942    1.2249    2.3942 H   0  0  0  0  0  0  0  0  0  0  0  0
   -5.9095    1.2244    1.3792 H   0  0  0  0  0  0  0  0  0  0  0  0
   -4.6769   -0.0313    1.2163 H   0  0  0  0  0  0  0  0  0  0  0  0
   -5.3829    2.2042   -0.6800 H   0  0  0  0  0  0  0  0  0  0  0  0
   -4.8955    0.5475   -1.0749 H   0  0  0  0  0  0  0  0  0  0  0  0
   -2.8681   -2.0937   -0.1001 H   0  0  0  0  0  0  0  0  0  0  0  0
   -1.9049   -2.4684    1.3124 H   0  0  0  0  0  0  0  0  0  0  0  0
    0.0631   -4.2049    1.0205 H   0  0  0  0  0  0  0  0  0  0  0  0
    0.4792   -6.5031    0.1736 H   0  0  0  0  0  0  0  0  0  0  0  0
   -2.8181   -6.1369   -2.5346 H   0  0  0  0  0  0  0  0  0  0  0  0
   -3.2642   -3.8391   -1.7168 H   0  0  0  0  0  0  0  0  0  0  0  0
  1  2  1  0
  2  3  2  0
  3  4  1  0
  4  5  1  0
  5  6  1  0
  6  7  2  0
  6  8  1  0
  8  9  1  0
  9 10  1  0
 10 11  2  0
 10 12  1  0
 12 13  1  0
 13 14  1  0
 14 15  2  0
 14 16  1  0
 16 17  1  0
 17 18  1  0
 18 19  1  0
 19 20  1  0
 20 21  1  0
 12 22  1  0
 22 23  1  0
 23 24  2  0
 24 25  1  0
 25 26  2  0
 26 27  1  0
 26 28  1  0
 28 29  2  0
  4 30  2  0
 30 31  1  0
 31  2  1  0
 21 17  1  0
 29 23  1  0
  1 32  1  0
  1 33  1  0
  1 34  1  0
  3 35  1  0
  5 36  1  0
  8 37  1  0
  8 38  1  0
  9 39  1  0
  9 40  1  0
 13 41  1  0
 13 42  1  0
 16 43  1  0
 17 44  1  0
 18 45  1  0
 18 46  1  0
 19 47  1  0
 19 48  1  0
 20 49  1  0
 20 50  1  0
 21 51  1  0
 21 52  1  0
 22 53  1  0
 22 54  1  0
 24 55  1  0
 25 56  1  0
 28 57  1  0
 29 58  1  0
M  END
$$$$
