
     RDKit          3D

 44 45  0  0  0  0  0  0  0  0999 V2000
   -5.3030    0.1851    2.8280 C   0  0  0  0  0  0  0  0  0  0  0  0
   -6.3140    0.3138    1.6969 C   0  0  0  0  0  0  0  0  0  0  0  0
   -5.7971    1.1723    0.5446 C   0  0  0  0  0  0  0  0  0  0  0  0
   -4.5516    0.6726    0.0367 O   0  0  0  0  0  0  0  0  0  0  0  0
   -4.6337   -0.3284   -0.8726 C   0  0  0  0  0  0  0  0  0  0  0  0
   -5.6629   -0.8306   -1.2944 O   0  0  0  0  0  0  0  0  0  0  0  0
   -3.2757   -0.7600   -1.3057 C   0  0  0  0  0  0  0  0  0  0  0  0
   -3.1862   -1.7840   -2.2581 C   0  0  0  0  0  0  0  0  0  0  0  0
   -1.9393   -2.2301   -2.6896 C   0  0  0  0  0  0  0  0  0  0  0  0
   -0.7781   -1.6533   -2.1724 C   0  0  0  0  0  0  0  0  0  0  0  0
   -0.8489   -0.6230   -1.2249 C   0  0  0  0  0  0  0  0  0  0  0  0
    0.3720   -0.0943   -0.7640 N   0  0  0  0  0  0  0  0  0  0  0  0
    0.5777    0.9337    0.1363 C   0  0  0  0  0  0  0  0  0  0  0  0
   -0.2887    1.5887    0.7075 O   0  0  0  0  0  0  0  0  0  0  0  0
    2.0625    1.2390    0.3646 C   0  0  0  0  0  0  0  0  0  0  0  0
    2.8890    0.2240   -0.2045 O   0  0  0  0  0  0  0  0  0  0  0  0
    4.2162    0.2700    0.1208 C   0  0  0  0  0  0  0  0  0  0  0  0
    4.9113   -0.9286   -0.0779 C   0  0  0  0  0  0  0  0  0  0  0  0
    6.2745   -1.0206    0.2146 C   0  0  0  0  0  0  0  0  0  0  0  0
    6.9474    0.1051    0.6978 C   0  0  0  0  0  0  0  0  0  0  0  0
    8.3793    0.0203    1.0068 N   0  0  0  0  0  4  0  0  0  0  0  0
    8.9778    1.0775    1.2474 O   0  0  0  0  0  0  0  0  0  0  0  0
    8.9040   -1.1024    1.0074 O   0  0  0  0  0  1  0  0  0  0  0  0
    6.2643    1.3135    0.8852 C   0  0  0  0  0  0  0  0  0  0  0  0
    4.8966    1.3915    0.5968 C   0  0  0  0  0  0  0  0  0  0  0  0
   -2.1023   -0.1814   -0.7935 C   0  0  0  0  0  0  0  0  0  0  0  0
   -5.7404   -0.3692    3.6649 H   0  0  0  0  0  0  0  0  0  0  0  0
   -4.9946    1.1694    3.1966 H   0  0  0  0  0  0  0  0  0  0  0  0
   -4.4092   -0.3551    2.4985 H   0  0  0  0  0  0  0  0  0  0  0  0
   -6.5530   -0.6932    1.3349 H   0  0  0  0  0  0  0  0  0  0  0  0
   -7.2413    0.7508    2.0865 H   0  0  0  0  0  0  0  0  0  0  0  0
   -5.6113    2.1928    0.8955 H   0  0  0  0  0  0  0  0  0  0  0  0
   -6.5422    1.2441   -0.2551 H   0  0  0  0  0  0  0  0  0  0  0  0
   -4.0877   -2.2389   -2.6626 H   0  0  0  0  0  0  0  0  0  0  0  0
   -1.8717   -3.0263   -3.4266 H   0  0  0  0  0  0  0  0  0  0  0  0
    0.1833   -2.0187   -2.5254 H   0  0  0  0  0  0  0  0  0  0  0  0
    1.2246   -0.5081   -1.1364 H   0  0  0  0  0  0  0  0  0  0  0  0
    2.2673    2.2055   -0.1089 H   0  0  0  0  0  0  0  0  0  0  0  0
    2.2180    1.2924    1.4489 H   0  0  0  0  0  0  0  0  0  0  0  0
    4.3870   -1.8027   -0.4561 H   0  0  0  0  0  0  0  0  0  0  0  0
    6.7900   -1.9660    0.0589 H   0  0  0  0  0  0  0  0  0  0  0  0
    6.7780    2.1978    1.2555 H   0  0  0  0  0  0  0  0  0  0  0  0
    4.3979    2.3451    0.7411 H   0  0  0  0  0  0  0  0  0  0  0  0
   -2.1856    0.6099   -0.0563 H   0  0  0  0  0  0  0  0  0  0  0  0
  1  2  1  0
  2  3  1  0
  3  4  1  0
  4  5  1  0
  5  6  2  0
  5  7  1  0
  7  8  2  0
  8  9  1  0
  9 10  2  0
 10 11  1  0
 11 12  1  0
 12 13  1  0
 13 14  2  0
 13 15  1  0
 15 16  1  0
 16 17  1  0
 17 18  2  0
 18 19  1  0
 19 20  2  0
 20 21  1  0
 21 22  2  0
 21 23  1  0
 20 24  1  0
 24 25  2  0
 11 26  2  0
 26  7  1  0
 25 17  1  0
  1 27  1  0
  1 28  1  0
  1 29  1  0
  2 30  1  0
  2 31  1  0
  3 32  1  0
  3 33  1  0
  8 34  1  0
  9 35  1  0
 10 36  1  0
 12 37  1  0
 15 38  1  0
 15 39  1  0
 18 40  1  0
 19 41  1  0
 24 42  1  0
 25 43  1  0
 26 44  1  0
M  CHG  2  21   1  23  -1
M  END
$$$$
