
     RDKit          3D

 37 39  0  0  0  0  0  0  0  0999 V2000
    0.1031    3.4570    3.4119 C   0  0  0  0  0  0  0  0  0  0  0  0
    1.6234    2.8203    2.6575 S   0  0  0  0  0  0  0  0  0  0  0  0
    0.9500    1.5697    1.5717 C   0  0  0  0  0  0  0  0  0  0  0  0
    1.8033    0.9221    0.7035 C   0  0  0  0  0  0  0  0  0  0  0  0
    1.2634   -0.0422   -0.1245 C   0  0  0  0  0  0  0  0  0  0  0  0
    2.0610   -0.7548   -1.0140 N   0  0  0  0  0  0  0  0  0  0  0  0
    3.1252   -0.0530   -1.7560 C   0  0  0  0  0  0  0  0  0  0  0  0
    3.0209   -0.3361   -3.2648 C   0  0  0  0  0  0  0  0  0  0  0  0
    3.0786   -1.7300   -3.5953 O   0  0  0  0  0  0  0  0  0  0  0  0
    2.4448   -2.5727   -2.6196 C   0  0  0  0  0  0  0  0  0  0  0  0
    1.4047   -1.8493   -1.7502 C   0  0  0  0  0  0  0  0  0  0  0  0
   -0.0431   -0.3452   -0.0458 N   0  0  0  0  0  0  0  0  0  0  0  0
   -0.8088    0.3486    0.8169 C   0  0  0  0  0  0  0  0  0  0  0  0
   -2.2247   -0.0262    0.9002 C   0  0  0  0  0  0  0  0  0  0  0  0
   -2.5679   -1.3932    0.9940 C   0  0  0  0  0  0  0  0  0  0  0  0
   -3.8972   -1.8122    1.0934 C   0  0  0  0  0  0  0  0  0  0  0  0
   -4.9205   -0.8719    1.0959 C   0  0  0  0  0  0  0  0  0  0  0  0
   -4.6128    0.4833    0.9914 C   0  0  0  0  0  0  0  0  0  0  0  0
   -3.2788    0.9056    0.8908 C   0  0  0  0  0  0  0  0  0  0  0  0
   -3.0223    2.6090    0.6998 Cl  0  0  0  0  0  0  0  0  0  0  0  0
   -0.3579    1.2954    1.6479 N   0  0  0  0  0  0  0  0  0  0  0  0
   -0.4126    2.6722    3.9722 H   0  0  0  0  0  0  0  0  0  0  0  0
   -0.5643    3.8687    2.6500 H   0  0  0  0  0  0  0  0  0  0  0  0
    0.3630    4.2591    4.1083 H   0  0  0  0  0  0  0  0  0  0  0  0
    2.8609    1.1485    0.6955 H   0  0  0  0  0  0  0  0  0  0  0  0
    4.0892   -0.4173   -1.3826 H   0  0  0  0  0  0  0  0  0  0  0  0
    3.0927    1.0329   -1.6128 H   0  0  0  0  0  0  0  0  0  0  0  0
    3.8394    0.1606   -3.7957 H   0  0  0  0  0  0  0  0  0  0  0  0
    2.0831    0.0666   -3.6660 H   0  0  0  0  0  0  0  0  0  0  0  0
    1.9764   -3.4029   -3.1577 H   0  0  0  0  0  0  0  0  0  0  0  0
    3.2368   -2.9951   -1.9901 H   0  0  0  0  0  0  0  0  0  0  0  0
    0.6093   -1.4489   -2.3918 H   0  0  0  0  0  0  0  0  0  0  0  0
    0.9657   -2.5717   -1.0518 H   0  0  0  0  0  0  0  0  0  0  0  0
   -1.7793   -2.1457    0.9962 H   0  0  0  0  0  0  0  0  0  0  0  0
   -4.1283   -2.8720    1.1691 H   0  0  0  0  0  0  0  0  0  0  0  0
   -5.9568   -1.1914    1.1722 H   0  0  0  0  0  0  0  0  0  0  0  0
   -5.4197    1.2125    0.9802 H   0  0  0  0  0  0  0  0  0  0  0  0
  1  2  1  0
  2  3  1  0
  3  4  2  0
  4  5  1  0
  5  6  1  0
  6  7  1  0
  7  8  1  0
  8  9  1  0
  9 10  1  0
 10 11  1  0
  5 12  2  0
 12 13  1  0
 13 14  1  0
 14 15  2  0
 15 16  1  0
 16 17  2  0
 17 18  1  0
 18 19  2  0
 19 20  1  0
 13 21  2  0
 21  3  1  0
 11  6  1  0
 19 14  1  0
  1 22  1  0
  1 23  1  0
  1 24  1  0
  4 25  1  0
  7 26  1  0
  7 27  1  0
  8 28  1  0
  8 29  1  0
 10 30  1  0
 10 31  1  0
 11 32  1  0
 11 33  1  0
 15 34  1  0
 16 35  1  0
 17 36  1  0
 18 37  1  0
M  END
$$$$
