
     RDKit          3D

 54 57  0  0  0  0  0  0  0  0999 V2000
    5.9594    0.6479    3.5126 C   0  0  0  0  0  0  0  0  0  0  0  0
    6.5970    0.2994    2.1654 C   0  0  0  0  0  0  0  0  0  0  0  0
    7.5228    1.4233    1.6936 C   0  0  0  0  0  0  0  0  0  0  0  0
    5.5464   -0.0339    1.1218 C   0  0  0  0  0  0  0  0  0  0  0  0
    4.5991    0.9072    0.6997 C   0  0  0  0  0  0  0  0  0  0  0  0
    3.6415    0.5729   -0.2634 C   0  0  0  0  0  0  0  0  0  0  0  0
    3.6067   -0.7081   -0.8247 C   0  0  0  0  0  0  0  0  0  0  0  0
    2.6105   -0.9584   -1.7876 N   0  0  0  0  0  0  0  0  0  0  0  0
    2.3313   -2.1489   -2.4351 C   0  0  0  0  0  0  0  0  0  0  0  0
    2.9075   -3.2217   -2.2766 O   0  0  0  0  0  0  0  0  0  0  0  0
    1.1785   -2.0238   -3.4392 C   0  0  0  0  0  0  0  0  0  0  0  0
   -0.1155   -1.9751   -2.8339 O   0  0  0  0  0  0  0  0  0  0  0  0
   -0.4796   -0.7704   -2.3379 C   0  0  0  0  0  0  0  0  0  0  0  0
    0.2119    0.2370   -2.3504 O   0  0  0  0  0  0  0  0  0  0  0  0
   -1.8462   -0.8240   -1.7535 C   0  0  0  0  0  0  0  0  0  0  0  0
   -2.5940   -2.0055   -1.6941 C   0  0  0  0  0  0  0  0  0  0  0  0
   -3.8769   -2.0002   -1.1310 C   0  0  0  0  0  0  0  0  0  0  0  0
   -4.4369   -0.8191   -0.6168 C   0  0  0  0  0  0  0  0  0  0  0  0
   -3.6839    0.3438   -0.6822 C   0  0  0  0  0  0  0  0  0  0  0  0
   -2.3967    0.3559   -1.2423 C   0  0  0  0  0  0  0  0  0  0  0  0
   -4.3228    1.8499   -0.0649 S   0  0  0  0  0  6  0  0  0  0  0  0
   -3.4640    2.2300    1.0385 O   0  0  0  0  0  0  0  0  0  0  0  0
   -4.5161    2.7074   -1.2166 O   0  0  0  0  0  0  0  0  0  0  0  0
   -5.9066    1.5590    0.6127 C   0  0  0  0  0  0  0  0  0  0  0  0
   -6.5824    2.6395    1.1968 C   0  0  0  0  0  0  0  0  0  0  0  0
   -7.8480    2.4466    1.7450 C   0  0  0  0  0  0  0  0  0  0  0  0
   -8.4312    1.1825    1.7082 C   0  0  0  0  0  0  0  0  0  0  0  0
   -7.7477    0.1121    1.1237 C   0  0  0  0  0  0  0  0  0  0  0  0
   -6.4704    0.2914    0.5677 C   0  0  0  0  0  0  0  0  0  0  0  0
   -5.7985   -0.8836   -0.0353 C   0  0  0  0  0  0  0  0  0  0  0  0
   -6.3915   -1.9591   -0.0537 O   0  0  0  0  0  0  0  0  0  0  0  0
    4.5476   -1.6482   -0.4095 C   0  0  0  0  0  0  0  0  0  0  0  0
    5.5074   -1.3145    0.5543 C   0  0  0  0  0  0  0  0  0  0  0  0
    6.7307    0.8041    4.2745 H   0  0  0  0  0  0  0  0  0  0  0  0
    5.3063   -0.1614    3.8578 H   0  0  0  0  0  0  0  0  0  0  0  0
    5.3575    1.5616    3.4571 H   0  0  0  0  0  0  0  0  0  0  0  0
    7.2239   -0.5878    2.3256 H   0  0  0  0  0  0  0  0  0  0  0  0
    6.9861    2.3694    1.5637 H   0  0  0  0  0  0  0  0  0  0  0  0
    8.3236    1.5932    2.4214 H   0  0  0  0  0  0  0  0  0  0  0  0
    7.9891    1.1699    0.7350 H   0  0  0  0  0  0  0  0  0  0  0  0
    4.5948    1.9119    1.1159 H   0  0  0  0  0  0  0  0  0  0  0  0
    2.9217    1.3305   -0.5647 H   0  0  0  0  0  0  0  0  0  0  0  0
    1.9822   -0.1796   -1.9905 H   0  0  0  0  0  0  0  0  0  0  0  0
    1.1999   -2.9084   -4.0855 H   0  0  0  0  0  0  0  0  0  0  0  0
    1.3435   -1.1604   -4.0959 H   0  0  0  0  0  0  0  0  0  0  0  0
   -2.1959   -2.9433   -2.0778 H   0  0  0  0  0  0  0  0  0  0  0  0
   -4.4376   -2.9350   -1.0965 H   0  0  0  0  0  0  0  0  0  0  0  0
   -1.8296    1.2867   -1.2783 H   0  0  0  0  0  0  0  0  0  0  0  0
   -6.1260    3.6279    1.2247 H   0  0  0  0  0  0  0  0  0  0  0  0
   -8.3795    3.2797    2.1999 H   0  0  0  0  0  0  0  0  0  0  0  0
   -9.4200    1.0259    2.1344 H   0  0  0  0  0  0  0  0  0  0  0  0
   -8.2237   -0.8682    1.1068 H   0  0  0  0  0  0  0  0  0  0  0  0
    4.5675   -2.6542   -0.8162 H   0  0  0  0  0  0  0  0  0  0  0  0
    6.2268   -2.0734    0.8555 H   0  0  0  0  0  0  0  0  0  0  0  0
  1  2  1  0
  2  3  1  0
  2  4  1  0
  4  5  2  0
  5  6  1  0
  6  7  2  0
  7  8  1  0
  8  9  1  0
  9 10  2  0
  9 11  1  0
 11 12  1  0
 12 13  1  0
 13 14  2  0
 13 15  1  0
 15 16  2  0
 16 17  1  0
 17 18  2  0
 18 19  1  0
 19 20  2  0
 19 21  1  0
 21 22  2  0
 21 23  2  0
 21 24  1  0
 24 25  2  0
 25 26  1  0
 26 27  2  0
 27 28  1  0
 28 29  2  0
 29 30  1  0
 30 31  2  0
  7 32  1  0
 32 33  2  0
 33  4  1  0
 20 15  1  0
 29 24  1  0
 30 18  1  0
  1 34  1  0
  1 35  1  0
  1 36  1  0
  2 37  1  0
  3 38  1  0
  3 39  1  0
  3 40  1  0
  5 41  1  0
  6 42  1  0
  8 43  1  0
 11 44  1  0
 11 45  1  0
 16 46  1  0
 17 47  1  0
 20 48  1  0
 25 49  1  0
 26 50  1  0
 27 51  1  0
 28 52  1  0
 32 53  1  0
 33 54  1  0
M  END
$$$$
