
     RDKit          3D

 47 49  0  0  0  0  0  0  0  0999 V2000
   -2.8222   -1.6020    2.8307 O   0  0  0  0  0  0  0  0  0  0  0  0
   -3.1108   -1.0869    1.7544 C   0  0  0  0  0  0  0  0  0  0  0  0
   -4.5713   -0.7828    1.4046 C   0  0  0  0  0  0  0  0  0  0  0  0
   -4.7089   -0.4415    0.0258 O   0  0  0  0  0  0  0  0  0  0  0  0
   -5.9812   -0.2385   -0.4328 C   0  0  0  0  0  0  0  0  0  0  0  0
   -6.0931   -0.1427   -1.8230 C   0  0  0  0  0  0  0  0  0  0  0  0
   -7.3356    0.0684   -2.4250 C   0  0  0  0  0  0  0  0  0  0  0  0
   -8.4710    0.1925   -1.6298 C   0  0  0  0  0  0  0  0  0  0  0  0
  -10.1561    0.4809   -2.4348 Br  0  0  0  0  0  0  0  0  0  0  0  0
   -8.3711    0.1062   -0.2433 C   0  0  0  0  0  0  0  0  0  0  0  0
   -7.1249   -0.1090    0.3560 C   0  0  0  0  0  0  0  0  0  0  0  0
   -2.2281   -0.6860    0.7674 N   0  0  0  0  0  0  0  0  0  0  0  0
   -0.8258   -0.7886    0.7582 C   0  0  0  0  0  0  0  0  0  0  0  0
   -0.1566   -0.2725   -0.3594 C   0  0  0  0  0  0  0  0  0  0  0  0
    1.2392   -0.3254   -0.4475 C   0  0  0  0  0  0  0  0  0  0  0  0
    1.9831   -0.8984    0.5887 C   0  0  0  0  0  0  0  0  0  0  0  0
    3.4716   -0.9840    0.5401 C   0  0  0  0  0  0  0  0  0  0  0  0
    4.0139   -1.9600    1.0448 O   0  0  0  0  0  0  0  0  0  0  0  0
    4.0952    0.0894   -0.0656 N   0  0  0  0  0  0  0  0  0  0  0  0
    5.4819    0.2946   -0.2884 C   0  0  0  0  0  0  0  0  0  0  0  0
    6.4427   -0.6588    0.0717 C   0  0  0  0  0  0  0  0  0  0  0  0
    7.8043   -0.4328   -0.1548 C   0  0  0  0  0  0  0  0  0  0  0  0
    8.2305    0.7494   -0.7483 C   0  0  0  0  0  0  0  0  0  0  0  0
    7.2935    1.7108   -1.1206 C   0  0  0  0  0  0  0  0  0  0  0  0
    5.9215    1.4945   -0.8978 C   0  0  0  0  0  0  0  0  0  0  0  0
    4.9380    2.5327   -1.3148 C   0  0  0  0  0  0  0  0  0  0  0  0
    3.7255    2.4466   -1.2048 O   0  0  0  0  0  0  0  0  0  0  0  0
    5.5071    3.6279   -1.8507 O   0  0  0  0  0  0  0  0  0  0  0  0
    1.3170   -1.4344    1.6959 C   0  0  0  0  0  0  0  0  0  0  0  0
   -0.0793   -1.3727    1.7824 C   0  0  0  0  0  0  0  0  0  0  0  0
   -4.8799    0.0580    2.0362 H   0  0  0  0  0  0  0  0  0  0  0  0
   -5.1541   -1.6837    1.6300 H   0  0  0  0  0  0  0  0  0  0  0  0
   -5.2075   -0.2398   -2.4465 H   0  0  0  0  0  0  0  0  0  0  0  0
   -7.4042    0.1323   -3.5078 H   0  0  0  0  0  0  0  0  0  0  0  0
   -9.2555    0.2062    0.3815 H   0  0  0  0  0  0  0  0  0  0  0  0
   -7.0869   -0.1616    1.4391 H   0  0  0  0  0  0  0  0  0  0  0  0
   -2.6691   -0.2768   -0.0517 H   0  0  0  0  0  0  0  0  0  0  0  0
   -0.7111    0.1784   -1.1792 H   0  0  0  0  0  0  0  0  0  0  0  0
    1.7227    0.0651   -1.3396 H   0  0  0  0  0  0  0  0  0  0  0  0
    3.4999    0.8690   -0.3470 H   0  0  0  0  0  0  0  0  0  0  0  0
    6.1655   -1.6004    0.5366 H   0  0  0  0  0  0  0  0  0  0  0  0
    8.5292   -1.1892    0.1378 H   0  0  0  0  0  0  0  0  0  0  0  0
    9.2899    0.9216   -0.9223 H   0  0  0  0  0  0  0  0  0  0  0  0
    7.6454    2.6281   -1.5867 H   0  0  0  0  0  0  0  0  0  0  0  0
    4.7556    4.2170   -2.0703 H   0  0  0  0  0  0  0  0  0  0  0  0
    1.8819   -1.9031    2.5007 H   0  0  0  0  0  0  0  0  0  0  0  0
   -0.5509   -1.7978    2.6635 H   0  0  0  0  0  0  0  0  0  0  0  0
  1  2  2  0
  2  3  1  0
  3  4  1  0
  4  5  1  0
  5  6  2  0
  6  7  1  0
  7  8  2  0
  8  9  1  0
  8 10  1  0
 10 11  2  0
  2 12  1  0
 12 13  1  0
 13 14  2  0
 14 15  1  0
 15 16  2  0
 16 17  1  0
 17 18  2  0
 17 19  1  0
 19 20  1  0
 20 21  2  0
 21 22  1  0
 22 23  2  0
 23 24  1  0
 24 25  2  0
 25 26  1  0
 26 27  2  0
 26 28  1  0
 16 29  1  0
 29 30  2  0
 11  5  1  0
 30 13  1  0
 25 20  1  0
  3 31  1  0
  3 32  1  0
  6 33  1  0
  7 34  1  0
 10 35  1  0
 11 36  1  0
 12 37  1  0
 14 38  1  0
 15 39  1  0
 19 40  1  0
 21 41  1  0
 22 42  1  0
 23 43  1  0
 24 44  1  0
 28 45  1  0
 29 46  1  0
 30 47  1  0
M  END
$$$$
