
     RDKit          3D

 59 62  0  0  0  0  0  0  0  0999 V2000
    7.1521    2.9085    4.0744 C   0  0  0  0  0  0  0  0  0  0  0  0
    5.8411    2.4995    4.4445 O   0  0  0  0  0  0  0  0  0  0  0  0
    5.2010    1.6347    3.6008 C   0  0  0  0  0  0  0  0  0  0  0  0
    3.8814    1.3463    3.9498 C   0  0  0  0  0  0  0  0  0  0  0  0
    3.1112    0.4795    3.1698 C   0  0  0  0  0  0  0  0  0  0  0  0
    3.6557   -0.1170    2.0262 C   0  0  0  0  0  0  0  0  0  0  0  0
    2.7892   -1.0432    1.2322 C   0  0  0  0  0  0  0  0  0  0  0  0
    1.6752   -1.3577    1.6609 O   0  0  0  0  0  0  0  0  0  0  0  0
    3.2823   -1.6213   -0.0767 C   0  0  0  0  0  0  0  0  0  0  0  0
    3.2724   -0.4423   -1.4507 S   0  0  0  0  0  0  0  0  0  0  0  0
    1.8452    0.4725   -1.1232 C   0  0  0  0  0  0  0  0  0  0  0  0
    1.8355    1.6309   -0.5091 N   0  0  0  0  0  0  0  0  0  0  0  0
    0.5258    2.0240   -0.3825 N   0  0  0  0  0  0  0  0  0  0  0  0
   -0.2349    1.0987   -0.9350 C   0  0  0  0  0  0  0  0  0  0  0  0
   -1.7282    1.0858   -0.9785 C   0  0  0  0  0  0  0  0  0  0  0  0
   -2.2979    0.0472   -0.1199 N   0  0  0  0  0  0  0  0  0  0  0  0
   -3.6856   -0.1392   -0.0533 C   0  0  0  0  0  0  0  0  0  0  0  0
   -4.5500    0.2605   -1.0831 C   0  0  0  0  0  0  0  0  0  0  0  0
   -5.9245    0.0022   -1.0316 C   0  0  0  0  0  0  0  0  0  0  0  0
   -6.4759   -0.6821    0.0499 C   0  0  0  0  0  0  0  0  0  0  0  0
   -7.9432   -0.9855    0.0898 C   0  0  0  0  0  0  0  0  0  0  0  0
   -5.6230   -1.1387    1.0576 C   0  0  0  0  0  0  0  0  0  0  0  0
   -4.2371   -0.8907    1.0095 C   0  0  0  0  0  0  0  0  0  0  0  0
   -3.3773   -1.4281    2.1251 C   0  0  0  0  0  0  0  0  0  0  0  0
    0.5697    0.1026   -1.4456 N   0  0  0  0  0  0  0  0  0  0  0  0
    0.1292   -1.0882   -2.1429 C   0  0  0  0  0  0  0  0  0  0  0  0
    0.1030   -0.8500   -3.6081 C   0  0  0  0  0  0  0  0  0  0  0  0
    1.0333   -1.0064   -4.6159 C   0  0  0  0  0  0  0  0  0  0  0  0
    0.3980   -0.6016   -5.8137 C   0  0  0  0  0  0  0  0  0  0  0  0
   -0.8786   -0.2305   -5.4638 C   0  0  0  0  0  0  0  0  0  0  0  0
   -1.0679   -0.3801   -4.1285 O   0  0  0  0  0  0  0  0  0  0  0  0
    4.9811    0.1674    1.6799 C   0  0  0  0  0  0  0  0  0  0  0  0
    5.7487    1.0404    2.4643 C   0  0  0  0  0  0  0  0  0  0  0  0
    7.4973    3.6344    4.8170 H   0  0  0  0  0  0  0  0  0  0  0  0
    7.8471    2.0624    4.0874 H   0  0  0  0  0  0  0  0  0  0  0  0
    7.1519    3.4052    3.0976 H   0  0  0  0  0  0  0  0  0  0  0  0
    3.4428    1.8078    4.8317 H   0  0  0  0  0  0  0  0  0  0  0  0
    2.0805    0.2836    3.4575 H   0  0  0  0  0  0  0  0  0  0  0  0
    2.6264   -2.4588   -0.3401 H   0  0  0  0  0  0  0  0  0  0  0  0
    4.2795   -2.0542    0.0490 H   0  0  0  0  0  0  0  0  0  0  0  0
   -2.0983    2.0669   -0.6565 H   0  0  0  0  0  0  0  0  0  0  0  0
   -2.0331    0.9455   -2.0203 H   0  0  0  0  0  0  0  0  0  0  0  0
   -1.8902    0.1000    0.8131 H   0  0  0  0  0  0  0  0  0  0  0  0
   -4.1794    0.7826   -1.9598 H   0  0  0  0  0  0  0  0  0  0  0  0
   -6.5576    0.3366   -1.8506 H   0  0  0  0  0  0  0  0  0  0  0  0
   -8.2849   -1.1418    1.1178 H   0  0  0  0  0  0  0  0  0  0  0  0
   -8.5218   -0.1527   -0.3227 H   0  0  0  0  0  0  0  0  0  0  0  0
   -8.1554   -1.8878   -0.4915 H   0  0  0  0  0  0  0  0  0  0  0  0
   -6.0381   -1.7043    1.8903 H   0  0  0  0  0  0  0  0  0  0  0  0
   -3.9411   -2.0997    2.7811 H   0  0  0  0  0  0  0  0  0  0  0  0
   -2.9973   -0.6034    2.7365 H   0  0  0  0  0  0  0  0  0  0  0  0
   -2.5378   -2.0032    1.7215 H   0  0  0  0  0  0  0  0  0  0  0  0
    0.8024   -1.9136   -1.8944 H   0  0  0  0  0  0  0  0  0  0  0  0
   -0.8590   -1.3768   -1.7767 H   0  0  0  0  0  0  0  0  0  0  0  0
    2.0480   -1.3616   -4.5019 H   0  0  0  0  0  0  0  0  0  0  0  0
    0.8170   -0.5809   -6.8102 H   0  0  0  0  0  0  0  0  0  0  0  0
   -1.7284    0.1425   -6.0180 H   0  0  0  0  0  0  0  0  0  0  0  0
    5.4514   -0.2644    0.8021 H   0  0  0  0  0  0  0  0  0  0  0  0
    6.7710    1.2372    2.1552 H   0  0  0  0  0  0  0  0  0  0  0  0
  1  2  1  0
  2  3  1  0
  3  4  2  0
  4  5  1  0
  5  6  2  0
  6  7  1  0
  7  8  2  0
  7  9  1  0
  9 10  1  0
 10 11  1  0
 11 12  2  0
 12 13  1  0
 13 14  2  0
 14 15  1  0
 15 16  1  0
 16 17  1  0
 17 18  2  0
 18 19  1  0
 19 20  2  0
 20 21  1  0
 20 22  1  0
 22 23  2  0
 23 24  1  0
 14 25  1  0
 25 26  1  0
 26 27  1  0
 27 28  2  0
 28 29  1  0
 29 30  2  0
 30 31  1  0
  6 32  1  0
 32 33  2  0
 33  3  1  0
 25 11  1  0
 31 27  1  0
 23 17  1  0
  1 34  1  0
  1 35  1  0
  1 36  1  0
  4 37  1  0
  5 38  1  0
  9 39  1  0
  9 40  1  0
 15 41  1  0
 15 42  1  0
 16 43  1  0
 18 44  1  0
 19 45  1  0
 21 46  1  0
 21 47  1  0
 21 48  1  0
 22 49  1  0
 24 50  1  0
 24 51  1  0
 24 52  1  0
 26 53  1  0
 26 54  1  0
 28 55  1  0
 29 56  1  0
 30 57  1  0
 32 58  1  0
 33 59  1  0
M  END
$$$$
