
     RDKit          3D

 31 31  0  0  0  0  0  0  0  0999 V2000
    4.6520   -0.5128    2.2717 C   0  0  0  0  0  0  0  0  0  0  0  0
    3.3288   -0.9321    1.9763 O   0  0  0  0  0  0  0  0  0  0  0  0
    2.8115   -0.2567    0.8309 C   0  0  0  0  0  0  0  0  0  0  0  0
    1.4770   -0.6984    0.5750 O   0  0  0  0  0  0  0  0  0  0  0  0
    0.9052   -0.0327   -0.4832 C   0  0  0  0  0  0  0  0  0  0  0  0
   -0.4181    0.1478   -0.6278 C   0  0  0  0  0  0  0  0  0  0  0  0
   -1.0139    0.8084   -1.6868 N   0  0  0  0  0  0  0  0  0  0  0  0
   -0.4073    1.4497   -2.7511 C   0  0  0  0  0  0  0  0  0  0  0  0
   -1.4056    2.0320   -3.7200 C   0  0  0  0  0  0  0  0  0  0  0  0
    0.7984    1.5921   -2.9260 O   0  0  0  0  0  0  0  0  0  0  0  0
   -1.3573   -0.3746    0.3887 C   0  0  0  0  0  0  0  0  0  0  0  0
   -1.5320   -1.7537    0.5644 C   0  0  0  0  0  0  0  0  0  0  0  0
   -2.4440   -2.2369    1.5050 C   0  0  0  0  0  0  0  0  0  0  0  0
   -3.1899   -1.3462    2.2756 C   0  0  0  0  0  0  0  0  0  0  0  0
   -3.0234    0.0280    2.1102 C   0  0  0  0  0  0  0  0  0  0  0  0
   -2.1115    0.5129    1.1703 C   0  0  0  0  0  0  0  0  0  0  0  0
    4.6750    0.5581    2.4956 H   0  0  0  0  0  0  0  0  0  0  0  0
    5.3222   -0.7374    1.4363 H   0  0  0  0  0  0  0  0  0  0  0  0
    4.9986   -1.0599    3.1526 H   0  0  0  0  0  0  0  0  0  0  0  0
    3.4464   -0.4879   -0.0336 H   0  0  0  0  0  0  0  0  0  0  0  0
    2.8097    0.8240    1.0223 H   0  0  0  0  0  0  0  0  0  0  0  0
    1.6307    0.3114   -1.2080 H   0  0  0  0  0  0  0  0  0  0  0  0
   -2.0280    0.8180   -1.6649 H   0  0  0  0  0  0  0  0  0  0  0  0
   -0.9534    2.0899   -4.7143 H   0  0  0  0  0  0  0  0  0  0  0  0
   -2.2984    1.4042   -3.7909 H   0  0  0  0  0  0  0  0  0  0  0  0
   -1.6878    3.0346   -3.3885 H   0  0  0  0  0  0  0  0  0  0  0  0
   -0.9486   -2.4577   -0.0252 H   0  0  0  0  0  0  0  0  0  0  0  0
   -2.5648   -3.3085    1.6406 H   0  0  0  0  0  0  0  0  0  0  0  0
   -3.8942   -1.7242    3.0122 H   0  0  0  0  0  0  0  0  0  0  0  0
   -3.5970    0.7217    2.7192 H   0  0  0  0  0  0  0  0  0  0  0  0
   -1.9804    1.5868    1.0606 H   0  0  0  0  0  0  0  0  0  0  0  0
  1  2  1  0
  2  3  1  0
  3  4  1  0
  4  5  1  0
  5  6  2  3
  6  7  1  0
  7  8  1  0
  8  9  1  0
  8 10  2  0
  6 11  1  0
 11 12  2  0
 12 13  1  0
 13 14  2  0
 14 15  1  0
 15 16  2  0
 16 11  1  0
  1 17  1  0
  1 18  1  0
  1 19  1  0
  3 20  1  0
  3 21  1  0
  5 22  1  0
  7 23  1  0
  9 24  1  0
  9 25  1  0
  9 26  1  0
 12 27  1  0
 13 28  1  0
 14 29  1  0
 15 30  1  0
 16 31  1  0
M  END
$$$$
