
     RDKit          3D

 38 39  0  0  0  0  0  0  0  0999 V2000
    0.9162   -0.4500   -3.5623 O   0  0  0  0  0  0  0  0  0  0  0  0
    1.0398    0.0757   -2.4608 C   0  0  0  0  0  0  0  0  0  0  0  0
    0.5089    1.4818   -2.1596 C   0  0  0  0  0  0  0  0  0  0  0  0
   -0.7910    1.4945   -1.5610 O   0  0  0  0  0  0  0  0  0  0  0  0
   -0.8242    1.1462   -0.2496 C   0  0  0  0  0  0  0  0  0  0  0  0
    0.1500    0.7964    0.4021 O   0  0  0  0  0  0  0  0  0  0  0  0
   -2.2023    1.2272    0.3049 C   0  0  0  0  0  0  0  0  0  0  0  0
   -2.3637    0.8386    1.6477 C   0  0  0  0  0  0  0  0  0  0  0  0
   -3.6180    0.8896    2.2624 C   0  0  0  0  0  0  0  0  0  0  0  0
   -4.7148    1.3330    1.5342 C   0  0  0  0  0  0  0  0  0  0  0  0
   -5.9552    1.4022    2.0931 O   0  0  0  0  0  0  0  0  0  0  0  0
   -4.5775    1.7221    0.2069 C   0  0  0  0  0  0  0  0  0  0  0  0
   -3.3262    1.6677   -0.4093 C   0  0  0  0  0  0  0  0  0  0  0  0
   -3.3060    2.0682   -1.7172 O   0  0  0  0  0  0  0  0  0  0  0  0
    1.6737   -0.5306   -1.3921 N   0  0  0  0  0  0  0  0  0  0  0  0
    1.9991   -1.9497   -1.4313 C   0  0  0  0  0  0  0  0  0  0  0  0
    3.2087   -2.2915   -0.5569 C   0  0  0  0  0  0  0  0  0  0  0  0
    3.0289   -1.8960    0.8298 N   0  0  0  0  0  0  0  0  0  0  0  0
    3.3898   -0.6841    1.3699 C   0  0  0  0  0  0  0  0  0  0  0  0
    3.9177    0.3096    0.6005 O   0  0  0  0  0  0  0  0  0  0  0  0
    3.1424   -0.5594    2.6766 C   0  0  0  0  0  0  0  0  0  0  0  0
    2.4011   -1.9895    3.3228 S   0  0  0  0  0  0  0  0  0  0  0  0
    2.4346   -2.7708    1.7332 C   0  0  0  0  0  0  0  0  0  0  0  0
    1.9918   -3.8862    1.5133 O   0  0  0  0  0  0  0  0  0  0  0  0
    1.2270    2.0360   -1.5426 H   0  0  0  0  0  0  0  0  0  0  0  0
    0.4373    2.0217   -3.1098 H   0  0  0  0  0  0  0  0  0  0  0  0
   -1.5099    0.4914    2.2280 H   0  0  0  0  0  0  0  0  0  0  0  0
   -3.7164    0.5823    3.2995 H   0  0  0  0  0  0  0  0  0  0  0  0
   -5.9069    1.0957    3.0136 H   0  0  0  0  0  0  0  0  0  0  0  0
   -5.4445    2.0667   -0.3506 H   0  0  0  0  0  0  0  0  0  0  0  0
   -2.4105    1.9312   -2.0788 H   0  0  0  0  0  0  0  0  0  0  0  0
    1.3788   -0.1728   -0.4781 H   0  0  0  0  0  0  0  0  0  0  0  0
    1.1089   -2.4867   -1.0840 H   0  0  0  0  0  0  0  0  0  0  0  0
    2.1941   -2.2566   -2.4637 H   0  0  0  0  0  0  0  0  0  0  0  0
    4.1189   -1.8244   -0.9492 H   0  0  0  0  0  0  0  0  0  0  0  0
    3.3715   -3.3755   -0.5932 H   0  0  0  0  0  0  0  0  0  0  0  0
    3.6808    0.1243   -0.3240 H   0  0  0  0  0  0  0  0  0  0  0  0
    3.3470    0.3217    3.2676 H   0  0  0  0  0  0  0  0  0  0  0  0
  1  2  2  0
  2  3  1  0
  3  4  1  0
  4  5  1  0
  5  6  2  0
  5  7  1  0
  7  8  2  0
  8  9  1  0
  9 10  2  0
 10 11  1  0
 10 12  1  0
 12 13  2  0
 13 14  1  0
  2 15  1  0
 15 16  1  0
 16 17  1  0
 17 18  1  0
 18 19  1  0
 19 20  1  0
 19 21  2  0
 21 22  1  0
 22 23  1  0
 23 24  2  0
 13  7  1  0
 23 18  1  0
  3 25  1  0
  3 26  1  0
  8 27  1  0
  9 28  1  0
 11 29  1  0
 12 30  1  0
 14 31  1  0
 15 32  1  0
 16 33  1  0
 16 34  1  0
 17 35  1  0
 17 36  1  0
 20 37  1  0
 21 38  1  0
M  END
$$$$
