
     RDKit          3D

 57 60  0  0  0  0  0  0  0  0999 V2000
    8.4158    2.3491   -1.4846 C   0  0  0  0  0  0  0  0  0  0  0  0
    7.0013    2.4038   -0.9439 C   0  0  0  0  0  0  0  0  0  0  0  0
    6.3391    1.2024   -1.3469 O   0  0  0  0  0  0  0  0  0  0  0  0
    5.2787    0.8138   -0.5782 C   0  0  0  0  0  0  0  0  0  0  0  0
    4.4743    1.6580    0.1787 C   0  0  0  0  0  0  0  0  0  0  0  0
    3.4270    1.1294    0.9497 C   0  0  0  0  0  0  0  0  0  0  0  0
    3.1861   -0.2506    0.9811 C   0  0  0  0  0  0  0  0  0  0  0  0
    2.1723   -0.7047    1.8490 N   0  0  0  0  0  0  0  0  0  0  0  0
    1.8537   -2.0103    2.1792 C   0  0  0  0  0  0  0  0  0  0  0  0
    2.3198   -3.0237    1.6608 O   0  0  0  0  0  0  0  0  0  0  0  0
    0.8394   -2.1122    3.3151 C   0  0  0  0  0  0  0  0  0  0  0  0
   -0.8323   -2.4035    2.6700 S   0  0  0  0  0  0  0  0  0  0  0  0
   -1.1966   -0.8530    1.9844 C   0  0  0  0  0  0  0  0  0  0  0  0
   -0.5003    0.2387    2.2240 N   0  0  0  0  0  0  0  0  0  0  0  0
   -1.1270    1.2779    1.6016 N   0  0  0  0  0  0  0  0  0  0  0  0
   -2.2158    0.8126    1.0003 C   0  0  0  0  0  0  0  0  0  0  0  0
   -3.1071    1.6322    0.1178 C   0  0  0  0  0  0  0  0  0  0  0  0
   -3.1399    1.1814   -1.3173 C   0  0  0  0  0  0  0  0  0  0  0  0
   -2.1350    0.6390   -2.1032 C   0  0  0  0  0  0  0  0  0  0  0  0
   -2.6646    0.3820   -3.3887 C   0  0  0  0  0  0  0  0  0  0  0  0
   -3.9819    0.7758   -3.3666 C   0  0  0  0  0  0  0  0  0  0  0  0
   -4.2574    1.2806   -2.1206 N   0  0  0  0  0  0  0  0  0  0  0  0
   -5.5266    1.8572   -1.7460 C   0  0  0  0  0  0  0  0  0  0  0  0
   -2.3182   -0.5565    1.2254 N   0  0  0  0  0  0  0  0  0  0  0  0
   -3.3151   -1.4393    0.7507 C   0  0  0  0  0  0  0  0  0  0  0  0
   -2.9426   -2.6253    0.1005 C   0  0  0  0  0  0  0  0  0  0  0  0
   -3.9225   -3.5006   -0.3699 C   0  0  0  0  0  0  0  0  0  0  0  0
   -5.2666   -3.1912   -0.1861 C   0  0  0  0  0  0  0  0  0  0  0  0
   -6.2129   -4.0479   -0.5992 F   0  0  0  0  0  0  0  0  0  0  0  0
   -5.6536   -2.0170    0.4527 C   0  0  0  0  0  0  0  0  0  0  0  0
   -4.6743   -1.1299    0.9210 C   0  0  0  0  0  0  0  0  0  0  0  0
    3.9693   -1.0846    0.1891 C   0  0  0  0  0  0  0  0  0  0  0  0
    5.0006   -0.5493   -0.5983 C   0  0  0  0  0  0  0  0  0  0  0  0
    8.4106    2.2956   -2.5757 H   0  0  0  0  0  0  0  0  0  0  0  0
    8.9945    3.2254   -1.1652 H   0  0  0  0  0  0  0  0  0  0  0  0
    8.9249    1.4534   -1.1239 H   0  0  0  0  0  0  0  0  0  0  0  0
    7.0471    2.5026    0.1492 H   0  0  0  0  0  0  0  0  0  0  0  0
    6.4750    3.2650   -1.3736 H   0  0  0  0  0  0  0  0  0  0  0  0
    4.6373    2.7375    0.1930 H   0  0  0  0  0  0  0  0  0  0  0  0
    2.8191    1.8050    1.5424 H   0  0  0  0  0  0  0  0  0  0  0  0
    1.5973    0.0171    2.2786 H   0  0  0  0  0  0  0  0  0  0  0  0
    0.8630   -1.2232    3.9544 H   0  0  0  0  0  0  0  0  0  0  0  0
    1.1267   -2.9579    3.9474 H   0  0  0  0  0  0  0  0  0  0  0  0
   -2.7420    2.6655    0.1217 H   0  0  0  0  0  0  0  0  0  0  0  0
   -4.1075    1.6691    0.5538 H   0  0  0  0  0  0  0  0  0  0  0  0
   -1.1189    0.4392   -1.7725 H   0  0  0  0  0  0  0  0  0  0  0  0
   -2.1449   -0.0468   -4.2363 H   0  0  0  0  0  0  0  0  0  0  0  0
   -4.7362    0.7505   -4.1473 H   0  0  0  0  0  0  0  0  0  0  0  0
   -5.9175    1.2939   -0.9051 H   0  0  0  0  0  0  0  0  0  0  0  0
   -5.3590    2.9039   -1.4730 H   0  0  0  0  0  0  0  0  0  0  0  0
   -6.2176    1.7984   -2.5896 H   0  0  0  0  0  0  0  0  0  0  0  0
   -1.8993   -2.8708   -0.0789 H   0  0  0  0  0  0  0  0  0  0  0  0
   -3.6436   -4.4217   -0.8747 H   0  0  0  0  0  0  0  0  0  0  0  0
   -6.7101   -1.8115    0.5984 H   0  0  0  0  0  0  0  0  0  0  0  0
   -4.9925   -0.2463    1.4614 H   0  0  0  0  0  0  0  0  0  0  0  0
    3.8006   -2.1623    0.1508 H   0  0  0  0  0  0  0  0  0  0  0  0
    5.6060   -1.2161   -1.2078 H   0  0  0  0  0  0  0  0  0  0  0  0
  1  2  1  0
  2  3  1  0
  3  4  1  0
  4  5  2  0
  5  6  1  0
  6  7  2  0
  7  8  1  0
  8  9  1  0
  9 10  2  0
  9 11  1  0
 11 12  1  0
 12 13  1  0
 13 14  2  0
 14 15  1  0
 15 16  2  0
 16 17  1  0
 17 18  1  0
 18 19  2  0
 19 20  1  0
 20 21  2  0
 21 22  1  0
 22 23  1  0
 16 24  1  0
 24 25  1  0
 25 26  2  0
 26 27  1  0
 27 28  2  0
 28 29  1  0
 28 30  1  0
 30 31  2  0
  7 32  1  0
 32 33  2  0
 33  4  1  0
 24 13  1  0
 31 25  1  0
 22 18  1  0
  1 34  1  0
  1 35  1  0
  1 36  1  0
  2 37  1  0
  2 38  1  0
  5 39  1  0
  6 40  1  0
  8 41  1  0
 11 42  1  0
 11 43  1  0
 17 44  1  0
 17 45  1  0
 19 46  1  0
 20 47  1  0
 21 48  1  0
 23 49  1  0
 23 50  1  0
 23 51  1  0
 26 52  1  0
 27 53  1  0
 30 54  1  0
 31 55  1  0
 32 56  1  0
 33 57  1  0
M  END
$$$$
