
     RDKit          3D

 68 71  0  0  0  0  0  0  0  0999 V2000
   -4.4613   -1.0507   -4.7883 C   0  0  0  0  0  0  0  0  0  0  0  0
   -3.6532   -1.1160   -3.5265 C   0  0  0  0  0  0  0  0  0  0  0  0
   -3.1486   -2.3343   -3.0618 C   0  0  0  0  0  0  0  0  0  0  0  0
   -2.3764   -2.3844   -1.8973 C   0  0  0  0  0  0  0  0  0  0  0  0
   -2.0879   -1.2168   -1.1706 C   0  0  0  0  0  0  0  0  0  0  0  0
   -1.2561   -1.3124    0.1088 C   0  0  0  0  0  0  0  0  0  0  0  0
   -1.7959   -0.5433    1.3546 C   0  0  0  0  0  0  0  0  0  0  0  0
   -1.0618   -0.1386    2.2588 O   0  0  0  0  0  0  0  0  0  0  0  0
   -3.1777   -0.4741    1.4635 N   0  0  0  0  0  0  0  0  0  0  0  0
   -3.8081    0.2232    2.5740 C   0  0  0  0  0  0  0  0  0  0  0  0
   -3.8456   -0.6394    3.8352 C   0  0  0  0  0  0  0  0  0  0  0  0
   -5.0403   -1.5682    3.6302 C   0  0  0  0  0  0  0  0  0  0  0  0
   -5.9839   -0.8368    2.6765 C   0  0  0  0  0  0  0  0  0  0  0  0
   -5.2910    0.4742    2.3129 C   0  0  0  0  0  0  0  0  0  0  0  0
    0.1861   -1.1196   -0.1385 N   0  0  0  0  0  0  0  0  0  0  0  0
    1.0446   -2.3022   -0.0577 C   0  0  0  0  0  0  0  0  0  0  0  0
    1.5165   -2.5186    1.3365 C   0  0  0  0  0  0  0  0  0  0  0  0
    0.8960   -2.8750    2.5174 C   0  0  0  0  0  0  0  0  0  0  0  0
    1.9063   -2.9053    3.5101 C   0  0  0  0  0  0  0  0  0  0  0  0
    3.0798   -2.5765    2.8734 C   0  0  0  0  0  0  0  0  0  0  0  0
    2.8563   -2.3514    1.5541 O   0  0  0  0  0  0  0  0  0  0  0  0
    0.6597    0.1644   -0.3754 C   0  0  0  0  0  0  0  0  0  0  0  0
   -0.0841    1.1470   -0.3955 O   0  0  0  0  0  0  0  0  0  0  0  0
    2.1470    0.3313   -0.6388 C   0  0  0  0  0  0  0  0  0  0  0  0
    2.5203    1.8051   -0.7684 C   0  0  0  0  0  0  0  0  0  0  0  0
    3.9803    2.0002   -1.1226 C   0  0  0  0  0  0  0  0  0  0  0  0
    4.7283    1.0641   -1.3865 O   0  0  0  0  0  0  0  0  0  0  0  0
    4.3241    3.3340   -1.1248 N   0  0  0  0  0  0  0  0  0  0  0  0
    5.5691    3.8382   -1.4271 C   0  0  0  0  0  0  0  0  0  0  0  0
    6.7479    3.1596   -1.8087 C   0  0  0  0  0  0  0  0  0  0  0  0
    7.6770    4.1550   -1.9803 C   0  0  0  0  0  0  0  0  0  0  0  0
    9.0996    4.1839   -2.3571 C   0  0  0  0  0  0  0  0  0  0  0  0
    7.0980    5.3562   -1.7163 O   0  0  0  0  0  0  0  0  0  0  0  0
    5.7719    5.1597   -1.3786 N   0  0  0  0  0  0  0  0  0  0  0  0
   -2.5718    0.0032   -1.6643 C   0  0  0  0  0  0  0  0  0  0  0  0
   -3.3421    0.0536   -2.8293 C   0  0  0  0  0  0  0  0  0  0  0  0
   -5.2748   -0.3252   -4.6861 H   0  0  0  0  0  0  0  0  0  0  0  0
   -3.8245   -0.7561   -5.6276 H   0  0  0  0  0  0  0  0  0  0  0  0
   -4.9168   -2.0198   -5.0176 H   0  0  0  0  0  0  0  0  0  0  0  0
   -3.3574   -3.2551   -3.6017 H   0  0  0  0  0  0  0  0  0  0  0  0
   -2.0064   -3.3504   -1.5609 H   0  0  0  0  0  0  0  0  0  0  0  0
   -1.3700   -2.3535    0.4492 H   0  0  0  0  0  0  0  0  0  0  0  0
   -3.7343   -0.6620    0.6381 H   0  0  0  0  0  0  0  0  0  0  0  0
   -3.2664    1.1598    2.7431 H   0  0  0  0  0  0  0  0  0  0  0  0
   -4.0287   -0.0038    4.7119 H   0  0  0  0  0  0  0  0  0  0  0  0
   -2.9235   -1.2009    4.0161 H   0  0  0  0  0  0  0  0  0  0  0  0
   -4.7152   -2.5120    3.1783 H   0  0  0  0  0  0  0  0  0  0  0  0
   -5.5264   -1.8097    4.5815 H   0  0  0  0  0  0  0  0  0  0  0  0
   -6.9614   -0.6530    3.1335 H   0  0  0  0  0  0  0  0  0  0  0  0
   -6.1512   -1.4420    1.7789 H   0  0  0  0  0  0  0  0  0  0  0  0
   -5.5073    0.7790    1.2838 H   0  0  0  0  0  0  0  0  0  0  0  0
   -5.6517    1.2670    2.9801 H   0  0  0  0  0  0  0  0  0  0  0  0
    0.4873   -3.1775   -0.4116 H   0  0  0  0  0  0  0  0  0  0  0  0
    1.8982   -2.1929   -0.7326 H   0  0  0  0  0  0  0  0  0  0  0  0
   -0.1593   -3.0663    2.6565 H   0  0  0  0  0  0  0  0  0  0  0  0
    1.7919   -3.1287    4.5614 H   0  0  0  0  0  0  0  0  0  0  0  0
    4.1047   -2.4629    3.2000 H   0  0  0  0  0  0  0  0  0  0  0  0
    2.7198   -0.1097    0.1811 H   0  0  0  0  0  0  0  0  0  0  0  0
    2.3934   -0.1924   -1.5689 H   0  0  0  0  0  0  0  0  0  0  0  0
    1.9216    2.2811   -1.5544 H   0  0  0  0  0  0  0  0  0  0  0  0
    2.3133    2.3258    0.1748 H   0  0  0  0  0  0  0  0  0  0  0  0
    3.6417    4.0392   -0.8797 H   0  0  0  0  0  0  0  0  0  0  0  0
    6.9062    2.0994   -1.9300 H   0  0  0  0  0  0  0  0  0  0  0  0
    9.7004    4.6294   -1.5581 H   0  0  0  0  0  0  0  0  0  0  0  0
    9.4772    3.1743   -2.5440 H   0  0  0  0  0  0  0  0  0  0  0  0
    9.2440    4.7745   -3.2673 H   0  0  0  0  0  0  0  0  0  0  0  0
   -2.3524    0.9367   -1.1483 H   0  0  0  0  0  0  0  0  0  0  0  0
   -3.6946    1.0183   -3.1887 H   0  0  0  0  0  0  0  0  0  0  0  0
  1  2  1  0
  2  3  2  0
  3  4  1  0
  4  5  2  0
  5  6  1  0
  6  7  1  0
  7  8  2  0
  7  9  1  0
  9 10  1  0
 10 11  1  0
 11 12  1  0
 12 13  1  0
 13 14  1  0
  6 15  1  0
 15 16  1  0
 16 17  1  0
 17 18  2  0
 18 19  1  0
 19 20  2  0
 20 21  1  0
 15 22  1  0
 22 23  2  0
 22 24  1  0
 24 25  1  0
 25 26  1  0
 26 27  2  0
 26 28  1  0
 28 29  1  0
 29 30  1  0
 30 31  2  0
 31 32  1  0
 31 33  1  0
 33 34  1  0
  5 35  1  0
 35 36  2  0
 36  2  1  0
 14 10  1  0
 21 17  1  0
 34 29  2  0
  1 37  1  0
  1 38  1  0
  1 39  1  0
  3 40  1  0
  4 41  1  0
  6 42  1  0
  9 43  1  0
 10 44  1  0
 11 45  1  0
 11 46  1  0
 12 47  1  0
 12 48  1  0
 13 49  1  0
 13 50  1  0
 14 51  1  0
 14 52  1  0
 16 53  1  0
 16 54  1  0
 18 55  1  0
 19 56  1  0
 20 57  1  0
 24 58  1  0
 24 59  1  0
 25 60  1  0
 25 61  1  0
 28 62  1  0
 30 63  1  0
 32 64  1  0
 32 65  1  0
 32 66  1  0
 35 67  1  0
 36 68  1  0
M  END
$$$$
