
     RDKit          3D

 45 47  0  0  0  0  0  0  0  0999 V2000
   -3.9608    2.4087    0.7351 O   0  0  0  0  0  0  0  0  0  0  0  0
   -3.4201    1.4411    0.2012 C   0  0  0  0  0  0  0  0  0  0  0  0
   -4.2084    0.2542   -0.3402 C   0  0  0  0  0  0  0  0  0  0  0  0
   -5.7074    0.3724   -0.1839 C   0  0  0  0  0  0  0  0  0  0  0  0
   -6.4810    0.9749   -1.1870 C   0  0  0  0  0  0  0  0  0  0  0  0
   -7.8646    1.0941   -1.0373 C   0  0  0  0  0  0  0  0  0  0  0  0
   -8.4799    0.6172    0.1177 C   0  0  0  0  0  0  0  0  0  0  0  0
  -10.1847    0.7632    0.3010 Cl  0  0  0  0  0  0  0  0  0  0  0  0
   -7.7236    0.0248    1.1263 C   0  0  0  0  0  0  0  0  0  0  0  0
   -6.3399   -0.0949    0.9777 C   0  0  0  0  0  0  0  0  0  0  0  0
   -1.9591    1.3893    0.0641 C   0  0  0  0  0  0  0  0  0  0  0  0
   -1.0947    2.3869    0.4754 C   0  0  0  0  0  0  0  0  0  0  0  0
    0.1867    2.0112    0.1780 N   0  0  0  0  0  0  0  0  0  0  0  0
    0.1932    0.7602   -0.3972 C   0  0  0  0  0  0  0  0  0  0  0  0
    1.3579    0.0289   -0.8509 C   0  0  0  0  0  0  0  0  0  0  0  0
    1.2913   -0.9057   -1.6433 O   0  0  0  0  0  0  0  0  0  0  0  0
    2.5556    0.4368   -0.2992 N   0  0  0  0  0  0  0  0  0  0  0  0
    3.7967   -0.2403   -0.6195 C   0  0  0  0  0  0  0  0  0  0  0  0
    3.9535   -1.5417    0.1670 C   0  0  0  0  0  0  0  0  0  0  0  0
    5.1993   -2.3260   -0.2414 C   0  0  0  0  0  0  0  0  0  0  0  0
    6.4361   -1.6434    0.0749 N   0  0  0  0  0  0  0  0  0  0  0  0
    6.9932   -1.5148    1.3160 C   0  0  0  0  0  0  0  0  0  0  0  0
    8.1415   -0.7854    1.1133 C   0  0  0  0  0  0  0  0  0  0  0  0
    8.2932   -0.4773   -0.2139 N   0  0  0  0  0  0  0  0  0  0  0  0
    7.2608   -1.0214   -0.8175 C   0  0  0  0  0  0  0  0  0  0  0  0
   -1.1353    0.3721   -0.4969 C   0  0  0  0  0  0  0  0  0  0  0  0
   -3.9709    0.1328   -1.4044 H   0  0  0  0  0  0  0  0  0  0  0  0
   -3.8680   -0.6541    0.1724 H   0  0  0  0  0  0  0  0  0  0  0  0
   -6.0116    1.3625   -2.0888 H   0  0  0  0  0  0  0  0  0  0  0  0
   -8.4531    1.5640   -1.8205 H   0  0  0  0  0  0  0  0  0  0  0  0
   -8.2023   -0.3392    2.0312 H   0  0  0  0  0  0  0  0  0  0  0  0
   -5.7597   -0.5483    1.7785 H   0  0  0  0  0  0  0  0  0  0  0  0
   -1.2995    3.3432    0.9419 H   0  0  0  0  0  0  0  0  0  0  0  0
    1.0037    2.5890    0.3247 H   0  0  0  0  0  0  0  0  0  0  0  0
    2.5442    1.0250    0.5202 H   0  0  0  0  0  0  0  0  0  0  0  0
    4.6042    0.4600   -0.3841 H   0  0  0  0  0  0  0  0  0  0  0  0
    3.8193   -0.4391   -1.6969 H   0  0  0  0  0  0  0  0  0  0  0  0
    3.9763   -1.3180    1.2410 H   0  0  0  0  0  0  0  0  0  0  0  0
    3.0772   -2.1808    0.0046 H   0  0  0  0  0  0  0  0  0  0  0  0
    5.2254   -3.2881    0.2836 H   0  0  0  0  0  0  0  0  0  0  0  0
    5.1918   -2.5395   -1.3164 H   0  0  0  0  0  0  0  0  0  0  0  0
    6.5484   -1.9337    2.2077 H   0  0  0  0  0  0  0  0  0  0  0  0
    8.8673   -0.4674    1.8507 H   0  0  0  0  0  0  0  0  0  0  0  0
    7.0656   -0.9871   -1.8818 H   0  0  0  0  0  0  0  0  0  0  0  0
   -1.4579   -0.5663   -0.9338 H   0  0  0  0  0  0  0  0  0  0  0  0
  1  2  2  0
  2  3  1  0
  3  4  1  0
  4  5  2  0
  5  6  1  0
  6  7  2  0
  7  8  1  0
  7  9  1  0
  9 10  2  0
  2 11  1  0
 11 12  2  0
 12 13  1  0
 13 14  1  0
 14 15  1  0
 15 16  2  0
 15 17  1  0
 17 18  1  0
 18 19  1  0
 19 20  1  0
 20 21  1  0
 21 22  1  0
 22 23  2  0
 23 24  1  0
 24 25  2  0
 14 26  2  0
 10  4  1  0
 26 11  1  0
 25 21  1  0
  3 27  1  0
  3 28  1  0
  5 29  1  0
  6 30  1  0
  9 31  1  0
 10 32  1  0
 12 33  1  0
 13 34  1  0
 17 35  1  0
 18 36  1  0
 18 37  1  0
 19 38  1  0
 19 39  1  0
 20 40  1  0
 20 41  1  0
 22 42  1  0
 23 43  1  0
 25 44  1  0
 26 45  1  0
M  END
$$$$
