
     RDKit          3D

 50 53  0  0  0  0  0  0  0  0999 V2000
    7.5111   -0.2957    2.6988 C   0  0  0  0  0  0  0  0  0  0  0  0
    6.7698    1.0248    2.5892 C   0  0  0  0  0  0  0  0  0  0  0  0
    6.6225    1.4014    1.2202 O   0  0  0  0  0  0  0  0  0  0  0  0
    5.4724    1.0876    0.5558 C   0  0  0  0  0  0  0  0  0  0  0  0
    4.5236    0.1591    0.9914 C   0  0  0  0  0  0  0  0  0  0  0  0
    3.3840   -0.1162    0.2188 C   0  0  0  0  0  0  0  0  0  0  0  0
    3.1769    0.5358   -1.0053 C   0  0  0  0  0  0  0  0  0  0  0  0
    1.9843    0.2556   -1.8531 C   0  0  0  0  0  0  0  0  0  0  0  0
    2.1239    0.2992   -3.0686 O   0  0  0  0  0  0  0  0  0  0  0  0
    0.8162    0.0129   -1.1556 N   0  0  0  0  0  0  0  0  0  0  0  0
   -0.4370   -0.3546   -1.6911 C   0  0  0  0  0  0  0  0  0  0  0  0
   -0.6537   -0.6446   -3.0374 C   0  0  0  0  0  0  0  0  0  0  0  0
   -1.9197   -1.0335   -3.4808 C   0  0  0  0  0  0  0  0  0  0  0  0
   -2.9808   -1.1334   -2.5811 C   0  0  0  0  0  0  0  0  0  0  0  0
   -2.7914   -0.8369   -1.2244 C   0  0  0  0  0  0  0  0  0  0  0  0
   -3.9116   -0.9339   -0.2601 C   0  0  0  0  0  0  0  0  0  0  0  0
   -5.0586   -0.2872   -0.5311 C   0  0  0  0  0  0  0  0  0  0  0  0
   -6.1864   -0.3492    0.3834 C   0  0  0  0  0  0  0  0  0  0  0  0
   -7.3919    0.3068    0.1235 C   0  0  0  0  0  0  0  0  0  0  0  0
   -8.4501    0.2128    1.0333 C   0  0  0  0  0  0  0  0  0  0  0  0
   -8.3083   -0.5356    2.2039 C   0  0  0  0  0  0  0  0  0  0  0  0
   -7.1078   -1.1916    2.4689 C   0  0  0  0  0  0  0  0  0  0  0  0
   -6.0631   -1.0883    1.5535 C   0  0  0  0  0  0  0  0  0  0  0  0
   -4.8665   -1.7587    1.8564 O   0  0  0  0  0  0  0  0  0  0  0  0
   -3.7626   -1.7085    1.0105 C   0  0  0  0  0  0  0  0  0  0  0  0
   -2.7166   -2.2744    1.3149 O   0  0  0  0  0  0  0  0  0  0  0  0
   -1.5110   -0.4517   -0.7940 C   0  0  0  0  0  0  0  0  0  0  0  0
    4.1278    1.4446   -1.4719 C   0  0  0  0  0  0  0  0  0  0  0  0
    5.2520    1.7082   -0.6814 C   0  0  0  0  0  0  0  0  0  0  0  0
    6.2061    2.6772   -1.1756 N   0  0  0  0  0  4  0  0  0  0  0  0
    6.2234    3.7850   -0.6215 O   0  0  0  0  0  0  0  0  0  0  0  0
    6.8949    2.3402   -2.1478 O   0  0  0  0  0  1  0  0  0  0  0  0
    7.6818   -0.5578    3.7468 H   0  0  0  0  0  0  0  0  0  0  0  0
    6.9544   -1.1077    2.2217 H   0  0  0  0  0  0  0  0  0  0  0  0
    8.4788   -0.2345    2.1897 H   0  0  0  0  0  0  0  0  0  0  0  0
    7.3777    1.8046    3.0620 H   0  0  0  0  0  0  0  0  0  0  0  0
    5.8174    1.0150    3.1306 H   0  0  0  0  0  0  0  0  0  0  0  0
    4.6483   -0.3937    1.9180 H   0  0  0  0  0  0  0  0  0  0  0  0
    2.6874   -0.8744    0.5718 H   0  0  0  0  0  0  0  0  0  0  0  0
    0.8327    0.1579   -0.1545 H   0  0  0  0  0  0  0  0  0  0  0  0
    0.1470   -0.5932   -3.7689 H   0  0  0  0  0  0  0  0  0  0  0  0
   -2.0722   -1.2676   -4.5318 H   0  0  0  0  0  0  0  0  0  0  0  0
   -3.9517   -1.4557   -2.9513 H   0  0  0  0  0  0  0  0  0  0  0  0
   -5.1810    0.3046   -1.4336 H   0  0  0  0  0  0  0  0  0  0  0  0
   -7.5228    0.8938   -0.7824 H   0  0  0  0  0  0  0  0  0  0  0  0
   -9.3880    0.7243    0.8283 H   0  0  0  0  0  0  0  0  0  0  0  0
   -9.1337   -0.6063    2.9081 H   0  0  0  0  0  0  0  0  0  0  0  0
   -6.9879   -1.7755    3.3767 H   0  0  0  0  0  0  0  0  0  0  0  0
   -1.3529   -0.2303    0.2596 H   0  0  0  0  0  0  0  0  0  0  0  0
    3.9928    1.9393   -2.4323 H   0  0  0  0  0  0  0  0  0  0  0  0
  1  2  1  0
  2  3  1  0
  3  4  1  0
  4  5  2  0
  5  6  1  0
  6  7  2  0
  7  8  1  0
  8  9  2  0
  8 10  1  0
 10 11  1  0
 11 12  2  0
 12 13  1  0
 13 14  2  0
 14 15  1  0
 15 16  1  0
 16 17  2  0
 17 18  1  0
 18 19  2  0
 19 20  1  0
 20 21  2  0
 21 22  1  0
 22 23  2  0
 23 24  1  0
 24 25  1  0
 25 26  2  0
 15 27  2  0
  7 28  1  0
 28 29  2  0
 29 30  1  0
 30 31  2  0
 30 32  1  0
 29  4  1  0
 27 11  1  0
 25 16  1  0
 23 18  1  0
  1 33  1  0
  1 34  1  0
  1 35  1  0
  2 36  1  0
  2 37  1  0
  5 38  1  0
  6 39  1  0
 10 40  1  0
 12 41  1  0
 13 42  1  0
 14 43  1  0
 17 44  1  0
 19 45  1  0
 20 46  1  0
 21 47  1  0
 22 48  1  0
 27 49  1  0
 28 50  1  0
M  CHG  2  30   1  32  -1
M  END
$$$$
