
     RDKit          3D

 48 52  0  0  0  0  0  0  0  0999 V2000
   -4.0277   -2.3215   -0.8660 C   0  0  0  0  0  0  0  0  0  0  0  0
   -3.0770   -1.3537   -0.3666 N   0  0  0  0  0  0  0  0  0  0  0  0
   -2.1980   -0.6538   -1.1465 C   0  0  0  0  0  0  0  0  0  0  0  0
   -1.4395    0.1815   -0.3384 C   0  0  0  0  0  0  0  0  0  0  0  0
   -0.3639    1.1758   -0.7210 C   0  0  0  0  0  0  0  0  0  0  0  0
   -0.0977    1.1199   -2.2233 C   0  0  0  0  0  0  0  0  0  0  0  0
    0.5705    0.0536   -2.8373 C   0  0  0  0  0  0  0  0  0  0  0  0
    0.7780    0.0725   -4.2148 C   0  0  0  0  0  0  0  0  0  0  0  0
    0.3170    1.1493   -4.9581 C   0  0  0  0  0  0  0  0  0  0  0  0
   -0.3361    2.1683   -4.2898 C   0  0  0  0  0  0  0  0  0  0  0  0
   -0.5519    2.1784   -2.9563 N   0  0  0  0  0  0  0  0  0  0  0  0
    0.9793    1.0459   -0.0320 C   0  0  0  0  0  0  0  0  0  0  0  0
    1.8309    2.1137    0.2149 C   0  0  0  0  0  0  0  0  0  0  0  0
    2.9516    1.6526    0.8430 N   0  0  0  0  0  0  0  0  0  0  0  0
    4.0666    2.4795    1.2468 C   0  0  0  0  0  0  0  0  0  0  0  0
    2.8664    0.2925    1.0350 C   0  0  0  0  0  0  0  0  0  0  0  0
    3.7668   -0.6049    1.6339 C   0  0  0  0  0  0  0  0  0  0  0  0
    3.4125   -1.9540    1.6971 C   0  0  0  0  0  0  0  0  0  0  0  0
    2.2009   -2.3948    1.1802 C   0  0  0  0  0  0  0  0  0  0  0  0
    1.3131   -1.4931    0.5833 C   0  0  0  0  0  0  0  0  0  0  0  0
    1.6390   -0.1199    0.5023 C   0  0  0  0  0  0  0  0  0  0  0  0
   -1.9350   -0.0212    1.0022 C   0  0  0  0  0  0  0  0  0  0  0  0
   -1.6055    0.5375    2.2572 C   0  0  0  0  0  0  0  0  0  0  0  0
   -2.2770    0.1133    3.4085 C   0  0  0  0  0  0  0  0  0  0  0  0
   -3.2726   -0.8539    3.3292 C   0  0  0  0  0  0  0  0  0  0  0  0
   -3.6241   -1.4215    2.1019 C   0  0  0  0  0  0  0  0  0  0  0  0
   -2.9422   -0.9889    0.9527 C   0  0  0  0  0  0  0  0  0  0  0  0
   -5.0353   -1.9728   -0.6258 H   0  0  0  0  0  0  0  0  0  0  0  0
   -3.8258   -3.2833   -0.3876 H   0  0  0  0  0  0  0  0  0  0  0  0
   -3.9188   -2.4187   -1.9492 H   0  0  0  0  0  0  0  0  0  0  0  0
   -2.1875   -0.7921   -2.2204 H   0  0  0  0  0  0  0  0  0  0  0  0
   -0.7649    2.1734   -0.4872 H   0  0  0  0  0  0  0  0  0  0  0  0
    0.9277   -0.7891   -2.2549 H   0  0  0  0  0  0  0  0  0  0  0  0
    1.2984   -0.7487   -4.6987 H   0  0  0  0  0  0  0  0  0  0  0  0
    0.4639    1.1947   -6.0307 H   0  0  0  0  0  0  0  0  0  0  0  0
   -0.7163    3.0339   -4.8243 H   0  0  0  0  0  0  0  0  0  0  0  0
    1.7140    3.1631   -0.0264 H   0  0  0  0  0  0  0  0  0  0  0  0
    3.8766    3.5174    0.9615 H   0  0  0  0  0  0  0  0  0  0  0  0
    4.9666    2.1176    0.7431 H   0  0  0  0  0  0  0  0  0  0  0  0
    4.1744    2.4087    2.3321 H   0  0  0  0  0  0  0  0  0  0  0  0
    4.7137   -0.2676    2.0426 H   0  0  0  0  0  0  0  0  0  0  0  0
    4.0917   -2.6657    2.1598 H   0  0  0  0  0  0  0  0  0  0  0  0
    1.9343   -3.4466    1.2420 H   0  0  0  0  0  0  0  0  0  0  0  0
    0.3701   -1.8630    0.1922 H   0  0  0  0  0  0  0  0  0  0  0  0
   -0.8244    1.2884    2.3367 H   0  0  0  0  0  0  0  0  0  0  0  0
   -2.0130    0.5435    4.3711 H   0  0  0  0  0  0  0  0  0  0  0  0
   -3.7851   -1.1731    4.2334 H   0  0  0  0  0  0  0  0  0  0  0  0
   -4.4047   -2.1731    2.0483 H   0  0  0  0  0  0  0  0  0  0  0  0
  1  2  1  0
  2  3  1  0
  3  4  2  0
  4  5  1  0
  5  6  1  0
  6  7  2  0
  7  8  1  0
  8  9  2  0
  9 10  1  0
 10 11  2  0
  5 12  1  0
 12 13  2  0
 13 14  1  0
 14 15  1  0
 14 16  1  0
 16 17  2  0
 17 18  1  0
 18 19  2  0
 19 20  1  0
 20 21  2  0
  4 22  1  0
 22 23  2  0
 23 24  1  0
 24 25  2  0
 25 26  1  0
 26 27  2  0
 27  2  1  0
 11  6  1  0
 21 12  1  0
 27 22  1  0
 21 16  1  0
  1 28  1  0
  1 29  1  0
  1 30  1  0
  3 31  1  0
  5 32  1  0
  7 33  1  0
  8 34  1  0
  9 35  1  0
 10 36  1  0
 13 37  1  0
 15 38  1  0
 15 39  1  0
 15 40  1  0
 17 41  1  0
 18 42  1  0
 19 43  1  0
 20 44  1  0
 23 45  1  0
 24 46  1  0
 25 47  1  0
 26 48  1  0
M  END
$$$$
