
     RDKit          3D

 37 39  0  0  0  0  0  0  0  0999 V2000
    6.4777   -0.8846    1.9202 C   0  0  0  0  0  0  0  0  0  0  0  0
    5.0421   -0.8133    1.4245 C   0  0  0  0  0  0  0  0  0  0  0  0
    4.9695   -0.2716   -0.0032 C   0  0  0  0  0  0  0  0  0  0  0  0
    3.5606   -0.2256   -0.4963 C   0  0  0  0  0  0  0  0  0  0  0  0
    2.9295   -1.2352   -1.0591 N   0  0  0  0  0  0  0  0  0  0  0  0
    1.6368   -0.9019   -1.4112 N   0  0  0  0  0  0  0  0  0  0  0  0
    1.3416    0.3412   -1.1018 C   0  0  0  0  0  0  0  0  0  0  0  0
    0.1124    0.8862   -1.3639 N   0  0  0  0  0  0  0  0  0  0  0  0
   -0.3253    2.1520   -1.0482 C   0  0  0  0  0  0  0  0  0  0  0  0
    0.3105    3.0402   -0.4892 O   0  0  0  0  0  0  0  0  0  0  0  0
   -1.7627    2.4048   -1.5176 C   0  0  0  0  0  0  0  0  0  0  0  0
   -2.5573    1.2320   -1.6414 O   0  0  0  0  0  0  0  0  0  0  0  0
   -3.1168    0.7090   -0.5058 C   0  0  0  0  0  0  0  0  0  0  0  0
   -2.8858    1.1541    0.8098 C   0  0  0  0  0  0  0  0  0  0  0  0
   -3.5072    0.5229    1.8957 C   0  0  0  0  0  0  0  0  0  0  0  0
   -4.3423   -0.5400    1.6333 C   0  0  0  0  0  0  0  0  0  0  0  0
   -4.5674   -0.9785    0.3518 C   0  0  0  0  0  0  0  0  0  0  0  0
   -3.9699   -0.3773   -0.7352 C   0  0  0  0  0  0  0  0  0  0  0  0
   -5.4192   -2.0375    0.3078 O   0  0  0  0  0  0  0  0  0  0  0  0
   -5.7015   -2.2172    1.7115 C   0  0  0  0  0  0  0  0  0  0  0  0
   -5.0229   -1.2661    2.5587 O   0  0  0  0  0  0  0  0  0  0  0  0
    2.6138    1.2011   -0.3656 S   0  0  0  0  0  0  0  0  0  0  0  0
    7.0790   -1.5450    1.2872 H   0  0  0  0  0  0  0  0  0  0  0  0
    6.9417    0.1068    1.9218 H   0  0  0  0  0  0  0  0  0  0  0  0
    6.5068   -1.2749    2.9423 H   0  0  0  0  0  0  0  0  0  0  0  0
    4.5955   -1.8142    1.4707 H   0  0  0  0  0  0  0  0  0  0  0  0
    4.4601   -0.1757    2.1011 H   0  0  0  0  0  0  0  0  0  0  0  0
    5.5536   -0.9161   -0.6719 H   0  0  0  0  0  0  0  0  0  0  0  0
    5.4273    0.7240   -0.0519 H   0  0  0  0  0  0  0  0  0  0  0  0
   -0.5472    0.2413   -1.7846 H   0  0  0  0  0  0  0  0  0  0  0  0
   -2.2467    3.1547   -0.8813 H   0  0  0  0  0  0  0  0  0  0  0  0
   -1.6880    2.8453   -2.5187 H   0  0  0  0  0  0  0  0  0  0  0  0
   -2.2245    1.9866    1.0314 H   0  0  0  0  0  0  0  0  0  0  0  0
   -3.3351    0.8576    2.9129 H   0  0  0  0  0  0  0  0  0  0  0  0
   -4.1610   -0.7394   -1.7393 H   0  0  0  0  0  0  0  0  0  0  0  0
   -5.3958   -3.2283    2.0042 H   0  0  0  0  0  0  0  0  0  0  0  0
   -6.7818   -2.1172    1.8674 H   0  0  0  0  0  0  0  0  0  0  0  0
  1  2  1  0
  2  3  1  0
  3  4  1  0
  4  5  2  0
  5  6  1  0
  6  7  2  0
  7  8  1  0
  8  9  1  0
  9 10  2  0
  9 11  1  0
 11 12  1  0
 12 13  1  0
 13 14  2  0
 14 15  1  0
 15 16  2  0
 16 17  1  0
 17 18  2  0
 17 19  1  0
 19 20  1  0
 20 21  1  0
  7 22  1  0
 22  4  1  0
 18 13  1  0
 21 16  1  0
  1 23  1  0
  1 24  1  0
  1 25  1  0
  2 26  1  0
  2 27  1  0
  3 28  1  0
  3 29  1  0
  8 30  1  0
 11 31  1  0
 11 32  1  0
 14 33  1  0
 15 34  1  0
 18 35  1  0
 20 36  1  0
 20 37  1  0
M  END
$$$$
