
     RDKit          3D

 59 62  0  0  0  0  0  0  0  0999 V2000
   -7.4504   -1.0466   -0.5744 C   0  0  0  0  0  0  0  0  0  0  0  0
   -6.5639    0.1867   -0.5277 C   0  0  0  0  0  0  0  0  0  0  0  0
   -5.1951   -0.0941   -0.9425 N   0  0  0  0  0  0  0  0  0  0  0  0
   -4.7220    0.0338   -2.2350 C   0  0  0  0  0  0  0  0  0  0  0  0
   -5.3709    0.3965   -3.4276 C   0  0  0  0  0  0  0  0  0  0  0  0
   -4.6138    0.4501   -4.6013 C   0  0  0  0  0  0  0  0  0  0  0  0
   -3.2547    0.1519   -4.5919 C   0  0  0  0  0  0  0  0  0  0  0  0
   -2.6179   -0.2110   -3.4016 C   0  0  0  0  0  0  0  0  0  0  0  0
   -3.3601   -0.2745   -2.2013 C   0  0  0  0  0  0  0  0  0  0  0  0
   -3.0233   -0.6022   -0.8507 C   0  0  0  0  0  0  0  0  0  0  0  0
   -1.8214   -0.9819   -0.2103 C   0  0  0  0  0  0  0  0  0  0  0  0
   -1.8046   -1.2488    1.1683 C   0  0  0  0  0  0  0  0  0  0  0  0
   -0.5628   -1.6023    1.7330 N   0  0  0  0  0  0  0  0  0  0  0  0
   -0.2717   -1.8724    3.0613 C   0  0  0  0  0  0  0  0  0  0  0  0
   -1.0683   -1.8911    3.9947 O   0  0  0  0  0  0  0  0  0  0  0  0
    1.2074   -2.2255    3.2825 C   0  0  0  0  0  0  0  0  0  0  0  0
    1.4448   -3.6864    2.9258 C   0  0  0  0  0  0  0  0  0  0  0  0
    2.0099   -1.3844    2.4305 O   0  0  0  0  0  0  0  0  0  0  0  0
    3.2685   -1.1445    2.8744 C   0  0  0  0  0  0  0  0  0  0  0  0
    3.7753   -1.6202    3.8781 O   0  0  0  0  0  0  0  0  0  0  0  0
    3.9780   -0.2036    1.9641 C   0  0  0  0  0  0  0  0  0  0  0  0
    3.3874    0.3285    0.8122 C   0  0  0  0  0  0  0  0  0  0  0  0
    4.0997    1.2175   -0.0038 C   0  0  0  0  0  0  0  0  0  0  0  0
    5.4067    1.5910    0.3186 C   0  0  0  0  0  0  0  0  0  0  0  0
    6.1898    2.4801   -0.4487 N   0  0  0  0  0  0  0  0  0  0  0  0
    5.8211    3.1391   -1.6148 C   0  0  0  0  0  0  0  0  0  0  0  0
    4.7388    3.0468   -2.1871 O   0  0  0  0  0  0  0  0  0  0  0  0
    6.9162    4.0137   -2.1857 C   0  0  0  0  0  0  0  0  0  0  0  0
    7.0657    5.2292   -1.3886 C   0  0  0  0  0  0  0  0  0  0  0  0
    7.2337    6.1704   -0.7300 N   0  0  0  0  0  0  0  0  0  0  0  0
    5.9933    1.0588    1.4741 C   0  0  0  0  0  0  0  0  0  0  0  0
    5.2875    0.1680    2.2896 C   0  0  0  0  0  0  0  0  0  0  0  0
   -2.9866   -1.1491    1.8958 C   0  0  0  0  0  0  0  0  0  0  0  0
   -4.1912   -0.7722    1.2854 C   0  0  0  0  0  0  0  0  0  0  0  0
   -4.1857   -0.4964   -0.0886 C   0  0  0  0  0  0  0  0  0  0  0  0
   -8.4642   -0.7944   -0.2428 H   0  0  0  0  0  0  0  0  0  0  0  0
   -7.0658   -1.8365    0.0776 H   0  0  0  0  0  0  0  0  0  0  0  0
   -7.5138   -1.4543   -1.5896 H   0  0  0  0  0  0  0  0  0  0  0  0
   -6.9620    0.9746   -1.1746 H   0  0  0  0  0  0  0  0  0  0  0  0
   -6.5340    0.6024    0.4861 H   0  0  0  0  0  0  0  0  0  0  0  0
   -6.4303    0.6329   -3.4514 H   0  0  0  0  0  0  0  0  0  0  0  0
   -5.0943    0.7326   -5.5352 H   0  0  0  0  0  0  0  0  0  0  0  0
   -2.6806    0.2027   -5.5143 H   0  0  0  0  0  0  0  0  0  0  0  0
   -1.5555   -0.4413   -3.4035 H   0  0  0  0  0  0  0  0  0  0  0  0
   -0.9165   -1.0584   -0.8061 H   0  0  0  0  0  0  0  0  0  0  0  0
    0.2354   -1.6001    1.1080 H   0  0  0  0  0  0  0  0  0  0  0  0
    1.4296   -2.0320    4.3381 H   0  0  0  0  0  0  0  0  0  0  0  0
    1.2514   -3.8721    1.8613 H   0  0  0  0  0  0  0  0  0  0  0  0
    2.4878   -3.9663    3.1119 H   0  0  0  0  0  0  0  0  0  0  0  0
    0.7957   -4.3482    3.5127 H   0  0  0  0  0  0  0  0  0  0  0  0
    2.3684    0.0735    0.5322 H   0  0  0  0  0  0  0  0  0  0  0  0
    3.5940    1.6039   -0.8840 H   0  0  0  0  0  0  0  0  0  0  0  0
    7.1132    2.6726   -0.0760 H   0  0  0  0  0  0  0  0  0  0  0  0
    7.8506    3.4457   -2.2063 H   0  0  0  0  0  0  0  0  0  0  0  0
    6.6689    4.2585   -3.2227 H   0  0  0  0  0  0  0  0  0  0  0  0
    7.0063    1.3279    1.7637 H   0  0  0  0  0  0  0  0  0  0  0  0
    5.7642   -0.2291    3.1853 H   0  0  0  0  0  0  0  0  0  0  0  0
   -3.0125   -1.3516    2.9616 H   0  0  0  0  0  0  0  0  0  0  0  0
   -5.0954   -0.6979    1.8783 H   0  0  0  0  0  0  0  0  0  0  0  0
  1  2  1  0
  2  3  1  0
  3  4  1  0
  4  5  2  0
  5  6  1  0
  6  7  2  0
  7  8  1  0
  8  9  2  0
  9 10  1  0
 10 11  2  0
 11 12  1  0
 12 13  1  0
 13 14  1  0
 14 15  2  0
 14 16  1  0
 16 17  1  0
 16 18  1  0
 18 19  1  0
 19 20  2  0
 19 21  1  0
 21 22  2  0
 22 23  1  0
 23 24  2  0
 24 25  1  0
 25 26  1  0
 26 27  2  0
 26 28  1  0
 28 29  1  0
 29 30  3  0
 24 31  1  0
 31 32  2  0
 12 33  2  0
 33 34  1  0
 34 35  2  0
 35  3  1  0
  9  4  1  0
 35 10  1  0
 32 21  1  0
  1 36  1  0
  1 37  1  0
  1 38  1  0
  2 39  1  0
  2 40  1  0
  5 41  1  0
  6 42  1  0
  7 43  1  0
  8 44  1  0
 11 45  1  0
 13 46  1  0
 16 47  1  0
 17 48  1  0
 17 49  1  0
 17 50  1  0
 22 51  1  0
 23 52  1  0
 25 53  1  0
 28 54  1  0
 28 55  1  0
 31 56  1  0
 32 57  1  0
 33 58  1  0
 34 59  1  0
M  END
$$$$
