
     RDKit          3D

 59 62  0  0  0  0  0  0  0  0999 V2000
   -8.8373    3.2767    1.1459 C   0  0  0  0  0  0  0  0  0  0  0  0
   -7.8257    2.1882    0.9457 C   0  0  0  0  0  0  0  0  0  0  0  0
   -7.7000    1.1574    1.8862 C   0  0  0  0  0  0  0  0  0  0  0  0
   -6.7824    0.1246    1.6856 C   0  0  0  0  0  0  0  0  0  0  0  0
   -5.9806    0.1227    0.5427 C   0  0  0  0  0  0  0  0  0  0  0  0
   -5.0202   -0.9849    0.3514 C   0  0  0  0  0  0  0  0  0  0  0  0
   -5.4546   -2.1344    0.3839 O   0  0  0  0  0  0  0  0  0  0  0  0
   -3.6760   -0.6830    0.1593 N   0  0  0  0  0  0  0  0  0  0  0  0
   -3.0797    0.6427    0.3764 C   0  0  0  0  0  0  0  0  0  0  0  0
   -1.5779    0.5955    0.7256 C   0  0  0  0  0  0  0  0  0  0  0  0
   -0.8192   -0.1786   -0.2680 N   0  0  0  0  0  0  0  0  0  0  0  0
    0.5347    0.0368   -0.4862 C   0  0  0  0  0  0  0  0  0  0  0  0
    1.1946   -0.4861   -1.6061 C   0  0  0  0  0  0  0  0  0  0  0  0
    2.5602   -0.2614   -1.8449 C   0  0  0  0  0  0  0  0  0  0  0  0
    3.3206    0.5085   -0.9694 C   0  0  0  0  0  0  0  0  0  0  0  0
    4.6806    0.7007   -1.2898 N   0  0  0  0  0  0  0  0  0  0  0  0
    5.6180    1.4396   -0.5828 C   0  0  0  0  0  0  0  0  0  0  0  0
    5.4157    2.0485    0.4662 O   0  0  0  0  0  0  0  0  0  0  0  0
    6.9903    1.4398   -1.2455 C   0  0  0  0  0  0  0  0  0  0  0  0
    8.2500    0.6789   -0.1731 S   0  0  0  0  0  0  0  0  0  0  0  0
    7.6143   -0.9829   -0.0979 C   0  0  0  0  0  0  0  0  0  0  0  0
    8.0296   -1.9356   -1.0315 C   0  0  0  0  0  0  0  0  0  0  0  0
    7.5406   -3.2459   -0.9642 C   0  0  0  0  0  0  0  0  0  0  0  0
    6.6391   -3.5994    0.0401 C   0  0  0  0  0  0  0  0  0  0  0  0
    6.0411   -5.2148    0.1230 Cl  0  0  0  0  0  0  0  0  0  0  0  0
    6.2227   -2.6570    0.9772 C   0  0  0  0  0  0  0  0  0  0  0  0
    6.7153   -1.3499    0.9109 C   0  0  0  0  0  0  0  0  0  0  0  0
    2.6912    1.0379    0.1490 C   0  0  0  0  0  0  0  0  0  0  0  0
    1.3236    0.8011    0.3815 C   0  0  0  0  0  0  0  0  0  0  0  0
   -1.4957   -1.3530   -0.8582 C   0  0  0  0  0  0  0  0  0  0  0  0
   -2.7341   -1.7808   -0.0520 C   0  0  0  0  0  0  0  0  0  0  0  0
   -6.1243    1.1231   -0.4201 C   0  0  0  0  0  0  0  0  0  0  0  0
   -7.0456    2.1538   -0.2171 C   0  0  0  0  0  0  0  0  0  0  0  0
   -9.7861    2.9990    0.6714 H   0  0  0  0  0  0  0  0  0  0  0  0
   -8.4850    4.2176    0.7116 H   0  0  0  0  0  0  0  0  0  0  0  0
   -9.0139    3.4563    2.2133 H   0  0  0  0  0  0  0  0  0  0  0  0
   -8.3188    1.1487    2.7796 H   0  0  0  0  0  0  0  0  0  0  0  0
   -6.6966   -0.6786    2.4129 H   0  0  0  0  0  0  0  0  0  0  0  0
   -3.2157    1.2063   -0.5570 H   0  0  0  0  0  0  0  0  0  0  0  0
   -3.6193    1.1649    1.1744 H   0  0  0  0  0  0  0  0  0  0  0  0
   -1.2285    1.6321    0.7723 H   0  0  0  0  0  0  0  0  0  0  0  0
   -1.4398    0.1440    1.7137 H   0  0  0  0  0  0  0  0  0  0  0  0
    0.6492   -1.0691   -2.3411 H   0  0  0  0  0  0  0  0  0  0  0  0
    3.0031   -0.6943   -2.7360 H   0  0  0  0  0  0  0  0  0  0  0  0
    5.0009    0.2226   -2.1216 H   0  0  0  0  0  0  0  0  0  0  0  0
    6.9748    0.9219   -2.2109 H   0  0  0  0  0  0  0  0  0  0  0  0
    7.2688    2.4814   -1.4400 H   0  0  0  0  0  0  0  0  0  0  0  0
    8.7470   -1.6751   -1.8062 H   0  0  0  0  0  0  0  0  0  0  0  0
    7.8748   -3.9830   -1.6883 H   0  0  0  0  0  0  0  0  0  0  0  0
    5.5217   -2.9304    1.7627 H   0  0  0  0  0  0  0  0  0  0  0  0
    6.3893   -0.6228    1.6530 H   0  0  0  0  0  0  0  0  0  0  0  0
    3.2255    1.6426    0.8718 H   0  0  0  0  0  0  0  0  0  0  0  0
    0.8995    1.2255    1.2853 H   0  0  0  0  0  0  0  0  0  0  0  0
   -1.8023   -1.1036   -1.8818 H   0  0  0  0  0  0  0  0  0  0  0  0
   -0.8176   -2.2139   -0.9015 H   0  0  0  0  0  0  0  0  0  0  0  0
   -2.4302   -2.1292    0.9434 H   0  0  0  0  0  0  0  0  0  0  0  0
   -3.2356   -2.6153   -0.5525 H   0  0  0  0  0  0  0  0  0  0  0  0
   -5.5372    1.0958   -1.3337 H   0  0  0  0  0  0  0  0  0  0  0  0
   -7.1568    2.9274   -0.9742 H   0  0  0  0  0  0  0  0  0  0  0  0
  1  2  1  0
  2  3  2  0
  3  4  1  0
  4  5  2  0
  5  6  1  0
  6  7  2  0
  6  8  1  0
  8  9  1  0
  9 10  1  0
 10 11  1  0
 11 12  1  0
 12 13  2  0
 13 14  1  0
 14 15  2  0
 15 16  1  0
 16 17  1  0
 17 18  2  0
 17 19  1  0
 19 20  1  0
 20 21  1  0
 21 22  2  0
 22 23  1  0
 23 24  2  0
 24 25  1  0
 24 26  1  0
 26 27  2  0
 15 28  1  0
 28 29  2  0
 11 30  1  0
 30 31  1  0
  5 32  1  0
 32 33  2  0
 33  2  1  0
 31  8  1  0
 29 12  1  0
 27 21  1  0
  1 34  1  0
  1 35  1  0
  1 36  1  0
  3 37  1  0
  4 38  1  0
  9 39  1  0
  9 40  1  0
 10 41  1  0
 10 42  1  0
 13 43  1  0
 14 44  1  0
 16 45  1  0
 19 46  1  0
 19 47  1  0
 22 48  1  0
 23 49  1  0
 26 50  1  0
 27 51  1  0
 28 52  1  0
 29 53  1  0
 30 54  1  0
 30 55  1  0
 31 56  1  0
 31 57  1  0
 32 58  1  0
 33 59  1  0
M  END
$$$$
