
     RDKit          3D

 57 60  0  0  0  0  0  0  0  0999 V2000
    6.7141    2.9150   -2.1548 C   0  0  0  0  0  0  0  0  0  0  0  0
    7.0606    2.2910   -0.8175 C   0  0  0  0  0  0  0  0  0  0  0  0
    6.7321    0.9023   -0.8193 O   0  0  0  0  0  0  0  0  0  0  0  0
    5.6197    0.5353   -0.1143 C   0  0  0  0  0  0  0  0  0  0  0  0
    5.6533   -0.7411    0.4459 C   0  0  0  0  0  0  0  0  0  0  0  0
    4.5664   -1.2297    1.1800 C   0  0  0  0  0  0  0  0  0  0  0  0
    3.4265   -0.4455    1.3501 C   0  0  0  0  0  0  0  0  0  0  0  0
    2.2993   -0.8423    2.0945 N   0  0  0  0  0  0  0  0  0  0  0  0
    2.0350   -2.0806    2.6499 C   0  0  0  0  0  0  0  0  0  0  0  0
    2.7312   -3.0875    2.5470 O   0  0  0  0  0  0  0  0  0  0  0  0
    0.7521   -2.1084    3.4689 C   0  0  0  0  0  0  0  0  0  0  0  0
   -0.6955   -2.4543    2.4291 S   0  0  0  0  0  0  0  0  0  0  0  0
   -1.0256   -0.8923    1.7473 C   0  0  0  0  0  0  0  0  0  0  0  0
   -0.2812    0.1696    1.9636 N   0  0  0  0  0  0  0  0  0  0  0  0
   -0.8731    1.2321    1.3547 N   0  0  0  0  0  0  0  0  0  0  0  0
   -1.9861    0.8127    0.7758 C   0  0  0  0  0  0  0  0  0  0  0  0
   -2.8314    1.6608   -0.1238 C   0  0  0  0  0  0  0  0  0  0  0  0
   -2.9201    1.1470   -1.5334 C   0  0  0  0  0  0  0  0  0  0  0  0
   -1.9438    0.5547   -2.3217 C   0  0  0  0  0  0  0  0  0  0  0  0
   -2.5228    0.2328   -3.5689 C   0  0  0  0  0  0  0  0  0  0  0  0
   -3.8314    0.6540   -3.5302 C   0  0  0  0  0  0  0  0  0  0  0  0
   -4.0584    1.2335   -2.3083 N   0  0  0  0  0  0  0  0  0  0  0  0
   -5.3136    1.8450   -1.9242 C   0  0  0  0  0  0  0  0  0  0  0  0
   -2.1603   -0.5458    1.0310 N   0  0  0  0  0  0  0  0  0  0  0  0
   -3.2631   -1.3637    0.6625 C   0  0  0  0  0  0  0  0  0  0  0  0
   -4.5723   -0.8940    0.8467 C   0  0  0  0  0  0  0  0  0  0  0  0
   -5.6588   -1.6916    0.4759 C   0  0  0  0  0  0  0  0  0  0  0  0
   -5.4354   -2.9473   -0.0770 C   0  0  0  0  0  0  0  0  0  0  0  0
   -6.4781   -3.7032   -0.4409 F   0  0  0  0  0  0  0  0  0  0  0  0
   -4.1427   -3.4265   -0.2597 C   0  0  0  0  0  0  0  0  0  0  0  0
   -3.0511   -2.6374    0.1130 C   0  0  0  0  0  0  0  0  0  0  0  0
    3.3865    0.8263    0.7668 C   0  0  0  0  0  0  0  0  0  0  0  0
    4.4729    1.3109    0.0313 C   0  0  0  0  0  0  0  0  0  0  0  0
    6.9827    3.9749   -2.1684 H   0  0  0  0  0  0  0  0  0  0  0  0
    7.2489    2.4096   -2.9659 H   0  0  0  0  0  0  0  0  0  0  0  0
    5.6456    2.8233   -2.3754 H   0  0  0  0  0  0  0  0  0  0  0  0
    6.6088    2.8389    0.0167 H   0  0  0  0  0  0  0  0  0  0  0  0
    8.1453    2.3570   -0.6717 H   0  0  0  0  0  0  0  0  0  0  0  0
    6.5367   -1.3624    0.3221 H   0  0  0  0  0  0  0  0  0  0  0  0
    4.6504   -2.2191    1.6168 H   0  0  0  0  0  0  0  0  0  0  0  0
    1.5413   -0.1585    2.1383 H   0  0  0  0  0  0  0  0  0  0  0  0
    0.6306   -1.1787    4.0364 H   0  0  0  0  0  0  0  0  0  0  0  0
    0.8456   -2.9131    4.2069 H   0  0  0  0  0  0  0  0  0  0  0  0
   -2.3869    2.6642   -0.1696 H   0  0  0  0  0  0  0  0  0  0  0  0
   -3.8193    1.7986    0.3256 H   0  0  0  0  0  0  0  0  0  0  0  0
   -0.9182    0.3656   -2.0247 H   0  0  0  0  0  0  0  0  0  0  0  0
   -2.0368   -0.2505   -4.4067 H   0  0  0  0  0  0  0  0  0  0  0  0
   -4.6120    0.5972   -4.2813 H   0  0  0  0  0  0  0  0  0  0  0  0
   -6.0090    1.8209   -2.7690 H   0  0  0  0  0  0  0  0  0  0  0  0
   -5.1182    2.8823   -1.6383 H   0  0  0  0  0  0  0  0  0  0  0  0
   -5.7326    1.2829   -1.0870 H   0  0  0  0  0  0  0  0  0  0  0  0
   -4.7746    0.0654    1.3164 H   0  0  0  0  0  0  0  0  0  0  0  0
   -6.6773   -1.3449    0.6236 H   0  0  0  0  0  0  0  0  0  0  0  0
   -3.9927   -4.4067   -0.7026 H   0  0  0  0  0  0  0  0  0  0  0  0
   -2.0507   -3.0171   -0.0811 H   0  0  0  0  0  0  0  0  0  0  0  0
    2.5018    1.4531    0.8646 H   0  0  0  0  0  0  0  0  0  0  0  0
    4.3855    2.2853   -0.4367 H   0  0  0  0  0  0  0  0  0  0  0  0
  1  2  1  0
  2  3  1  0
  3  4  1  0
  4  5  2  0
  5  6  1  0
  6  7  2  0
  7  8  1  0
  8  9  1  0
  9 10  2  0
  9 11  1  0
 11 12  1  0
 12 13  1  0
 13 14  2  0
 14 15  1  0
 15 16  2  0
 16 17  1  0
 17 18  1  0
 18 19  2  0
 19 20  1  0
 20 21  2  0
 21 22  1  0
 22 23  1  0
 16 24  1  0
 24 25  1  0
 25 26  2  0
 26 27  1  0
 27 28  2  0
 28 29  1  0
 28 30  1  0
 30 31  2  0
  7 32  1  0
 32 33  2  0
 33  4  1  0
 24 13  1  0
 31 25  1  0
 22 18  1  0
  1 34  1  0
  1 35  1  0
  1 36  1  0
  2 37  1  0
  2 38  1  0
  5 39  1  0
  6 40  1  0
  8 41  1  0
 11 42  1  0
 11 43  1  0
 17 44  1  0
 17 45  1  0
 19 46  1  0
 20 47  1  0
 21 48  1  0
 23 49  1  0
 23 50  1  0
 23 51  1  0
 26 52  1  0
 27 53  1  0
 30 54  1  0
 31 55  1  0
 32 56  1  0
 33 57  1  0
M  END
$$$$
