
     RDKit          3D

 73 75  0  0  0  0  0  0  0  0999 V2000
   -2.7523    0.9691    0.1945 C   0  0  0  0  0  0  0  0  0  0  0  0
   -2.8401   -0.5340   -0.0429 C   0  0  0  0  0  0  0  0  0  0  0  0
   -2.0928   -1.0239   -1.2942 C   0  0  0  0  0  0  0  0  0  0  0  0
   -0.3165   -1.3601   -1.0043 S   0  0  0  0  0  0  0  0  0  0  0  0
    0.3013    0.2709   -0.9394 C   0  0  0  0  0  0  0  0  0  0  0  0
    0.0387    1.0374   -1.9460 N   0  0  0  0  0  0  0  0  0  0  0  0
    0.5270    2.3469   -1.9337 C   0  0  0  0  0  0  0  0  0  0  0  0
    0.2021    3.2001   -2.9907 C   0  0  0  0  0  0  0  0  0  0  0  0
    0.6695    4.5198   -3.0150 C   0  0  0  0  0  0  0  0  0  0  0  0
    0.3915    5.4224   -4.0121 O   0  0  0  0  0  0  0  0  0  0  0  0
   -0.3500    4.9611   -5.1340 C   0  0  0  0  0  0  0  0  0  0  0  0
    1.4761    4.9970   -1.9605 C   0  0  0  0  0  0  0  0  0  0  0  0
    1.8931    6.3019   -2.0630 O   0  0  0  0  0  0  0  0  0  0  0  0
    2.7016    6.8212   -1.0109 C   0  0  0  0  0  0  0  0  0  0  0  0
    1.8038    4.1442   -0.9059 C   0  0  0  0  0  0  0  0  0  0  0  0
    1.3232    2.8293   -0.9042 C   0  0  0  0  0  0  0  0  0  0  0  0
    1.6298    1.9147    0.2053 C   0  0  0  0  0  0  0  0  0  0  0  0
    2.3706    2.2983    1.1063 O   0  0  0  0  0  0  0  0  0  0  0  0
    1.0422    0.6534    0.1648 N   0  0  0  0  0  0  0  0  0  0  0  0
    1.2822   -0.2062    1.3346 C   0  0  0  0  0  0  0  0  0  0  0  0
    2.5990   -0.9873    1.2192 C   0  0  0  0  0  0  0  0  0  0  0  0
    2.8078   -1.8752    2.4189 C   0  0  0  0  0  0  0  0  0  0  0  0
    2.4395   -3.2232    2.3745 C   0  0  0  0  0  0  0  0  0  0  0  0
    2.5925   -4.0374    3.5003 C   0  0  0  0  0  0  0  0  0  0  0  0
    3.1145   -3.5159    4.6887 C   0  0  0  0  0  0  0  0  0  0  0  0
    3.2985   -4.2425    5.8386 O   0  0  0  0  0  0  0  0  0  0  0  0
    3.0757   -5.6429    5.7724 C   0  0  0  0  0  0  0  0  0  0  0  0
    3.4848   -2.1585    4.7439 C   0  0  0  0  0  0  0  0  0  0  0  0
    3.9657   -1.7110    5.9500 O   0  0  0  0  0  0  0  0  0  0  0  0
    4.6095   -0.4465    5.9679 C   0  0  0  0  0  0  0  0  0  0  0  0
    3.3262   -1.3479    3.6107 C   0  0  0  0  0  0  0  0  0  0  0  0
   -2.7594   -2.3293   -1.7533 C   0  0  0  0  0  0  0  0  0  0  0  0
   -2.6659   -3.3894   -1.1334 O   0  0  0  0  0  0  0  0  0  0  0  0
   -3.5299   -2.1967   -2.8956 N   0  0  0  0  0  0  0  0  0  0  0  0
   -4.2595   -3.3127   -3.4762 C   0  0  0  0  0  0  0  0  0  0  0  0
   -5.7713   -3.1394   -3.3113 C   0  0  0  0  0  0  0  0  0  0  0  0
   -6.2092   -1.9958   -4.0558 O   0  0  0  0  0  0  0  0  0  0  0  0
   -6.6938   -0.9509   -3.2195 C   0  0  0  0  0  0  0  0  0  0  0  0
   -1.7457    1.2836    0.5000 H   0  0  0  0  0  0  0  0  0  0  0  0
   -3.4360    1.2559    1.0024 H   0  0  0  0  0  0  0  0  0  0  0  0
   -3.0384    1.5314   -0.7053 H   0  0  0  0  0  0  0  0  0  0  0  0
   -2.4985   -1.0682    0.8544 H   0  0  0  0  0  0  0  0  0  0  0  0
   -3.9085   -0.7745   -0.1473 H   0  0  0  0  0  0  0  0  0  0  0  0
   -2.1886   -0.2894   -2.1024 H   0  0  0  0  0  0  0  0  0  0  0  0
   -0.4199    2.8018   -3.7860 H   0  0  0  0  0  0  0  0  0  0  0  0
    0.1439    4.1143   -5.6232 H   0  0  0  0  0  0  0  0  0  0  0  0
   -0.3987    5.7783   -5.8630 H   0  0  0  0  0  0  0  0  0  0  0  0
   -1.3770    4.7131   -4.8453 H   0  0  0  0  0  0  0  0  0  0  0  0
    2.1687    6.7942   -0.0507 H   0  0  0  0  0  0  0  0  0  0  0  0
    3.6591    6.2885   -0.9430 H   0  0  0  0  0  0  0  0  0  0  0  0
    2.9165    7.8665   -1.2493 H   0  0  0  0  0  0  0  0  0  0  0  0
    2.4240    4.4733   -0.0781 H   0  0  0  0  0  0  0  0  0  0  0  0
    0.4361   -0.8879    1.4882 H   0  0  0  0  0  0  0  0  0  0  0  0
    1.3052    0.4255    2.2345 H   0  0  0  0  0  0  0  0  0  0  0  0
    2.6068   -1.5923    0.3024 H   0  0  0  0  0  0  0  0  0  0  0  0
    3.4483   -0.2985    1.1211 H   0  0  0  0  0  0  0  0  0  0  0  0
    2.0205   -3.6501    1.4644 H   0  0  0  0  0  0  0  0  0  0  0  0
    2.2852   -5.0754    3.4197 H   0  0  0  0  0  0  0  0  0  0  0  0
    2.0138   -5.8650    5.6102 H   0  0  0  0  0  0  0  0  0  0  0  0
    3.3627   -6.0680    6.7369 H   0  0  0  0  0  0  0  0  0  0  0  0
    3.7028   -6.1142    5.0043 H   0  0  0  0  0  0  0  0  0  0  0  0
    5.4352   -0.4131    5.2536 H   0  0  0  0  0  0  0  0  0  0  0  0
    3.8951    0.3579    5.7841 H   0  0  0  0  0  0  0  0  0  0  0  0
    5.0306   -0.2984    6.9662 H   0  0  0  0  0  0  0  0  0  0  0  0
    3.5869   -0.2934    3.6357 H   0  0  0  0  0  0  0  0  0  0  0  0
   -3.4188   -1.3811   -3.4827 H   0  0  0  0  0  0  0  0  0  0  0  0
   -3.9398   -4.2567   -3.0204 H   0  0  0  0  0  0  0  0  0  0  0  0
   -3.9997   -3.3329   -4.5398 H   0  0  0  0  0  0  0  0  0  0  0  0
   -6.0473   -3.0649   -2.2519 H   0  0  0  0  0  0  0  0  0  0  0  0
   -6.2777   -4.0112   -3.7376 H   0  0  0  0  0  0  0  0  0  0  0  0
   -7.5652   -1.2916   -2.6446 H   0  0  0  0  0  0  0  0  0  0  0  0
   -6.9953   -0.1181   -3.8615 H   0  0  0  0  0  0  0  0  0  0  0  0
   -5.9120   -0.6002   -2.5348 H   0  0  0  0  0  0  0  0  0  0  0  0
  1  2  1  0
  2  3  1  0
  3  4  1  0
  4  5  1  0
  5  6  2  0
  6  7  1  0
  7  8  2  0
  8  9  1  0
  9 10  1  0
 10 11  1  0
  9 12  2  0
 12 13  1  0
 13 14  1  0
 12 15  1  0
 15 16  2  0
 16 17  1  0
 17 18  2  0
 17 19  1  0
 19 20  1  0
 20 21  1  0
 21 22  1  0
 22 23  2  0
 23 24  1  0
 24 25  2  0
 25 26  1  0
 26 27  1  0
 25 28  1  0
 28 29  1  0
 29 30  1  0
 28 31  2  0
  3 32  1  0
 32 33  2  0
 32 34  1  0
 34 35  1  0
 35 36  1  0
 36 37  1  0
 37 38  1  0
 19  5  1  0
 31 22  1  0
 16  7  1  0
  1 39  1  0
  1 40  1  0
  1 41  1  0
  2 42  1  0
  2 43  1  0
  3 44  1  0
  8 45  1  0
 11 46  1  0
 11 47  1  0
 11 48  1  0
 14 49  1  0
 14 50  1  0
 14 51  1  0
 15 52  1  0
 20 53  1  0
 20 54  1  0
 21 55  1  0
 21 56  1  0
 23 57  1  0
 24 58  1  0
 27 59  1  0
 27 60  1  0
 27 61  1  0
 30 62  1  0
 30 63  1  0
 30 64  1  0
 31 65  1  0
 34 66  1  0
 35 67  1  0
 35 68  1  0
 36 69  1  0
 36 70  1  0
 38 71  1  0
 38 72  1  0
 38 73  1  0
M  END
$$$$
