
     RDKit          3D

 65 69  0  0  0  0  0  0  0  0999 V2000
    6.0986   -2.5235   -0.8616 O   0  0  0  0  0  0  0  0  0  0  0  0
    6.4500   -1.4291   -0.4062 C   0  0  0  0  0  0  0  0  0  0  0  0
    7.8597   -1.2295    0.2251 C   0  0  0  0  0  0  0  0  0  0  0  0
    8.8509   -2.4306    0.1698 C   0  0  0  0  0  0  0  0  0  0  0  0
    9.3429   -2.0104    1.5655 C   0  0  0  0  0  0  0  0  0  0  0  0
    7.9715   -1.3425    1.7720 C   0  0  0  0  0  0  0  0  0  0  0  0
    5.6313   -0.3028   -0.4207 N   0  0  0  0  0  0  0  0  0  0  0  0
    6.0007    1.0284    0.0867 C   0  0  0  0  0  0  0  0  0  0  0  0
    4.7814    1.9452   -0.0703 C   0  0  0  0  0  0  0  0  0  0  0  0
    3.8048    1.0505   -0.7617 C   0  0  0  0  0  0  0  0  0  0  0  0
    2.5260    1.3800   -1.1882 C   0  0  0  0  0  0  0  0  0  0  0  0
    1.7652    0.3824   -1.8060 C   0  0  0  0  0  0  0  0  0  0  0  0
    0.1366    0.7748   -2.3944 S   0  0  0  0  0  6  0  0  0  0  0  0
    0.1370    2.1678   -2.7848 O   0  0  0  0  0  0  0  0  0  0  0  0
   -0.2987   -0.2652   -3.3000 O   0  0  0  0  0  0  0  0  0  0  0  0
   -0.7690    0.6734   -0.9932 N   0  0  0  0  0  0  0  0  0  0  0  0
   -1.2732   -0.6392   -0.5614 C   0  0  0  0  0  0  0  0  0  0  0  0
   -2.2695   -0.4305    0.5988 C   0  0  0  0  0  0  0  0  0  0  0  0
   -3.2742    0.6263    0.3285 N   0  0  0  0  0  0  0  0  0  0  0  0
   -4.0505    0.9081    1.5659 C   0  0  0  0  0  0  0  0  0  0  0  0
   -5.1737    1.9521    1.3524 C   0  0  0  0  0  0  0  0  0  0  0  0
   -6.0757    1.5707    0.2469 N   0  0  0  0  0  0  0  0  0  0  0  0
   -7.2236    0.8053    0.4877 C   0  0  0  0  0  0  0  0  0  0  0  0
   -8.2096    0.7144   -0.5157 C   0  0  0  0  0  0  0  0  0  0  0  0
   -9.3892   -0.0228   -0.3453 C   0  0  0  0  0  0  0  0  0  0  0  0
   -9.6288   -0.6877    0.8505 C   0  0  0  0  0  0  0  0  0  0  0  0
   -8.6931   -0.5999    1.8739 C   0  0  0  0  0  0  0  0  0  0  0  0
   -7.5197    0.1401    1.6941 C   0  0  0  0  0  0  0  0  0  0  0  0
   -6.6670    0.1668    2.7306 F   0  0  0  0  0  0  0  0  0  0  0  0
   -5.3235    1.2825   -0.9956 C   0  0  0  0  0  0  0  0  0  0  0  0
   -4.2207    0.2242   -0.7441 C   0  0  0  0  0  0  0  0  0  0  0  0
    2.2846   -0.9077   -2.0038 C   0  0  0  0  0  0  0  0  0  0  0  0
    3.5747   -1.2211   -1.5613 C   0  0  0  0  0  0  0  0  0  0  0  0
    4.3250   -0.2338   -0.9409 C   0  0  0  0  0  0  0  0  0  0  0  0
    8.3527   -0.3243   -0.1582 H   0  0  0  0  0  0  0  0  0  0  0  0
    9.6016   -2.3865   -0.6237 H   0  0  0  0  0  0  0  0  0  0  0  0
    8.3779   -3.4192    0.1545 H   0  0  0  0  0  0  0  0  0  0  0  0
    9.5829   -2.8257    2.2527 H   0  0  0  0  0  0  0  0  0  0  0  0
   10.1787   -1.3016    1.5437 H   0  0  0  0  0  0  0  0  0  0  0  0
    7.2215   -1.9981    2.2309 H   0  0  0  0  0  0  0  0  0  0  0  0
    7.9960   -0.3956    2.3183 H   0  0  0  0  0  0  0  0  0  0  0  0
    6.8511    1.4018   -0.4952 H   0  0  0  0  0  0  0  0  0  0  0  0
    6.3097    0.9516    1.1341 H   0  0  0  0  0  0  0  0  0  0  0  0
    5.0226    2.8249   -0.6750 H   0  0  0  0  0  0  0  0  0  0  0  0
    4.3995    2.2619    0.9057 H   0  0  0  0  0  0  0  0  0  0  0  0
    2.1287    2.3813   -1.0475 H   0  0  0  0  0  0  0  0  0  0  0  0
   -1.4314    1.4456   -0.8746 H   0  0  0  0  0  0  0  0  0  0  0  0
   -1.7835   -1.1438   -1.3875 H   0  0  0  0  0  0  0  0  0  0  0  0
   -0.4416   -1.2684   -0.2295 H   0  0  0  0  0  0  0  0  0  0  0  0
   -1.6811   -0.1286    1.4756 H   0  0  0  0  0  0  0  0  0  0  0  0
   -2.7501   -1.3851    0.8476 H   0  0  0  0  0  0  0  0  0  0  0  0
   -3.3716    1.2972    2.3343 H   0  0  0  0  0  0  0  0  0  0  0  0
   -4.4773   -0.0254    1.9511 H   0  0  0  0  0  0  0  0  0  0  0  0
   -4.7067    2.9094    1.0835 H   0  0  0  0  0  0  0  0  0  0  0  0
   -5.7179    2.1527    2.2816 H   0  0  0  0  0  0  0  0  0  0  0  0
   -8.0848    1.2590   -1.4494 H   0  0  0  0  0  0  0  0  0  0  0  0
  -10.1216   -0.0613   -1.1479 H   0  0  0  0  0  0  0  0  0  0  0  0
  -10.5428   -1.2589    0.9892 H   0  0  0  0  0  0  0  0  0  0  0  0
   -8.8631   -1.1016    2.8215 H   0  0  0  0  0  0  0  0  0  0  0  0
   -4.8550    2.2150   -1.3365 H   0  0  0  0  0  0  0  0  0  0  0  0
   -5.9615    0.9461   -1.8194 H   0  0  0  0  0  0  0  0  0  0  0  0
   -3.6787    0.0900   -1.6864 H   0  0  0  0  0  0  0  0  0  0  0  0
   -4.6923   -0.7353   -0.4945 H   0  0  0  0  0  0  0  0  0  0  0  0
    1.6939   -1.6722   -2.5043 H   0  0  0  0  0  0  0  0  0  0  0  0
    3.9631   -2.2214   -1.7203 H   0  0  0  0  0  0  0  0  0  0  0  0
  1  2  2  0
  2  3  1  0
  3  4  1  0
  4  5  1  0
  5  6  1  0
  2  7  1  0
  7  8  1  0
  8  9  1  0
  9 10  1  0
 10 11  2  0
 11 12  1  0
 12 13  1  0
 13 14  2  0
 13 15  2  0
 13 16  1  0
 16 17  1  0
 17 18  1  0
 18 19  1  0
 19 20  1  0
 20 21  1  0
 21 22  1  0
 22 23  1  0
 23 24  2  0
 24 25  1  0
 25 26  2  0
 26 27  1  0
 27 28  2  0
 28 29  1  0
 22 30  1  0
 30 31  1  0
 12 32  2  0
 32 33  1  0
 33 34  2  0
  6  3  1  0
 34  7  1  0
 34 10  1  0
 31 19  1  0
 28 23  1  0
  3 35  1  0
  4 36  1  0
  4 37  1  0
  5 38  1  0
  5 39  1  0
  6 40  1  0
  6 41  1  0
  8 42  1  0
  8 43  1  0
  9 44  1  0
  9 45  1  0
 11 46  1  0
 16 47  1  0
 17 48  1  0
 17 49  1  0
 18 50  1  0
 18 51  1  0
 20 52  1  0
 20 53  1  0
 21 54  1  0
 21 55  1  0
 24 56  1  0
 25 57  1  0
 26 58  1  0
 27 59  1  0
 30 60  1  0
 30 61  1  0
 31 62  1  0
 31 63  1  0
 32 64  1  0
 33 65  1  0
M  END
$$$$
