
     RDKit          3D

 62 66  0  0  0  0  0  0  0  0999 V2000
   -3.8790    6.1940   -1.7271 C   0  0  0  0  0  0  0  0  0  0  0  0
   -3.0920    5.0724   -1.3469 O   0  0  0  0  0  0  0  0  0  0  0  0
   -3.7589    3.9063   -1.0869 C   0  0  0  0  0  0  0  0  0  0  0  0
   -5.1358    3.7302   -1.1119 C   0  0  0  0  0  0  0  0  0  0  0  0
   -5.7009    2.4818   -0.8269 C   0  0  0  0  0  0  0  0  0  0  0  0
   -4.8572    1.3996   -0.5114 C   0  0  0  0  0  0  0  0  0  0  0  0
   -5.3376   -0.2062   -0.1330 S   0  0  0  0  0  0  0  0  0  0  0  0
   -3.7245   -0.7300    0.0780 C   0  0  0  0  0  0  0  0  0  0  0  0
   -3.4899   -2.1291    0.4580 C   0  0  0  0  0  0  0  0  0  0  0  0
   -3.3832   -2.4462    1.8222 C   0  0  0  0  0  0  0  0  0  0  0  0
   -3.1485   -3.7583    2.2283 C   0  0  0  0  0  0  0  0  0  0  0  0
   -3.0166   -4.7632    1.2746 C   0  0  0  0  0  0  0  0  0  0  0  0
   -3.1160   -4.4607   -0.0868 C   0  0  0  0  0  0  0  0  0  0  0  0
   -3.3495   -3.1463   -0.5086 C   0  0  0  0  0  0  0  0  0  0  0  0
   -3.4530   -2.7601   -1.8216 O   0  0  0  0  0  0  0  0  0  0  0  0
   -3.2549   -3.7534   -2.8173 C   0  0  0  0  0  0  0  0  0  0  0  0
   -2.8202    0.2982   -0.1286 C   0  0  0  0  0  0  0  0  0  0  0  0
   -1.3842    0.0918    0.0112 C   0  0  0  0  0  0  0  0  0  0  0  0
   -0.6677   -0.5844   -0.9791 C   0  0  0  0  0  0  0  0  0  0  0  0
    0.7083   -0.7749   -0.8362 C   0  0  0  0  0  0  0  0  0  0  0  0
    1.3829   -0.2917    0.2883 C   0  0  0  0  0  0  0  0  0  0  0  0
    2.7244   -0.5540    0.3019 O   0  0  0  0  0  0  0  0  0  0  0  0
    3.4771   -0.0612    1.4126 C   0  0  0  0  0  0  0  0  0  0  0  0
    4.9545   -0.4750    1.2565 C   0  0  0  0  0  0  0  0  0  0  0  0
    5.6536    0.2014    0.1432 N   0  0  0  0  0  0  0  0  0  0  0  0
    6.9561   -0.4228   -0.1334 C   0  0  0  0  0  0  0  0  0  0  0  0
    7.9354    0.2137    0.8395 C   0  0  0  0  0  0  0  0  0  0  0  0
    7.3252    1.5656    1.1802 C   0  0  0  0  0  0  0  0  0  0  0  0
    5.9915    1.5997    0.4451 C   0  0  0  0  0  0  0  0  0  0  0  0
    0.6675    0.3906    1.2736 C   0  0  0  0  0  0  0  0  0  0  0  0
   -0.7119    0.5835    1.1347 C   0  0  0  0  0  0  0  0  0  0  0  0
   -3.4696    1.5426   -0.4736 C   0  0  0  0  0  0  0  0  0  0  0  0
   -2.9314    2.8224   -0.7697 C   0  0  0  0  0  0  0  0  0  0  0  0
   -3.1990    7.0291   -1.9210 H   0  0  0  0  0  0  0  0  0  0  0  0
   -4.5533    6.4946   -0.9185 H   0  0  0  0  0  0  0  0  0  0  0  0
   -4.4325    5.9941   -2.6506 H   0  0  0  0  0  0  0  0  0  0  0  0
   -5.8118    4.5447   -1.3510 H   0  0  0  0  0  0  0  0  0  0  0  0
   -6.7792    2.3503   -0.8506 H   0  0  0  0  0  0  0  0  0  0  0  0
   -3.4823   -1.6648    2.5723 H   0  0  0  0  0  0  0  0  0  0  0  0
   -3.0675   -3.9942    3.2859 H   0  0  0  0  0  0  0  0  0  0  0  0
   -2.8331   -5.7876    1.5891 H   0  0  0  0  0  0  0  0  0  0  0  0
   -3.0051   -5.2764   -0.7931 H   0  0  0  0  0  0  0  0  0  0  0  0
   -3.3428   -3.2686   -3.7943 H   0  0  0  0  0  0  0  0  0  0  0  0
   -2.2513   -4.1860   -2.7508 H   0  0  0  0  0  0  0  0  0  0  0  0
   -4.0262   -4.5282   -2.7605 H   0  0  0  0  0  0  0  0  0  0  0  0
   -1.1739   -0.9668   -1.8623 H   0  0  0  0  0  0  0  0  0  0  0  0
    1.2614   -1.3034   -1.6088 H   0  0  0  0  0  0  0  0  0  0  0  0
    3.3828    1.0272    1.4881 H   0  0  0  0  0  0  0  0  0  0  0  0
    3.0985   -0.5190    2.3350 H   0  0  0  0  0  0  0  0  0  0  0  0
    4.9620   -1.5557    1.0634 H   0  0  0  0  0  0  0  0  0  0  0  0
    5.4746   -0.3098    2.2080 H   0  0  0  0  0  0  0  0  0  0  0  0
    7.2485   -0.1763   -1.1619 H   0  0  0  0  0  0  0  0  0  0  0  0
    6.9456   -1.5158   -0.0642 H   0  0  0  0  0  0  0  0  0  0  0  0
    8.0287   -0.3920    1.7481 H   0  0  0  0  0  0  0  0  0  0  0  0
    8.9327    0.3162    0.4006 H   0  0  0  0  0  0  0  0  0  0  0  0
    7.9730    2.3900    0.8656 H   0  0  0  0  0  0  0  0  0  0  0  0
    7.1785    1.6470    2.2631 H   0  0  0  0  0  0  0  0  0  0  0  0
    5.2252    2.1397    1.0089 H   0  0  0  0  0  0  0  0  0  0  0  0
    6.1144    2.1371   -0.5037 H   0  0  0  0  0  0  0  0  0  0  0  0
    1.1490    0.7848    2.1614 H   0  0  0  0  0  0  0  0  0  0  0  0
   -1.2580    1.1163    1.9096 H   0  0  0  0  0  0  0  0  0  0  0  0
   -1.8529    2.9652   -0.7567 H   0  0  0  0  0  0  0  0  0  0  0  0
  1  2  1  0
  2  3  1  0
  3  4  2  0
  4  5  1  0
  5  6  2  0
  6  7  1  0
  7  8  1  0
  8  9  1  0
  9 10  2  0
 10 11  1  0
 11 12  2  0
 12 13  1  0
 13 14  2  0
 14 15  1  0
 15 16  1  0
  8 17  2  0
 17 18  1  0
 18 19  2  0
 19 20  1  0
 20 21  2  0
 21 22  1  0
 22 23  1  0
 23 24  1  0
 24 25  1  0
 25 26  1  0
 26 27  1  0
 27 28  1  0
 28 29  1  0
 21 30  1  0
 30 31  2  0
 17 32  1  0
 32 33  2  0
 33  3  1  0
 32  6  1  0
 14  9  1  0
 31 18  1  0
 29 25  1  0
  1 34  1  0
  1 35  1  0
  1 36  1  0
  4 37  1  0
  5 38  1  0
 10 39  1  0
 11 40  1  0
 12 41  1  0
 13 42  1  0
 16 43  1  0
 16 44  1  0
 16 45  1  0
 19 46  1  0
 20 47  1  0
 23 48  1  0
 23 49  1  0
 24 50  1  0
 24 51  1  0
 26 52  1  0
 26 53  1  0
 27 54  1  0
 27 55  1  0
 28 56  1  0
 28 57  1  0
 29 58  1  0
 29 59  1  0
 30 60  1  0
 31 61  1  0
 33 62  1  0
M  END
$$$$
