
     RDKit          3D

 33 35  0  0  0  0  0  0  0  0999 V2000
    6.0338   -0.6383    0.3890 C   0  0  0  0  0  0  0  0  0  0  0  0
    4.9637   -0.1615   -0.4175 O   0  0  0  0  0  0  0  0  0  0  0  0
    3.6974   -0.3374    0.0677 C   0  0  0  0  0  0  0  0  0  0  0  0
    3.3592   -0.9429    1.2773 C   0  0  0  0  0  0  0  0  0  0  0  0
    2.0161   -1.0643    1.6486 C   0  0  0  0  0  0  0  0  0  0  0  0
    1.0028   -0.5725    0.8169 C   0  0  0  0  0  0  0  0  0  0  0  0
    1.3328    0.0449   -0.3954 C   0  0  0  0  0  0  0  0  0  0  0  0
    2.6824    0.1472   -0.7642 C   0  0  0  0  0  0  0  0  0  0  0  0
    0.2534    0.5319   -1.3191 C   0  0  0  0  0  0  0  0  0  0  0  0
   -0.9619    1.0259   -0.5379 C   0  0  0  0  0  0  0  0  0  0  0  0
   -1.4630   -0.0069    0.4336 C   0  0  0  0  0  0  0  0  0  0  0  0
   -2.7364   -0.3580    0.6966 C   0  0  0  0  0  0  0  0  0  0  0  0
   -3.8910    0.2381    0.1154 C   0  0  0  0  0  0  0  0  0  0  0  0
   -5.1969   -0.2442    0.1344 C   0  0  0  0  0  0  0  0  0  0  0  0
   -6.0210    0.6837   -0.5445 C   0  0  0  0  0  0  0  0  0  0  0  0
   -5.1888    1.6973   -0.9405 C   0  0  0  0  0  0  0  0  0  0  0  0
   -3.9177    1.4448   -0.5482 O   0  0  0  0  0  0  0  0  0  0  0  0
   -0.4164   -0.7372    1.2285 C   0  0  0  0  0  0  0  0  0  0  0  0
   -0.6979   -1.4427    2.1925 O   0  0  0  0  0  0  0  0  0  0  0  0
    6.0637   -0.1187    1.3525 H   0  0  0  0  0  0  0  0  0  0  0  0
    6.9695   -0.4215   -0.1352 H   0  0  0  0  0  0  0  0  0  0  0  0
    5.9721   -1.7230    0.5255 H   0  0  0  0  0  0  0  0  0  0  0  0
    4.1113   -1.3369    1.9529 H   0  0  0  0  0  0  0  0  0  0  0  0
    1.7631   -1.5480    2.5905 H   0  0  0  0  0  0  0  0  0  0  0  0
    2.9560    0.6082   -1.7117 H   0  0  0  0  0  0  0  0  0  0  0  0
    0.6290    1.3538   -1.9404 H   0  0  0  0  0  0  0  0  0  0  0  0
   -0.0310   -0.2875   -1.9911 H   0  0  0  0  0  0  0  0  0  0  0  0
   -1.7172    1.3107   -1.2737 H   0  0  0  0  0  0  0  0  0  0  0  0
   -0.6997    1.9324    0.0232 H   0  0  0  0  0  0  0  0  0  0  0  0
   -2.9328   -1.1504    1.4177 H   0  0  0  0  0  0  0  0  0  0  0  0
   -5.5113   -1.1721    0.5934 H   0  0  0  0  0  0  0  0  0  0  0  0
   -7.0860    0.6219   -0.7170 H   0  0  0  0  0  0  0  0  0  0  0  0
   -5.3372    2.6229   -1.4786 H   0  0  0  0  0  0  0  0  0  0  0  0
  1  2  1  0
  2  3  1  0
  3  4  2  0
  4  5  1  0
  5  6  2  0
  6  7  1  0
  7  8  2  0
  7  9  1  0
  9 10  1  0
 10 11  1  0
 11 12  2  3
 12 13  1  0
 13 14  2  0
 14 15  1  0
 15 16  2  0
 16 17  1  0
 11 18  1  0
 18 19  2  0
  8  3  1  0
 17 13  1  0
 18  6  1  0
  1 20  1  0
  1 21  1  0
  1 22  1  0
  4 23  1  0
  5 24  1  0
  8 25  1  0
  9 26  1  0
  9 27  1  0
 10 28  1  0
 10 29  1  0
 12 30  1  0
 14 31  1  0
 15 32  1  0
 16 33  1  0
M  END
$$$$
