
     RDKit          3D

 46 48  0  0  0  0  0  0  0  0999 V2000
    8.4638   -2.1796   -0.1453 C   0  0  0  0  0  0  0  0  0  0  0  0
    8.0233   -1.2906    1.0025 C   0  0  0  0  0  0  0  0  0  0  0  0
    7.0315   -0.3560    0.5517 O   0  0  0  0  0  0  0  0  0  0  0  0
    5.7482   -0.7981    0.5853 C   0  0  0  0  0  0  0  0  0  0  0  0
    5.3852   -1.9033    0.9522 O   0  0  0  0  0  0  0  0  0  0  0  0
    4.8206    0.2647    0.1056 C   0  0  0  0  0  0  0  0  0  0  0  0
    5.2881    1.4736   -0.4267 C   0  0  0  0  0  0  0  0  0  0  0  0
    4.3837    2.4342   -0.8747 C   0  0  0  0  0  0  0  0  0  0  0  0
    3.0117    2.1918   -0.7911 C   0  0  0  0  0  0  0  0  0  0  0  0
    2.5260    0.9912   -0.2558 C   0  0  0  0  0  0  0  0  0  0  0  0
    1.1245    0.8316   -0.2151 N   0  0  0  0  0  0  0  0  0  0  0  0
    0.4150   -0.2057    0.3630 C   0  0  0  0  0  0  0  0  0  0  0  0
    0.8715   -1.1364    1.0133 O   0  0  0  0  0  0  0  0  0  0  0  0
   -1.0624   -0.1202    0.1917 C   0  0  0  0  0  0  0  0  0  0  0  0
   -1.8859   -0.5275    1.2449 C   0  0  0  0  0  0  0  0  0  0  0  0
   -3.2790   -0.4599    1.1214 C   0  0  0  0  0  0  0  0  0  0  0  0
   -3.8633    0.0011   -0.0598 C   0  0  0  0  0  0  0  0  0  0  0  0
   -5.2510    0.0975   -0.2670 N   0  0  0  0  0  0  0  0  0  0  0  0
   -6.2765   -0.2013    0.6136 C   0  0  0  0  0  0  0  0  0  0  0  0
   -6.1348   -0.6027    1.7635 O   0  0  0  0  0  0  0  0  0  0  0  0
   -7.5893    0.0177    0.0307 C   0  0  0  0  0  0  0  0  0  0  0  0
   -8.8574   -0.1561    0.5525 C   0  0  0  0  0  0  0  0  0  0  0  0
   -9.7714    0.2126   -0.4630 C   0  0  0  0  0  0  0  0  0  0  0  0
   -9.0109    0.5898   -1.5440 C   0  0  0  0  0  0  0  0  0  0  0  0
   -7.6874    0.4778   -1.2597 O   0  0  0  0  0  0  0  0  0  0  0  0
   -3.0328    0.3875   -1.1210 C   0  0  0  0  0  0  0  0  0  0  0  0
   -1.6398    0.3264   -1.0013 C   0  0  0  0  0  0  0  0  0  0  0  0
    3.4378    0.0290    0.1863 C   0  0  0  0  0  0  0  0  0  0  0  0
    8.8254   -1.5745   -0.9832 H   0  0  0  0  0  0  0  0  0  0  0  0
    9.2624   -2.8559    0.1724 H   0  0  0  0  0  0  0  0  0  0  0  0
    7.6284   -2.7780   -0.5220 H   0  0  0  0  0  0  0  0  0  0  0  0
    7.6597   -1.8809    1.8514 H   0  0  0  0  0  0  0  0  0  0  0  0
    8.8753   -0.7038    1.3610 H   0  0  0  0  0  0  0  0  0  0  0  0
    6.3533    1.6778   -0.5021 H   0  0  0  0  0  0  0  0  0  0  0  0
    4.7473    3.3714   -1.2889 H   0  0  0  0  0  0  0  0  0  0  0  0
    2.3286    2.9593   -1.1465 H   0  0  0  0  0  0  0  0  0  0  0  0
    0.5832    1.6041   -0.5801 H   0  0  0  0  0  0  0  0  0  0  0  0
   -1.4475   -0.8999    2.1695 H   0  0  0  0  0  0  0  0  0  0  0  0
   -3.8756   -0.7850    1.9685 H   0  0  0  0  0  0  0  0  0  0  0  0
   -5.5640    0.4271   -1.1740 H   0  0  0  0  0  0  0  0  0  0  0  0
   -9.0803   -0.5092    1.5507 H   0  0  0  0  0  0  0  0  0  0  0  0
  -10.8514    0.2038   -0.4133 H   0  0  0  0  0  0  0  0  0  0  0  0
   -9.2487    0.9443   -2.5377 H   0  0  0  0  0  0  0  0  0  0  0  0
   -3.4595    0.7321   -2.0603 H   0  0  0  0  0  0  0  0  0  0  0  0
   -1.0247    0.5981   -1.8548 H   0  0  0  0  0  0  0  0  0  0  0  0
    3.0990   -0.9197    0.5948 H   0  0  0  0  0  0  0  0  0  0  0  0
  1  2  1  0
  2  3  1  0
  3  4  1  0
  4  5  2  0
  4  6  1  0
  6  7  2  0
  7  8  1  0
  8  9  2  0
  9 10  1  0
 10 11  1  0
 11 12  1  0
 12 13  2  0
 12 14  1  0
 14 15  2  0
 15 16  1  0
 16 17  2  0
 17 18  1  0
 18 19  1  0
 19 20  2  0
 19 21  1  0
 21 22  2  0
 22 23  1  0
 23 24  2  0
 24 25  1  0
 17 26  1  0
 26 27  2  0
 10 28  2  0
 28  6  1  0
 27 14  1  0
 25 21  1  0
  1 29  1  0
  1 30  1  0
  1 31  1  0
  2 32  1  0
  2 33  1  0
  7 34  1  0
  8 35  1  0
  9 36  1  0
 11 37  1  0
 15 38  1  0
 16 39  1  0
 18 40  1  0
 22 41  1  0
 23 42  1  0
 24 43  1  0
 26 44  1  0
 27 45  1  0
 28 46  1  0
M  END
$$$$
