
     RDKit          3D

 42 44  0  0  0  0  0  0  0  0999 V2000
   -8.4777   -0.3175    0.6488 C   0  0  0  0  0  0  0  0  0  0  0  0
   -7.6228   -0.3479   -0.5910 C   0  0  0  0  0  0  0  0  0  0  0  0
   -8.1260   -0.4385   -1.7093 O   0  0  0  0  0  0  0  0  0  0  0  0
   -6.1388   -0.2683   -0.4491 C   0  0  0  0  0  0  0  0  0  0  0  0
   -5.3555   -0.2590   -1.6087 C   0  0  0  0  0  0  0  0  0  0  0  0
   -3.9611   -0.1856   -1.5218 C   0  0  0  0  0  0  0  0  0  0  0  0
   -3.3262   -0.1191   -0.2764 C   0  0  0  0  0  0  0  0  0  0  0  0
   -1.9175   -0.0535   -0.2733 N   0  0  0  0  0  0  0  0  0  0  0  0
   -1.0884    0.0952    0.8242 C   0  0  0  0  0  0  0  0  0  0  0  0
   -1.4303    0.2620    1.9881 O   0  0  0  0  0  0  0  0  0  0  0  0
    0.3677    0.0813    0.5105 C   0  0  0  0  0  0  0  0  0  0  0  0
    1.2167    0.9329    1.2218 C   0  0  0  0  0  0  0  0  0  0  0  0
    2.5916    0.9473    0.9551 C   0  0  0  0  0  0  0  0  0  0  0  0
    3.1358    0.1025   -0.0144 C   0  0  0  0  0  0  0  0  0  0  0  0
    4.5072    0.0475   -0.3427 N   0  0  0  0  0  0  0  0  0  0  0  0
    5.5385    0.8303    0.1644 C   0  0  0  0  0  0  0  0  0  0  0  0
    5.3778    1.7338    0.9792 O   0  0  0  0  0  0  0  0  0  0  0  0
    6.8546    0.4943   -0.3690 C   0  0  0  0  0  0  0  0  0  0  0  0
    7.3247   -0.4959   -1.2189 C   0  0  0  0  0  0  0  0  0  0  0  0
    8.7212   -0.2949   -1.3599 C   0  0  0  0  0  0  0  0  0  0  0  0
    9.0275    0.8000   -0.5912 C   0  0  0  0  0  0  0  0  0  0  0  0
    7.9131    1.2821    0.0101 O   0  0  0  0  0  0  0  0  0  0  0  0
    2.2808   -0.7663   -0.7085 C   0  0  0  0  0  0  0  0  0  0  0  0
    0.9052   -0.7814   -0.4496 C   0  0  0  0  0  0  0  0  0  0  0  0
   -4.1099   -0.1334    0.8786 C   0  0  0  0  0  0  0  0  0  0  0  0
   -5.5077   -0.2061    0.7961 C   0  0  0  0  0  0  0  0  0  0  0  0
   -8.3090    0.6089    1.2039 H   0  0  0  0  0  0  0  0  0  0  0  0
   -8.2702   -1.1907    1.2727 H   0  0  0  0  0  0  0  0  0  0  0  0
   -9.5325   -0.3494    0.3585 H   0  0  0  0  0  0  0  0  0  0  0  0
   -5.8270   -0.3077   -2.5889 H   0  0  0  0  0  0  0  0  0  0  0  0
   -3.3864   -0.1787   -2.4445 H   0  0  0  0  0  0  0  0  0  0  0  0
   -1.4774   -0.0431   -1.1840 H   0  0  0  0  0  0  0  0  0  0  0  0
    0.8139    1.5925    1.9888 H   0  0  0  0  0  0  0  0  0  0  0  0
    3.2058    1.6289    1.5361 H   0  0  0  0  0  0  0  0  0  0  0  0
    4.7600   -0.6299   -1.0460 H   0  0  0  0  0  0  0  0  0  0  0  0
    6.7472   -1.2807   -1.6849 H   0  0  0  0  0  0  0  0  0  0  0  0
    9.4188   -0.8773   -1.9457 H   0  0  0  0  0  0  0  0  0  0  0  0
    9.9424    1.3345   -0.3748 H   0  0  0  0  0  0  0  0  0  0  0  0
    2.6730   -1.4516   -1.4564 H   0  0  0  0  0  0  0  0  0  0  0  0
    0.2761   -1.4911   -0.9802 H   0  0  0  0  0  0  0  0  0  0  0  0
   -3.6638   -0.0924    1.8682 H   0  0  0  0  0  0  0  0  0  0  0  0
   -6.0715   -0.2139    1.7245 H   0  0  0  0  0  0  0  0  0  0  0  0
  1  2  1  0
  2  3  2  0
  2  4  1  0
  4  5  2  0
  5  6  1  0
  6  7  2  0
  7  8  1  0
  8  9  1  0
  9 10  2  0
  9 11  1  0
 11 12  2  0
 12 13  1  0
 13 14  2  0
 14 15  1  0
 15 16  1  0
 16 17  2  0
 16 18  1  0
 18 19  2  0
 19 20  1  0
 20 21  2  0
 21 22  1  0
 14 23  1  0
 23 24  2  0
  7 25  1  0
 25 26  2  0
 26  4  1  0
 24 11  1  0
 22 18  1  0
  1 27  1  0
  1 28  1  0
  1 29  1  0
  5 30  1  0
  6 31  1  0
  8 32  1  0
 12 33  1  0
 13 34  1  0
 15 35  1  0
 19 36  1  0
 20 37  1  0
 21 38  1  0
 23 39  1  0
 24 40  1  0
 25 41  1  0
 26 42  1  0
M  END
$$$$
