
     RDKit          3D

 53 54  0  0  0  0  0  0  0  0999 V2000
   -4.5301   -0.8471    2.4729 C   0  0  0  0  0  0  0  0  0  0  0  0
   -4.7083    0.2258    1.4135 C   0  0  0  0  0  0  0  0  0  0  0  0
   -5.0159   -0.3005    0.0586 N   0  0  0  0  0  0  0  0  0  0  0  0
   -6.4193   -0.7581   -0.1149 C   0  0  0  0  0  0  0  0  0  0  0  0
   -7.1403    0.1994   -1.0484 C   0  0  0  0  0  0  0  0  0  0  0  0
   -3.8495   -1.2089   -0.7851 S   0  0  0  0  0  6  0  0  0  0  0  0
   -4.3036   -1.3593   -2.1529 O   0  0  0  0  0  0  0  0  0  0  0  0
   -3.5052   -2.3681    0.0095 O   0  0  0  0  0  0  0  0  0  0  0  0
   -2.4484   -0.1151   -0.8182 C   0  0  0  0  0  0  0  0  0  0  0  0
   -2.4436    0.9535   -1.7206 C   0  0  0  0  0  0  0  0  0  0  0  0
   -1.3533    1.8209   -1.7535 C   0  0  0  0  0  0  0  0  0  0  0  0
   -0.2764    1.6251   -0.8842 C   0  0  0  0  0  0  0  0  0  0  0  0
   -0.2787    0.5479    0.0157 C   0  0  0  0  0  0  0  0  0  0  0  0
    0.8355    0.3137    0.9717 C   0  0  0  0  0  0  0  0  0  0  0  0
    0.9770   -0.7191    1.6149 O   0  0  0  0  0  0  0  0  0  0  0  0
    1.6425    1.4013    1.0538 O   0  0  0  0  0  0  0  0  0  0  0  0
    2.6570    1.3364    2.0594 C   0  0  0  0  0  0  0  0  0  0  0  0
    3.9353    0.5848    1.6698 C   0  0  0  0  0  0  0  0  0  0  0  0
    5.0510    1.0741    1.8357 O   0  0  0  0  0  0  0  0  0  0  0  0
    3.7473   -0.6681    1.1343 N   0  0  0  0  0  0  0  0  0  0  0  0
    4.8368   -1.6048    0.9013 C   0  0  0  0  0  0  0  0  0  0  0  0
    6.0563   -1.0723    0.1238 C   0  0  0  0  0  0  0  0  0  0  0  0
    5.7170   -0.4136   -1.1258 N   0  0  0  0  0  0  0  0  0  0  0  0
    5.8649    0.9296   -1.3887 C   0  0  0  0  0  0  0  0  0  0  0  0
    6.2689    1.8165   -0.4315 O   0  0  0  0  0  0  0  0  0  0  0  0
    5.5808    1.2857   -2.6456 C   0  0  0  0  0  0  0  0  0  0  0  0
    5.0802   -0.0787   -3.5980 S   0  0  0  0  0  0  0  0  0  0  0  0
    5.2984   -1.1690   -2.2156 C   0  0  0  0  0  0  0  0  0  0  0  0
    5.1056   -2.3745   -2.2639 O   0  0  0  0  0  0  0  0  0  0  0  0
   -1.3642   -0.3368    0.0361 C   0  0  0  0  0  0  0  0  0  0  0  0
   -5.3841   -1.5330    2.5042 H   0  0  0  0  0  0  0  0  0  0  0  0
   -4.4351   -0.3837    3.4594 H   0  0  0  0  0  0  0  0  0  0  0  0
   -3.6253   -1.4384    2.3075 H   0  0  0  0  0  0  0  0  0  0  0  0
   -3.8247    0.8662    1.3671 H   0  0  0  0  0  0  0  0  0  0  0  0
   -5.5259    0.8911    1.7174 H   0  0  0  0  0  0  0  0  0  0  0  0
   -6.4551   -1.7760   -0.5196 H   0  0  0  0  0  0  0  0  0  0  0  0
   -6.9425   -0.7918    0.8479 H   0  0  0  0  0  0  0  0  0  0  0  0
   -8.1819   -0.1101   -1.1934 H   0  0  0  0  0  0  0  0  0  0  0  0
   -6.6560    0.2338   -2.0295 H   0  0  0  0  0  0  0  0  0  0  0  0
   -7.1396    1.2155   -0.6404 H   0  0  0  0  0  0  0  0  0  0  0  0
   -3.2830    1.1096   -2.3964 H   0  0  0  0  0  0  0  0  0  0  0  0
   -1.3414    2.6512   -2.4568 H   0  0  0  0  0  0  0  0  0  0  0  0
    0.5616    2.3171   -0.9257 H   0  0  0  0  0  0  0  0  0  0  0  0
    2.9469    2.3767    2.2660 H   0  0  0  0  0  0  0  0  0  0  0  0
    2.2677    0.9219    3.0032 H   0  0  0  0  0  0  0  0  0  0  0  0
    2.8375   -1.0949    1.3196 H   0  0  0  0  0  0  0  0  0  0  0  0
    4.3942   -2.4514    0.3638 H   0  0  0  0  0  0  0  0  0  0  0  0
    5.1656   -1.9731    1.8808 H   0  0  0  0  0  0  0  0  0  0  0  0
    6.6716   -0.4170    0.7504 H   0  0  0  0  0  0  0  0  0  0  0  0
    6.6972   -1.9295   -0.1205 H   0  0  0  0  0  0  0  0  0  0  0  0
    5.9632    1.4845    0.4382 H   0  0  0  0  0  0  0  0  0  0  0  0
    5.6415    2.2930   -3.0342 H   0  0  0  0  0  0  0  0  0  0  0  0
   -1.3700   -1.1822    0.7232 H   0  0  0  0  0  0  0  0  0  0  0  0
  1  2  1  0
  2  3  1  0
  3  4  1  0
  4  5  1  0
  3  6  1  0
  6  7  2  0
  6  8  2  0
  6  9  1  0
  9 10  2  0
 10 11  1  0
 11 12  2  0
 12 13  1  0
 13 14  1  0
 14 15  2  0
 14 16  1  0
 16 17  1  0
 17 18  1  0
 18 19  2  0
 18 20  1  0
 20 21  1  0
 21 22  1  0
 22 23  1  0
 23 24  1  0
 24 25  1  0
 24 26  2  0
 26 27  1  0
 27 28  1  0
 28 29  2  0
 13 30  2  0
 30  9  1  0
 28 23  1  0
  1 31  1  0
  1 32  1  0
  1 33  1  0
  2 34  1  0
  2 35  1  0
  4 36  1  0
  4 37  1  0
  5 38  1  0
  5 39  1  0
  5 40  1  0
 10 41  1  0
 11 42  1  0
 12 43  1  0
 17 44  1  0
 17 45  1  0
 20 46  1  0
 21 47  1  0
 21 48  1  0
 22 49  1  0
 22 50  1  0
 25 51  1  0
 26 52  1  0
 30 53  1  0
M  END
$$$$
