
     RDKit          3D

 53 55  0  0  0  0  0  0  0  0999 V2000
    7.5933   -1.8442    4.2337 C   0  0  0  0  0  0  0  0  0  0  0  0
    7.6458   -2.0493    2.8277 O   0  0  0  0  0  0  0  0  0  0  0  0
    6.9026   -1.2022    2.0526 C   0  0  0  0  0  0  0  0  0  0  0  0
    6.9708   -1.4550    0.6807 C   0  0  0  0  0  0  0  0  0  0  0  0
    6.2603   -0.6665   -0.2279 C   0  0  0  0  0  0  0  0  0  0  0  0
    5.4735    0.3982    0.2260 C   0  0  0  0  0  0  0  0  0  0  0  0
    4.6839    1.2407   -0.7408 C   0  0  0  0  0  0  0  0  0  0  0  0
    3.3425    0.7391   -0.8829 N   0  0  0  0  0  0  0  0  0  0  0  0
    2.2886    1.2346   -0.1540 C   0  0  0  0  0  0  0  0  0  0  0  0
    2.3084    2.2103    0.5835 O   0  0  0  0  0  0  0  0  0  0  0  0
    0.9843    0.4235   -0.3307 C   0  0  0  0  0  0  0  0  0  0  0  0
    0.9453   -0.5228   -1.1037 O   0  0  0  0  0  0  0  0  0  0  0  0
   -0.0640    0.8877    0.4284 N   0  0  0  0  0  0  0  0  0  0  0  0
   -1.4144    0.3745    0.2617 C   0  0  0  0  0  0  0  0  0  0  0  0
   -2.0709    0.8014   -1.0789 C   0  0  0  0  0  0  0  0  0  0  0  0
   -1.9764    2.2401   -1.2055 O   0  0  0  0  0  0  0  0  0  0  0  0
   -3.1798    2.7628   -0.6397 C   0  0  0  0  0  0  0  0  0  0  0  0
   -4.2467    1.7691   -1.0395 C   0  0  0  0  0  0  0  0  0  0  0  0
   -3.5124    0.5068   -1.2144 N   0  0  0  0  0  0  0  0  0  0  0  0
   -4.1147   -0.8880   -0.5121 S   0  0  0  0  0  6  0  0  0  0  0  0
   -4.3354   -0.5953    0.8888 O   0  0  0  0  0  0  0  0  0  0  0  0
   -3.2874   -1.9985   -0.9257 O   0  0  0  0  0  0  0  0  0  0  0  0
   -5.6896   -1.0698   -1.3078 C   0  0  0  0  0  0  0  0  0  0  0  0
   -5.7264   -1.3548   -2.6763 C   0  0  0  0  0  0  0  0  0  0  0  0
   -6.9583   -1.4978   -3.3134 C   0  0  0  0  0  0  0  0  0  0  0  0
   -8.1411   -1.3612   -2.5841 C   0  0  0  0  0  0  0  0  0  0  0  0
   -8.0977   -1.0850   -1.2157 C   0  0  0  0  0  0  0  0  0  0  0  0
   -6.8696   -0.9403   -0.5704 C   0  0  0  0  0  0  0  0  0  0  0  0
    5.4001    0.6431    1.6041 C   0  0  0  0  0  0  0  0  0  0  0  0
    6.1121   -0.1493    2.5117 C   0  0  0  0  0  0  0  0  0  0  0  0
    6.5760   -1.9806    4.6154 H   0  0  0  0  0  0  0  0  0  0  0  0
    8.2294   -2.5993    4.7056 H   0  0  0  0  0  0  0  0  0  0  0  0
    7.9892   -0.8596    4.5041 H   0  0  0  0  0  0  0  0  0  0  0  0
    7.5814   -2.2779    0.3167 H   0  0  0  0  0  0  0  0  0  0  0  0
    6.3275   -0.8925   -1.2895 H   0  0  0  0  0  0  0  0  0  0  0  0
    4.6677    2.2851   -0.4086 H   0  0  0  0  0  0  0  0  0  0  0  0
    5.1492    1.2222   -1.7324 H   0  0  0  0  0  0  0  0  0  0  0  0
    3.1849   -0.1458   -1.3567 H   0  0  0  0  0  0  0  0  0  0  0  0
    0.0823    1.7848    0.8843 H   0  0  0  0  0  0  0  0  0  0  0  0
   -1.9837    0.7552    1.1158 H   0  0  0  0  0  0  0  0  0  0  0  0
   -1.3650   -0.7160    0.3386 H   0  0  0  0  0  0  0  0  0  0  0  0
   -1.5290    0.3689   -1.9259 H   0  0  0  0  0  0  0  0  0  0  0  0
   -3.0652    2.8195    0.4483 H   0  0  0  0  0  0  0  0  0  0  0  0
   -3.3720    3.7680   -1.0243 H   0  0  0  0  0  0  0  0  0  0  0  0
   -4.6850    2.0413   -2.0057 H   0  0  0  0  0  0  0  0  0  0  0  0
   -5.0477    1.7282   -0.2973 H   0  0  0  0  0  0  0  0  0  0  0  0
   -4.8041   -1.4683   -3.2424 H   0  0  0  0  0  0  0  0  0  0  0  0
   -6.9980   -1.7214   -4.3768 H   0  0  0  0  0  0  0  0  0  0  0  0
   -9.1006   -1.4780   -3.0828 H   0  0  0  0  0  0  0  0  0  0  0  0
   -9.0230   -0.9894   -0.6524 H   0  0  0  0  0  0  0  0  0  0  0  0
   -6.8429   -0.7341    0.4970 H   0  0  0  0  0  0  0  0  0  0  0  0
    4.7795    1.4554    1.9803 H   0  0  0  0  0  0  0  0  0  0  0  0
    6.0227    0.0826    3.5675 H   0  0  0  0  0  0  0  0  0  0  0  0
  1  2  1  0
  2  3  1  0
  3  4  2  0
  4  5  1  0
  5  6  2  0
  6  7  1  0
  7  8  1  0
  8  9  1  0
  9 10  2  0
  9 11  1  0
 11 12  2  0
 11 13  1  0
 13 14  1  0
 14 15  1  0
 15 16  1  0
 16 17  1  0
 17 18  1  0
 18 19  1  0
 19 20  1  0
 20 21  2  0
 20 22  2  0
 20 23  1  0
 23 24  2  0
 24 25  1  0
 25 26  2  0
 26 27  1  0
 27 28  2  0
  6 29  1  0
 29 30  2  0
 30  3  1  0
 19 15  1  0
 28 23  1  0
  1 31  1  0
  1 32  1  0
  1 33  1  0
  4 34  1  0
  5 35  1  0
  7 36  1  0
  7 37  1  0
  8 38  1  0
 13 39  1  0
 14 40  1  0
 14 41  1  0
 15 42  1  0
 17 43  1  0
 17 44  1  0
 18 45  1  0
 18 46  1  0
 24 47  1  0
 25 48  1  0
 26 49  1  0
 27 50  1  0
 28 51  1  0
 29 52  1  0
 30 53  1  0
M  END
$$$$
