
     RDKit          3D

 44 46  0  0  0  0  0  0  0  0999 V2000
   -1.1463   -2.6588    3.8823 C   0  0  0  0  0  0  0  0  0  0  0  0
   -1.4247   -2.2935    2.4540 C   0  0  0  0  0  0  0  0  0  0  0  0
   -2.3259   -1.2757    2.1451 C   0  0  0  0  0  0  0  0  0  0  0  0
   -2.5717   -0.8881    0.8142 C   0  0  0  0  0  0  0  0  0  0  0  0
   -3.6007    0.1932    0.6086 C   0  0  0  0  0  0  0  0  0  0  0  0
   -1.8789   -1.5478   -0.2371 C   0  0  0  0  0  0  0  0  0  0  0  0
   -2.1793   -1.0351   -1.9459 S   0  0  0  0  0  6  0  0  0  0  0  0
   -3.5914   -0.7456   -2.0874 O   0  0  0  0  0  0  0  0  0  0  0  0
   -1.5435   -1.9502   -2.8689 O   0  0  0  0  0  0  0  0  0  0  0  0
   -1.3777    0.4530   -2.0509 N   0  0  0  0  0  0  0  0  0  0  0  0
   -0.0012    0.5209   -1.7042 C   0  0  0  0  0  0  0  0  0  0  0  0
    0.9608   -0.0402   -2.5418 C   0  0  0  0  0  0  0  0  0  0  0  0
    2.3077   -0.0064   -2.1792 C   0  0  0  0  0  0  0  0  0  0  0  0
    2.6837    0.5866   -0.9732 C   0  0  0  0  0  0  0  0  0  0  0  0
    4.0050    0.6078   -0.6172 O   0  0  0  0  0  0  0  0  0  0  0  0
    1.7230    1.1537   -0.1232 C   0  0  0  0  0  0  0  0  0  0  0  0
    2.1565    1.8993    1.4410 S   0  0  0  0  0  0  0  0  0  0  0  0
    2.6168    3.5135    0.9595 C   0  0  0  0  0  0  0  0  0  0  0  0
    3.4947    4.2699    1.6942 N   0  0  0  0  0  0  0  0  0  0  0  0
    3.5501    5.3977    1.0278 C   0  0  0  0  0  0  0  0  0  0  0  0
    2.7255    5.3270   -0.0478 N   0  0  0  0  0  0  0  0  0  0  0  0
    2.0975    4.1433   -0.1036 N   0  0  0  0  0  0  0  0  0  0  0  0
    0.3737    1.1120   -0.4977 C   0  0  0  0  0  0  0  0  0  0  0  0
   -0.9661   -2.5890    0.0656 C   0  0  0  0  0  0  0  0  0  0  0  0
   -0.2010   -3.3832   -0.9587 C   0  0  0  0  0  0  0  0  0  0  0  0
   -0.7488   -2.9328    1.4146 C   0  0  0  0  0  0  0  0  0  0  0  0
   -0.3239   -2.0499    4.2702 H   0  0  0  0  0  0  0  0  0  0  0  0
   -0.8761   -3.7164    3.9701 H   0  0  0  0  0  0  0  0  0  0  0  0
   -2.0313   -2.4979    4.5070 H   0  0  0  0  0  0  0  0  0  0  0  0
   -2.8506   -0.7761    2.9591 H   0  0  0  0  0  0  0  0  0  0  0  0
   -3.8533    0.6875    1.5539 H   0  0  0  0  0  0  0  0  0  0  0  0
   -3.2310    0.9814   -0.0498 H   0  0  0  0  0  0  0  0  0  0  0  0
   -4.5268   -0.2329    0.2122 H   0  0  0  0  0  0  0  0  0  0  0  0
   -1.9727    1.2355   -1.7886 H   0  0  0  0  0  0  0  0  0  0  0  0
    0.6669   -0.5060   -3.4799 H   0  0  0  0  0  0  0  0  0  0  0  0
    3.0428   -0.4495   -2.8440 H   0  0  0  0  0  0  0  0  0  0  0  0
    4.5331    0.1868   -1.3139 H   0  0  0  0  0  0  0  0  0  0  0  0
    4.1451    6.2664    1.2699 H   0  0  0  0  0  0  0  0  0  0  0  0
    2.5388    6.0241   -0.7595 H   0  0  0  0  0  0  0  0  0  0  0  0
   -0.3785    1.5405    0.1586 H   0  0  0  0  0  0  0  0  0  0  0  0
    0.4338   -2.7340   -1.5655 H   0  0  0  0  0  0  0  0  0  0  0  0
   -0.8865   -3.9603   -1.5863 H   0  0  0  0  0  0  0  0  0  0  0  0
    0.4706   -4.1091   -0.4857 H   0  0  0  0  0  0  0  0  0  0  0  0
   -0.0384   -3.7218    1.6613 H   0  0  0  0  0  0  0  0  0  0  0  0
  1  2  1  0
  2  3  2  0
  3  4  1  0
  4  5  1  0
  4  6  2  0
  6  7  1  0
  7  8  2  0
  7  9  2  0
  7 10  1  0
 10 11  1  0
 11 12  2  0
 12 13  1  0
 13 14  2  0
 14 15  1  0
 14 16  1  0
 16 17  1  0
 17 18  1  0
 18 19  1  0
 19 20  2  0
 20 21  1  0
 21 22  1  0
 16 23  2  0
  6 24  1  0
 24 25  1  0
 24 26  2  0
 26  2  1  0
 23 11  1  0
 22 18  2  0
  1 27  1  0
  1 28  1  0
  1 29  1  0
  3 30  1  0
  5 31  1  0
  5 32  1  0
  5 33  1  0
 10 34  1  0
 12 35  1  0
 13 36  1  0
 15 37  1  0
 20 38  1  0
 21 39  1  0
 23 40  1  0
 25 41  1  0
 25 42  1  0
 25 43  1  0
 26 44  1  0
M  END
$$$$
