
     RDKit          3D

 53 55  0  0  0  0  0  0  0  0999 V2000
   -7.0769   -4.9797    3.5592 C   0  0  0  0  0  0  0  0  0  0  0  0
   -5.6587   -4.9115    3.4740 O   0  0  0  0  0  0  0  0  0  0  0  0
   -5.1317   -3.9730    2.6304 C   0  0  0  0  0  0  0  0  0  0  0  0
   -5.8586   -3.0777    1.8419 C   0  0  0  0  0  0  0  0  0  0  0  0
   -5.1930   -2.1621    1.0197 C   0  0  0  0  0  0  0  0  0  0  0  0
   -3.7968   -2.1456    0.9944 C   0  0  0  0  0  0  0  0  0  0  0  0
   -2.9334   -0.9890   -0.0363 S   0  0  0  0  0  6  0  0  0  0  0  0
   -1.9486   -1.7278   -0.7939 O   0  0  0  0  0  0  0  0  0  0  0  0
   -3.9031   -0.1354   -0.6904 O   0  0  0  0  0  0  0  0  0  0  0  0
   -2.1163   -0.0358    1.0931 N   0  0  0  0  0  0  0  0  0  0  0  0
   -2.9370    0.8170    1.9784 C   0  0  0  0  0  0  0  0  0  0  0  0
   -2.5508    2.2233    1.5799 C   0  0  0  0  0  0  0  0  0  0  0  0
   -1.1769    2.0980    1.2073 O   0  0  0  0  0  0  0  0  0  0  0  0
   -1.1011    0.8514    0.4824 C   0  0  0  0  0  0  0  0  0  0  0  0
    0.3130    0.2712    0.6413 C   0  0  0  0  0  0  0  0  0  0  0  0
    1.3404    1.1734    0.1493 N   0  0  0  0  0  0  0  0  0  0  0  0
    2.6280    0.7491   -0.0778 C   0  0  0  0  0  0  0  0  0  0  0  0
    3.0194   -0.4094   -0.0734 O   0  0  0  0  0  0  0  0  0  0  0  0
    3.6249    1.9010   -0.3419 C   0  0  0  0  0  0  0  0  0  0  0  0
    3.2511    3.0639   -0.2797 O   0  0  0  0  0  0  0  0  0  0  0  0
    4.8945    1.4671   -0.6385 N   0  0  0  0  0  0  0  0  0  0  0  0
    5.9361    2.3618   -1.0684 C   0  0  0  0  0  0  0  0  0  0  0  0
    6.0384    2.3838   -2.5719 C   0  0  0  0  0  0  0  0  0  0  0  0
    5.2170    3.2409   -3.3234 C   0  0  0  0  0  0  0  0  0  0  0  0
    5.2917    3.2493   -4.7169 C   0  0  0  0  0  0  0  0  0  0  0  0
    6.1809    2.3972   -5.3601 C   0  0  0  0  0  0  0  0  0  0  0  0
    6.2526    2.4050   -6.6977 F   0  0  0  0  0  0  0  0  0  0  0  0
    6.9952    1.5336   -4.6363 C   0  0  0  0  0  0  0  0  0  0  0  0
    6.9222    1.5230   -3.2421 C   0  0  0  0  0  0  0  0  0  0  0  0
   -3.0601   -3.0411    1.7703 C   0  0  0  0  0  0  0  0  0  0  0  0
   -3.7336   -3.9494    2.5882 C   0  0  0  0  0  0  0  0  0  0  0  0
   -7.5197   -5.2394    2.5914 H   0  0  0  0  0  0  0  0  0  0  0  0
   -7.3311   -5.7753    4.2666 H   0  0  0  0  0  0  0  0  0  0  0  0
   -7.4932   -4.0434    3.9471 H   0  0  0  0  0  0  0  0  0  0  0  0
   -6.9435   -3.0702    1.8397 H   0  0  0  0  0  0  0  0  0  0  0  0
   -5.7700   -1.4736    0.4055 H   0  0  0  0  0  0  0  0  0  0  0  0
   -2.6337    0.6082    3.0109 H   0  0  0  0  0  0  0  0  0  0  0  0
   -4.0142    0.6534    1.9019 H   0  0  0  0  0  0  0  0  0  0  0  0
   -3.1215    2.5749    0.7127 H   0  0  0  0  0  0  0  0  0  0  0  0
   -2.6581    2.9420    2.3969 H   0  0  0  0  0  0  0  0  0  0  0  0
   -1.3170    1.0767   -0.5693 H   0  0  0  0  0  0  0  0  0  0  0  0
    0.4073   -0.6910    0.1267 H   0  0  0  0  0  0  0  0  0  0  0  0
    0.5361    0.1014    1.7018 H   0  0  0  0  0  0  0  0  0  0  0  0
    1.2210    2.1744    0.2998 H   0  0  0  0  0  0  0  0  0  0  0  0
    5.0109    0.4644   -0.7518 H   0  0  0  0  0  0  0  0  0  0  0  0
    5.7539    3.3728   -0.6860 H   0  0  0  0  0  0  0  0  0  0  0  0
    6.8757    2.0118   -0.6262 H   0  0  0  0  0  0  0  0  0  0  0  0
    4.5116    3.9019   -2.8214 H   0  0  0  0  0  0  0  0  0  0  0  0
    4.6603    3.9102   -5.3022 H   0  0  0  0  0  0  0  0  0  0  0  0
    7.6777    0.8735   -5.1621 H   0  0  0  0  0  0  0  0  0  0  0  0
    7.5576    0.8400   -2.6824 H   0  0  0  0  0  0  0  0  0  0  0  0
   -1.9729   -3.0377    1.7430 H   0  0  0  0  0  0  0  0  0  0  0  0
   -3.1661   -4.6491    3.1966 H   0  0  0  0  0  0  0  0  0  0  0  0
  1  2  1  0
  2  3  1  0
  3  4  2  0
  4  5  1  0
  5  6  2  0
  6  7  1  0
  7  8  2  0
  7  9  2  0
  7 10  1  0
 10 11  1  0
 11 12  1  0
 12 13  1  0
 13 14  1  0
 14 15  1  0
 15 16  1  0
 16 17  1  0
 17 18  2  0
 17 19  1  0
 19 20  2  0
 19 21  1  0
 21 22  1  0
 22 23  1  0
 23 24  2  0
 24 25  1  0
 25 26  2  0
 26 27  1  0
 26 28  1  0
 28 29  2  0
  6 30  1  0
 30 31  2  0
 31  3  1  0
 14 10  1  0
 29 23  1  0
  1 32  1  0
  1 33  1  0
  1 34  1  0
  4 35  1  0
  5 36  1  0
 11 37  1  0
 11 38  1  0
 12 39  1  0
 12 40  1  0
 14 41  1  0
 15 42  1  0
 15 43  1  0
 16 44  1  0
 21 45  1  0
 22 46  1  0
 22 47  1  0
 24 48  1  0
 25 49  1  0
 28 50  1  0
 29 51  1  0
 30 52  1  0
 31 53  1  0
M  END
$$$$
