
     RDKit          3D

 46 49  0  0  0  0  0  0  0  0999 V2000
   -4.1952   -3.5452   -1.7264 C   0  0  0  0  0  0  0  0  0  0  0  0
   -3.5957   -2.2560   -1.7096 O   0  0  0  0  0  0  0  0  0  0  0  0
   -3.0471   -1.8447   -0.5256 C   0  0  0  0  0  0  0  0  0  0  0  0
   -3.0468   -2.5613    0.6715 C   0  0  0  0  0  0  0  0  0  0  0  0
   -2.4465   -2.0219    1.8126 C   0  0  0  0  0  0  0  0  0  0  0  0
   -1.8473   -0.7632    1.7642 C   0  0  0  0  0  0  0  0  0  0  0  0
   -1.8500   -0.0334    0.5719 C   0  0  0  0  0  0  0  0  0  0  0  0
   -1.2226    1.2799    0.5113 C   0  0  0  0  0  0  0  0  0  0  0  0
    0.0830    1.6295    0.1945 C   0  0  0  0  0  0  0  0  0  0  0  0
    1.2005    0.7607   -0.1649 C   0  0  0  0  0  0  0  0  0  0  0  0
    1.1010   -0.4601   -0.2480 O   0  0  0  0  0  0  0  0  0  0  0  0
    2.3802    1.4745   -0.3969 N   0  0  0  0  0  0  0  0  0  0  0  0
    3.4153    0.9210   -1.1084 N   0  0  0  0  0  0  0  0  0  0  0  0
    4.0585   -0.1074   -0.6266 C   0  0  0  0  0  0  0  0  0  0  0  0
    3.8647   -0.6649    0.7725 C   0  0  0  0  0  0  0  0  0  0  0  0
    5.0591   -0.7707   -1.4639 C   0  0  0  0  0  0  0  0  0  0  0  0
    5.7310   -1.9639   -1.2403 C   0  0  0  0  0  0  0  0  0  0  0  0
    6.6411   -2.2918   -2.2910 C   0  0  0  0  0  0  0  0  0  0  0  0
    6.6234   -1.3369   -3.2717 C   0  0  0  0  0  0  0  0  0  0  0  0
    7.5586   -1.3316   -4.7116 Cl  0  0  0  0  0  0  0  0  0  0  0  0
    5.5491   -0.0723   -2.9615 S   0  0  0  0  0  0  0  0  0  0  0  0
    0.2158    2.9921    0.2563 N   0  0  0  0  0  0  0  0  0  0  0  0
   -0.9497    3.5080    0.6002 N   0  0  0  0  0  0  0  0  0  0  0  0
   -1.8559    2.4983    0.7716 N   0  0  0  0  0  0  0  0  0  0  0  0
   -3.1974    2.7664    1.1460 C   0  0  0  0  0  0  0  0  0  0  0  0
   -4.0889    1.7849    1.2849 N   0  0  0  0  0  0  0  0  0  0  0  0
   -5.2667    2.4403    1.6367 O   0  0  0  0  0  0  0  0  0  0  0  0
   -5.0758    3.8160    1.7104 N   0  0  0  0  0  0  0  0  0  0  0  0
   -3.7922    4.0141    1.4134 C   0  0  0  0  0  0  0  0  0  0  0  0
   -3.1987    5.2228    1.3864 N   0  0  0  0  0  0  0  0  0  0  0  0
   -2.4453   -0.5834   -0.5699 C   0  0  0  0  0  0  0  0  0  0  0  0
   -5.0490   -3.5920   -1.0423 H   0  0  0  0  0  0  0  0  0  0  0  0
   -3.4615   -4.3254   -1.4984 H   0  0  0  0  0  0  0  0  0  0  0  0
   -4.5698   -3.7264   -2.7384 H   0  0  0  0  0  0  0  0  0  0  0  0
   -3.5026   -3.5425    0.7510 H   0  0  0  0  0  0  0  0  0  0  0  0
   -2.4455   -2.5866    2.7415 H   0  0  0  0  0  0  0  0  0  0  0  0
   -1.3821   -0.3623    2.6612 H   0  0  0  0  0  0  0  0  0  0  0  0
    2.2318    2.4623   -0.5995 H   0  0  0  0  0  0  0  0  0  0  0  0
    3.3427    0.0350    1.4281 H   0  0  0  0  0  0  0  0  0  0  0  0
    4.8378   -0.8658    1.2316 H   0  0  0  0  0  0  0  0  0  0  0  0
    3.3025   -1.6015    0.7189 H   0  0  0  0  0  0  0  0  0  0  0  0
    5.5780   -2.5880   -0.3678 H   0  0  0  0  0  0  0  0  0  0  0  0
    7.2633   -3.1774   -2.3186 H   0  0  0  0  0  0  0  0  0  0  0  0
   -2.2801    5.3519    0.9659 H   0  0  0  0  0  0  0  0  0  0  0  0
   -3.7796    6.0549    1.3929 H   0  0  0  0  0  0  0  0  0  0  0  0
   -2.4458   -0.0358   -1.5094 H   0  0  0  0  0  0  0  0  0  0  0  0
  1  2  1  0
  2  3  1  0
  3  4  2  0
  4  5  1  0
  5  6  2  0
  6  7  1  0
  7  8  1  0
  8  9  2  0
  9 10  1  0
 10 11  2  0
 10 12  1  0
 12 13  1  0
 13 14  2  3
 14 15  1  0
 14 16  1  0
 16 17  2  0
 17 18  1  0
 18 19  2  0
 19 20  1  0
 19 21  1  0
  9 22  1  0
 22 23  2  0
 23 24  1  0
 24 25  1  0
 25 26  2  0
 26 27  1  0
 27 28  1  0
 28 29  2  0
 29 30  1  0
  7 31  2  0
 31  3  1  0
 24  8  1  0
 29 25  1  0
 21 16  1  0
  1 32  1  0
  1 33  1  0
  1 34  1  0
  4 35  1  0
  5 36  1  0
  6 37  1  0
 12 38  1  0
 15 39  1  0
 15 40  1  0
 15 41  1  0
 17 42  1  0
 18 43  1  0
 30 44  1  0
 30 45  1  0
 31 46  1  0
M  END
$$$$
