
     RDKit          3D

 44 46  0  0  0  0  0  0  0  0999 V2000
    7.8845   -3.2707    0.6260 C   0  0  0  0  0  0  0  0  0  0  0  0
    6.7369   -2.3118    0.5033 C   0  0  0  0  0  0  0  0  0  0  0  0
    5.9614   -2.2789   -0.6624 C   0  0  0  0  0  0  0  0  0  0  0  0
    4.9117   -1.3645   -0.7917 C   0  0  0  0  0  0  0  0  0  0  0  0
    4.6301   -0.4689    0.2468 C   0  0  0  0  0  0  0  0  0  0  0  0
    3.5245    0.5247    0.1537 C   0  0  0  0  0  0  0  0  0  0  0  0
    3.5586    1.5585    0.8114 O   0  0  0  0  0  0  0  0  0  0  0  0
    2.4661    0.1894   -0.6669 N   0  0  0  0  0  0  0  0  0  0  0  0
    1.2603    1.0051   -0.6579 C   0  0  0  0  0  0  0  0  0  0  0  0
    0.3006    0.5300    0.4252 C   0  0  0  0  0  0  0  0  0  0  0  0
    0.2925   -0.6011    0.8995 O   0  0  0  0  0  0  0  0  0  0  0  0
   -0.5815    1.5176    0.7335 O   0  0  0  0  0  0  0  0  0  0  0  0
   -1.5667    1.1694    1.7189 C   0  0  0  0  0  0  0  0  0  0  0  0
   -2.7515    0.4836    1.1154 C   0  0  0  0  0  0  0  0  0  0  0  0
   -2.9796   -0.8770    1.0752 C   0  0  0  0  0  0  0  0  0  0  0  0
   -4.4556   -1.2035    0.2796 S   0  0  0  0  0  0  0  0  0  0  0  0
   -4.7075    0.4861    0.0325 C   0  0  0  0  0  0  0  0  0  0  0  0
   -5.8988    1.0137   -0.6673 C   0  0  0  0  0  0  0  0  0  0  0  0
   -6.9592    0.2082   -1.1159 C   0  0  0  0  0  0  0  0  0  0  0  0
   -8.0619    0.7666   -1.7728 C   0  0  0  0  0  0  0  0  0  0  0  0
   -8.1254    2.1397   -1.9927 C   0  0  0  0  0  0  0  0  0  0  0  0
   -7.0880    2.9572   -1.5561 C   0  0  0  0  0  0  0  0  0  0  0  0
   -5.9875    2.3982   -0.9002 C   0  0  0  0  0  0  0  0  0  0  0  0
   -3.7421    1.2487    0.5156 N   0  0  0  0  0  0  0  0  0  0  0  0
    5.4225   -0.4788    1.3999 C   0  0  0  0  0  0  0  0  0  0  0  0
    6.4697   -1.3947    1.5268 C   0  0  0  0  0  0  0  0  0  0  0  0
    8.7998   -2.8099    0.2421 H   0  0  0  0  0  0  0  0  0  0  0  0
    8.0429   -3.5579    1.6708 H   0  0  0  0  0  0  0  0  0  0  0  0
    7.6877   -4.1895    0.0636 H   0  0  0  0  0  0  0  0  0  0  0  0
    6.1759   -2.9622   -1.4817 H   0  0  0  0  0  0  0  0  0  0  0  0
    4.3450   -1.3465   -1.7180 H   0  0  0  0  0  0  0  0  0  0  0  0
    2.3363   -0.7943   -0.8694 H   0  0  0  0  0  0  0  0  0  0  0  0
    1.5238    2.0535   -0.4893 H   0  0  0  0  0  0  0  0  0  0  0  0
    0.7731    0.8925   -1.6302 H   0  0  0  0  0  0  0  0  0  0  0  0
   -1.8954    2.1079    2.1797 H   0  0  0  0  0  0  0  0  0  0  0  0
   -1.1230    0.5727    2.5257 H   0  0  0  0  0  0  0  0  0  0  0  0
   -2.3554   -1.6718    1.4601 H   0  0  0  0  0  0  0  0  0  0  0  0
   -6.9551   -0.8679   -0.9639 H   0  0  0  0  0  0  0  0  0  0  0  0
   -8.8720    0.1252   -2.1115 H   0  0  0  0  0  0  0  0  0  0  0  0
   -8.9825    2.5718   -2.5024 H   0  0  0  0  0  0  0  0  0  0  0  0
   -7.1308    4.0304   -1.7232 H   0  0  0  0  0  0  0  0  0  0  0  0
   -5.1865    3.0569   -0.5664 H   0  0  0  0  0  0  0  0  0  0  0  0
    5.2258    0.2275    2.2042 H   0  0  0  0  0  0  0  0  0  0  0  0
    7.0762   -1.3852    2.4301 H   0  0  0  0  0  0  0  0  0  0  0  0
  1  2  1  0
  2  3  2  0
  3  4  1  0
  4  5  2  0
  5  6  1  0
  6  7  2  0
  6  8  1  0
  8  9  1  0
  9 10  1  0
 10 11  2  0
 10 12  1  0
 12 13  1  0
 13 14  1  0
 14 15  2  0
 15 16  1  0
 16 17  1  0
 17 18  1  0
 18 19  2  0
 19 20  1  0
 20 21  2  0
 21 22  1  0
 22 23  2  0
 17 24  2  0
  5 25  1  0
 25 26  2  0
 26  2  1  0
 24 14  1  0
 23 18  1  0
  1 27  1  0
  1 28  1  0
  1 29  1  0
  3 30  1  0
  4 31  1  0
  8 32  1  0
  9 33  1  0
  9 34  1  0
 13 35  1  0
 13 36  1  0
 15 37  1  0
 19 38  1  0
 20 39  1  0
 21 40  1  0
 22 41  1  0
 23 42  1  0
 25 43  1  0
 26 44  1  0
M  END
$$$$
