
     RDKit          3D

 46 49  0  0  0  0  0  0  0  0999 V2000
    4.6202    0.9970    0.6044 O   0  0  0  0  0  0  0  0  0  0  0  0
    3.5359    1.5568    0.4594 C   0  0  0  0  0  0  0  0  0  0  0  0
    3.2215    2.3150   -0.8248 C   0  0  0  0  0  0  0  0  0  0  0  0
    2.2734    1.2759   -1.9820 S   0  0  0  0  0  0  0  0  0  0  0  0
    0.7075    1.3183   -1.2524 C   0  0  0  0  0  0  0  0  0  0  0  0
    0.3399    2.1505   -0.3061 N   0  0  0  0  0  0  0  0  0  0  0  0
   -0.9288    1.8191    0.0732 N   0  0  0  0  0  0  0  0  0  0  0  0
   -1.3347    0.8083   -0.6753 C   0  0  0  0  0  0  0  0  0  0  0  0
   -2.6709    0.1405   -0.5733 C   0  0  0  0  0  0  0  0  0  0  0  0
   -3.5686    0.3756   -1.7598 C   0  0  0  0  0  0  0  0  0  0  0  0
   -4.1752   -0.5678   -2.5693 C   0  0  0  0  0  0  0  0  0  0  0  0
   -4.9580    0.0243   -3.6018 C   0  0  0  0  0  0  0  0  0  0  0  0
   -4.9434    1.3994   -3.5357 C   0  0  0  0  0  0  0  0  0  0  0  0
   -3.9964    1.9691   -2.2352 S   0  0  0  0  0  0  0  0  0  0  0  0
   -0.3167    0.4595   -1.5415 N   0  0  0  0  0  0  0  0  0  0  0  0
   -0.3417   -0.5743   -2.5579 C   0  0  0  0  0  0  0  0  0  0  0  0
   -0.2610   -1.9328   -1.9660 C   0  0  0  0  0  0  0  0  0  0  0  0
   -0.9743   -3.0964   -2.1708 C   0  0  0  0  0  0  0  0  0  0  0  0
   -0.4196   -4.0638   -1.2983 C   0  0  0  0  0  0  0  0  0  0  0  0
    0.6013   -3.4348   -0.6254 C   0  0  0  0  0  0  0  0  0  0  0  0
    0.7087   -2.1443   -1.0290 O   0  0  0  0  0  0  0  0  0  0  0  0
    2.5050    1.5924    1.3831 N   0  0  0  0  0  0  0  0  0  0  0  0
    2.4502    0.9783    2.6506 C   0  0  0  0  0  0  0  0  0  0  0  0
    3.5221    0.3053    3.2422 C   0  0  0  0  0  0  0  0  0  0  0  0
    3.3805   -0.2850    4.5016 C   0  0  0  0  0  0  0  0  0  0  0  0
    2.1656   -0.2073    5.1798 C   0  0  0  0  0  0  0  0  0  0  0  0
    1.0972    0.4659    4.5948 C   0  0  0  0  0  0  0  0  0  0  0  0
   -0.4077    0.5686    5.4270 Cl  0  0  0  0  0  0  0  0  0  0  0  0
    1.2339    1.0591    3.3404 C   0  0  0  0  0  0  0  0  0  0  0  0
    2.7018    3.2543   -0.6063 H   0  0  0  0  0  0  0  0  0  0  0  0
    4.1713    2.5832   -1.3001 H   0  0  0  0  0  0  0  0  0  0  0  0
   -3.1821    0.4984    0.3309 H   0  0  0  0  0  0  0  0  0  0  0  0
   -2.5302   -0.9392   -0.4270 H   0  0  0  0  0  0  0  0  0  0  0  0
   -4.0658   -1.6374   -2.4265 H   0  0  0  0  0  0  0  0  0  0  0  0
   -5.5142   -0.5285   -4.3503 H   0  0  0  0  0  0  0  0  0  0  0  0
   -5.4530    2.0989   -4.1854 H   0  0  0  0  0  0  0  0  0  0  0  0
    0.4838   -0.4229   -3.2583 H   0  0  0  0  0  0  0  0  0  0  0  0
   -1.2626   -0.4483   -3.1354 H   0  0  0  0  0  0  0  0  0  0  0  0
   -1.7911   -3.2337   -2.8628 H   0  0  0  0  0  0  0  0  0  0  0  0
   -0.7212   -5.0941   -1.1773 H   0  0  0  0  0  0  0  0  0  0  0  0
    1.3105   -3.7478    0.1301 H   0  0  0  0  0  0  0  0  0  0  0  0
    1.6335    2.0198    1.0647 H   0  0  0  0  0  0  0  0  0  0  0  0
    4.4845    0.2246    2.7468 H   0  0  0  0  0  0  0  0  0  0  0  0
    4.2229   -0.8058    4.9491 H   0  0  0  0  0  0  0  0  0  0  0  0
    2.0609   -0.6747    6.1574 H   0  0  0  0  0  0  0  0  0  0  0  0
    0.3850    1.5808    2.9002 H   0  0  0  0  0  0  0  0  0  0  0  0
  1  2  2  0
  2  3  1  0
  3  4  1  0
  4  5  1  0
  5  6  2  0
  6  7  1  0
  7  8  2  0
  8  9  1  0
  9 10  1  0
 10 11  2  0
 11 12  1  0
 12 13  2  0
 13 14  1  0
  8 15  1  0
 15 16  1  0
 16 17  1  0
 17 18  2  0
 18 19  1  0
 19 20  2  0
 20 21  1  0
  2 22  1  0
 22 23  1  0
 23 24  2  0
 24 25  1  0
 25 26  2  0
 26 27  1  0
 27 28  1  0
 27 29  2  0
 15  5  1  0
 21 17  1  0
 29 23  1  0
 14 10  1  0
  3 30  1  0
  3 31  1  0
  9 32  1  0
  9 33  1  0
 11 34  1  0
 12 35  1  0
 13 36  1  0
 16 37  1  0
 16 38  1  0
 18 39  1  0
 19 40  1  0
 20 41  1  0
 22 42  1  0
 24 43  1  0
 25 44  1  0
 26 45  1  0
 29 46  1  0
M  END
$$$$
