
     RDKit          3D

 39 39  0  0  0  0  0  0  0  0999 V2000
   -3.9268    3.2901   -0.2130 C   0  0  0  0  0  0  0  0  0  0  0  0
   -3.6912    2.1981    0.7847 C   0  0  0  0  0  0  0  0  0  0  0  0
   -4.5405    1.3978    1.1488 O   0  0  0  0  0  0  0  0  0  0  0  0
   -2.3973    2.2239    1.2043 O   0  0  0  0  0  0  0  0  0  0  0  0
   -2.0362    1.2509    2.1974 C   0  0  0  0  0  0  0  0  0  0  0  0
   -1.6417   -0.0769    1.5505 C   0  0  0  0  0  0  0  0  0  0  0  0
   -0.3840    0.0473    0.6692 C   0  0  0  0  0  0  0  0  0  0  0  0
    0.7906    0.2075    1.5425 N   0  0  0  0  0  0  0  0  0  0  0  0
    1.9425    1.3380    1.1161 S   0  0  0  0  0  6  0  0  0  0  0  0
    3.0198    1.1740    2.0647 O   0  0  0  0  0  0  0  0  0  0  0  0
    1.2710    2.6043    0.9485 O   0  0  0  0  0  0  0  0  0  0  0  0
    2.4591    0.8531   -0.3401 O   0  0  0  0  0  0  0  0  0  0  0  0
    3.4144   -0.2006   -0.4381 C   0  0  0  0  0  0  0  0  0  0  0  0
    4.2381   -0.0962   -1.7305 C   0  0  0  0  0  0  0  0  0  0  0  0
    3.1837   -0.1322   -3.1767 Cl  0  0  0  0  0  0  0  0  0  0  0  0
    5.1906    1.4197   -1.7465 Cl  0  0  0  0  0  0  0  0  0  0  0  0
    5.3722   -1.4827   -1.8242 Cl  0  0  0  0  0  0  0  0  0  0  0  0
   -0.2119   -1.1717   -0.2247 C   0  0  0  0  0  0  0  0  0  0  0  0
   -0.1231   -2.4702    0.3052 C   0  0  0  0  0  0  0  0  0  0  0  0
    0.0663   -3.5701   -0.5336 C   0  0  0  0  0  0  0  0  0  0  0  0
    0.1694   -3.3886   -1.9104 C   0  0  0  0  0  0  0  0  0  0  0  0
    0.0795   -2.1086   -2.4508 C   0  0  0  0  0  0  0  0  0  0  0  0
   -0.1089   -1.0067   -1.6146 C   0  0  0  0  0  0  0  0  0  0  0  0
   -3.7056    4.2602    0.2393 H   0  0  0  0  0  0  0  0  0  0  0  0
   -3.3039    3.1255   -1.0957 H   0  0  0  0  0  0  0  0  0  0  0  0
   -4.9770    3.2815   -0.5185 H   0  0  0  0  0  0  0  0  0  0  0  0
   -1.2014    1.6676    2.7706 H   0  0  0  0  0  0  0  0  0  0  0  0
   -2.8583    1.1045    2.9082 H   0  0  0  0  0  0  0  0  0  0  0  0
   -2.4775   -0.4315    0.9342 H   0  0  0  0  0  0  0  0  0  0  0  0
   -1.4863   -0.8187    2.3438 H   0  0  0  0  0  0  0  0  0  0  0  0
   -0.5057    0.9317    0.0327 H   0  0  0  0  0  0  0  0  0  0  0  0
    1.1922   -0.6420    1.9298 H   0  0  0  0  0  0  0  0  0  0  0  0
    2.8702   -1.1512   -0.4038 H   0  0  0  0  0  0  0  0  0  0  0  0
    4.0962   -0.1879    0.4202 H   0  0  0  0  0  0  0  0  0  0  0  0
   -0.2070   -2.6413    1.3762 H   0  0  0  0  0  0  0  0  0  0  0  0
    0.1274   -4.5713   -0.1136 H   0  0  0  0  0  0  0  0  0  0  0  0
    0.3131   -4.2455   -2.5640 H   0  0  0  0  0  0  0  0  0  0  0  0
    0.1577   -1.9662   -3.5264 H   0  0  0  0  0  0  0  0  0  0  0  0
   -0.1696   -0.0156   -2.0618 H   0  0  0  0  0  0  0  0  0  0  0  0
  1  2  1  0
  2  3  2  0
  2  4  1  0
  4  5  1  0
  5  6  1  0
  6  7  1  0
  7  8  1  0
  8  9  1  0
  9 10  2  0
  9 11  2  0
  9 12  1  0
 12 13  1  0
 13 14  1  0
 14 15  1  0
 14 16  1  0
 14 17  1  0
  7 18  1  0
 18 19  2  0
 19 20  1  0
 20 21  2  0
 21 22  1  0
 22 23  2  0
 23 18  1  0
  1 24  1  0
  1 25  1  0
  1 26  1  0
  5 27  1  0
  5 28  1  0
  6 29  1  0
  6 30  1  0
  7 31  1  0
  8 32  1  0
 13 33  1  0
 13 34  1  0
 19 35  1  0
 20 36  1  0
 21 37  1  0
 22 38  1  0
 23 39  1  0
M  END
$$$$
