
     RDKit          3D

 61 65  0  0  0  0  0  0  0  0999 V2000
   -9.0097    2.4792   -2.9691 C   0  0  0  0  0  0  0  0  0  0  0  0
   -7.9183    1.6583   -2.3447 C   0  0  0  0  0  0  0  0  0  0  0  0
   -8.2227    0.4538   -1.7045 C   0  0  0  0  0  0  0  0  0  0  0  0
   -7.2101   -0.3128   -1.1130 C   0  0  0  0  0  0  0  0  0  0  0  0
   -5.8625    0.0912   -1.1491 C   0  0  0  0  0  0  0  0  0  0  0  0
   -4.8083   -0.7409   -0.5297 C   0  0  0  0  0  0  0  0  0  0  0  0
   -3.5008   -0.7691   -0.9834 C   0  0  0  0  0  0  0  0  0  0  0  0
   -2.5808   -1.5851   -0.3257 C   0  0  0  0  0  0  0  0  0  0  0  0
   -1.1875   -1.5391   -0.8301 C   0  0  0  0  0  0  0  0  0  0  0  0
   -0.9923   -1.8221   -2.0055 O   0  0  0  0  0  0  0  0  0  0  0  0
   -0.2623   -1.1193    0.1083 N   0  0  0  0  0  0  0  0  0  0  0  0
    1.1353   -1.0192   -0.0546 C   0  0  0  0  0  0  0  0  0  0  0  0
    1.8753   -0.5715    1.0487 C   0  0  0  0  0  0  0  0  0  0  0  0
    3.2670   -0.4688    0.9827 C   0  0  0  0  0  0  0  0  0  0  0  0
    3.9256   -0.8077   -0.1994 C   0  0  0  0  0  0  0  0  0  0  0  0
    5.6980   -0.7323   -0.2597 S   0  0  0  0  0  6  0  0  0  0  0  0
    6.1362   -1.4173   -1.4595 O   0  0  0  0  0  0  0  0  0  0  0  0
    6.2127   -1.1138    1.0357 O   0  0  0  0  0  0  0  0  0  0  0  0
    5.9611    0.9079   -0.5673 N   0  0  0  0  0  0  0  0  0  0  0  0
    6.4984    1.6405    0.5628 C   0  0  0  0  0  0  0  0  0  0  0  0
    5.8671    1.7707    1.7563 O   0  0  0  0  0  0  0  0  0  0  0  0
    6.6409    2.5304    2.6123 N   0  0  0  0  0  0  0  0  0  0  0  0
    7.7381    2.8499    1.9198 C   0  0  0  0  0  0  0  0  0  0  0  0
    8.8132    3.6375    2.5691 C   0  0  0  0  0  0  0  0  0  0  0  0
    7.6943    2.3265    0.5949 C   0  0  0  0  0  0  0  0  0  0  0  0
    8.7146    2.4499   -0.4707 C   0  0  0  0  0  0  0  0  0  0  0  0
    3.2044   -1.2579   -1.3052 C   0  0  0  0  0  0  0  0  0  0  0  0
    1.8106   -1.3568   -1.2299 C   0  0  0  0  0  0  0  0  0  0  0  0
   -2.9717   -2.4070    0.7517 C   0  0  0  0  0  0  0  0  0  0  0  0
   -2.1252   -3.3200    1.4333 C   0  0  0  0  0  0  0  0  0  0  0  0
   -2.6020   -4.0866    2.4973 C   0  0  0  0  0  0  0  0  0  0  0  0
   -3.9273   -3.9602    2.8906 C   0  0  0  0  0  0  0  0  0  0  0  0
   -4.7684   -3.0781    2.2081 C   0  0  0  0  0  0  0  0  0  0  0  0
   -4.3196   -2.3055    1.1415 C   0  0  0  0  0  0  0  0  0  0  0  0
   -5.1988   -1.4961    0.5276 N   0  0  0  0  0  0  0  0  0  0  0  0
   -5.5780    1.3121   -1.7901 C   0  0  0  0  0  0  0  0  0  0  0  0
   -6.5882    2.0849   -2.3773 C   0  0  0  0  0  0  0  0  0  0  0  0
   -8.6033    3.3573   -3.4867 H   0  0  0  0  0  0  0  0  0  0  0  0
   -9.5603    1.8833   -3.7095 H   0  0  0  0  0  0  0  0  0  0  0  0
   -9.6999    2.8318   -2.1988 H   0  0  0  0  0  0  0  0  0  0  0  0
   -9.2500    0.0984   -1.6589 H   0  0  0  0  0  0  0  0  0  0  0  0
   -7.4837   -1.2458   -0.6180 H   0  0  0  0  0  0  0  0  0  0  0  0
   -3.1855   -0.1857   -1.8428 H   0  0  0  0  0  0  0  0  0  0  0  0
   -0.6245   -0.8533    1.0177 H   0  0  0  0  0  0  0  0  0  0  0  0
    1.3820   -0.3031    1.9798 H   0  0  0  0  0  0  0  0  0  0  0  0
    3.8263   -0.1356    1.8539 H   0  0  0  0  0  0  0  0  0  0  0  0
    6.4542    1.0143   -1.4481 H   0  0  0  0  0  0  0  0  0  0  0  0
    9.1161    4.4743    1.9356 H   0  0  0  0  0  0  0  0  0  0  0  0
    8.4918    4.0457    3.5360 H   0  0  0  0  0  0  0  0  0  0  0  0
    9.6827    3.0040    2.7452 H   0  0  0  0  0  0  0  0  0  0  0  0
    9.4485    3.2289   -0.2382 H   0  0  0  0  0  0  0  0  0  0  0  0
    8.2489    2.7075   -1.4274 H   0  0  0  0  0  0  0  0  0  0  0  0
    9.2513    1.5022   -0.5907 H   0  0  0  0  0  0  0  0  0  0  0  0
    3.7092   -1.5426   -2.2251 H   0  0  0  0  0  0  0  0  0  0  0  0
    1.2807   -1.7101   -2.1084 H   0  0  0  0  0  0  0  0  0  0  0  0
   -1.0884   -3.4608    1.1268 H   0  0  0  0  0  0  0  0  0  0  0  0
   -1.9440   -4.7855    3.0066 H   0  0  0  0  0  0  0  0  0  0  0  0
   -4.3148   -4.5550    3.7164 H   0  0  0  0  0  0  0  0  0  0  0  0
   -5.8105   -2.9965    2.5156 H   0  0  0  0  0  0  0  0  0  0  0  0
   -4.5610    1.6960   -1.8310 H   0  0  0  0  0  0  0  0  0  0  0  0
   -6.3240    3.0250   -2.8588 H   0  0  0  0  0  0  0  0  0  0  0  0
  1  2  1  0
  2  3  2  0
  3  4  1  0
  4  5  2  0
  5  6  1  0
  6  7  2  0
  7  8  1  0
  8  9  1  0
  9 10  2  0
  9 11  1  0
 11 12  1  0
 12 13  2  0
 13 14  1  0
 14 15  2  0
 15 16  1  0
 16 17  2  0
 16 18  2  0
 16 19  1  0
 19 20  1  0
 20 21  1  0
 21 22  1  0
 22 23  2  0
 23 24  1  0
 23 25  1  0
 25 26  1  0
 15 27  1  0
 27 28  2  0
  8 29  2  0
 29 30  1  0
 30 31  2  0
 31 32  1  0
 32 33  2  0
 33 34  1  0
 34 35  2  0
  5 36  1  0
 36 37  2  0
 37  2  1  0
 35  6  1  0
 28 12  1  0
 34 29  1  0
 25 20  2  0
  1 38  1  0
  1 39  1  0
  1 40  1  0
  3 41  1  0
  4 42  1  0
  7 43  1  0
 11 44  1  0
 13 45  1  0
 14 46  1  0
 19 47  1  0
 24 48  1  0
 24 49  1  0
 24 50  1  0
 26 51  1  0
 26 52  1  0
 26 53  1  0
 27 54  1  0
 28 55  1  0
 30 56  1  0
 31 57  1  0
 32 58  1  0
 33 59  1  0
 36 60  1  0
 37 61  1  0
M  END
$$$$
