
     RDKit          3D

 43 45  0  0  0  0  0  0  0  0999 V2000
    7.8027   -1.0763    1.7891 C   0  0  0  0  0  0  0  0  0  0  0  0
    6.4257   -0.7324    1.6286 O   0  0  0  0  0  0  0  0  0  0  0  0
    6.0848   -0.4049    0.3574 C   0  0  0  0  0  0  0  0  0  0  0  0
    6.8378   -0.3909   -0.6037 O   0  0  0  0  0  0  0  0  0  0  0  0
    4.6403   -0.0560    0.2726 C   0  0  0  0  0  0  0  0  0  0  0  0
    4.1235    0.3299   -0.9714 C   0  0  0  0  0  0  0  0  0  0  0  0
    2.7715    0.6681   -1.1091 C   0  0  0  0  0  0  0  0  0  0  0  0
    1.9232    0.6209   -0.0030 C   0  0  0  0  0  0  0  0  0  0  0  0
    0.5898    0.9193    0.0034 O   0  0  0  0  0  0  0  0  0  0  0  0
   -0.0059    1.2613   -1.2414 C   0  0  0  0  0  0  0  0  0  0  0  0
   -1.5033    1.5459   -1.0556 C   0  0  0  0  0  0  0  0  0  0  0  0
   -1.8931    2.6968   -1.2742 O   0  0  0  0  0  0  0  0  0  0  0  0
   -2.3323    0.4582   -0.6961 N   0  0  0  0  0  0  0  0  0  0  0  0
   -1.8222   -0.9152   -0.8202 C   0  0  0  0  0  0  0  0  0  0  0  0
   -2.6648   -1.9775   -0.1397 C   0  0  0  0  0  0  0  0  0  0  0  0
   -4.0816   -1.8917   -0.6599 C   0  0  0  0  0  0  0  0  0  0  0  0
   -4.6073   -0.5025   -0.4319 C   0  0  0  0  0  0  0  0  0  0  0  0
   -5.9922   -0.3466   -0.2323 C   0  0  0  0  0  0  0  0  0  0  0  0
   -6.5385    0.9100   -0.0009 C   0  0  0  0  0  0  0  0  0  0  0  0
   -5.7044    2.0175    0.0360 C   0  0  0  0  0  0  0  0  0  0  0  0
   -4.3288    1.8715   -0.1796 C   0  0  0  0  0  0  0  0  0  0  0  0
   -3.7501    0.6208   -0.4468 C   0  0  0  0  0  0  0  0  0  0  0  0
    2.4386    0.2391    1.2387 C   0  0  0  0  0  0  0  0  0  0  0  0
    3.7880   -0.0988    1.3812 C   0  0  0  0  0  0  0  0  0  0  0  0
    8.0505   -1.9567    1.1880 H   0  0  0  0  0  0  0  0  0  0  0  0
    8.4432   -0.2301    1.5214 H   0  0  0  0  0  0  0  0  0  0  0  0
    7.9708   -1.3179    2.8423 H   0  0  0  0  0  0  0  0  0  0  0  0
    4.7747    0.3730   -1.8433 H   0  0  0  0  0  0  0  0  0  0  0  0
    2.4225    0.9682   -2.0919 H   0  0  0  0  0  0  0  0  0  0  0  0
    0.1168    0.4677   -1.9875 H   0  0  0  0  0  0  0  0  0  0  0  0
    0.4525    2.1803   -1.6286 H   0  0  0  0  0  0  0  0  0  0  0  0
   -1.7319   -1.1284   -1.8931 H   0  0  0  0  0  0  0  0  0  0  0  0
   -0.8180   -0.9799   -0.3961 H   0  0  0  0  0  0  0  0  0  0  0  0
   -2.2488   -2.9717   -0.3365 H   0  0  0  0  0  0  0  0  0  0  0  0
   -2.6479   -1.8259    0.9474 H   0  0  0  0  0  0  0  0  0  0  0  0
   -4.1216   -2.1210   -1.7314 H   0  0  0  0  0  0  0  0  0  0  0  0
   -4.6982   -2.6304   -0.1346 H   0  0  0  0  0  0  0  0  0  0  0  0
   -6.6500   -1.2130   -0.2481 H   0  0  0  0  0  0  0  0  0  0  0  0
   -7.6069    1.0233    0.1601 H   0  0  0  0  0  0  0  0  0  0  0  0
   -6.1149    3.0046    0.2334 H   0  0  0  0  0  0  0  0  0  0  0  0
   -3.7326    2.7753   -0.1071 H   0  0  0  0  0  0  0  0  0  0  0  0
    1.7831    0.2065    2.1066 H   0  0  0  0  0  0  0  0  0  0  0  0
    4.1554   -0.3905    2.3618 H   0  0  0  0  0  0  0  0  0  0  0  0
  1  2  1  0
  2  3  1  0
  3  4  2  0
  3  5  1  0
  5  6  2  0
  6  7  1  0
  7  8  2  0
  8  9  1  0
  9 10  1  0
 10 11  1  0
 11 12  2  0
 11 13  1  0
 13 14  1  0
 14 15  1  0
 15 16  1  0
 16 17  1  0
 17 18  2  0
 18 19  1  0
 19 20  2  0
 20 21  1  0
 21 22  2  0
  8 23  1  0
 23 24  2  0
 24  5  1  0
 22 13  1  0
 22 17  1  0
  1 25  1  0
  1 26  1  0
  1 27  1  0
  6 28  1  0
  7 29  1  0
 10 30  1  0
 10 31  1  0
 14 32  1  0
 14 33  1  0
 15 34  1  0
 15 35  1  0
 16 36  1  0
 16 37  1  0
 18 38  1  0
 19 39  1  0
 20 40  1  0
 21 41  1  0
 23 42  1  0
 24 43  1  0
M  END
$$$$
