
     RDKit          3D

 41 44  0  0  0  0  0  0  0  0999 V2000
   -3.1946   -2.2512   -2.0010 O   0  0  0  0  0  0  0  0  0  0  0  0
   -2.3195   -1.5528   -1.0817 S   0  0  0  0  0  6  0  0  0  0  0  0
   -2.1615   -2.0096    0.2818 O   0  0  0  0  0  0  0  0  0  0  0  0
   -0.8130   -1.4906   -1.8456 N   0  0  0  0  0  0  0  0  0  0  0  0
    0.3331   -1.1382   -1.0657 C   0  0  0  0  0  0  0  0  0  0  0  0
    0.8794   -2.1063   -0.2174 C   0  0  0  0  0  0  0  0  0  0  0  0
    1.9807   -1.8074    0.5868 C   0  0  0  0  0  0  0  0  0  0  0  0
    2.6653   -3.1285    1.5794 S   0  0  0  0  0  0  0  0  0  0  0  0
    2.3214   -2.5926    3.1989 C   0  0  0  0  0  0  0  0  0  0  0  0
    1.5672   -3.3068    4.0850 N   0  0  0  0  0  0  0  0  0  0  0  0
    1.5893   -2.5600    5.1632 C   0  0  0  0  0  0  0  0  0  0  0  0
    2.3426   -1.4532    4.9328 N   0  0  0  0  0  0  0  0  0  0  0  0
    2.8401   -1.4553    3.6825 N   0  0  0  0  0  0  0  0  0  0  0  0
    2.5326   -0.5183    0.5204 C   0  0  0  0  0  0  0  0  0  0  0  0
    3.6064   -0.1726    1.3101 O   0  0  0  0  0  0  0  0  0  0  0  0
    2.0196    0.4666   -0.3549 C   0  0  0  0  0  0  0  0  0  0  0  0
    2.5849    1.7573   -0.4431 C   0  0  0  0  0  0  0  0  0  0  0  0
    2.0785    2.7195   -1.3163 C   0  0  0  0  0  0  0  0  0  0  0  0
    0.9971    2.4098   -2.1274 C   0  0  0  0  0  0  0  0  0  0  0  0
    0.4218    1.1407   -2.0587 C   0  0  0  0  0  0  0  0  0  0  0  0
    0.9051    0.1521   -1.1699 C   0  0  0  0  0  0  0  0  0  0  0  0
   -2.8201    0.1490   -1.0552 C   0  0  0  0  0  0  0  0  0  0  0  0
   -3.5442    0.6754   -2.1294 C   0  0  0  0  0  0  0  0  0  0  0  0
   -3.9450    2.0110   -2.0971 C   0  0  0  0  0  0  0  0  0  0  0  0
   -3.6313    2.8083   -0.9947 C   0  0  0  0  0  0  0  0  0  0  0  0
   -2.9229    2.2732    0.0827 C   0  0  0  0  0  0  0  0  0  0  0  0
   -2.5210    0.9381    0.0598 C   0  0  0  0  0  0  0  0  0  0  0  0
   -0.7063   -2.2364   -2.5321 H   0  0  0  0  0  0  0  0  0  0  0  0
    0.4304   -3.0968   -0.1737 H   0  0  0  0  0  0  0  0  0  0  0  0
    1.0986   -2.7641    6.1043 H   0  0  0  0  0  0  0  0  0  0  0  0
    2.5586   -0.6840    5.5580 H   0  0  0  0  0  0  0  0  0  0  0  0
    3.5705   -0.7325    2.1161 H   0  0  0  0  0  0  0  0  0  0  0  0
    3.4417    2.0166    0.1773 H   0  0  0  0  0  0  0  0  0  0  0  0
    2.5359    3.7041   -1.3637 H   0  0  0  0  0  0  0  0  0  0  0  0
    0.5993    3.1504   -2.8160 H   0  0  0  0  0  0  0  0  0  0  0  0
   -0.4175    0.9255   -2.7164 H   0  0  0  0  0  0  0  0  0  0  0  0
   -3.7968    0.0568   -2.9875 H   0  0  0  0  0  0  0  0  0  0  0  0
   -4.5058    2.4309   -2.9287 H   0  0  0  0  0  0  0  0  0  0  0  0
   -3.9452    3.8493   -0.9722 H   0  0  0  0  0  0  0  0  0  0  0  0
   -2.6847    2.8972    0.9407 H   0  0  0  0  0  0  0  0  0  0  0  0
   -1.9706    0.5251    0.9023 H   0  0  0  0  0  0  0  0  0  0  0  0
  1  2  2  0
  2  3  2  0
  2  4  1  0
  4  5  1  0
  5  6  2  0
  6  7  1  0
  7  8  1  0
  8  9  1  0
  9 10  1  0
 10 11  2  0
 11 12  1  0
 12 13  1  0
  7 14  2  0
 14 15  1  0
 14 16  1  0
 16 17  2  0
 17 18  1  0
 18 19  2  0
 19 20  1  0
 20 21  2  0
  2 22  1  0
 22 23  2  0
 23 24  1  0
 24 25  2  0
 25 26  1  0
 26 27  2  0
 21  5  1  0
 27 22  1  0
 13  9  2  0
 21 16  1  0
  4 28  1  0
  6 29  1  0
 11 30  1  0
 12 31  1  0
 15 32  1  0
 17 33  1  0
 18 34  1  0
 19 35  1  0
 20 36  1  0
 23 37  1  0
 24 38  1  0
 25 39  1  0
 26 40  1  0
 27 41  1  0
M  END
$$$$
