
     RDKit          3D

 57 59  0  0  0  0  0  0  0  0999 V2000
   10.1271    1.3296   -4.9089 C   0  0  0  0  0  0  0  0  0  0  0  0
   10.1505    0.4923   -3.7625 O   0  0  0  0  0  0  0  0  0  0  0  0
    9.0074    0.4311   -3.0155 C   0  0  0  0  0  0  0  0  0  0  0  0
    7.8238    1.1244   -3.2652 C   0  0  0  0  0  0  0  0  0  0  0  0
    6.7152    0.9676   -2.4199 C   0  0  0  0  0  0  0  0  0  0  0  0
    6.7834    0.1173   -1.3169 C   0  0  0  0  0  0  0  0  0  0  0  0
    5.7865   -0.1340   -0.4177 O   0  0  0  0  0  0  0  0  0  0  0  0
    4.4871    0.4210   -0.6470 C   0  0  0  0  0  0  0  0  0  0  0  0
    3.6973   -0.4433   -1.6294 C   0  0  0  0  0  0  0  0  0  0  0  0
    2.1022    0.3103   -2.0822 S   0  0  0  0  0  0  0  0  0  0  0  0
    1.1137   -0.1647   -0.7471 C   0  0  0  0  0  0  0  0  0  0  0  0
    1.5223   -0.6966    0.3766 N   0  0  0  0  0  0  0  0  0  0  0  0
    0.4141   -0.9547    1.1442 N   0  0  0  0  0  0  0  0  0  0  0  0
   -0.6542   -0.5732    0.4730 C   0  0  0  0  0  0  0  0  0  0  0  0
   -2.0644   -0.7159    0.9344 C   0  0  0  0  0  0  0  0  0  0  0  0
   -2.5343    0.5239    1.6977 C   0  0  0  0  0  0  0  0  0  0  0  0
   -3.9690    0.5221    1.9330 N   0  0  0  0  0  0  0  0  0  0  0  0
   -4.5352   -0.2906    2.8948 C   0  0  0  0  0  0  0  0  0  0  0  0
   -3.8842   -1.0441    3.6078 O   0  0  0  0  0  0  0  0  0  0  0  0
   -6.0182   -0.2535    3.0052 C   0  0  0  0  0  0  0  0  0  0  0  0
   -6.7598    0.8863    2.6831 C   0  0  0  0  0  0  0  0  0  0  0  0
   -8.1525    0.8660    2.8043 C   0  0  0  0  0  0  0  0  0  0  0  0
   -8.8163   -0.2789    3.2528 C   0  0  0  0  0  0  0  0  0  0  0  0
  -10.1771   -0.1593    3.3189 O   0  0  0  0  0  0  0  0  0  0  0  0
  -10.8966   -1.2824    3.8117 C   0  0  0  0  0  0  0  0  0  0  0  0
   -8.0739   -1.4108    3.5888 C   0  0  0  0  0  0  0  0  0  0  0  0
   -6.6798   -1.3956    3.4705 C   0  0  0  0  0  0  0  0  0  0  0  0
   -0.2493   -0.0437   -0.7307 N   0  0  0  0  0  0  0  0  0  0  0  0
   -1.0778    0.5048   -1.7736 C   0  0  0  0  0  0  0  0  0  0  0  0
    7.9716   -0.5692   -1.0664 C   0  0  0  0  0  0  0  0  0  0  0  0
    9.0741   -0.4153   -1.9101 C   0  0  0  0  0  0  0  0  0  0  0  0
    9.9821    2.3780   -4.6265 H   0  0  0  0  0  0  0  0  0  0  0  0
    9.3637    1.0035   -5.6222 H   0  0  0  0  0  0  0  0  0  0  0  0
   11.1001    1.2483   -5.4039 H   0  0  0  0  0  0  0  0  0  0  0  0
    7.7264    1.7986   -4.1089 H   0  0  0  0  0  0  0  0  0  0  0  0
    5.8201    1.5294   -2.6576 H   0  0  0  0  0  0  0  0  0  0  0  0
    3.9861    0.4227    0.3280 H   0  0  0  0  0  0  0  0  0  0  0  0
    4.5490    1.4709   -0.9502 H   0  0  0  0  0  0  0  0  0  0  0  0
    4.2640   -0.5743   -2.5567 H   0  0  0  0  0  0  0  0  0  0  0  0
    3.5565   -1.4541   -1.2288 H   0  0  0  0  0  0  0  0  0  0  0  0
   -2.7265   -0.9194    0.0850 H   0  0  0  0  0  0  0  0  0  0  0  0
   -2.1379   -1.5967    1.5829 H   0  0  0  0  0  0  0  0  0  0  0  0
   -2.3132    1.4398    1.1368 H   0  0  0  0  0  0  0  0  0  0  0  0
   -2.0197    0.5924    2.6644 H   0  0  0  0  0  0  0  0  0  0  0  0
   -4.5665    0.9814    1.2607 H   0  0  0  0  0  0  0  0  0  0  0  0
   -6.2766    1.8053    2.3666 H   0  0  0  0  0  0  0  0  0  0  0  0
   -8.7285    1.7542    2.5575 H   0  0  0  0  0  0  0  0  0  0  0  0
  -11.9600   -1.0237    3.8110 H   0  0  0  0  0  0  0  0  0  0  0  0
  -10.7658   -2.1525    3.1592 H   0  0  0  0  0  0  0  0  0  0  0  0
  -10.6098   -1.5138    4.8434 H   0  0  0  0  0  0  0  0  0  0  0  0
   -8.5444   -2.3195    3.9479 H   0  0  0  0  0  0  0  0  0  0  0  0
   -6.1095   -2.2826    3.7408 H   0  0  0  0  0  0  0  0  0  0  0  0
   -0.6964    1.4918   -2.0479 H   0  0  0  0  0  0  0  0  0  0  0  0
   -1.0523   -0.1736   -2.6296 H   0  0  0  0  0  0  0  0  0  0  0  0
   -2.1060    0.6163   -1.4256 H   0  0  0  0  0  0  0  0  0  0  0  0
    8.0405   -1.2334   -0.2091 H   0  0  0  0  0  0  0  0  0  0  0  0
    9.9909   -0.9601   -1.7007 H   0  0  0  0  0  0  0  0  0  0  0  0
  1  2  1  0
  2  3  1  0
  3  4  2  0
  4  5  1  0
  5  6  2  0
  6  7  1  0
  7  8  1  0
  8  9  1  0
  9 10  1  0
 10 11  1  0
 11 12  2  0
 12 13  1  0
 13 14  2  0
 14 15  1  0
 15 16  1  0
 16 17  1  0
 17 18  1  0
 18 19  2  0
 18 20  1  0
 20 21  2  0
 21 22  1  0
 22 23  2  0
 23 24  1  0
 24 25  1  0
 23 26  1  0
 26 27  2  0
 14 28  1  0
 28 29  1  0
  6 30  1  0
 30 31  2  0
 31  3  1  0
 28 11  1  0
 27 20  1  0
  1 32  1  0
  1 33  1  0
  1 34  1  0
  4 35  1  0
  5 36  1  0
  8 37  1  0
  8 38  1  0
  9 39  1  0
  9 40  1  0
 15 41  1  0
 15 42  1  0
 16 43  1  0
 16 44  1  0
 17 45  1  0
 21 46  1  0
 22 47  1  0
 25 48  1  0
 25 49  1  0
 25 50  1  0
 26 51  1  0
 27 52  1  0
 29 53  1  0
 29 54  1  0
 29 55  1  0
 30 56  1  0
 31 57  1  0
M  END
$$$$
