
     RDKit          3D

 30 31  0  0  0  0  0  0  0  0999 V2000
   -4.8263   -0.2817    0.3987 C   0  0  0  0  0  0  0  0  0  0  0  0
   -3.3165   -0.2679    0.1527 C   0  0  0  0  0  0  0  0  0  0  0  0
   -2.7596   -1.6789    0.3645 C   0  0  0  0  0  0  0  0  0  0  0  0
   -3.1402    0.1493   -1.2086 O   0  0  0  0  0  0  0  0  0  0  0  0
   -1.9586    0.6615   -1.5873 C   0  0  0  0  0  0  0  0  0  0  0  0
   -1.6996    1.0264   -2.7191 O   0  0  0  0  0  0  0  0  0  0  0  0
   -0.9807    0.7845   -0.4515 C   0  0  0  0  0  0  0  0  0  0  0  0
    0.2716    0.4902   -0.6595 N   0  0  0  0  0  0  0  0  0  0  0  0
    1.1177    0.5792    0.4074 N   0  0  0  0  0  0  0  0  0  0  0  0
    2.4970    0.3679    0.1803 C   0  0  0  0  0  0  0  0  0  0  0  0
    3.4090    0.6509    1.2076 C   0  0  0  0  0  0  0  0  0  0  0  0
    4.7742    0.3961    1.0479 C   0  0  0  0  0  0  0  0  0  0  0  0
    5.2440   -0.1665   -0.1362 C   0  0  0  0  0  0  0  0  0  0  0  0
    4.3483   -0.4823   -1.1546 C   0  0  0  0  0  0  0  0  0  0  0  0
    2.9837   -0.2269   -0.9909 C   0  0  0  0  0  0  0  0  0  0  0  0
   -1.5551    1.1705    0.8834 C   0  0  0  0  0  0  0  0  0  0  0  0
   -0.9559    1.9005    1.6556 O   0  0  0  0  0  0  0  0  0  0  0  0
   -2.7666    0.6458    1.1132 O   0  0  0  0  0  0  0  0  0  0  0  0
   -5.3401   -0.9510   -0.2997 H   0  0  0  0  0  0  0  0  0  0  0  0
   -5.0624   -0.5825    1.4251 H   0  0  0  0  0  0  0  0  0  0  0  0
   -5.2452    0.7209    0.2520 H   0  0  0  0  0  0  0  0  0  0  0  0
   -2.9338   -2.0212    1.3903 H   0  0  0  0  0  0  0  0  0  0  0  0
   -3.2124   -2.3902   -0.3346 H   0  0  0  0  0  0  0  0  0  0  0  0
   -1.6785   -1.7183    0.1982 H   0  0  0  0  0  0  0  0  0  0  0  0
    0.9473    1.3049    1.1156 H   0  0  0  0  0  0  0  0  0  0  0  0
    3.0616    1.0750    2.1461 H   0  0  0  0  0  0  0  0  0  0  0  0
    5.4677    0.6321    1.8505 H   0  0  0  0  0  0  0  0  0  0  0  0
    6.3046   -0.3661   -0.2626 H   0  0  0  0  0  0  0  0  0  0  0  0
    4.7062   -0.9315   -2.0770 H   0  0  0  0  0  0  0  0  0  0  0  0
    2.2985   -0.4906   -1.7926 H   0  0  0  0  0  0  0  0  0  0  0  0
  1  2  1  0
  2  3  1  0
  2  4  1  0
  4  5  1  0
  5  6  2  0
  5  7  1  0
  7  8  2  3
  8  9  1  0
  9 10  1  0
 10 11  2  0
 11 12  1  0
 12 13  2  0
 13 14  1  0
 14 15  2  0
  7 16  1  0
 16 17  2  0
 16 18  1  0
 18  2  1  0
 15 10  1  0
  1 19  1  0
  1 20  1  0
  1 21  1  0
  3 22  1  0
  3 23  1  0
  3 24  1  0
  9 25  1  0
 11 26  1  0
 12 27  1  0
 13 28  1  0
 14 29  1  0
 15 30  1  0
M  END
$$$$
