
     RDKit          3D

 37 37  0  0  0  0  0  0  0  0999 V2000
   -3.7592   -1.0210   -3.3898 C   0  0  0  0  0  0  0  0  0  0  0  0
   -3.2329   -0.3794   -2.2283 O   0  0  0  0  0  0  0  0  0  0  0  0
   -2.0612   -0.9045   -1.7802 C   0  0  0  0  0  0  0  0  0  0  0  0
   -1.4745   -1.8556   -2.2880 O   0  0  0  0  0  0  0  0  0  0  0  0
   -1.5723   -0.1709   -0.5306 C   0  0  0  0  0  0  0  0  0  0  0  0
   -2.0529   -0.8892    0.7381 C   0  0  0  0  0  0  0  0  0  0  0  0
   -3.5645   -0.8780    0.9712 C   0  0  0  0  0  0  0  0  0  0  0  0
   -4.3420    0.7690    1.0424 S   0  0  0  0  0  0  0  0  0  0  0  0
   -3.4442    1.4781    2.4469 C   0  0  0  0  0  0  0  0  0  0  0  0
   -0.1065   -0.1630   -0.5998 N   0  0  0  0  0  0  0  0  0  0  0  0
    0.6471    0.6582    0.1880 C   0  0  0  0  0  0  0  0  0  0  0  0
    0.1816    1.4721    0.9729 O   0  0  0  0  0  0  0  0  0  0  0  0
    1.9844    0.4501   -0.0061 N   0  0  0  0  0  0  0  0  0  0  0  0
    2.9323    1.3152    0.6569 C   0  0  0  0  0  0  0  0  0  0  0  0
    4.3047    0.7755    0.4187 C   0  0  0  0  0  0  0  0  0  0  0  0
    4.9813   -0.1888    1.1409 C   0  0  0  0  0  0  0  0  0  0  0  0
    6.2782   -0.4518    0.6134 C   0  0  0  0  0  0  0  0  0  0  0  0
    6.5492    0.3187   -0.4947 C   0  0  0  0  0  0  0  0  0  0  0  0
    5.2453    1.3498   -0.8945 S   0  0  0  0  0  0  0  0  0  0  0  0
   -3.0585   -0.9354   -4.2261 H   0  0  0  0  0  0  0  0  0  0  0  0
   -4.6895   -0.5159   -3.6639 H   0  0  0  0  0  0  0  0  0  0  0  0
   -3.9843   -2.0709   -3.1776 H   0  0  0  0  0  0  0  0  0  0  0  0
   -1.8939    0.8750   -0.5643 H   0  0  0  0  0  0  0  0  0  0  0  0
   -1.5519   -0.4724    1.6199 H   0  0  0  0  0  0  0  0  0  0  0  0
   -1.7304   -1.9390    0.6976 H   0  0  0  0  0  0  0  0  0  0  0  0
   -3.7919   -1.3991    1.9078 H   0  0  0  0  0  0  0  0  0  0  0  0
   -4.0672   -1.4414    0.1782 H   0  0  0  0  0  0  0  0  0  0  0  0
   -3.9119    2.4266    2.7246 H   0  0  0  0  0  0  0  0  0  0  0  0
   -3.4860    0.8067    3.3083 H   0  0  0  0  0  0  0  0  0  0  0  0
   -2.4043    1.6775    2.1794 H   0  0  0  0  0  0  0  0  0  0  0  0
    0.3363   -1.0007   -0.9579 H   0  0  0  0  0  0  0  0  0  0  0  0
    2.2343    0.1587   -0.9397 H   0  0  0  0  0  0  0  0  0  0  0  0
    2.8116    2.3314    0.2646 H   0  0  0  0  0  0  0  0  0  0  0  0
    2.7047    1.3420    1.7288 H   0  0  0  0  0  0  0  0  0  0  0  0
    4.5613   -0.6844    2.0085 H   0  0  0  0  0  0  0  0  0  0  0  0
    6.9766   -1.1697    1.0258 H   0  0  0  0  0  0  0  0  0  0  0  0
    7.4511    0.3269   -1.0914 H   0  0  0  0  0  0  0  0  0  0  0  0
  1  2  1  0
  2  3  1  0
  3  4  2  0
  3  5  1  0
  5  6  1  0
  6  7  1  0
  7  8  1  0
  8  9  1  0
  5 10  1  0
 10 11  1  0
 11 12  2  0
 11 13  1  0
 13 14  1  0
 14 15  1  0
 15 16  2  0
 16 17  1  0
 17 18  2  0
 18 19  1  0
 19 15  1  0
  1 20  1  0
  1 21  1  0
  1 22  1  0
  5 23  1  0
  6 24  1  0
  6 25  1  0
  7 26  1  0
  7 27  1  0
  9 28  1  0
  9 29  1  0
  9 30  1  0
 10 31  1  0
 13 32  1  0
 14 33  1  0
 14 34  1  0
 16 35  1  0
 17 36  1  0
 18 37  1  0
M  END
$$$$
