
     RDKit          3D

 59 62  0  0  0  0  0  0  0  0999 V2000
   -5.7797    3.7603   -2.8030 C   0  0  0  0  0  0  0  0  0  0  0  0
   -5.6022    2.3424   -2.8379 O   0  0  0  0  0  0  0  0  0  0  0  0
   -4.6553    1.8339   -1.9895 C   0  0  0  0  0  0  0  0  0  0  0  0
   -4.1197    2.4817   -0.8756 C   0  0  0  0  0  0  0  0  0  0  0  0
   -3.1639    1.8368   -0.0786 C   0  0  0  0  0  0  0  0  0  0  0  0
   -2.7405    0.5395   -0.3848 C   0  0  0  0  0  0  0  0  0  0  0  0
   -1.7450   -0.1218    0.4506 C   0  0  0  0  0  0  0  0  0  0  0  0
   -0.4730    0.2845    0.7954 C   0  0  0  0  0  0  0  0  0  0  0  0
    0.1485   -0.6326    1.5978 N   0  0  0  0  0  0  0  0  0  0  0  0
   -0.7314   -1.6023    1.7503 C   0  0  0  0  0  0  0  0  0  0  0  0
   -0.4197   -3.0771    2.6007 S   0  0  0  0  0  0  0  0  0  0  0  0
    1.3856   -3.0246    2.7284 C   0  0  0  0  0  0  0  0  0  0  0  0
    2.0514   -3.0503    1.3575 C   0  0  0  0  0  0  0  0  0  0  0  0
    1.9654   -4.0364    0.6329 O   0  0  0  0  0  0  0  0  0  0  0  0
    2.7320   -1.8835    1.0898 N   0  0  0  0  0  0  0  0  0  0  0  0
    3.5581   -1.6242    0.0317 C   0  0  0  0  0  0  0  0  0  0  0  0
    4.0808   -0.4343   -0.1484 N   0  0  0  0  0  0  0  0  0  0  0  0
    4.9701   -0.4495   -1.2171 C   0  0  0  0  0  0  0  0  0  0  0  0
    5.7965    0.8026   -1.4822 C   0  0  0  0  0  0  0  0  0  0  0  0
    6.3603    0.8377   -2.9146 C   0  0  0  0  0  0  0  0  0  0  0  0
    6.9801    0.8290   -0.4932 C   0  0  0  0  0  0  0  0  0  0  0  0
    4.9459    2.0725   -1.2742 C   0  0  0  0  0  0  0  0  0  0  0  0
    5.0333   -1.6702   -1.8718 C   0  0  0  0  0  0  0  0  0  0  0  0
    4.0209   -2.8150   -1.0947 S   0  0  0  0  0  0  0  0  0  0  0  0
   -1.9252   -1.3129    1.1462 N   0  0  0  0  0  0  0  0  0  0  0  0
   -3.1615   -2.0744    1.2561 C   0  0  0  0  0  0  0  0  0  0  0  0
   -4.0714   -1.4594    2.2544 C   0  0  0  0  0  0  0  0  0  0  0  0
   -5.1516   -0.6074    2.1482 C   0  0  0  0  0  0  0  0  0  0  0  0
   -5.6106   -0.3829    3.4695 C   0  0  0  0  0  0  0  0  0  0  0  0
   -4.7871   -1.1134    4.2929 C   0  0  0  0  0  0  0  0  0  0  0  0
   -3.8568   -1.7805    3.5619 O   0  0  0  0  0  0  0  0  0  0  0  0
   -3.2793   -0.1028   -1.5075 C   0  0  0  0  0  0  0  0  0  0  0  0
   -4.2377    0.5371   -2.2966 C   0  0  0  0  0  0  0  0  0  0  0  0
   -4.8232    4.2922   -2.8982 H   0  0  0  0  0  0  0  0  0  0  0  0
   -6.3126    4.0669   -1.8940 H   0  0  0  0  0  0  0  0  0  0  0  0
   -6.3955    4.0347   -3.6611 H   0  0  0  0  0  0  0  0  0  0  0  0
   -4.4282    3.4800   -0.5989 H   0  0  0  0  0  0  0  0  0  0  0  0
   -2.7539    2.3521    0.7867 H   0  0  0  0  0  0  0  0  0  0  0  0
    0.0303    1.1968    0.4897 H   0  0  0  0  0  0  0  0  0  0  0  0
    1.6923   -2.1500    3.3123 H   0  0  0  0  0  0  0  0  0  0  0  0
    1.7285   -3.9107    3.2798 H   0  0  0  0  0  0  0  0  0  0  0  0
    2.4587   -1.0468    1.5987 H   0  0  0  0  0  0  0  0  0  0  0  0
    6.9140    1.7645   -3.1006 H   0  0  0  0  0  0  0  0  0  0  0  0
    5.5600    0.7760   -3.6597 H   0  0  0  0  0  0  0  0  0  0  0  0
    7.0562    0.0095   -3.0969 H   0  0  0  0  0  0  0  0  0  0  0  0
    6.6305    0.8485    0.5469 H   0  0  0  0  0  0  0  0  0  0  0  0
    7.6186    1.7087   -0.6476 H   0  0  0  0  0  0  0  0  0  0  0  0
    7.6091   -0.0677   -0.6046 H   0  0  0  0  0  0  0  0  0  0  0  0
    4.5716    2.1455   -0.2490 H   0  0  0  0  0  0  0  0  0  0  0  0
    5.5296    2.9770   -1.4699 H   0  0  0  0  0  0  0  0  0  0  0  0
    4.0752    2.0823   -1.9407 H   0  0  0  0  0  0  0  0  0  0  0  0
    5.6262   -1.9610   -2.7270 H   0  0  0  0  0  0  0  0  0  0  0  0
   -3.6331   -2.1062    0.2734 H   0  0  0  0  0  0  0  0  0  0  0  0
   -2.9433   -3.1132    1.5208 H   0  0  0  0  0  0  0  0  0  0  0  0
   -5.5515   -0.1929    1.2313 H   0  0  0  0  0  0  0  0  0  0  0  0
   -6.4417    0.2381    3.7838 H   0  0  0  0  0  0  0  0  0  0  0  0
   -4.7354   -1.2615    5.3623 H   0  0  0  0  0  0  0  0  0  0  0  0
   -2.9488   -1.0964   -1.7924 H   0  0  0  0  0  0  0  0  0  0  0  0
   -4.6509    0.0313   -3.1692 H   0  0  0  0  0  0  0  0  0  0  0  0
  1  2  1  0
  2  3  1  0
  3  4  2  0
  4  5  1  0
  5  6  2  0
  6  7  1  0
  7  8  2  0
  8  9  1  0
  9 10  2  0
 10 11  1  0
 11 12  1  0
 12 13  1  0
 13 14  2  0
 13 15  1  0
 15 16  1  0
 16 17  2  0
 17 18  1  0
 18 19  1  0
 19 20  1  0
 19 21  1  0
 19 22  1  0
 18 23  2  0
 23 24  1  0
 10 25  1  0
 25 26  1  0
 26 27  1  0
 27 28  2  0
 28 29  1  0
 29 30  2  0
 30 31  1  0
  6 32  1  0
 32 33  2  0
 33  3  1  0
 25  7  1  0
 31 27  1  0
 24 16  1  0
  1 34  1  0
  1 35  1  0
  1 36  1  0
  4 37  1  0
  5 38  1  0
  8 39  1  0
 12 40  1  0
 12 41  1  0
 15 42  1  0
 20 43  1  0
 20 44  1  0
 20 45  1  0
 21 46  1  0
 21 47  1  0
 21 48  1  0
 22 49  1  0
 22 50  1  0
 22 51  1  0
 23 52  1  0
 26 53  1  0
 26 54  1  0
 28 55  1  0
 29 56  1  0
 30 57  1  0
 32 58  1  0
 33 59  1  0
M  END
$$$$
