
     RDKit          3D

 46 49  0  0  0  0  0  0  0  0999 V2000
   -4.4492   -4.2438    1.4100 C   0  0  0  0  0  0  0  0  0  0  0  0
   -3.7002   -3.0546    1.6259 O   0  0  0  0  0  0  0  0  0  0  0  0
   -3.4028   -2.3034    0.5215 C   0  0  0  0  0  0  0  0  0  0  0  0
   -3.7951   -2.5794   -0.7886 C   0  0  0  0  0  0  0  0  0  0  0  0
   -3.4181   -1.7253   -1.8287 C   0  0  0  0  0  0  0  0  0  0  0  0
   -2.6521   -0.5897   -1.5647 C   0  0  0  0  0  0  0  0  0  0  0  0
   -2.2619   -0.2990   -0.2546 C   0  0  0  0  0  0  0  0  0  0  0  0
   -1.4571    0.8820    0.0294 C   0  0  0  0  0  0  0  0  0  0  0  0
   -0.0844    1.0682   -0.0625 C   0  0  0  0  0  0  0  0  0  0  0  0
    0.9434    0.1242   -0.4947 C   0  0  0  0  0  0  0  0  0  0  0  0
    0.6909   -1.0115   -0.8834 O   0  0  0  0  0  0  0  0  0  0  0  0
    2.2184    0.6725   -0.4184 N   0  0  0  0  0  0  0  0  0  0  0  0
    3.3119   -0.0782   -0.7314 N   0  0  0  0  0  0  0  0  0  0  0  0
    4.5020    0.4523   -0.6966 C   0  0  0  0  0  0  0  0  0  0  0  0
    4.7538    1.9108   -0.3661 C   0  0  0  0  0  0  0  0  0  0  0  0
    5.6200   -0.4488   -0.9679 C   0  0  0  0  0  0  0  0  0  0  0  0
    5.5468   -1.7494   -1.4491 C   0  0  0  0  0  0  0  0  0  0  0  0
    6.8265   -2.3641   -1.5886 C   0  0  0  0  0  0  0  0  0  0  0  0
    7.8219   -1.5101   -1.1976 C   0  0  0  0  0  0  0  0  0  0  0  0
    9.5081   -1.8322   -1.1960 Cl  0  0  0  0  0  0  0  0  0  0  0  0
    7.2532   -0.0089   -0.6717 S   0  0  0  0  0  0  0  0  0  0  0  0
    0.2292    2.3421    0.3384 N   0  0  0  0  0  0  0  0  0  0  0  0
   -0.8891    2.9610    0.6674 N   0  0  0  0  0  0  0  0  0  0  0  0
   -1.9462    2.1139    0.4734 N   0  0  0  0  0  0  0  0  0  0  0  0
   -3.2796    2.5303    0.7206 C   0  0  0  0  0  0  0  0  0  0  0  0
   -4.3099    1.7034    0.5428 N   0  0  0  0  0  0  0  0  0  0  0  0
   -5.4231    2.4629    0.8947 O   0  0  0  0  0  0  0  0  0  0  0  0
   -5.0556    3.7479    1.2801 N   0  0  0  0  0  0  0  0  0  0  0  0
   -3.7291    3.7892    1.1627 C   0  0  0  0  0  0  0  0  0  0  0  0
   -2.9792    4.8750    1.4313 N   0  0  0  0  0  0  0  0  0  0  0  0
   -2.6349   -1.1643    0.7816 C   0  0  0  0  0  0  0  0  0  0  0  0
   -5.4418   -4.0170    1.0072 H   0  0  0  0  0  0  0  0  0  0  0  0
   -4.5875   -4.7322    2.3794 H   0  0  0  0  0  0  0  0  0  0  0  0
   -3.9077   -4.9400    0.7610 H   0  0  0  0  0  0  0  0  0  0  0  0
   -4.3898   -3.4519   -1.0366 H   0  0  0  0  0  0  0  0  0  0  0  0
   -3.7184   -1.9497   -2.8491 H   0  0  0  0  0  0  0  0  0  0  0  0
   -2.3606    0.0566   -2.3887 H   0  0  0  0  0  0  0  0  0  0  0  0
    2.3137    1.6126   -0.0492 H   0  0  0  0  0  0  0  0  0  0  0  0
    5.7146    2.2653   -0.7436 H   0  0  0  0  0  0  0  0  0  0  0  0
    4.7236    2.0411    0.7195 H   0  0  0  0  0  0  0  0  0  0  0  0
    3.9907    2.5458   -0.8250 H   0  0  0  0  0  0  0  0  0  0  0  0
    4.6066   -2.2358   -1.6901 H   0  0  0  0  0  0  0  0  0  0  0  0
    6.9936   -3.3710   -1.9497 H   0  0  0  0  0  0  0  0  0  0  0  0
   -3.3993    5.6519    1.9310 H   0  0  0  0  0  0  0  0  0  0  0  0
   -1.9664    4.8135    1.5141 H   0  0  0  0  0  0  0  0  0  0  0  0
   -2.3300   -0.9619    1.8055 H   0  0  0  0  0  0  0  0  0  0  0  0
  1  2  1  0
  2  3  1  0
  3  4  2  0
  4  5  1  0
  5  6  2  0
  6  7  1  0
  7  8  1  0
  8  9  2  0
  9 10  1  0
 10 11  2  0
 10 12  1  0
 12 13  1  0
 13 14  2  3
 14 15  1  0
 14 16  1  0
 16 17  2  0
 17 18  1  0
 18 19  2  0
 19 20  1  0
 19 21  1  0
  9 22  1  0
 22 23  2  0
 23 24  1  0
 24 25  1  0
 25 26  2  0
 26 27  1  0
 27 28  1  0
 28 29  2  0
 29 30  1  0
  7 31  2  0
 31  3  1  0
 24  8  1  0
 29 25  1  0
 21 16  1  0
  1 32  1  0
  1 33  1  0
  1 34  1  0
  4 35  1  0
  5 36  1  0
  6 37  1  0
 12 38  1  0
 15 39  1  0
 15 40  1  0
 15 41  1  0
 17 42  1  0
 18 43  1  0
 30 44  1  0
 30 45  1  0
 31 46  1  0
M  END
$$$$
