
     RDKit          3D

 56 58  0  0  0  0  0  0  0  0999 V2000
    9.5502    1.6480   -2.3795 C   0  0  0  0  0  0  0  0  0  0  0  0
    8.1102    1.3259   -2.0219 C   0  0  0  0  0  0  0  0  0  0  0  0
    7.9122    1.6605   -0.6492 O   0  0  0  0  0  0  0  0  0  0  0  0
    6.6675    1.4404   -0.1297 C   0  0  0  0  0  0  0  0  0  0  0  0
    6.5269    1.7789    1.2160 C   0  0  0  0  0  0  0  0  0  0  0  0
    5.3043    1.6039    1.8719 C   0  0  0  0  0  0  0  0  0  0  0  0
    4.1987    1.0857    1.1891 C   0  0  0  0  0  0  0  0  0  0  0  0
    3.0009    0.9398    1.9189 N   0  0  0  0  0  0  0  0  0  0  0  0
    1.7884    0.4496    1.4627 C   0  0  0  0  0  0  0  0  0  0  0  0
    1.5362    0.0562    0.3297 O   0  0  0  0  0  0  0  0  0  0  0  0
    0.7345    0.4655    2.5529 C   0  0  0  0  0  0  0  0  0  0  0  0
   -0.5575   -0.1795    2.0719 C   0  0  0  0  0  0  0  0  0  0  0  0
   -1.5604   -0.1055    3.1405 N   0  0  0  0  0  0  0  0  0  0  0  0
   -2.6167   -1.3841    3.3851 S   0  0  0  0  0  6  0  0  0  0  0  0
   -1.8266   -2.5776    3.5868 O   0  0  0  0  0  0  0  0  0  0  0  0
   -3.5935   -0.9375    4.3512 O   0  0  0  0  0  0  0  0  0  0  0  0
   -3.4350   -1.5162    1.8159 C   0  0  0  0  0  0  0  0  0  0  0  0
   -3.2035   -2.6149    0.9908 C   0  0  0  0  0  0  0  0  0  0  0  0
   -3.8587   -2.7035   -0.2430 C   0  0  0  0  0  0  0  0  0  0  0  0
   -4.7511   -1.7020   -0.6633 C   0  0  0  0  0  0  0  0  0  0  0  0
   -4.9709   -0.6163    0.1844 C   0  0  0  0  0  0  0  0  0  0  0  0
   -4.3253   -0.5174    1.4261 C   0  0  0  0  0  0  0  0  0  0  0  0
   -5.8904    0.4512   -0.2360 C   0  0  0  0  0  0  0  0  0  0  0  0
   -6.0075    1.4468    0.4750 O   0  0  0  0  0  0  0  0  0  0  0  0
   -6.5585    0.2625   -1.4343 N   0  0  0  0  0  0  0  0  0  0  0  0
   -7.4887    1.2913   -1.8626 C   0  0  0  0  0  0  0  0  0  0  0  0
   -6.3224   -0.7805   -2.3226 C   0  0  0  0  0  0  0  0  0  0  0  0
   -6.8822   -0.8259   -3.4208 O   0  0  0  0  0  0  0  0  0  0  0  0
   -5.4210   -1.7602   -1.9141 N   0  0  0  0  0  0  0  0  0  0  0  0
   -5.1661   -2.8766   -2.8167 C   0  0  0  0  0  0  0  0  0  0  0  0
    4.3422    0.7479   -0.1570 C   0  0  0  0  0  0  0  0  0  0  0  0
    5.5693    0.9239   -0.8137 C   0  0  0  0  0  0  0  0  0  0  0  0
    9.7543    1.4096   -3.4271 H   0  0  0  0  0  0  0  0  0  0  0  0
    9.7615    2.7092   -2.2107 H   0  0  0  0  0  0  0  0  0  0  0  0
   10.2407    1.0808   -1.7467 H   0  0  0  0  0  0  0  0  0  0  0  0
    7.9326    0.2562   -2.1821 H   0  0  0  0  0  0  0  0  0  0  0  0
    7.4429    1.9186   -2.6580 H   0  0  0  0  0  0  0  0  0  0  0  0
    7.3777    2.1821    1.7601 H   0  0  0  0  0  0  0  0  0  0  0  0
    5.2378    1.8792    2.9209 H   0  0  0  0  0  0  0  0  0  0  0  0
    3.0430    1.2218    2.8910 H   0  0  0  0  0  0  0  0  0  0  0  0
    1.1181   -0.0722    3.4283 H   0  0  0  0  0  0  0  0  0  0  0  0
    0.5533    1.5065    2.8463 H   0  0  0  0  0  0  0  0  0  0  0  0
   -0.9469    0.3436    1.1913 H   0  0  0  0  0  0  0  0  0  0  0  0
   -0.3623   -1.2191    1.7868 H   0  0  0  0  0  0  0  0  0  0  0  0
   -1.9381    0.8029    3.4072 H   0  0  0  0  0  0  0  0  0  0  0  0
   -2.5188   -3.4056    1.2938 H   0  0  0  0  0  0  0  0  0  0  0  0
   -3.6490   -3.5756   -0.8565 H   0  0  0  0  0  0  0  0  0  0  0  0
   -4.5203    0.3316    2.0792 H   0  0  0  0  0  0  0  0  0  0  0  0
   -7.0010    1.9010   -2.6300 H   0  0  0  0  0  0  0  0  0  0  0  0
   -8.3817    0.8309   -2.2975 H   0  0  0  0  0  0  0  0  0  0  0  0
   -7.7959    1.9368   -1.0354 H   0  0  0  0  0  0  0  0  0  0  0  0
   -5.4663   -3.8106   -2.3311 H   0  0  0  0  0  0  0  0  0  0  0  0
   -5.7281   -2.7925   -3.7511 H   0  0  0  0  0  0  0  0  0  0  0  0
   -4.1016   -2.9028   -3.0708 H   0  0  0  0  0  0  0  0  0  0  0  0
    3.5178    0.3420   -0.7347 H   0  0  0  0  0  0  0  0  0  0  0  0
    5.6251    0.6454   -1.8609 H   0  0  0  0  0  0  0  0  0  0  0  0
  1  2  1  0
  2  3  1  0
  3  4  1  0
  4  5  2  0
  5  6  1  0
  6  7  2  0
  7  8  1  0
  8  9  1  0
  9 10  2  0
  9 11  1  0
 11 12  1  0
 12 13  1  0
 13 14  1  0
 14 15  2  0
 14 16  2  0
 14 17  1  0
 17 18  2  0
 18 19  1  0
 19 20  2  0
 20 21  1  0
 21 22  2  0
 21 23  1  0
 23 24  2  0
 23 25  1  0
 25 26  1  0
 25 27  1  0
 27 28  2  0
 27 29  1  0
 29 30  1  0
  7 31  1  0
 31 32  2  0
 32  4  1  0
 22 17  1  0
 29 20  1  0
  1 33  1  0
  1 34  1  0
  1 35  1  0
  2 36  1  0
  2 37  1  0
  5 38  1  0
  6 39  1  0
  8 40  1  0
 11 41  1  0
 11 42  1  0
 12 43  1  0
 12 44  1  0
 13 45  1  0
 18 46  1  0
 19 47  1  0
 22 48  1  0
 26 49  1  0
 26 50  1  0
 26 51  1  0
 30 52  1  0
 30 53  1  0
 30 54  1  0
 31 55  1  0
 32 56  1  0
M  END
$$$$
