
     RDKit          3D

 58 62  0  0  0  0  0  0  0  0999 V2000
    6.4800    4.0798    1.9629 C   0  0  0  0  0  0  0  0  0  0  0  0
    6.3176    2.6676    1.9931 O   0  0  0  0  0  0  0  0  0  0  0  0
    5.1963    2.1617    1.3956 C   0  0  0  0  0  0  0  0  0  0  0  0
    4.1792    2.9036    0.7953 C   0  0  0  0  0  0  0  0  0  0  0  0
    3.0810    2.2559    0.2177 C   0  0  0  0  0  0  0  0  0  0  0  0
    2.9886    0.8590    0.2315 C   0  0  0  0  0  0  0  0  0  0  0  0
    1.7962    0.1599   -0.3719 C   0  0  0  0  0  0  0  0  0  0  0  0
    0.7567   -0.2088    0.6922 C   0  0  0  0  0  0  0  0  0  0  0  0
   -0.4236   -0.8379    0.0685 N   0  0  0  0  0  0  0  0  0  0  0  0
   -1.4943   -0.0612   -0.4066 C   0  0  0  0  0  0  0  0  0  0  0  0
   -1.5023    1.2435   -0.4128 N   0  0  0  0  0  0  0  0  0  0  0  0
   -2.7221   -0.7397   -0.9634 C   0  0  0  0  0  0  0  0  0  0  0  0
   -3.9728   -0.0625   -1.4298 C   0  0  0  0  0  0  0  0  0  0  0  0
   -4.8863   -0.6849   -1.9664 O   0  0  0  0  0  0  0  0  0  0  0  0
   -4.0233    1.2871   -1.2216 N   0  0  0  0  0  0  0  0  0  0  0  0
   -5.0617    2.1033   -1.7950 C   0  0  0  0  0  0  0  0  0  0  0  0
   -5.0685    3.4176   -1.1114 C   0  0  0  0  0  0  0  0  0  0  0  0
   -5.6324    3.8691    0.0646 C   0  0  0  0  0  0  0  0  0  0  0  0
   -5.2775    5.2344    0.1803 C   0  0  0  0  0  0  0  0  0  0  0  0
   -4.5203    5.5285   -0.9290 C   0  0  0  0  0  0  0  0  0  0  0  0
   -4.3863    4.4324   -1.7187 O   0  0  0  0  0  0  0  0  0  0  0  0
   -2.6653   -2.0801   -1.0444 C   0  0  0  0  0  0  0  0  0  0  0  0
   -1.5047   -2.8496   -0.6296 C   0  0  0  0  0  0  0  0  0  0  0  0
   -1.5094   -4.3315   -0.7973 C   0  0  0  0  0  0  0  0  0  0  0  0
   -2.4924   -4.8949   -1.2826 O   0  0  0  0  0  0  0  0  0  0  0  0
   -0.3673   -4.9927   -0.3811 N   0  0  0  0  0  0  0  0  0  0  0  0
   -0.2926   -6.3763   -0.5062 C   0  0  0  0  0  0  0  0  0  0  0  0
    0.7901   -7.0615   -0.1189 C   0  0  0  0  0  0  0  0  0  0  0  0
    1.9149   -6.3639    0.4439 C   0  0  0  0  0  0  0  0  0  0  0  0
    1.8855   -5.0332    0.5826 C   0  0  0  0  0  0  0  0  0  0  0  0
    0.6809   -4.2677    0.1521 C   0  0  0  0  0  0  0  0  0  0  0  0
    0.6816   -2.9819    0.2990 N   0  0  0  0  0  0  0  0  0  0  0  0
   -0.4195   -2.2508   -0.0889 C   0  0  0  0  0  0  0  0  0  0  0  0
    4.0095    0.1189    0.8382 C   0  0  0  0  0  0  0  0  0  0  0  0
    5.1031    0.7688    1.4142 C   0  0  0  0  0  0  0  0  0  0  0  0
    5.6785    4.5806    2.5158 H   0  0  0  0  0  0  0  0  0  0  0  0
    7.4257    4.3182    2.4591 H   0  0  0  0  0  0  0  0  0  0  0  0
    6.5418    4.4488    0.9338 H   0  0  0  0  0  0  0  0  0  0  0  0
    4.2083    3.9874    0.7582 H   0  0  0  0  0  0  0  0  0  0  0  0
    2.3014    2.8560   -0.2473 H   0  0  0  0  0  0  0  0  0  0  0  0
    1.3462    0.8002   -1.1410 H   0  0  0  0  0  0  0  0  0  0  0  0
    2.1372   -0.7375   -0.9038 H   0  0  0  0  0  0  0  0  0  0  0  0
    1.2021   -0.8742    1.4436 H   0  0  0  0  0  0  0  0  0  0  0  0
    0.4613    0.6731    1.2741 H   0  0  0  0  0  0  0  0  0  0  0  0
   -0.6354    1.6275   -0.0401 H   0  0  0  0  0  0  0  0  0  0  0  0
   -3.1520    1.7355   -0.9258 H   0  0  0  0  0  0  0  0  0  0  0  0
   -6.0287    1.6011   -1.6849 H   0  0  0  0  0  0  0  0  0  0  0  0
   -4.8564    2.2116   -2.8653 H   0  0  0  0  0  0  0  0  0  0  0  0
   -6.2222    3.2779    0.7515 H   0  0  0  0  0  0  0  0  0  0  0  0
   -5.5389    5.9195    0.9741 H   0  0  0  0  0  0  0  0  0  0  0  0
   -4.0281    6.4227   -1.2850 H   0  0  0  0  0  0  0  0  0  0  0  0
   -3.5113   -2.6420   -1.4378 H   0  0  0  0  0  0  0  0  0  0  0  0
   -1.1549   -6.8822   -0.9345 H   0  0  0  0  0  0  0  0  0  0  0  0
    0.8388   -8.1410   -0.2207 H   0  0  0  0  0  0  0  0  0  0  0  0
    2.7817   -6.9403    0.7512 H   0  0  0  0  0  0  0  0  0  0  0  0
    2.7109   -4.4717    1.0018 H   0  0  0  0  0  0  0  0  0  0  0  0
    3.9631   -0.9677    0.8655 H   0  0  0  0  0  0  0  0  0  0  0  0
    5.8922    0.1841    1.8809 H   0  0  0  0  0  0  0  0  0  0  0  0
  1  2  1  0
  2  3  1  0
  3  4  2  0
  4  5  1  0
  5  6  2  0
  6  7  1  0
  7  8  1  0
  8  9  1  0
  9 10  1  0
 10 11  2  3
 10 12  1  0
 12 13  1  0
 13 14  2  0
 13 15  1  0
 15 16  1  0
 16 17  1  0
 17 18  2  0
 18 19  1  0
 19 20  2  0
 20 21  1  0
 12 22  2  0
 22 23  1  0
 23 24  1  0
 24 25  2  0
 24 26  1  0
 26 27  1  0
 27 28  2  0
 28 29  1  0
 29 30  2  0
 30 31  1  0
 31 32  2  0
 32 33  1  0
  6 34  1  0
 34 35  2  0
 35  3  1  0
 33  9  1  0
 21 17  1  0
 33 23  2  0
 31 26  1  0
  1 36  1  0
  1 37  1  0
  1 38  1  0
  4 39  1  0
  5 40  1  0
  7 41  1  0
  7 42  1  0
  8 43  1  0
  8 44  1  0
 11 45  1  0
 15 46  1  0
 16 47  1  0
 16 48  1  0
 18 49  1  0
 19 50  1  0
 20 51  1  0
 22 52  1  0
 27 53  1  0
 28 54  1  0
 29 55  1  0
 30 56  1  0
 34 57  1  0
 35 58  1  0
M  END
$$$$
