
     RDKit          3D

 47 50  0  0  0  0  0  0  0  0999 V2000
   -5.9076    2.5877   -0.7885 C   0  0  0  0  0  0  0  0  0  0  0  0
   -6.1249    1.4187    0.1617 C   0  0  0  0  0  0  0  0  0  0  0  0
   -4.8721    0.5576    0.3217 C   0  0  0  0  0  0  0  0  0  0  0  0
   -4.5700   -0.0495   -0.9414 O   0  0  0  0  0  0  0  0  0  0  0  0
   -3.2407   -0.3666   -1.0677 C   0  0  0  0  0  0  0  0  0  0  0  0
   -2.5779    0.2433   -2.1363 C   0  0  0  0  0  0  0  0  0  0  0  0
   -1.2323   -0.0293   -2.3729 C   0  0  0  0  0  0  0  0  0  0  0  0
   -0.5515   -0.9294   -1.5493 C   0  0  0  0  0  0  0  0  0  0  0  0
    0.8619   -1.2216   -1.7965 C   0  0  0  0  0  0  0  0  0  0  0  0
    1.8899   -0.5700   -1.2357 C   0  0  0  0  0  0  0  0  0  0  0  0
    1.8027    0.7627   -0.0985 S   0  0  0  0  0  0  0  0  0  0  0  0
    3.5164    0.8259   -0.0552 C   0  0  0  0  0  0  0  0  0  0  0  0
    4.4033    1.5582    0.5528 N   0  0  0  0  0  0  0  0  0  0  0  0
    5.5872    1.0067    0.0833 C   0  0  0  0  0  0  0  0  0  0  0  0
    6.9886    1.5481    0.5190 C   0  0  0  0  0  0  0  0  0  0  0  0
    8.2112    1.0516    0.1082 C   0  0  0  0  0  0  0  0  0  0  0  0
    9.2049    1.8386    0.7391 C   0  0  0  0  0  0  0  0  0  0  0  0
    8.5301    2.7660    1.4963 C   0  0  0  0  0  0  0  0  0  0  0  0
    7.1887    2.5982    1.3715 O   0  0  0  0  0  0  0  0  0  0  0  0
    5.4400   -0.0245   -0.7762 N   0  0  0  0  0  0  0  0  0  0  0  0
    4.0998   -0.1017   -0.8387 N   0  0  0  0  0  0  0  0  0  0  0  0
    3.2963   -0.9562   -1.5622 C   0  0  0  0  0  0  0  0  0  0  0  0
    3.7119   -1.8288   -2.3035 O   0  0  0  0  0  0  0  0  0  0  0  0
   -1.2252   -1.5621   -0.4922 C   0  0  0  0  0  0  0  0  0  0  0  0
   -2.5773   -1.2936   -0.2460 C   0  0  0  0  0  0  0  0  0  0  0  0
   -3.3200   -1.8901    0.7374 O   0  0  0  0  0  0  0  0  0  0  0  0
   -2.6827   -2.8635    1.5612 C   0  0  0  0  0  0  0  0  0  0  0  0
   -3.7009   -3.3620    2.5696 C   0  0  0  0  0  0  0  0  0  0  0  0
   -6.8255    3.1795   -0.8745 H   0  0  0  0  0  0  0  0  0  0  0  0
   -5.6374    2.2447   -1.7909 H   0  0  0  0  0  0  0  0  0  0  0  0
   -5.1119    3.2459   -0.4261 H   0  0  0  0  0  0  0  0  0  0  0  0
   -6.4293    1.8010    1.1425 H   0  0  0  0  0  0  0  0  0  0  0  0
   -6.9451    0.8029   -0.2262 H   0  0  0  0  0  0  0  0  0  0  0  0
   -5.0843   -0.2236    1.0616 H   0  0  0  0  0  0  0  0  0  0  0  0
   -4.0396    1.1786    0.6820 H   0  0  0  0  0  0  0  0  0  0  0  0
   -3.1142    0.9358   -2.7805 H   0  0  0  0  0  0  0  0  0  0  0  0
   -0.7287    0.4619   -3.2030 H   0  0  0  0  0  0  0  0  0  0  0  0
    1.0429   -2.0371   -2.4968 H   0  0  0  0  0  0  0  0  0  0  0  0
    8.3589    0.2193   -0.5661 H   0  0  0  0  0  0  0  0  0  0  0  0
   10.2783    1.7420    0.6522 H   0  0  0  0  0  0  0  0  0  0  0  0
    8.8401    3.5727    2.1449 H   0  0  0  0  0  0  0  0  0  0  0  0
   -0.6745   -2.2681    0.1206 H   0  0  0  0  0  0  0  0  0  0  0  0
   -2.3365   -3.7072    0.9536 H   0  0  0  0  0  0  0  0  0  0  0  0
   -1.8414   -2.4137    2.0998 H   0  0  0  0  0  0  0  0  0  0  0  0
   -3.2561   -4.1041    3.2377 H   0  0  0  0  0  0  0  0  0  0  0  0
   -4.5594   -3.8127    2.0619 H   0  0  0  0  0  0  0  0  0  0  0  0
   -4.0859   -2.5323    3.1707 H   0  0  0  0  0  0  0  0  0  0  0  0
  1  2  1  0
  2  3  1  0
  3  4  1  0
  4  5  1  0
  5  6  2  0
  6  7  1  0
  7  8  2  0
  8  9  1  0
  9 10  2  3
 10 11  1  0
 11 12  1  0
 12 13  2  0
 13 14  1  0
 14 15  1  0
 15 16  2  0
 16 17  1  0
 17 18  2  0
 18 19  1  0
 14 20  2  0
 20 21  1  0
 21 22  1  0
 22 23  2  0
  8 24  1  0
 24 25  2  0
 25 26  1  0
 26 27  1  0
 27 28  1  0
 25  5  1  0
 22 10  1  0
 21 12  1  0
 19 15  1  0
  1 29  1  0
  1 30  1  0
  1 31  1  0
  2 32  1  0
  2 33  1  0
  3 34  1  0
  3 35  1  0
  6 36  1  0
  7 37  1  0
  9 38  1  0
 16 39  1  0
 17 40  1  0
 18 41  1  0
 24 42  1  0
 27 43  1  0
 27 44  1  0
 28 45  1  0
 28 46  1  0
 28 47  1  0
M  END
$$$$
