
     RDKit          3D

 48 52  0  0  0  0  0  0  0  0999 V2000
   -3.5853   -2.6510   -0.0475 C   0  0  0  0  0  0  0  0  0  0  0  0
   -2.8322   -1.4446    0.2091 N   0  0  0  0  0  0  0  0  0  0  0  0
   -1.5421   -1.2363   -0.1908 C   0  0  0  0  0  0  0  0  0  0  0  0
   -1.1491    0.0309    0.2089 C   0  0  0  0  0  0  0  0  0  0  0  0
    0.1880    0.6990    0.0120 C   0  0  0  0  0  0  0  0  0  0  0  0
    0.0751    1.6904   -1.1494 C   0  0  0  0  0  0  0  0  0  0  0  0
    0.7491    2.9135   -1.0506 C   0  0  0  0  0  0  0  0  0  0  0  0
    0.6697    3.8277   -2.0985 C   0  0  0  0  0  0  0  0  0  0  0  0
   -0.0740    3.5075   -3.2256 C   0  0  0  0  0  0  0  0  0  0  0  0
   -0.7044    2.2773   -3.2621 C   0  0  0  0  0  0  0  0  0  0  0  0
   -0.6398    1.3690   -2.2658 N   0  0  0  0  0  0  0  0  0  0  0  0
    1.3509   -0.2221   -0.2745 C   0  0  0  0  0  0  0  0  0  0  0  0
    1.7289   -0.7935   -1.4799 C   0  0  0  0  0  0  0  0  0  0  0  0
    2.8459   -1.5535   -1.2794 N   0  0  0  0  0  0  0  0  0  0  0  0
    3.5298   -2.2961   -2.3137 C   0  0  0  0  0  0  0  0  0  0  0  0
    3.2190   -1.5150    0.0454 C   0  0  0  0  0  0  0  0  0  0  0  0
    4.2842   -2.1331    0.7204 C   0  0  0  0  0  0  0  0  0  0  0  0
    4.4068   -1.9164    2.0954 C   0  0  0  0  0  0  0  0  0  0  0  0
    3.4974   -1.1135    2.7754 C   0  0  0  0  0  0  0  0  0  0  0  0
    2.4407   -0.5010    2.0930 C   0  0  0  0  0  0  0  0  0  0  0  0
    2.2949   -0.6965    0.7020 C   0  0  0  0  0  0  0  0  0  0  0  0
   -2.2764    0.5979    0.9015 C   0  0  0  0  0  0  0  0  0  0  0  0
   -2.5072    1.8370    1.5387 C   0  0  0  0  0  0  0  0  0  0  0  0
   -3.7444    2.0904    2.1409 C   0  0  0  0  0  0  0  0  0  0  0  0
   -4.7515    1.1315    2.1170 C   0  0  0  0  0  0  0  0  0  0  0  0
   -4.5528   -0.1022    1.4913 C   0  0  0  0  0  0  0  0  0  0  0  0
   -3.3072   -0.3461    0.8900 C   0  0  0  0  0  0  0  0  0  0  0  0
   -3.8665   -3.0939    0.9113 H   0  0  0  0  0  0  0  0  0  0  0  0
   -4.4732   -2.3880   -0.6282 H   0  0  0  0  0  0  0  0  0  0  0  0
   -2.9702   -3.3555   -0.6133 H   0  0  0  0  0  0  0  0  0  0  0  0
   -0.9959   -1.9943   -0.7372 H   0  0  0  0  0  0  0  0  0  0  0  0
    0.4084    1.2664    0.9266 H   0  0  0  0  0  0  0  0  0  0  0  0
    1.3367    3.1521   -0.1694 H   0  0  0  0  0  0  0  0  0  0  0  0
    1.1867    4.7805   -2.0338 H   0  0  0  0  0  0  0  0  0  0  0  0
   -0.1587    4.1975   -4.0569 H   0  0  0  0  0  0  0  0  0  0  0  0
   -1.2976    1.9765   -4.1204 H   0  0  0  0  0  0  0  0  0  0  0  0
    1.2765   -0.7053   -2.4606 H   0  0  0  0  0  0  0  0  0  0  0  0
    4.5571   -1.9291   -2.3815 H   0  0  0  0  0  0  0  0  0  0  0  0
    3.0213   -2.1481   -3.2699 H   0  0  0  0  0  0  0  0  0  0  0  0
    3.5135   -3.3559   -2.0471 H   0  0  0  0  0  0  0  0  0  0  0  0
    4.9944   -2.7658    0.1984 H   0  0  0  0  0  0  0  0  0  0  0  0
    5.2217   -2.3866    2.6405 H   0  0  0  0  0  0  0  0  0  0  0  0
    3.6038   -0.9619    3.8465 H   0  0  0  0  0  0  0  0  0  0  0  0
    1.7334    0.1150    2.6404 H   0  0  0  0  0  0  0  0  0  0  0  0
   -1.7337    2.5982    1.5582 H   0  0  0  0  0  0  0  0  0  0  0  0
   -3.9188    3.0465    2.6273 H   0  0  0  0  0  0  0  0  0  0  0  0
   -5.7082    1.3442    2.5877 H   0  0  0  0  0  0  0  0  0  0  0  0
   -5.3445   -0.8436    1.4733 H   0  0  0  0  0  0  0  0  0  0  0  0
  1  2  1  0
  2  3  1  0
  3  4  2  0
  4  5  1  0
  5  6  1  0
  6  7  2  0
  7  8  1  0
  8  9  2  0
  9 10  1  0
 10 11  2  0
  5 12  1  0
 12 13  2  0
 13 14  1  0
 14 15  1  0
 14 16  1  0
 16 17  2  0
 17 18  1  0
 18 19  2  0
 19 20  1  0
 20 21  2  0
  4 22  1  0
 22 23  2  0
 23 24  1  0
 24 25  2  0
 25 26  1  0
 26 27  2  0
 27  2  1  0
 11  6  1  0
 21 12  1  0
 27 22  1  0
 21 16  1  0
  1 28  1  0
  1 29  1  0
  1 30  1  0
  3 31  1  0
  5 32  1  0
  7 33  1  0
  8 34  1  0
  9 35  1  0
 10 36  1  0
 13 37  1  0
 15 38  1  0
 15 39  1  0
 15 40  1  0
 17 41  1  0
 18 42  1  0
 19 43  1  0
 20 44  1  0
 23 45  1  0
 24 46  1  0
 25 47  1  0
 26 48  1  0
M  END
$$$$
