
     RDKit          3D

 32 32  0  0  0  0  0  0  0  0999 V2000
   -6.0031   -1.1865   -0.6317 C   0  0  0  0  0  0  0  0  0  0  0  0
   -4.9639   -0.5857   -0.5825 C   0  0  0  0  0  0  0  0  0  0  0  0
   -3.6898    0.1517   -0.5125 C   0  0  0  0  0  0  0  0  0  0  0  0
   -2.7187   -0.3276   -1.5127 N   0  0  0  0  0  0  0  0  0  0  0  0
   -3.1653    0.0147   -2.8699 C   0  0  0  0  0  0  0  0  0  0  0  0
   -1.3749    0.2325   -1.2836 C   0  0  0  0  0  0  0  0  0  0  0  0
   -0.6763   -0.3598   -0.0556 C   0  0  0  0  0  0  0  0  0  0  0  0
    0.7707    0.1217    0.0383 C   0  0  0  0  0  0  0  0  0  0  0  0
    1.3400   -0.4284    1.2255 O   0  0  0  0  0  0  0  0  0  0  0  0
    2.6409   -0.1186    1.5213 C   0  0  0  0  0  0  0  0  0  0  0  0
    3.4686    0.6771    0.7218 C   0  0  0  0  0  0  0  0  0  0  0  0
    4.7880    0.9367    1.1087 C   0  0  0  0  0  0  0  0  0  0  0  0
    5.2858    0.4025    2.2948 C   0  0  0  0  0  0  0  0  0  0  0  0
    6.9090    0.7279    2.7615 Cl  0  0  0  0  0  0  0  0  0  0  0  0
    4.4792   -0.3912    3.1025 C   0  0  0  0  0  0  0  0  0  0  0  0
    3.1620   -0.6496    2.7151 C   0  0  0  0  0  0  0  0  0  0  0  0
    2.1969   -1.6410    3.7544 Cl  0  0  0  0  0  0  0  0  0  0  0  0
   -6.9196   -1.7276   -0.6771 H   0  0  0  0  0  0  0  0  0  0  0  0
   -3.3017    0.0036    0.5006 H   0  0  0  0  0  0  0  0  0  0  0  0
   -3.8700    1.2282   -0.6260 H   0  0  0  0  0  0  0  0  0  0  0  0
   -3.2595    1.0977   -3.0109 H   0  0  0  0  0  0  0  0  0  0  0  0
   -2.4569   -0.3671   -3.6143 H   0  0  0  0  0  0  0  0  0  0  0  0
   -4.1273   -0.4512   -3.1077 H   0  0  0  0  0  0  0  0  0  0  0  0
   -0.7435    0.0041   -2.1527 H   0  0  0  0  0  0  0  0  0  0  0  0
   -1.4170    1.3268   -1.2045 H   0  0  0  0  0  0  0  0  0  0  0  0
   -1.1944   -0.0875    0.8706 H   0  0  0  0  0  0  0  0  0  0  0  0
   -0.6882   -1.4564   -0.0996 H   0  0  0  0  0  0  0  0  0  0  0  0
    1.3280   -0.2243   -0.8405 H   0  0  0  0  0  0  0  0  0  0  0  0
    0.7887    1.2170    0.0880 H   0  0  0  0  0  0  0  0  0  0  0  0
    3.1214    1.1109   -0.2104 H   0  0  0  0  0  0  0  0  0  0  0  0
    5.4213    1.5564    0.4780 H   0  0  0  0  0  0  0  0  0  0  0  0
    4.8695   -0.8070    4.0271 H   0  0  0  0  0  0  0  0  0  0  0  0
  1  2  3  0
  2  3  1  0
  3  4  1  0
  4  5  1  0
  4  6  1  0
  6  7  1  0
  7  8  1  0
  8  9  1  0
  9 10  1  0
 10 11  2  0
 11 12  1  0
 12 13  2  0
 13 14  1  0
 13 15  1  0
 15 16  2  0
 16 17  1  0
 16 10  1  0
  1 18  1  0
  3 19  1  0
  3 20  1  0
  5 21  1  0
  5 22  1  0
  5 23  1  0
  6 24  1  0
  6 25  1  0
  7 26  1  0
  7 27  1  0
  8 28  1  0
  8 29  1  0
 11 30  1  0
 12 31  1  0
 15 32  1  0
M  END
$$$$
