
     RDKit          3D

 60 64  0  0  0  0  0  0  0  0999 V2000
   -1.9596    2.3696    1.3102 C   0  0  0  0  0  0  0  0  0  0  0  0
   -2.1817    1.0159    1.8082 N   0  0  0  0  0  0  0  0  0  0  0  0
   -3.4759    0.5007    1.6858 C   0  0  0  0  0  0  0  0  0  0  0  0
   -4.4158    1.1737    1.2583 O   0  0  0  0  0  0  0  0  0  0  0  0
   -3.6944   -0.9372    2.0508 C   0  0  0  0  0  0  0  0  0  0  0  0
   -4.5107   -1.7536    1.3593 C   0  0  0  0  0  0  0  0  0  0  0  0
   -5.2285   -1.4234    0.1249 C   0  0  0  0  0  0  0  0  0  0  0  0
   -4.5417   -1.2567   -1.0821 C   0  0  0  0  0  0  0  0  0  0  0  0
   -5.2408   -0.9511   -2.2534 C   0  0  0  0  0  0  0  0  0  0  0  0
   -6.6362   -0.8041   -2.2341 C   0  0  0  0  0  0  0  0  0  0  0  0
   -7.3989   -0.4858   -3.4963 C   0  0  0  0  0  0  0  0  0  0  0  0
   -6.6293    0.0897   -4.4629 F   0  0  0  0  0  0  0  0  0  0  0  0
   -8.4380    0.3710   -3.2904 F   0  0  0  0  0  0  0  0  0  0  0  0
   -7.9404   -1.5983   -4.0662 F   0  0  0  0  0  0  0  0  0  0  0  0
   -7.3193   -0.9881   -1.0223 C   0  0  0  0  0  0  0  0  0  0  0  0
   -6.6204   -1.2957    0.1481 C   0  0  0  0  0  0  0  0  0  0  0  0
   -2.9054   -1.5193    3.4696 S   0  0  0  0  0  0  0  0  0  0  0  0
   -1.2845   -0.8749    3.1298 C   0  0  0  0  0  0  0  0  0  0  0  0
   -0.1964   -1.5538    3.7049 C   0  0  0  0  0  0  0  0  0  0  0  0
    1.1052   -1.0935    3.5228 C   0  0  0  0  0  0  0  0  0  0  0  0
    1.3223    0.0477    2.7560 C   0  0  0  0  0  0  0  0  0  0  0  0
    2.7079    0.5433    2.5827 C   0  0  0  0  0  0  0  0  0  0  0  0
    3.4209    0.6120    3.5797 O   0  0  0  0  0  0  0  0  0  0  0  0
    3.1198    0.9305    1.3069 N   0  0  0  0  0  0  0  0  0  0  0  0
    2.7058    0.1935    0.1011 C   0  0  0  0  0  0  0  0  0  0  0  0
    3.7083   -0.9430   -0.2126 C   0  0  0  0  0  0  0  0  0  0  0  0
    5.0949   -0.4324   -0.3198 N   0  0  0  0  0  0  0  0  0  0  0  0
    5.4036    0.1405   -1.5648 C   0  0  0  0  0  0  0  0  0  0  0  0
    5.3335   -0.6413   -2.7204 C   0  0  0  0  0  0  0  0  0  0  0  0
    5.6418   -0.0860   -3.9612 C   0  0  0  0  0  0  0  0  0  0  0  0
    6.0263    1.2431   -4.0290 C   0  0  0  0  0  0  0  0  0  0  0  0
    6.0917    1.9528   -2.8459 C   0  0  0  0  0  0  0  0  0  0  0  0
    5.7935    1.4314   -1.6341 N   0  0  0  0  0  0  0  0  0  0  0  0
    5.5026    0.3838    0.8557 C   0  0  0  0  0  0  0  0  0  0  0  0
    4.4744    1.4883    1.1834 C   0  0  0  0  0  0  0  0  0  0  0  0
    0.2398    0.7510    2.2080 C   0  0  0  0  0  0  0  0  0  0  0  0
   -1.0797    0.2934    2.3735 C   0  0  0  0  0  0  0  0  0  0  0  0
   -1.3662    2.3202    0.3917 H   0  0  0  0  0  0  0  0  0  0  0  0
   -1.4426    2.9645    2.0703 H   0  0  0  0  0  0  0  0  0  0  0  0
   -2.8953    2.8845    1.0749 H   0  0  0  0  0  0  0  0  0  0  0  0
   -4.6762   -2.7748    1.6971 H   0  0  0  0  0  0  0  0  0  0  0  0
   -3.4601   -1.3603   -1.1212 H   0  0  0  0  0  0  0  0  0  0  0  0
   -4.6887   -0.8205   -3.1831 H   0  0  0  0  0  0  0  0  0  0  0  0
   -8.4022   -0.8817   -0.9821 H   0  0  0  0  0  0  0  0  0  0  0  0
   -7.1692   -1.4179    1.0795 H   0  0  0  0  0  0  0  0  0  0  0  0
   -0.3585   -2.4427    4.3124 H   0  0  0  0  0  0  0  0  0  0  0  0
    1.9412   -1.6155    3.9833 H   0  0  0  0  0  0  0  0  0  0  0  0
    1.7104   -0.2397    0.2159 H   0  0  0  0  0  0  0  0  0  0  0  0
    2.6649    0.9128   -0.7249 H   0  0  0  0  0  0  0  0  0  0  0  0
    3.3883   -1.4836   -1.1101 H   0  0  0  0  0  0  0  0  0  0  0  0
    3.6859   -1.6730    0.6067 H   0  0  0  0  0  0  0  0  0  0  0  0
    5.0688   -1.6915   -2.6569 H   0  0  0  0  0  0  0  0  0  0  0  0
    5.5928   -0.6934   -4.8598 H   0  0  0  0  0  0  0  0  0  0  0  0
    6.2787    1.7101   -4.9733 H   0  0  0  0  0  0  0  0  0  0  0  0
    6.3969    2.9951   -2.8351 H   0  0  0  0  0  0  0  0  0  0  0  0
    6.5056    0.8081    0.7251 H   0  0  0  0  0  0  0  0  0  0  0  0
    5.5740   -0.2971    1.7135 H   0  0  0  0  0  0  0  0  0  0  0  0
    4.4359    2.2463    0.3942 H   0  0  0  0  0  0  0  0  0  0  0  0
    4.7603    2.0011    2.1082 H   0  0  0  0  0  0  0  0  0  0  0  0
    0.4605    1.6556    1.6484 H   0  0  0  0  0  0  0  0  0  0  0  0
  1  2  1  0
  2  3  1  0
  3  4  2  0
  3  5  1  0
  5  6  2  3
  6  7  1  0
  7  8  2  0
  8  9  1  0
  9 10  2  0
 10 11  1  0
 11 12  1  0
 11 13  1  0
 11 14  1  0
 10 15  1  0
 15 16  2  0
  5 17  1  0
 17 18  1  0
 18 19  2  0
 19 20  1  0
 20 21  2  0
 21 22  1  0
 22 23  2  0
 22 24  1  0
 24 25  1  0
 25 26  1  0
 26 27  1  0
 27 28  1  0
 28 29  2  0
 29 30  1  0
 30 31  2  0
 31 32  1  0
 32 33  2  0
 27 34  1  0
 34 35  1  0
 21 36  1  0
 36 37  2  0
 37  2  1  0
 16  7  1  0
 37 18  1  0
 35 24  1  0
 33 28  1  0
  1 38  1  0
  1 39  1  0
  1 40  1  0
  6 41  1  0
  8 42  1  0
  9 43  1  0
 15 44  1  0
 16 45  1  0
 19 46  1  0
 20 47  1  0
 25 48  1  0
 25 49  1  0
 26 50  1  0
 26 51  1  0
 29 52  1  0
 30 53  1  0
 31 54  1  0
 32 55  1  0
 34 56  1  0
 34 57  1  0
 35 58  1  0
 35 59  1  0
 36 60  1  0
M  END
$$$$
