
     RDKit          3D

 60 65  0  0  0  0  0  0  0  0999 V2000
    5.1676   -2.9187    0.0265 C   0  0  0  0  0  0  0  0  0  0  0  0
    4.9940   -2.2133   -1.2633 C   0  0  0  0  0  0  0  0  0  0  0  0
    5.3782   -2.7965   -2.4055 N   0  0  0  0  0  0  0  0  0  0  0  0
    5.0850   -1.8886   -3.4087 O   0  0  0  0  0  0  0  0  0  0  0  0
    4.5168   -0.7784   -2.8668 C   0  0  0  0  0  0  0  0  0  0  0  0
    4.1595    0.3013   -3.8070 C   0  0  0  0  0  0  0  0  0  0  0  0
    4.4072   -0.9467   -1.5051 C   0  0  0  0  0  0  0  0  0  0  0  0
    3.8480   -0.0054   -0.5687 C   0  0  0  0  0  0  0  0  0  0  0  0
    4.5639    0.8253   -0.0175 O   0  0  0  0  0  0  0  0  0  0  0  0
    2.4754   -0.0870   -0.3322 N   0  0  0  0  0  0  0  0  0  0  0  0
    1.5793   -1.0991   -0.8932 C   0  0  0  0  0  0  0  0  0  0  0  0
    0.5559   -1.5374    0.1500 C   0  0  0  0  0  0  0  0  0  0  0  0
   -0.3317   -0.3618    0.6728 C   0  0  0  0  0  0  0  0  0  0  0  0
    0.3708    0.9927    0.3775 C   0  0  0  0  0  0  0  0  0  0  0  0
    1.8812    0.8947    0.5663 C   0  0  0  0  0  0  0  0  0  0  0  0
   -0.3895   -0.4254    2.1237 O   0  0  0  0  0  0  0  0  0  0  0  0
   -1.1406   -1.4393    2.6451 C   0  0  0  0  0  0  0  0  0  0  0  0
   -0.8640   -1.7932    3.9668 C   0  0  0  0  0  0  0  0  0  0  0  0
   -1.5711   -2.8340    4.5697 C   0  0  0  0  0  0  0  0  0  0  0  0
   -2.5523   -3.5081    3.8490 C   0  0  0  0  0  0  0  0  0  0  0  0
   -3.2241   -4.5090    4.4320 F   0  0  0  0  0  0  0  0  0  0  0  0
   -2.8518   -3.1524    2.5400 C   0  0  0  0  0  0  0  0  0  0  0  0
   -2.1445   -2.1050    1.9431 C   0  0  0  0  0  0  0  0  0  0  0  0
   -2.4669   -1.6715    0.5711 C   0  0  0  0  0  0  0  0  0  0  0  0
   -3.2894   -2.3041   -0.0839 O   0  0  0  0  0  0  0  0  0  0  0  0
   -1.7723   -0.4008    0.0885 C   0  0  0  0  0  0  0  0  0  0  0  0
   -2.6700    0.7790    0.4430 C   0  0  0  0  0  0  0  0  0  0  0  0
   -2.6726    1.4869   -0.8677 C   0  0  0  0  0  0  0  0  0  0  0  0
   -3.2509    2.8422   -1.0318 C   0  0  0  0  0  0  0  0  0  0  0  0
   -3.2154    3.4453   -2.2970 C   0  0  0  0  0  0  0  0  0  0  0  0
   -3.7496    4.7230   -2.4866 C   0  0  0  0  0  0  0  0  0  0  0  0
   -4.3184    5.3998   -1.4105 C   0  0  0  0  0  0  0  0  0  0  0  0
   -4.9727    6.9742   -1.6390 Cl  0  0  0  0  0  0  0  0  0  0  0  0
   -4.3598    4.8089   -0.1482 C   0  0  0  0  0  0  0  0  0  0  0  0
   -3.8286    3.5281    0.0434 C   0  0  0  0  0  0  0  0  0  0  0  0
   -2.1340    0.8290   -1.8434 N   0  0  0  0  0  0  0  0  0  0  0  0
   -1.7164   -0.4230   -1.3430 O   0  0  0  0  0  0  0  0  0  0  0  0
    4.3377   -3.6180    0.1867 H   0  0  0  0  0  0  0  0  0  0  0  0
    6.1043   -3.4860    0.0432 H   0  0  0  0  0  0  0  0  0  0  0  0
    5.1874   -2.2168    0.8678 H   0  0  0  0  0  0  0  0  0  0  0  0
    4.9863    0.5011   -4.4988 H   0  0  0  0  0  0  0  0  0  0  0  0
    3.9357    1.2321   -3.2757 H   0  0  0  0  0  0  0  0  0  0  0  0
    3.2764    0.0228   -4.3933 H   0  0  0  0  0  0  0  0  0  0  0  0
    1.0906   -0.6614   -1.7709 H   0  0  0  0  0  0  0  0  0  0  0  0
    2.1374   -1.9744   -1.2336 H   0  0  0  0  0  0  0  0  0  0  0  0
   -0.0568   -2.3373   -0.2817 H   0  0  0  0  0  0  0  0  0  0  0  0
    1.0985   -1.9945    0.9891 H   0  0  0  0  0  0  0  0  0  0  0  0
    0.1820    1.3189   -0.6507 H   0  0  0  0  0  0  0  0  0  0  0  0
   -0.0073    1.7755    1.0453 H   0  0  0  0  0  0  0  0  0  0  0  0
    2.3418    1.8728    0.3877 H   0  0  0  0  0  0  0  0  0  0  0  0
    2.1297    0.5987    1.5921 H   0  0  0  0  0  0  0  0  0  0  0  0
   -0.0912   -1.2694    4.5238 H   0  0  0  0  0  0  0  0  0  0  0  0
   -1.3607   -3.1279    5.5942 H   0  0  0  0  0  0  0  0  0  0  0  0
   -3.6316   -3.6861    2.0031 H   0  0  0  0  0  0  0  0  0  0  0  0
   -2.2764    1.3974    1.2518 H   0  0  0  0  0  0  0  0  0  0  0  0
   -3.6973    0.4854    0.6873 H   0  0  0  0  0  0  0  0  0  0  0  0
   -2.7754    2.9240   -3.1462 H   0  0  0  0  0  0  0  0  0  0  0  0
   -3.7170    5.1804   -3.4733 H   0  0  0  0  0  0  0  0  0  0  0  0
   -4.8066    5.3391    0.6896 H   0  0  0  0  0  0  0  0  0  0  0  0
   -3.8835    3.0917    1.0359 H   0  0  0  0  0  0  0  0  0  0  0  0
  1  2  1  0
  2  3  2  0
  3  4  1  0
  4  5  1  0
  5  6  1  0
  5  7  2  0
  7  8  1  0
  8  9  2  0
  8 10  1  0
 10 11  1  0
 11 12  1  0
 12 13  1  0
 13 14  1  0
 14 15  1  0
 13 16  1  0
 16 17  1  0
 17 18  2  0
 18 19  1  0
 19 20  2  0
 20 21  1  0
 20 22  1  0
 22 23  2  0
 23 24  1  0
 24 25  2  0
 24 26  1  0
 26 27  1  0
 27 28  1  0
 28 29  1  0
 29 30  2  0
 30 31  1  0
 31 32  2  0
 32 33  1  0
 32 34  1  0
 34 35  2  0
 28 36  2  0
 36 37  1  0
  7  2  1  0
 15 10  1  0
 23 17  1  0
 37 26  1  0
 26 13  1  0
 35 29  1  0
  1 38  1  0
  1 39  1  0
  1 40  1  0
  6 41  1  0
  6 42  1  0
  6 43  1  0
 11 44  1  0
 11 45  1  0
 12 46  1  0
 12 47  1  0
 14 48  1  0
 14 49  1  0
 15 50  1  0
 15 51  1  0
 18 52  1  0
 19 53  1  0
 22 54  1  0
 27 55  1  0
 27 56  1  0
 30 57  1  0
 31 58  1  0
 34 59  1  0
 35 60  1  0
M  END
$$$$
