
     RDKit          3D

 60 64  0  0  0  0  0  0  0  0999 V2000
   -2.0457    1.4889   -0.9107 C   0  0  0  0  0  0  0  0  0  0  0  0
   -2.1947    0.0444   -0.7584 N   0  0  0  0  0  0  0  0  0  0  0  0
   -3.4193   -0.5072   -1.1474 C   0  0  0  0  0  0  0  0  0  0  0  0
   -4.2980    0.1613   -1.6945 O   0  0  0  0  0  0  0  0  0  0  0  0
   -3.6683   -1.9530   -0.8422 C   0  0  0  0  0  0  0  0  0  0  0  0
   -4.8659   -2.4292   -0.4520 C   0  0  0  0  0  0  0  0  0  0  0  0
   -6.0814   -1.6583   -0.1716 C   0  0  0  0  0  0  0  0  0  0  0  0
   -6.1334   -0.7510    0.8886 C   0  0  0  0  0  0  0  0  0  0  0  0
   -7.3196   -0.0673    1.1755 C   0  0  0  0  0  0  0  0  0  0  0  0
   -8.4723   -0.2795    0.4063 C   0  0  0  0  0  0  0  0  0  0  0  0
   -9.7636    0.4366    0.7250 C   0  0  0  0  0  0  0  0  0  0  0  0
  -10.4412    0.8321   -0.3842 F   0  0  0  0  0  0  0  0  0  0  0  0
   -9.5959    1.5629    1.4752 F   0  0  0  0  0  0  0  0  0  0  0  0
  -10.6256   -0.3489    1.4242 F   0  0  0  0  0  0  0  0  0  0  0  0
   -8.4153   -1.1993   -0.6504 C   0  0  0  0  0  0  0  0  0  0  0  0
   -7.2296   -1.8830   -0.9355 C   0  0  0  0  0  0  0  0  0  0  0  0
   -2.3540   -3.0442   -1.0780 S   0  0  0  0  0  0  0  0  0  0  0  0
   -1.1196   -2.1140   -0.2067 C   0  0  0  0  0  0  0  0  0  0  0  0
   -0.0845   -2.8438    0.3984 C   0  0  0  0  0  0  0  0  0  0  0  0
    0.9559   -2.1882    1.0482 C   0  0  0  0  0  0  0  0  0  0  0  0
    0.9736   -0.7977    1.0591 C   0  0  0  0  0  0  0  0  0  0  0  0
    2.0861   -0.0974    1.7289 C   0  0  0  0  0  0  0  0  0  0  0  0
    2.1182   -0.1241    2.9594 O   0  0  0  0  0  0  0  0  0  0  0  0
    3.0151    0.5573    0.9329 N   0  0  0  0  0  0  0  0  0  0  0  0
    3.1127    0.4472   -0.5321 C   0  0  0  0  0  0  0  0  0  0  0  0
    4.5740    0.4580   -1.0192 C   0  0  0  0  0  0  0  0  0  0  0  0
    5.3186    1.6538   -0.5564 N   0  0  0  0  0  0  0  0  0  0  0  0
    6.6994    1.3842   -0.4523 C   0  0  0  0  0  0  0  0  0  0  0  0
    7.4149    1.0256   -1.5994 C   0  0  0  0  0  0  0  0  0  0  0  0
    8.7753    0.7447   -1.5105 C   0  0  0  0  0  0  0  0  0  0  0  0
    9.4026    0.8290   -0.2762 C   0  0  0  0  0  0  0  0  0  0  0  0
    8.6379    1.2032    0.8133 C   0  0  0  0  0  0  0  0  0  0  0  0
    7.3169    1.4770    0.7475 N   0  0  0  0  0  0  0  0  0  0  0  0
    4.7490    2.3210    0.6401 C   0  0  0  0  0  0  0  0  0  0  0  0
    4.0850    1.3181    1.5942 C   0  0  0  0  0  0  0  0  0  0  0  0
   -0.0593   -0.0582    0.4716 C   0  0  0  0  0  0  0  0  0  0  0  0
   -1.1323   -0.7075   -0.1604 C   0  0  0  0  0  0  0  0  0  0  0  0
   -2.8198    1.9203   -1.5453 H   0  0  0  0  0  0  0  0  0  0  0  0
   -1.0848    1.7179   -1.3786 H   0  0  0  0  0  0  0  0  0  0  0  0
   -2.1187    1.9624    0.0727 H   0  0  0  0  0  0  0  0  0  0  0  0
   -4.9963   -3.4984   -0.2986 H   0  0  0  0  0  0  0  0  0  0  0  0
   -5.2541   -0.5702    1.5020 H   0  0  0  0  0  0  0  0  0  0  0  0
   -7.3381    0.6347    2.0071 H   0  0  0  0  0  0  0  0  0  0  0  0
   -9.2974   -1.3848   -1.2594 H   0  0  0  0  0  0  0  0  0  0  0  0
   -7.2080   -2.5861   -1.7626 H   0  0  0  0  0  0  0  0  0  0  0  0
   -0.0866   -3.9322    0.3672 H   0  0  0  0  0  0  0  0  0  0  0  0
    1.7471   -2.7539    1.5331 H   0  0  0  0  0  0  0  0  0  0  0  0
    2.5689    1.3021   -0.9525 H   0  0  0  0  0  0  0  0  0  0  0  0
    2.6210   -0.4657   -0.8832 H   0  0  0  0  0  0  0  0  0  0  0  0
    4.5824    0.4234   -2.1135 H   0  0  0  0  0  0  0  0  0  0  0  0
    5.0509   -0.4584   -0.6497 H   0  0  0  0  0  0  0  0  0  0  0  0
    6.9194    0.9886   -2.5650 H   0  0  0  0  0  0  0  0  0  0  0  0
    9.3367    0.4701   -2.3985 H   0  0  0  0  0  0  0  0  0  0  0  0
   10.4585    0.6200   -0.1666 H   0  0  0  0  0  0  0  0  0  0  0  0
    9.0766    1.2934    1.8047 H   0  0  0  0  0  0  0  0  0  0  0  0
    5.4775    2.9462    1.1723 H   0  0  0  0  0  0  0  0  0  0  0  0
    3.9787    3.0204    0.2835 H   0  0  0  0  0  0  0  0  0  0  0  0
    4.8156    0.5895    1.9675 H   0  0  0  0  0  0  0  0  0  0  0  0
    3.6652    1.8441    2.4610 H   0  0  0  0  0  0  0  0  0  0  0  0
   -0.0103    1.0232    0.5513 H   0  0  0  0  0  0  0  0  0  0  0  0
  1  2  1  0
  2  3  1  0
  3  4  2  0
  3  5  1  0
  5  6  2  3
  6  7  1  0
  7  8  2  0
  8  9  1  0
  9 10  2  0
 10 11  1  0
 11 12  1  0
 11 13  1  0
 11 14  1  0
 10 15  1  0
 15 16  2  0
  5 17  1  0
 17 18  1  0
 18 19  2  0
 19 20  1  0
 20 21  2  0
 21 22  1  0
 22 23  2  0
 22 24  1  0
 24 25  1  0
 25 26  1  0
 26 27  1  0
 27 28  1  0
 28 29  2  0
 29 30  1  0
 30 31  2  0
 31 32  1  0
 32 33  2  0
 27 34  1  0
 34 35  1  0
 21 36  1  0
 36 37  2  0
 37  2  1  0
 16  7  1  0
 37 18  1  0
 35 24  1  0
 33 28  1  0
  1 38  1  0
  1 39  1  0
  1 40  1  0
  6 41  1  0
  8 42  1  0
  9 43  1  0
 15 44  1  0
 16 45  1  0
 19 46  1  0
 20 47  1  0
 25 48  1  0
 25 49  1  0
 26 50  1  0
 26 51  1  0
 29 52  1  0
 30 53  1  0
 31 54  1  0
 32 55  1  0
 34 56  1  0
 34 57  1  0
 35 58  1  0
 35 59  1  0
 36 60  1  0
M  END
$$$$
