
     RDKit          3D

 44 44  0  0  0  0  0  0  0  0999 V2000
   -4.0551   -0.1306   -2.5751 C   0  0  0  0  0  0  0  0  0  0  0  0
   -4.3158   -0.3390   -1.0900 C   0  0  0  0  0  0  0  0  0  0  0  0
   -3.8248    0.8017   -0.3054 N   0  0  0  0  0  0  0  0  0  0  0  0
   -4.8082    1.8556   -0.0253 C   0  0  0  0  0  0  0  0  0  0  0  0
   -5.5443    1.5881    1.2799 C   0  0  0  0  0  0  0  0  0  0  0  0
   -2.5231    0.8512    0.1863 C   0  0  0  0  0  0  0  0  0  0  0  0
   -2.0924    1.8529    1.0736 C   0  0  0  0  0  0  0  0  0  0  0  0
   -0.7863    1.8995    1.5799 C   0  0  0  0  0  0  0  0  0  0  0  0
    0.1483    0.9444    1.1998 C   0  0  0  0  0  0  0  0  0  0  0  0
   -0.2254   -0.0474    0.3036 C   0  0  0  0  0  0  0  0  0  0  0  0
    0.5963   -1.0471   -0.1439 O   0  0  0  0  0  0  0  0  0  0  0  0
    1.9648   -0.7037   -0.3148 C   0  0  0  0  0  0  0  0  0  0  0  0
    2.8898   -1.0378    0.8699 C   0  0  0  0  0  0  0  0  0  0  0  0
    2.4461   -1.4923    1.9253 O   0  0  0  0  0  0  0  0  0  0  0  0
    4.2574   -0.7800    0.7035 N   0  0  0  0  0  0  0  0  0  0  0  0
    5.1347   -1.1037    1.8231 C   0  0  0  0  0  0  0  0  0  0  0  0
    4.8973   -0.5125   -0.5933 C   0  0  0  0  0  0  0  0  0  0  0  0
    5.2745   -1.7745   -1.3750 C   0  0  0  0  0  0  0  0  0  0  0  0
    6.5503   -2.3334   -0.9143 C   0  0  0  0  0  0  0  0  0  0  0  0
    7.5666   -2.7591   -0.5513 N   0  0  0  0  0  0  0  0  0  0  0  0
   -1.5452   -0.0958   -0.1722 C   0  0  0  0  0  0  0  0  0  0  0  0
   -4.5471    0.7786   -2.9363 H   0  0  0  0  0  0  0  0  0  0  0  0
   -2.9866   -0.0367   -2.7908 H   0  0  0  0  0  0  0  0  0  0  0  0
   -4.4440   -0.9773   -3.1492 H   0  0  0  0  0  0  0  0  0  0  0  0
   -3.8893   -1.2875   -0.7450 H   0  0  0  0  0  0  0  0  0  0  0  0
   -5.3978   -0.4503   -0.9431 H   0  0  0  0  0  0  0  0  0  0  0  0
   -5.5461    1.8941   -0.8370 H   0  0  0  0  0  0  0  0  0  0  0  0
   -4.3487    2.8503   -0.0197 H   0  0  0  0  0  0  0  0  0  0  0  0
   -6.0682    0.6271    1.2468 H   0  0  0  0  0  0  0  0  0  0  0  0
   -6.2863    2.3718    1.4620 H   0  0  0  0  0  0  0  0  0  0  0  0
   -4.8612    1.5631    2.1342 H   0  0  0  0  0  0  0  0  0  0  0  0
   -2.7735    2.6225    1.4224 H   0  0  0  0  0  0  0  0  0  0  0  0
   -0.5105    2.6783    2.2861 H   0  0  0  0  0  0  0  0  0  0  0  0
    1.1395    0.9797    1.6376 H   0  0  0  0  0  0  0  0  0  0  0  0
    2.3068   -1.2989   -1.1683 H   0  0  0  0  0  0  0  0  0  0  0  0
    2.0810    0.3522   -0.5892 H   0  0  0  0  0  0  0  0  0  0  0  0
    6.0181   -0.4596    1.7977 H   0  0  0  0  0  0  0  0  0  0  0  0
    4.6230   -0.9511    2.7779 H   0  0  0  0  0  0  0  0  0  0  0  0
    5.4317   -2.1533    1.7496 H   0  0  0  0  0  0  0  0  0  0  0  0
    5.7680    0.1320   -0.4205 H   0  0  0  0  0  0  0  0  0  0  0  0
    4.2038    0.0735   -1.2036 H   0  0  0  0  0  0  0  0  0  0  0  0
    5.3788   -1.5120   -2.4345 H   0  0  0  0  0  0  0  0  0  0  0  0
    4.4835   -2.5288   -1.3048 H   0  0  0  0  0  0  0  0  0  0  0  0
   -1.7806   -0.9040   -0.8569 H   0  0  0  0  0  0  0  0  0  0  0  0
  1  2  1  0
  2  3  1  0
  3  4  1  0
  4  5  1  0
  3  6  1  0
  6  7  2  0
  7  8  1  0
  8  9  2  0
  9 10  1  0
 10 11  1  0
 11 12  1  0
 12 13  1  0
 13 14  2  0
 13 15  1  0
 15 16  1  0
 15 17  1  0
 17 18  1  0
 18 19  1  0
 19 20  3  0
 10 21  2  0
 21  6  1  0
  1 22  1  0
  1 23  1  0
  1 24  1  0
  2 25  1  0
  2 26  1  0
  4 27  1  0
  4 28  1  0
  5 29  1  0
  5 30  1  0
  5 31  1  0
  7 32  1  0
  8 33  1  0
  9 34  1  0
 12 35  1  0
 12 36  1  0
 16 37  1  0
 16 38  1  0
 16 39  1  0
 17 40  1  0
 17 41  1  0
 18 42  1  0
 18 43  1  0
 21 44  1  0
M  END
$$$$
