
     RDKit          3D

 32 33  0  0  0  0  0  0  0  0999 V2000
    4.1483   -1.2071   -1.4693 C   0  0  0  0  0  0  0  0  0  0  0  0
    4.3719   -0.3376   -0.2439 C   0  0  0  0  0  0  0  0  0  0  0  0
    3.0347   -0.5297    0.9717 S   0  0  0  0  0  0  0  0  0  0  0  0
    1.7055    0.2994    0.2254 C   0  0  0  0  0  0  0  0  0  0  0  0
    1.6548    1.3757   -0.6276 C   0  0  0  0  0  0  0  0  0  0  0  0
    0.3632    1.6732   -0.9648 N   0  0  0  0  0  0  0  0  0  0  0  0
   -0.3943    0.8178   -0.3030 C   0  0  0  0  0  0  0  0  0  0  0  0
   -1.8522    0.7747   -0.3808 C   0  0  0  0  0  0  0  0  0  0  0  0
   -2.4729    0.3079   -1.5456 C   0  0  0  0  0  0  0  0  0  0  0  0
   -3.8655    0.2528   -1.6294 C   0  0  0  0  0  0  0  0  0  0  0  0
   -4.6454    0.6737   -0.5530 C   0  0  0  0  0  0  0  0  0  0  0  0
   -4.0354    1.1582    0.6036 C   0  0  0  0  0  0  0  0  0  0  0  0
   -2.6426    1.2135    0.6880 C   0  0  0  0  0  0  0  0  0  0  0  0
    0.3909   -0.0491    0.4421 N   0  0  0  0  0  0  0  0  0  0  0  0
   -0.1005   -1.1674    1.2300 C   0  0  0  0  0  0  0  0  0  0  0  0
   -0.2192   -0.8455    2.7107 C   0  0  0  0  0  0  0  0  0  0  0  0
    4.0708   -2.2661   -1.2006 H   0  0  0  0  0  0  0  0  0  0  0  0
    3.2445   -0.9205   -2.0161 H   0  0  0  0  0  0  0  0  0  0  0  0
    4.9943   -1.1025   -2.1568 H   0  0  0  0  0  0  0  0  0  0  0  0
    5.3042   -0.6408    0.2438 H   0  0  0  0  0  0  0  0  0  0  0  0
    4.4866    0.7132   -0.5264 H   0  0  0  0  0  0  0  0  0  0  0  0
    2.4762    1.9549   -1.0265 H   0  0  0  0  0  0  0  0  0  0  0  0
   -1.8693   -0.0075   -2.3940 H   0  0  0  0  0  0  0  0  0  0  0  0
   -4.3400   -0.1096   -2.5375 H   0  0  0  0  0  0  0  0  0  0  0  0
   -5.7298    0.6370   -0.6211 H   0  0  0  0  0  0  0  0  0  0  0  0
   -4.6440    1.5038    1.4352 H   0  0  0  0  0  0  0  0  0  0  0  0
   -2.1779    1.6175    1.5840 H   0  0  0  0  0  0  0  0  0  0  0  0
   -1.0737   -1.4731    0.8324 H   0  0  0  0  0  0  0  0  0  0  0  0
    0.5709   -2.0179    1.0714 H   0  0  0  0  0  0  0  0  0  0  0  0
    0.7495   -0.5781    3.1439 H   0  0  0  0  0  0  0  0  0  0  0  0
   -0.8999   -0.0072    2.8848 H   0  0  0  0  0  0  0  0  0  0  0  0
   -0.6041   -1.7134    3.2551 H   0  0  0  0  0  0  0  0  0  0  0  0
  1  2  1  0
  2  3  1  0
  3  4  1  0
  4  5  2  0
  5  6  1  0
  6  7  2  0
  7  8  1  0
  8  9  2  0
  9 10  1  0
 10 11  2  0
 11 12  1  0
 12 13  2  0
  7 14  1  0
 14 15  1  0
 15 16  1  0
 14  4  1  0
 13  8  1  0
  1 17  1  0
  1 18  1  0
  1 19  1  0
  2 20  1  0
  2 21  1  0
  5 22  1  0
  9 23  1  0
 10 24  1  0
 11 25  1  0
 12 26  1  0
 13 27  1  0
 15 28  1  0
 15 29  1  0
 16 30  1  0
 16 31  1  0
 16 32  1  0
M  END
$$$$
