
     RDKit          3D

 56 60  0  0  0  0  0  0  0  0999 V2000
   -5.9547    1.1088    0.3511 C   0  0  0  0  0  0  0  0  0  0  0  0
   -5.5865    0.1394   -0.6494 N   0  0  0  0  0  0  0  0  0  0  0  0
   -4.3978   -0.5283   -0.7652 C   0  0  0  0  0  0  0  0  0  0  0  0
   -3.0914   -0.4018    0.3572 S   0  0  0  0  0  0  0  0  0  0  0  0
   -2.2183   -1.9530   -0.0077 C   0  0  0  0  0  0  0  0  0  0  0  0
   -0.8996   -1.9665    0.7476 C   0  0  0  0  0  0  0  0  0  0  0  0
   -0.8227   -2.4309    1.8812 O   0  0  0  0  0  0  0  0  0  0  0  0
    0.1403   -1.4046    0.0199 N   0  0  0  0  0  0  0  0  0  0  0  0
    1.4939   -1.2838    0.3982 C   0  0  0  0  0  0  0  0  0  0  0  0
    2.3476   -0.6583   -0.5152 C   0  0  0  0  0  0  0  0  0  0  0  0
    3.7138   -0.5055   -0.2455 C   0  0  0  0  0  0  0  0  0  0  0  0
    4.2431   -0.9890    0.9639 C   0  0  0  0  0  0  0  0  0  0  0  0
    5.5718   -0.9202    1.3516 N   0  0  0  0  0  0  0  0  0  0  0  0
    5.7121   -1.4785    2.5336 C   0  0  0  0  0  0  0  0  0  0  0  0
    7.2749   -1.5902    3.3149 S   0  0  0  0  0  0  0  0  0  0  0  0
    8.4012   -1.3731    1.9059 C   0  0  0  0  0  0  0  0  0  0  0  0
    8.7231    0.0934    1.6807 C   0  0  0  0  0  0  0  0  0  0  0  0
    9.8098    0.5782    1.9959 O   0  0  0  0  0  0  0  0  0  0  0  0
    7.7173    0.8101    1.0594 N   0  0  0  0  0  0  0  0  0  0  0  0
    7.7998    2.2175    0.8450 C   0  0  0  0  0  0  0  0  0  0  0  0
    7.3567    3.1819    1.9105 C   0  0  0  0  0  0  0  0  0  0  0  0
    6.5522    3.0358    0.6528 C   0  0  0  0  0  0  0  0  0  0  0  0
    4.2849   -2.0742    3.2601 S   0  0  0  0  0  0  0  0  0  0  0  0
    3.3806   -1.5995    1.8733 C   0  0  0  0  0  0  0  0  0  0  0  0
    2.0056   -1.7578    1.6112 C   0  0  0  0  0  0  0  0  0  0  0  0
   -4.3910   -1.2428   -1.8616 N   0  0  0  0  0  0  0  0  0  0  0  0
   -5.6099   -1.0778   -2.4687 N   0  0  0  0  0  0  0  0  0  0  0  0
   -6.3488   -0.2701   -1.7266 C   0  0  0  0  0  0  0  0  0  0  0  0
   -7.7183    0.1371   -2.0392 C   0  0  0  0  0  0  0  0  0  0  0  0
   -8.7310    0.1515   -1.0694 C   0  0  0  0  0  0  0  0  0  0  0  0
  -10.0304    0.5427   -1.4045 C   0  0  0  0  0  0  0  0  0  0  0  0
  -10.3325    0.9103   -2.7156 C   0  0  0  0  0  0  0  0  0  0  0  0
   -9.3413    0.8752   -3.6946 C   0  0  0  0  0  0  0  0  0  0  0  0
   -8.0435    0.4853   -3.3586 C   0  0  0  0  0  0  0  0  0  0  0  0
   -6.6166    1.8578   -0.0908 H   0  0  0  0  0  0  0  0  0  0  0  0
   -6.4584    0.5838    1.1646 H   0  0  0  0  0  0  0  0  0  0  0  0
   -5.0651    1.6236    0.7220 H   0  0  0  0  0  0  0  0  0  0  0  0
   -2.8154   -2.8142    0.3061 H   0  0  0  0  0  0  0  0  0  0  0  0
   -2.0246   -2.0502   -1.0814 H   0  0  0  0  0  0  0  0  0  0  0  0
   -0.1084   -0.9952   -0.8748 H   0  0  0  0  0  0  0  0  0  0  0  0
    1.9693   -0.2823   -1.4624 H   0  0  0  0  0  0  0  0  0  0  0  0
    4.3659   -0.0221   -0.9662 H   0  0  0  0  0  0  0  0  0  0  0  0
    9.3398   -1.8899    2.1369 H   0  0  0  0  0  0  0  0  0  0  0  0
    8.0086   -1.8262    0.9886 H   0  0  0  0  0  0  0  0  0  0  0  0
    6.8101    0.3527    0.9597 H   0  0  0  0  0  0  0  0  0  0  0  0
    8.6710    2.5058    0.2587 H   0  0  0  0  0  0  0  0  0  0  0  0
    6.9507    2.7784    2.8307 H   0  0  0  0  0  0  0  0  0  0  0  0
    7.9479    4.0807    2.0427 H   0  0  0  0  0  0  0  0  0  0  0  0
    6.5860    3.8457   -0.0663 H   0  0  0  0  0  0  0  0  0  0  0  0
    5.5883    2.5469    0.7302 H   0  0  0  0  0  0  0  0  0  0  0  0
    1.3825   -2.2461    2.3517 H   0  0  0  0  0  0  0  0  0  0  0  0
   -8.5313   -0.1625   -0.0486 H   0  0  0  0  0  0  0  0  0  0  0  0
  -10.8093    0.5512   -0.6460 H   0  0  0  0  0  0  0  0  0  0  0  0
  -11.3434    1.2111   -2.9773 H   0  0  0  0  0  0  0  0  0  0  0  0
   -9.5782    1.1427   -4.7210 H   0  0  0  0  0  0  0  0  0  0  0  0
   -7.2804    0.4470   -4.1357 H   0  0  0  0  0  0  0  0  0  0  0  0
  1  2  1  0
  2  3  1  0
  3  4  1  0
  4  5  1  0
  5  6  1  0
  6  7  2  0
  6  8  1  0
  8  9  1  0
  9 10  2  0
 10 11  1  0
 11 12  2  0
 12 13  1  0
 13 14  2  0
 14 15  1  0
 15 16  1  0
 16 17  1  0
 17 18  2  0
 17 19  1  0
 19 20  1  0
 20 21  1  0
 21 22  1  0
 14 23  1  0
 23 24  1  0
 24 25  2  0
  3 26  2  0
 26 27  1  0
 27 28  2  0
 28 29  1  0
 29 30  2  0
 30 31  1  0
 31 32  2  0
 32 33  1  0
 33 34  2  0
 28  2  1  0
 34 29  1  0
 25  9  1  0
 24 12  1  0
 22 20  1  0
  1 35  1  0
  1 36  1  0
  1 37  1  0
  5 38  1  0
  5 39  1  0
  8 40  1  0
 10 41  1  0
 11 42  1  0
 16 43  1  0
 16 44  1  0
 19 45  1  0
 20 46  1  0
 21 47  1  0
 21 48  1  0
 22 49  1  0
 22 50  1  0
 25 51  1  0
 30 52  1  0
 31 53  1  0
 32 54  1  0
 33 55  1  0
 34 56  1  0
M  END
$$$$
