
     RDKit          3D

 36 37  0  0  0  0  0  0  0  0999 V2000
   -0.2573    1.8306   -1.4647 O   0  0  0  0  0  0  0  0  0  0  0  0
   -0.9024    1.8765   -0.4189 C   0  0  0  0  0  0  0  0  0  0  0  0
   -0.2909    2.2867    0.9241 C   0  0  0  0  0  0  0  0  0  0  0  0
    1.1229    2.0913    0.9717 O   0  0  0  0  0  0  0  0  0  0  0  0
    1.4973    0.7885    0.9564 C   0  0  0  0  0  0  0  0  0  0  0  0
    0.7464   -0.1740    0.9870 O   0  0  0  0  0  0  0  0  0  0  0  0
    2.9782    0.6690    0.9160 C   0  0  0  0  0  0  0  0  0  0  0  0
    3.5396   -0.6085    1.0459 C   0  0  0  0  0  0  0  0  0  0  0  0
    4.9241   -0.7653    1.0095 C   0  0  0  0  0  0  0  0  0  0  0  0
    5.6079   -2.3359    1.1715 Cl  0  0  0  0  0  0  0  0  0  0  0  0
    5.7598    0.3358    0.8438 C   0  0  0  0  0  0  0  0  0  0  0  0
    5.1982    1.6035    0.7113 C   0  0  0  0  0  0  0  0  0  0  0  0
    6.2242    2.9694    0.5029 Cl  0  0  0  0  0  0  0  0  0  0  0  0
    3.8150    1.7795    0.7450 C   0  0  0  0  0  0  0  0  0  0  0  0
   -2.2428    1.5549   -0.3528 N   0  0  0  0  0  0  0  0  0  0  0  0
   -2.8941    0.8933   -1.4670 C   0  0  0  0  0  0  0  0  0  0  0  0
   -2.4807   -0.5836   -1.6092 C   0  0  0  0  0  0  0  0  0  0  0  0
   -3.1298   -1.5370   -0.7034 N   0  0  0  0  0  0  0  0  0  0  0  0
   -3.3689   -2.8528   -1.0466 C   0  0  0  0  0  0  0  0  0  0  0  0
   -2.9987   -3.3521   -2.2598 O   0  0  0  0  0  0  0  0  0  0  0  0
   -3.9593   -3.5891   -0.1026 C   0  0  0  0  0  0  0  0  0  0  0  0
   -4.2230   -2.6741    1.3414 S   0  0  0  0  0  0  0  0  0  0  0  0
   -3.4769   -1.2371    0.6138 C   0  0  0  0  0  0  0  0  0  0  0  0
   -3.3407   -0.1903    1.2275 O   0  0  0  0  0  0  0  0  0  0  0  0
   -0.4795    3.3571    1.0575 H   0  0  0  0  0  0  0  0  0  0  0  0
   -0.7704    1.7576    1.7560 H   0  0  0  0  0  0  0  0  0  0  0  0
    2.8972   -1.4778    1.1751 H   0  0  0  0  0  0  0  0  0  0  0  0
    6.8385    0.2072    0.8160 H   0  0  0  0  0  0  0  0  0  0  0  0
    3.3999    2.7782    0.6317 H   0  0  0  0  0  0  0  0  0  0  0  0
   -2.6141    1.3025    0.5652 H   0  0  0  0  0  0  0  0  0  0  0  0
   -2.6183    1.4324   -2.3805 H   0  0  0  0  0  0  0  0  0  0  0  0
   -3.9758    0.9888   -1.3276 H   0  0  0  0  0  0  0  0  0  0  0  0
   -1.3989   -0.7063   -1.4842 H   0  0  0  0  0  0  0  0  0  0  0  0
   -2.7363   -0.8751   -2.6348 H   0  0  0  0  0  0  0  0  0  0  0  0
   -2.1743   -2.9091   -2.5182 H   0  0  0  0  0  0  0  0  0  0  0  0
   -4.2161   -4.6345   -0.1989 H   0  0  0  0  0  0  0  0  0  0  0  0
  1  2  2  0
  2  3  1  0
  3  4  1  0
  4  5  1  0
  5  6  2  0
  5  7  1  0
  7  8  2  0
  8  9  1  0
  9 10  1  0
  9 11  2  0
 11 12  1  0
 12 13  1  0
 12 14  2  0
  2 15  1  0
 15 16  1  0
 16 17  1  0
 17 18  1  0
 18 19  1  0
 19 20  1  0
 19 21  2  0
 21 22  1  0
 22 23  1  0
 23 24  2  0
 14  7  1  0
 23 18  1  0
  3 25  1  0
  3 26  1  0
  8 27  1  0
 11 28  1  0
 14 29  1  0
 15 30  1  0
 16 31  1  0
 16 32  1  0
 17 33  1  0
 17 34  1  0
 20 35  1  0
 21 36  1  0
M  END
$$$$
