
     RDKit          3D

 42 41  0  0  0  0  0  0  0  0999 V2000
   -4.9466   -1.7987    3.5780 C   0  0  0  0  0  0  0  0  0  0  0  0
   -3.8739   -1.1265    2.7619 C   0  0  0  0  0  0  0  0  0  0  0  0
   -4.1675    0.2955    2.3809 C   0  0  0  0  0  0  0  0  0  0  0  0
   -2.7494   -1.7860    2.4156 C   0  0  0  0  0  0  0  0  0  0  0  0
   -1.5914   -1.2532    1.6132 C   0  0  0  0  0  0  0  0  0  0  0  0
   -1.9142   -1.0907    0.1168 C   0  0  0  0  0  0  0  0  0  0  0  0
   -0.7683   -0.7070   -0.8157 C   0  0  0  0  0  0  0  0  0  0  0  0
   -1.2061   -0.6104   -2.2530 C   0  0  0  0  0  0  0  0  0  0  0  0
    0.4924   -0.4695   -0.4005 C   0  0  0  0  0  0  0  0  0  0  0  0
    1.6915   -0.1019   -1.2318 C   0  0  0  0  0  0  0  0  0  0  0  0
    2.0803    1.3575   -1.0419 C   0  0  0  0  0  0  0  0  0  0  0  0
    3.2969    1.7375   -1.8551 C   0  0  0  0  0  0  0  0  0  0  0  0
    3.0030    2.3544   -3.1973 C   0  0  0  0  0  0  0  0  0  0  0  0
    4.5656    1.5601   -1.4465 C   0  0  0  0  0  0  0  0  0  0  0  0
    5.0413    0.9615   -0.1602 C   0  0  0  0  0  0  0  0  0  0  0  0
    5.7121   -0.2517   -0.4689 O   0  0  0  0  0  0  0  0  0  0  0  0
   -5.1145   -1.2511    4.5059 H   0  0  0  0  0  0  0  0  0  0  0  0
   -5.8871   -1.8404    3.0215 H   0  0  0  0  0  0  0  0  0  0  0  0
   -4.6767   -2.8246    3.8473 H   0  0  0  0  0  0  0  0  0  0  0  0
   -3.2513    0.8778    2.2097 H   0  0  0  0  0  0  0  0  0  0  0  0
   -4.7399    0.8064    3.1734 H   0  0  0  0  0  0  0  0  0  0  0  0
   -4.7695    0.3058    1.4709 H   0  0  0  0  0  0  0  0  0  0  0  0
   -2.6264   -2.8202    2.7449 H   0  0  0  0  0  0  0  0  0  0  0  0
   -1.2479   -0.3070    2.0451 H   0  0  0  0  0  0  0  0  0  0  0  0
   -0.7662   -1.9657    1.7331 H   0  0  0  0  0  0  0  0  0  0  0  0
   -2.3501   -2.0341   -0.2528 H   0  0  0  0  0  0  0  0  0  0  0  0
   -2.6969   -0.3225    0.0075 H   0  0  0  0  0  0  0  0  0  0  0  0
   -1.9805    0.1623   -2.3706 H   0  0  0  0  0  0  0  0  0  0  0  0
   -1.6347   -1.5559   -2.5950 H   0  0  0  0  0  0  0  0  0  0  0  0
   -0.3972   -0.3737   -2.9179 H   0  0  0  0  0  0  0  0  0  0  0  0
    0.7237   -0.5472    0.6576 H   0  0  0  0  0  0  0  0  0  0  0  0
    2.5109   -0.7396   -0.9127 H   0  0  0  0  0  0  0  0  0  0  0  0
    1.5496   -0.3197   -2.2855 H   0  0  0  0  0  0  0  0  0  0  0  0
    1.2496    2.0026   -1.3209 H   0  0  0  0  0  0  0  0  0  0  0  0
    2.2500    1.5607    0.0158 H   0  0  0  0  0  0  0  0  0  0  0  0
    3.9172    2.5616   -3.7645 H   0  0  0  0  0  0  0  0  0  0  0  0
    2.4698    3.3026   -3.0678 H   0  0  0  0  0  0  0  0  0  0  0  0
    2.3812    1.6817   -3.8005 H   0  0  0  0  0  0  0  0  0  0  0  0
    5.3717    1.8708   -2.1076 H   0  0  0  0  0  0  0  0  0  0  0  0
    4.2441    0.7399    0.5537 H   0  0  0  0  0  0  0  0  0  0  0  0
    5.7504    1.6392    0.3256 H   0  0  0  0  0  0  0  0  0  0  0  0
    5.0552   -0.8211   -0.9115 H   0  0  0  0  0  0  0  0  0  0  0  0
  1  2  1  0
  2  3  1  0
  2  4  2  3
  4  5  1  0
  5  6  1  0
  6  7  1  0
  7  8  1  0
  7  9  2  3
  9 10  1  0
 10 11  1  0
 11 12  1  0
 12 13  1  0
 12 14  2  3
 14 15  1  0
 15 16  1  0
  1 17  1  0
  1 18  1  0
  1 19  1  0
  3 20  1  0
  3 21  1  0
  3 22  1  0
  4 23  1  0
  5 24  1  0
  5 25  1  0
  6 26  1  0
  6 27  1  0
  8 28  1  0
  8 29  1  0
  8 30  1  0
  9 31  1  0
 10 32  1  0
 10 33  1  0
 11 34  1  0
 11 35  1  0
 13 36  1  0
 13 37  1  0
 13 38  1  0
 14 39  1  0
 15 40  1  0
 15 41  1  0
 16 42  1  0
M  END
$$$$
