
     RDKit          3D

 36 36  0  0  0  0  0  0  0  0999 V2000
    1.1600   -5.7192    3.3547 C   0  0  0  0  0  0  0  0  0  0  0  0
    1.1361   -4.2438    2.9967 C   0  0  0  0  0  0  0  0  0  0  0  0
    1.6295   -4.0376    1.6744 O   0  0  0  0  0  0  0  0  0  0  0  0
    0.6491   -4.1926    0.6507 C   0  0  0  0  0  0  0  0  0  0  0  0
   -0.1084   -2.8899    0.4101 C   0  0  0  0  0  0  0  0  0  0  0  0
    0.8270   -1.7615   -0.0140 C   0  0  0  0  0  0  0  0  0  0  0  0
    0.0855   -0.5356   -0.2642 N   0  0  0  0  0  0  0  0  0  0  0  0
    0.5844    0.4437   -1.0968 C   0  0  0  0  0  0  0  0  0  0  0  0
    1.6106    0.2881   -1.7547 O   0  0  0  0  0  0  0  0  0  0  0  0
   -0.1933    1.7286   -1.1578 C   0  0  0  0  0  0  0  0  0  0  0  0
   -1.3837    1.8547   -0.3939 C   0  0  0  0  0  0  0  0  0  0  0  0
   -2.3358    1.8643    0.2696 N   0  0  0  0  0  0  0  0  0  0  0  0
    0.3109    2.6879   -1.9584 C   0  0  0  0  0  0  0  0  0  0  0  0
   -0.2632    3.9759   -2.1623 C   0  0  0  0  0  0  0  0  0  0  0  0
    0.2025    4.9922   -2.9976 C   0  0  0  0  0  0  0  0  0  0  0  0
   -0.6751    6.0994   -2.8888 C   0  0  0  0  0  0  0  0  0  0  0  0
   -1.6315    5.7039   -1.9912 C   0  0  0  0  0  0  0  0  0  0  0  0
   -2.7795    6.3758   -1.4696 N   0  0  0  0  0  4  0  0  0  0  0  0
   -3.4817    5.7751   -0.6483 O   0  0  0  0  0  0  0  0  0  0  0  0
   -2.9767    7.5241   -1.8910 O   0  0  0  0  0  1  0  0  0  0  0  0
   -1.4055    4.4425   -1.5461 O   0  0  0  0  0  0  0  0  0  0  0  0
    0.4855   -6.2955    2.7146 H   0  0  0  0  0  0  0  0  0  0  0  0
    2.1641   -6.1324    3.2136 H   0  0  0  0  0  0  0  0  0  0  0  0
    0.8602   -5.8687    4.3960 H   0  0  0  0  0  0  0  0  0  0  0  0
    1.8043   -3.7035    3.6752 H   0  0  0  0  0  0  0  0  0  0  0  0
    0.1328   -3.8224    3.1188 H   0  0  0  0  0  0  0  0  0  0  0  0
    1.1797   -4.4798   -0.2636 H   0  0  0  0  0  0  0  0  0  0  0  0
   -0.0458   -5.0052    0.8885 H   0  0  0  0  0  0  0  0  0  0  0  0
   -0.6414   -2.5889    1.3194 H   0  0  0  0  0  0  0  0  0  0  0  0
   -0.8672   -3.0517   -0.3649 H   0  0  0  0  0  0  0  0  0  0  0  0
    1.5559   -1.5363    0.7720 H   0  0  0  0  0  0  0  0  0  0  0  0
    1.3808   -2.0414   -0.9169 H   0  0  0  0  0  0  0  0  0  0  0  0
   -0.6717   -0.3261    0.3767 H   0  0  0  0  0  0  0  0  0  0  0  0
    1.2309    2.4909   -2.5075 H   0  0  0  0  0  0  0  0  0  0  0  0
    1.0871    4.9318   -3.6197 H   0  0  0  0  0  0  0  0  0  0  0  0
   -0.6164    7.0535   -3.3948 H   0  0  0  0  0  0  0  0  0  0  0  0
  1  2  1  0
  2  3  1  0
  3  4  1  0
  4  5  1  0
  5  6  1  0
  6  7  1  0
  7  8  1  0
  8  9  2  0
  8 10  1  0
 10 11  1  0
 11 12  3  0
 10 13  2  3
 13 14  1  0
 14 15  2  0
 15 16  1  0
 16 17  2  0
 17 18  1  0
 18 19  2  0
 18 20  1  0
 17 21  1  0
 21 14  1  0
  1 22  1  0
  1 23  1  0
  1 24  1  0
  2 25  1  0
  2 26  1  0
  4 27  1  0
  4 28  1  0
  5 29  1  0
  5 30  1  0
  6 31  1  0
  6 32  1  0
  7 33  1  0
 13 34  1  0
 15 35  1  0
 16 36  1  0
M  CHG  2  18   1  20  -1
M  END
$$$$
