
     RDKit          3D

 54 57  0  0  0  0  0  0  0  0999 V2000
    8.2672    1.0560    2.0839 C   0  0  0  0  0  0  0  0  0  0  0  0
    7.6453    1.4362    0.8173 N   0  0  0  0  0  0  0  0  0  0  0  0
    8.5670    1.7458   -0.2748 C   0  0  0  0  0  0  0  0  0  0  0  0
    6.3767    0.9426    0.4931 C   0  0  0  0  0  0  0  0  0  0  0  0
    5.7506    1.2676   -0.7256 C   0  0  0  0  0  0  0  0  0  0  0  0
    4.4713    0.8008   -1.0603 C   0  0  0  0  0  0  0  0  0  0  0  0
    3.7751   -0.0084   -0.1677 C   0  0  0  0  0  0  0  0  0  0  0  0
    2.4264   -0.4881   -0.5356 C   0  0  0  0  0  0  0  0  0  0  0  0
    1.7370   -1.2437    0.2595 N   0  0  0  0  0  0  0  0  0  0  0  0
    0.4708   -1.6156   -0.1157 N   0  0  0  0  0  0  0  0  0  0  0  0
   -0.4310   -0.8646   -0.8649 C   0  0  0  0  0  0  0  0  0  0  0  0
   -0.1807    0.1803   -1.4571 O   0  0  0  0  0  0  0  0  0  0  0  0
   -1.7647   -1.4661   -0.8829 C   0  0  0  0  0  0  0  0  0  0  0  0
   -2.0233   -2.6855   -0.3189 N   0  0  0  0  0  0  0  0  0  0  0  0
   -3.3047   -2.9542   -0.4851 N   0  0  0  0  0  0  0  0  0  0  0  0
   -3.8919   -1.9398   -1.1898 N   0  0  0  0  0  0  0  0  0  0  0  0
   -5.2479   -2.0335   -1.5955 C   0  0  0  0  0  0  0  0  0  0  0  0
   -5.7922   -1.1350   -2.4164 N   0  0  0  0  0  0  0  0  0  0  0  0
   -7.0978   -1.5862   -2.6000 O   0  0  0  0  0  0  0  0  0  0  0  0
   -7.3274   -2.7642   -1.8993 N   0  0  0  0  0  0  0  0  0  0  0  0
   -6.1824   -3.0390   -1.2762 C   0  0  0  0  0  0  0  0  0  0  0  0
   -5.9900   -4.1086   -0.4807 N   0  0  0  0  0  0  0  0  0  0  0  0
   -2.9395   -0.9490   -1.4127 C   0  0  0  0  0  0  0  0  0  0  0  0
   -3.1796    0.3775   -2.0394 C   0  0  0  0  0  0  0  0  0  0  0  0
   -3.0040    1.3820   -1.0315 O   0  0  0  0  0  0  0  0  0  0  0  0
   -4.0324    1.5685   -0.1512 C   0  0  0  0  0  0  0  0  0  0  0  0
   -5.3799    1.6330   -0.5097 C   0  0  0  0  0  0  0  0  0  0  0  0
   -6.3511    1.8447    0.4721 C   0  0  0  0  0  0  0  0  0  0  0  0
   -5.9645    2.0121    1.7982 C   0  0  0  0  0  0  0  0  0  0  0  0
   -6.8975    2.2196    2.7361 F   0  0  0  0  0  0  0  0  0  0  0  0
   -4.6241    1.9802    2.1609 C   0  0  0  0  0  0  0  0  0  0  0  0
   -3.6549    1.7655    1.1809 C   0  0  0  0  0  0  0  0  0  0  0  0
    4.3539   -0.3416    1.0529 C   0  0  0  0  0  0  0  0  0  0  0  0
    5.6335    0.1344    1.3736 C   0  0  0  0  0  0  0  0  0  0  0  0
    8.5051   -0.0136    2.1025 H   0  0  0  0  0  0  0  0  0  0  0  0
    9.1994    1.6094    2.2440 H   0  0  0  0  0  0  0  0  0  0  0  0
    7.6217    1.3053    2.9342 H   0  0  0  0  0  0  0  0  0  0  0  0
    9.5623    2.0043    0.1042 H   0  0  0  0  0  0  0  0  0  0  0  0
    8.6859    0.8882   -0.9477 H   0  0  0  0  0  0  0  0  0  0  0  0
    8.2254    2.6151   -0.8461 H   0  0  0  0  0  0  0  0  0  0  0  0
    6.2416    1.9174   -1.4446 H   0  0  0  0  0  0  0  0  0  0  0  0
    4.0340    1.0882   -2.0132 H   0  0  0  0  0  0  0  0  0  0  0  0
    2.0717   -0.1854   -1.5351 H   0  0  0  0  0  0  0  0  0  0  0  0
    0.0754   -2.3638    0.4508 H   0  0  0  0  0  0  0  0  0  0  0  0
   -5.0566   -4.3833   -0.1787 H   0  0  0  0  0  0  0  0  0  0  0  0
   -6.6714   -4.8598   -0.4867 H   0  0  0  0  0  0  0  0  0  0  0  0
   -4.1158    0.5013   -2.5800 H   0  0  0  0  0  0  0  0  0  0  0  0
   -2.4030    0.5539   -2.7939 H   0  0  0  0  0  0  0  0  0  0  0  0
   -5.6994    1.5515   -1.5444 H   0  0  0  0  0  0  0  0  0  0  0  0
   -7.4031    1.8954    0.2088 H   0  0  0  0  0  0  0  0  0  0  0  0
   -4.3407    2.1284    3.1985 H   0  0  0  0  0  0  0  0  0  0  0  0
   -2.6026    1.7487    1.4527 H   0  0  0  0  0  0  0  0  0  0  0  0
    3.8224   -0.9670    1.7649 H   0  0  0  0  0  0  0  0  0  0  0  0
    6.0341   -0.1579    2.3398 H   0  0  0  0  0  0  0  0  0  0  0  0
  1  2  1  0
  2  3  1  0
  2  4  1  0
  4  5  2  0
  5  6  1  0
  6  7  2  0
  7  8  1  0
  8  9  2  3
  9 10  1  0
 10 11  1  0
 11 12  2  0
 11 13  1  0
 13 14  1  0
 14 15  2  0
 15 16  1  0
 16 17  1  0
 17 18  2  0
 18 19  1  0
 19 20  1  0
 20 21  2  0
 21 22  1  0
 16 23  1  0
 23 24  1  0
 24 25  1  0
 25 26  1  0
 26 27  2  0
 27 28  1  0
 28 29  2  0
 29 30  1  0
 29 31  1  0
 31 32  2  0
  7 33  1  0
 33 34  2  0
 34  4  1  0
 23 13  2  0
 32 26  1  0
 21 17  1  0
  1 35  1  0
  1 36  1  0
  1 37  1  0
  3 38  1  0
  3 39  1  0
  3 40  1  0
  5 41  1  0
  6 42  1  0
  8 43  1  0
 10 44  1  0
 22 45  1  0
 22 46  1  0
 24 47  1  0
 24 48  1  0
 27 49  1  0
 28 50  1  0
 31 51  1  0
 32 52  1  0
 33 53  1  0
 34 54  1  0
M  END
$$$$
