
     RDKit          3D

 58 62  0  0  0  0  0  0  0  0999 V2000
    7.4038    1.6028    3.8651 C   0  0  0  0  0  0  0  0  0  0  0  0
    6.6316    2.4056    2.9711 O   0  0  0  0  0  0  0  0  0  0  0  0
    5.5725    1.8034    2.3367 C   0  0  0  0  0  0  0  0  0  0  0  0
    5.1450    0.4936    2.5799 C   0  0  0  0  0  0  0  0  0  0  0  0
    4.0591   -0.0380    1.8749 C   0  0  0  0  0  0  0  0  0  0  0  0
    3.3739    0.7288    0.9224 C   0  0  0  0  0  0  0  0  0  0  0  0
    2.2572    0.1359    0.1905 C   0  0  0  0  0  0  0  0  0  0  0  0
    1.8795   -1.1254    0.1245 N   0  0  0  0  0  0  0  0  0  0  0  0
    0.7829   -1.1157   -0.7155 C   0  0  0  0  0  0  0  0  0  0  0  0
    0.0955   -2.3854   -1.0694 C   0  0  0  0  0  0  0  0  0  0  0  0
   -1.2345   -2.4530   -0.4865 N   0  0  0  0  0  0  0  0  0  0  0  0
   -2.4417   -2.4246   -1.1390 C   0  0  0  0  0  0  0  0  0  0  0  0
   -2.5861   -2.2681   -2.8591 S   0  0  0  0  0  0  0  0  0  0  0  0
   -4.3887   -2.2327   -3.0912 C   0  0  0  0  0  0  0  0  0  0  0  0
   -4.9483   -0.8301   -3.0809 C   0  0  0  0  0  0  0  0  0  0  0  0
   -4.9506   -0.0504   -4.2491 C   0  0  0  0  0  0  0  0  0  0  0  0
   -5.4993    1.2421   -4.2442 C   0  0  0  0  0  0  0  0  0  0  0  0
   -6.0471    1.7651   -3.0721 C   0  0  0  0  0  0  0  0  0  0  0  0
   -6.0291    1.0035   -1.9099 C   0  0  0  0  0  0  0  0  0  0  0  0
   -6.5555    1.5072   -0.7848 F   0  0  0  0  0  0  0  0  0  0  0  0
   -5.4812   -0.2785   -1.9005 C   0  0  0  0  0  0  0  0  0  0  0  0
   -3.4503   -2.5605   -0.3079 N   0  0  0  0  0  0  0  0  0  0  0  0
   -2.8834   -2.6974    0.9344 C   0  0  0  0  0  0  0  0  0  0  0  0
   -3.4966   -2.8817    2.1726 C   0  0  0  0  0  0  0  0  0  0  0  0
   -2.6404   -3.0087    3.2540 C   0  0  0  0  0  0  0  0  0  0  0  0
   -1.2897   -2.9589    3.1820 N   0  0  0  0  0  0  0  0  0  0  0  0
   -0.6951   -2.7660    1.9812 C   0  0  0  0  0  0  0  0  0  0  0  0
   -1.4984   -2.6425    0.8554 C   0  0  0  0  0  0  0  0  0  0  0  0
    0.5281    0.1808   -1.1143 C   0  0  0  0  0  0  0  0  0  0  0  0
   -0.4771    0.8327   -1.9722 C   0  0  0  0  0  0  0  0  0  0  0  0
    1.4703    0.9885   -0.5406 O   0  0  0  0  0  0  0  0  0  0  0  0
    3.7982    2.0479    0.6884 C   0  0  0  0  0  0  0  0  0  0  0  0
    4.8887    2.5906    1.3862 C   0  0  0  0  0  0  0  0  0  0  0  0
    5.3726    3.8664    1.2011 O   0  0  0  0  0  0  0  0  0  0  0  0
    4.6513    4.7258    0.3305 C   0  0  0  0  0  0  0  0  0  0  0  0
    6.8044    1.2873    4.7336 H   0  0  0  0  0  0  0  0  0  0  0  0
    8.2282    2.2185    4.2370 H   0  0  0  0  0  0  0  0  0  0  0  0
    7.8448    0.7381    3.3482 H   0  0  0  0  0  0  0  0  0  0  0  0
    5.6302   -0.1429    3.3125 H   0  0  0  0  0  0  0  0  0  0  0  0
    3.7464   -1.0642    2.0773 H   0  0  0  0  0  0  0  0  0  0  0  0
    0.6530   -3.2501   -0.6900 H   0  0  0  0  0  0  0  0  0  0  0  0
    0.0412   -2.4979   -2.1544 H   0  0  0  0  0  0  0  0  0  0  0  0
   -4.6060   -2.6896   -4.0637 H   0  0  0  0  0  0  0  0  0  0  0  0
   -4.9107   -2.8644   -2.3592 H   0  0  0  0  0  0  0  0  0  0  0  0
   -4.5336   -0.4484   -5.1723 H   0  0  0  0  0  0  0  0  0  0  0  0
   -5.5054    1.8328   -5.1567 H   0  0  0  0  0  0  0  0  0  0  0  0
   -6.4949    2.7551   -3.0566 H   0  0  0  0  0  0  0  0  0  0  0  0
   -5.4843   -0.8447   -0.9739 H   0  0  0  0  0  0  0  0  0  0  0  0
   -4.5717   -2.9289    2.2773 H   0  0  0  0  0  0  0  0  0  0  0  0
   -3.0370   -3.1625    4.2553 H   0  0  0  0  0  0  0  0  0  0  0  0
    0.3889   -2.7151    1.9671 H   0  0  0  0  0  0  0  0  0  0  0  0
   -0.2397    1.8897   -2.1313 H   0  0  0  0  0  0  0  0  0  0  0  0
   -1.4689    0.7742   -1.5123 H   0  0  0  0  0  0  0  0  0  0  0  0
   -0.5170    0.3478   -2.9519 H   0  0  0  0  0  0  0  0  0  0  0  0
    3.2712    2.6350   -0.0583 H   0  0  0  0  0  0  0  0  0  0  0  0
    3.6188    4.8671    0.6745 H   0  0  0  0  0  0  0  0  0  0  0  0
    5.1433    5.7083    0.3438 H   0  0  0  0  0  0  0  0  0  0  0  0
    4.6811    4.3517   -0.6978 H   0  0  0  0  0  0  0  0  0  0  0  0
  1  2  1  0
  2  3  1  0
  3  4  2  0
  4  5  1  0
  5  6  2  0
  6  7  1  0
  7  8  2  0
  8  9  1  0
  9 10  1  0
 10 11  1  0
 11 12  1  0
 12 13  1  0
 13 14  1  0
 14 15  1  0
 15 16  2  0
 16 17  1  0
 17 18  2  0
 18 19  1  0
 19 20  1  0
 19 21  2  0
 12 22  2  0
 22 23  1  0
 23 24  2  0
 24 25  1  0
 25 26  2  0
 26 27  1  0
 27 28  2  0
  9 29  2  0
 29 30  1  0
 29 31  1  0
  6 32  1  0
 32 33  2  0
 33 34  1  0
 34 35  1  0
 33  3  1  0
 31  7  1  0
 28 11  1  0
 21 15  1  0
 28 23  1  0
  1 36  1  0
  1 37  1  0
  1 38  1  0
  4 39  1  0
  5 40  1  0
 10 41  1  0
 10 42  1  0
 14 43  1  0
 14 44  1  0
 16 45  1  0
 17 46  1  0
 18 47  1  0
 21 48  1  0
 24 49  1  0
 25 50  1  0
 27 51  1  0
 30 52  1  0
 30 53  1  0
 30 54  1  0
 32 55  1  0
 35 56  1  0
 35 57  1  0
 35 58  1  0
M  END
$$$$
