
     RDKit          3D

 56 61  0  0  0  0  0  0  0  0999 V2000
   -0.2887    1.9361    3.3651 O   0  0  0  0  0  0  0  0  0  0  0  0
    0.0832    2.2909    2.2562 C   0  0  0  0  0  0  0  0  0  0  0  0
    0.0397    3.6012    1.7774 N   0  0  0  0  0  0  0  0  0  0  0  0
    0.6416    3.6997    0.5297 C   0  0  0  0  0  0  0  0  0  0  0  0
    0.8047    4.8444   -0.2222 C   0  0  0  0  0  0  0  0  0  0  0  0
    1.4457    4.7151   -1.4564 C   0  0  0  0  0  0  0  0  0  0  0  0
    1.9036    3.4619   -1.9017 C   0  0  0  0  0  0  0  0  0  0  0  0
    1.7280    2.3160   -1.1207 C   0  0  0  0  0  0  0  0  0  0  0  0
    1.0902    2.4456    0.1022 C   0  0  0  0  0  0  0  0  0  0  0  0
    0.7466    1.4242    1.1454 C   0  0  0  0  0  0  0  0  0  0  0  0
    1.9030    0.6342    1.6857 N   0  0  0  0  0  0  0  0  0  0  0  0
    1.5592   -0.8312    1.6311 C   0  0  2  0  0  0  0  0  0  0  0  0
    2.7153   -1.6951    1.0958 C   0  0  0  0  0  0  0  0  0  0  0  0
    3.2602   -1.3412   -0.2713 C   0  0  0  0  0  0  0  0  0  0  0  0
    4.3403   -0.4556   -0.3950 C   0  0  0  0  0  0  0  0  0  0  0  0
    4.8549   -0.1331   -1.6520 C   0  0  0  0  0  0  0  0  0  0  0  0
    4.2931   -0.6892   -2.7992 C   0  0  0  0  0  0  0  0  0  0  0  0
    3.2158   -1.5661   -2.6898 C   0  0  0  0  0  0  0  0  0  0  0  0
    2.7020   -1.8917   -1.4330 C   0  0  0  0  0  0  0  0  0  0  0  0
    0.3077   -0.8706    0.8434 C   0  0  0  0  0  0  0  0  0  0  0  0
   -0.1528    0.4192    0.5592 C   0  0  0  0  0  0  0  0  0  0  0  0
   -1.2986    0.3188   -0.1877 C   0  0  0  0  0  0  0  0  0  0  0  0
   -2.0835    1.2333   -0.7445 O   0  0  0  0  0  0  0  0  0  0  0  0
   -1.5677   -1.0355   -0.3085 N   0  0  0  0  0  0  0  0  0  0  0  0
   -2.6979   -1.5999   -1.0348 C   0  0  0  0  0  0  0  0  0  0  0  0
   -3.8852   -1.8361   -0.1334 C   0  0  0  0  0  0  0  0  0  0  0  0
   -4.0734   -3.0792    0.4881 C   0  0  0  0  0  0  0  0  0  0  0  0
   -5.1685   -3.2950    1.3262 C   0  0  0  0  0  0  0  0  0  0  0  0
   -6.0841   -2.2698    1.5560 C   0  0  0  0  0  0  0  0  0  0  0  0
   -5.9035   -1.0272    0.9518 C   0  0  0  0  0  0  0  0  0  0  0  0
   -4.8090   -0.8101    0.1132 C   0  0  0  0  0  0  0  0  0  0  0  0
   -0.5730   -1.7760    0.3119 C   0  0  0  0  0  0  0  0  0  0  0  0
   -0.5983   -3.1028    0.3125 O   0  0  0  0  0  0  0  0  0  0  0  0
   -0.3252    4.3689    2.3208 H   0  0  0  0  0  0  0  0  0  0  0  0
    0.4556    5.8108    0.1227 H   0  0  0  0  0  0  0  0  0  0  0  0
    1.5970    5.5922   -2.0819 H   0  0  0  0  0  0  0  0  0  0  0  0
    2.4022    3.3808   -2.8654 H   0  0  0  0  0  0  0  0  0  0  0  0
    2.0776    1.3478   -1.4663 H   0  0  0  0  0  0  0  0  0  0  0  0
    1.9967    0.8847    2.6701 H   0  0  0  0  0  0  0  0  0  0  0  0
    1.3262   -1.1609    2.6525 H   0  0  0  0  0  0  0  0  0  0  0  0
    2.4056   -2.7488    1.0791 H   0  0  0  0  0  0  0  0  0  0  0  0
    3.5447   -1.6560    1.8156 H   0  0  0  0  0  0  0  0  0  0  0  0
    4.7801   -0.0028    0.4909 H   0  0  0  0  0  0  0  0  0  0  0  0
    5.6905    0.5566   -1.7338 H   0  0  0  0  0  0  0  0  0  0  0  0
    4.6922   -0.4372   -3.7778 H   0  0  0  0  0  0  0  0  0  0  0  0
    2.7725   -1.9975   -3.5833 H   0  0  0  0  0  0  0  0  0  0  0  0
    1.8587   -2.5755   -1.3704 H   0  0  0  0  0  0  0  0  0  0  0  0
   -1.6551    2.0994   -0.6212 H   0  0  0  0  0  0  0  0  0  0  0  0
   -2.3695   -2.5335   -1.5068 H   0  0  0  0  0  0  0  0  0  0  0  0
   -2.9595   -0.9190   -1.8533 H   0  0  0  0  0  0  0  0  0  0  0  0
   -3.3588   -3.8839    0.3271 H   0  0  0  0  0  0  0  0  0  0  0  0
   -5.3031   -4.2615    1.8041 H   0  0  0  0  0  0  0  0  0  0  0  0
   -6.9341   -2.4368    2.2119 H   0  0  0  0  0  0  0  0  0  0  0  0
   -6.6108   -0.2236    1.1379 H   0  0  0  0  0  0  0  0  0  0  0  0
   -4.6723    0.1686   -0.3427 H   0  0  0  0  0  0  0  0  0  0  0  0
    0.1382   -3.4080    0.8693 H   0  0  0  0  0  0  0  0  0  0  0  0
  1  2  2  0
  2  3  1  0
  3  4  1  0
  4  5  2  0
  5  6  1  0
  6  7  2  0
  7  8  1  0
  8  9  2  0
  9 10  1  0
 10 11  1  0
 11 12  1  0
 12 13  1  0
 13 14  1  0
 14 15  2  0
 15 16  1  0
 16 17  2  0
 17 18  1  0
 18 19  2  0
 12 20  1  0
 20 21  1  0
 21 22  2  0
 22 23  1  0
 22 24  1  0
 24 25  1  0
 25 26  1  0
 26 27  2  0
 27 28  1  0
 28 29  2  0
 29 30  1  0
 30 31  2  0
 24 32  1  0
 32 33  1  0
 10  2  1  0
 19 14  1  0
 32 20  2  0
  9  4  1  0
 21 10  1  0
 31 26  1  0
  3 34  1  0
  5 35  1  0
  6 36  1  0
  7 37  1  0
  8 38  1  0
 11 39  1  0
 12 40  1  1
 13 41  1  0
 13 42  1  0
 15 43  1  0
 16 44  1  0
 17 45  1  0
 18 46  1  0
 19 47  1  0
 23 48  1  0
 25 49  1  0
 25 50  1  0
 27 51  1  0
 28 52  1  0
 29 53  1  0
 30 54  1  0
 31 55  1  0
 33 56  1  0
M  END
$$$$
