
     RDKit          3D

 61 65  0  0  0  0  0  0  0  0999 V2000
    6.4733   -4.3103    1.8419 C   0  0  0  0  0  0  0  0  0  0  0  0
    5.2415   -3.5186    1.5130 C   0  0  0  0  0  0  0  0  0  0  0  0
    4.8697   -2.4255    2.3000 C   0  0  0  0  0  0  0  0  0  0  0  0
    3.7393   -1.6684    1.9755 C   0  0  0  0  0  0  0  0  0  0  0  0
    2.9575   -1.9787    0.8511 C   0  0  0  0  0  0  0  0  0  0  0  0
    1.7684   -1.1840    0.5108 C   0  0  0  0  0  0  0  0  0  0  0  0
    1.8304    0.2027    0.3930 C   0  0  0  0  0  0  0  0  0  0  0  0
    0.6940    0.9550    0.0653 C   0  0  0  0  0  0  0  0  0  0  0  0
    0.7791    2.4116   -0.0717 C   0  0  0  0  0  0  0  0  0  0  0  0
    1.0193    3.0036   -1.3220 C   0  0  0  0  0  0  0  0  0  0  0  0
    1.1003    4.3925   -1.4499 C   0  0  0  0  0  0  0  0  0  0  0  0
    0.9447    5.2179   -0.3322 C   0  0  0  0  0  0  0  0  0  0  0  0
    1.0661    6.7088   -0.4636 C   0  0  0  0  0  0  0  0  0  0  0  0
    0.7400    4.6339    0.9215 C   0  0  0  0  0  0  0  0  0  0  0  0
    0.6590    3.2453    1.0518 C   0  0  0  0  0  0  0  0  0  0  0  0
   -0.5076    0.3357   -0.1431 N   0  0  0  0  0  4  0  0  0  0  0  0
   -1.6736    1.1144   -0.4812 C   0  0  0  0  0  0  0  0  0  0  0  0
   -2.0097    1.2712   -1.8269 C   0  0  0  0  0  0  0  0  0  0  0  0
   -3.1386    2.0223   -2.1454 C   0  0  0  0  0  0  0  0  0  0  0  0
   -3.9048    2.5990   -1.1277 C   0  0  0  0  0  0  0  0  0  0  0  0
   -3.5506    2.4308    0.2145 C   0  0  0  0  0  0  0  0  0  0  0  0
   -2.4250    1.6819    0.5492 C   0  0  0  0  0  0  0  0  0  0  0  0
   -0.5998   -1.0243   -0.0316 C   0  0  0  0  0  0  0  0  0  0  0  0
   -1.8979   -1.6715   -0.2416 C   0  0  0  0  0  0  0  0  0  0  0  0
   -2.2412   -2.1986   -1.4968 C   0  0  0  0  0  0  0  0  0  0  0  0
   -3.4783   -2.8163   -1.6971 C   0  0  0  0  0  0  0  0  0  0  0  0
   -4.3879   -2.9403   -0.6427 C   0  0  0  0  0  0  0  0  0  0  0  0
   -5.7292   -3.5766   -0.8685 C   0  0  0  0  0  0  0  0  0  0  0  0
   -4.0508   -2.4227    0.6113 C   0  0  0  0  0  0  0  0  0  0  0  0
   -2.8142   -1.8048    0.8138 C   0  0  0  0  0  0  0  0  0  0  0  0
    0.5314   -1.7861    0.2920 C   0  0  0  0  0  0  0  0  0  0  0  0
    3.3496   -3.0704    0.0596 C   0  0  0  0  0  0  0  0  0  0  0  0
    4.4803   -3.8274    0.3827 C   0  0  0  0  0  0  0  0  0  0  0  0
    6.3693   -5.3493    1.5123 H   0  0  0  0  0  0  0  0  0  0  0  0
    6.6482   -4.3288    2.9228 H   0  0  0  0  0  0  0  0  0  0  0  0
    7.3446   -3.8680    1.3493 H   0  0  0  0  0  0  0  0  0  0  0  0
    5.4580   -2.1580    3.1760 H   0  0  0  0  0  0  0  0  0  0  0  0
    3.4760   -0.8365    2.6253 H   0  0  0  0  0  0  0  0  0  0  0  0
    2.7817    0.7166    0.5408 H   0  0  0  0  0  0  0  0  0  0  0  0
    1.1540    2.3946   -2.2145 H   0  0  0  0  0  0  0  0  0  0  0  0
    1.2916    4.8303   -2.4288 H   0  0  0  0  0  0  0  0  0  0  0  0
    2.1002    7.0168   -0.2844 H   0  0  0  0  0  0  0  0  0  0  0  0
    0.7672    7.0396   -1.4634 H   0  0  0  0  0  0  0  0  0  0  0  0
    0.4140    7.2164    0.2543 H   0  0  0  0  0  0  0  0  0  0  0  0
    0.6475    5.2622    1.8066 H   0  0  0  0  0  0  0  0  0  0  0  0
    0.5046    2.8282    2.0457 H   0  0  0  0  0  0  0  0  0  0  0  0
   -1.4162    0.8272   -2.6192 H   0  0  0  0  0  0  0  0  0  0  0  0
   -3.4302    2.1644   -3.1847 H   0  0  0  0  0  0  0  0  0  0  0  0
   -4.7870    3.1857   -1.3833 H   0  0  0  0  0  0  0  0  0  0  0  0
   -4.1595    2.8878    0.9930 H   0  0  0  0  0  0  0  0  0  0  0  0
   -2.1548    1.5512    1.5919 H   0  0  0  0  0  0  0  0  0  0  0  0
   -1.5532   -2.1362   -2.3384 H   0  0  0  0  0  0  0  0  0  0  0  0
   -3.7288   -3.2088   -2.6817 H   0  0  0  0  0  0  0  0  0  0  0  0
   -6.4441   -2.8260   -1.2191 H   0  0  0  0  0  0  0  0  0  0  0  0
   -5.6600   -4.3768   -1.6126 H   0  0  0  0  0  0  0  0  0  0  0  0
   -6.1113   -4.0239    0.0551 H   0  0  0  0  0  0  0  0  0  0  0  0
   -4.7506   -2.5059    1.4418 H   0  0  0  0  0  0  0  0  0  0  0  0
   -2.5806   -1.4325    1.8099 H   0  0  0  0  0  0  0  0  0  0  0  0
    0.4314   -2.8685    0.3890 H   0  0  0  0  0  0  0  0  0  0  0  0
    2.7888   -3.3421   -0.8324 H   0  0  0  0  0  0  0  0  0  0  0  0
    4.7648   -4.6616   -0.2564 H   0  0  0  0  0  0  0  0  0  0  0  0
  1  2  1  0
  2  3  2  0
  3  4  1  0
  4  5  2  0
  5  6  1  0
  6  7  2  0
  7  8  1  0
  8  9  1  0
  9 10  2  0
 10 11  1  0
 11 12  2  0
 12 13  1  0
 12 14  1  0
 14 15  2  0
  8 16  2  0
 16 17  1  0
 17 18  2  0
 18 19  1  0
 19 20  2  0
 20 21  1  0
 21 22  2  0
 16 23  1  0
 23 24  1  0
 24 25  2  0
 25 26  1  0
 26 27  2  0
 27 28  1  0
 27 29  1  0
 29 30  2  0
 23 31  2  0
  5 32  1  0
 32 33  2  0
 33  2  1  0
 31  6  1  0
 15  9  1  0
 22 17  1  0
 30 24  1  0
  1 34  1  0
  1 35  1  0
  1 36  1  0
  3 37  1  0
  4 38  1  0
  7 39  1  0
 10 40  1  0
 11 41  1  0
 13 42  1  0
 13 43  1  0
 13 44  1  0
 14 45  1  0
 15 46  1  0
 18 47  1  0
 19 48  1  0
 20 49  1  0
 21 50  1  0
 22 51  1  0
 25 52  1  0
 26 53  1  0
 28 54  1  0
 28 55  1  0
 28 56  1  0
 29 57  1  0
 30 58  1  0
 31 59  1  0
 32 60  1  0
 33 61  1  0
M  CHG  1  16   1
M  END
$$$$
