
     RDKit          3D

 44 46  0  0  0  0  0  0  0  0999 V2000
   -2.2728   -4.0480    1.1477 C   0  0  0  0  0  0  0  0  0  0  0  0
   -2.3219   -2.8061    0.3041 C   0  0  0  0  0  0  0  0  0  0  0  0
   -3.5104   -2.0684    0.2069 C   0  0  0  0  0  0  0  0  0  0  0  0
   -3.5695   -0.9197   -0.5852 C   0  0  0  0  0  0  0  0  0  0  0  0
   -2.4316   -0.5134   -1.2867 C   0  0  0  0  0  0  0  0  0  0  0  0
   -2.4936    0.9668   -2.2619 S   0  0  0  0  0  6  0  0  0  0  0  0
   -3.8051    1.0338   -2.8689 O   0  0  0  0  0  0  0  0  0  0  0  0
   -1.2945    1.0510   -3.0698 O   0  0  0  0  0  0  0  0  0  0  0  0
   -2.4538    2.1894   -1.0856 N   0  0  0  0  0  0  0  0  0  0  0  0
   -1.1952    2.4650   -0.4820 C   0  0  0  0  0  0  0  0  0  0  0  0
   -0.3355    3.4003   -1.0587 C   0  0  0  0  0  0  0  0  0  0  0  0
    0.9476    3.5960   -0.5337 C   0  0  0  0  0  0  0  0  0  0  0  0
    1.8877    4.5810   -1.1682 C   0  0  0  0  0  0  0  0  0  0  0  0
    1.3593    2.8093    0.5522 C   0  0  0  0  0  0  0  0  0  0  0  0
    2.6529    2.9571    0.9873 O   0  0  0  0  0  0  0  0  0  0  0  0
    0.4987    1.8695    1.1432 C   0  0  0  0  0  0  0  0  0  0  0  0
    0.9572    0.8665    2.5529 S   0  0  0  0  0  0  0  0  0  0  0  0
    2.0900   -0.2469    1.8358 C   0  0  0  0  0  0  0  0  0  0  0  0
    3.1870    0.1839    1.1963 N   0  0  0  0  0  0  0  0  0  0  0  0
    3.7439   -0.9800    0.8211 N   0  0  0  0  0  0  0  0  0  0  0  0
    3.0261   -2.0489    1.2829 C   0  0  0  0  0  0  0  0  0  0  0  0
    3.4444   -3.4501    1.0758 C   0  0  0  0  0  0  0  0  0  0  0  0
    1.9627   -1.6045    1.9164 N   0  0  0  0  0  0  0  0  0  0  0  0
   -0.7897    1.7150    0.6209 C   0  0  0  0  0  0  0  0  0  0  0  0
   -1.2500   -1.2582   -1.2270 C   0  0  0  0  0  0  0  0  0  0  0  0
   -1.1984   -2.3996   -0.4273 C   0  0  0  0  0  0  0  0  0  0  0  0
   -2.7688   -4.8722    0.6270 H   0  0  0  0  0  0  0  0  0  0  0  0
   -1.2396   -4.3423    1.3614 H   0  0  0  0  0  0  0  0  0  0  0  0
   -2.7698   -3.8785    2.1097 H   0  0  0  0  0  0  0  0  0  0  0  0
   -4.3952   -2.3823    0.7562 H   0  0  0  0  0  0  0  0  0  0  0  0
   -4.4934   -0.3470   -0.6448 H   0  0  0  0  0  0  0  0  0  0  0  0
   -3.0176    2.9846   -1.3870 H   0  0  0  0  0  0  0  0  0  0  0  0
   -0.6463    3.9491   -1.9433 H   0  0  0  0  0  0  0  0  0  0  0  0
    1.3820    5.1793   -1.9357 H   0  0  0  0  0  0  0  0  0  0  0  0
    2.7211    4.0525   -1.6428 H   0  0  0  0  0  0  0  0  0  0  0  0
    2.2781    5.2764   -0.4168 H   0  0  0  0  0  0  0  0  0  0  0  0
    2.9586    2.0608    1.2525 H   0  0  0  0  0  0  0  0  0  0  0  0
    4.6001   -0.9725    0.2746 H   0  0  0  0  0  0  0  0  0  0  0  0
    3.1781   -3.7981    0.0709 H   0  0  0  0  0  0  0  0  0  0  0  0
    2.9568   -4.1054    1.8037 H   0  0  0  0  0  0  0  0  0  0  0  0
    4.5261   -3.5574    1.2042 H   0  0  0  0  0  0  0  0  0  0  0  0
   -1.4716    0.9972    1.0700 H   0  0  0  0  0  0  0  0  0  0  0  0
   -0.3634   -0.9459   -1.7758 H   0  0  0  0  0  0  0  0  0  0  0  0
   -0.2706   -2.9693   -0.3726 H   0  0  0  0  0  0  0  0  0  0  0  0
  1  2  1  0
  2  3  2  0
  3  4  1  0
  4  5  2  0
  5  6  1  0
  6  7  2  0
  6  8  2  0
  6  9  1  0
  9 10  1  0
 10 11  2  0
 11 12  1  0
 12 13  1  0
 12 14  2  0
 14 15  1  0
 14 16  1  0
 16 17  1  0
 17 18  1  0
 18 19  2  0
 19 20  1  0
 20 21  1  0
 21 22  1  0
 21 23  2  0
 16 24  2  0
  5 25  1  0
 25 26  2  0
 26  2  1  0
 24 10  1  0
 23 18  1  0
  1 27  1  0
  1 28  1  0
  1 29  1  0
  3 30  1  0
  4 31  1  0
  9 32  1  0
 11 33  1  0
 13 34  1  0
 13 35  1  0
 13 36  1  0
 15 37  1  0
 20 38  1  0
 22 39  1  0
 22 40  1  0
 22 41  1  0
 24 42  1  0
 25 43  1  0
 26 44  1  0
M  END
$$$$
