
     RDKit          3D

 31 32  0  0  0  0  0  0  0  0999 V2000
    4.7066   -3.5754    0.2901 C   0  0  0  0  0  0  0  0  0  0  0  0
    4.1884   -2.7037    1.7912 S   0  0  0  0  0  0  0  0  0  0  0  0
    3.0269   -1.5657    1.0602 C   0  0  0  0  0  0  0  0  0  0  0  0
    3.4772   -0.4621    0.3328 C   0  0  0  0  0  0  0  0  0  0  0  0
    2.5586    0.4275   -0.2219 C   0  0  0  0  0  0  0  0  0  0  0  0
    1.1869    0.2158   -0.0554 C   0  0  0  0  0  0  0  0  0  0  0  0
    0.7259   -0.8961    0.6508 C   0  0  0  0  0  0  0  0  0  0  0  0
   -0.6585   -1.1241    0.9205 N   0  0  0  0  0  0  0  0  0  0  0  0
   -1.8216   -0.8919   -0.2774 S   0  0  0  0  0  6  0  0  0  0  0  0
   -3.0029   -1.6095    0.1606 O   0  0  0  0  0  0  0  0  0  0  0  0
   -1.2480   -1.1232   -1.5874 O   0  0  0  0  0  0  0  0  0  0  0  0
   -2.3432    0.7724   -0.3092 C   0  0  0  0  0  0  0  0  0  0  0  0
   -3.3272    1.2922   -1.1303 C   0  0  0  0  0  0  0  0  0  0  0  0
   -3.4044    2.6126   -0.7927 N   0  0  0  0  0  0  0  0  0  0  0  0
   -4.3161    3.5755   -1.3564 C   0  0  0  0  0  0  0  0  0  0  0  0
   -2.4875    2.8539    0.1898 C   0  0  0  0  0  0  0  0  0  0  0  0
   -1.8259    1.7642    0.5114 N   0  0  0  0  0  0  0  0  0  0  0  0
    1.6532   -1.7659    1.2354 C   0  0  0  0  0  0  0  0  0  0  0  0
    5.4097   -4.3677    0.5605 H   0  0  0  0  0  0  0  0  0  0  0  0
    3.8425   -4.0307   -0.2020 H   0  0  0  0  0  0  0  0  0  0  0  0
    5.2025   -2.8915   -0.4038 H   0  0  0  0  0  0  0  0  0  0  0  0
    4.5421   -0.2790    0.2058 H   0  0  0  0  0  0  0  0  0  0  0  0
    2.9074    1.2946   -0.7774 H   0  0  0  0  0  0  0  0  0  0  0  0
    0.5011    0.9431   -0.4781 H   0  0  0  0  0  0  0  0  0  0  0  0
   -0.8874   -1.9490    1.4697 H   0  0  0  0  0  0  0  0  0  0  0  0
   -3.9480    0.8335   -1.8876 H   0  0  0  0  0  0  0  0  0  0  0  0
   -5.3146    3.1311   -1.3939 H   0  0  0  0  0  0  0  0  0  0  0  0
   -4.3375    4.4700   -0.7287 H   0  0  0  0  0  0  0  0  0  0  0  0
   -3.9727    3.8290   -2.3627 H   0  0  0  0  0  0  0  0  0  0  0  0
   -2.3441    3.8305    0.6348 H   0  0  0  0  0  0  0  0  0  0  0  0
    1.3107   -2.6107    1.8265 H   0  0  0  0  0  0  0  0  0  0  0  0
  1  2  1  0
  2  3  1  0
  3  4  2  0
  4  5  1  0
  5  6  2  0
  6  7  1  0
  7  8  1  0
  8  9  1  0
  9 10  2  0
  9 11  2  0
  9 12  1  0
 12 13  2  0
 13 14  1  0
 14 15  1  0
 14 16  1  0
 16 17  2  0
  7 18  2  0
 18  3  1  0
 17 12  1  0
  1 19  1  0
  1 20  1  0
  1 21  1  0
  4 22  1  0
  5 23  1  0
  6 24  1  0
  8 25  1  0
 13 26  1  0
 15 27  1  0
 15 28  1  0
 15 29  1  0
 16 30  1  0
 18 31  1  0
M  END
$$$$
