
     RDKit          3D

 45 47  0  0  0  0  0  0  0  0999 V2000
    4.6005   -1.8444    1.2799 C   0  0  0  0  0  0  0  0  0  0  0  0
    5.7440   -1.0190    1.8460 C   0  0  0  0  0  0  0  0  0  0  0  0
    6.3923   -0.0574    0.8437 C   0  0  0  0  0  0  0  0  0  0  0  0
    5.5442    1.1651    0.4773 C   0  0  0  0  0  0  0  0  0  0  0  0
    4.4960    0.8859   -0.5505 C   0  0  0  0  0  0  0  0  0  0  0  0
    4.6753    0.1784   -1.6475 N   0  0  0  0  0  0  0  0  0  0  0  0
    3.5256    0.1018   -2.4068 N   0  0  0  0  0  0  0  0  0  0  0  0
    2.5295    0.7685   -1.8680 C   0  0  0  0  0  0  0  0  0  0  0  0
    1.2922    0.8190   -2.4598 N   0  0  0  0  0  0  0  0  0  0  0  0
    0.1803    1.4974   -2.0004 C   0  0  0  0  0  0  0  0  0  0  0  0
    0.1152    2.1887   -0.9903 O   0  0  0  0  0  0  0  0  0  0  0  0
   -1.0285    1.2917   -2.9307 C   0  0  0  0  0  0  0  0  0  0  0  0
   -2.2653    1.8167   -2.4803 O   0  0  0  0  0  0  0  0  0  0  0  0
   -2.9522    1.1274   -1.5216 C   0  0  0  0  0  0  0  0  0  0  0  0
   -4.1626    1.7140   -1.1416 C   0  0  0  0  0  0  0  0  0  0  0  0
   -4.9801    1.1236   -0.1688 C   0  0  0  0  0  0  0  0  0  0  0  0
   -4.6012   -0.0732    0.4453 C   0  0  0  0  0  0  0  0  0  0  0  0
   -5.4022   -0.7524    1.4725 C   0  0  0  0  0  0  0  0  0  0  0  0
   -6.7068   -0.1650    1.9233 C   0  0  0  0  0  0  0  0  0  0  0  0
   -4.9354   -1.8993    1.9880 C   0  0  0  0  0  0  0  0  0  0  0  0
   -3.6636   -2.5151    1.5795 C   0  0  0  0  0  0  0  0  0  0  0  0
   -3.2899   -3.5705    2.0783 O   0  0  0  0  0  0  0  0  0  0  0  0
   -2.9282   -1.8500    0.6146 O   0  0  0  0  0  0  0  0  0  0  0  0
   -3.3888   -0.6422    0.0513 C   0  0  0  0  0  0  0  0  0  0  0  0
   -2.5615   -0.0623   -0.9166 C   0  0  0  0  0  0  0  0  0  0  0  0
    2.9123    1.5366   -0.3989 S   0  0  0  0  0  0  0  0  0  0  0  0
    3.7169   -1.2311    1.0888 H   0  0  0  0  0  0  0  0  0  0  0  0
    4.8923   -2.3410    0.3494 H   0  0  0  0  0  0  0  0  0  0  0  0
    4.3079   -2.6181    1.9975 H   0  0  0  0  0  0  0  0  0  0  0  0
    5.3972   -0.4669    2.7272 H   0  0  0  0  0  0  0  0  0  0  0  0
    6.5186   -1.7122    2.1972 H   0  0  0  0  0  0  0  0  0  0  0  0
    7.3133    0.3156    1.3113 H   0  0  0  0  0  0  0  0  0  0  0  0
    6.7055   -0.6053   -0.0535 H   0  0  0  0  0  0  0  0  0  0  0  0
    6.2098    1.9308    0.0577 H   0  0  0  0  0  0  0  0  0  0  0  0
    5.1088    1.5967    1.3865 H   0  0  0  0  0  0  0  0  0  0  0  0
    1.2498    0.2985   -3.3256 H   0  0  0  0  0  0  0  0  0  0  0  0
   -0.7905    1.8271   -3.8583 H   0  0  0  0  0  0  0  0  0  0  0  0
   -1.1267    0.2344   -3.2064 H   0  0  0  0  0  0  0  0  0  0  0  0
   -4.4735    2.6483   -1.6048 H   0  0  0  0  0  0  0  0  0  0  0  0
   -5.9085    1.6247    0.0912 H   0  0  0  0  0  0  0  0  0  0  0  0
   -7.4088   -0.0891    1.0862 H   0  0  0  0  0  0  0  0  0  0  0  0
   -7.1864   -0.7808    2.6926 H   0  0  0  0  0  0  0  0  0  0  0  0
   -6.5575    0.8311    2.3530 H   0  0  0  0  0  0  0  0  0  0  0  0
   -5.4775   -2.4497    2.7488 H   0  0  0  0  0  0  0  0  0  0  0  0
   -1.6316   -0.5631   -1.1564 H   0  0  0  0  0  0  0  0  0  0  0  0
  1  2  1  0
  2  3  1  0
  3  4  1  0
  4  5  1  0
  5  6  2  0
  6  7  1  0
  7  8  2  0
  8  9  1  0
  9 10  1  0
 10 11  2  0
 10 12  1  0
 12 13  1  0
 13 14  1  0
 14 15  2  0
 15 16  1  0
 16 17  2  0
 17 18  1  0
 18 19  1  0
 18 20  2  0
 20 21  1  0
 21 22  2  0
 21 23  1  0
 23 24  1  0
 24 25  2  0
  8 26  1  0
 26  5  1  0
 25 14  1  0
 24 17  1  0
  1 27  1  0
  1 28  1  0
  1 29  1  0
  2 30  1  0
  2 31  1  0
  3 32  1  0
  3 33  1  0
  4 34  1  0
  4 35  1  0
  9 36  1  0
 12 37  1  0
 12 38  1  0
 15 39  1  0
 16 40  1  0
 19 41  1  0
 19 42  1  0
 19 43  1  0
 20 44  1  0
 25 45  1  0
M  END
$$$$
