
     RDKit          3D

 51 54  0  0  0  0  0  0  0  0999 V2000
   -3.4834   -4.4721    2.1934 C   0  0  0  0  0  0  0  0  0  0  0  0
   -2.0885   -4.2163    2.3014 O   0  0  0  0  0  0  0  0  0  0  0  0
   -1.6117   -3.0767    1.7138 C   0  0  0  0  0  0  0  0  0  0  0  0
   -2.3588   -2.2062    0.9256 C   0  0  0  0  0  0  0  0  0  0  0  0
   -1.7659   -1.0494    0.3835 C   0  0  0  0  0  0  0  0  0  0  0  0
   -2.5778   -0.1652   -0.4680 C   0  0  0  0  0  0  0  0  0  0  0  0
   -3.7453   -0.4735   -0.6987 O   0  0  0  0  0  0  0  0  0  0  0  0
   -1.9507    0.9583   -0.9813 N   0  0  0  0  0  0  0  0  0  0  0  0
   -2.7437    1.8502   -1.8147 C   0  0  0  0  0  0  0  0  0  0  0  0
   -3.2293    2.9988   -0.9977 C   0  0  0  0  0  0  0  0  0  0  0  0
   -2.7425    4.2708   -0.7707 C   0  0  0  0  0  0  0  0  0  0  0  0
   -3.6592    4.8997    0.1051 C   0  0  0  0  0  0  0  0  0  0  0  0
   -4.6449    3.9745    0.3567 C   0  0  0  0  0  0  0  0  0  0  0  0
   -4.3927    2.8183   -0.3079 O   0  0  0  0  0  0  0  0  0  0  0  0
   -0.6206    1.2864   -0.7769 C   0  0  0  0  0  0  0  0  0  0  0  0
   -0.0998    2.2677   -1.3165 O   0  0  0  0  0  0  0  0  0  0  0  0
    0.1119    0.4623    0.0715 N   0  0  0  0  0  0  0  0  0  0  0  0
    1.5171    0.8221    0.2811 C   0  0  0  0  0  0  0  0  0  0  0  0
    2.4218    0.1564   -0.7559 C   0  0  0  0  0  0  0  0  0  0  0  0
    2.1158   -0.8880   -1.3326 O   0  0  0  0  0  0  0  0  0  0  0  0
    3.7508    0.7721   -1.0480 C   0  0  0  0  0  0  0  0  0  0  0  0
    4.3303    1.7402   -0.2164 C   0  0  0  0  0  0  0  0  0  0  0  0
    5.5817    2.2790   -0.5324 C   0  0  0  0  0  0  0  0  0  0  0  0
    6.2606    1.8529   -1.6734 C   0  0  0  0  0  0  0  0  0  0  0  0
    5.6877    0.8852   -2.4962 C   0  0  0  0  0  0  0  0  0  0  0  0
    6.6118    0.3043   -4.0396 Br  0  0  0  0  0  0  0  0  0  0  0  0
    4.4414    0.3413   -2.1900 C   0  0  0  0  0  0  0  0  0  0  0  0
   -0.4315   -0.7287    0.6259 C   0  0  0  0  0  0  0  0  0  0  0  0
    0.3199   -1.6156    1.4067 C   0  0  0  0  0  0  0  0  0  0  0  0
   -0.2600   -2.7812    1.9220 C   0  0  0  0  0  0  0  0  0  0  0  0
    0.5373   -3.5856    2.6995 O   0  0  0  0  0  0  0  0  0  0  0  0
    1.0068   -4.6983    1.9379 C   0  0  0  0  0  0  0  0  0  0  0  0
   -3.7014   -5.3812    2.7617 H   0  0  0  0  0  0  0  0  0  0  0  0
   -4.0711   -3.6580    2.6298 H   0  0  0  0  0  0  0  0  0  0  0  0
   -3.7699   -4.6546    1.1526 H   0  0  0  0  0  0  0  0  0  0  0  0
   -3.4052   -2.3996    0.7091 H   0  0  0  0  0  0  0  0  0  0  0  0
   -2.1338    2.2189   -2.6475 H   0  0  0  0  0  0  0  0  0  0  0  0
   -3.5951    1.3208   -2.2559 H   0  0  0  0  0  0  0  0  0  0  0  0
   -1.8327    4.6838   -1.1864 H   0  0  0  0  0  0  0  0  0  0  0  0
   -3.6089    5.9024    0.5049 H   0  0  0  0  0  0  0  0  0  0  0  0
   -5.5461    3.9813    0.9541 H   0  0  0  0  0  0  0  0  0  0  0  0
    1.8436    0.5611    1.2916 H   0  0  0  0  0  0  0  0  0  0  0  0
    1.6121    1.9097    0.1942 H   0  0  0  0  0  0  0  0  0  0  0  0
    3.8405    2.0894    0.6881 H   0  0  0  0  0  0  0  0  0  0  0  0
    6.0304    3.0315    0.1133 H   0  0  0  0  0  0  0  0  0  0  0  0
    7.2331    2.2781   -1.9109 H   0  0  0  0  0  0  0  0  0  0  0  0
    4.0034   -0.4151   -2.8389 H   0  0  0  0  0  0  0  0  0  0  0  0
    1.3698   -1.4548    1.6225 H   0  0  0  0  0  0  0  0  0  0  0  0
    1.7231   -4.3638    1.1801 H   0  0  0  0  0  0  0  0  0  0  0  0
    0.1932   -5.2571    1.4612 H   0  0  0  0  0  0  0  0  0  0  0  0
    1.5265   -5.3763    2.6219 H   0  0  0  0  0  0  0  0  0  0  0  0
  1  2  1  0
  2  3  1  0
  3  4  2  0
  4  5  1  0
  5  6  1  0
  6  7  2  0
  6  8  1  0
  8  9  1  0
  9 10  1  0
 10 11  2  0
 11 12  1  0
 12 13  2  0
 13 14  1  0
  8 15  1  0
 15 16  2  0
 15 17  1  0
 17 18  1  0
 18 19  1  0
 19 20  2  0
 19 21  1  0
 21 22  2  0
 22 23  1  0
 23 24  2  0
 24 25  1  0
 25 26  1  0
 25 27  2  0
 17 28  1  0
 28 29  1  0
 29 30  2  0
 30 31  1  0
 31 32  1  0
 30  3  1  0
 28  5  2  0
 14 10  1  0
 27 21  1  0
  1 33  1  0
  1 34  1  0
  1 35  1  0
  4 36  1  0
  9 37  1  0
  9 38  1  0
 11 39  1  0
 12 40  1  0
 13 41  1  0
 18 42  1  0
 18 43  1  0
 22 44  1  0
 23 45  1  0
 24 46  1  0
 27 47  1  0
 29 48  1  0
 32 49  1  0
 32 50  1  0
 32 51  1  0
M  END
$$$$
