
     RDKit          3D

 46 49  0  0  0  0  0  0  0  0999 V2000
    1.7867    1.3218    0.6943 O   0  0  0  0  0  0  0  0  0  0  0  0
    1.9000    1.5391   -0.5061 C   0  0  0  0  0  0  0  0  0  0  0  0
    0.7392    1.5166   -1.4910 C   0  0  0  0  0  0  0  0  0  0  0  0
   -0.4741    0.9394   -0.8826 N   0  0  0  0  0  4  0  0  0  0  0  0
   -1.6772    1.5917   -0.6225 C   0  0  0  0  0  0  0  0  0  0  0  0
   -2.5438    0.7052    0.0080 C   0  0  0  0  0  0  0  0  0  0  0  0
   -4.0219    1.0030    0.4570 C   0  0  0  0  0  0  0  0  0  0  0  0
   -4.5574    2.2868    0.3002 C   0  0  0  0  0  0  0  0  0  0  0  0
   -5.8721    2.5548    0.6987 C   0  0  0  0  0  0  0  0  0  0  0  0
   -6.6633    1.5457    1.2522 C   0  0  0  0  0  0  0  0  0  0  0  0
   -8.2739    1.9474    1.7202 Cl  0  0  0  0  0  0  0  0  0  0  0  0
   -6.1323    0.2624    1.4040 C   0  0  0  0  0  0  0  0  0  0  0  0
   -7.0425   -1.0454    2.0713 Cl  0  0  0  0  0  0  0  0  0  0  0  0
   -4.8150   -0.0065    1.0057 C   0  0  0  0  0  0  0  0  0  0  0  0
   -1.7895   -0.4489    0.1252 N   0  0  0  0  0  0  0  0  0  0  0  0
   -0.5771   -0.2966   -0.4017 C   0  0  0  0  0  0  0  0  0  0  0  0
    0.2627   -1.5139   -0.3021 C   0  0  0  0  0  0  0  0  0  0  0  0
   -0.5261   -2.3650    0.7111 C   0  0  0  0  0  0  0  0  0  0  0  0
   -1.9635   -1.7770    0.7010 C   0  0  0  0  0  0  0  0  0  0  0  0
    3.0624    1.7852   -1.1664 O   0  0  0  0  0  0  0  0  0  0  0  0
    4.2584    1.5999   -0.3918 C   0  0  0  0  0  0  0  0  0  0  0  0
    4.6145    0.1351   -0.3866 C   0  0  0  0  0  0  0  0  0  0  0  0
    5.0459   -0.4938   -1.5635 C   0  0  0  0  0  0  0  0  0  0  0  0
    5.3489   -1.8560   -1.5666 C   0  0  0  0  0  0  0  0  0  0  0  0
    5.2217   -2.6022   -0.3965 C   0  0  0  0  0  0  0  0  0  0  0  0
    4.7917   -1.9880    0.7781 C   0  0  0  0  0  0  0  0  0  0  0  0
    4.4875   -0.6260    0.7838 C   0  0  0  0  0  0  0  0  0  0  0  0
    0.5288    2.5379   -1.8212 H   0  0  0  0  0  0  0  0  0  0  0  0
    0.9990    0.8897   -2.3502 H   0  0  0  0  0  0  0  0  0  0  0  0
   -1.7696    2.6190   -0.9316 H   0  0  0  0  0  0  0  0  0  0  0  0
   -3.9813    3.1066   -0.1208 H   0  0  0  0  0  0  0  0  0  0  0  0
   -6.2774    3.5583    0.5759 H   0  0  0  0  0  0  0  0  0  0  0  0
   -4.4440   -1.0165    1.1247 H   0  0  0  0  0  0  0  0  0  0  0  0
    0.2820   -1.9595   -1.2989 H   0  0  0  0  0  0  0  0  0  0  0  0
    1.2607   -1.2487    0.0440 H   0  0  0  0  0  0  0  0  0  0  0  0
   -0.5031   -3.4334    0.4804 H   0  0  0  0  0  0  0  0  0  0  0  0
   -0.0930   -2.2267    1.7090 H   0  0  0  0  0  0  0  0  0  0  0  0
   -2.6234   -2.3583    0.0504 H   0  0  0  0  0  0  0  0  0  0  0  0
   -2.3679   -1.7151    1.7138 H   0  0  0  0  0  0  0  0  0  0  0  0
    5.0599    2.1711   -0.8738 H   0  0  0  0  0  0  0  0  0  0  0  0
    4.1473    2.0093    0.6196 H   0  0  0  0  0  0  0  0  0  0  0  0
    5.1593    0.0765   -2.4835 H   0  0  0  0  0  0  0  0  0  0  0  0
    5.6982   -2.3345   -2.4789 H   0  0  0  0  0  0  0  0  0  0  0  0
    5.4728   -3.6604   -0.3968 H   0  0  0  0  0  0  0  0  0  0  0  0
    4.7068   -2.5686    1.6938 H   0  0  0  0  0  0  0  0  0  0  0  0
    4.1549   -0.1617    1.7108 H   0  0  0  0  0  0  0  0  0  0  0  0
  1  2  2  0
  2  3  1  0
  3  4  1  0
  4  5  1  0
  5  6  2  0
  6  7  1  0
  7  8  2  0
  8  9  1  0
  9 10  2  0
 10 11  1  0
 10 12  1  0
 12 13  1  0
 12 14  2  0
  6 15  1  0
 15 16  1  0
 16 17  1  0
 17 18  1  0
 18 19  1  0
  2 20  1  0
 20 21  1  0
 21 22  1  0
 22 23  2  0
 23 24  1  0
 24 25  2  0
 25 26  1  0
 26 27  2  0
 16  4  2  0
 27 22  1  0
 14  7  1  0
 19 15  1  0
  3 28  1  0
  3 29  1  0
  5 30  1  0
  8 31  1  0
  9 32  1  0
 14 33  1  0
 17 34  1  0
 17 35  1  0
 18 36  1  0
 18 37  1  0
 19 38  1  0
 19 39  1  0
 21 40  1  0
 21 41  1  0
 23 42  1  0
 24 43  1  0
 25 44  1  0
 26 45  1  0
 27 46  1  0
M  CHG  1   4   1
M  END
$$$$
