
     RDKit          3D

 28 29  0  0  0  0  0  0  0  0999 V2000
    4.6981   -0.2746    1.8679 C   0  0  0  0  0  0  0  0  0  0  0  0
    4.0522   -1.3550    1.0209 C   0  0  0  0  0  0  0  0  0  0  0  0
    2.7675   -0.9171    0.5553 O   0  0  0  0  0  0  0  0  0  0  0  0
    2.7744   -0.2021   -0.6064 C   0  0  0  0  0  0  0  0  0  0  0  0
    3.7726    0.0841   -1.2524 O   0  0  0  0  0  0  0  0  0  0  0  0
    1.4216    0.1647   -0.9489 C   0  0  0  0  0  0  0  0  0  0  0  0
    0.9715    0.8890   -2.0399 C   0  0  0  0  0  0  0  0  0  0  0  0
   -0.4387    0.9947   -1.9470 C   0  0  0  0  0  0  0  0  0  0  0  0
   -0.8299    0.3339   -0.8009 C   0  0  0  0  0  0  0  0  0  0  0  0
   -2.1246    0.1332   -0.2320 C   0  0  0  0  0  0  0  0  0  0  0  0
   -3.3570    0.5543   -0.6839 C   0  0  0  0  0  0  0  0  0  0  0  0
   -4.2836    0.0752    0.2678 C   0  0  0  0  0  0  0  0  0  0  0  0
   -5.7540    0.2351    0.2845 C   0  0  0  0  0  0  0  0  0  0  0  0
   -3.6679   -0.5979    1.2446 N   0  0  0  0  0  0  0  0  0  0  0  0
   -2.3226   -0.5611    0.9320 O   0  0  0  0  0  0  0  0  0  0  0  0
    0.3055   -0.1619   -0.2094 N   0  0  0  0  0  0  0  0  0  0  0  0
    4.8788    0.6306    1.2797 H   0  0  0  0  0  0  0  0  0  0  0  0
    5.6512   -0.6209    2.2774 H   0  0  0  0  0  0  0  0  0  0  0  0
    4.0400    0.0097    2.6956 H   0  0  0  0  0  0  0  0  0  0  0  0
    3.8828   -2.2480    1.6315 H   0  0  0  0  0  0  0  0  0  0  0  0
    4.6991   -1.6539    0.1882 H   0  0  0  0  0  0  0  0  0  0  0  0
    1.6036    1.2969   -2.8202 H   0  0  0  0  0  0  0  0  0  0  0  0
   -1.0901    1.5016   -2.6473 H   0  0  0  0  0  0  0  0  0  0  0  0
   -3.5586    1.1273   -1.5760 H   0  0  0  0  0  0  0  0  0  0  0  0
   -6.0737    0.7637    1.1883 H   0  0  0  0  0  0  0  0  0  0  0  0
   -6.2480   -0.7416    0.2610 H   0  0  0  0  0  0  0  0  0  0  0  0
   -6.0986    0.8088   -0.5819 H   0  0  0  0  0  0  0  0  0  0  0  0
    0.3285   -0.6947    0.6515 H   0  0  0  0  0  0  0  0  0  0  0  0
  1  2  1  0
  2  3  1  0
  3  4  1  0
  4  5  2  0
  4  6  1  0
  6  7  2  0
  7  8  1  0
  8  9  2  0
  9 10  1  0
 10 11  2  0
 11 12  1  0
 12 13  1  0
 12 14  2  0
 14 15  1  0
  9 16  1  0
 16  6  1  0
 15 10  1  0
  1 17  1  0
  1 18  1  0
  1 19  1  0
  2 20  1  0
  2 21  1  0
  7 22  1  0
  8 23  1  0
 11 24  1  0
 13 25  1  0
 13 26  1  0
 13 27  1  0
 16 28  1  0
M  END
$$$$
