
     RDKit          3D

 50 53  0  0  0  0  0  0  0  0999 V2000
    8.2895    1.9923   -1.1384 C   0  0  0  0  0  0  0  0  0  0  0  0
    7.2961    2.3917   -0.2027 O   0  0  0  0  0  0  0  0  0  0  0  0
    6.1565    1.6385   -0.1542 C   0  0  0  0  0  0  0  0  0  0  0  0
    5.8695    0.5297   -0.9446 C   0  0  0  0  0  0  0  0  0  0  0  0
    4.6540   -0.1513   -0.7867 C   0  0  0  0  0  0  0  0  0  0  0  0
    3.6911    0.2544    0.1560 C   0  0  0  0  0  0  0  0  0  0  0  0
    2.4149   -0.4795    0.2967 C   0  0  0  0  0  0  0  0  0  0  0  0
    1.2381    0.1208    0.7076 C   0  0  0  0  0  0  0  0  0  0  0  0
    0.0866   -0.6621    0.7995 C   0  0  0  0  0  0  0  0  0  0  0  0
   -1.1545    0.0465    1.1870 C   0  0  0  0  0  0  0  0  0  0  0  0
   -1.1599    0.6539    2.2489 O   0  0  0  0  0  0  0  0  0  0  0  0
   -2.1584   -0.0248    0.2410 N   0  0  0  0  0  0  0  0  0  0  0  0
   -3.4551    0.5238    0.3256 C   0  0  0  0  0  0  0  0  0  0  0  0
   -3.9403    1.2006    1.4397 C   0  0  0  0  0  0  0  0  0  0  0  0
   -5.2544    1.6758    1.4559 C   0  0  0  0  0  0  0  0  0  0  0  0
   -6.1021    1.4981    0.3519 C   0  0  0  0  0  0  0  0  0  0  0  0
   -7.5200    1.9917    0.4335 C   0  0  0  0  0  0  0  0  0  0  0  0
   -5.6005    0.8777   -0.8037 C   0  0  0  0  0  0  0  0  0  0  0  0
   -6.4322    0.5779   -1.8956 N   0  0  0  0  0  0  0  0  0  0  0  0
   -4.2993    0.3514   -0.7802 C   0  0  0  0  0  0  0  0  0  0  0  0
    0.1156   -2.0456    0.5257 C   0  0  0  0  0  0  0  0  0  0  0  0
   -0.9850   -2.9310    0.6656 C   0  0  0  0  0  0  0  0  0  0  0  0
   -0.8619   -4.2841    0.3574 C   0  0  0  0  0  0  0  0  0  0  0  0
    0.3580   -4.7740   -0.0851 C   0  0  0  0  0  0  0  0  0  0  0  0
    1.4481   -3.9090   -0.2051 C   0  0  0  0  0  0  0  0  0  0  0  0
    1.3531   -2.5575    0.0991 C   0  0  0  0  0  0  0  0  0  0  0  0
    2.4543   -1.7972   -0.0261 N   0  0  0  0  0  0  0  0  0  0  0  0
    4.0073    1.3706    0.9488 C   0  0  0  0  0  0  0  0  0  0  0  0
    5.2206    2.0526    0.7927 C   0  0  0  0  0  0  0  0  0  0  0  0
    9.1320    2.6846   -1.0473 H   0  0  0  0  0  0  0  0  0  0  0  0
    8.6601    0.9861   -0.9161 H   0  0  0  0  0  0  0  0  0  0  0  0
    7.9140    2.0582   -2.1649 H   0  0  0  0  0  0  0  0  0  0  0  0
    6.5636    0.1617   -1.6924 H   0  0  0  0  0  0  0  0  0  0  0  0
    4.4582   -1.0178   -1.4176 H   0  0  0  0  0  0  0  0  0  0  0  0
    1.1897    1.1811    0.9348 H   0  0  0  0  0  0  0  0  0  0  0  0
   -1.9402   -0.5100   -0.6214 H   0  0  0  0  0  0  0  0  0  0  0  0
   -3.3317    1.3583    2.3245 H   0  0  0  0  0  0  0  0  0  0  0  0
   -5.6152    2.1769    2.3519 H   0  0  0  0  0  0  0  0  0  0  0  0
   -7.6844    2.7917   -0.2954 H   0  0  0  0  0  0  0  0  0  0  0  0
   -7.7508    2.3937    1.4258 H   0  0  0  0  0  0  0  0  0  0  0  0
   -8.2210    1.1727    0.2424 H   0  0  0  0  0  0  0  0  0  0  0  0
   -5.9311    0.4369   -2.7668 H   0  0  0  0  0  0  0  0  0  0  0  0
   -7.2087    1.2214   -2.0081 H   0  0  0  0  0  0  0  0  0  0  0  0
   -3.9458   -0.1998   -1.6473 H   0  0  0  0  0  0  0  0  0  0  0  0
   -1.9452   -2.5764    1.0371 H   0  0  0  0  0  0  0  0  0  0  0  0
   -1.7123   -4.9518    0.4724 H   0  0  0  0  0  0  0  0  0  0  0  0
    0.4723   -5.8279   -0.3255 H   0  0  0  0  0  0  0  0  0  0  0  0
    2.4057   -4.3044   -0.5379 H   0  0  0  0  0  0  0  0  0  0  0  0
    3.3233    1.7211    1.7187 H   0  0  0  0  0  0  0  0  0  0  0  0
    5.4381    2.9117    1.4230 H   0  0  0  0  0  0  0  0  0  0  0  0
  1  2  1  0
  2  3  1  0
  3  4  2  0
  4  5  1  0
  5  6  2  0
  6  7  1  0
  7  8  2  0
  8  9  1  0
  9 10  1  0
 10 11  2  0
 10 12  1  0
 12 13  1  0
 13 14  2  0
 14 15  1  0
 15 16  2  0
 16 17  1  0
 16 18  1  0
 18 19  1  0
 18 20  2  0
  9 21  2  0
 21 22  1  0
 22 23  2  0
 23 24  1  0
 24 25  2  0
 25 26  1  0
 26 27  2  0
  6 28  1  0
 28 29  2  0
 29  3  1  0
 27  7  1  0
 20 13  1  0
 26 21  1  0
  1 30  1  0
  1 31  1  0
  1 32  1  0
  4 33  1  0
  5 34  1  0
  8 35  1  0
 12 36  1  0
 14 37  1  0
 15 38  1  0
 17 39  1  0
 17 40  1  0
 17 41  1  0
 19 42  1  0
 19 43  1  0
 20 44  1  0
 22 45  1  0
 23 46  1  0
 24 47  1  0
 25 48  1  0
 28 49  1  0
 29 50  1  0
M  END
$$$$
