
     RDKit          3D

 55 60  0  0  0  0  0  0  0  0999 V2000
    3.6737   -1.4627    1.9468 O   0  0  0  0  0  0  0  0  0  0  0  0
    3.5845   -0.2704    1.6588 C   0  0  0  0  0  0  0  0  0  0  0  0
    4.7877    0.5377    1.5302 C   0  0  0  0  0  0  0  0  0  0  0  0
    6.0872    0.0982    1.1390 C   0  0  0  0  0  0  0  0  0  0  0  0
    6.9124    1.1951    1.2065 C   0  0  0  0  0  0  0  0  0  0  0  0
    6.2206    2.2796    1.6376 O   0  0  0  0  0  0  0  0  0  0  0  0
    4.9441    1.8712    1.8549 C   0  0  0  0  0  0  0  0  0  0  0  0
    2.3432    0.3521    1.4677 N   0  0  0  0  0  0  0  0  0  0  0  0
    2.1170    1.3377    0.4160 C   0  0  0  0  0  0  0  0  0  0  0  0
    1.6190    0.6382   -0.8488 C   0  0  0  0  0  0  0  0  0  0  0  0
    0.3507   -0.2486   -0.6383 C   0  0  0  0  0  0  0  0  0  0  0  0
    0.6009   -1.1464    0.6091 C   0  0  0  0  0  0  0  0  0  0  0  0
    1.1514   -0.4027    1.8227 C   0  0  0  0  0  0  0  0  0  0  0  0
    0.2723   -1.1983   -1.7430 O   0  0  0  0  0  0  0  0  0  0  0  0
   -0.1135   -0.6896   -2.9510 C   0  0  0  0  0  0  0  0  0  0  0  0
    0.1929   -1.4597   -4.0719 C   0  0  0  0  0  0  0  0  0  0  0  0
   -0.1500   -1.0037   -5.3468 C   0  0  0  0  0  0  0  0  0  0  0  0
   -0.8066    0.2187   -5.4954 C   0  0  0  0  0  0  0  0  0  0  0  0
   -1.2263    0.7743   -7.0676 Cl  0  0  0  0  0  0  0  0  0  0  0  0
   -1.1313    0.9868   -4.3802 C   0  0  0  0  0  0  0  0  0  0  0  0
   -0.7889    0.5193   -3.1077 C   0  0  0  0  0  0  0  0  0  0  0  0
   -1.1528    1.2880   -1.9025 C   0  0  0  0  0  0  0  0  0  0  0  0
   -1.5934    2.4265   -2.0204 O   0  0  0  0  0  0  0  0  0  0  0  0
   -0.9858    0.5511   -0.5752 C   0  0  0  0  0  0  0  0  0  0  0  0
   -2.2474   -0.2850   -0.3691 C   0  0  0  0  0  0  0  0  0  0  0  0
   -2.5744    0.1028    1.0286 C   0  0  0  0  0  0  0  0  0  0  0  0
   -3.6269   -0.5861    1.8118 C   0  0  0  0  0  0  0  0  0  0  0  0
   -4.4160   -1.5969    1.2497 C   0  0  0  0  0  0  0  0  0  0  0  0
   -5.3981   -2.2284    2.0204 C   0  0  0  0  0  0  0  0  0  0  0  0
   -5.5928   -1.8500    3.3481 C   0  0  0  0  0  0  0  0  0  0  0  0
   -6.8018   -2.6302    4.2899 Cl  0  0  0  0  0  0  0  0  0  0  0  0
   -4.8147   -0.8432    3.9145 C   0  0  0  0  0  0  0  0  0  0  0  0
   -3.8326   -0.2111    3.1469 C   0  0  0  0  0  0  0  0  0  0  0  0
   -1.8742    1.0833    1.4974 N   0  0  0  0  0  0  0  0  0  0  0  0
   -0.9858    1.5067    0.4843 O   0  0  0  0  0  0  0  0  0  0  0  0
    6.3733   -0.9032    0.8477 H   0  0  0  0  0  0  0  0  0  0  0  0
    7.9621    1.3585    1.0057 H   0  0  0  0  0  0  0  0  0  0  0  0
    4.2755    2.6291    2.2391 H   0  0  0  0  0  0  0  0  0  0  0  0
    1.3995    2.0757    0.7851 H   0  0  0  0  0  0  0  0  0  0  0  0
    3.0308    1.8769    0.1617 H   0  0  0  0  0  0  0  0  0  0  0  0
    2.4255   -0.0029   -1.2334 H   0  0  0  0  0  0  0  0  0  0  0  0
    1.4604    1.3906   -1.6288 H   0  0  0  0  0  0  0  0  0  0  0  0
   -0.3015   -1.6983    0.8909 H   0  0  0  0  0  0  0  0  0  0  0  0
    1.3235   -1.9268    0.3292 H   0  0  0  0  0  0  0  0  0  0  0  0
    0.4280    0.2994    2.2413 H   0  0  0  0  0  0  0  0  0  0  0  0
    1.3811   -1.1186    2.6205 H   0  0  0  0  0  0  0  0  0  0  0  0
    0.7134   -2.4083   -3.9576 H   0  0  0  0  0  0  0  0  0  0  0  0
    0.1002   -1.6034   -6.2190 H   0  0  0  0  0  0  0  0  0  0  0  0
   -1.6519    1.9352   -4.4970 H   0  0  0  0  0  0  0  0  0  0  0  0
   -2.0854   -1.3598   -0.4751 H   0  0  0  0  0  0  0  0  0  0  0  0
   -3.0776    0.0161   -1.0176 H   0  0  0  0  0  0  0  0  0  0  0  0
   -4.2934   -1.9092    0.2166 H   0  0  0  0  0  0  0  0  0  0  0  0
   -6.0095   -3.0124    1.5797 H   0  0  0  0  0  0  0  0  0  0  0  0
   -4.9657   -0.5436    4.9485 H   0  0  0  0  0  0  0  0  0  0  0  0
   -3.2327    0.5770    3.5992 H   0  0  0  0  0  0  0  0  0  0  0  0
  1  2  2  0
  2  3  1  0
  3  4  1  0
  4  5  2  0
  5  6  1  0
  6  7  1  0
  2  8  1  0
  8  9  1  0
  9 10  1  0
 10 11  1  0
 11 12  1  0
 12 13  1  0
 11 14  1  0
 14 15  1  0
 15 16  2  0
 16 17  1  0
 17 18  2  0
 18 19  1  0
 18 20  1  0
 20 21  2  0
 21 22  1  0
 22 23  2  0
 22 24  1  0
 24 25  1  0
 25 26  1  0
 26 27  1  0
 27 28  2  0
 28 29  1  0
 29 30  2  0
 30 31  1  0
 30 32  1  0
 32 33  2  0
 26 34  2  0
 34 35  1  0
  7  3  2  0
 13  8  1  0
 21 15  1  0
 35 24  1  0
 24 11  1  0
 33 27  1  0
  4 36  1  0
  5 37  1  0
  7 38  1  0
  9 39  1  0
  9 40  1  0
 10 41  1  0
 10 42  1  0
 12 43  1  0
 12 44  1  0
 13 45  1  0
 13 46  1  0
 16 47  1  0
 17 48  1  0
 20 49  1  0
 25 50  1  0
 25 51  1  0
 28 52  1  0
 29 53  1  0
 32 54  1  0
 33 55  1  0
M  END
$$$$
