
     RDKit          3D

 43 45  0  0  0  0  0  0  0  0999 V2000
   -6.8142   -1.4752   -0.3882 C   0  0  0  0  0  0  0  0  0  0  0  0
   -6.0163   -0.2782   -0.6474 N   0  0  0  0  0  0  0  0  0  0  0  0
   -6.7675    0.9026   -1.0701 C   0  0  0  0  0  0  0  0  0  0  0  0
   -4.8086   -0.1055    0.0399 C   0  0  0  0  0  0  0  0  0  0  0  0
   -4.1715   -1.1660    0.7104 C   0  0  0  0  0  0  0  0  0  0  0  0
   -2.9521   -1.0045    1.3852 C   0  0  0  0  0  0  0  0  0  0  0  0
   -2.3181    0.2340    1.4019 C   0  0  0  0  0  0  0  0  0  0  0  0
   -1.0371    0.4016    2.0882 C   0  0  0  0  0  0  0  0  0  0  0  0
    0.1766    0.3082    1.5193 C   0  0  0  0  0  0  0  0  0  0  0  0
    0.4403    0.0188    0.1225 C   0  0  0  0  0  0  0  0  0  0  0  0
    1.6340   -0.0791   -0.4847 C   0  0  0  0  0  0  0  0  0  0  0  0
    1.7643   -0.4336   -2.1654 S   0  0  0  0  0  0  0  0  0  0  0  0
    3.5237   -0.5077   -2.1225 C   0  0  0  0  0  0  0  0  0  0  0  0
    4.3545   -1.0666   -3.4657 S   0  0  0  0  0  0  0  0  0  0  0  0
    3.9824   -0.1390   -0.8631 N   0  0  0  0  0  0  0  0  0  0  0  0
    5.3680    0.0015   -0.5122 C   0  0  0  0  0  0  0  0  0  0  0  0
    5.8410   -0.4420    0.7337 C   0  0  0  0  0  0  0  0  0  0  0  0
    7.1867   -0.3038    1.0890 C   0  0  0  0  0  0  0  0  0  0  0  0
    8.0833    0.2905    0.2079 C   0  0  0  0  0  0  0  0  0  0  0  0
    7.6327    0.7544   -1.0234 C   0  0  0  0  0  0  0  0  0  0  0  0
    6.2863    0.6158   -1.3777 C   0  0  0  0  0  0  0  0  0  0  0  0
    2.9972    0.0897    0.1028 C   0  0  0  0  0  0  0  0  0  0  0  0
    3.1729    0.4203    1.2696 O   0  0  0  0  0  0  0  0  0  0  0  0
   -2.9118    1.3019    0.7358 C   0  0  0  0  0  0  0  0  0  0  0  0
   -4.1317    1.1277    0.0651 C   0  0  0  0  0  0  0  0  0  0  0  0
   -7.0996   -1.5372    0.6679 H   0  0  0  0  0  0  0  0  0  0  0  0
   -6.2735   -2.3822   -0.6785 H   0  0  0  0  0  0  0  0  0  0  0  0
   -7.7368   -1.4745   -0.9796 H   0  0  0  0  0  0  0  0  0  0  0  0
   -7.0465    1.5212   -0.2099 H   0  0  0  0  0  0  0  0  0  0  0  0
   -6.1941    1.5021   -1.7853 H   0  0  0  0  0  0  0  0  0  0  0  0
   -7.6915    0.6221   -1.5883 H   0  0  0  0  0  0  0  0  0  0  0  0
   -4.6059   -2.1607    0.7228 H   0  0  0  0  0  0  0  0  0  0  0  0
   -2.5049   -1.8598    1.8859 H   0  0  0  0  0  0  0  0  0  0  0  0
   -1.1139    0.6185    3.1516 H   0  0  0  0  0  0  0  0  0  0  0  0
    1.0320    0.4624    2.1741 H   0  0  0  0  0  0  0  0  0  0  0  0
   -0.4490   -0.1383   -0.4893 H   0  0  0  0  0  0  0  0  0  0  0  0
    5.1770   -0.9266    1.4462 H   0  0  0  0  0  0  0  0  0  0  0  0
    7.5305   -0.6636    2.0557 H   0  0  0  0  0  0  0  0  0  0  0  0
    9.1289    0.3997    0.4839 H   0  0  0  0  0  0  0  0  0  0  0  0
    8.3260    1.2359   -1.7091 H   0  0  0  0  0  0  0  0  0  0  0  0
    5.9734    1.0401   -2.3280 H   0  0  0  0  0  0  0  0  0  0  0  0
   -2.4330    2.2780    0.7229 H   0  0  0  0  0  0  0  0  0  0  0  0
   -4.5343    1.9972   -0.4452 H   0  0  0  0  0  0  0  0  0  0  0  0
  1  2  1  0
  2  3  1  0
  2  4  1  0
  4  5  2  0
  5  6  1  0
  6  7  2  0
  7  8  1  0
  8  9  2  3
  9 10  1  0
 10 11  2  3
 11 12  1  0
 12 13  1  0
 13 14  2  0
 13 15  1  0
 15 16  1  0
 16 17  2  0
 17 18  1  0
 18 19  2  0
 19 20  1  0
 20 21  2  0
 15 22  1  0
 22 23  2  0
  7 24  1  0
 24 25  2  0
 25  4  1  0
 22 11  1  0
 21 16  1  0
  1 26  1  0
  1 27  1  0
  1 28  1  0
  3 29  1  0
  3 30  1  0
  3 31  1  0
  5 32  1  0
  6 33  1  0
  8 34  1  0
  9 35  1  0
 10 36  1  0
 17 37  1  0
 18 38  1  0
 19 39  1  0
 20 40  1  0
 21 41  1  0
 24 42  1  0
 25 43  1  0
M  END
$$$$
