
     RDKit          3D

 45 44  0  0  0  0  0  0  0  0999 V2000
    5.1264   -3.1994    2.9071 C   0  0  0  0  0  0  0  0  0  0  0  0
    4.7159   -2.1636    1.8719 C   0  0  0  0  0  0  0  0  0  0  0  0
    4.1761   -2.8259    0.6016 C   0  0  0  0  0  0  0  0  0  0  0  0
    3.7901   -1.8057   -0.4661 C   0  0  0  0  0  0  0  0  0  0  0  0
    2.6436   -1.0171   -0.0758 N   0  0  0  0  0  0  0  0  0  0  0  0
    2.3746    0.1915   -0.6433 C   0  0  0  0  0  0  0  0  0  0  0  0
    3.1166    0.8010   -1.3977 O   0  0  0  0  0  0  0  0  0  0  0  0
    1.1436    0.5929   -0.2472 O   0  0  0  0  0  0  0  0  0  0  0  0
    0.6858    1.8590   -0.7617 C   0  0  0  0  0  0  0  0  0  0  0  0
   -0.7534    1.7114   -1.2862 C   0  0  0  0  0  0  0  0  0  0  0  0
   -0.8935    0.6618   -2.4053 C   0  0  0  0  0  0  0  0  0  0  0  0
   -0.0852    0.9918   -3.6514 C   0  0  0  0  0  0  0  0  0  0  0  0
   -1.6473    1.3694   -0.1832 N   0  0  0  0  0  0  0  0  0  0  0  0
   -2.9760    1.6611   -0.1876 C   0  0  0  0  0  0  0  0  0  0  0  0
   -3.5450    2.3512   -1.0186 O   0  0  0  0  0  0  0  0  0  0  0  0
   -3.5623    1.0499    0.8699 O   0  0  0  0  0  0  0  0  0  0  0  0
   -4.9817    1.2472    1.0038 C   0  0  0  0  0  0  0  0  0  0  0  0
   -5.3266    1.0489    2.4749 C   0  0  0  0  0  0  0  0  0  0  0  0
   -5.7213    0.2354    0.1357 C   0  0  0  0  0  0  0  0  0  0  0  0
    5.5132   -2.7062    3.8049 H   0  0  0  0  0  0  0  0  0  0  0  0
    4.2730   -3.8192    3.2010 H   0  0  0  0  0  0  0  0  0  0  0  0
    5.9102   -3.8558    2.5162 H   0  0  0  0  0  0  0  0  0  0  0  0
    3.9559   -1.5061    2.3091 H   0  0  0  0  0  0  0  0  0  0  0  0
    5.5827   -1.5391    1.6252 H   0  0  0  0  0  0  0  0  0  0  0  0
    3.3086   -3.4500    0.8509 H   0  0  0  0  0  0  0  0  0  0  0  0
    4.9444   -3.4909    0.1884 H   0  0  0  0  0  0  0  0  0  0  0  0
    3.5171   -2.3250   -1.3921 H   0  0  0  0  0  0  0  0  0  0  0  0
    4.6326   -1.1432   -0.6961 H   0  0  0  0  0  0  0  0  0  0  0  0
    1.8535   -1.4629    0.3692 H   0  0  0  0  0  0  0  0  0  0  0  0
    0.7066    2.5689    0.0734 H   0  0  0  0  0  0  0  0  0  0  0  0
    1.3339    2.2582   -1.5489 H   0  0  0  0  0  0  0  0  0  0  0  0
   -1.0765    2.6844   -1.6776 H   0  0  0  0  0  0  0  0  0  0  0  0
   -0.6062   -0.3310   -2.0374 H   0  0  0  0  0  0  0  0  0  0  0  0
   -1.9490    0.5814   -2.6955 H   0  0  0  0  0  0  0  0  0  0  0  0
    0.9904    0.9490   -3.4579 H   0  0  0  0  0  0  0  0  0  0  0  0
   -0.3062    0.2688   -4.4435 H   0  0  0  0  0  0  0  0  0  0  0  0
   -0.3316    1.9902   -4.0262 H   0  0  0  0  0  0  0  0  0  0  0  0
   -1.3561    0.6720    0.4887 H   0  0  0  0  0  0  0  0  0  0  0  0
   -5.2573    2.2697    0.7183 H   0  0  0  0  0  0  0  0  0  0  0  0
   -4.7785    1.7672    3.0939 H   0  0  0  0  0  0  0  0  0  0  0  0
   -6.3979    1.1811    2.6539 H   0  0  0  0  0  0  0  0  0  0  0  0
   -5.0329    0.0505    2.8173 H   0  0  0  0  0  0  0  0  0  0  0  0
   -5.4689    0.3683   -0.9217 H   0  0  0  0  0  0  0  0  0  0  0  0
   -5.4359   -0.7894    0.3996 H   0  0  0  0  0  0  0  0  0  0  0  0
   -6.8056    0.3373    0.2461 H   0  0  0  0  0  0  0  0  0  0  0  0
  1  2  1  0
  2  3  1  0
  3  4  1  0
  4  5  1  0
  5  6  1  0
  6  7  2  0
  6  8  1  0
  8  9  1  0
  9 10  1  0
 10 11  1  0
 11 12  1  0
 10 13  1  0
 13 14  1  0
 14 15  2  0
 14 16  1  0
 16 17  1  0
 17 18  1  0
 17 19  1  0
  1 20  1  0
  1 21  1  0
  1 22  1  0
  2 23  1  0
  2 24  1  0
  3 25  1  0
  3 26  1  0
  4 27  1  0
  4 28  1  0
  5 29  1  0
  9 30  1  0
  9 31  1  0
 10 32  1  0
 11 33  1  0
 11 34  1  0
 12 35  1  0
 12 36  1  0
 12 37  1  0
 13 38  1  0
 17 39  1  0
 18 40  1  0
 18 41  1  0
 18 42  1  0
 19 43  1  0
 19 44  1  0
 19 45  1  0
M  END
$$$$
