
     RDKit          3D

 36 37  0  0  0  0  0  0  0  0999 V2000
   -1.7304    2.0501    1.4596 O   0  0  0  0  0  0  0  0  0  0  0  0
   -1.0186    1.9249    0.4675 C   0  0  0  0  0  0  0  0  0  0  0  0
    0.1229    2.8954    0.1542 C   0  0  0  0  0  0  0  0  0  0  0  0
    1.3834    2.4603    0.6653 O   0  0  0  0  0  0  0  0  0  0  0  0
    1.9783    1.4661   -0.0338 C   0  0  0  0  0  0  0  0  0  0  0  0
    1.5262    0.9359   -1.0375 O   0  0  0  0  0  0  0  0  0  0  0  0
    3.2761    1.0863    0.5844 C   0  0  0  0  0  0  0  0  0  0  0  0
    3.7284    1.6527    1.7857 C   0  0  0  0  0  0  0  0  0  0  0  0
    4.9543    1.2552    2.3194 C   0  0  0  0  0  0  0  0  0  0  0  0
    5.5057    1.9559    3.7931 Cl  0  0  0  0  0  0  0  0  0  0  0  0
    5.7369    0.3006    1.6733 C   0  0  0  0  0  0  0  0  0  0  0  0
    5.2833   -0.2593    0.4797 C   0  0  0  0  0  0  0  0  0  0  0  0
    6.2451   -1.4350   -0.3303 Cl  0  0  0  0  0  0  0  0  0  0  0  0
    4.0598    0.1247   -0.0679 C   0  0  0  0  0  0  0  0  0  0  0  0
   -1.1691    0.9116   -0.4584 N   0  0  0  0  0  0  0  0  0  0  0  0
   -2.0823   -0.1889   -0.2060 C   0  0  0  0  0  0  0  0  0  0  0  0
   -2.4764   -0.9210   -1.4914 C   0  0  0  0  0  0  0  0  0  0  0  0
   -3.3104   -2.0789   -1.2282 N   0  0  0  0  0  0  0  0  0  0  0  0
   -4.6704   -2.0096   -1.0560 C   0  0  0  0  0  0  0  0  0  0  0  0
   -5.2912   -0.8047   -1.1980 O   0  0  0  0  0  0  0  0  0  0  0  0
   -5.2517   -3.1737   -0.7428 C   0  0  0  0  0  0  0  0  0  0  0  0
   -4.0790   -4.4525   -0.6283 S   0  0  0  0  0  0  0  0  0  0  0  0
   -2.7566   -3.3303   -1.0066 C   0  0  0  0  0  0  0  0  0  0  0  0
   -1.5806   -3.6516   -1.0348 O   0  0  0  0  0  0  0  0  0  0  0  0
   -0.1129    3.8550    0.6263 H   0  0  0  0  0  0  0  0  0  0  0  0
    0.1802    3.0868   -0.9232 H   0  0  0  0  0  0  0  0  0  0  0  0
    3.1347    2.3976    2.3115 H   0  0  0  0  0  0  0  0  0  0  0  0
    6.6919   -0.0037    2.0956 H   0  0  0  0  0  0  0  0  0  0  0  0
    3.7180   -0.3231   -1.0006 H   0  0  0  0  0  0  0  0  0  0  0  0
   -0.3374    0.7076   -1.0167 H   0  0  0  0  0  0  0  0  0  0  0  0
   -2.9752    0.1933    0.3045 H   0  0  0  0  0  0  0  0  0  0  0  0
   -1.5810   -0.8708    0.4905 H   0  0  0  0  0  0  0  0  0  0  0  0
   -2.9927   -0.2443   -2.1828 H   0  0  0  0  0  0  0  0  0  0  0  0
   -1.5677   -1.2583   -2.0076 H   0  0  0  0  0  0  0  0  0  0  0  0
   -6.2369   -0.9188   -0.9991 H   0  0  0  0  0  0  0  0  0  0  0  0
   -6.3047   -3.3354   -0.5607 H   0  0  0  0  0  0  0  0  0  0  0  0
  1  2  2  0
  2  3  1  0
  3  4  1  0
  4  5  1  0
  5  6  2  0
  5  7  1  0
  7  8  2  0
  8  9  1  0
  9 10  1  0
  9 11  2  0
 11 12  1  0
 12 13  1  0
 12 14  2  0
  2 15  1  0
 15 16  1  0
 16 17  1  0
 17 18  1  0
 18 19  1  0
 19 20  1  0
 19 21  2  0
 21 22  1  0
 22 23  1  0
 23 24  2  0
 14  7  1  0
 23 18  1  0
  3 25  1  0
  3 26  1  0
  8 27  1  0
 11 28  1  0
 14 29  1  0
 15 30  1  0
 16 31  1  0
 16 32  1  0
 17 33  1  0
 17 34  1  0
 20 35  1  0
 21 36  1  0
M  END
$$$$
