
     RDKit          3D

 41 43  0  0  0  0  0  0  0  0999 V2000
   -3.1948   -0.2123    1.8732 C   0  0  0  0  0  0  0  0  0  0  0  0
   -3.0828    0.1138    0.4744 N   0  0  0  0  0  0  0  0  0  0  0  0
   -1.9352    0.2052   -0.2637 C   0  0  0  0  0  0  0  0  0  0  0  0
   -0.3444    0.0605    0.3930 S   0  0  0  0  0  0  0  0  0  0  0  0
    0.6302    0.6840   -1.0084 C   0  0  0  0  0  0  0  0  0  0  0  0
    2.1037    0.6101   -0.6581 C   0  0  0  0  0  0  0  0  0  0  0  0
    2.7055    1.5622   -0.1657 O   0  0  0  0  0  0  0  0  0  0  0  0
    2.6648   -0.6346   -0.9516 N   0  0  0  0  0  0  0  0  0  0  0  0
    3.9361   -1.0147   -0.5907 N   0  0  0  0  0  0  0  0  0  0  0  0
    4.8850   -0.1336   -0.6780 C   0  0  0  0  0  0  0  0  0  0  0  0
    6.2259   -0.4772   -0.2646 C   0  0  0  0  0  0  0  0  0  0  0  0
    6.6942   -1.6612    0.2740 C   0  0  0  0  0  0  0  0  0  0  0  0
    8.0927   -1.6118    0.5574 C   0  0  0  0  0  0  0  0  0  0  0  0
    8.6296   -0.3879    0.2204 C   0  0  0  0  0  0  0  0  0  0  0  0
   10.0043    0.0152    0.3677 N   0  0  0  0  0  4  0  0  0  0  0  0
   10.3267    1.1527    0.0019 O   0  0  0  0  0  0  0  0  0  0  0  0
   10.7723   -0.8251    0.8562 O   0  0  0  0  0  1  0  0  0  0  0  0
    7.4766    0.6811   -0.4241 S   0  0  0  0  0  0  0  0  0  0  0  0
   -2.2299    0.4103   -1.5235 N   0  0  0  0  0  0  0  0  0  0  0  0
   -3.5968    0.4808   -1.6209 N   0  0  0  0  0  0  0  0  0  0  0  0
   -4.1150    0.3477   -0.4117 C   0  0  0  0  0  0  0  0  0  0  0  0
   -5.5413    0.4047   -0.0992 C   0  0  0  0  0  0  0  0  0  0  0  0
   -6.4477   -0.3160   -0.8903 C   0  0  0  0  0  0  0  0  0  0  0  0
   -7.8188   -0.2745   -0.6213 C   0  0  0  0  0  0  0  0  0  0  0  0
   -8.2920    0.4998    0.4350 C   0  0  0  0  0  0  0  0  0  0  0  0
   -9.9781    0.5528    0.7697 Cl  0  0  0  0  0  0  0  0  0  0  0  0
   -7.4072    1.2381    1.2185 C   0  0  0  0  0  0  0  0  0  0  0  0
   -6.0356    1.1952    0.9485 C   0  0  0  0  0  0  0  0  0  0  0  0
   -4.1666   -0.6692    2.0732 H   0  0  0  0  0  0  0  0  0  0  0  0
   -3.0798    0.7079    2.4510 H   0  0  0  0  0  0  0  0  0  0  0  0
   -2.4227   -0.9350    2.1482 H   0  0  0  0  0  0  0  0  0  0  0  0
    0.3730    1.7266   -1.2222 H   0  0  0  0  0  0  0  0  0  0  0  0
    0.4379    0.0915   -1.9094 H   0  0  0  0  0  0  0  0  0  0  0  0
    2.0207   -1.4195   -1.0224 H   0  0  0  0  0  0  0  0  0  0  0  0
    4.7243    0.8773   -1.0918 H   0  0  0  0  0  0  0  0  0  0  0  0
    6.0591   -2.5214    0.4574 H   0  0  0  0  0  0  0  0  0  0  0  0
    8.6629   -2.4297    0.9840 H   0  0  0  0  0  0  0  0  0  0  0  0
   -6.0863   -0.9128   -1.7268 H   0  0  0  0  0  0  0  0  0  0  0  0
   -8.5070   -0.8411   -1.2430 H   0  0  0  0  0  0  0  0  0  0  0  0
   -7.7787    1.8565    2.0317 H   0  0  0  0  0  0  0  0  0  0  0  0
   -5.3647    1.8037    1.5505 H   0  0  0  0  0  0  0  0  0  0  0  0
  1  2  1  0
  2  3  1  0
  3  4  1  0
  4  5  1  0
  5  6  1  0
  6  7  2  0
  6  8  1  0
  8  9  1  0
  9 10  2  3
 10 11  1  0
 11 12  2  0
 12 13  1  0
 13 14  2  0
 14 15  1  0
 15 16  2  0
 15 17  1  0
 14 18  1  0
  3 19  2  0
 19 20  1  0
 20 21  2  0
 21 22  1  0
 22 23  2  0
 23 24  1  0
 24 25  2  0
 25 26  1  0
 25 27  1  0
 27 28  2  0
 21  2  1  0
 28 22  1  0
 18 11  1  0
  1 29  1  0
  1 30  1  0
  1 31  1  0
  5 32  1  0
  5 33  1  0
  8 34  1  0
 10 35  1  0
 12 36  1  0
 13 37  1  0
 23 38  1  0
 24 39  1  0
 27 40  1  0
 28 41  1  0
M  CHG  2  15   1  17  -1
M  END
$$$$
