
     RDKit          3D

 36 37  0  0  0  0  0  0  0  0999 V2000
   -1.6020   -0.0617    3.2213 O   0  0  0  0  0  0  0  0  0  0  0  0
   -0.7220    0.1015    2.3808 C   0  0  0  0  0  0  0  0  0  0  0  0
    0.6789    0.5876    2.7531 C   0  0  0  0  0  0  0  0  0  0  0  0
    1.5206    0.6599    1.5968 O   0  0  0  0  0  0  0  0  0  0  0  0
    2.8296    0.8484    1.8795 C   0  0  0  0  0  0  0  0  0  0  0  0
    3.3175    1.0142    2.9841 O   0  0  0  0  0  0  0  0  0  0  0  0
    3.5987    0.9430    0.6231 C   0  0  0  0  0  0  0  0  0  0  0  0
    4.4596    2.0452    0.5014 C   0  0  0  0  0  0  0  0  0  0  0  0
    5.2180    2.2224   -0.6560 C   0  0  0  0  0  0  0  0  0  0  0  0
    5.1284    1.2963   -1.6928 C   0  0  0  0  0  0  0  0  0  0  0  0
    4.2895    0.1865   -1.5701 C   0  0  0  0  0  0  0  0  0  0  0  0
    3.5259    0.0007   -0.4112 C   0  0  0  0  0  0  0  0  0  0  0  0
    2.4810   -1.5835   -0.3154 Br  0  0  0  0  0  0  0  0  0  0  0  0
   -0.9051   -0.1275    1.0322 N   0  0  0  0  0  0  0  0  0  0  0  0
   -2.1004   -0.7779    0.5282 C   0  0  0  0  0  0  0  0  0  0  0  0
   -2.3817   -0.4147   -0.9314 C   0  0  0  0  0  0  0  0  0  0  0  0
   -3.4981   -1.1617   -1.4787 N   0  0  0  0  0  0  0  0  0  0  0  0
   -4.8092   -0.7820   -1.3356 C   0  0  0  0  0  0  0  0  0  0  0  0
   -5.0891    0.3870   -0.6963 O   0  0  0  0  0  0  0  0  0  0  0  0
   -5.6962   -1.6396   -1.8529 C   0  0  0  0  0  0  0  0  0  0  0  0
   -4.9022   -3.0165   -2.5573 S   0  0  0  0  0  0  0  0  0  0  0  0
   -3.3086   -2.3865   -2.0974 C   0  0  0  0  0  0  0  0  0  0  0  0
   -2.2595   -2.9734   -2.3034 O   0  0  0  0  0  0  0  0  0  0  0  0
    0.5853    1.5856    3.1937 H   0  0  0  0  0  0  0  0  0  0  0  0
    1.0891   -0.1235    3.4790 H   0  0  0  0  0  0  0  0  0  0  0  0
    4.5388    2.7699    1.3104 H   0  0  0  0  0  0  0  0  0  0  0  0
    5.8806    3.0803   -0.7468 H   0  0  0  0  0  0  0  0  0  0  0  0
    5.7215    1.4312   -2.5948 H   0  0  0  0  0  0  0  0  0  0  0  0
    4.2482   -0.5357   -2.3830 H   0  0  0  0  0  0  0  0  0  0  0  0
   -0.0504   -0.1956    0.4869 H   0  0  0  0  0  0  0  0  0  0  0  0
   -1.9445   -1.8577    0.6343 H   0  0  0  0  0  0  0  0  0  0  0  0
   -2.9555   -0.5120    1.1597 H   0  0  0  0  0  0  0  0  0  0  0  0
   -1.4913   -0.6327   -1.5348 H   0  0  0  0  0  0  0  0  0  0  0  0
   -2.5698    0.6606   -1.0360 H   0  0  0  0  0  0  0  0  0  0  0  0
   -6.0548    0.4941   -0.6568 H   0  0  0  0  0  0  0  0  0  0  0  0
   -6.7707   -1.5322   -1.8460 H   0  0  0  0  0  0  0  0  0  0  0  0
  1  2  2  0
  2  3  1  0
  3  4  1  0
  4  5  1  0
  5  6  2  0
  5  7  1  0
  7  8  2  0
  8  9  1  0
  9 10  2  0
 10 11  1  0
 11 12  2  0
 12 13  1  0
  2 14  1  0
 14 15  1  0
 15 16  1  0
 16 17  1  0
 17 18  1  0
 18 19  1  0
 18 20  2  0
 20 21  1  0
 21 22  1  0
 22 23  2  0
 12  7  1  0
 22 17  1  0
  3 24  1  0
  3 25  1  0
  8 26  1  0
  9 27  1  0
 10 28  1  0
 11 29  1  0
 14 30  1  0
 15 31  1  0
 15 32  1  0
 16 33  1  0
 16 34  1  0
 19 35  1  0
 20 36  1  0
M  END
$$$$
