
     RDKit          3D

 61 65  0  0  0  0  0  0  0  0999 V2000
   -8.7207    1.9538   -3.5002 C   0  0  0  0  0  0  0  0  0  0  0  0
   -7.6757    1.2672   -2.6724 C   0  0  0  0  0  0  0  0  0  0  0  0
   -8.0396    0.3747   -1.6620 C   0  0  0  0  0  0  0  0  0  0  0  0
   -7.0593   -0.2847   -0.9116 C   0  0  0  0  0  0  0  0  0  0  0  0
   -5.6873   -0.0814   -1.1460 C   0  0  0  0  0  0  0  0  0  0  0  0
   -4.6713   -0.7818   -0.3296 C   0  0  0  0  0  0  0  0  0  0  0  0
   -3.4112   -0.2640   -0.0824 C   0  0  0  0  0  0  0  0  0  0  0  0
   -2.5277   -1.0054    0.7056 C   0  0  0  0  0  0  0  0  0  0  0  0
   -1.1846   -0.4276    0.9406 C   0  0  0  0  0  0  0  0  0  0  0  0
   -0.8547   -0.1571    2.0851 O   0  0  0  0  0  0  0  0  0  0  0  0
   -0.4446   -0.2724   -0.2153 N   0  0  0  0  0  0  0  0  0  0  0  0
    0.8275    0.3218   -0.3406 C   0  0  0  0  0  0  0  0  0  0  0  0
    1.4968    0.9558    0.7093 C   0  0  0  0  0  0  0  0  0  0  0  0
    2.7485    1.5464    0.5022 C   0  0  0  0  0  0  0  0  0  0  0  0
    3.3417    1.4881   -0.7593 C   0  0  0  0  0  0  0  0  0  0  0  0
    4.9057    2.2817   -1.0338 S   0  0  0  0  0  6  0  0  0  0  0  0
    5.0612    3.3572   -0.0804 O   0  0  0  0  0  0  0  0  0  0  0  0
    5.0188    2.5370   -2.4568 O   0  0  0  0  0  0  0  0  0  0  0  0
    5.9958    1.0386   -0.7212 N   0  0  0  0  0  0  0  0  0  0  0  0
    6.5627    1.0247    0.6138 C   0  0  0  0  0  0  0  0  0  0  0  0
    5.8516    1.1947    1.7597 O   0  0  0  0  0  0  0  0  0  0  0  0
    6.6930    1.0992    2.8499 N   0  0  0  0  0  0  0  0  0  0  0  0
    7.9110    0.8683    2.3480 C   0  0  0  0  0  0  0  0  0  0  0  0
    9.0725    0.7199    3.2562 C   0  0  0  0  0  0  0  0  0  0  0  0
    7.8850    0.7899    0.9265 C   0  0  0  0  0  0  0  0  0  0  0  0
    9.0251    0.5323    0.0189 C   0  0  0  0  0  0  0  0  0  0  0  0
    2.6809    0.8685   -1.8211 C   0  0  0  0  0  0  0  0  0  0  0  0
    1.4277    0.2867   -1.6074 C   0  0  0  0  0  0  0  0  0  0  0  0
   -2.9034   -2.2436    1.2624 C   0  0  0  0  0  0  0  0  0  0  0  0
   -2.0734   -3.0528    2.0786 C   0  0  0  0  0  0  0  0  0  0  0  0
   -2.5287   -4.2707    2.5796 C   0  0  0  0  0  0  0  0  0  0  0  0
   -3.8128   -4.6973    2.2722 C   0  0  0  0  0  0  0  0  0  0  0  0
   -4.6317   -3.9022    1.4667 C   0  0  0  0  0  0  0  0  0  0  0  0
   -4.2024   -2.6839    0.9560 C   0  0  0  0  0  0  0  0  0  0  0  0
   -5.0490   -1.9795    0.1839 N   0  0  0  0  0  0  0  0  0  0  0  0
   -5.3417    0.8014   -2.1855 C   0  0  0  0  0  0  0  0  0  0  0  0
   -6.3193    1.4641   -2.9388 C   0  0  0  0  0  0  0  0  0  0  0  0
   -8.3972    2.9640   -3.7724 H   0  0  0  0  0  0  0  0  0  0  0  0
   -8.9085    1.3826   -4.4152 H   0  0  0  0  0  0  0  0  0  0  0  0
   -9.6607    2.0508   -2.9465 H   0  0  0  0  0  0  0  0  0  0  0  0
   -9.0878    0.1822   -1.4458 H   0  0  0  0  0  0  0  0  0  0  0  0
   -7.3778   -0.9690   -0.1255 H   0  0  0  0  0  0  0  0  0  0  0  0
   -3.1198    0.7121   -0.4563 H   0  0  0  0  0  0  0  0  0  0  0  0
   -0.8389   -0.6608   -1.0640 H   0  0  0  0  0  0  0  0  0  0  0  0
    1.0647    1.0235    1.7035 H   0  0  0  0  0  0  0  0  0  0  0  0
    3.2441    2.0501    1.3302 H   0  0  0  0  0  0  0  0  0  0  0  0
    6.6222    0.8895   -1.5068 H   0  0  0  0  0  0  0  0  0  0  0  0
    8.7886    0.8570    4.3041 H   0  0  0  0  0  0  0  0  0  0  0  0
    9.8415    1.4604    3.0152 H   0  0  0  0  0  0  0  0  0  0  0  0
    9.5107   -0.2775    3.1538 H   0  0  0  0  0  0  0  0  0  0  0  0
    9.7761   -0.1032    0.4983 H   0  0  0  0  0  0  0  0  0  0  0  0
    9.5035    1.4765   -0.2627 H   0  0  0  0  0  0  0  0  0  0  0  0
    8.7036    0.0256   -0.8966 H   0  0  0  0  0  0  0  0  0  0  0  0
    3.1251    0.8389   -2.8132 H   0  0  0  0  0  0  0  0  0  0  0  0
    0.9285   -0.1910   -2.4471 H   0  0  0  0  0  0  0  0  0  0  0  0
   -1.0662   -2.7303    2.3399 H   0  0  0  0  0  0  0  0  0  0  0  0
   -1.8842   -4.8773    3.2108 H   0  0  0  0  0  0  0  0  0  0  0  0
   -4.1843   -5.6432    2.6583 H   0  0  0  0  0  0  0  0  0  0  0  0
   -5.6379   -4.2434    1.2310 H   0  0  0  0  0  0  0  0  0  0  0  0
   -4.3008    0.9805   -2.4420 H   0  0  0  0  0  0  0  0  0  0  0  0
   -6.0108    2.1341   -3.7388 H   0  0  0  0  0  0  0  0  0  0  0  0
  1  2  1  0
  2  3  2  0
  3  4  1  0
  4  5  2  0
  5  6  1  0
  6  7  2  0
  7  8  1  0
  8  9  1  0
  9 10  2  0
  9 11  1  0
 11 12  1  0
 12 13  2  0
 13 14  1  0
 14 15  2  0
 15 16  1  0
 16 17  2  0
 16 18  2  0
 16 19  1  0
 19 20  1  0
 20 21  1  0
 21 22  1  0
 22 23  2  0
 23 24  1  0
 23 25  1  0
 25 26  1  0
 15 27  1  0
 27 28  2  0
  8 29  2  0
 29 30  1  0
 30 31  2  0
 31 32  1  0
 32 33  2  0
 33 34  1  0
 34 35  2  0
  5 36  1  0
 36 37  2  0
 37  2  1  0
 35  6  1  0
 28 12  1  0
 34 29  1  0
 25 20  2  0
  1 38  1  0
  1 39  1  0
  1 40  1  0
  3 41  1  0
  4 42  1  0
  7 43  1  0
 11 44  1  0
 13 45  1  0
 14 46  1  0
 19 47  1  0
 24 48  1  0
 24 49  1  0
 24 50  1  0
 26 51  1  0
 26 52  1  0
 26 53  1  0
 27 54  1  0
 28 55  1  0
 30 56  1  0
 31 57  1  0
 32 58  1  0
 33 59  1  0
 36 60  1  0
 37 61  1  0
M  END
$$$$
