
     RDKit          3D

100102  0  0  0  0  0  0  0  0999 V2000
    2.5493    0.6330    1.7411 C   0  0  0  0  0  0  0  0  0  0  0  0
    1.8079    0.5026    0.6190 C   0  0  0  0  0  0  0  0  0  0  0  0
    2.0168   -0.6062   -0.4171 C   0  0  1  0  0  0  0  0  0  0  0  0
    3.0207   -0.0702   -1.3123 O   0  0  0  0  0  0  0  0  0  0  0  0
    2.8018   -0.2314   -2.6480 C   0  0  0  0  0  0  0  0  0  0  0  0
    1.8640   -0.8410   -3.1396 O   0  0  0  0  0  0  0  0  0  0  0  0
    3.9364    0.4208   -3.4108 C   0  0  0  0  0  0  0  0  0  0  0  0
    3.7408    0.5748   -4.9270 C   0  0  0  0  0  0  0  0  0  0  0  0
    3.7091   -0.7698   -5.6543 C   0  0  0  0  0  0  0  0  0  0  0  0
    2.5203    1.4243   -5.2850 C   0  0  0  0  0  0  0  0  0  0  0  0
    2.4606   -1.9858    0.1517 C   0  0  0  0  0  0  0  0  0  0  0  0
    3.4661   -2.6217   -0.6712 O   0  0  0  0  0  0  0  0  0  0  0  0
    4.7543   -2.3405   -0.3476 C   0  0  0  0  0  0  0  0  0  0  0  0
    5.6839   -3.0258   -1.3018 C   0  0  0  0  0  0  0  0  0  0  0  0
    5.1151   -1.6472    0.5902 O   0  0  0  0  0  0  0  0  0  0  0  0
    1.2906   -2.9761    0.1730 C   0  0  0  0  0  0  0  0  0  0  0  0
    0.7851   -3.3757   -0.8830 O   0  0  0  0  0  0  0  0  0  0  0  0
    0.7667   -3.4875    1.5459 C   0  0  0  0  0  0  0  0  0  0  0  0
   -0.1707   -4.6923    1.2920 C   0  0  0  0  0  0  0  0  0  0  0  0
    1.9196   -4.0104    2.4228 C   0  0  0  0  0  0  0  0  0  0  0  0
    0.0704   -2.3242    2.2396 C   0  0  0  0  0  0  0  0  0  0  0  0
   -1.2519   -2.0842    2.2627 C   0  0  0  0  0  0  0  0  0  0  0  0
   -1.8817   -0.8478    2.8693 C   0  0  2  0  0  0  0  0  0  0  0  0
   -2.8924   -1.2908    3.9368 C   0  0  0  0  0  0  0  0  0  0  0  0
   -2.5618    0.0765    1.8091 C   0  0  2  0  0  0  0  0  0  0  0  0
   -3.6046   -0.6938    1.1445 O   0  0  0  0  0  0  0  0  0  0  0  0
   -4.8778   -0.2408    1.2568 C   0  0  0  0  0  0  0  0  0  0  0  0
   -5.2286    0.7565    1.8658 O   0  0  0  0  0  0  0  0  0  0  0  0
   -5.8110   -1.1170    0.4977 C   0  0  0  0  0  0  0  0  0  0  0  0
   -5.3853   -2.2851   -0.1493 C   0  0  0  0  0  0  0  0  0  0  0  0
   -6.3009   -3.0642   -0.8618 C   0  0  0  0  0  0  0  0  0  0  0  0
   -7.6402   -2.6831   -0.9305 C   0  0  0  0  0  0  0  0  0  0  0  0
   -8.0711   -1.5240   -0.2875 C   0  0  0  0  0  0  0  0  0  0  0  0
   -7.1596   -0.7420    0.4244 C   0  0  0  0  0  0  0  0  0  0  0  0
   -1.6148    0.6398    0.6908 C   0  0  1  0  0  0  0  0  0  0  0  0
   -1.1219   -0.4395   -0.0978 O   0  0  0  0  0  0  0  0  0  0  0  0
   -2.3502    1.6053   -0.2683 C   0  0  0  0  0  0  0  0  0  0  0  0
   -2.2198    3.0094    0.3406 C   0  0  2  0  0  0  0  0  0  0  0  0
   -1.8619    4.0564   -0.7073 C   0  0  0  0  0  0  0  0  0  0  0  0
   -1.2092    2.8607    1.4927 C   0  0  2  0  0  0  0  0  0  0  0  0
   -0.4121    4.0272    1.6899 O   0  0  0  0  0  0  0  0  0  0  0  0
    0.2453    4.0839    2.8827 C   0  0  0  0  0  0  0  0  0  0  0  0
    1.0457    5.3456    2.9783 C   0  0  0  0  0  0  0  0  0  0  0  0
    0.2181    3.2197    3.7482 O   0  0  0  0  0  0  0  0  0  0  0  0
   -0.4580    1.5342    1.2213 C   0  0  2  0  0  0  0  0  0  0  0  0
    0.7682    1.5747    0.2507 C   0  0  1  0  0  0  0  0  0  0  0  0
    1.4543    2.8430    0.3362 O   0  0  0  0  0  0  0  0  0  0  0  0
    2.0073    3.3159   -0.8132 C   0  0  0  0  0  0  0  0  0  0  0  0
    2.7391    4.5935   -0.5413 C   0  0  0  0  0  0  0  0  0  0  0  0
    1.9305    2.7997   -1.9183 O   0  0  0  0  0  0  0  0  0  0  0  0
    3.3694   -0.0316    1.9929 H   0  0  0  0  0  0  0  0  0  0  0  0
    2.3906    1.4630    2.4257 H   0  0  0  0  0  0  0  0  0  0  0  0
    1.0771   -0.7406   -0.9577 H   0  0  0  0  0  0  0  0  0  0  0  0
    4.8392   -0.1726   -3.2210 H   0  0  0  0  0  0  0  0  0  0  0  0
    4.0992    1.4176   -2.9827 H   0  0  0  0  0  0  0  0  0  0  0  0
    4.6247    1.1131   -5.2981 H   0  0  0  0  0  0  0  0  0  0  0  0
    3.7439   -0.6210   -6.7390 H   0  0  0  0  0  0  0  0  0  0  0  0
    2.8037   -1.3401   -5.4311 H   0  0  0  0  0  0  0  0  0  0  0  0
    4.5731   -1.3821   -5.3753 H   0  0  0  0  0  0  0  0  0  0  0  0
    1.5791    0.9353   -5.0123 H   0  0  0  0  0  0  0  0  0  0  0  0
    2.5590    2.3937   -4.7787 H   0  0  0  0  0  0  0  0  0  0  0  0
    2.4900    1.6157   -6.3641 H   0  0  0  0  0  0  0  0  0  0  0  0
    2.8389   -1.9063    1.1676 H   0  0  0  0  0  0  0  0  0  0  0  0
    5.6727   -4.1032   -1.1180 H   0  0  0  0  0  0  0  0  0  0  0  0
    5.3883   -2.8087   -2.3324 H   0  0  0  0  0  0  0  0  0  0  0  0
    6.6979   -2.6452   -1.1496 H   0  0  0  0  0  0  0  0  0  0  0  0
   -0.9869   -4.4464    0.6026 H   0  0  0  0  0  0  0  0  0  0  0  0
    0.3817   -5.5259    0.8389 H   0  0  0  0  0  0  0  0  0  0  0  0
   -0.6170   -5.0559    2.2256 H   0  0  0  0  0  0  0  0  0  0  0  0
    2.5582   -4.7035    1.8629 H   0  0  0  0  0  0  0  0  0  0  0  0
    2.5629   -3.2097    2.8023 H   0  0  0  0  0  0  0  0  0  0  0  0
    1.5381   -4.5425    3.3022 H   0  0  0  0  0  0  0  0  0  0  0  0
    0.7231   -1.5970    2.7216 H   0  0  0  0  0  0  0  0  0  0  0  0
   -1.9420   -2.7634    1.7692 H   0  0  0  0  0  0  0  0  0  0  0  0
   -1.1140   -0.2660    3.3922 H   0  0  0  0  0  0  0  0  0  0  0  0
   -2.3987   -1.8719    4.7248 H   0  0  0  0  0  0  0  0  0  0  0  0
   -3.6895   -1.9152    3.5174 H   0  0  0  0  0  0  0  0  0  0  0  0
   -3.3603   -0.4212    4.4121 H   0  0  0  0  0  0  0  0  0  0  0  0
   -3.0027    0.9171    2.3566 H   0  0  0  0  0  0  0  0  0  0  0  0
   -4.3471   -2.6048   -0.1101 H   0  0  0  0  0  0  0  0  0  0  0  0
   -5.9684   -3.9694   -1.3657 H   0  0  0  0  0  0  0  0  0  0  0  0
   -8.3504   -3.2905   -1.4871 H   0  0  0  0  0  0  0  0  0  0  0  0
   -9.1159   -1.2264   -0.3420 H   0  0  0  0  0  0  0  0  0  0  0  0
   -7.5067    0.1640    0.9174 H   0  0  0  0  0  0  0  0  0  0  0  0
   -1.8908   -0.9586   -0.4003 H   0  0  0  0  0  0  0  0  0  0  0  0
   -3.4006    1.3402   -0.4233 H   0  0  0  0  0  0  0  0  0  0  0  0
   -1.8914    1.5690   -1.2655 H   0  0  0  0  0  0  0  0  0  0  0  0
   -3.1888    3.3007    0.7701 H   0  0  0  0  0  0  0  0  0  0  0  0
   -2.6228    4.0852   -1.4958 H   0  0  0  0  0  0  0  0  0  0  0  0
   -1.8118    5.0567   -0.2634 H   0  0  0  0  0  0  0  0  0  0  0  0
   -0.8997    3.8444   -1.1821 H   0  0  0  0  0  0  0  0  0  0  0  0
   -1.8129    2.7345    2.4032 H   0  0  0  0  0  0  0  0  0  0  0  0
    1.9714    5.2365    2.4078 H   0  0  0  0  0  0  0  0  0  0  0  0
    1.2844    5.5412    4.0284 H   0  0  0  0  0  0  0  0  0  0  0  0
    0.4652    6.1911    2.6005 H   0  0  0  0  0  0  0  0  0  0  0  0
   -0.0979    1.1653    2.1865 H   0  0  0  0  0  0  0  0  0  0  0  0
    0.4211    1.4312   -0.7783 H   0  0  0  0  0  0  0  0  0  0  0  0
    3.1610    4.9748   -1.4764 H   0  0  0  0  0  0  0  0  0  0  0  0
    3.5553    4.4091    0.1661 H   0  0  0  0  0  0  0  0  0  0  0  0
    2.0449    5.3406   -0.1453 H   0  0  0  0  0  0  0  0  0  0  0  0
  1  2  2  0
  2  3  1  0
  3  4  1  0
  4  5  1  0
  5  6  2  0
  5  7  1  0
  7  8  1  0
  8  9  1  0
  8 10  1  0
  3 11  1  0
 11 12  1  0
 12 13  1  0
 13 14  1  0
 13 15  2  0
 11 16  1  0
 16 17  2  0
 16 18  1  0
 18 19  1  0
 18 20  1  0
 18 21  1  0
 21 22  2  0
 22 23  1  0
 23 24  1  0
 23 25  1  0
 25 26  1  0
 26 27  1  0
 27 28  2  0
 27 29  1  0
 29 30  2  0
 30 31  1  0
 31 32  2  0
 32 33  1  0
 33 34  2  0
 25 35  1  0
 35 36  1  6
 35 37  1  0
 37 38  1  0
 38 39  1  0
 38 40  1  0
 40 41  1  0
 41 42  1  0
 42 43  1  0
 42 44  2  0
 40 45  1  0
 45 46  1  0
 46 47  1  0
 47 48  1  0
 48 49  1  0
 48 50  2  0
 46  2  1  0
 34 29  1  0
 45 35  1  0
  1 51  1  0
  1 52  1  0
  3 53  1  6
  7 54  1  0
  7 55  1  0
  8 56  1  0
  9 57  1  0
  9 58  1  0
  9 59  1  0
 10 60  1  0
 10 61  1  0
 10 62  1  0
 11 63  1  0
 14 64  1  0
 14 65  1  0
 14 66  1  0
 19 67  1  0
 19 68  1  0
 19 69  1  0
 20 70  1  0
 20 71  1  0
 20 72  1  0
 21 73  1  0
 22 74  1  0
 23 75  1  1
 24 76  1  0
 24 77  1  0
 24 78  1  0
 25 79  1  1
 30 80  1  0
 31 81  1  0
 32 82  1  0
 33 83  1  0
 34 84  1  0
 36 85  1  0
 37 86  1  0
 37 87  1  0
 38 88  1  1
 39 89  1  0
 39 90  1  0
 39 91  1  0
 40 92  1  1
 43 93  1  0
 43 94  1  0
 43 95  1  0
 45 96  1  1
 46 97  1  6
 49 98  1  0
 49 99  1  0
 49100  1  0
M  END
$$$$
