
     RDKit          3D

 60 65  0  0  0  0  0  0  0  0999 V2000
    0.1442   -2.5873    2.3517 O   0  0  0  0  0  0  0  0  0  0  0  0
    0.8928   -2.1203    1.5015 C   0  0  0  0  0  0  0  0  0  0  0  0
    0.4081   -1.5910    0.3108 N   0  0  0  0  0  0  0  0  0  0  0  0
    1.2078   -1.0359   -0.6823 C   0  0  0  0  0  0  0  0  0  0  0  0
    0.4979   -0.4944   -1.9177 C   0  0  0  0  0  0  0  0  0  0  0  0
   -0.4829    0.6270   -1.5574 C   0  0  0  0  0  0  0  0  0  0  0  0
   -1.4785    0.8591   -2.6849 C   0  0  0  0  0  0  0  0  0  0  0  0
   -2.2705   -0.3606   -2.9572 N   0  0  0  0  0  0  0  0  0  0  0  0
   -3.9669   -0.2436   -2.9097 S   0  0  0  0  0  6  0  0  0  0  0  0
   -4.5135   -1.4846   -3.4158 O   0  0  0  0  0  0  0  0  0  0  0  0
   -4.3519    1.0345   -3.4671 O   0  0  0  0  0  0  0  0  0  0  0  0
   -4.2966   -0.1948   -1.1606 C   0  0  0  0  0  0  0  0  0  0  0  0
   -4.5818   -1.3832   -0.4753 C   0  0  0  0  0  0  0  0  0  0  0  0
   -4.8251   -1.3474    0.9000 C   0  0  0  0  0  0  0  0  0  0  0  0
   -4.8000   -0.1297    1.5767 C   0  0  0  0  0  0  0  0  0  0  0  0
   -4.5698    1.0605    0.8745 C   0  0  0  0  0  0  0  0  0  0  0  0
   -4.3108    1.0329   -0.4951 C   0  0  0  0  0  0  0  0  0  0  0  0
   -4.5771    2.2935    1.4724 O   0  0  0  0  0  0  0  0  0  0  0  0
   -5.2071    2.2407    2.7624 C   0  0  0  0  0  0  0  0  0  0  0  0
   -4.6836    1.0602    3.5662 C   0  0  0  0  0  0  0  0  0  0  0  0
   -5.0262   -0.1758    2.9301 O   0  0  0  0  0  0  0  0  0  0  0  0
   -1.6740   -1.6555   -2.5729 C   0  0  0  0  0  0  0  0  0  0  0  0
   -0.1577   -1.6197   -2.7314 C   0  0  0  0  0  0  0  0  0  0  0  0
    2.5101   -0.9699   -0.6180 N   0  0  0  0  0  0  0  0  0  0  0  0
    3.0093   -1.4803    0.5346 C   0  0  0  0  0  0  0  0  0  0  0  0
    2.3253   -2.0421    1.5854 C   0  0  0  0  0  0  0  0  0  0  0  0
    3.1858   -2.4423    2.5598 N   0  0  0  0  0  0  0  0  0  0  0  0
    4.4182   -2.1429    2.1466 N   0  0  0  0  0  0  0  0  0  0  0  0
    4.3149   -1.5509    0.9303 N   0  0  0  0  0  0  0  0  0  0  0  0
    5.4981   -1.1522    0.1950 C   0  0  0  0  0  0  0  0  0  0  0  0
    5.7573    0.3307    0.3148 C   0  0  0  0  0  0  0  0  0  0  0  0
    6.3350    0.8603    1.4822 C   0  0  0  0  0  0  0  0  0  0  0  0
    6.5776    2.2303    1.5894 C   0  0  0  0  0  0  0  0  0  0  0  0
    6.2428    3.0705    0.5334 C   0  0  0  0  0  0  0  0  0  0  0  0
    6.4800    4.3836    0.6355 F   0  0  0  0  0  0  0  0  0  0  0  0
    5.6619    2.5693   -0.6278 C   0  0  0  0  0  0  0  0  0  0  0  0
    5.4155    1.2005   -0.7377 C   0  0  0  0  0  0  0  0  0  0  0  0
   -0.5972   -1.6103    0.2374 H   0  0  0  0  0  0  0  0  0  0  0  0
    1.2813   -0.0589   -2.5551 H   0  0  0  0  0  0  0  0  0  0  0  0
   -1.0298    0.4034   -0.6337 H   0  0  0  0  0  0  0  0  0  0  0  0
    0.0779    1.5498   -1.3593 H   0  0  0  0  0  0  0  0  0  0  0  0
   -0.9530    1.1326   -3.6067 H   0  0  0  0  0  0  0  0  0  0  0  0
   -2.1163    1.7080   -2.4278 H   0  0  0  0  0  0  0  0  0  0  0  0
   -4.6153   -2.3353   -1.0002 H   0  0  0  0  0  0  0  0  0  0  0  0
   -5.0349   -2.2644    1.4469 H   0  0  0  0  0  0  0  0  0  0  0  0
   -4.1414    1.9641   -1.0303 H   0  0  0  0  0  0  0  0  0  0  0  0
   -4.9837    3.1790    3.2796 H   0  0  0  0  0  0  0  0  0  0  0  0
   -6.2953    2.1787    2.6163 H   0  0  0  0  0  0  0  0  0  0  0  0
   -5.1311    1.0528    4.5679 H   0  0  0  0  0  0  0  0  0  0  0  0
   -3.5906    1.1044    3.6788 H   0  0  0  0  0  0  0  0  0  0  0  0
   -1.9326   -1.9021   -1.5398 H   0  0  0  0  0  0  0  0  0  0  0  0
   -2.0712   -2.4440   -3.2212 H   0  0  0  0  0  0  0  0  0  0  0  0
    0.0714   -1.4577   -3.7931 H   0  0  0  0  0  0  0  0  0  0  0  0
    0.2664   -2.5970   -2.4723 H   0  0  0  0  0  0  0  0  0  0  0  0
    5.3580   -1.4491   -0.8520 H   0  0  0  0  0  0  0  0  0  0  0  0
    6.3540   -1.7225    0.5779 H   0  0  0  0  0  0  0  0  0  0  0  0
    6.5941    0.2091    2.3164 H   0  0  0  0  0  0  0  0  0  0  0  0
    7.0242    2.6462    2.4890 H   0  0  0  0  0  0  0  0  0  0  0  0
    5.4053    3.2471   -1.4372 H   0  0  0  0  0  0  0  0  0  0  0  0
    4.9513    0.8168   -1.6465 H   0  0  0  0  0  0  0  0  0  0  0  0
  1  2  2  0
  2  3  1  0
  3  4  1  0
  4  5  1  0
  5  6  1  0
  6  7  1  0
  7  8  1  0
  8  9  1  0
  9 10  2  0
  9 11  2  0
  9 12  1  0
 12 13  2  0
 13 14  1  0
 14 15  2  0
 15 16  1  0
 16 17  2  0
 16 18  1  0
 18 19  1  0
 19 20  1  0
 20 21  1  0
  8 22  1  0
 22 23  1  0
  4 24  2  0
 24 25  1  0
 25 26  2  0
 26 27  1  0
 27 28  2  0
 28 29  1  0
 29 30  1  0
 30 31  1  0
 31 32  2  0
 32 33  1  0
 33 34  2  0
 34 35  1  0
 34 36  1  0
 36 37  2  0
 26  2  1  0
 37 31  1  0
 23  5  1  0
 29 25  1  0
 17 12  1  0
 21 15  1  0
  3 38  1  0
  5 39  1  0
  6 40  1  0
  6 41  1  0
  7 42  1  0
  7 43  1  0
 13 44  1  0
 14 45  1  0
 17 46  1  0
 19 47  1  0
 19 48  1  0
 20 49  1  0
 20 50  1  0
 22 51  1  0
 22 52  1  0
 23 53  1  0
 23 54  1  0
 30 55  1  0
 30 56  1  0
 32 57  1  0
 33 58  1  0
 36 59  1  0
 37 60  1  0
M  END
$$$$
