
     RDKit          3D

 38 38  0  0  0  0  0  0  0  0999 V2000
    6.4381    2.7528    2.4882 C   0  0  0  0  0  0  0  0  0  0  0  0
    5.8046    2.7860    1.2165 O   0  0  0  0  0  0  0  0  0  0  0  0
    4.4595    2.3043    1.2469 C   0  0  0  0  0  0  0  0  0  0  0  0
    4.4051    0.7788    1.1134 C   0  0  0  0  0  0  0  0  0  0  0  0
    3.0654    0.2394    1.2805 N   0  0  0  0  0  0  0  0  0  0  0  0
    2.1266    0.3205    0.2741 C   0  0  0  0  0  0  0  0  0  0  0  0
    2.3768    0.8580   -0.8018 O   0  0  0  0  0  0  0  0  0  0  0  0
    0.7751   -0.2800    0.5656 C   0  0  0  0  0  0  0  0  0  0  0  0
    0.5474   -0.8497    1.8438 C   0  0  0  0  0  0  0  0  0  0  0  0
    0.4303   -1.2961    2.9092 N   0  0  0  0  0  0  0  0  0  0  0  0
   -0.1382   -0.2286   -0.4281 C   0  0  0  0  0  0  0  0  0  0  0  0
   -1.5293   -0.6990   -0.5090 C   0  0  0  0  0  0  0  0  0  0  0  0
   -2.1677   -1.3843    0.6742 C   0  0  0  0  0  0  0  0  0  0  0  0
   -2.1933   -0.4930   -1.6679 C   0  0  0  0  0  0  0  0  0  0  0  0
   -3.5781   -0.8879   -1.9399 C   0  0  0  0  0  0  0  0  0  0  0  0
   -3.8569   -2.1479   -2.4795 C   0  0  0  0  0  0  0  0  0  0  0  0
   -5.1768   -2.5244   -2.7345 C   0  0  0  0  0  0  0  0  0  0  0  0
   -6.2209   -1.6442   -2.4517 C   0  0  0  0  0  0  0  0  0  0  0  0
   -5.9475   -0.3869   -1.9139 C   0  0  0  0  0  0  0  0  0  0  0  0
   -4.6284   -0.0081   -1.6580 C   0  0  0  0  0  0  0  0  0  0  0  0
    5.9009    3.3873    3.1996 H   0  0  0  0  0  0  0  0  0  0  0  0
    7.4532    3.1430    2.3749 H   0  0  0  0  0  0  0  0  0  0  0  0
    6.5020    1.7303    2.8696 H   0  0  0  0  0  0  0  0  0  0  0  0
    3.9350    2.7641    0.4024 H   0  0  0  0  0  0  0  0  0  0  0  0
    3.9504    2.6439    2.1573 H   0  0  0  0  0  0  0  0  0  0  0  0
    4.7953    0.4785    0.1340 H   0  0  0  0  0  0  0  0  0  0  0  0
    5.0380    0.2981    1.8658 H   0  0  0  0  0  0  0  0  0  0  0  0
    2.8521   -0.1907    2.1729 H   0  0  0  0  0  0  0  0  0  0  0  0
    0.1940    0.2459   -1.3568 H   0  0  0  0  0  0  0  0  0  0  0  0
   -3.2025   -1.6897    0.4938 H   0  0  0  0  0  0  0  0  0  0  0  0
   -1.6210   -2.2972    0.9319 H   0  0  0  0  0  0  0  0  0  0  0  0
   -2.1942   -0.7139    1.5395 H   0  0  0  0  0  0  0  0  0  0  0  0
   -1.7191    0.0031   -2.5135 H   0  0  0  0  0  0  0  0  0  0  0  0
   -3.0501   -2.8420   -2.7018 H   0  0  0  0  0  0  0  0  0  0  0  0
   -5.3903   -3.5044   -3.1533 H   0  0  0  0  0  0  0  0  0  0  0  0
   -7.2483   -1.9383   -2.6506 H   0  0  0  0  0  0  0  0  0  0  0  0
   -6.7614    0.2988   -1.6933 H   0  0  0  0  0  0  0  0  0  0  0  0
   -4.4258    0.9737   -1.2369 H   0  0  0  0  0  0  0  0  0  0  0  0
  1  2  1  0
  2  3  1  0
  3  4  1  0
  4  5  1  0
  5  6  1  0
  6  7  2  0
  6  8  1  0
  8  9  1  0
  9 10  3  0
  8 11  2  3
 11 12  1  0
 12 13  1  0
 12 14  2  3
 14 15  1  0
 15 16  2  0
 16 17  1  0
 17 18  2  0
 18 19  1  0
 19 20  2  0
 20 15  1  0
  1 21  1  0
  1 22  1  0
  1 23  1  0
  3 24  1  0
  3 25  1  0
  4 26  1  0
  4 27  1  0
  5 28  1  0
 11 29  1  0
 13 30  1  0
 13 31  1  0
 13 32  1  0
 14 33  1  0
 16 34  1  0
 17 35  1  0
 18 36  1  0
 19 37  1  0
 20 38  1  0
M  END
$$$$
