
     RDKit          3D

 51 54  0  0  0  0  0  0  0  0999 V2000
   -6.6716    1.9784   -1.3562 C   0  0  0  0  0  0  0  0  0  0  0  0
   -6.5338    1.4233    0.0594 C   0  0  0  0  0  0  0  0  0  0  0  0
   -5.7115    0.1973    0.0708 N   0  0  0  0  0  0  0  0  0  0  0  0
   -6.4373   -1.0552   -0.1955 C   0  0  0  0  0  0  0  0  0  0  0  0
   -6.2599   -2.0414    0.9504 C   0  0  0  0  0  0  0  0  0  0  0  0
   -4.3254    0.2846   -0.0648 C   0  0  0  0  0  0  0  0  0  0  0  0
   -3.5547   -0.7358   -0.6573 C   0  0  0  0  0  0  0  0  0  0  0  0
   -2.1577   -0.6512   -0.7911 C   0  0  0  0  0  0  0  0  0  0  0  0
   -1.4796    0.4647   -0.3192 C   0  0  0  0  0  0  0  0  0  0  0  0
   -0.0414    0.6179   -0.4383 C   0  0  0  0  0  0  0  0  0  0  0  0
    0.5764    1.7133    0.0402 C   0  0  0  0  0  0  0  0  0  0  0  0
    1.9958    1.8033   -0.1150 C   0  0  0  0  0  0  0  0  0  0  0  0
    2.8395    0.7856   -0.0340 N   0  0  0  0  0  0  0  0  0  0  0  0
    4.1538    1.1872   -0.2451 C   0  0  0  0  0  0  0  0  0  0  0  0
    5.2540    0.2265   -0.1527 C   0  0  0  0  0  0  0  0  0  0  0  0
    4.9838   -1.0922    0.2486 C   0  0  0  0  0  0  0  0  0  0  0  0
    6.0053   -2.0460    0.3556 C   0  0  0  0  0  0  0  0  0  0  0  0
    7.3219   -1.6950    0.0669 C   0  0  0  0  0  0  0  0  0  0  0  0
    8.4098   -2.5207    0.1365 O   0  0  0  0  0  0  0  0  0  0  0  0
    8.1867   -3.8317    0.6469 C   0  0  0  0  0  0  0  0  0  0  0  0
    7.6010   -0.3895   -0.3417 C   0  0  0  0  0  0  0  0  0  0  0  0
    6.5803    0.5631   -0.4528 C   0  0  0  0  0  0  0  0  0  0  0  0
    4.2933    2.5297   -0.5344 C   0  0  0  0  0  0  0  0  0  0  0  0
    2.7630    3.2942   -0.5599 S   0  0  0  0  0  0  0  0  0  0  0  0
   -0.1928    2.7678    0.7570 C   0  0  0  0  0  0  0  0  0  0  0  0
    0.3321    3.7367    1.2976 O   0  0  0  0  0  0  0  0  0  0  0  0
   -1.5774    2.6083    0.8037 O   0  0  0  0  0  0  0  0  0  0  0  0
   -2.2162    1.4694    0.2819 C   0  0  0  0  0  0  0  0  0  0  0  0
   -3.6065    1.3929    0.4126 C   0  0  0  0  0  0  0  0  0  0  0  0
   -5.6996    2.2641   -1.7760 H   0  0  0  0  0  0  0  0  0  0  0  0
   -7.3130    2.8681   -1.3537 H   0  0  0  0  0  0  0  0  0  0  0  0
   -7.1177    1.2331   -2.0268 H   0  0  0  0  0  0  0  0  0  0  0  0
   -7.5348    1.1964    0.4496 H   0  0  0  0  0  0  0  0  0  0  0  0
   -6.1490    2.1925    0.7380 H   0  0  0  0  0  0  0  0  0  0  0  0
   -6.1440   -1.4963   -1.1538 H   0  0  0  0  0  0  0  0  0  0  0  0
   -7.5125   -0.8575   -0.2933 H   0  0  0  0  0  0  0  0  0  0  0  0
   -6.8828   -2.9257    0.7864 H   0  0  0  0  0  0  0  0  0  0  0  0
   -6.5467   -1.5922    1.9061 H   0  0  0  0  0  0  0  0  0  0  0  0
   -5.2230   -2.3762    1.0401 H   0  0  0  0  0  0  0  0  0  0  0  0
   -4.0239   -1.6322   -1.0513 H   0  0  0  0  0  0  0  0  0  0  0  0
   -1.6232   -1.4710   -1.2655 H   0  0  0  0  0  0  0  0  0  0  0  0
    0.5121   -0.1704   -0.9410 H   0  0  0  0  0  0  0  0  0  0  0  0
    3.9640   -1.3928    0.4862 H   0  0  0  0  0  0  0  0  0  0  0  0
    5.7324   -3.0513    0.6633 H   0  0  0  0  0  0  0  0  0  0  0  0
    7.7481   -3.7961    1.6492 H   0  0  0  0  0  0  0  0  0  0  0  0
    7.5632   -4.4153   -0.0398 H   0  0  0  0  0  0  0  0  0  0  0  0
    9.1572   -4.3306    0.7256 H   0  0  0  0  0  0  0  0  0  0  0  0
    8.6255   -0.1066   -0.5739 H   0  0  0  0  0  0  0  0  0  0  0  0
    6.8533    1.5618   -0.7800 H   0  0  0  0  0  0  0  0  0  0  0  0
    5.1860    3.1047   -0.7324 H   0  0  0  0  0  0  0  0  0  0  0  0
   -4.1026    2.2081    0.9279 H   0  0  0  0  0  0  0  0  0  0  0  0
  1  2  1  0
  2  3  1  0
  3  4  1  0
  4  5  1  0
  3  6  1  0
  6  7  2  0
  7  8  1  0
  8  9  2  0
  9 10  1  0
 10 11  2  0
 11 12  1  0
 12 13  2  0
 13 14  1  0
 14 15  1  0
 15 16  2  0
 16 17  1  0
 17 18  2  0
 18 19  1  0
 19 20  1  0
 18 21  1  0
 21 22  2  0
 14 23  2  0
 23 24  1  0
 11 25  1  0
 25 26  2  0
 25 27  1  0
 27 28  1  0
 28 29  2  0
 29  6  1  0
 28  9  1  0
 24 12  1  0
 22 15  1  0
  1 30  1  0
  1 31  1  0
  1 32  1  0
  2 33  1  0
  2 34  1  0
  4 35  1  0
  4 36  1  0
  5 37  1  0
  5 38  1  0
  5 39  1  0
  7 40  1  0
  8 41  1  0
 10 42  1  0
 16 43  1  0
 17 44  1  0
 20 45  1  0
 20 46  1  0
 20 47  1  0
 21 48  1  0
 22 49  1  0
 23 50  1  0
 29 51  1  0
M  END
$$$$
