
     RDKit          3D

 58 61  0  0  0  0  0  0  0  0999 V2000
   -1.3096    5.4357    0.0994 C   0  0  0  0  0  0  0  0  0  0  0  0
   -2.5911    5.2720    0.6943 O   0  0  0  0  0  0  0  0  0  0  0  0
   -3.0466    3.9899    0.8393 C   0  0  0  0  0  0  0  0  0  0  0  0
   -4.3010    3.8825    1.4278 C   0  0  0  0  0  0  0  0  0  0  0  0
   -4.8972    2.6366    1.6385 C   0  0  0  0  0  0  0  0  0  0  0  0
   -4.2046    1.4769    1.2448 C   0  0  0  0  0  0  0  0  0  0  0  0
   -4.7431   -0.1468    1.4010 S   0  0  0  0  0  0  0  0  0  0  0  0
   -3.3197   -0.7803    0.6962 C   0  0  0  0  0  0  0  0  0  0  0  0
   -3.1945   -2.2394    0.5635 C   0  0  0  0  0  0  0  0  0  0  0  0
   -3.9428   -2.8978   -0.4276 C   0  0  0  0  0  0  0  0  0  0  0  0
   -3.8333   -4.2764   -0.6024 C   0  0  0  0  0  0  0  0  0  0  0  0
   -2.9765   -5.0102    0.2120 C   0  0  0  0  0  0  0  0  0  0  0  0
   -2.2256   -4.3695    1.2015 C   0  0  0  0  0  0  0  0  0  0  0  0
   -2.3208   -2.9841    1.3819 C   0  0  0  0  0  0  0  0  0  0  0  0
   -1.6324   -2.2882    2.3446 O   0  0  0  0  0  0  0  0  0  0  0  0
   -0.5037   -2.9313    2.9207 C   0  0  0  0  0  0  0  0  0  0  0  0
   -2.4358    0.2257    0.3405 C   0  0  0  0  0  0  0  0  0  0  0  0
   -1.1456   -0.0686   -0.2723 C   0  0  0  0  0  0  0  0  0  0  0  0
   -1.0697   -0.4873   -1.6023 C   0  0  0  0  0  0  0  0  0  0  0  0
    0.1746   -0.7581   -2.1767 C   0  0  0  0  0  0  0  0  0  0  0  0
    1.3516   -0.6167   -1.4355 C   0  0  0  0  0  0  0  0  0  0  0  0
    2.4936   -0.9107   -2.1270 O   0  0  0  0  0  0  0  0  0  0  0  0
    3.7333   -0.9549   -1.4131 C   0  0  0  0  0  0  0  0  0  0  0  0
    4.4098    0.4270   -1.4089 C   0  0  0  0  0  0  0  0  0  0  0  0
    5.6246    0.4991   -0.5733 N   0  0  0  0  0  0  0  0  0  0  0  0
    6.7107   -0.3184   -1.1188 C   0  0  0  0  0  0  0  0  0  0  0  0
    6.0672    1.8920   -0.4588 C   0  0  0  0  0  0  0  0  0  0  0  0
    1.2745   -0.1887   -0.1100 C   0  0  0  0  0  0  0  0  0  0  0  0
    0.0303    0.0848    0.4692 C   0  0  0  0  0  0  0  0  0  0  0  0
   -2.9416    1.5443    0.6547 C   0  0  0  0  0  0  0  0  0  0  0  0
   -2.3674    2.8310    0.4523 C   0  0  0  0  0  0  0  0  0  0  0  0
   -1.0943    6.5079    0.0595 H   0  0  0  0  0  0  0  0  0  0  0  0
   -1.2996    5.0560   -0.9277 H   0  0  0  0  0  0  0  0  0  0  0  0
   -0.5296    4.9622    0.7050 H   0  0  0  0  0  0  0  0  0  0  0  0
   -4.8310    4.7832    1.7298 H   0  0  0  0  0  0  0  0  0  0  0  0
   -5.8787    2.5680    2.0985 H   0  0  0  0  0  0  0  0  0  0  0  0
   -4.6131   -2.3324   -1.0713 H   0  0  0  0  0  0  0  0  0  0  0  0
   -4.4173   -4.7753   -1.3713 H   0  0  0  0  0  0  0  0  0  0  0  0
   -2.8940   -6.0864    0.0816 H   0  0  0  0  0  0  0  0  0  0  0  0
   -1.5827   -4.9817    1.8249 H   0  0  0  0  0  0  0  0  0  0  0  0
    0.0306   -2.1904    3.5233 H   0  0  0  0  0  0  0  0  0  0  0  0
    0.1872   -3.2948    2.1524 H   0  0  0  0  0  0  0  0  0  0  0  0
   -0.8149   -3.7404    3.5889 H   0  0  0  0  0  0  0  0  0  0  0  0
   -1.9716   -0.6068   -2.1970 H   0  0  0  0  0  0  0  0  0  0  0  0
    0.2263   -1.0870   -3.2117 H   0  0  0  0  0  0  0  0  0  0  0  0
    4.3638   -1.6649   -1.9600 H   0  0  0  0  0  0  0  0  0  0  0  0
    3.6154   -1.3731   -0.4066 H   0  0  0  0  0  0  0  0  0  0  0  0
    3.6806    1.1587   -1.0392 H   0  0  0  0  0  0  0  0  0  0  0  0
    4.6225    0.7282   -2.4438 H   0  0  0  0  0  0  0  0  0  0  0  0
    6.4481   -1.3808   -1.1102 H   0  0  0  0  0  0  0  0  0  0  0  0
    7.6101   -0.2251   -0.4992 H   0  0  0  0  0  0  0  0  0  0  0  0
    6.9700   -0.0310   -2.1441 H   0  0  0  0  0  0  0  0  0  0  0  0
    5.2865    2.5079    0.0017 H   0  0  0  0  0  0  0  0  0  0  0  0
    6.9451    1.9653    0.1929 H   0  0  0  0  0  0  0  0  0  0  0  0
    6.3217    2.3265   -1.4324 H   0  0  0  0  0  0  0  0  0  0  0  0
    2.1582   -0.0499    0.5038 H   0  0  0  0  0  0  0  0  0  0  0  0
   -0.0178    0.4076    1.5071 H   0  0  0  0  0  0  0  0  0  0  0  0
   -1.3893    2.8787   -0.0136 H   0  0  0  0  0  0  0  0  0  0  0  0
  1  2  1  0
  2  3  1  0
  3  4  2  0
  4  5  1  0
  5  6  2  0
  6  7  1  0
  7  8  1  0
  8  9  1  0
  9 10  2  0
 10 11  1  0
 11 12  2  0
 12 13  1  0
 13 14  2  0
 14 15  1  0
 15 16  1  0
  8 17  2  0
 17 18  1  0
 18 19  2  0
 19 20  1  0
 20 21  2  0
 21 22  1  0
 22 23  1  0
 23 24  1  0
 24 25  1  0
 25 26  1  0
 25 27  1  0
 21 28  1  0
 28 29  2  0
 17 30  1  0
 30 31  2  0
 31  3  1  0
 30  6  1  0
 14  9  1  0
 29 18  1  0
  1 32  1  0
  1 33  1  0
  1 34  1  0
  4 35  1  0
  5 36  1  0
 10 37  1  0
 11 38  1  0
 12 39  1  0
 13 40  1  0
 16 41  1  0
 16 42  1  0
 16 43  1  0
 19 44  1  0
 20 45  1  0
 23 46  1  0
 23 47  1  0
 24 48  1  0
 24 49  1  0
 26 50  1  0
 26 51  1  0
 26 52  1  0
 27 53  1  0
 27 54  1  0
 27 55  1  0
 28 56  1  0
 29 57  1  0
 31 58  1  0
M  END
$$$$
