
     RDKit          3D

 46 49  0  0  0  0  0  0  0  0999 V2000
    2.0960    2.3788   -1.5805 O   0  0  0  0  0  0  0  0  0  0  0  0
    2.0622    1.3728   -2.2858 C   0  0  0  0  0  0  0  0  0  0  0  0
    1.0024    1.2064   -3.3748 C   0  0  0  0  0  0  0  0  0  0  0  0
   -0.6600    1.4056   -2.6772 S   0  0  0  0  0  0  0  0  0  0  0  0
   -0.6150    0.1435   -1.4980 C   0  0  0  0  0  0  0  0  0  0  0  0
   -0.1735   -1.0700   -1.7185 N   0  0  0  0  0  0  0  0  0  0  0  0
   -0.2381   -1.7531   -0.5324 N   0  0  0  0  0  0  0  0  0  0  0  0
   -0.6904   -0.9344    0.3992 C   0  0  0  0  0  0  0  0  0  0  0  0
   -0.8642   -1.2847    1.8392 C   0  0  0  0  0  0  0  0  0  0  0  0
   -2.2261   -1.8161    2.1945 C   0  0  0  0  0  0  0  0  0  0  0  0
   -3.3208   -2.0945    1.3953 C   0  0  0  0  0  0  0  0  0  0  0  0
   -4.4273   -2.5982    2.1401 C   0  0  0  0  0  0  0  0  0  0  0  0
   -4.1397   -2.7072    3.4815 C   0  0  0  0  0  0  0  0  0  0  0  0
   -2.5587   -2.1757    3.8449 S   0  0  0  0  0  0  0  0  0  0  0  0
   -0.9558    0.2911   -0.1809 N   0  0  0  0  0  0  0  0  0  0  0  0
   -1.3842    1.5064    0.4886 C   0  0  0  0  0  0  0  0  0  0  0  0
   -2.8652    1.5993    0.5538 C   0  0  0  0  0  0  0  0  0  0  0  0
   -3.7932    1.3810    1.5526 C   0  0  0  0  0  0  0  0  0  0  0  0
   -5.0626    1.6425    0.9837 C   0  0  0  0  0  0  0  0  0  0  0  0
   -4.8295    2.0204   -0.3161 C   0  0  0  0  0  0  0  0  0  0  0  0
   -3.4996    2.0089   -0.5819 O   0  0  0  0  0  0  0  0  0  0  0  0
    2.9358    0.3000   -2.2047 N   0  0  0  0  0  0  0  0  0  0  0  0
    4.0903    0.1698   -1.3954 C   0  0  0  0  0  0  0  0  0  0  0  0
    4.5530    1.1825   -0.5497 C   0  0  0  0  0  0  0  0  0  0  0  0
    5.7183    1.0022    0.2004 C   0  0  0  0  0  0  0  0  0  0  0  0
    6.4333   -0.1900    0.1040 C   0  0  0  0  0  0  0  0  0  0  0  0
    7.8821   -0.3842    1.0040 Cl  0  0  0  0  0  0  0  0  0  0  0  0
    5.9916   -1.2133   -0.7252 C   0  0  0  0  0  0  0  0  0  0  0  0
    4.8263   -1.0311   -1.4689 C   0  0  0  0  0  0  0  0  0  0  0  0
    4.3328   -2.3137   -2.5194 Cl  0  0  0  0  0  0  0  0  0  0  0  0
    1.0809    0.2389   -3.8782 H   0  0  0  0  0  0  0  0  0  0  0  0
    1.1720    1.9851   -4.1260 H   0  0  0  0  0  0  0  0  0  0  0  0
   -0.1161   -2.0476    2.0962 H   0  0  0  0  0  0  0  0  0  0  0  0
   -0.6328   -0.4155    2.4684 H   0  0  0  0  0  0  0  0  0  0  0  0
   -3.3378   -1.9451    0.3184 H   0  0  0  0  0  0  0  0  0  0  0  0
   -5.3790   -2.8797    1.7067 H   0  0  0  0  0  0  0  0  0  0  0  0
   -4.7829   -3.0792    4.2695 H   0  0  0  0  0  0  0  0  0  0  0  0
   -0.9611    2.3705   -0.0328 H   0  0  0  0  0  0  0  0  0  0  0  0
   -0.9517    1.5168    1.4943 H   0  0  0  0  0  0  0  0  0  0  0  0
   -3.5843    1.0581    2.5623 H   0  0  0  0  0  0  0  0  0  0  0  0
   -6.0286    1.5659    1.4611 H   0  0  0  0  0  0  0  0  0  0  0  0
   -5.4677    2.3182   -1.1388 H   0  0  0  0  0  0  0  0  0  0  0  0
    2.7091   -0.5296   -2.7524 H   0  0  0  0  0  0  0  0  0  0  0  0
    4.0381    2.1333   -0.4544 H   0  0  0  0  0  0  0  0  0  0  0  0
    6.0643    1.8031    0.8469 H   0  0  0  0  0  0  0  0  0  0  0  0
    6.5574   -2.1381   -0.8040 H   0  0  0  0  0  0  0  0  0  0  0  0
  1  2  2  0
  2  3  1  0
  3  4  1  0
  4  5  1  0
  5  6  2  0
  6  7  1  0
  7  8  2  0
  8  9  1  0
  9 10  1  0
 10 11  2  0
 11 12  1  0
 12 13  2  0
 13 14  1  0
  8 15  1  0
 15 16  1  0
 16 17  1  0
 17 18  2  0
 18 19  1  0
 19 20  2  0
 20 21  1  0
  2 22  1  0
 22 23  1  0
 23 24  2  0
 24 25  1  0
 25 26  2  0
 26 27  1  0
 26 28  1  0
 28 29  2  0
 29 30  1  0
 15  5  1  0
 21 17  1  0
 29 23  1  0
 14 10  1  0
  3 31  1  0
  3 32  1  0
  9 33  1  0
  9 34  1  0
 11 35  1  0
 12 36  1  0
 13 37  1  0
 16 38  1  0
 16 39  1  0
 18 40  1  0
 19 41  1  0
 20 42  1  0
 22 43  1  0
 24 44  1  0
 25 45  1  0
 28 46  1  0
M  END
$$$$
