
     RDKit          3D

 23 23  0  0  0  0  0  0  0  0999 V2000
   -2.2970    0.8414   -1.4732 C   0  0  0  0  0  0  0  0  0  0  0  0
   -1.5609    0.6055   -0.1805 C   0  0  0  0  0  0  0  0  0  0  0  0
   -0.6157    1.6523    0.1622 C   0  0  0  0  0  0  0  0  0  0  0  0
    0.7256    1.6099    0.1955 C   0  0  0  0  0  0  0  0  0  0  0  0
    1.5626    0.5113   -0.1469 C   0  0  0  0  0  0  0  0  0  0  0  0
    1.3500   -0.6391   -0.9028 C   0  0  0  0  0  0  0  0  0  0  0  0
    2.5521   -1.3875   -0.9233 C   0  0  0  0  0  0  0  0  0  0  0  0
    3.4573   -0.6548   -0.2021 C   0  0  0  0  0  0  0  0  0  0  0  0
    2.8840    0.4817    0.2565 O   0  0  0  0  0  0  0  0  0  0  0  0
   -1.8002   -0.4904    0.5636 C   0  0  0  0  0  0  0  0  0  0  0  0
   -1.1941   -0.7950    1.8709 C   0  0  0  0  0  0  0  0  0  0  0  0
   -0.6350   -0.0478    2.6474 O   0  0  0  0  0  0  0  0  0  0  0  0
   -1.3655   -2.0998    2.1444 O   0  0  0  0  0  0  0  0  0  0  0  0
   -2.9514    0.0027   -1.7319 H   0  0  0  0  0  0  0  0  0  0  0  0
   -1.5946    0.9750   -2.3035 H   0  0  0  0  0  0  0  0  0  0  0  0
   -2.9226    1.7367   -1.3997 H   0  0  0  0  0  0  0  0  0  0  0  0
   -1.0870    2.6009    0.4245 H   0  0  0  0  0  0  0  0  0  0  0  0
    1.2511    2.5044    0.5222 H   0  0  0  0  0  0  0  0  0  0  0  0
    0.4292   -0.9089   -1.3980 H   0  0  0  0  0  0  0  0  0  0  0  0
    2.7334   -2.3345   -1.4098 H   0  0  0  0  0  0  0  0  0  0  0  0
    4.4951   -0.7941    0.0645 H   0  0  0  0  0  0  0  0  0  0  0  0
   -2.5082   -1.2376    0.2163 H   0  0  0  0  0  0  0  0  0  0  0  0
   -0.9081   -2.2054    3.0036 H   0  0  0  0  0  0  0  0  0  0  0  0
  1  2  1  0
  2  3  1  0
  3  4  2  3
  4  5  1  0
  5  6  2  0
  6  7  1  0
  7  8  2  0
  8  9  1  0
  2 10  2  3
 10 11  1  0
 11 12  2  0
 11 13  1  0
  9  5  1  0
  1 14  1  0
  1 15  1  0
  1 16  1  0
  3 17  1  0
  4 18  1  0
  6 19  1  0
  7 20  1  0
  8 21  1  0
 10 22  1  0
 13 23  1  0
M  END
$$$$
