
     RDKit          3D

 44 46  0  0  0  0  0  0  0  0999 V2000
    4.7369    1.7848    2.6899 C   0  0  0  0  0  0  0  0  0  0  0  0
    4.2549    0.7560    1.7124 C   0  0  0  0  0  0  0  0  0  0  0  0
    3.6265   -0.4147    2.1623 C   0  0  0  0  0  0  0  0  0  0  0  0
    3.1932   -1.3848    1.2531 C   0  0  0  0  0  0  0  0  0  0  0  0
    3.3902   -1.1947   -0.1210 C   0  0  0  0  0  0  0  0  0  0  0  0
    2.9453   -2.1865   -1.1425 C   0  0  0  0  0  0  0  0  0  0  0  0
    3.4107   -2.1543   -2.2784 O   0  0  0  0  0  0  0  0  0  0  0  0
    1.9605   -3.0800   -0.7656 N   0  0  0  0  0  0  0  0  0  0  0  0
    1.3156   -3.8967   -1.7877 C   0  0  0  0  0  0  0  0  0  0  0  0
    0.1372   -3.1980   -2.4674 C   0  0  0  0  0  0  0  0  0  0  0  0
   -0.4532   -3.6422   -3.4439 O   0  0  0  0  0  0  0  0  0  0  0  0
   -0.2117   -2.0610   -1.8078 O   0  0  0  0  0  0  0  0  0  0  0  0
   -1.2798   -1.3241   -2.4160 C   0  0  0  0  0  0  0  0  0  0  0  0
   -1.5231   -0.0623   -1.6499 C   0  0  0  0  0  0  0  0  0  0  0  0
   -0.6196    0.9675   -1.4780 C   0  0  0  0  0  0  0  0  0  0  0  0
   -1.3130    2.2053   -0.5255 S   0  0  0  0  0  0  0  0  0  0  0  0
   -2.7747    1.2968   -0.3907 C   0  0  0  0  0  0  0  0  0  0  0  0
   -3.9441    1.7917    0.3677 C   0  0  0  0  0  0  0  0  0  0  0  0
   -5.1354    1.0443    0.3425 C   0  0  0  0  0  0  0  0  0  0  0  0
   -6.2700    1.4580    1.0465 C   0  0  0  0  0  0  0  0  0  0  0  0
   -6.2356    2.6292    1.7920 C   0  0  0  0  0  0  0  0  0  0  0  0
   -5.0680    3.3879    1.8309 C   0  0  0  0  0  0  0  0  0  0  0  0
   -3.9330    2.9729    1.1263 C   0  0  0  0  0  0  0  0  0  0  0  0
   -2.7466    0.1366   -1.0252 N   0  0  0  0  0  0  0  0  0  0  0  0
    4.0479   -0.0428   -0.5696 C   0  0  0  0  0  0  0  0  0  0  0  0
    4.4801    0.9258    0.3410 C   0  0  0  0  0  0  0  0  0  0  0  0
    5.7686    1.5731    2.9834 H   0  0  0  0  0  0  0  0  0  0  0  0
    4.6920    2.7886    2.2510 H   0  0  0  0  0  0  0  0  0  0  0  0
    4.1069    1.7946    3.5875 H   0  0  0  0  0  0  0  0  0  0  0  0
    3.4731   -0.5796    3.2284 H   0  0  0  0  0  0  0  0  0  0  0  0
    2.7302   -2.2858    1.6426 H   0  0  0  0  0  0  0  0  0  0  0  0
    1.3923   -2.8349    0.0328 H   0  0  0  0  0  0  0  0  0  0  0  0
    2.0464   -4.1731   -2.5510 H   0  0  0  0  0  0  0  0  0  0  0  0
    0.9385   -4.7937   -1.2915 H   0  0  0  0  0  0  0  0  0  0  0  0
   -1.0062   -1.0631   -3.4464 H   0  0  0  0  0  0  0  0  0  0  0  0
   -2.1911   -1.9363   -2.4299 H   0  0  0  0  0  0  0  0  0  0  0  0
    0.3907    1.0413   -1.8579 H   0  0  0  0  0  0  0  0  0  0  0  0
   -5.1852    0.1232   -0.2345 H   0  0  0  0  0  0  0  0  0  0  0  0
   -7.1766    0.8618    1.0088 H   0  0  0  0  0  0  0  0  0  0  0  0
   -7.1138    2.9525    2.3421 H   0  0  0  0  0  0  0  0  0  0  0  0
   -5.0362    4.3049    2.4131 H   0  0  0  0  0  0  0  0  0  0  0  0
   -3.0448    3.5942    1.1922 H   0  0  0  0  0  0  0  0  0  0  0  0
    4.2300    0.1066   -1.6344 H   0  0  0  0  0  0  0  0  0  0  0  0
    4.9940    1.8110   -0.0316 H   0  0  0  0  0  0  0  0  0  0  0  0
  1  2  1  0
  2  3  2  0
  3  4  1  0
  4  5  2  0
  5  6  1  0
  6  7  2  0
  6  8  1  0
  8  9  1  0
  9 10  1  0
 10 11  2  0
 10 12  1  0
 12 13  1  0
 13 14  1  0
 14 15  2  0
 15 16  1  0
 16 17  1  0
 17 18  1  0
 18 19  2  0
 19 20  1  0
 20 21  2  0
 21 22  1  0
 22 23  2  0
 17 24  2  0
  5 25  1  0
 25 26  2  0
 26  2  1  0
 24 14  1  0
 23 18  1  0
  1 27  1  0
  1 28  1  0
  1 29  1  0
  3 30  1  0
  4 31  1  0
  8 32  1  0
  9 33  1  0
  9 34  1  0
 13 35  1  0
 13 36  1  0
 15 37  1  0
 19 38  1  0
 20 39  1  0
 21 40  1  0
 22 41  1  0
 23 42  1  0
 25 43  1  0
 26 44  1  0
M  END
$$$$
