
     RDKit          3D

 73 75  0  0  0  0  0  0  0  0999 V2000
   -3.1705    0.4036   -0.4252 C   0  0  0  0  0  0  0  0  0  0  0  0
   -2.9861   -1.0774   -0.7207 C   0  0  0  0  0  0  0  0  0  0  0  0
   -1.6830   -1.4214   -1.4615 C   0  0  0  0  0  0  0  0  0  0  0  0
   -0.2079   -1.2777   -0.3731 S   0  0  0  0  0  0  0  0  0  0  0  0
    0.1890    0.4096   -0.6067 C   0  0  0  0  0  0  0  0  0  0  0  0
    0.3409    0.8062   -1.8269 N   0  0  0  0  0  0  0  0  0  0  0  0
    0.6913    2.1412   -2.0547 C   0  0  0  0  0  0  0  0  0  0  0  0
    0.8619    2.5782   -3.3700 C   0  0  0  0  0  0  0  0  0  0  0  0
    1.2382    3.8998   -3.6442 C   0  0  0  0  0  0  0  0  0  0  0  0
    1.4343    4.4051   -4.9067 O   0  0  0  0  0  0  0  0  0  0  0  0
    1.2580    3.5252   -6.0069 C   0  0  0  0  0  0  0  0  0  0  0  0
    1.4364    4.8046   -2.5797 C   0  0  0  0  0  0  0  0  0  0  0  0
    1.8090    6.0775   -2.9296 O   0  0  0  0  0  0  0  0  0  0  0  0
    1.9505    7.0374   -1.8907 C   0  0  0  0  0  0  0  0  0  0  0  0
    1.2604    4.3686   -1.2647 C   0  0  0  0  0  0  0  0  0  0  0  0
    0.8936    3.0408   -1.0161 C   0  0  0  0  0  0  0  0  0  0  0  0
    0.7159    2.5501    0.3595 C   0  0  0  0  0  0  0  0  0  0  0  0
    0.9009    3.3248    1.2932 O   0  0  0  0  0  0  0  0  0  0  0  0
    0.3455    1.2164    0.5093 N   0  0  0  0  0  0  0  0  0  0  0  0
    0.1876    0.7425    1.8925 C   0  0  0  0  0  0  0  0  0  0  0  0
    1.5239    0.2801    2.4846 C   0  0  0  0  0  0  0  0  0  0  0  0
    1.3308   -0.4541    3.7857 C   0  0  0  0  0  0  0  0  0  0  0  0
    1.2582   -1.8530    3.8024 C   0  0  0  0  0  0  0  0  0  0  0  0
    1.0336   -2.5448    4.9985 C   0  0  0  0  0  0  0  0  0  0  0  0
    0.8689   -1.8485    6.1977 C   0  0  0  0  0  0  0  0  0  0  0  0
    0.6297   -2.4262    7.4172 O   0  0  0  0  0  0  0  0  0  0  0  0
    0.3566   -3.8219    7.4310 C   0  0  0  0  0  0  0  0  0  0  0  0
    0.9617   -0.4495    6.1783 C   0  0  0  0  0  0  0  0  0  0  0  0
    0.7476    0.2683    7.3287 O   0  0  0  0  0  0  0  0  0  0  0  0
    1.9922    0.6094    7.9428 C   0  0  0  0  0  0  0  0  0  0  0  0
    1.1736    0.2476    4.9854 C   0  0  0  0  0  0  0  0  0  0  0  0
   -1.7293   -2.8729   -1.9637 C   0  0  0  0  0  0  0  0  0  0  0  0
   -2.5115   -3.7113   -1.5175 O   0  0  0  0  0  0  0  0  0  0  0  0
   -0.7975   -3.1511   -2.9471 N   0  0  0  0  0  0  0  0  0  0  0  0
   -0.7703   -4.4254   -3.6436 C   0  0  0  0  0  0  0  0  0  0  0  0
   -1.4020   -4.3450   -5.0395 C   0  0  0  0  0  0  0  0  0  0  0  0
   -2.7902   -4.0324   -4.9348 O   0  0  0  0  0  0  0  0  0  0  0  0
   -3.4410   -4.0610   -6.1980 C   0  0  0  0  0  0  0  0  0  0  0  0
   -3.0243    1.0097   -1.3241 H   0  0  0  0  0  0  0  0  0  0  0  0
   -2.4820    0.7506    0.3479 H   0  0  0  0  0  0  0  0  0  0  0  0
   -4.1871    0.5853   -0.0598 H   0  0  0  0  0  0  0  0  0  0  0  0
   -3.0672   -1.6488    0.2117 H   0  0  0  0  0  0  0  0  0  0  0  0
   -3.8336   -1.3953   -1.3438 H   0  0  0  0  0  0  0  0  0  0  0  0
   -1.5868   -0.7784   -2.3456 H   0  0  0  0  0  0  0  0  0  0  0  0
    0.7005    1.8570   -4.1667 H   0  0  0  0  0  0  0  0  0  0  0  0
    1.9509    2.6776   -5.9536 H   0  0  0  0  0  0  0  0  0  0  0  0
    1.4905    4.0849   -6.9196 H   0  0  0  0  0  0  0  0  0  0  0  0
    0.2191    3.1825   -6.0807 H   0  0  0  0  0  0  0  0  0  0  0  0
    2.7234    6.7387   -1.1772 H   0  0  0  0  0  0  0  0  0  0  0  0
    2.2720    7.9770   -2.3490 H   0  0  0  0  0  0  0  0  0  0  0  0
    0.9928    7.2159   -1.3923 H   0  0  0  0  0  0  0  0  0  0  0  0
    1.4055    5.0341   -0.4182 H   0  0  0  0  0  0  0  0  0  0  0  0
   -0.2196    1.5562    2.5066 H   0  0  0  0  0  0  0  0  0  0  0  0
   -0.5620   -0.0541    1.9388 H   0  0  0  0  0  0  0  0  0  0  0  0
    2.1872    1.1395    2.6439 H   0  0  0  0  0  0  0  0  0  0  0  0
    2.0569   -0.3671    1.7782 H   0  0  0  0  0  0  0  0  0  0  0  0
    1.3645   -2.4215    2.8806 H   0  0  0  0  0  0  0  0  0  0  0  0
    0.9868   -3.6279    4.9551 H   0  0  0  0  0  0  0  0  0  0  0  0
    0.0789   -4.1002    8.4530 H   0  0  0  0  0  0  0  0  0  0  0  0
   -0.4869   -4.0703    6.7758 H   0  0  0  0  0  0  0  0  0  0  0  0
    1.2508   -4.3941    7.1594 H   0  0  0  0  0  0  0  0  0  0  0  0
    2.6621   -0.2541    8.0266 H   0  0  0  0  0  0  0  0  0  0  0  0
    2.4769    1.4178    7.3844 H   0  0  0  0  0  0  0  0  0  0  0  0
    1.7735    0.9763    8.9518 H   0  0  0  0  0  0  0  0  0  0  0  0
    1.1980    1.3354    5.0000 H   0  0  0  0  0  0  0  0  0  0  0  0
   -0.1788   -2.4112   -3.2528 H   0  0  0  0  0  0  0  0  0  0  0  0
    0.2830   -4.7123   -3.7337 H   0  0  0  0  0  0  0  0  0  0  0  0
   -1.2865   -5.1833   -3.0409 H   0  0  0  0  0  0  0  0  0  0  0  0
   -0.9053   -3.5730   -5.6383 H   0  0  0  0  0  0  0  0  0  0  0  0
   -1.2819   -5.3115   -5.5429 H   0  0  0  0  0  0  0  0  0  0  0  0
   -3.3851   -5.0643   -6.6351 H   0  0  0  0  0  0  0  0  0  0  0  0
   -4.4934   -3.8071   -6.0464 H   0  0  0  0  0  0  0  0  0  0  0  0
   -2.9937   -3.3269   -6.8782 H   0  0  0  0  0  0  0  0  0  0  0  0
  1  2  1  0
  2  3  1  0
  3  4  1  0
  4  5  1  0
  5  6  2  0
  6  7  1  0
  7  8  2  0
  8  9  1  0
  9 10  1  0
 10 11  1  0
  9 12  2  0
 12 13  1  0
 13 14  1  0
 12 15  1  0
 15 16  2  0
 16 17  1  0
 17 18  2  0
 17 19  1  0
 19 20  1  0
 20 21  1  0
 21 22  1  0
 22 23  2  0
 23 24  1  0
 24 25  2  0
 25 26  1  0
 26 27  1  0
 25 28  1  0
 28 29  1  0
 29 30  1  0
 28 31  2  0
  3 32  1  0
 32 33  2  0
 32 34  1  0
 34 35  1  0
 35 36  1  0
 36 37  1  0
 37 38  1  0
 19  5  1  0
 31 22  1  0
 16  7  1  0
  1 39  1  0
  1 40  1  0
  1 41  1  0
  2 42  1  0
  2 43  1  0
  3 44  1  0
  8 45  1  0
 11 46  1  0
 11 47  1  0
 11 48  1  0
 14 49  1  0
 14 50  1  0
 14 51  1  0
 15 52  1  0
 20 53  1  0
 20 54  1  0
 21 55  1  0
 21 56  1  0
 23 57  1  0
 24 58  1  0
 27 59  1  0
 27 60  1  0
 27 61  1  0
 30 62  1  0
 30 63  1  0
 30 64  1  0
 31 65  1  0
 34 66  1  0
 35 67  1  0
 35 68  1  0
 36 69  1  0
 36 70  1  0
 38 71  1  0
 38 72  1  0
 38 73  1  0
M  END
$$$$
