
     RDKit          3D

 37 38  0  0  0  0  0  0  0  0999 V2000
    1.3880   -1.6572    0.3162 O   0  0  0  0  0  0  0  0  0  0  0  0
    0.7898   -0.7778   -0.2906 C   0  0  0  0  0  0  0  0  0  0  0  0
   -0.7232   -0.7841   -0.4524 C   0  0  0  0  0  0  0  0  0  0  0  0
   -1.3846   -1.9326    0.3110 C   0  0  0  0  0  0  0  0  0  0  0  0
   -2.8953   -2.0178    0.0717 C   0  0  0  0  0  0  0  0  0  0  0  0
   -3.6590   -0.8054    0.5455 C   0  0  0  0  0  0  0  0  0  0  0  0
   -3.7380   -0.5012    1.9114 C   0  0  0  0  0  0  0  0  0  0  0  0
   -4.4384    0.6246    2.3473 C   0  0  0  0  0  0  0  0  0  0  0  0
   -5.0697    1.4550    1.4236 C   0  0  0  0  0  0  0  0  0  0  0  0
   -5.0031    1.1592    0.0636 C   0  0  0  0  0  0  0  0  0  0  0  0
   -4.3024    0.0340   -0.3743 C   0  0  0  0  0  0  0  0  0  0  0  0
    1.3599    0.3201   -0.9166 N   0  0  0  0  0  0  0  0  0  0  0  0
    2.7279    0.6558   -0.9911 C   0  0  0  0  0  0  0  0  0  0  0  0
    3.0514    1.8440   -1.6642 C   0  0  0  0  0  0  0  0  0  0  0  0
    4.3785    2.2630   -1.7903 C   0  0  0  0  0  0  0  0  0  0  0  0
    5.4038    1.4960   -1.2440 C   0  0  0  0  0  0  0  0  0  0  0  0
    5.0881    0.3077   -0.5726 C   0  0  0  0  0  0  0  0  0  0  0  0
    6.1706   -0.5024    0.0017 N   0  0  0  0  0  4  0  0  0  0  0  0
    5.8774   -1.5963    0.5022 O   0  0  0  0  0  0  0  0  0  0  0  0
    7.3210   -0.0424   -0.0514 O   0  0  0  0  0  1  0  0  0  0  0  0
    3.7557   -0.1160   -0.4437 C   0  0  0  0  0  0  0  0  0  0  0  0
   -1.1050    0.1785   -0.0935 H   0  0  0  0  0  0  0  0  0  0  0  0
   -0.9487   -0.8690   -1.5221 H   0  0  0  0  0  0  0  0  0  0  0  0
   -0.9346   -2.8835   -0.0018 H   0  0  0  0  0  0  0  0  0  0  0  0
   -1.1716   -1.8309    1.3825 H   0  0  0  0  0  0  0  0  0  0  0  0
   -3.2942   -2.8988    0.5907 H   0  0  0  0  0  0  0  0  0  0  0  0
   -3.0838   -2.1885   -0.9958 H   0  0  0  0  0  0  0  0  0  0  0  0
   -3.2555   -1.1425    2.6461 H   0  0  0  0  0  0  0  0  0  0  0  0
   -4.4939    0.8509    3.4090 H   0  0  0  0  0  0  0  0  0  0  0  0
   -5.6179    2.3293    1.7646 H   0  0  0  0  0  0  0  0  0  0  0  0
   -5.5016    1.8029   -0.6564 H   0  0  0  0  0  0  0  0  0  0  0  0
   -4.2653   -0.1838   -1.4391 H   0  0  0  0  0  0  0  0  0  0  0  0
    0.7170    0.9666   -1.3580 H   0  0  0  0  0  0  0  0  0  0  0  0
    2.2717    2.4648   -2.1006 H   0  0  0  0  0  0  0  0  0  0  0  0
    4.6101    3.1877   -2.3143 H   0  0  0  0  0  0  0  0  0  0  0  0
    6.4335    1.8319   -1.3486 H   0  0  0  0  0  0  0  0  0  0  0  0
    3.5413   -1.0417    0.0820 H   0  0  0  0  0  0  0  0  0  0  0  0
  1  2  2  0
  2  3  1  0
  3  4  1  0
  4  5  1  0
  5  6  1  0
  6  7  2  0
  7  8  1  0
  8  9  2  0
  9 10  1  0
 10 11  2  0
  2 12  1  0
 12 13  1  0
 13 14  2  0
 14 15  1  0
 15 16  2  0
 16 17  1  0
 17 18  1  0
 18 19  2  0
 18 20  1  0
 17 21  2  0
 11  6  1  0
 21 13  1  0
  3 22  1  0
  3 23  1  0
  4 24  1  0
  4 25  1  0
  5 26  1  0
  5 27  1  0
  7 28  1  0
  8 29  1  0
  9 30  1  0
 10 31  1  0
 11 32  1  0
 12 33  1  0
 14 34  1  0
 15 35  1  0
 16 36  1  0
 21 37  1  0
M  CHG  2  18   1  20  -1
M  END
$$$$
