
     RDKit          3D

 46 48  0  0  0  0  0  0  0  0999 V2000
   -7.7569    0.7286    0.1578 C   0  0  0  0  0  0  0  0  0  0  0  0
   -6.6564    1.5055    0.6124 O   0  0  0  0  0  0  0  0  0  0  0  0
   -5.4452    0.8760    0.7113 C   0  0  0  0  0  0  0  0  0  0  0  0
   -4.4044    1.6956    1.1494 C   0  0  0  0  0  0  0  0  0  0  0  0
   -3.1152    1.1859    1.2972 C   0  0  0  0  0  0  0  0  0  0  0  0
   -2.8519   -0.1567    1.0020 C   0  0  0  0  0  0  0  0  0  0  0  0
   -1.4865   -0.6754    1.1689 C   0  0  0  0  0  0  0  0  0  0  0  0
   -0.4510   -0.4176    0.3595 C   0  0  0  0  0  0  0  0  0  0  0  0
   -0.4400    0.5734   -1.0621 S   0  0  0  0  0  0  0  0  0  0  0  0
    1.2419    0.2305   -1.3398 C   0  0  0  0  0  0  0  0  0  0  0  0
    1.8996    0.7338   -2.3898 C   0  0  0  0  0  0  0  0  0  0  0  0
    3.3220    0.5016   -2.7335 C   0  0  0  0  0  0  0  0  0  0  0  0
    3.6270    0.2607   -3.8973 O   0  0  0  0  0  0  0  0  0  0  0  0
    4.3705    0.5850   -1.6875 C   0  0  0  0  0  0  0  0  0  0  0  0
    5.5028   -0.2256   -1.8194 C   0  0  0  0  0  0  0  0  0  0  0  0
    6.5084   -0.1878   -0.8514 C   0  0  0  0  0  0  0  0  0  0  0  0
    6.3937    0.6604    0.2565 C   0  0  0  0  0  0  0  0  0  0  0  0
    7.4899    0.7244    1.2797 C   0  0  0  0  0  0  0  0  0  0  0  0
    5.2756    1.4968    0.3646 C   0  0  0  0  0  0  0  0  0  0  0  0
    4.2677    1.4629   -0.6026 C   0  0  0  0  0  0  0  0  0  0  0  0
    1.7445   -0.6004   -0.3830 N   0  0  0  0  0  0  0  0  0  0  0  0
    0.8877   -1.0175    0.6048 C   0  0  0  0  0  0  0  0  0  0  0  0
    1.1919   -1.7535    1.5286 O   0  0  0  0  0  0  0  0  0  0  0  0
   -3.8970   -0.9931    0.5641 C   0  0  0  0  0  0  0  0  0  0  0  0
   -3.5524   -2.2977    0.3080 O   0  0  0  0  0  0  0  0  0  0  0  0
   -4.5598   -3.1599   -0.2024 C   0  0  0  0  0  0  0  0  0  0  0  0
   -5.1898   -0.4679    0.4212 C   0  0  0  0  0  0  0  0  0  0  0  0
   -8.6363    1.3792    0.1291 H   0  0  0  0  0  0  0  0  0  0  0  0
   -7.9726   -0.0922    0.8497 H   0  0  0  0  0  0  0  0  0  0  0  0
   -7.5849    0.3562   -0.8575 H   0  0  0  0  0  0  0  0  0  0  0  0
   -4.6002    2.7404    1.3783 H   0  0  0  0  0  0  0  0  0  0  0  0
   -2.3214    1.8433    1.6435 H   0  0  0  0  0  0  0  0  0  0  0  0
   -1.3615   -1.3532    2.0113 H   0  0  0  0  0  0  0  0  0  0  0  0
    1.3724    1.3156   -3.1413 H   0  0  0  0  0  0  0  0  0  0  0  0
    5.6069   -0.8884   -2.6768 H   0  0  0  0  0  0  0  0  0  0  0  0
    7.3841   -0.8230   -0.9698 H   0  0  0  0  0  0  0  0  0  0  0  0
    7.0860    0.9647    2.2688 H   0  0  0  0  0  0  0  0  0  0  0  0
    8.0027   -0.2396    1.3640 H   0  0  0  0  0  0  0  0  0  0  0  0
    8.2196    1.4900    0.9987 H   0  0  0  0  0  0  0  0  0  0  0  0
    5.1864    2.1849    1.2033 H   0  0  0  0  0  0  0  0  0  0  0  0
    3.4204    2.1356   -0.4982 H   0  0  0  0  0  0  0  0  0  0  0  0
    2.6942   -0.9454   -0.3672 H   0  0  0  0  0  0  0  0  0  0  0  0
   -5.3673   -3.2953    0.5244 H   0  0  0  0  0  0  0  0  0  0  0  0
   -4.9446   -2.7958   -1.1607 H   0  0  0  0  0  0  0  0  0  0  0  0
   -4.1039   -4.1390   -0.3781 H   0  0  0  0  0  0  0  0  0  0  0  0
   -5.9969   -1.1058    0.0874 H   0  0  0  0  0  0  0  0  0  0  0  0
  1  2  1  0
  2  3  1  0
  3  4  2  0
  4  5  1  0
  5  6  2  0
  6  7  1  0
  7  8  2  3
  8  9  1  0
  9 10  1  0
 10 11  2  3
 11 12  1  0
 12 13  2  0
 12 14  1  0
 14 15  2  0
 15 16  1  0
 16 17  2  0
 17 18  1  0
 17 19  1  0
 19 20  2  0
 10 21  1  0
 21 22  1  0
 22 23  2  0
  6 24  1  0
 24 25  1  0
 25 26  1  0
 24 27  2  0
 27  3  1  0
 22  8  1  0
 20 14  1  0
  1 28  1  0
  1 29  1  0
  1 30  1  0
  4 31  1  0
  5 32  1  0
  7 33  1  0
 11 34  1  0
 15 35  1  0
 16 36  1  0
 18 37  1  0
 18 38  1  0
 18 39  1  0
 19 40  1  0
 20 41  1  0
 21 42  1  0
 26 43  1  0
 26 44  1  0
 26 45  1  0
 27 46  1  0
M  END
$$$$
