
     RDKit          3D

 58 62  0  0  0  0  0  0  0  0999 V2000
    6.2827    4.1467   -0.6656 C   0  0  0  0  0  0  0  0  0  0  0  0
    6.3868    2.9228    0.0620 O   0  0  0  0  0  0  0  0  0  0  0  0
    5.2006    2.3092    0.3623 C   0  0  0  0  0  0  0  0  0  0  0  0
    5.2830    0.9349    0.6078 C   0  0  0  0  0  0  0  0  0  0  0  0
    4.1323    0.1896    0.8801 C   0  0  0  0  0  0  0  0  0  0  0  0
    2.8822    0.8193    0.9343 C   0  0  0  0  0  0  0  0  0  0  0  0
    1.6197    0.0112    1.1269 C   0  0  0  0  0  0  0  0  0  0  0  0
    1.0132   -0.3582   -0.2318 C   0  0  0  0  0  0  0  0  0  0  0  0
   -0.3335   -0.9389   -0.0894 N   0  0  0  0  0  0  0  0  0  0  0  0
   -1.4724   -0.1219   -0.1284 C   0  0  0  0  0  0  0  0  0  0  0  0
   -1.4418    1.1665    0.0743 N   0  0  0  0  0  0  0  0  0  0  0  0
   -2.8216   -0.7381   -0.3932 C   0  0  0  0  0  0  0  0  0  0  0  0
   -4.0847    0.0121   -0.6677 C   0  0  0  0  0  0  0  0  0  0  0  0
   -5.0472   -0.5207   -1.2103 O   0  0  0  0  0  0  0  0  0  0  0  0
   -4.0717    1.3267   -0.2866 N   0  0  0  0  0  0  0  0  0  0  0  0
   -5.1901    2.2137   -0.4960 C   0  0  0  0  0  0  0  0  0  0  0  0
   -4.7014    3.5367   -0.9606 C   0  0  0  0  0  0  0  0  0  0  0  0
   -3.6608    3.9473   -1.7673 C   0  0  0  0  0  0  0  0  0  0  0  0
   -3.7415    5.3590   -1.8436 C   0  0  0  0  0  0  0  0  0  0  0  0
   -4.8294    5.7206   -1.0868 C   0  0  0  0  0  0  0  0  0  0  0  0
   -5.4154    4.6228   -0.5479 O   0  0  0  0  0  0  0  0  0  0  0  0
   -2.8596   -2.0728   -0.3772 C   0  0  0  0  0  0  0  0  0  0  0  0
   -1.6903   -2.8880   -0.0939 C   0  0  0  0  0  0  0  0  0  0  0  0
   -1.8490   -4.3510    0.1004 C   0  0  0  0  0  0  0  0  0  0  0  0
   -2.9565   -4.8583    0.0049 O   0  0  0  0  0  0  0  0  0  0  0  0
   -0.6964   -5.0553    0.4051 N   0  0  0  0  0  0  0  0  0  0  0  0
   -0.7747   -6.4211    0.6820 C   0  0  0  0  0  0  0  0  0  0  0  0
    0.3118   -7.1462    0.9732 C   0  0  0  0  0  0  0  0  0  0  0  0
    1.6090   -6.5173    0.9756 C   0  0  0  0  0  0  0  0  0  0  0  0
    1.7318   -5.2087    0.7058 C   0  0  0  0  0  0  0  0  0  0  0  0
    0.5160   -4.3904    0.4300 C   0  0  0  0  0  0  0  0  0  0  0  0
    0.6575   -3.1172    0.2340 N   0  0  0  0  0  0  0  0  0  0  0  0
   -0.4575   -2.3430    0.0107 C   0  0  0  0  0  0  0  0  0  0  0  0
    2.8106    2.2101    0.7367 C   0  0  0  0  0  0  0  0  0  0  0  0
    3.9620    2.9500    0.4517 C   0  0  0  0  0  0  0  0  0  0  0  0
    5.9638    4.9590   -0.0034 H   0  0  0  0  0  0  0  0  0  0  0  0
    5.6046    4.0479   -1.5295 H   0  0  0  0  0  0  0  0  0  0  0  0
    7.2791    4.4000   -1.0539 H   0  0  0  0  0  0  0  0  0  0  0  0
    6.2499    0.4382    0.5618 H   0  0  0  0  0  0  0  0  0  0  0  0
    4.2178   -0.8862    1.0355 H   0  0  0  0  0  0  0  0  0  0  0  0
    1.8341   -0.8958    1.7078 H   0  0  0  0  0  0  0  0  0  0  0  0
    0.9123    0.5896    1.7320 H   0  0  0  0  0  0  0  0  0  0  0  0
    1.6813   -1.0495   -0.7609 H   0  0  0  0  0  0  0  0  0  0  0  0
    0.9640    0.5176   -0.8922 H   0  0  0  0  0  0  0  0  0  0  0  0
   -0.4899    1.4792    0.2811 H   0  0  0  0  0  0  0  0  0  0  0  0
   -3.1816    1.7095    0.0402 H   0  0  0  0  0  0  0  0  0  0  0  0
   -5.7025    2.3139    0.4684 H   0  0  0  0  0  0  0  0  0  0  0  0
   -5.8954    1.7927   -1.2199 H   0  0  0  0  0  0  0  0  0  0  0  0
   -2.9282    3.2945   -2.2342 H   0  0  0  0  0  0  0  0  0  0  0  0
   -3.0896    6.0304   -2.3824 H   0  0  0  0  0  0  0  0  0  0  0  0
   -5.2828    6.6595   -0.8427 H   0  0  0  0  0  0  0  0  0  0  0  0
   -3.7947   -2.5915   -0.5696 H   0  0  0  0  0  0  0  0  0  0  0  0
   -1.7633   -6.8777    0.6602 H   0  0  0  0  0  0  0  0  0  0  0  0
    0.2336   -8.2102    1.1978 H   0  0  0  0  0  0  0  0  0  0  0  0
    2.4807   -7.1278    1.1854 H   0  0  0  0  0  0  0  0  0  0  0  0
    2.6891   -4.7005    0.6882 H   0  0  0  0  0  0  0  0  0  0  0  0
    1.8541    2.7315    0.7912 H   0  0  0  0  0  0  0  0  0  0  0  0
    3.8601    4.0237    0.3068 H   0  0  0  0  0  0  0  0  0  0  0  0
  1  2  1  0
  2  3  1  0
  3  4  2  0
  4  5  1  0
  5  6  2  0
  6  7  1  0
  7  8  1  0
  8  9  1  0
  9 10  1  0
 10 11  2  3
 10 12  1  0
 12 13  1  0
 13 14  2  0
 13 15  1  0
 15 16  1  0
 16 17  1  0
 17 18  2  0
 18 19  1  0
 19 20  2  0
 20 21  1  0
 12 22  2  0
 22 23  1  0
 23 24  1  0
 24 25  2  0
 24 26  1  0
 26 27  1  0
 27 28  2  0
 28 29  1  0
 29 30  2  0
 30 31  1  0
 31 32  2  0
 32 33  1  0
  6 34  1  0
 34 35  2  0
 35  3  1  0
 33  9  1  0
 21 17  1  0
 33 23  2  0
 31 26  1  0
  1 36  1  0
  1 37  1  0
  1 38  1  0
  4 39  1  0
  5 40  1  0
  7 41  1  0
  7 42  1  0
  8 43  1  0
  8 44  1  0
 11 45  1  0
 15 46  1  0
 16 47  1  0
 16 48  1  0
 18 49  1  0
 19 50  1  0
 20 51  1  0
 22 52  1  0
 27 53  1  0
 28 54  1  0
 29 55  1  0
 30 56  1  0
 34 57  1  0
 35 58  1  0
M  END
$$$$
