
     RDKit          3D

 36 36  0  0  0  0  0  0  0  0999 V2000
    1.4838   -4.5930    3.3657 C   0  0  0  0  0  0  0  0  0  0  0  0
    1.7840   -4.6757    1.8795 C   0  0  0  0  0  0  0  0  0  0  0  0
    2.0381   -3.3788    1.3436 O   0  0  0  0  0  0  0  0  0  0  0  0
    0.8587   -2.6638    0.9685 C   0  0  0  0  0  0  0  0  0  0  0  0
    0.5499   -2.9318   -0.5025 C   0  0  0  0  0  0  0  0  0  0  0  0
   -0.7268   -2.2538   -0.9863 C   0  0  0  0  0  0  0  0  0  0  0  0
   -0.6143   -0.8083   -1.0394 N   0  0  0  0  0  0  0  0  0  0  0  0
   -1.0698   -0.0062   -0.0144 C   0  0  0  0  0  0  0  0  0  0  0  0
   -1.6124   -0.4370    0.9953 O   0  0  0  0  0  0  0  0  0  0  0  0
   -0.8283    1.4480   -0.2057 C   0  0  0  0  0  0  0  0  0  0  0  0
   -0.2407    2.1549    0.8791 C   0  0  0  0  0  0  0  0  0  0  0  0
    0.2390    2.7376    1.7611 N   0  0  0  0  0  0  0  0  0  0  0  0
   -1.2914    2.0033   -1.3411 C   0  0  0  0  0  0  0  0  0  0  0  0
   -1.1571    3.3823   -1.6646 C   0  0  0  0  0  0  0  0  0  0  0  0
   -1.9611    4.1542   -2.5021 C   0  0  0  0  0  0  0  0  0  0  0  0
   -1.4361    5.4710   -2.5326 C   0  0  0  0  0  0  0  0  0  0  0  0
   -0.3255    5.4278   -1.7309 C   0  0  0  0  0  0  0  0  0  0  0  0
    0.6343    6.4267   -1.3815 N   0  0  0  0  0  4  0  0  0  0  0  0
    1.6286    6.0757   -0.7358 O   0  0  0  0  0  0  0  0  0  0  0  0
    0.3952    7.5746   -1.7815 O   0  0  0  0  0  1  0  0  0  0  0  0
   -0.1396    4.1914   -1.2051 O   0  0  0  0  0  0  0  0  0  0  0  0
    1.3650   -5.5932    3.7920 H   0  0  0  0  0  0  0  0  0  0  0  0
    2.2939   -4.0784    3.8928 H   0  0  0  0  0  0  0  0  0  0  0  0
    0.5686   -4.0245    3.5566 H   0  0  0  0  0  0  0  0  0  0  0  0
    0.9749   -5.1775    1.3377 H   0  0  0  0  0  0  0  0  0  0  0  0
    2.6939   -5.2669    1.7337 H   0  0  0  0  0  0  0  0  0  0  0  0
    1.0792   -1.6019    1.1147 H   0  0  0  0  0  0  0  0  0  0  0  0
    0.0110   -2.9205    1.6129 H   0  0  0  0  0  0  0  0  0  0  0  0
    1.4045   -2.6142   -1.1133 H   0  0  0  0  0  0  0  0  0  0  0  0
    0.4569   -4.0127   -0.6619 H   0  0  0  0  0  0  0  0  0  0  0  0
   -1.5776   -2.5403   -0.3586 H   0  0  0  0  0  0  0  0  0  0  0  0
   -0.9435   -2.5810   -2.0089 H   0  0  0  0  0  0  0  0  0  0  0  0
   -0.0523   -0.4089   -1.7816 H   0  0  0  0  0  0  0  0  0  0  0  0
   -1.8300    1.3891   -2.0596 H   0  0  0  0  0  0  0  0  0  0  0  0
   -2.8417    3.8017   -3.0246 H   0  0  0  0  0  0  0  0  0  0  0  0
   -1.8111    6.3301   -3.0725 H   0  0  0  0  0  0  0  0  0  0  0  0
  1  2  1  0
  2  3  1  0
  3  4  1  0
  4  5  1  0
  5  6  1  0
  6  7  1  0
  7  8  1  0
  8  9  2  0
  8 10  1  0
 10 11  1  0
 11 12  3  0
 10 13  2  3
 13 14  1  0
 14 15  2  0
 15 16  1  0
 16 17  2  0
 17 18  1  0
 18 19  2  0
 18 20  1  0
 17 21  1  0
 21 14  1  0
  1 22  1  0
  1 23  1  0
  1 24  1  0
  2 25  1  0
  2 26  1  0
  4 27  1  0
  4 28  1  0
  5 29  1  0
  5 30  1  0
  6 31  1  0
  6 32  1  0
  7 33  1  0
 13 34  1  0
 15 35  1  0
 16 36  1  0
M  CHG  2  18   1  20  -1
M  END
$$$$
