
     RDKit          3D

 50 53  0  0  0  0  0  0  0  0999 V2000
    8.4121    1.8645    0.6562 C   0  0  0  0  0  0  0  0  0  0  0  0
    7.1493    2.5091    0.5461 O   0  0  0  0  0  0  0  0  0  0  0  0
    6.0530    1.7011    0.4306 C   0  0  0  0  0  0  0  0  0  0  0  0
    4.8365    2.3749    0.3312 C   0  0  0  0  0  0  0  0  0  0  0  0
    3.6326    1.6697    0.2080 C   0  0  0  0  0  0  0  0  0  0  0  0
    3.6092    0.2648    0.1842 C   0  0  0  0  0  0  0  0  0  0  0  0
    2.3530   -0.5064    0.0576 C   0  0  0  0  0  0  0  0  0  0  0  0
    1.1287   -0.0429    0.5053 C   0  0  0  0  0  0  0  0  0  0  0  0
    0.0036   -0.8480    0.3218 C   0  0  0  0  0  0  0  0  0  0  0  0
   -1.2883   -0.2753    0.7624 C   0  0  0  0  0  0  0  0  0  0  0  0
   -1.4066    0.0323    1.9401 O   0  0  0  0  0  0  0  0  0  0  0  0
   -2.2039   -0.1151   -0.2594 N   0  0  0  0  0  0  0  0  0  0  0  0
   -3.5126    0.4031   -0.1649 C   0  0  0  0  0  0  0  0  0  0  0  0
   -4.2627    0.4575   -1.3416 C   0  0  0  0  0  0  0  0  0  0  0  0
   -5.5588    0.9764   -1.3318 C   0  0  0  0  0  0  0  0  0  0  0  0
   -6.1369    1.4379   -0.1405 C   0  0  0  0  0  0  0  0  0  0  0  0
   -7.5195    2.0280   -0.1773 C   0  0  0  0  0  0  0  0  0  0  0  0
   -5.4133    1.3311    1.0594 C   0  0  0  0  0  0  0  0  0  0  0  0
   -5.9006    1.8806    2.2578 N   0  0  0  0  0  0  0  0  0  0  0  0
   -4.0892    0.8613    1.0214 C   0  0  0  0  0  0  0  0  0  0  0  0
    0.1029   -2.1292   -0.2593 C   0  0  0  0  0  0  0  0  0  0  0  0
   -0.9735   -3.0402   -0.4198 C   0  0  0  0  0  0  0  0  0  0  0  0
   -0.7782   -4.2843   -1.0157 C   0  0  0  0  0  0  0  0  0  0  0  0
    0.4899   -4.6397   -1.4512 C   0  0  0  0  0  0  0  0  0  0  0  0
    1.5548   -3.7529   -1.2768 C   0  0  0  0  0  0  0  0  0  0  0  0
    1.3879   -2.5090   -0.6827 C   0  0  0  0  0  0  0  0  0  0  0  0
    2.4673   -1.7219   -0.5363 N   0  0  0  0  0  0  0  0  0  0  0  0
    4.8496   -0.3939    0.2780 C   0  0  0  0  0  0  0  0  0  0  0  0
    6.0561    0.3099    0.4017 C   0  0  0  0  0  0  0  0  0  0  0  0
    9.1774    2.6416    0.7445 H   0  0  0  0  0  0  0  0  0  0  0  0
    8.4618    1.2444    1.5575 H   0  0  0  0  0  0  0  0  0  0  0  0
    8.6354    1.2778   -0.2410 H   0  0  0  0  0  0  0  0  0  0  0  0
    4.8226    3.4623    0.3455 H   0  0  0  0  0  0  0  0  0  0  0  0
    2.7156    2.2466    0.1151 H   0  0  0  0  0  0  0  0  0  0  0  0
    1.0290    0.9189    0.9982 H   0  0  0  0  0  0  0  0  0  0  0  0
   -1.9042   -0.3878   -1.1882 H   0  0  0  0  0  0  0  0  0  0  0  0
   -3.8488    0.1139   -2.2857 H   0  0  0  0  0  0  0  0  0  0  0  0
   -6.1116    1.0312   -2.2671 H   0  0  0  0  0  0  0  0  0  0  0  0
   -8.2090    1.4131    0.4100 H   0  0  0  0  0  0  0  0  0  0  0  0
   -7.9090    2.0790   -1.1997 H   0  0  0  0  0  0  0  0  0  0  0  0
   -7.5100    3.0482    0.2199 H   0  0  0  0  0  0  0  0  0  0  0  0
   -6.9108    1.8653    2.3408 H   0  0  0  0  0  0  0  0  0  0  0  0
   -5.4427    1.5105    3.0861 H   0  0  0  0  0  0  0  0  0  0  0  0
   -3.5216    0.8615    1.9462 H   0  0  0  0  0  0  0  0  0  0  0  0
   -1.9720   -2.7952   -0.0613 H   0  0  0  0  0  0  0  0  0  0  0  0
   -1.6107   -4.9743   -1.1296 H   0  0  0  0  0  0  0  0  0  0  0  0
    0.6604   -5.6078   -1.9153 H   0  0  0  0  0  0  0  0  0  0  0  0
    2.5490   -4.0445   -1.6097 H   0  0  0  0  0  0  0  0  0  0  0  0
    4.8836   -1.4828    0.2581 H   0  0  0  0  0  0  0  0  0  0  0  0
    6.9733   -0.2647    0.4713 H   0  0  0  0  0  0  0  0  0  0  0  0
  1  2  1  0
  2  3  1  0
  3  4  2  0
  4  5  1  0
  5  6  2  0
  6  7  1  0
  7  8  2  0
  8  9  1  0
  9 10  1  0
 10 11  2  0
 10 12  1  0
 12 13  1  0
 13 14  2  0
 14 15  1  0
 15 16  2  0
 16 17  1  0
 16 18  1  0
 18 19  1  0
 18 20  2  0
  9 21  2  0
 21 22  1  0
 22 23  2  0
 23 24  1  0
 24 25  2  0
 25 26  1  0
 26 27  2  0
  6 28  1  0
 28 29  2  0
 29  3  1  0
 27  7  1  0
 20 13  1  0
 26 21  1  0
  1 30  1  0
  1 31  1  0
  1 32  1  0
  4 33  1  0
  5 34  1  0
  8 35  1  0
 12 36  1  0
 14 37  1  0
 15 38  1  0
 17 39  1  0
 17 40  1  0
 17 41  1  0
 19 42  1  0
 19 43  1  0
 20 44  1  0
 22 45  1  0
 23 46  1  0
 24 47  1  0
 25 48  1  0
 28 49  1  0
 29 50  1  0
M  END
$$$$
