
     RDKit          3D

 38 39  0  0  0  0  0  0  0  0999 V2000
    2.2199    0.4147   -1.6105 O   0  0  0  0  0  0  0  0  0  0  0  0
    1.1400    0.1595   -1.0790 C   0  0  0  0  0  0  0  0  0  0  0  0
   -0.2017    0.5511   -1.6911 C   0  0  0  0  0  0  0  0  0  0  0  0
   -1.2206    0.6059   -0.6862 O   0  0  0  0  0  0  0  0  0  0  0  0
   -2.4514    0.8783   -1.1828 C   0  0  0  0  0  0  0  0  0  0  0  0
   -2.7265    1.0411   -2.3632 O   0  0  0  0  0  0  0  0  0  0  0  0
   -3.4781    0.9451   -0.1129 C   0  0  0  0  0  0  0  0  0  0  0  0
   -3.1316    0.8616    1.2447 C   0  0  0  0  0  0  0  0  0  0  0  0
   -4.1232    0.9230    2.2274 C   0  0  0  0  0  0  0  0  0  0  0  0
   -5.4556    1.0694    1.8580 C   0  0  0  0  0  0  0  0  0  0  0  0
   -6.3852    1.1234    2.8529 O   0  0  0  0  0  0  0  0  0  0  0  0
   -5.8194    1.1592    0.5194 C   0  0  0  0  0  0  0  0  0  0  0  0
   -4.8300    1.0996   -0.4624 C   0  0  0  0  0  0  0  0  0  0  0  0
   -5.2706    1.2005   -1.7567 O   0  0  0  0  0  0  0  0  0  0  0  0
    1.0538   -0.5605    0.0953 N   0  0  0  0  0  0  0  0  0  0  0  0
    2.2464   -0.8591    0.8667 C   0  0  0  0  0  0  0  0  0  0  0  0
    3.1882   -1.8502    0.1652 C   0  0  0  0  0  0  0  0  0  0  0  0
    4.5798   -1.5009    0.3610 N   0  0  0  0  0  0  0  0  0  0  0  0
    5.3403   -0.7511   -0.5049 C   0  0  0  0  0  0  0  0  0  0  0  0
    4.8310   -0.2371   -1.6598 O   0  0  0  0  0  0  0  0  0  0  0  0
    6.6066   -0.5739   -0.1171 C   0  0  0  0  0  0  0  0  0  0  0  0
    6.9172   -1.3296    1.4144 S   0  0  0  0  0  0  0  0  0  0  0  0
    5.2437   -1.9000    1.5134 C   0  0  0  0  0  0  0  0  0  0  0  0
    4.7871   -2.5216    2.4593 O   0  0  0  0  0  0  0  0  0  0  0  0
   -0.4522   -0.1990   -2.4494 H   0  0  0  0  0  0  0  0  0  0  0  0
   -0.0881    1.5417   -2.1449 H   0  0  0  0  0  0  0  0  0  0  0  0
   -2.0975    0.7550    1.5594 H   0  0  0  0  0  0  0  0  0  0  0  0
   -3.8583    0.8593    3.2800 H   0  0  0  0  0  0  0  0  0  0  0  0
   -7.2653    1.2309    2.4538 H   0  0  0  0  0  0  0  0  0  0  0  0
   -6.8565    1.2765    0.2211 H   0  0  0  0  0  0  0  0  0  0  0  0
   -4.4964    1.1900   -2.3616 H   0  0  0  0  0  0  0  0  0  0  0  0
    0.1557   -0.5492    0.5679 H   0  0  0  0  0  0  0  0  0  0  0  0
    2.7486    0.0955    1.0647 H   0  0  0  0  0  0  0  0  0  0  0  0
    1.9204   -1.2676    1.8293 H   0  0  0  0  0  0  0  0  0  0  0  0
    2.9885   -1.9479   -0.9074 H   0  0  0  0  0  0  0  0  0  0  0  0
    3.0181   -2.8484    0.5886 H   0  0  0  0  0  0  0  0  0  0  0  0
    3.8705   -0.0668   -1.5530 H   0  0  0  0  0  0  0  0  0  0  0  0
    7.3526   -0.0185   -0.6675 H   0  0  0  0  0  0  0  0  0  0  0  0
  1  2  2  0
  2  3  1  0
  3  4  1  0
  4  5  1  0
  5  6  2  0
  5  7  1  0
  7  8  2  0
  8  9  1  0
  9 10  2  0
 10 11  1  0
 10 12  1  0
 12 13  2  0
 13 14  1  0
  2 15  1  0
 15 16  1  0
 16 17  1  0
 17 18  1  0
 18 19  1  0
 19 20  1  0
 19 21  2  0
 21 22  1  0
 22 23  1  0
 23 24  2  0
 13  7  1  0
 23 18  1  0
  3 25  1  0
  3 26  1  0
  8 27  1  0
  9 28  1  0
 11 29  1  0
 12 30  1  0
 14 31  1  0
 15 32  1  0
 16 33  1  0
 16 34  1  0
 17 35  1  0
 17 36  1  0
 20 37  1  0
 21 38  1  0
M  END
$$$$
