
     RDKit          3D

 39 41  0  0  0  0  0  0  0  0999 V2000
    4.6814    2.0298    2.1135 C   0  0  0  0  0  0  0  0  0  0  0  0
    4.8480    1.5807    0.6730 C   0  0  0  0  0  0  0  0  0  0  0  0
    4.3204    0.2479    0.4511 N   0  0  0  0  0  0  0  0  0  0  0  0
    5.0312   -0.9147    0.4198 C   0  0  0  0  0  0  0  0  0  0  0  0
    4.1153   -1.9098    0.1775 C   0  0  0  0  0  0  0  0  0  0  0  0
    2.8617   -1.2529    0.0723 C   0  0  0  0  0  0  0  0  0  0  0  0
    1.5474   -1.8749   -0.1842 C   0  0  0  0  0  0  0  0  0  0  0  0
    1.4456   -3.0866   -0.3357 O   0  0  0  0  0  0  0  0  0  0  0  0
    0.5413   -0.9284   -0.2190 N   0  0  0  0  0  0  0  0  0  0  0  0
   -0.8128   -1.1183   -0.4322 C   0  0  0  0  0  0  0  0  0  0  0  0
   -1.4486   -2.6903   -0.6999 S   0  0  0  0  0  0  0  0  0  0  0  0
   -2.9896   -2.0789   -0.8500 C   0  0  0  0  0  0  0  0  0  0  0  0
   -3.0656   -0.7224   -0.7106 C   0  0  0  0  0  0  0  0  0  0  0  0
   -1.7964   -0.1246   -0.4560 C   0  0  0  0  0  0  0  0  0  0  0  0
   -1.5118    1.2922   -0.2440 C   0  0  0  0  0  0  0  0  0  0  0  0
   -0.3831    1.7306   -0.0476 O   0  0  0  0  0  0  0  0  0  0  0  0
   -2.6335    2.0701   -0.2844 O   0  0  0  0  0  0  0  0  0  0  0  0
   -2.3864    3.4604   -0.0778 C   0  0  0  0  0  0  0  0  0  0  0  0
   -4.4702   -0.2569   -0.8570 C   0  0  0  0  0  0  0  0  0  0  0  0
   -5.1820   -1.5141   -1.4482 C   0  0  0  0  0  0  0  0  0  0  0  0
   -4.2880   -2.7428   -1.1034 C   0  0  0  0  0  0  0  0  0  0  0  0
    3.0015    0.0791    0.2406 N   0  0  0  0  0  0  0  0  0  0  0  0
    5.0957    3.0335    2.2492 H   0  0  0  0  0  0  0  0  0  0  0  0
    3.6248    2.0548    2.4006 H   0  0  0  0  0  0  0  0  0  0  0  0
    5.1976    1.3504    2.8002 H   0  0  0  0  0  0  0  0  0  0  0  0
    4.3274    2.2605   -0.0104 H   0  0  0  0  0  0  0  0  0  0  0  0
    5.9076    1.5712    0.3950 H   0  0  0  0  0  0  0  0  0  0  0  0
    6.1013   -0.9398    0.5704 H   0  0  0  0  0  0  0  0  0  0  0  0
    4.3040   -2.9707    0.0856 H   0  0  0  0  0  0  0  0  0  0  0  0
    0.8608    0.0318   -0.0656 H   0  0  0  0  0  0  0  0  0  0  0  0
   -1.7322    3.8549   -0.8617 H   0  0  0  0  0  0  0  0  0  0  0  0
   -3.3439    3.9858   -0.1305 H   0  0  0  0  0  0  0  0  0  0  0  0
   -1.9530    3.6304    0.9128 H   0  0  0  0  0  0  0  0  0  0  0  0
   -4.8926   -0.0018    0.1205 H   0  0  0  0  0  0  0  0  0  0  0  0
   -4.5686    0.5979   -1.5317 H   0  0  0  0  0  0  0  0  0  0  0  0
   -5.2392   -1.4099   -2.5399 H   0  0  0  0  0  0  0  0  0  0  0  0
   -6.2051   -1.6258   -1.0758 H   0  0  0  0  0  0  0  0  0  0  0  0
   -4.2574   -3.4558   -1.9317 H   0  0  0  0  0  0  0  0  0  0  0  0
   -4.6532   -3.2422   -0.2002 H   0  0  0  0  0  0  0  0  0  0  0  0
  1  2  1  0
  2  3  1  0
  3  4  1  0
  4  5  2  0
  5  6  1  0
  6  7  1  0
  7  8  2  0
  7  9  1  0
  9 10  1  0
 10 11  1  0
 11 12  1  0
 12 13  2  0
 13 14  1  0
 14 15  1  0
 15 16  2  0
 15 17  1  0
 17 18  1  0
 13 19  1  0
 19 20  1  0
 20 21  1  0
  6 22  2  0
 22  3  1  0
 14 10  2  0
 21 12  1  0
  1 23  1  0
  1 24  1  0
  1 25  1  0
  2 26  1  0
  2 27  1  0
  4 28  1  0
  5 29  1  0
  9 30  1  0
 18 31  1  0
 18 32  1  0
 18 33  1  0
 19 34  1  0
 19 35  1  0
 20 36  1  0
 20 37  1  0
 21 38  1  0
 21 39  1  0
M  END
$$$$
