
     RDKit          3D

 29 29  0  0  0  0  0  0  0  0999 V2000
   -5.4795   -2.4779    0.1778 C   0  0  0  0  0  0  0  0  0  0  0  0
   -4.7762   -1.5047    0.2228 C   0  0  0  0  0  0  0  0  0  0  0  0
   -3.9173   -0.3136    0.2642 C   0  0  0  0  0  0  0  0  0  0  0  0
   -2.4989   -0.6584    0.3618 N   0  0  0  0  0  0  0  0  0  0  0  0
   -1.9730   -1.2396   -0.8727 C   0  0  0  0  0  0  0  0  0  0  0  0
   -0.4728   -1.5066   -0.7554 C   0  0  0  0  0  0  0  0  0  0  0  0
    0.3469   -0.2309   -0.5810 C   0  0  0  0  0  0  0  0  0  0  0  0
    1.7353   -0.6010   -0.5765 O   0  0  0  0  0  0  0  0  0  0  0  0
    2.5141    0.4686   -0.2192 C   0  0  0  0  0  0  0  0  0  0  0  0
    2.8725    1.3956   -1.2007 C   0  0  0  0  0  0  0  0  0  0  0  0
    3.6960    2.4714   -0.8670 C   0  0  0  0  0  0  0  0  0  0  0  0
    4.1678    2.6050    0.4399 C   0  0  0  0  0  0  0  0  0  0  0  0
    5.1864    3.9326    0.8428 Cl  0  0  0  0  0  0  0  0  0  0  0  0
    3.8298    1.6710    1.4186 C   0  0  0  0  0  0  0  0  0  0  0  0
    3.0062    0.5951    1.0852 C   0  0  0  0  0  0  0  0  0  0  0  0
    2.6101   -0.5551    2.3092 Cl  0  0  0  0  0  0  0  0  0  0  0  0
   -6.1021   -3.3424    0.1303 H   0  0  0  0  0  0  0  0  0  0  0  0
   -4.1802    0.2832    1.1449 H   0  0  0  0  0  0  0  0  0  0  0  0
   -4.0986    0.3281   -0.6056 H   0  0  0  0  0  0  0  0  0  0  0  0
   -2.3762   -1.3165    1.1321 H   0  0  0  0  0  0  0  0  0  0  0  0
   -2.1507   -0.5624   -1.7166 H   0  0  0  0  0  0  0  0  0  0  0  0
   -2.4744   -2.1886   -1.0955 H   0  0  0  0  0  0  0  0  0  0  0  0
   -0.2671   -2.1909    0.0779 H   0  0  0  0  0  0  0  0  0  0  0  0
   -0.1310   -2.0319   -1.6563 H   0  0  0  0  0  0  0  0  0  0  0  0
    0.1530    0.4521   -1.4171 H   0  0  0  0  0  0  0  0  0  0  0  0
    0.0816    0.2674    0.3593 H   0  0  0  0  0  0  0  0  0  0  0  0
    2.5179    1.2769   -2.2215 H   0  0  0  0  0  0  0  0  0  0  0  0
    3.9728    3.1970   -1.6289 H   0  0  0  0  0  0  0  0  0  0  0  0
    4.2075    1.7768    2.4320 H   0  0  0  0  0  0  0  0  0  0  0  0
  1  2  3  0
  2  3  1  0
  3  4  1  0
  4  5  1  0
  5  6  1  0
  6  7  1  0
  7  8  1  0
  8  9  1  0
  9 10  2  0
 10 11  1  0
 11 12  2  0
 12 13  1  0
 12 14  1  0
 14 15  2  0
 15 16  1  0
 15  9  1  0
  1 17  1  0
  3 18  1  0
  3 19  1  0
  4 20  1  0
  5 21  1  0
  5 22  1  0
  6 23  1  0
  6 24  1  0
  7 25  1  0
  7 26  1  0
 10 27  1  0
 11 28  1  0
 14 29  1  0
M  END
$$$$
