
     RDKit          3D

 38 40  0  0  0  0  0  0  0  0999 V2000
   -7.9083   -0.4887    0.3176 C   0  0  0  0  0  0  0  0  0  0  0  0
   -6.4687   -0.9654    0.2403 C   0  0  0  0  0  0  0  0  0  0  0  0
   -5.9601   -0.8302   -1.0865 O   0  0  0  0  0  0  0  0  0  0  0  0
   -5.4514    0.4743   -1.3845 C   0  0  0  0  0  0  0  0  0  0  0  0
   -4.0408    0.5736   -0.9053 C   0  0  0  0  0  0  0  0  0  0  0  0
   -3.6560    1.2312    0.1710 N   0  0  0  0  0  0  0  0  0  0  0  0
   -2.2921    1.1466    0.3655 N   0  0  0  0  0  0  0  0  0  0  0  0
   -1.6992    0.4382   -0.5704 C   0  0  0  0  0  0  0  0  0  0  0  0
   -0.3469    0.2235   -0.5745 N   0  0  0  0  0  0  0  0  0  0  0  0
    0.3909   -0.4763   -1.5001 C   0  0  0  0  0  0  0  0  0  0  0  0
   -0.0280   -1.0374   -2.5083 O   0  0  0  0  0  0  0  0  0  0  0  0
    1.8853   -0.5107   -1.1635 C   0  0  0  0  0  0  0  0  0  0  0  0
    2.1618    0.2212    0.0292 O   0  0  0  0  0  0  0  0  0  0  0  0
    3.4677    0.2652    0.4383 C   0  0  0  0  0  0  0  0  0  0  0  0
    3.6809    1.0012    1.6221 C   0  0  0  0  0  0  0  0  0  0  0  0
    4.9612    1.1386    2.1677 C   0  0  0  0  0  0  0  0  0  0  0  0
    6.0025    0.5293    1.5062 C   0  0  0  0  0  0  0  0  0  0  0  0
    5.8002   -0.1892    0.3520 C   0  0  0  0  0  0  0  0  0  0  0  0
    4.5474   -0.3415   -0.2093 C   0  0  0  0  0  0  0  0  0  0  0  0
    6.9562   -0.7093   -0.1429 O   0  0  0  0  0  0  0  0  0  0  0  0
    7.9079   -0.2352    0.8332 C   0  0  0  0  0  0  0  0  0  0  0  0
    7.3081    0.5522    1.8828 O   0  0  0  0  0  0  0  0  0  0  0  0
   -2.7522   -0.1787   -1.7573 S   0  0  0  0  0  0  0  0  0  0  0  0
   -8.3242   -0.6770    1.3116 H   0  0  0  0  0  0  0  0  0  0  0  0
   -7.9858    0.5824    0.1088 H   0  0  0  0  0  0  0  0  0  0  0  0
   -8.5243   -1.0042   -0.4265 H   0  0  0  0  0  0  0  0  0  0  0  0
   -6.4366   -2.0321    0.4858 H   0  0  0  0  0  0  0  0  0  0  0  0
   -5.8377   -0.4439    0.9678 H   0  0  0  0  0  0  0  0  0  0  0  0
   -5.4899    0.6030   -2.4715 H   0  0  0  0  0  0  0  0  0  0  0  0
   -6.0757    1.2576   -0.9421 H   0  0  0  0  0  0  0  0  0  0  0  0
    0.1513    0.6453    0.2016 H   0  0  0  0  0  0  0  0  0  0  0  0
    2.1603   -1.5637   -1.0335 H   0  0  0  0  0  0  0  0  0  0  0  0
    2.4154   -0.0631   -2.0121 H   0  0  0  0  0  0  0  0  0  0  0  0
    2.8372    1.4717    2.1227 H   0  0  0  0  0  0  0  0  0  0  0  0
    5.1283    1.7037    3.0775 H   0  0  0  0  0  0  0  0  0  0  0  0
    4.4491   -0.9187   -1.1196 H   0  0  0  0  0  0  0  0  0  0  0  0
    8.6594    0.3768    0.3213 H   0  0  0  0  0  0  0  0  0  0  0  0
    8.4068   -1.1003    1.2851 H   0  0  0  0  0  0  0  0  0  0  0  0
  1  2  1  0
  2  3  1  0
  3  4  1  0
  4  5  1  0
  5  6  2  0
  6  7  1  0
  7  8  2  0
  8  9  1  0
  9 10  1  0
 10 11  2  0
 10 12  1  0
 12 13  1  0
 13 14  1  0
 14 15  2  0
 15 16  1  0
 16 17  2  0
 17 18  1  0
 18 19  2  0
 18 20  1  0
 20 21  1  0
 21 22  1  0
  8 23  1  0
 23  5  1  0
 19 14  1  0
 22 17  1  0
  1 24  1  0
  1 25  1  0
  1 26  1  0
  2 27  1  0
  2 28  1  0
  4 29  1  0
  4 30  1  0
  9 31  1  0
 12 32  1  0
 12 33  1  0
 15 34  1  0
 16 35  1  0
 19 36  1  0
 21 37  1  0
 21 38  1  0
M  END
$$$$
