
     RDKit          3D

 44 45  0  0  0  0  0  0  0  0999 V2000
   -6.5978    0.9806   -0.1194 C   0  0  0  0  0  0  0  0  0  0  0  0
   -7.0997    0.5270    1.2434 C   0  0  0  0  0  0  0  0  0  0  0  0
   -6.3906   -0.7262    1.7470 C   0  0  0  0  0  0  0  0  0  0  0  0
   -5.0082   -0.4380    2.0100 O   0  0  0  0  0  0  0  0  0  0  0  0
   -4.1005   -0.9795    1.1630 C   0  0  0  0  0  0  0  0  0  0  0  0
   -4.3419   -1.6833    0.1951 O   0  0  0  0  0  0  0  0  0  0  0  0
   -2.7192   -0.5947    1.5601 C   0  0  0  0  0  0  0  0  0  0  0  0
   -2.4532    0.2263    2.6604 C   0  0  0  0  0  0  0  0  0  0  0  0
   -1.1354    0.5519    2.9785 C   0  0  0  0  0  0  0  0  0  0  0  0
   -0.0791    0.0625    2.2033 C   0  0  0  0  0  0  0  0  0  0  0  0
   -0.3272   -0.7579    1.1019 C   0  0  0  0  0  0  0  0  0  0  0  0
    0.6787   -1.2910    0.2675 N   0  0  0  0  0  0  0  0  0  0  0  0
    2.0536   -1.1196    0.3847 C   0  0  0  0  0  0  0  0  0  0  0  0
    2.6275   -0.4701    1.2518 O   0  0  0  0  0  0  0  0  0  0  0  0
    2.8145   -1.8456   -0.7398 C   0  0  0  0  0  0  0  0  0  0  0  0
    4.2282   -1.7493   -0.7173 O   0  0  0  0  0  0  0  0  0  0  0  0
    4.8123   -0.6149   -1.2057 C   0  0  0  0  0  0  0  0  0  0  0  0
    4.1531    0.5527   -1.5961 C   0  0  0  0  0  0  0  0  0  0  0  0
    4.8821    1.6481   -2.0757 C   0  0  0  0  0  0  0  0  0  0  0  0
    6.2780    1.5713   -2.1608 C   0  0  0  0  0  0  0  0  0  0  0  0
    7.0422    2.7189   -2.6645 N   0  0  0  0  0  4  0  0  0  0  0  0
    8.2769    2.6187   -2.7024 O   0  0  0  0  0  0  0  0  0  0  0  0
    6.4072    3.7193   -3.0284 O   0  0  0  0  0  1  0  0  0  0  0  0
    6.9477    0.4086   -1.7672 C   0  0  0  0  0  0  0  0  0  0  0  0
    6.2083   -0.6766   -1.2898 C   0  0  0  0  0  0  0  0  0  0  0  0
   -1.6531   -1.0819    0.7868 C   0  0  0  0  0  0  0  0  0  0  0  0
   -5.5449    1.2760   -0.0787 H   0  0  0  0  0  0  0  0  0  0  0  0
   -7.1736    1.8455   -0.4638 H   0  0  0  0  0  0  0  0  0  0  0  0
   -6.7054    0.1839   -0.8622 H   0  0  0  0  0  0  0  0  0  0  0  0
   -6.9510    1.3452    1.9577 H   0  0  0  0  0  0  0  0  0  0  0  0
   -8.1759    0.3309    1.1817 H   0  0  0  0  0  0  0  0  0  0  0  0
   -6.8341   -1.0317    2.7008 H   0  0  0  0  0  0  0  0  0  0  0  0
   -6.5243   -1.5620    1.0509 H   0  0  0  0  0  0  0  0  0  0  0  0
   -3.2570    0.6193    3.2778 H   0  0  0  0  0  0  0  0  0  0  0  0
   -0.9233    1.1897    3.8339 H   0  0  0  0  0  0  0  0  0  0  0  0
    0.9290    0.3445    2.4927 H   0  0  0  0  0  0  0  0  0  0  0  0
    0.3525   -1.8765   -0.4926 H   0  0  0  0  0  0  0  0  0  0  0  0
    2.4145   -1.5471   -1.7171 H   0  0  0  0  0  0  0  0  0  0  0  0
    2.5834   -2.9122   -0.6271 H   0  0  0  0  0  0  0  0  0  0  0  0
    3.0757    0.6578   -1.5232 H   0  0  0  0  0  0  0  0  0  0  0  0
    4.3481    2.5504   -2.3674 H   0  0  0  0  0  0  0  0  0  0  0  0
    8.0313    0.3301   -1.8198 H   0  0  0  0  0  0  0  0  0  0  0  0
    6.7252   -1.5814   -0.9754 H   0  0  0  0  0  0  0  0  0  0  0  0
   -1.8746   -1.7195   -0.0670 H   0  0  0  0  0  0  0  0  0  0  0  0
  1  2  1  0
  2  3  1  0
  3  4  1  0
  4  5  1  0
  5  6  2  0
  5  7  1  0
  7  8  2  0
  8  9  1  0
  9 10  2  0
 10 11  1  0
 11 12  1  0
 12 13  1  0
 13 14  2  0
 13 15  1  0
 15 16  1  0
 16 17  1  0
 17 18  2  0
 18 19  1  0
 19 20  2  0
 20 21  1  0
 21 22  2  0
 21 23  1  0
 20 24  1  0
 24 25  2  0
 11 26  2  0
 26  7  1  0
 25 17  1  0
  1 27  1  0
  1 28  1  0
  1 29  1  0
  2 30  1  0
  2 31  1  0
  3 32  1  0
  3 33  1  0
  8 34  1  0
  9 35  1  0
 10 36  1  0
 12 37  1  0
 15 38  1  0
 15 39  1  0
 18 40  1  0
 19 41  1  0
 24 42  1  0
 25 43  1  0
 26 44  1  0
M  CHG  2  21   1  23  -1
M  END
$$$$
