
     RDKit          3D

 57 62  0  0  0  0  0  0  0  0999 V2000
    7.8565    2.5523   -1.0424 C   0  0  0  0  0  0  0  0  0  0  0  0
    6.6219    3.0705   -0.5547 O   0  0  0  0  0  0  0  0  0  0  0  0
    5.6121    2.1764   -0.3442 C   0  0  0  0  0  0  0  0  0  0  0  0
    5.6767    0.7980   -0.5369 C   0  0  0  0  0  0  0  0  0  0  0  0
    4.5570   -0.0066   -0.2828 C   0  0  0  0  0  0  0  0  0  0  0  0
    3.3647    0.5626    0.1671 C   0  0  0  0  0  0  0  0  0  0  0  0
    2.1013   -0.3285    0.4467 C   0  0  0  0  0  0  0  0  0  0  0  0
    0.8386    0.1241    0.8119 C   0  0  0  0  0  0  0  0  0  0  0  0
   -0.0181   -0.9695    0.9306 N   0  0  0  0  0  4  0  0  0  0  0  0
   -1.4629   -0.9312    1.2195 C   0  0  0  0  0  0  0  0  0  0  0  0
   -2.2683   -1.1302   -0.0821 C   0  0  0  0  0  0  0  0  0  0  0  0
   -1.9235   -2.0176   -0.8649 O   0  0  0  0  0  0  0  0  0  0  0  0
   -3.2736   -0.1732   -0.2914 N   0  0  0  0  0  0  0  0  0  0  0  0
   -4.2099    0.1341    0.7635 C   0  0  0  0  0  0  0  0  0  0  0  0
   -4.5039   -0.8525    1.7307 C   0  0  0  0  0  0  0  0  0  0  0  0
   -5.3964   -0.6086    2.7788 C   0  0  0  0  0  0  0  0  0  0  0  0
   -6.0272    0.6229    2.8763 C   0  0  0  0  0  0  0  0  0  0  0  0
   -5.7788    1.5991    1.9149 C   0  0  0  0  0  0  0  0  0  0  0  0
   -4.8888    1.3573    0.8554 C   0  0  0  0  0  0  0  0  0  0  0  0
   -4.6328    2.6674   -0.3010 S   0  0  0  0  0  0  0  0  0  0  0  0
   -4.0884    1.7194   -1.7009 C   0  0  0  0  0  0  0  0  0  0  0  0
   -4.2322    2.3346   -2.9573 C   0  0  0  0  0  0  0  0  0  0  0  0
   -3.7512    1.7222   -4.1091 C   0  0  0  0  0  0  0  0  0  0  0  0
   -3.1126    0.4963   -4.0085 C   0  0  0  0  0  0  0  0  0  0  0  0
   -2.9619   -0.1175   -2.7590 C   0  0  0  0  0  0  0  0  0  0  0  0
   -3.4554    0.4668   -1.5753 C   0  0  0  0  0  0  0  0  0  0  0  0
    0.6837   -2.0600    0.6350 C   0  0  0  0  0  0  0  0  0  0  0  0
    1.9420   -1.7018    0.3907 N   0  0  0  0  0  0  0  0  0  0  0  0
    2.7851   -2.8537    0.1036 C   0  0  0  0  0  0  0  0  0  0  0  0
    1.9116   -4.0599    0.5445 C   0  0  0  0  0  0  0  0  0  0  0  0
    0.4665   -3.5236    0.5451 C   0  0  0  0  0  0  0  0  0  0  0  0
    3.2976    1.9459    0.3576 C   0  0  0  0  0  0  0  0  0  0  0  0
    4.4183    2.7423    0.1046 C   0  0  0  0  0  0  0  0  0  0  0  0
    8.5440    3.3950   -1.1713 H   0  0  0  0  0  0  0  0  0  0  0  0
    8.3065    1.8613   -0.3202 H   0  0  0  0  0  0  0  0  0  0  0  0
    7.7263    2.0746   -2.0209 H   0  0  0  0  0  0  0  0  0  0  0  0
    6.5846    0.3177   -0.8890 H   0  0  0  0  0  0  0  0  0  0  0  0
    4.6523   -1.0697   -0.4635 H   0  0  0  0  0  0  0  0  0  0  0  0
    0.4297    1.1052    0.9850 H   0  0  0  0  0  0  0  0  0  0  0  0
   -1.6937   -1.7401    1.9198 H   0  0  0  0  0  0  0  0  0  0  0  0
   -1.6827    0.0299    1.6933 H   0  0  0  0  0  0  0  0  0  0  0  0
   -4.0983   -1.8594    1.6585 H   0  0  0  0  0  0  0  0  0  0  0  0
   -5.6196   -1.3890    3.5039 H   0  0  0  0  0  0  0  0  0  0  0  0
   -6.7301    0.8198    3.6836 H   0  0  0  0  0  0  0  0  0  0  0  0
   -6.2959    2.5555    1.9937 H   0  0  0  0  0  0  0  0  0  0  0  0
   -4.7141    3.3079   -3.0448 H   0  0  0  0  0  0  0  0  0  0  0  0
   -3.8716    2.2027   -5.0770 H   0  0  0  0  0  0  0  0  0  0  0  0
   -2.7369    0.0039   -4.9036 H   0  0  0  0  0  0  0  0  0  0  0  0
   -2.4792   -1.0895   -2.7695 H   0  0  0  0  0  0  0  0  0  0  0  0
    2.9866   -2.8836   -0.9709 H   0  0  0  0  0  0  0  0  0  0  0  0
    3.7148   -2.8126    0.6756 H   0  0  0  0  0  0  0  0  0  0  0  0
    2.1885   -4.3440    1.5664 H   0  0  0  0  0  0  0  0  0  0  0  0
    2.0420   -4.9359   -0.0962 H   0  0  0  0  0  0  0  0  0  0  0  0
   -0.0406   -3.7171   -0.4016 H   0  0  0  0  0  0  0  0  0  0  0  0
   -0.1212   -3.8519    1.4029 H   0  0  0  0  0  0  0  0  0  0  0  0
    2.3970    2.4422    0.7055 H   0  0  0  0  0  0  0  0  0  0  0  0
    4.3641    3.8192    0.2557 H   0  0  0  0  0  0  0  0  0  0  0  0
  1  2  1  0
  2  3  1  0
  3  4  2  0
  4  5  1  0
  5  6  2  0
  6  7  1  0
  7  8  2  0
  8  9  1  0
  9 10  1  0
 10 11  1  0
 11 12  2  0
 11 13  1  0
 13 14  1  0
 14 15  2  0
 15 16  1  0
 16 17  2  0
 17 18  1  0
 18 19  2  0
 19 20  1  0
 20 21  1  0
 21 22  2  0
 22 23  1  0
 23 24  2  0
 24 25  1  0
 25 26  2  0
  9 27  2  0
 27 28  1  0
 28 29  1  0
 29 30  1  0
 30 31  1  0
  6 32  1  0
 32 33  2  0
 33  3  1  0
 28  7  1  0
 26 13  1  0
 31 27  1  0
 19 14  1  0
 26 21  1  0
  1 34  1  0
  1 35  1  0
  1 36  1  0
  4 37  1  0
  5 38  1  0
  8 39  1  0
 10 40  1  0
 10 41  1  0
 15 42  1  0
 16 43  1  0
 17 44  1  0
 18 45  1  0
 22 46  1  0
 23 47  1  0
 24 48  1  0
 25 49  1  0
 29 50  1  0
 29 51  1  0
 30 52  1  0
 30 53  1  0
 31 54  1  0
 31 55  1  0
 32 56  1  0
 33 57  1  0
M  CHG  1   9   1
M  END
$$$$
