
     RDKit          3D

 34 36  0  0  0  0  0  0  0  0999 V2000
    5.2221    0.4841   -1.8603 C   0  0  0  0  0  0  0  0  0  0  0  0
    4.6296    0.6161   -0.5507 N   0  0  0  0  0  0  0  0  0  0  0  0
    5.2702    0.9229    0.6092 C   0  0  0  0  0  0  0  0  0  0  0  0
    4.2931    0.9380    1.5712 C   0  0  0  0  0  0  0  0  0  0  0  0
    4.5559    1.3056    3.3871 Br  0  0  0  0  0  0  0  0  0  0  0  0
    3.0776    0.6284    0.9147 C   0  0  0  0  0  0  0  0  0  0  0  0
    1.7114    0.5125    1.4675 C   0  0  0  0  0  0  0  0  0  0  0  0
    1.4828    0.6655    2.6612 O   0  0  0  0  0  0  0  0  0  0  0  0
    0.7936    0.2145    0.4756 N   0  0  0  0  0  0  0  0  0  0  0  0
   -0.5760    0.0455    0.5872 C   0  0  0  0  0  0  0  0  0  0  0  0
   -1.3636    0.2375    2.0967 S   0  0  0  0  0  0  0  0  0  0  0  0
   -2.8445   -0.0603    1.3986 C   0  0  0  0  0  0  0  0  0  0  0  0
   -2.7910   -0.3312    0.0592 C   0  0  0  0  0  0  0  0  0  0  0  0
   -1.4564   -0.2793   -0.4528 C   0  0  0  0  0  0  0  0  0  0  0  0
   -0.9960   -0.4829   -1.8247 C   0  0  0  0  0  0  0  0  0  0  0  0
   -1.8547   -1.1209   -2.6730 N   0  0  0  0  0  0  0  0  0  0  0  0
    0.1169   -0.1512   -2.2235 O   0  0  0  0  0  0  0  0  0  0  0  0
   -4.1637   -0.5439   -0.4762 C   0  0  0  0  0  0  0  0  0  0  0  0
   -5.0217   -0.6926    0.8192 C   0  0  0  0  0  0  0  0  0  0  0  0
   -4.2069   -0.0496    1.9769 C   0  0  0  0  0  0  0  0  0  0  0  0
    3.3059    0.4257   -0.4054 N   0  0  0  0  0  0  0  0  0  0  0  0
    4.7558    1.2160   -2.5244 H   0  0  0  0  0  0  0  0  0  0  0  0
    5.0412   -0.5322   -2.2191 H   0  0  0  0  0  0  0  0  0  0  0  0
    6.2967    0.6711   -1.7940 H   0  0  0  0  0  0  0  0  0  0  0  0
    6.3350    1.1021    0.6547 H   0  0  0  0  0  0  0  0  0  0  0  0
    1.1934    0.1309   -0.4636 H   0  0  0  0  0  0  0  0  0  0  0  0
   -2.5902   -1.7035   -2.3068 H   0  0  0  0  0  0  0  0  0  0  0  0
   -1.4551   -1.3888   -3.5625 H   0  0  0  0  0  0  0  0  0  0  0  0
   -4.4878    0.3292   -1.0522 H   0  0  0  0  0  0  0  0  0  0  0  0
   -4.2588   -1.4413   -1.0911 H   0  0  0  0  0  0  0  0  0  0  0  0
   -5.1623   -1.7607    1.0322 H   0  0  0  0  0  0  0  0  0  0  0  0
   -6.0157   -0.2473    0.7117 H   0  0  0  0  0  0  0  0  0  0  0  0
   -4.5441    0.9755    2.1612 H   0  0  0  0  0  0  0  0  0  0  0  0
   -4.2927   -0.6355    2.8961 H   0  0  0  0  0  0  0  0  0  0  0  0
  1  2  1  0
  2  3  1  0
  3  4  2  0
  4  5  1  0
  4  6  1  0
  6  7  1  0
  7  8  2  0
  7  9  1  0
  9 10  1  0
 10 11  1  0
 11 12  1  0
 12 13  2  0
 13 14  1  0
 14 15  1  0
 15 16  1  0
 15 17  2  0
 13 18  1  0
 18 19  1  0
 19 20  1  0
  6 21  2  0
 21  2  1  0
 14 10  2  0
 20 12  1  0
  1 22  1  0
  1 23  1  0
  1 24  1  0
  3 25  1  0
  9 26  1  0
 16 27  1  0
 16 28  1  0
 18 29  1  0
 18 30  1  0
 19 31  1  0
 19 32  1  0
 20 33  1  0
 20 34  1  0
M  END
$$$$
