
     RDKit          3D

 61 65  0  0  0  0  0  0  0  0999 V2000
   -7.9807   -1.3332    2.2492 C   0  0  0  0  0  0  0  0  0  0  0  0
   -7.7315   -0.5211    1.1102 O   0  0  0  0  0  0  0  0  0  0  0  0
   -6.4480   -0.0780    0.9185 C   0  0  0  0  0  0  0  0  0  0  0  0
   -5.4034   -0.2586    1.8315 C   0  0  0  0  0  0  0  0  0  0  0  0
   -4.1325    0.2521    1.5559 C   0  0  0  0  0  0  0  0  0  0  0  0
   -3.8753    0.9379    0.3610 C   0  0  0  0  0  0  0  0  0  0  0  0
   -2.5410    1.4780    0.1245 C   0  0  0  0  0  0  0  0  0  0  0  0
   -1.5468    1.6297    0.9768 N   0  0  0  0  0  0  0  0  0  0  0  0
   -0.5355    2.2082    0.2358 C   0  0  0  0  0  0  0  0  0  0  0  0
    0.7350    2.5862    0.9065 C   0  0  0  0  0  0  0  0  0  0  0  0
    1.9174    2.2050    0.1538 N   0  0  0  0  0  0  0  0  0  0  0  0
    2.5015    0.9646    0.0925 C   0  0  0  0  0  0  0  0  0  0  0  0
    1.8079   -0.4510    0.8063 S   0  0  0  0  0  0  0  0  0  0  0  0
    3.1855   -1.0216    1.8410 C   0  0  0  0  0  0  0  0  0  0  0  0
    3.9514   -2.1750    1.2425 C   0  0  0  0  0  0  0  0  0  0  0  0
    3.5377   -3.4970    1.4531 C   0  0  0  0  0  0  0  0  0  0  0  0
    4.2724   -4.5654    0.9262 C   0  0  0  0  0  0  0  0  0  0  0  0
    5.4255   -4.3333    0.1668 C   0  0  0  0  0  0  0  0  0  0  0  0
    6.2379   -5.4818   -0.3563 C   0  0  0  0  0  0  0  0  0  0  0  0
    5.8392   -3.0142   -0.0481 C   0  0  0  0  0  0  0  0  0  0  0  0
    5.1026   -1.9456    0.4756 C   0  0  0  0  0  0  0  0  0  0  0  0
    3.6279    0.9858   -0.5787 N   0  0  0  0  0  0  0  0  0  0  0  0
    3.7767    2.2815   -0.9998 C   0  0  0  0  0  0  0  0  0  0  0  0
    4.7869    2.8498   -1.7747 C   0  0  0  0  0  0  0  0  0  0  0  0
    4.6572    4.2036   -2.0312 C   0  0  0  0  0  0  0  0  0  0  0  0
    3.6448    4.9820   -1.5819 N   0  0  0  0  0  0  0  0  0  0  0  0
    2.6687    4.4307   -0.8260 C   0  0  0  0  0  0  0  0  0  0  0  0
    2.7301    3.0742   -0.5442 C   0  0  0  0  0  0  0  0  0  0  0  0
   -0.9718    2.3809   -1.0637 C   0  0  0  0  0  0  0  0  0  0  0  0
   -0.3943    2.9344   -2.3021 C   0  0  0  0  0  0  0  0  0  0  0  0
   -2.2571    1.9203   -1.1402 O   0  0  0  0  0  0  0  0  0  0  0  0
   -4.9218    1.1080   -0.5597 C   0  0  0  0  0  0  0  0  0  0  0  0
   -6.2062    0.6191   -0.2818 C   0  0  0  0  0  0  0  0  0  0  0  0
   -7.2801    0.7520   -1.1280 O   0  0  0  0  0  0  0  0  0  0  0  0
   -7.1944    1.7419   -2.1412 C   0  0  0  0  0  0  0  0  0  0  0  0
   -7.8391   -0.7671    3.1767 H   0  0  0  0  0  0  0  0  0  0  0  0
   -9.0285   -1.6500    2.2112 H   0  0  0  0  0  0  0  0  0  0  0  0
   -7.3611   -2.2371    2.2371 H   0  0  0  0  0  0  0  0  0  0  0  0
   -5.5455   -0.7830    2.7717 H   0  0  0  0  0  0  0  0  0  0  0  0
   -3.3343    0.1071    2.2843 H   0  0  0  0  0  0  0  0  0  0  0  0
    0.8119    2.1264    1.8985 H   0  0  0  0  0  0  0  0  0  0  0  0
    0.7558    3.6690    1.0664 H   0  0  0  0  0  0  0  0  0  0  0  0
    3.8648   -0.1963    2.0887 H   0  0  0  0  0  0  0  0  0  0  0  0
    2.7589   -1.3416    2.8009 H   0  0  0  0  0  0  0  0  0  0  0  0
    2.6439   -3.7046    2.0374 H   0  0  0  0  0  0  0  0  0  0  0  0
    3.9380   -5.5833    1.1136 H   0  0  0  0  0  0  0  0  0  0  0  0
    5.5938   -6.3284   -0.6209 H   0  0  0  0  0  0  0  0  0  0  0  0
    6.9585   -5.8080    0.4017 H   0  0  0  0  0  0  0  0  0  0  0  0
    6.7835   -5.1984   -1.2624 H   0  0  0  0  0  0  0  0  0  0  0  0
    6.7358   -2.8080   -0.6293 H   0  0  0  0  0  0  0  0  0  0  0  0
    5.4352   -0.9281    0.2805 H   0  0  0  0  0  0  0  0  0  0  0  0
    5.6120    2.2631   -2.1560 H   0  0  0  0  0  0  0  0  0  0  0  0
    5.4000    4.7227   -2.6320 H   0  0  0  0  0  0  0  0  0  0  0  0
    1.8768    5.0891   -0.4955 H   0  0  0  0  0  0  0  0  0  0  0  0
   -1.1463    2.9975   -3.0962 H   0  0  0  0  0  0  0  0  0  0  0  0
   -0.0114    3.9444   -2.1286 H   0  0  0  0  0  0  0  0  0  0  0  0
    0.4247    2.3036   -2.6620 H   0  0  0  0  0  0  0  0  0  0  0  0
   -4.7185    1.6231   -1.4930 H   0  0  0  0  0  0  0  0  0  0  0  0
   -6.8535    2.7041   -1.7493 H   0  0  0  0  0  0  0  0  0  0  0  0
   -8.1981    1.8789   -2.5575 H   0  0  0  0  0  0  0  0  0  0  0  0
   -6.5430    1.4091   -2.9560 H   0  0  0  0  0  0  0  0  0  0  0  0
  1  2  1  0
  2  3  1  0
  3  4  2  0
  4  5  1  0
  5  6  2  0
  6  7  1  0
  7  8  2  0
  8  9  1  0
  9 10  1  0
 10 11  1  0
 11 12  1  0
 12 13  1  0
 13 14  1  0
 14 15  1  0
 15 16  2  0
 16 17  1  0
 17 18  2  0
 18 19  1  0
 18 20  1  0
 20 21  2  0
 12 22  2  0
 22 23  1  0
 23 24  2  0
 24 25  1  0
 25 26  2  0
 26 27  1  0
 27 28  2  0
  9 29  2  0
 29 30  1  0
 29 31  1  0
  6 32  1  0
 32 33  2  0
 33 34  1  0
 34 35  1  0
 33  3  1  0
 31  7  1  0
 28 11  1  0
 21 15  1  0
 28 23  1  0
  1 36  1  0
  1 37  1  0
  1 38  1  0
  4 39  1  0
  5 40  1  0
 10 41  1  0
 10 42  1  0
 14 43  1  0
 14 44  1  0
 16 45  1  0
 17 46  1  0
 19 47  1  0
 19 48  1  0
 19 49  1  0
 20 50  1  0
 21 51  1  0
 24 52  1  0
 25 53  1  0
 27 54  1  0
 30 55  1  0
 30 56  1  0
 30 57  1  0
 32 58  1  0
 35 59  1  0
 35 60  1  0
 35 61  1  0
M  END
$$$$
