
     RDKit          3D

 40 42  0  0  0  0  0  0  0  0999 V2000
   -5.9011    0.1232    1.9104 C   0  0  0  0  0  0  0  0  0  0  0  0
   -6.2890    0.9994    0.4075 S   0  0  0  0  0  6  0  0  0  0  0  0
   -5.5628    2.2497    0.4033 O   0  0  0  0  0  0  0  0  0  0  0  0
   -7.7269    0.9636    0.2455 O   0  0  0  0  0  0  0  0  0  0  0  0
   -5.6711   -0.0279   -0.7755 N   0  0  0  0  0  0  0  0  0  0  0  0
   -4.2761   -0.2993   -0.8200 C   0  0  0  0  0  0  0  0  0  0  0  0
   -3.3497    0.7187   -1.0471 C   0  0  0  0  0  0  0  0  0  0  0  0
   -1.9807    0.4335   -1.0761 C   0  0  0  0  0  0  0  0  0  0  0  0
   -1.5346   -0.8774   -0.8676 C   0  0  0  0  0  0  0  0  0  0  0  0
   -0.0862   -1.2351   -0.8901 C   0  0  0  0  0  0  0  0  0  0  0  0
    0.2242   -2.3493   -1.2938 O   0  0  0  0  0  0  0  0  0  0  0  0
    0.7662   -0.2614   -0.4022 N   0  0  0  0  0  0  0  0  0  0  0  0
    2.1757   -0.3112   -0.3394 C   0  0  0  0  0  0  0  0  0  0  0  0
    2.9445   -1.3552   -0.8609 C   0  0  0  0  0  0  0  0  0  0  0  0
    4.3403   -1.3317   -0.7575 C   0  0  0  0  0  0  0  0  0  0  0  0
    4.9755   -0.2643   -0.1319 C   0  0  0  0  0  0  0  0  0  0  0  0
    4.2178    0.7981    0.3642 C   0  0  0  0  0  0  0  0  0  0  0  0
    2.8254    0.7686    0.2734 C   0  0  0  0  0  0  0  0  0  0  0  0
    4.7720    1.9021    0.9618 O   0  0  0  0  0  0  0  0  0  0  0  0
    6.1776    1.9868    0.6967 C   0  0  0  0  0  0  0  0  0  0  0  0
    6.8444    0.6355    0.8949 C   0  0  0  0  0  0  0  0  0  0  0  0
    6.3424   -0.3186   -0.0476 O   0  0  0  0  0  0  0  0  0  0  0  0
   -2.4709   -1.9004   -0.6652 C   0  0  0  0  0  0  0  0  0  0  0  0
   -3.8383   -1.6117   -0.6399 C   0  0  0  0  0  0  0  0  0  0  0  0
   -6.3277   -0.8801    1.8565 H   0  0  0  0  0  0  0  0  0  0  0  0
   -4.8184    0.0872    2.0402 H   0  0  0  0  0  0  0  0  0  0  0  0
   -6.3516    0.6712    2.7411 H   0  0  0  0  0  0  0  0  0  0  0  0
   -6.3094   -0.7900   -1.0036 H   0  0  0  0  0  0  0  0  0  0  0  0
   -3.6840    1.7385   -1.2283 H   0  0  0  0  0  0  0  0  0  0  0  0
   -1.2866    1.2400   -1.2972 H   0  0  0  0  0  0  0  0  0  0  0  0
    0.3435    0.5557    0.0183 H   0  0  0  0  0  0  0  0  0  0  0  0
    2.4896   -2.2071   -1.3568 H   0  0  0  0  0  0  0  0  0  0  0  0
    4.9255   -2.1546   -1.1592 H   0  0  0  0  0  0  0  0  0  0  0  0
    2.2623    1.6036    0.6800 H   0  0  0  0  0  0  0  0  0  0  0  0
    6.3174    2.3575   -0.3264 H   0  0  0  0  0  0  0  0  0  0  0  0
    6.6011    2.7228    1.3872 H   0  0  0  0  0  0  0  0  0  0  0  0
    6.6745    0.2483    1.9073 H   0  0  0  0  0  0  0  0  0  0  0  0
    7.9244    0.7196    0.7385 H   0  0  0  0  0  0  0  0  0  0  0  0
   -2.1339   -2.9270   -0.5289 H   0  0  0  0  0  0  0  0  0  0  0  0
   -4.5451   -2.4213   -0.4804 H   0  0  0  0  0  0  0  0  0  0  0  0
  1  2  1  0
  2  3  2  0
  2  4  2  0
  2  5  1  0
  5  6  1  0
  6  7  2  0
  7  8  1  0
  8  9  2  0
  9 10  1  0
 10 11  2  0
 10 12  1  0
 12 13  1  0
 13 14  2  0
 14 15  1  0
 15 16  2  0
 16 17  1  0
 17 18  2  0
 17 19  1  0
 19 20  1  0
 20 21  1  0
 21 22  1  0
  9 23  1  0
 23 24  2  0
 24  6  1  0
 18 13  1  0
 22 16  1  0
  1 25  1  0
  1 26  1  0
  1 27  1  0
  5 28  1  0
  7 29  1  0
  8 30  1  0
 12 31  1  0
 14 32  1  0
 15 33  1  0
 18 34  1  0
 20 35  1  0
 20 36  1  0
 21 37  1  0
 21 38  1  0
 23 39  1  0
 24 40  1  0
M  END
$$$$
