
     RDKit          3D

 57 59  0  0  0  0  0  0  0  0999 V2000
   11.7777    0.0966   -2.1307 C   0  0  0  0  0  0  0  0  0  0  0  0
   10.8628   -0.8787   -1.6445 O   0  0  0  0  0  0  0  0  0  0  0  0
    9.5358   -0.5596   -1.6803 C   0  0  0  0  0  0  0  0  0  0  0  0
    8.6841   -1.5520   -1.1939 C   0  0  0  0  0  0  0  0  0  0  0  0
    7.3018   -1.3510   -1.1729 C   0  0  0  0  0  0  0  0  0  0  0  0
    6.7510   -0.1577   -1.6418 C   0  0  0  0  0  0  0  0  0  0  0  0
    5.3902   -0.0819   -1.5564 O   0  0  0  0  0  0  0  0  0  0  0  0
    4.7491    0.9605   -2.2993 C   0  0  0  0  0  0  0  0  0  0  0  0
    3.2387    0.7341   -2.2838 C   0  0  0  0  0  0  0  0  0  0  0  0
    2.5368    1.1001   -0.6358 S   0  0  0  0  0  0  0  0  0  0  0  0
    0.8643    0.7980   -0.9483 C   0  0  0  0  0  0  0  0  0  0  0  0
    0.3491    0.3542   -2.0702 N   0  0  0  0  0  0  0  0  0  0  0  0
   -1.0089    0.2644   -1.8971 N   0  0  0  0  0  0  0  0  0  0  0  0
   -1.2977    0.6611   -0.6721 C   0  0  0  0  0  0  0  0  0  0  0  0
   -2.6654    0.7275   -0.0853 C   0  0  0  0  0  0  0  0  0  0  0  0
   -3.0191   -0.5687    0.6463 C   0  0  0  0  0  0  0  0  0  0  0  0
   -4.2432   -0.4607    1.4249 N   0  0  0  0  0  0  0  0  0  0  0  0
   -5.4796   -0.4646    0.8084 C   0  0  0  0  0  0  0  0  0  0  0  0
   -5.6253   -0.4680   -0.4083 O   0  0  0  0  0  0  0  0  0  0  0  0
   -6.6675   -0.5062    1.7048 C   0  0  0  0  0  0  0  0  0  0  0  0
   -6.6507    0.0443    2.9889 C   0  0  0  0  0  0  0  0  0  0  0  0
   -7.8000   -0.0144    3.7838 C   0  0  0  0  0  0  0  0  0  0  0  0
   -8.9728   -0.6092    3.3067 C   0  0  0  0  0  0  0  0  0  0  0  0
  -10.0206   -0.5941    4.1862 O   0  0  0  0  0  0  0  0  0  0  0  0
  -11.2563   -1.1136    3.7159 C   0  0  0  0  0  0  0  0  0  0  0  0
   -8.9899   -1.1492    2.0196 C   0  0  0  0  0  0  0  0  0  0  0  0
   -7.8435   -1.0929    1.2207 C   0  0  0  0  0  0  0  0  0  0  0  0
   -0.1282    0.9982   -0.0286 N   0  0  0  0  0  0  0  0  0  0  0  0
    0.0339    1.4597    1.3269 C   0  0  0  0  0  0  0  0  0  0  0  0
    7.6000    0.8385   -2.1219 C   0  0  0  0  0  0  0  0  0  0  0  0
    8.9887    0.6380   -2.1426 C   0  0  0  0  0  0  0  0  0  0  0  0
   12.7829   -0.3225   -2.0504 H   0  0  0  0  0  0  0  0  0  0  0  0
   11.7493    1.0050   -1.5204 H   0  0  0  0  0  0  0  0  0  0  0  0
   11.5969    0.3206   -3.1853 H   0  0  0  0  0  0  0  0  0  0  0  0
    9.0974   -2.4894   -0.8249 H   0  0  0  0  0  0  0  0  0  0  0  0
    6.6524   -2.1326   -0.7854 H   0  0  0  0  0  0  0  0  0  0  0  0
    4.9955    1.9424   -1.8758 H   0  0  0  0  0  0  0  0  0  0  0  0
    5.0864    0.9233   -3.3456 H   0  0  0  0  0  0  0  0  0  0  0  0
    3.0117   -0.3071   -2.5374 H   0  0  0  0  0  0  0  0  0  0  0  0
    2.7636    1.3951   -3.0141 H   0  0  0  0  0  0  0  0  0  0  0  0
   -3.3874    0.9122   -0.8878 H   0  0  0  0  0  0  0  0  0  0  0  0
   -2.7522    1.5842    0.5918 H   0  0  0  0  0  0  0  0  0  0  0  0
   -2.2268   -0.8411    1.3530 H   0  0  0  0  0  0  0  0  0  0  0  0
   -3.1277   -1.3964   -0.0642 H   0  0  0  0  0  0  0  0  0  0  0  0
   -4.2006   -0.7113    2.4046 H   0  0  0  0  0  0  0  0  0  0  0  0
   -5.7706    0.5487    3.3762 H   0  0  0  0  0  0  0  0  0  0  0  0
   -7.7903    0.4224    4.7808 H   0  0  0  0  0  0  0  0  0  0  0  0
  -11.1716   -2.1833    3.4969 H   0  0  0  0  0  0  0  0  0  0  0  0
  -11.9964   -0.9919    4.5139 H   0  0  0  0  0  0  0  0  0  0  0  0
  -11.6130   -0.5544    2.8446 H   0  0  0  0  0  0  0  0  0  0  0  0
   -9.8773   -1.6176    1.6030 H   0  0  0  0  0  0  0  0  0  0  0  0
   -7.8710   -1.5086    0.2145 H   0  0  0  0  0  0  0  0  0  0  0  0
    0.4203    2.4808    1.3050 H   0  0  0  0  0  0  0  0  0  0  0  0
    0.7277    0.7929    1.8462 H   0  0  0  0  0  0  0  0  0  0  0  0
   -0.9204    1.4438    1.8560 H   0  0  0  0  0  0  0  0  0  0  0  0
    7.2143    1.7903   -2.4719 H   0  0  0  0  0  0  0  0  0  0  0  0
    9.6114    1.4418   -2.5221 H   0  0  0  0  0  0  0  0  0  0  0  0
  1  2  1  0
  2  3  1  0
  3  4  2  0
  4  5  1  0
  5  6  2  0
  6  7  1  0
  7  8  1  0
  8  9  1  0
  9 10  1  0
 10 11  1  0
 11 12  2  0
 12 13  1  0
 13 14  2  0
 14 15  1  0
 15 16  1  0
 16 17  1  0
 17 18  1  0
 18 19  2  0
 18 20  1  0
 20 21  2  0
 21 22  1  0
 22 23  2  0
 23 24  1  0
 24 25  1  0
 23 26  1  0
 26 27  2  0
 14 28  1  0
 28 29  1  0
  6 30  1  0
 30 31  2  0
 31  3  1  0
 28 11  1  0
 27 20  1  0
  1 32  1  0
  1 33  1  0
  1 34  1  0
  4 35  1  0
  5 36  1  0
  8 37  1  0
  8 38  1  0
  9 39  1  0
  9 40  1  0
 15 41  1  0
 15 42  1  0
 16 43  1  0
 16 44  1  0
 17 45  1  0
 21 46  1  0
 22 47  1  0
 25 48  1  0
 25 49  1  0
 25 50  1  0
 26 51  1  0
 27 52  1  0
 29 53  1  0
 29 54  1  0
 29 55  1  0
 30 56  1  0
 31 57  1  0
M  END
$$$$
