
     RDKit          3D

 36 37  0  0  0  0  0  0  0  0999 V2000
    7.6948    0.1466    0.3102 C   0  0  0  0  0  0  0  0  0  0  0  0
    6.3305   -0.1834   -0.2430 C   0  0  0  0  0  0  0  0  0  0  0  0
    6.2123   -0.7230   -1.3368 O   0  0  0  0  0  0  0  0  0  0  0  0
    5.3115    0.2198    0.6018 N   0  0  0  0  0  0  0  0  0  0  0  0
    3.9236    0.0678    0.4047 C   0  0  0  0  0  0  0  0  0  0  0  0
    3.3561   -0.5675   -0.7011 C   0  0  0  0  0  0  0  0  0  0  0  0
    1.9653   -0.6800   -0.8207 C   0  0  0  0  0  0  0  0  0  0  0  0
    1.1241   -0.1470    0.1605 C   0  0  0  0  0  0  0  0  0  0  0  0
   -0.3505   -0.2906   -0.0054 C   0  0  0  0  0  0  0  0  0  0  0  0
   -0.7879   -1.2580   -0.6200 O   0  0  0  0  0  0  0  0  0  0  0  0
   -1.1030    0.7437    0.5442 N   0  0  0  0  0  0  0  0  0  0  0  0
   -2.4591    0.8963    0.4012 N   0  0  0  0  0  0  0  0  0  0  0  0
   -3.1926   -0.1721    0.3865 C   0  0  0  0  0  0  0  0  0  0  0  0
   -4.6556   -0.1036    0.1874 C   0  0  0  0  0  0  0  0  0  0  0  0
   -5.3886   -1.2964    0.1764 C   0  0  0  0  0  0  0  0  0  0  0  0
   -6.7719   -1.2557   -0.0085 C   0  0  0  0  0  0  0  0  0  0  0  0
   -7.4067   -0.0292   -0.1804 C   0  0  0  0  0  0  0  0  0  0  0  0
   -8.7338    0.0060   -0.3567 F   0  0  0  0  0  0  0  0  0  0  0  0
   -6.6856    1.1604   -0.1727 C   0  0  0  0  0  0  0  0  0  0  0  0
   -5.3023    1.1258    0.0114 C   0  0  0  0  0  0  0  0  0  0  0  0
    1.6859    0.4767    1.2796 C   0  0  0  0  0  0  0  0  0  0  0  0
    3.0770    0.5837    1.3958 C   0  0  0  0  0  0  0  0  0  0  0  0
    7.7204    0.0129    1.3955 H   0  0  0  0  0  0  0  0  0  0  0  0
    8.4374   -0.5247   -0.1308 H   0  0  0  0  0  0  0  0  0  0  0  0
    7.9460    1.1808    0.0607 H   0  0  0  0  0  0  0  0  0  0  0  0
    5.5905    0.6883    1.4544 H   0  0  0  0  0  0  0  0  0  0  0  0
    3.9657   -0.9953   -1.4916 H   0  0  0  0  0  0  0  0  0  0  0  0
    1.5442   -1.1854   -1.6885 H   0  0  0  0  0  0  0  0  0  0  0  0
   -0.6272    1.6232    0.7199 H   0  0  0  0  0  0  0  0  0  0  0  0
   -2.7798   -1.1822    0.5500 H   0  0  0  0  0  0  0  0  0  0  0  0
   -4.8936   -2.2559    0.3050 H   0  0  0  0  0  0  0  0  0  0  0  0
   -7.3577   -2.1695   -0.0220 H   0  0  0  0  0  0  0  0  0  0  0  0
   -7.2028    2.1045   -0.3114 H   0  0  0  0  0  0  0  0  0  0  0  0
   -4.7356    2.0537    0.0151 H   0  0  0  0  0  0  0  0  0  0  0  0
    1.0619    0.8594    2.0831 H   0  0  0  0  0  0  0  0  0  0  0  0
    3.4871    1.0698    2.2779 H   0  0  0  0  0  0  0  0  0  0  0  0
  1  2  1  0
  2  3  2  0
  2  4  1  0
  4  5  1  0
  5  6  2  0
  6  7  1  0
  7  8  2  0
  8  9  1  0
  9 10  2  0
  9 11  1  0
 11 12  1  0
 12 13  2  3
 13 14  1  0
 14 15  2  0
 15 16  1  0
 16 17  2  0
 17 18  1  0
 17 19  1  0
 19 20  2  0
  8 21  1  0
 21 22  2  0
 22  5  1  0
 20 14  1  0
  1 23  1  0
  1 24  1  0
  1 25  1  0
  4 26  1  0
  6 27  1  0
  7 28  1  0
 11 29  1  0
 13 30  1  0
 15 31  1  0
 16 32  1  0
 19 33  1  0
 20 34  1  0
 21 35  1  0
 22 36  1  0
M  END
$$$$
