
     RDKit          3D

 31 32  0  0  0  0  0  0  0  0999 V2000
    3.8230   -0.3340    1.8037 C   0  0  0  0  0  0  0  0  0  0  0  0
    2.9031   -1.2217    0.9777 C   0  0  0  0  0  0  0  0  0  0  0  0
    2.6188   -0.6510   -0.3362 N   0  0  0  0  0  0  0  0  0  0  0  0
    1.4811   -0.0464   -0.7879 C   0  0  0  0  0  0  0  0  0  0  0  0
    0.3106    0.2617    0.0117 C   0  0  0  0  0  0  0  0  0  0  0  0
    0.3101    0.6950    1.3229 C   0  0  0  0  0  0  0  0  0  0  0  0
   -1.2586    0.9683    1.9449 S   0  0  0  0  0  0  0  0  0  0  0  0
   -1.9915    0.5647    0.4532 C   0  0  0  0  0  0  0  0  0  0  0  0
   -3.4939    0.6234    0.3051 C   0  0  0  0  0  0  0  0  0  0  0  0
   -3.9000    1.6560   -0.7482 C   0  0  0  0  0  0  0  0  0  0  0  0
   -4.0639   -0.7538   -0.0394 C   0  0  0  0  0  0  0  0  0  0  0  0
   -1.0393    0.2214   -0.4873 C   0  0  0  0  0  0  0  0  0  0  0  0
    1.4844    0.2348   -2.0620 N   0  0  0  0  0  0  0  0  0  0  0  0
    2.7039   -0.1881   -2.4962 N   0  0  0  0  0  0  0  0  0  0  0  0
    3.4151   -0.7600   -1.4543 C   0  0  0  0  0  0  0  0  0  0  0  0
    4.9177   -1.4339   -1.6430 S   0  0  0  0  0  0  0  0  0  0  0  0
    4.8088   -0.2382    1.3390 H   0  0  0  0  0  0  0  0  0  0  0  0
    3.4173    0.6757    1.9135 H   0  0  0  0  0  0  0  0  0  0  0  0
    3.9626   -0.7599    2.8021 H   0  0  0  0  0  0  0  0  0  0  0  0
    3.3764   -2.2000    0.8398 H   0  0  0  0  0  0  0  0  0  0  0  0
    1.9671   -1.3982    1.5140 H   0  0  0  0  0  0  0  0  0  0  0  0
    1.1526    0.8863    1.9689 H   0  0  0  0  0  0  0  0  0  0  0  0
   -3.9436    0.9339    1.2577 H   0  0  0  0  0  0  0  0  0  0  0  0
   -3.5251    1.3902   -1.7430 H   0  0  0  0  0  0  0  0  0  0  0  0
   -4.9906    1.7351   -0.8115 H   0  0  0  0  0  0  0  0  0  0  0  0
   -3.5056    2.6472   -0.4977 H   0  0  0  0  0  0  0  0  0  0  0  0
   -3.6959   -1.1154   -1.0062 H   0  0  0  0  0  0  0  0  0  0  0  0
   -5.1575   -0.7180   -0.0897 H   0  0  0  0  0  0  0  0  0  0  0  0
   -3.7869   -1.4937    0.7200 H   0  0  0  0  0  0  0  0  0  0  0  0
   -1.2886   -0.0592   -1.5053 H   0  0  0  0  0  0  0  0  0  0  0  0
    2.9884   -0.1223   -3.4662 H   0  0  0  0  0  0  0  0  0  0  0  0
  1  2  1  0
  2  3  1  0
  3  4  1  0
  4  5  1  0
  5  6  2  0
  6  7  1  0
  7  8  1  0
  8  9  1  0
  9 10  1  0
  9 11  1  0
  8 12  2  0
  4 13  2  0
 13 14  1  0
 14 15  1  0
 15 16  2  0
 15  3  1  0
 12  5  1  0
  1 17  1  0
  1 18  1  0
  1 19  1  0
  2 20  1  0
  2 21  1  0
  6 22  1  0
  9 23  1  0
 10 24  1  0
 10 25  1  0
 10 26  1  0
 11 27  1  0
 11 28  1  0
 11 29  1  0
 12 30  1  0
 14 31  1  0
M  END
$$$$
