
     RDKit          3D

 60 62  0  0  0  0  0  0  0  0999 V2000
   -8.5197    0.2249   -2.4522 C   0  0  0  0  0  0  0  0  0  0  0  0
   -7.9379    1.3119   -1.5601 C   0  0  0  0  0  0  0  0  0  0  0  0
   -6.5268    0.9947   -1.1372 C   0  0  0  0  0  0  0  0  0  0  0  0
   -5.4376    1.4928   -1.8586 C   0  0  0  0  0  0  0  0  0  0  0  0
   -4.1309    1.1827   -1.4700 C   0  0  0  0  0  0  0  0  0  0  0  0
   -3.8875    0.3655   -0.3593 C   0  0  0  0  0  0  0  0  0  0  0  0
   -2.5399    0.1070   -0.0402 N   0  0  0  0  0  0  0  0  0  0  0  0
   -2.0387   -0.6946    0.9763 C   0  0  0  0  0  0  0  0  0  0  0  0
   -2.7136   -1.3301    1.7797 O   0  0  0  0  0  0  0  0  0  0  0  0
   -0.4905   -0.7137    0.9997 C   0  0  0  0  0  0  0  0  0  0  0  0
    0.0039   -1.3447   -0.2435 N   0  0  0  0  0  0  0  0  0  0  0  0
    0.5445   -0.4077   -1.5101 S   0  0  0  0  0  6  0  0  0  0  0  0
   -0.2939    0.7724   -1.5515 O   0  0  0  0  0  0  0  0  0  0  0  0
    0.6748   -1.2881   -2.6480 O   0  0  0  0  0  0  0  0  0  0  0  0
    2.1719    0.0413   -0.9712 C   0  0  0  0  0  0  0  0  0  0  0  0
    2.3989    1.3135   -0.4200 C   0  0  0  0  0  0  0  0  0  0  0  0
    3.6828    1.6754    0.0030 C   0  0  0  0  0  0  0  0  0  0  0  0
    4.7146    0.7609   -0.1430 C   0  0  0  0  0  0  0  0  0  0  0  0
    4.4825   -0.4951   -0.7081 C   0  0  0  0  0  0  0  0  0  0  0  0
    3.2173   -0.8740   -1.1329 C   0  0  0  0  0  0  0  0  0  0  0  0
    5.7414   -1.2950   -0.7994 C   0  0  0  0  0  0  0  0  0  0  0  0
    6.7587   -0.3709   -0.1179 C   0  0  0  0  0  0  0  0  0  0  0  0
    6.0711    0.8908    0.2053 N   0  0  0  0  0  0  0  0  0  0  0  0
    6.6537    2.0010    0.7895 C   0  0  0  0  0  0  0  0  0  0  0  0
    8.1314    1.8787    1.0755 C   0  0  0  0  0  0  0  0  0  0  0  0
    6.0643    3.0422    1.0744 O   0  0  0  0  0  0  0  0  0  0  0  0
    0.1677   -1.4230    2.2072 C   0  0  0  0  0  0  0  0  0  0  0  0
   -0.1447   -2.9180    2.3284 C   0  0  0  0  0  0  0  0  0  0  0  0
   -0.1444   -0.7035    3.5230 C   0  0  0  0  0  0  0  0  0  0  0  0
   -4.9735   -0.1360    0.3561 C   0  0  0  0  0  0  0  0  0  0  0  0
   -6.2827    0.1742   -0.0301 C   0  0  0  0  0  0  0  0  0  0  0  0
   -9.5390    0.4876   -2.7526 H   0  0  0  0  0  0  0  0  0  0  0  0
   -7.9208    0.0921   -3.3602 H   0  0  0  0  0  0  0  0  0  0  0  0
   -8.5580   -0.7387   -1.9315 H   0  0  0  0  0  0  0  0  0  0  0  0
   -8.5667    1.4387   -0.6704 H   0  0  0  0  0  0  0  0  0  0  0  0
   -7.9605    2.2729   -2.0880 H   0  0  0  0  0  0  0  0  0  0  0  0
   -5.5969    2.1248   -2.7291 H   0  0  0  0  0  0  0  0  0  0  0  0
   -3.3063    1.5861   -2.0526 H   0  0  0  0  0  0  0  0  0  0  0  0
   -1.8529    0.5517   -0.6520 H   0  0  0  0  0  0  0  0  0  0  0  0
   -0.1663    0.3345    1.0371 H   0  0  0  0  0  0  0  0  0  0  0  0
   -0.3504   -2.2668   -0.5008 H   0  0  0  0  0  0  0  0  0  0  0  0
    1.5866    2.0303   -0.3179 H   0  0  0  0  0  0  0  0  0  0  0  0
    3.8471    2.6594    0.4307 H   0  0  0  0  0  0  0  0  0  0  0  0
    3.0472   -1.8485   -1.5819 H   0  0  0  0  0  0  0  0  0  0  0  0
    6.0135   -1.4748   -1.8454 H   0  0  0  0  0  0  0  0  0  0  0  0
    5.6548   -2.2501   -0.2722 H   0  0  0  0  0  0  0  0  0  0  0  0
    7.1321   -0.8133    0.8124 H   0  0  0  0  0  0  0  0  0  0  0  0
    7.6161   -0.1678   -0.7681 H   0  0  0  0  0  0  0  0  0  0  0  0
    8.3239    1.0301    1.7364 H   0  0  0  0  0  0  0  0  0  0  0  0
    8.4795    2.7855    1.5794 H   0  0  0  0  0  0  0  0  0  0  0  0
    8.6887    1.7697    0.1417 H   0  0  0  0  0  0  0  0  0  0  0  0
    1.2554   -1.3481    2.0627 H   0  0  0  0  0  0  0  0  0  0  0  0
   -1.2011   -3.1085    2.5344 H   0  0  0  0  0  0  0  0  0  0  0  0
    0.4302   -3.3580    3.1511 H   0  0  0  0  0  0  0  0  0  0  0  0
    0.1294   -3.4606    1.4189 H   0  0  0  0  0  0  0  0  0  0  0  0
   -1.2005   -0.7882    3.7968 H   0  0  0  0  0  0  0  0  0  0  0  0
    0.4455   -1.1289    4.3429 H   0  0  0  0  0  0  0  0  0  0  0  0
    0.1054    0.3606    3.4544 H   0  0  0  0  0  0  0  0  0  0  0  0
   -4.8420   -0.7745    1.2233 H   0  0  0  0  0  0  0  0  0  0  0  0
   -7.1115   -0.2328    0.5452 H   0  0  0  0  0  0  0  0  0  0  0  0
  1  2  1  0
  2  3  1  0
  3  4  2  0
  4  5  1  0
  5  6  2  0
  6  7  1  0
  7  8  1  0
  8  9  2  0
  8 10  1  0
 10 11  1  0
 11 12  1  0
 12 13  2  0
 12 14  2  0
 12 15  1  0
 15 16  2  0
 16 17  1  0
 17 18  2  0
 18 19  1  0
 19 20  2  0
 19 21  1  0
 21 22  1  0
 22 23  1  0
 23 24  1  0
 24 25  1  0
 24 26  2  0
 10 27  1  0
 27 28  1  0
 27 29  1  0
  6 30  1  0
 30 31  2  0
 31  3  1  0
 20 15  1  0
 23 18  1  0
  1 32  1  0
  1 33  1  0
  1 34  1  0
  2 35  1  0
  2 36  1  0
  4 37  1  0
  5 38  1  0
  7 39  1  0
 10 40  1  0
 11 41  1  0
 16 42  1  0
 17 43  1  0
 20 44  1  0
 21 45  1  0
 21 46  1  0
 22 47  1  0
 22 48  1  0
 25 49  1  0
 25 50  1  0
 25 51  1  0
 27 52  1  0
 28 53  1  0
 28 54  1  0
 28 55  1  0
 29 56  1  0
 29 57  1  0
 29 58  1  0
 30 59  1  0
 31 60  1  0
M  END
$$$$
