
     RDKit          3D

 74 75  0  0  0  0  0  0  0  0999 V2000
   -2.9001    5.4251    3.5120 C   0  0  0  0  0  0  0  0  0  0  0  0
   -1.8522    4.5763    3.9792 O   0  0  0  0  0  0  0  0  0  0  0  0
   -1.1238    4.0421    2.9491 C   0  0  0  0  0  0  0  0  0  0  0  0
   -0.4801    4.8656    2.0285 C   0  0  0  0  0  0  0  0  0  0  0  0
    0.2290    4.2947    0.9765 C   0  0  0  0  0  0  0  0  0  0  0  0
    0.2881    2.9043    0.8376 C   0  0  0  0  0  0  0  0  0  0  0  0
   -0.3438    2.0449    1.7522 C   0  0  0  0  0  0  0  0  0  0  0  0
   -0.3083    0.5169    1.6065 C   0  0  0  0  0  0  0  0  0  0  0  0
   -1.6212   -0.1823    1.0733 C   0  0  0  0  0  0  0  0  0  0  0  0
   -1.5852   -1.2386    0.4385 O   0  0  0  0  0  0  0  0  0  0  0  0
   -2.8145    0.3706    1.4961 N   0  0  0  0  0  0  0  0  0  0  0  0
   -4.1619   -0.0541    1.1001 C   0  0  0  0  0  0  0  0  0  0  0  0
   -5.1781    0.7180    1.9703 C   0  0  0  0  0  0  0  0  0  0  0  0
   -4.4134    0.2985   -0.3760 C   0  0  0  0  0  0  0  0  0  0  0  0
   -4.3911   -1.5592    1.3269 C   0  0  0  0  0  0  0  0  0  0  0  0
    0.9441   -0.0272    0.9796 N   0  0  0  0  0  0  0  0  0  0  0  0
    0.8754   -0.1223   -0.4184 C   0  0  0  0  0  0  0  0  0  0  0  0
    0.0864    0.5678   -1.0743 O   0  0  0  0  0  0  0  0  0  0  0  0
    1.7818   -1.0789   -1.1584 C   0  0  0  0  0  0  0  0  0  0  0  0
    1.2767   -1.3343   -2.5778 C   0  0  0  0  0  0  0  0  0  0  0  0
    2.2115   -2.2459   -3.3459 C   0  0  0  0  0  0  0  0  0  0  0  0
    3.0847   -2.9106   -2.7960 O   0  0  0  0  0  0  0  0  0  0  0  0
    1.9543   -2.2240   -4.6989 N   0  0  0  0  0  0  0  0  0  0  0  0
    2.6655   -2.9149   -5.6552 C   0  0  0  0  0  0  0  0  0  0  0  0
    3.6950   -3.8703   -5.4932 C   0  0  0  0  0  0  0  0  0  0  0  0
    4.0576   -4.2071   -6.7724 C   0  0  0  0  0  0  0  0  0  0  0  0
    5.0838   -5.0866   -7.3501 C   0  0  0  0  0  0  0  0  0  0  0  0
    3.2997   -3.4986   -7.6513 O   0  0  0  0  0  0  0  0  0  0  0  0
    2.4133   -2.7005   -6.9523 N   0  0  0  0  0  0  0  0  0  0  0  0
    1.9901   -0.6230    1.9034 C   0  0  0  0  0  0  0  0  0  0  0  0
    3.4127   -0.6555    1.2998 C   0  0  0  0  0  0  0  0  0  0  0  0
    2.1480    0.2270    3.1956 C   0  0  0  0  0  0  0  0  0  0  0  0
    1.5778   -2.0473    2.3096 C   0  0  0  0  0  0  0  0  0  0  0  0
   -1.0129    2.6432    2.8430 C   0  0  0  0  0  0  0  0  0  0  0  0
   -1.6389    1.7979    3.7313 O   0  0  0  0  0  0  0  0  0  0  0  0
   -1.2125    2.0122    5.0790 C   0  0  0  0  0  0  0  0  0  0  0  0
   -3.6412    5.5222    4.3129 H   0  0  0  0  0  0  0  0  0  0  0  0
   -3.4045    5.0117    2.6314 H   0  0  0  0  0  0  0  0  0  0  0  0
   -2.5125    6.4254    3.2955 H   0  0  0  0  0  0  0  0  0  0  0  0
   -0.5174    5.9464    2.1199 H   0  0  0  0  0  0  0  0  0  0  0  0
    0.7337    4.9296    0.2538 H   0  0  0  0  0  0  0  0  0  0  0  0
    0.8468    2.5137   -0.0086 H   0  0  0  0  0  0  0  0  0  0  0  0
   -0.3007    0.1151    2.6241 H   0  0  0  0  0  0  0  0  0  0  0  0
   -2.7565    1.1441    2.1520 H   0  0  0  0  0  0  0  0  0  0  0  0
   -4.9958    0.5135    3.0346 H   0  0  0  0  0  0  0  0  0  0  0  0
   -6.2107    0.4330    1.7396 H   0  0  0  0  0  0  0  0  0  0  0  0
   -5.0841    1.7987    1.8235 H   0  0  0  0  0  0  0  0  0  0  0  0
   -3.7375   -0.2445   -1.0477 H   0  0  0  0  0  0  0  0  0  0  0  0
   -5.4454    0.0572   -0.6664 H   0  0  0  0  0  0  0  0  0  0  0  0
   -4.2548    1.3661   -0.5583 H   0  0  0  0  0  0  0  0  0  0  0  0
   -5.4450   -1.8200    1.1880 H   0  0  0  0  0  0  0  0  0  0  0  0
   -4.0982   -1.8516    2.3428 H   0  0  0  0  0  0  0  0  0  0  0  0
   -3.8150   -2.1744    0.6273 H   0  0  0  0  0  0  0  0  0  0  0  0
    1.8296   -2.0311   -0.6260 H   0  0  0  0  0  0  0  0  0  0  0  0
    2.7784   -0.6320   -1.2295 H   0  0  0  0  0  0  0  0  0  0  0  0
    1.1866   -0.3858   -3.1210 H   0  0  0  0  0  0  0  0  0  0  0  0
    0.2848   -1.8007   -2.5520 H   0  0  0  0  0  0  0  0  0  0  0  0
    1.2758   -1.5757   -5.0805 H   0  0  0  0  0  0  0  0  0  0  0  0
    4.1326   -4.2378   -4.5793 H   0  0  0  0  0  0  0  0  0  0  0  0
    4.6952   -5.6206   -8.2246 H   0  0  0  0  0  0  0  0  0  0  0  0
    5.4208   -5.8283   -6.6183 H   0  0  0  0  0  0  0  0  0  0  0  0
    5.9526   -4.4996   -7.6629 H   0  0  0  0  0  0  0  0  0  0  0  0
    3.6382    0.2761    0.7742 H   0  0  0  0  0  0  0  0  0  0  0  0
    4.1767   -0.7863    2.0760 H   0  0  0  0  0  0  0  0  0  0  0  0
    3.5597   -1.4932    0.6193 H   0  0  0  0  0  0  0  0  0  0  0  0
    2.3406    1.2753    2.9518 H   0  0  0  0  0  0  0  0  0  0  0  0
    2.9859   -0.1292    3.8033 H   0  0  0  0  0  0  0  0  0  0  0  0
    1.2745    0.1878    3.8506 H   0  0  0  0  0  0  0  0  0  0  0  0
    0.6136   -2.0504    2.8304 H   0  0  0  0  0  0  0  0  0  0  0  0
    1.4652   -2.7061    1.4412 H   0  0  0  0  0  0  0  0  0  0  0  0
    2.3207   -2.4987    2.9801 H   0  0  0  0  0  0  0  0  0  0  0  0
   -1.9532    2.6181    5.6114 H   0  0  0  0  0  0  0  0  0  0  0  0
   -1.1607    1.0350    5.5664 H   0  0  0  0  0  0  0  0  0  0  0  0
   -0.2165    2.4731    5.1464 H   0  0  0  0  0  0  0  0  0  0  0  0
  1  2  1  0
  2  3  1  0
  3  4  2  0
  4  5  1  0
  5  6  2  0
  6  7  1  0
  7  8  1  0
  8  9  1  0
  9 10  2  0
  9 11  1  0
 11 12  1  0
 12 13  1  0
 12 14  1  0
 12 15  1  0
  8 16  1  0
 16 17  1  0
 17 18  2  0
 17 19  1  0
 19 20  1  0
 20 21  1  0
 21 22  2  0
 21 23  1  0
 23 24  1  0
 24 25  1  0
 25 26  2  0
 26 27  1  0
 26 28  1  0
 28 29  1  0
 16 30  1  0
 30 31  1  0
 30 32  1  0
 30 33  1  0
  7 34  2  0
 34 35  1  0
 35 36  1  0
 34  3  1  0
 29 24  2  0
  1 37  1  0
  1 38  1  0
  1 39  1  0
  4 40  1  0
  5 41  1  0
  6 42  1  0
  8 43  1  0
 11 44  1  0
 13 45  1  0
 13 46  1  0
 13 47  1  0
 14 48  1  0
 14 49  1  0
 14 50  1  0
 15 51  1  0
 15 52  1  0
 15 53  1  0
 19 54  1  0
 19 55  1  0
 20 56  1  0
 20 57  1  0
 23 58  1  0
 25 59  1  0
 27 60  1  0
 27 61  1  0
 27 62  1  0
 31 63  1  0
 31 64  1  0
 31 65  1  0
 32 66  1  0
 32 67  1  0
 32 68  1  0
 33 69  1  0
 33 70  1  0
 33 71  1  0
 36 72  1  0
 36 73  1  0
 36 74  1  0
M  END
$$$$
