
     RDKit          3D

 47 49  0  0  0  0  0  0  0  0999 V2000
   -0.7772   -0.2781    1.6224 C   0  0  0  0  0  0  0  0  0  0  0  0
   -2.0548    0.5441    1.5614 C   0  0  0  0  0  0  0  0  0  0  0  0
   -2.9068    0.1938    0.4144 N   0  0  0  0  0  4  0  0  0  0  0  0
   -3.0166    0.9476   -0.6747 C   0  0  0  0  0  0  0  0  0  0  0  0
   -2.3422    2.1546   -0.9856 C   0  0  0  0  0  0  0  0  0  0  0  0
   -1.0055    2.1971   -1.0848 C   0  0  0  0  0  0  0  0  0  0  0  0
   -0.2652    3.3970   -1.4168 C   0  0  0  0  0  0  0  0  0  0  0  0
    1.0746    3.5027   -1.4066 C   0  0  0  0  0  0  0  0  0  0  0  0
    1.9942    2.4252   -1.0356 C   0  0  0  0  0  0  0  0  0  0  0  0
    2.3886    1.4748   -1.9733 C   0  0  0  0  0  0  0  0  0  0  0  0
    3.2253    0.4150   -1.5949 C   0  0  0  0  0  0  0  0  0  0  0  0
    3.6948    0.2601   -0.2788 C   0  0  0  0  0  0  0  0  0  0  0  0
    4.5360   -0.7846    0.0941 N   0  0  0  0  0  0  0  0  0  0  0  0
    4.6332   -1.1769    1.5016 C   0  0  0  0  0  0  0  0  0  0  0  0
    5.0048   -1.7570   -0.8894 C   0  0  0  0  0  0  0  0  0  0  0  0
    3.2879    1.2441    0.6397 C   0  0  0  0  0  0  0  0  0  0  0  0
    2.4496    2.3084    0.2759 C   0  0  0  0  0  0  0  0  0  0  0  0
   -4.1860    0.3053   -1.7541 S   0  0  0  0  0  0  0  0  0  0  0  0
   -4.5081   -1.0308   -0.7228 C   0  0  0  0  0  0  0  0  0  0  0  0
   -5.4037   -2.0924   -0.9202 C   0  0  0  0  0  0  0  0  0  0  0  0
   -5.5049   -3.0636    0.0787 C   0  0  0  0  0  0  0  0  0  0  0  0
   -4.7455   -2.9758    1.2401 C   0  0  0  0  0  0  0  0  0  0  0  0
   -3.8563   -1.9127    1.4328 C   0  0  0  0  0  0  0  0  0  0  0  0
   -3.7303   -0.9299    0.4279 C   0  0  0  0  0  0  0  0  0  0  0  0
   -0.1631    0.0448    2.4674 H   0  0  0  0  0  0  0  0  0  0  0  0
   -0.1859   -0.1743    0.7110 H   0  0  0  0  0  0  0  0  0  0  0  0
   -0.9923   -1.3427    1.7513 H   0  0  0  0  0  0  0  0  0  0  0  0
   -2.6347    0.3985    2.4810 H   0  0  0  0  0  0  0  0  0  0  0  0
   -1.8104    1.6113    1.5442 H   0  0  0  0  0  0  0  0  0  0  0  0
   -2.9413    3.0375   -1.2024 H   0  0  0  0  0  0  0  0  0  0  0  0
   -0.4122    1.2977   -0.9363 H   0  0  0  0  0  0  0  0  0  0  0  0
   -0.8377    4.2810   -1.6967 H   0  0  0  0  0  0  0  0  0  0  0  0
    1.5505    4.4443   -1.6723 H   0  0  0  0  0  0  0  0  0  0  0  0
    2.0494    1.5411   -3.0041 H   0  0  0  0  0  0  0  0  0  0  0  0
    3.4924   -0.2980   -2.3688 H   0  0  0  0  0  0  0  0  0  0  0  0
    5.2099   -2.1020    1.6193 H   0  0  0  0  0  0  0  0  0  0  0  0
    5.1511   -0.4014    2.0949 H   0  0  0  0  0  0  0  0  0  0  0  0
    3.6349   -1.3668    1.9276 H   0  0  0  0  0  0  0  0  0  0  0  0
    5.4448   -1.2609   -1.7621 H   0  0  0  0  0  0  0  0  0  0  0  0
    5.7928   -2.3948   -0.4733 H   0  0  0  0  0  0  0  0  0  0  0  0
    4.1837   -2.4064   -1.2109 H   0  0  0  0  0  0  0  0  0  0  0  0
    3.6393    1.2184    1.6687 H   0  0  0  0  0  0  0  0  0  0  0  0
    2.1747    3.0461    1.0251 H   0  0  0  0  0  0  0  0  0  0  0  0
   -6.0063   -2.1631   -1.8230 H   0  0  0  0  0  0  0  0  0  0  0  0
   -6.1927   -3.8991   -0.0542 H   0  0  0  0  0  0  0  0  0  0  0  0
   -4.8472   -3.7452    2.0059 H   0  0  0  0  0  0  0  0  0  0  0  0
   -3.2856   -1.8816    2.3563 H   0  0  0  0  0  0  0  0  0  0  0  0
  1  2  1  0
  2  3  1  0
  3  4  2  0
  4  5  1  0
  5  6  2  3
  6  7  1  0
  7  8  2  3
  8  9  1  0
  9 10  2  0
 10 11  1  0
 11 12  2  0
 12 13  1  0
 13 14  1  0
 13 15  1  0
 12 16  1  0
 16 17  2  0
  4 18  1  0
 18 19  1  0
 19 20  2  0
 20 21  1  0
 21 22  2  0
 22 23  1  0
 23 24  2  0
 24  3  1  0
 17  9  1  0
 24 19  1  0
  1 25  1  0
  1 26  1  0
  1 27  1  0
  2 28  1  0
  2 29  1  0
  5 30  1  0
  6 31  1  0
  7 32  1  0
  8 33  1  0
 10 34  1  0
 11 35  1  0
 14 36  1  0
 14 37  1  0
 14 38  1  0
 15 39  1  0
 15 40  1  0
 15 41  1  0
 16 42  1  0
 17 43  1  0
 20 44  1  0
 21 45  1  0
 22 46  1  0
 23 47  1  0
M  CHG  1   3   1
M  END
$$$$
