
     RDKit          3D

 38 39  0  0  0  0  0  0  0  0999 V2000
   -0.1576   -1.4949    0.0638 O   0  0  0  0  0  0  0  0  0  0  0  0
   -0.3641   -0.2917   -0.0196 C   0  0  0  0  0  0  0  0  0  0  0  0
   -1.5591    0.3589    0.5713 C   0  0  0  0  0  0  0  0  0  0  0  0
   -2.5608   -0.3998    1.0410 C   0  0  0  0  0  0  0  0  0  0  0  0
   -3.7647    0.1606    1.6664 C   0  0  0  0  0  0  0  0  0  0  0  0
   -4.0058   -0.1686    3.0081 C   0  0  0  0  0  0  0  0  0  0  0  0
   -5.1411    0.3109    3.6734 C   0  0  0  0  0  0  0  0  0  0  0  0
   -6.0621    1.1218    3.0089 C   0  0  0  0  0  0  0  0  0  0  0  0
   -5.8534    1.4562    1.6732 C   0  0  0  0  0  0  0  0  0  0  0  0
   -4.7107    0.9721    1.0218 C   0  0  0  0  0  0  0  0  0  0  0  0
   -4.5471    1.3262   -0.3705 N   0  0  0  0  0  4  0  0  0  0  0  0
   -5.1594    0.6432   -1.2008 O   0  0  0  0  0  0  0  0  0  0  0  0
   -3.8326    2.3076   -0.6199 O   0  0  0  0  0  1  0  0  0  0  0  0
    0.4662    0.5960   -0.6567 N   0  0  0  0  0  0  0  0  0  0  0  0
    1.6726    0.1518   -1.3291 C   0  0  0  0  0  0  0  0  0  0  0  0
    2.8160   -0.1185   -0.3482 C   0  0  0  0  0  0  0  0  0  0  0  0
    4.0735   -0.5520   -1.0609 C   0  0  0  0  0  0  0  0  0  0  0  0
    5.0595    0.3854   -1.4032 C   0  0  0  0  0  0  0  0  0  0  0  0
    6.2116   -0.0208   -2.0781 C   0  0  0  0  0  0  0  0  0  0  0  0
    6.3750   -1.3597   -2.4129 C   0  0  0  0  0  0  0  0  0  0  0  0
    7.4815   -1.7467   -3.0613 F   0  0  0  0  0  0  0  0  0  0  0  0
    5.4075   -2.3020   -2.0868 C   0  0  0  0  0  0  0  0  0  0  0  0
    4.2549   -1.8989   -1.4119 C   0  0  0  0  0  0  0  0  0  0  0  0
   -1.5803    1.4406    0.6169 H   0  0  0  0  0  0  0  0  0  0  0  0
   -2.5012   -1.4872    1.0064 H   0  0  0  0  0  0  0  0  0  0  0  0
   -3.3075   -0.8030    3.5531 H   0  0  0  0  0  0  0  0  0  0  0  0
   -5.3071    0.0450    4.7157 H   0  0  0  0  0  0  0  0  0  0  0  0
   -6.9433    1.4858    3.5328 H   0  0  0  0  0  0  0  0  0  0  0  0
   -6.5748    2.0793    1.1495 H   0  0  0  0  0  0  0  0  0  0  0  0
    0.2081    1.5712   -0.7295 H   0  0  0  0  0  0  0  0  0  0  0  0
    1.4364   -0.7501   -1.9063 H   0  0  0  0  0  0  0  0  0  0  0  0
    1.9511    0.9377   -2.0401 H   0  0  0  0  0  0  0  0  0  0  0  0
    2.5291   -0.8887    0.3789 H   0  0  0  0  0  0  0  0  0  0  0  0
    3.0188    0.7819    0.2462 H   0  0  0  0  0  0  0  0  0  0  0  0
    4.9374    1.4349   -1.1449 H   0  0  0  0  0  0  0  0  0  0  0  0
    6.9812    0.6964   -2.3445 H   0  0  0  0  0  0  0  0  0  0  0  0
    5.5553   -3.3419   -2.3595 H   0  0  0  0  0  0  0  0  0  0  0  0
    3.4972   -2.6391   -1.1595 H   0  0  0  0  0  0  0  0  0  0  0  0
  1  2  2  0
  2  3  1  0
  3  4  2  3
  4  5  1  0
  5  6  2  0
  6  7  1  0
  7  8  2  0
  8  9  1  0
  9 10  2  0
 10 11  1  0
 11 12  2  0
 11 13  1  0
  2 14  1  0
 14 15  1  0
 15 16  1  0
 16 17  1  0
 17 18  2  0
 18 19  1  0
 19 20  2  0
 20 21  1  0
 20 22  1  0
 22 23  2  0
 10  5  1  0
 23 17  1  0
  3 24  1  0
  4 25  1  0
  6 26  1  0
  7 27  1  0
  8 28  1  0
  9 29  1  0
 14 30  1  0
 15 31  1  0
 15 32  1  0
 16 33  1  0
 16 34  1  0
 18 35  1  0
 19 36  1  0
 22 37  1  0
 23 38  1  0
M  CHG  2  11   1  13  -1
M  END
$$$$
