
     RDKit          3D

 44 46  0  0  0  0  0  0  0  0999 V2000
   -5.3084    0.7000   -3.1780 C   0  0  0  0  0  0  0  0  0  0  0  0
   -4.5423    0.3907   -1.9250 C   0  0  0  0  0  0  0  0  0  0  0  0
   -4.9713   -0.6330   -1.0686 C   0  0  0  0  0  0  0  0  0  0  0  0
   -4.2803   -0.9023    0.1137 C   0  0  0  0  0  0  0  0  0  0  0  0
   -3.1558   -0.1410    0.4414 C   0  0  0  0  0  0  0  0  0  0  0  0
   -2.2841   -0.4814    1.9483 S   0  0  0  0  0  6  0  0  0  0  0  0
   -1.3432    0.5886    2.2005 O   0  0  0  0  0  0  0  0  0  0  0  0
   -3.2705   -0.8555    2.9408 O   0  0  0  0  0  0  0  0  0  0  0  0
   -1.4376   -1.8999    1.5771 N   0  0  0  0  0  0  0  0  0  0  0  0
   -0.2081   -1.7742    0.8732 C   0  0  0  0  0  0  0  0  0  0  0  0
   -0.2142   -1.6795   -0.5176 C   0  0  0  0  0  0  0  0  0  0  0  0
    0.9847   -1.5054   -1.2198 C   0  0  0  0  0  0  0  0  0  0  0  0
    0.9759   -1.4043   -2.7180 C   0  0  0  0  0  0  0  0  0  0  0  0
    2.1841   -1.4163   -0.4983 C   0  0  0  0  0  0  0  0  0  0  0  0
    3.3331   -1.2272   -1.2228 O   0  0  0  0  0  0  0  0  0  0  0  0
    2.2012   -1.5151    0.9039 C   0  0  0  0  0  0  0  0  0  0  0  0
    3.7037   -1.5160    1.8742 S   0  0  0  0  0  0  0  0  0  0  0  0
    4.2696    0.1166    1.6710 C   0  0  0  0  0  0  0  0  0  0  0  0
    4.6620    0.5738    0.4749 N   0  0  0  0  0  0  0  0  0  0  0  0
    5.0168    1.8345    0.7810 N   0  0  0  0  0  0  0  0  0  0  0  0
    4.8567    2.0870    2.1139 C   0  0  0  0  0  0  0  0  0  0  0  0
    5.1741    3.3910    2.7311 C   0  0  0  0  0  0  0  0  0  0  0  0
    4.3935    1.0046    2.7000 N   0  0  0  0  0  0  0  0  0  0  0  0
    0.9891   -1.6912    1.5833 C   0  0  0  0  0  0  0  0  0  0  0  0
   -2.7333    0.9012   -0.3873 C   0  0  0  0  0  0  0  0  0  0  0  0
   -3.4285    1.1639   -1.5686 C   0  0  0  0  0  0  0  0  0  0  0  0
   -5.7705   -0.2050   -3.5864 H   0  0  0  0  0  0  0  0  0  0  0  0
   -4.6459    1.1031   -3.9512 H   0  0  0  0  0  0  0  0  0  0  0  0
   -6.0924    1.4332   -2.9656 H   0  0  0  0  0  0  0  0  0  0  0  0
   -5.8500   -1.2246   -1.3178 H   0  0  0  0  0  0  0  0  0  0  0  0
   -4.6225   -1.6980    0.7715 H   0  0  0  0  0  0  0  0  0  0  0  0
   -1.4663   -2.5466    2.3649 H   0  0  0  0  0  0  0  0  0  0  0  0
   -1.1524   -1.7549   -1.0618 H   0  0  0  0  0  0  0  0  0  0  0  0
    1.5966   -2.1926   -3.1558 H   0  0  0  0  0  0  0  0  0  0  0  0
    1.3533   -0.4263   -3.0337 H   0  0  0  0  0  0  0  0  0  0  0  0
   -0.0358   -1.5168   -3.1221 H   0  0  0  0  0  0  0  0  0  0  0  0
    3.9841   -0.7874   -0.6334 H   0  0  0  0  0  0  0  0  0  0  0  0
    5.3540    2.4519    0.0502 H   0  0  0  0  0  0  0  0  0  0  0  0
    4.5682    4.1863    2.2863 H   0  0  0  0  0  0  0  0  0  0  0  0
    6.2309    3.6378    2.5903 H   0  0  0  0  0  0  0  0  0  0  0  0
    4.9700    3.3684    3.8059 H   0  0  0  0  0  0  0  0  0  0  0  0
    0.9783   -1.7538    2.6687 H   0  0  0  0  0  0  0  0  0  0  0  0
   -1.8687    1.5069   -0.1243 H   0  0  0  0  0  0  0  0  0  0  0  0
   -3.0978    1.9785   -2.2100 H   0  0  0  0  0  0  0  0  0  0  0  0
  1  2  1  0
  2  3  2  0
  3  4  1  0
  4  5  2  0
  5  6  1  0
  6  7  2  0
  6  8  2  0
  6  9  1  0
  9 10  1  0
 10 11  2  0
 11 12  1  0
 12 13  1  0
 12 14  2  0
 14 15  1  0
 14 16  1  0
 16 17  1  0
 17 18  1  0
 18 19  2  0
 19 20  1  0
 20 21  1  0
 21 22  1  0
 21 23  2  0
 16 24  2  0
  5 25  1  0
 25 26  2  0
 26  2  1  0
 24 10  1  0
 23 18  1  0
  1 27  1  0
  1 28  1  0
  1 29  1  0
  3 30  1  0
  4 31  1  0
  9 32  1  0
 11 33  1  0
 13 34  1  0
 13 35  1  0
 13 36  1  0
 15 37  1  0
 20 38  1  0
 22 39  1  0
 22 40  1  0
 22 41  1  0
 24 42  1  0
 25 43  1  0
 26 44  1  0
M  END
$$$$
