
     RDKit          3D

 51 55  0  0  0  0  0  0  0  0999 V2000
    1.0046   -0.7207   -0.3572 O   0  0  0  0  0  0  0  0  0  0  0  0
    1.2188    0.4693   -0.5742 C   0  0  0  0  0  0  0  0  0  0  0  0
    0.1337    1.3985   -1.1460 C   0  0  0  0  0  0  0  0  0  0  0  0
   -1.2128    1.0027   -0.7395 N   0  0  0  0  0  0  0  0  0  0  0  0
   -1.5901    1.3257    0.5609 C   0  0  0  0  0  0  0  0  0  0  0  0
   -0.9102    2.0581    1.2847 O   0  0  0  0  0  0  0  0  0  0  0  0
   -2.8580    0.7021    1.0883 C   0  0  0  0  0  0  0  0  0  0  0  0
   -4.0585    1.5730    0.7640 C   0  0  0  0  0  0  0  0  0  0  0  0
   -5.3391    0.9405    1.2095 C   0  0  0  0  0  0  0  0  0  0  0  0
   -6.4117    1.4063    1.9453 C   0  0  0  0  0  0  0  0  0  0  0  0
   -7.3313    0.3339    2.0375 C   0  0  0  0  0  0  0  0  0  0  0  0
   -6.7653   -0.7168    1.3539 C   0  0  0  0  0  0  0  0  0  0  0  0
   -5.5572   -0.3597    0.8489 O   0  0  0  0  0  0  0  0  0  0  0  0
   -4.2020    2.0839   -0.9934 S   0  0  0  0  0  0  0  0  0  0  0  0
   -3.4350    0.6903   -1.8198 C   0  0  0  0  0  0  0  0  0  0  0  0
   -4.2292    0.0165   -2.7615 C   0  0  0  0  0  0  0  0  0  0  0  0
   -3.6884   -0.9863   -3.5639 C   0  0  0  0  0  0  0  0  0  0  0  0
   -2.3420   -1.3109   -3.4490 C   0  0  0  0  0  0  0  0  0  0  0  0
   -1.5369   -0.6393   -2.5250 C   0  0  0  0  0  0  0  0  0  0  0  0
   -2.0682    0.3551   -1.6857 C   0  0  0  0  0  0  0  0  0  0  0  0
    2.4376    1.1185   -0.4223 N   0  0  0  0  0  0  0  0  0  0  0  0
    3.6576    0.5682    0.0258 C   0  0  0  0  0  0  0  0  0  0  0  0
    4.7520    1.4426    0.1141 C   0  0  0  0  0  0  0  0  0  0  0  0
    5.9995    0.9869    0.5490 C   0  0  0  0  0  0  0  0  0  0  0  0
    6.1622   -0.3473    0.9032 C   0  0  0  0  0  0  0  0  0  0  0  0
    5.0848   -1.2311    0.7986 C   0  0  0  0  0  0  0  0  0  0  0  0
    3.8346   -0.7730    0.3735 C   0  0  0  0  0  0  0  0  0  0  0  0
    5.1781   -2.5659    1.1061 O   0  0  0  0  0  0  0  0  0  0  0  0
    6.5418   -2.9889    1.2127 C   0  0  0  0  0  0  0  0  0  0  0  0
    7.3581   -1.9865    2.0122 C   0  0  0  0  0  0  0  0  0  0  0  0
    7.4059   -0.7233    1.3399 O   0  0  0  0  0  0  0  0  0  0  0  0
    0.3111    2.4239   -0.7992 H   0  0  0  0  0  0  0  0  0  0  0  0
    0.2241    1.4089   -2.2385 H   0  0  0  0  0  0  0  0  0  0  0  0
   -2.9541   -0.3276    0.7223 H   0  0  0  0  0  0  0  0  0  0  0  0
   -2.7523    0.5992    2.1771 H   0  0  0  0  0  0  0  0  0  0  0  0
   -3.9484    2.5163    1.3148 H   0  0  0  0  0  0  0  0  0  0  0  0
   -6.5157    2.4010    2.3584 H   0  0  0  0  0  0  0  0  0  0  0  0
   -8.2901    0.3271    2.5372 H   0  0  0  0  0  0  0  0  0  0  0  0
   -7.0770   -1.7312    1.1442 H   0  0  0  0  0  0  0  0  0  0  0  0
   -5.2786    0.2788   -2.8833 H   0  0  0  0  0  0  0  0  0  0  0  0
   -4.3166   -1.5064   -4.2829 H   0  0  0  0  0  0  0  0  0  0  0  0
   -1.9160   -2.0958   -4.0701 H   0  0  0  0  0  0  0  0  0  0  0  0
   -0.4981   -0.9488   -2.4400 H   0  0  0  0  0  0  0  0  0  0  0  0
    2.4472    2.1155   -0.5968 H   0  0  0  0  0  0  0  0  0  0  0  0
    4.6511    2.4923   -0.1527 H   0  0  0  0  0  0  0  0  0  0  0  0
    6.8378    1.6737    0.6206 H   0  0  0  0  0  0  0  0  0  0  0  0
    3.0235   -1.4923    0.3203 H   0  0  0  0  0  0  0  0  0  0  0  0
    6.5487   -3.9626    1.7118 H   0  0  0  0  0  0  0  0  0  0  0  0
    6.9451   -3.1209    0.2008 H   0  0  0  0  0  0  0  0  0  0  0  0
    8.3877   -2.3412    2.1256 H   0  0  0  0  0  0  0  0  0  0  0  0
    6.9376   -1.8325    3.0151 H   0  0  0  0  0  0  0  0  0  0  0  0
  1  2  2  0
  2  3  1  0
  3  4  1  0
  4  5  1  0
  5  6  2  0
  5  7  1  0
  7  8  1  0
  8  9  1  0
  9 10  2  0
 10 11  1  0
 11 12  2  0
 12 13  1  0
  8 14  1  0
 14 15  1  0
 15 16  2  0
 16 17  1  0
 17 18  2  0
 18 19  1  0
 19 20  2  0
  2 21  1  0
 21 22  1  0
 22 23  2  0
 23 24  1  0
 24 25  2  0
 25 26  1  0
 26 27  2  0
 26 28  1  0
 28 29  1  0
 29 30  1  0
 30 31  1  0
 20  4  1  0
 27 22  1  0
 13  9  1  0
 20 15  1  0
 31 25  1  0
  3 32  1  0
  3 33  1  0
  7 34  1  0
  7 35  1  0
  8 36  1  0
 10 37  1  0
 11 38  1  0
 12 39  1  0
 16 40  1  0
 17 41  1  0
 18 42  1  0
 19 43  1  0
 21 44  1  0
 23 45  1  0
 24 46  1  0
 27 47  1  0
 29 48  1  0
 29 49  1  0
 30 50  1  0
 30 51  1  0
M  END
$$$$
