
     RDKit          3D

 56 61  0  0  0  0  0  0  0  0999 V2000
    8.3888   -0.3898    0.2133 C   0  0  0  0  0  0  0  0  0  0  0  0
    6.8958   -0.4513    0.0730 C   0  0  0  0  0  0  0  0  0  0  0  0
    6.3074   -1.0443   -1.0472 C   0  0  0  0  0  0  0  0  0  0  0  0
    4.9159   -1.1301   -1.1601 C   0  0  0  0  0  0  0  0  0  0  0  0
    4.0967   -0.6300   -0.1478 C   0  0  0  0  0  0  0  0  0  0  0  0
    2.5328   -0.7267   -0.2599 C   0  0  0  0  0  0  0  0  0  0  0  0
    1.6066   -0.1855    0.6238 C   0  0  0  0  0  0  0  0  0  0  0  0
    0.3202   -0.4730    0.1678 N   0  0  0  0  0  4  0  0  0  0  0  0
   -0.9502   -0.0680    0.7982 C   0  0  0  0  0  0  0  0  0  0  0  0
   -1.8369    0.7624   -0.1540 C   0  0  0  0  0  0  0  0  0  0  0  0
   -1.4433    1.0774   -1.2774 O   0  0  0  0  0  0  0  0  0  0  0  0
   -3.1216    0.9880    0.3602 N   0  0  0  0  0  0  0  0  0  0  0  0
   -3.2775    1.7407    1.5792 C   0  0  0  0  0  0  0  0  0  0  0  0
   -2.2602    2.6414    1.9654 C   0  0  0  0  0  0  0  0  0  0  0  0
   -2.3572    3.4004    3.1351 C   0  0  0  0  0  0  0  0  0  0  0  0
   -3.4779    3.2828    3.9428 C   0  0  0  0  0  0  0  0  0  0  0  0
   -4.5086    2.4252    3.5662 C   0  0  0  0  0  0  0  0  0  0  0  0
   -4.4219    1.6675    2.3861 C   0  0  0  0  0  0  0  0  0  0  0  0
   -5.7787    0.5994    2.0148 S   0  0  0  0  0  0  0  0  0  0  0  0
   -5.5481    0.4131    0.2647 C   0  0  0  0  0  0  0  0  0  0  0  0
   -6.6726   -0.0091   -0.4666 C   0  0  0  0  0  0  0  0  0  0  0  0
   -6.5784   -0.2784   -1.8276 C   0  0  0  0  0  0  0  0  0  0  0  0
   -5.3554   -0.1380   -2.4641 C   0  0  0  0  0  0  0  0  0  0  0  0
   -4.2313    0.2768   -1.7404 C   0  0  0  0  0  0  0  0  0  0  0  0
   -4.2999    0.5787   -0.3649 C   0  0  0  0  0  0  0  0  0  0  0  0
    0.4457   -1.1562   -0.9670 C   0  0  0  0  0  0  0  0  0  0  0  0
    1.7403   -1.3428   -1.2104 N   0  0  0  0  0  0  0  0  0  0  0  0
    1.9565   -2.1346   -2.4131 C   0  0  0  0  0  0  0  0  0  0  0  0
    0.5532   -2.7283   -2.7097 C   0  0  0  0  0  0  0  0  0  0  0  0
   -0.4315   -1.7963   -1.9767 C   0  0  0  0  0  0  0  0  0  0  0  0
    4.6812   -0.0352    0.9765 C   0  0  0  0  0  0  0  0  0  0  0  0
    6.0726    0.0445    1.0878 C   0  0  0  0  0  0  0  0  0  0  0  0
    8.6955    0.5682    0.6475 H   0  0  0  0  0  0  0  0  0  0  0  0
    8.8820   -0.4791   -0.7619 H   0  0  0  0  0  0  0  0  0  0  0  0
    8.7378   -1.2036    0.8576 H   0  0  0  0  0  0  0  0  0  0  0  0
    6.9328   -1.4424   -1.8449 H   0  0  0  0  0  0  0  0  0  0  0  0
    4.5133   -1.5783   -2.0586 H   0  0  0  0  0  0  0  0  0  0  0  0
    1.7043    0.3874    1.5302 H   0  0  0  0  0  0  0  0  0  0  0  0
   -0.7149    0.4946    1.7043 H   0  0  0  0  0  0  0  0  0  0  0  0
   -1.4839   -0.9843    1.0737 H   0  0  0  0  0  0  0  0  0  0  0  0
   -1.3917    2.8220    1.3348 H   0  0  0  0  0  0  0  0  0  0  0  0
   -1.5679    4.0997    3.4042 H   0  0  0  0  0  0  0  0  0  0  0  0
   -3.5674    3.8756    4.8513 H   0  0  0  0  0  0  0  0  0  0  0  0
   -5.3913    2.3570    4.2013 H   0  0  0  0  0  0  0  0  0  0  0  0
   -7.6345   -0.1419    0.0270 H   0  0  0  0  0  0  0  0  0  0  0  0
   -7.4563   -0.5987   -2.3840 H   0  0  0  0  0  0  0  0  0  0  0  0
   -5.2723   -0.3440   -3.5303 H   0  0  0  0  0  0  0  0  0  0  0  0
   -3.3165    0.3945   -2.3125 H   0  0  0  0  0  0  0  0  0  0  0  0
    2.2820   -1.4681   -3.2178 H   0  0  0  0  0  0  0  0  0  0  0  0
    2.6888   -2.9259   -2.2392 H   0  0  0  0  0  0  0  0  0  0  0  0
    0.3460   -2.8137   -3.7795 H   0  0  0  0  0  0  0  0  0  0  0  0
    0.4903   -3.7313   -2.2720 H   0  0  0  0  0  0  0  0  0  0  0  0
   -0.8022   -1.0051   -2.6294 H   0  0  0  0  0  0  0  0  0  0  0  0
   -1.2384   -2.3247   -1.4680 H   0  0  0  0  0  0  0  0  0  0  0  0
    4.0880    0.3656    1.7929 H   0  0  0  0  0  0  0  0  0  0  0  0
    6.5144    0.4955    1.9755 H   0  0  0  0  0  0  0  0  0  0  0  0
  1  2  1  0
  2  3  2  0
  3  4  1  0
  4  5  2  0
  5  6  1  0
  6  7  2  0
  7  8  1  0
  8  9  1  0
  9 10  1  0
 10 11  2  0
 10 12  1  0
 12 13  1  0
 13 14  2  0
 14 15  1  0
 15 16  2  0
 16 17  1  0
 17 18  2  0
 18 19  1  0
 19 20  1  0
 20 21  2  0
 21 22  1  0
 22 23  2  0
 23 24  1  0
 24 25  2  0
  8 26  2  0
 26 27  1  0
 27 28  1  0
 28 29  1  0
 29 30  1  0
  5 31  1  0
 31 32  2  0
 32  2  1  0
 27  6  1  0
 25 12  1  0
 30 26  1  0
 18 13  1  0
 25 20  1  0
  1 33  1  0
  1 34  1  0
  1 35  1  0
  3 36  1  0
  4 37  1  0
  7 38  1  0
  9 39  1  0
  9 40  1  0
 14 41  1  0
 15 42  1  0
 16 43  1  0
 17 44  1  0
 21 45  1  0
 22 46  1  0
 23 47  1  0
 24 48  1  0
 28 49  1  0
 28 50  1  0
 29 51  1  0
 29 52  1  0
 30 53  1  0
 30 54  1  0
 31 55  1  0
 32 56  1  0
M  CHG  1   8   1
M  END
$$$$
