
     RDKit          3D

 39 40  0  0  0  0  0  0  0  0999 V2000
    5.2119   -0.1334    4.2945 C   0  0  0  0  0  0  0  0  0  0  0  0
    4.3404   -0.4282    3.1087 C   0  0  0  0  0  0  0  0  0  0  0  0
    3.4651   -1.5202    3.1280 C   0  0  0  0  0  0  0  0  0  0  0  0
    2.6317   -1.7781    2.0368 C   0  0  0  0  0  0  0  0  0  0  0  0
    2.6542   -0.9390    0.9159 C   0  0  0  0  0  0  0  0  0  0  0  0
    1.7419   -1.2556   -0.2151 C   0  0  0  0  0  0  0  0  0  0  0  0
    1.0259   -2.2420   -0.2538 O   0  0  0  0  0  0  0  0  0  0  0  0
    1.7950   -0.2849   -1.1625 O   0  0  0  0  0  0  0  0  0  0  0  0
    0.9754   -0.5314   -2.3082 C   0  0  0  0  0  0  0  0  0  0  0  0
   -0.5108   -0.2373   -2.0921 C   0  0  0  0  0  0  0  0  0  0  0  0
   -1.3995   -0.7257   -2.7895 O   0  0  0  0  0  0  0  0  0  0  0  0
   -0.7810    0.6927   -1.1063 N   0  0  0  0  0  0  0  0  0  0  0  0
   -2.1493    0.9285   -0.6837 C   0  0  0  0  0  0  0  0  0  0  0  0
   -3.0008    1.6268   -1.7553 C   0  0  0  0  0  0  0  0  0  0  0  0
   -4.3550    1.1149   -1.7854 N   0  0  0  0  0  0  0  0  0  0  0  0
   -4.8044    0.1090   -2.6077 C   0  0  0  0  0  0  0  0  0  0  0  0
   -3.9853   -0.5255   -3.4932 O   0  0  0  0  0  0  0  0  0  0  0  0
   -6.1000   -0.1851   -2.4641 C   0  0  0  0  0  0  0  0  0  0  0  0
   -6.8428    0.7868   -1.2326 S   0  0  0  0  0  0  0  0  0  0  0  0
   -5.3109    1.6160   -0.9121 C   0  0  0  0  0  0  0  0  0  0  0  0
   -5.1617    2.4681   -0.0511 O   0  0  0  0  0  0  0  0  0  0  0  0
    3.5205    0.1614    0.8986 C   0  0  0  0  0  0  0  0  0  0  0  0
    4.3535    0.4165    1.9922 C   0  0  0  0  0  0  0  0  0  0  0  0
    6.1402    0.3578    3.9844 H   0  0  0  0  0  0  0  0  0  0  0  0
    4.6822    0.5199    4.9946 H   0  0  0  0  0  0  0  0  0  0  0  0
    5.4911   -1.0566    4.8131 H   0  0  0  0  0  0  0  0  0  0  0  0
    3.4276   -2.1799    3.9928 H   0  0  0  0  0  0  0  0  0  0  0  0
    1.9631   -2.6368    2.0685 H   0  0  0  0  0  0  0  0  0  0  0  0
    1.3267    0.1292   -3.1076 H   0  0  0  0  0  0  0  0  0  0  0  0
    1.0962   -1.5648   -2.6539 H   0  0  0  0  0  0  0  0  0  0  0  0
   -0.0329    0.9029   -0.4548 H   0  0  0  0  0  0  0  0  0  0  0  0
   -2.5741   -0.0445   -0.4089 H   0  0  0  0  0  0  0  0  0  0  0  0
   -2.1117    1.5409    0.2237 H   0  0  0  0  0  0  0  0  0  0  0  0
   -3.0393    2.6987   -1.5225 H   0  0  0  0  0  0  0  0  0  0  0  0
   -2.5687    1.5599   -2.7595 H   0  0  0  0  0  0  0  0  0  0  0  0
   -3.0646   -0.5285   -3.1523 H   0  0  0  0  0  0  0  0  0  0  0  0
   -6.6305   -0.9414   -3.0247 H   0  0  0  0  0  0  0  0  0  0  0  0
    3.5640    0.8301    0.0428 H   0  0  0  0  0  0  0  0  0  0  0  0
    5.0171    1.2788    1.9660 H   0  0  0  0  0  0  0  0  0  0  0  0
  1  2  1  0
  2  3  2  0
  3  4  1  0
  4  5  2  0
  5  6  1  0
  6  7  2  0
  6  8  1  0
  8  9  1  0
  9 10  1  0
 10 11  2  0
 10 12  1  0
 12 13  1  0
 13 14  1  0
 14 15  1  0
 15 16  1  0
 16 17  1  0
 16 18  2  0
 18 19  1  0
 19 20  1  0
 20 21  2  0
  5 22  1  0
 22 23  2  0
 23  2  1  0
 20 15  1  0
  1 24  1  0
  1 25  1  0
  1 26  1  0
  3 27  1  0
  4 28  1  0
  9 29  1  0
  9 30  1  0
 12 31  1  0
 13 32  1  0
 13 33  1  0
 14 34  1  0
 14 35  1  0
 17 36  1  0
 18 37  1  0
 22 38  1  0
 23 39  1  0
M  END
$$$$
