
     RDKit          3D

 39 42  0  0  0  0  0  0  0  0999 V2000
   -4.6671   -0.2812    2.2962 C   0  0  0  0  0  0  0  0  0  0  0  0
   -4.5765    1.1380    1.1730 S   0  0  0  0  0  0  0  0  0  0  0  0
   -4.8672    0.2707   -0.3730 C   0  0  0  0  0  0  0  0  0  0  0  0
   -6.1914    0.1231   -0.8065 C   0  0  0  0  0  0  0  0  0  0  0  0
   -6.4703   -0.5496   -1.9945 C   0  0  0  0  0  0  0  0  0  0  0  0
   -5.4279   -1.0733   -2.7542 C   0  0  0  0  0  0  0  0  0  0  0  0
   -4.1026   -0.9234   -2.3338 C   0  0  0  0  0  0  0  0  0  0  0  0
   -3.8059   -0.2488   -1.1461 C   0  0  0  0  0  0  0  0  0  0  0  0
   -2.4889   -0.0577   -0.6772 N   0  0  0  0  0  0  0  0  0  0  0  0
   -1.2969   -0.4733   -1.2339 C   0  0  0  0  0  0  0  0  0  0  0  0
   -1.1626   -1.1101   -2.2731 O   0  0  0  0  0  0  0  0  0  0  0  0
   -0.1290   -0.0776   -0.4374 C   0  0  0  0  0  0  0  0  0  0  0  0
    1.2358   -0.3227   -0.7333 C   0  0  0  0  0  0  0  0  0  0  0  0
    1.9352    0.2380    0.3094 C   0  0  0  0  0  0  0  0  0  0  0  0
    3.3480    0.3604    0.6559 C   0  0  0  0  0  0  0  0  0  0  0  0
    3.7576    1.0301    1.8352 C   0  0  0  0  0  0  0  0  0  0  0  0
    5.1111    1.1519    2.1750 C   0  0  0  0  0  0  0  0  0  0  0  0
    6.0366    0.5970    1.3220 C   0  0  0  0  0  0  0  0  0  0  0  0
    5.6567   -0.0554    0.1749 C   0  0  0  0  0  0  0  0  0  0  0  0
    4.3305   -0.1903   -0.1849 C   0  0  0  0  0  0  0  0  0  0  0  0
    6.7202   -0.5300   -0.5280 O   0  0  0  0  0  0  0  0  0  0  0  0
    7.8136   -0.0997    0.3101 C   0  0  0  0  0  0  0  0  0  0  0  0
    7.3853    0.6162    1.4873 O   0  0  0  0  0  0  0  0  0  0  0  0
    1.0399    0.7856    1.1812 O   0  0  0  0  0  0  0  0  0  0  0  0
   -0.2498    0.5918    0.7225 N   0  0  0  0  0  0  0  0  0  0  0  0
   -4.5071    0.0621    3.3217 H   0  0  0  0  0  0  0  0  0  0  0  0
   -5.6505   -0.7556    2.2374 H   0  0  0  0  0  0  0  0  0  0  0  0
   -3.8951   -1.0157    2.0510 H   0  0  0  0  0  0  0  0  0  0  0  0
   -7.0129    0.5318   -0.2229 H   0  0  0  0  0  0  0  0  0  0  0  0
   -7.4985   -0.6628   -2.3286 H   0  0  0  0  0  0  0  0  0  0  0  0
   -5.6417   -1.5977   -3.6828 H   0  0  0  0  0  0  0  0  0  0  0  0
   -3.3242   -1.3427   -2.9636 H   0  0  0  0  0  0  0  0  0  0  0  0
   -2.4047    0.4763    0.1870 H   0  0  0  0  0  0  0  0  0  0  0  0
    1.6310   -0.8386   -1.5957 H   0  0  0  0  0  0  0  0  0  0  0  0
    3.0184    1.4674    2.5049 H   0  0  0  0  0  0  0  0  0  0  0  0
    5.4194    1.6656    3.0786 H   0  0  0  0  0  0  0  0  0  0  0  0
    4.0783   -0.7139   -1.1005 H   0  0  0  0  0  0  0  0  0  0  0  0
    8.3829   -0.9822    0.6240 H   0  0  0  0  0  0  0  0  0  0  0  0
    8.4702    0.5522   -0.2775 H   0  0  0  0  0  0  0  0  0  0  0  0
  1  2  1  0
  2  3  1  0
  3  4  2  0
  4  5  1  0
  5  6  2  0
  6  7  1  0
  7  8  2  0
  8  9  1  0
  9 10  1  0
 10 11  2  0
 10 12  1  0
 12 13  1  0
 13 14  2  0
 14 15  1  0
 15 16  2  0
 16 17  1  0
 17 18  2  0
 18 19  1  0
 19 20  2  0
 19 21  1  0
 21 22  1  0
 22 23  1  0
 14 24  1  0
 24 25  1  0
  8  3  1  0
 25 12  2  0
 20 15  1  0
 23 18  1  0
  1 26  1  0
  1 27  1  0
  1 28  1  0
  4 29  1  0
  5 30  1  0
  6 31  1  0
  7 32  1  0
  9 33  1  0
 13 34  1  0
 16 35  1  0
 17 36  1  0
 20 37  1  0
 22 38  1  0
 22 39  1  0
M  END
$$$$
