
     RDKit          3D

 38 40  0  0  0  0  0  0  0  0999 V2000
   -6.9421    0.8073   -0.0854 C   0  0  0  0  0  0  0  0  0  0  0  0
   -5.8472    1.7887   -0.4642 C   0  0  0  0  0  0  0  0  0  0  0  0
   -4.5650    1.1678   -0.4904 O   0  0  0  0  0  0  0  0  0  0  0  0
   -4.3545    0.3493   -1.6428 C   0  0  0  0  0  0  0  0  0  0  0  0
   -2.9172   -0.0524   -1.6607 C   0  0  0  0  0  0  0  0  0  0  0  0
   -2.0333    0.3423   -2.5563 N   0  0  0  0  0  0  0  0  0  0  0  0
   -0.7857   -0.2006   -2.3232 N   0  0  0  0  0  0  0  0  0  0  0  0
   -0.7750   -0.9879   -1.2704 C   0  0  0  0  0  0  0  0  0  0  0  0
    0.3618   -1.6277   -0.8520 N   0  0  0  0  0  0  0  0  0  0  0  0
    0.5044   -2.4510    0.2412 C   0  0  0  0  0  0  0  0  0  0  0  0
   -0.3702   -2.8029    1.0264 O   0  0  0  0  0  0  0  0  0  0  0  0
    1.9378   -2.9735    0.3944 C   0  0  0  0  0  0  0  0  0  0  0  0
    2.9341   -2.1614   -0.2139 O   0  0  0  0  0  0  0  0  0  0  0  0
    3.3692   -1.0556    0.4672 C   0  0  0  0  0  0  0  0  0  0  0  0
    2.8279   -0.5588    1.6682 C   0  0  0  0  0  0  0  0  0  0  0  0
    3.3494    0.5994    2.2605 C   0  0  0  0  0  0  0  0  0  0  0  0
    4.3990    1.2302    1.6309 C   0  0  0  0  0  0  0  0  0  0  0  0
    4.9275    0.7496    0.4583 C   0  0  0  0  0  0  0  0  0  0  0  0
    4.4347   -0.3864   -0.1471 C   0  0  0  0  0  0  0  0  0  0  0  0
    5.9532    1.5153   -0.0009 O   0  0  0  0  0  0  0  0  0  0  0  0
    6.0030    2.5393    1.0150 C   0  0  0  0  0  0  0  0  0  0  0  0
    5.0235    2.3587    2.0591 O   0  0  0  0  0  0  0  0  0  0  0  0
   -2.2816   -1.1437   -0.4936 S   0  0  0  0  0  0  0  0  0  0  0  0
   -7.0869    0.0538   -0.8656 H   0  0  0  0  0  0  0  0  0  0  0  0
   -6.6823    0.2737    0.8348 H   0  0  0  0  0  0  0  0  0  0  0  0
   -7.8921    1.3289    0.0630 H   0  0  0  0  0  0  0  0  0  0  0  0
   -6.0607    2.2730   -1.4236 H   0  0  0  0  0  0  0  0  0  0  0  0
   -5.8017    2.5767    0.2949 H   0  0  0  0  0  0  0  0  0  0  0  0
   -4.9959   -0.5371   -1.6024 H   0  0  0  0  0  0  0  0  0  0  0  0
   -4.5872    0.9164   -2.5514 H   0  0  0  0  0  0  0  0  0  0  0  0
    1.1881   -1.4033   -1.3947 H   0  0  0  0  0  0  0  0  0  0  0  0
    1.9678   -3.9448   -0.1129 H   0  0  0  0  0  0  0  0  0  0  0  0
    2.1631   -3.1646    1.4500 H   0  0  0  0  0  0  0  0  0  0  0  0
    1.9945   -1.0408    2.1710 H   0  0  0  0  0  0  0  0  0  0  0  0
    2.9377    0.9908    3.1844 H   0  0  0  0  0  0  0  0  0  0  0  0
    4.8658   -0.7478   -1.0741 H   0  0  0  0  0  0  0  0  0  0  0  0
    5.8344    3.5127    0.5393 H   0  0  0  0  0  0  0  0  0  0  0  0
    7.0017    2.5366    1.4669 H   0  0  0  0  0  0  0  0  0  0  0  0
  1  2  1  0
  2  3  1  0
  3  4  1  0
  4  5  1  0
  5  6  2  0
  6  7  1  0
  7  8  2  0
  8  9  1  0
  9 10  1  0
 10 11  2  0
 10 12  1  0
 12 13  1  0
 13 14  1  0
 14 15  2  0
 15 16  1  0
 16 17  2  0
 17 18  1  0
 18 19  2  0
 18 20  1  0
 20 21  1  0
 21 22  1  0
  8 23  1  0
 23  5  1  0
 19 14  1  0
 22 17  1  0
  1 24  1  0
  1 25  1  0
  1 26  1  0
  2 27  1  0
  2 28  1  0
  4 29  1  0
  4 30  1  0
  9 31  1  0
 12 32  1  0
 12 33  1  0
 15 34  1  0
 16 35  1  0
 19 36  1  0
 21 37  1  0
 21 38  1  0
M  END
$$$$
