
     RDKit          3D

 40 42  0  0  0  0  0  0  0  0999 V2000
    4.9831   -1.4813   -0.2135 N   0  0  0  0  0  0  0  0  0  0  0  0
    3.5395   -1.3216   -0.0958 C   0  0  0  0  0  0  0  0  0  0  0  0
    3.1875    0.0415    0.4995 C   0  0  0  0  0  0  0  0  0  0  0  0
    1.6847    0.2277    0.7322 C   0  0  0  0  0  0  0  0  0  0  0  0
    0.8691    0.2502   -0.5709 C   0  0  0  0  0  0  0  0  0  0  0  0
   -0.5456    0.6125   -0.3204 N   0  0  0  0  0  0  0  0  0  0  0  0
   -0.8876    1.9939   -0.4273 C   0  0  0  0  0  0  0  0  0  0  0  0
    0.0884    3.0172   -0.3963 C   0  0  0  0  0  0  0  0  0  0  0  0
   -0.2375    4.3762   -0.4882 C   0  0  0  0  0  0  0  0  0  0  0  0
   -1.5604    4.7635   -0.6112 C   0  0  0  0  0  0  0  0  0  0  0  0
   -2.5497    3.7882   -0.6378 C   0  0  0  0  0  0  0  0  0  0  0  0
   -2.2266    2.4194   -0.5430 C   0  0  0  0  0  0  0  0  0  0  0  0
   -3.6084    1.3060   -0.6195 S   0  0  0  0  0  0  0  0  0  0  0  0
   -2.8627   -0.2517   -0.2055 C   0  0  0  0  0  0  0  0  0  0  0  0
   -3.7653   -1.3116    0.0098 C   0  0  0  0  0  0  0  0  0  0  0  0
   -3.3145   -2.5902    0.3194 C   0  0  0  0  0  0  0  0  0  0  0  0
   -1.9469   -2.8325    0.4134 C   0  0  0  0  0  0  0  0  0  0  0  0
   -1.4270   -4.2011    0.7781 C   0  0  0  0  0  0  0  0  0  0  0  0
   -2.2756   -5.2092    0.4339 F   0  0  0  0  0  0  0  0  0  0  0  0
   -0.2395   -4.4937    0.1774 F   0  0  0  0  0  0  0  0  0  0  0  0
   -1.2107   -4.3319    2.1155 F   0  0  0  0  0  0  0  0  0  0  0  0
   -1.0507   -1.7647    0.2024 C   0  0  0  0  0  0  0  0  0  0  0  0
   -1.4708   -0.4529   -0.1203 C   0  0  0  0  0  0  0  0  0  0  0  0
    5.4168   -1.4029    0.7061 H   0  0  0  0  0  0  0  0  0  0  0  0
    5.3748   -0.7254   -0.7741 H   0  0  0  0  0  0  0  0  0  0  0  0
    3.0993   -1.4358   -1.0910 H   0  0  0  0  0  0  0  0  0  0  0  0
    3.1416   -2.1254    0.5328 H   0  0  0  0  0  0  0  0  0  0  0  0
    3.5584    0.8435   -0.1511 H   0  0  0  0  0  0  0  0  0  0  0  0
    3.6974    0.1582    1.4645 H   0  0  0  0  0  0  0  0  0  0  0  0
    1.3223   -0.5593    1.4026 H   0  0  0  0  0  0  0  0  0  0  0  0
    1.5411    1.1654    1.2814 H   0  0  0  0  0  0  0  0  0  0  0  0
    1.3278    0.9351   -1.2958 H   0  0  0  0  0  0  0  0  0  0  0  0
    0.9360   -0.7142   -1.0885 H   0  0  0  0  0  0  0  0  0  0  0  0
    1.1437    2.7939   -0.2806 H   0  0  0  0  0  0  0  0  0  0  0  0
    0.5493    5.1259   -0.4577 H   0  0  0  0  0  0  0  0  0  0  0  0
   -1.8242    5.8148   -0.6833 H   0  0  0  0  0  0  0  0  0  0  0  0
   -3.5879    4.1007   -0.7348 H   0  0  0  0  0  0  0  0  0  0  0  0
   -4.8382   -1.1400   -0.0646 H   0  0  0  0  0  0  0  0  0  0  0  0
   -4.0351   -3.3890    0.4855 H   0  0  0  0  0  0  0  0  0  0  0  0
    0.0041   -1.9993    0.3167 H   0  0  0  0  0  0  0  0  0  0  0  0
  1  2  1  0
  2  3  1  0
  3  4  1  0
  4  5  1  0
  5  6  1  0
  6  7  1  0
  7  8  2  0
  8  9  1  0
  9 10  2  0
 10 11  1  0
 11 12  2  0
 12 13  1  0
 13 14  1  0
 14 15  2  0
 15 16  1  0
 16 17  2  0
 17 18  1  0
 18 19  1  0
 18 20  1  0
 18 21  1  0
 17 22  1  0
 22 23  2  0
 23  6  1  0
 12  7  1  0
 23 14  1  0
  1 24  1  0
  1 25  1  0
  2 26  1  0
  2 27  1  0
  3 28  1  0
  3 29  1  0
  4 30  1  0
  4 31  1  0
  5 32  1  0
  5 33  1  0
  8 34  1  0
  9 35  1  0
 10 36  1  0
 11 37  1  0
 15 38  1  0
 16 39  1  0
 22 40  1  0
M  END
$$$$
