
     RDKit          3D

 45 47  0  0  0  0  0  0  0  0999 V2000
    6.7906   -0.7533   -1.0823 C   0  0  0  0  0  0  0  0  0  0  0  0
    7.7541   -0.0438   -0.1468 C   0  0  0  0  0  0  0  0  0  0  0  0
    7.2211    0.1777    1.2717 C   0  0  0  0  0  0  0  0  0  0  0  0
    6.0978    1.2132    1.3878 C   0  0  0  0  0  0  0  0  0  0  0  0
    4.7441    0.6753    1.0512 C   0  0  0  0  0  0  0  0  0  0  0  0
    4.2736   -0.4930    1.4363 N   0  0  0  0  0  0  0  0  0  0  0  0
    2.9830   -0.7033    0.9960 N   0  0  0  0  0  0  0  0  0  0  0  0
    2.5187    0.3198    0.3153 C   0  0  0  0  0  0  0  0  0  0  0  0
    1.2518    0.3322   -0.2027 N   0  0  0  0  0  0  0  0  0  0  0  0
    0.6055    1.3898   -0.8043 C   0  0  0  0  0  0  0  0  0  0  0  0
    1.0657    2.5033   -1.0406 O   0  0  0  0  0  0  0  0  0  0  0  0
   -0.8272    1.0437   -1.2182 C   0  0  0  0  0  0  0  0  0  0  0  0
   -1.3063   -0.0863   -0.4831 O   0  0  0  0  0  0  0  0  0  0  0  0
   -2.6699   -0.1905   -0.4567 C   0  0  0  0  0  0  0  0  0  0  0  0
   -3.4916    0.0334   -1.5608 C   0  0  0  0  0  0  0  0  0  0  0  0
   -4.8820   -0.0995   -1.4442 C   0  0  0  0  0  0  0  0  0  0  0  0
   -5.4681   -0.4679   -0.2260 C   0  0  0  0  0  0  0  0  0  0  0  0
   -6.9162   -0.6189   -0.0330 C   0  0  0  0  0  0  0  0  0  0  0  0
   -7.8617   -0.3970   -1.1795 C   0  0  0  0  0  0  0  0  0  0  0  0
   -7.3640   -0.9452    1.1859 C   0  0  0  0  0  0  0  0  0  0  0  0
   -6.4842   -1.1586    2.3443 C   0  0  0  0  0  0  0  0  0  0  0  0
   -6.9556   -1.4024    3.4495 O   0  0  0  0  0  0  0  0  0  0  0  0
   -5.1225   -1.0664    2.1186 O   0  0  0  0  0  0  0  0  0  0  0  0
   -4.6189   -0.7056    0.8550 C   0  0  0  0  0  0  0  0  0  0  0  0
   -3.2326   -0.5857    0.7526 C   0  0  0  0  0  0  0  0  0  0  0  0
    3.6208    1.6076    0.1378 S   0  0  0  0  0  0  0  0  0  0  0  0
    7.3087   -1.0459   -2.0047 H   0  0  0  0  0  0  0  0  0  0  0  0
    5.9591   -0.1025   -1.3695 H   0  0  0  0  0  0  0  0  0  0  0  0
    6.3869   -1.6609   -0.6200 H   0  0  0  0  0  0  0  0  0  0  0  0
    8.0533    0.9139   -0.5872 H   0  0  0  0  0  0  0  0  0  0  0  0
    8.6640   -0.6515   -0.0724 H   0  0  0  0  0  0  0  0  0  0  0  0
    6.9234   -0.7803    1.7145 H   0  0  0  0  0  0  0  0  0  0  0  0
    8.0625    0.5445    1.8743 H   0  0  0  0  0  0  0  0  0  0  0  0
    6.0569    1.5557    2.4305 H   0  0  0  0  0  0  0  0  0  0  0  0
    6.3404    2.0934    0.7825 H   0  0  0  0  0  0  0  0  0  0  0  0
    0.7017   -0.4911    0.0186 H   0  0  0  0  0  0  0  0  0  0  0  0
   -1.4429    1.9290   -1.0257 H   0  0  0  0  0  0  0  0  0  0  0  0
   -0.8103    0.8118   -2.2898 H   0  0  0  0  0  0  0  0  0  0  0  0
   -3.0744    0.2932   -2.5251 H   0  0  0  0  0  0  0  0  0  0  0  0
   -5.4900    0.0897   -2.3264 H   0  0  0  0  0  0  0  0  0  0  0  0
   -8.9008   -0.5899   -0.8962 H   0  0  0  0  0  0  0  0  0  0  0  0
   -7.8097    0.6383   -1.5254 H   0  0  0  0  0  0  0  0  0  0  0  0
   -7.6309   -1.0640   -2.0158 H   0  0  0  0  0  0  0  0  0  0  0  0
   -8.4212   -1.0625    1.3972 H   0  0  0  0  0  0  0  0  0  0  0  0
   -2.6027   -0.7850    1.6170 H   0  0  0  0  0  0  0  0  0  0  0  0
  1  2  1  0
  2  3  1  0
  3  4  1  0
  4  5  1  0
  5  6  2  0
  6  7  1  0
  7  8  2  0
  8  9  1  0
  9 10  1  0
 10 11  2  0
 10 12  1  0
 12 13  1  0
 13 14  1  0
 14 15  2  0
 15 16  1  0
 16 17  2  0
 17 18  1  0
 18 19  1  0
 18 20  2  0
 20 21  1  0
 21 22  2  0
 21 23  1  0
 23 24  1  0
 24 25  2  0
  8 26  1  0
 26  5  1  0
 25 14  1  0
 24 17  1  0
  1 27  1  0
  1 28  1  0
  1 29  1  0
  2 30  1  0
  2 31  1  0
  3 32  1  0
  3 33  1  0
  4 34  1  0
  4 35  1  0
  9 36  1  0
 12 37  1  0
 12 38  1  0
 15 39  1  0
 16 40  1  0
 19 41  1  0
 19 42  1  0
 19 43  1  0
 20 44  1  0
 25 45  1  0
M  END
$$$$
