
     RDKit          3D

 47 50  0  0  0  0  0  0  0  0999 V2000
   -5.1439    1.0962    1.2754 N   0  0  0  0  0  0  0  0  0  0  0  0
   -4.7944    2.2360    1.9033 C   0  0  0  0  0  0  0  0  0  0  0  0
   -5.7012    3.0256    2.4783 N   0  0  0  0  0  0  0  0  0  0  0  0
   -4.9832    4.0299    3.1052 O   0  0  0  0  0  0  0  0  0  0  0  0
   -3.6218    3.8647    2.9062 N   0  0  0  0  0  0  0  0  0  0  0  0
   -3.5144    2.7795    2.1282 C   0  0  0  0  0  0  0  0  0  0  0  0
   -2.2024    2.4044    1.7182 N   0  0  0  0  0  0  0  0  0  0  0  0
   -1.1035    2.9420    2.3365 N   0  0  0  0  0  0  0  0  0  0  0  0
   -0.0099    2.3585    1.8851 N   0  0  0  0  0  0  0  0  0  0  0  0
   -0.3695    1.4970    0.8897 C   0  0  0  0  0  0  0  0  0  0  0  0
    0.6186    0.7194    0.1453 C   0  0  0  0  0  0  0  0  0  0  0  0
    0.3079   -0.0237   -0.7803 O   0  0  0  0  0  0  0  0  0  0  0  0
    1.9087    0.9340    0.6072 N   0  0  0  0  0  0  0  0  0  0  0  0
    2.9706    0.2963    0.0386 N   0  0  0  0  0  0  0  0  0  0  0  0
    4.1249    0.5766    0.5537 C   0  0  0  0  0  0  0  0  0  0  0  0
    5.3707   -0.0353    0.0500 C   0  0  0  0  0  0  0  0  0  0  0  0
    5.3437   -0.9484   -1.0086 C   0  0  0  0  0  0  0  0  0  0  0  0
    6.5352   -1.5140   -1.4647 C   0  0  0  0  0  0  0  0  0  0  0  0
    7.7395   -1.1649   -0.8622 C   0  0  0  0  0  0  0  0  0  0  0  0
    8.8774   -1.7430   -1.3407 O   0  0  0  0  0  0  0  0  0  0  0  0
    7.7765   -0.2562    0.1925 C   0  0  0  0  0  0  0  0  0  0  0  0
    6.5854    0.3124    0.6519 C   0  0  0  0  0  0  0  0  0  0  0  0
   -1.7471    1.5401    0.7229 C   0  0  0  0  0  0  0  0  0  0  0  0
   -2.5728    0.8729   -0.3091 C   0  0  0  0  0  0  0  0  0  0  0  0
   -2.9689   -0.3707    0.2662 O   0  0  0  0  0  0  0  0  0  0  0  0
   -3.4966   -1.2999   -0.5903 C   0  0  0  0  0  0  0  0  0  0  0  0
   -4.0234   -1.0313   -1.8564 C   0  0  0  0  0  0  0  0  0  0  0  0
   -4.5608   -2.0702   -2.6220 C   0  0  0  0  0  0  0  0  0  0  0  0
   -4.5744   -3.3650   -2.1166 C   0  0  0  0  0  0  0  0  0  0  0  0
   -5.0933   -4.3556   -2.8531 F   0  0  0  0  0  0  0  0  0  0  0  0
   -4.0629   -3.6433   -0.8561 C   0  0  0  0  0  0  0  0  0  0  0  0
   -3.5269   -2.6067   -0.0910 C   0  0  0  0  0  0  0  0  0  0  0  0
   -6.1076    0.7981    1.4129 H   0  0  0  0  0  0  0  0  0  0  0  0
   -4.5165    0.2921    1.2900 H   0  0  0  0  0  0  0  0  0  0  0  0
    2.0492    1.5788    1.3802 H   0  0  0  0  0  0  0  0  0  0  0  0
    4.2275    1.2863    1.3948 H   0  0  0  0  0  0  0  0  0  0  0  0
    4.4027   -1.2236   -1.4803 H   0  0  0  0  0  0  0  0  0  0  0  0
    6.5224   -2.2243   -2.2869 H   0  0  0  0  0  0  0  0  0  0  0  0
    9.6363   -1.4146   -0.8315 H   0  0  0  0  0  0  0  0  0  0  0  0
    8.7148    0.0185    0.6643 H   0  0  0  0  0  0  0  0  0  0  0  0
    6.6175    1.0209    1.4753 H   0  0  0  0  0  0  0  0  0  0  0  0
   -1.9860    0.7150   -1.2210 H   0  0  0  0  0  0  0  0  0  0  0  0
   -3.4387    1.4843   -0.5818 H   0  0  0  0  0  0  0  0  0  0  0  0
   -4.0401   -0.0296   -2.2730 H   0  0  0  0  0  0  0  0  0  0  0  0
   -4.9702   -1.8769   -3.6087 H   0  0  0  0  0  0  0  0  0  0  0  0
   -4.0805   -4.6606   -0.4792 H   0  0  0  0  0  0  0  0  0  0  0  0
   -3.1187   -2.8215    0.8937 H   0  0  0  0  0  0  0  0  0  0  0  0
  1  2  1  0
  2  3  2  0
  3  4  1  0
  4  5  1  0
  5  6  2  0
  6  7  1  0
  7  8  1  0
  8  9  2  0
  9 10  1  0
 10 11  1  0
 11 12  2  0
 11 13  1  0
 13 14  1  0
 14 15  2  3
 15 16  1  0
 16 17  2  0
 17 18  1  0
 18 19  2  0
 19 20  1  0
 19 21  1  0
 21 22  2  0
 10 23  2  0
 23 24  1  0
 24 25  1  0
 25 26  1  0
 26 27  2  0
 27 28  1  0
 28 29  2  0
 29 30  1  0
 29 31  1  0
 31 32  2  0
  6  2  1  0
 23  7  1  0
 32 26  1  0
 22 16  1  0
  1 33  1  0
  1 34  1  0
 13 35  1  0
 15 36  1  0
 17 37  1  0
 18 38  1  0
 20 39  1  0
 21 40  1  0
 22 41  1  0
 24 42  1  0
 24 43  1  0
 27 44  1  0
 28 45  1  0
 31 46  1  0
 32 47  1  0
M  END
$$$$
