
     RDKit          3D

 62 67  0  0  0  0  0  0  0  0999 V2000
   -3.3266   -4.0695    0.3168 C   0  0  0  0  0  0  0  0  0  0  0  0
   -3.3181   -2.7125    0.7359 O   0  0  0  0  0  0  0  0  0  0  0  0
   -3.0578   -2.4586    2.0594 C   0  0  0  0  0  0  0  0  0  0  0  0
   -2.7082   -3.4368    2.9982 C   0  0  0  0  0  0  0  0  0  0  0  0
   -2.4409   -3.0856    4.3249 C   0  0  0  0  0  0  0  0  0  0  0  0
   -2.5161   -1.7556    4.7277 C   0  0  0  0  0  0  0  0  0  0  0  0
   -2.8638   -0.7721    3.8038 C   0  0  0  0  0  0  0  0  0  0  0  0
   -3.1410   -1.1115    2.4691 C   0  0  0  0  0  0  0  0  0  0  0  0
   -3.4980   -0.0386    1.5318 C   0  0  0  0  0  0  0  0  0  0  0  0
   -5.1536    0.2840    1.2621 S   0  0  0  0  0  0  0  0  0  0  0  0
   -4.8184    1.5692    0.1691 C   0  0  0  0  0  0  0  0  0  0  0  0
   -5.7721    2.3626   -0.5062 C   0  0  0  0  0  0  0  0  0  0  0  0
   -5.2790    3.3447   -1.3402 C   0  0  0  0  0  0  0  0  0  0  0  0
   -3.9379    3.5500   -1.5150 C   0  0  0  0  0  0  0  0  0  0  0  0
   -2.9883    2.7860   -0.8658 C   0  0  0  0  0  0  0  0  0  0  0  0
   -3.4359    1.7586    0.0107 C   0  0  0  0  0  0  0  0  0  0  0  0
   -2.6834    0.8170    0.8107 C   0  0  0  0  0  0  0  0  0  0  0  0
   -1.2305    0.7371    0.8923 C   0  0  0  0  0  0  0  0  0  0  0  0
   -0.5408   -0.2872    0.2365 C   0  0  0  0  0  0  0  0  0  0  0  0
    0.8559   -0.3539    0.2999 C   0  0  0  0  0  0  0  0  0  0  0  0
    1.5720    0.6032    1.0189 C   0  0  0  0  0  0  0  0  0  0  0  0
    2.9296    0.6666    1.1600 O   0  0  0  0  0  0  0  0  0  0  0  0
    3.7385   -0.3264    0.5230 C   0  0  0  0  0  0  0  0  0  0  0  0
    4.0481    0.0714   -0.9316 C   0  0  0  0  0  0  0  0  0  0  0  0
    4.8623   -0.9142   -1.6661 N   0  0  0  0  0  0  0  0  0  0  0  0
    6.2009   -1.0889   -1.0559 C   0  0  0  0  0  0  0  0  0  0  0  0
    7.2431   -1.5767   -2.0740 C   0  0  0  0  0  0  0  0  0  0  0  0
    7.4706   -0.6270   -3.1240 O   0  0  0  0  0  0  0  0  0  0  0  0
    6.3121    0.1626   -3.4288 C   0  0  0  0  0  0  0  0  0  0  0  0
    4.9922   -0.5501   -3.0964 C   0  0  0  0  0  0  0  0  0  0  0  0
    0.8777    1.6265    1.6715 C   0  0  0  0  0  0  0  0  0  0  0  0
   -0.5158    1.6987    1.6096 C   0  0  0  0  0  0  0  0  0  0  0  0
   -3.6739    4.5665   -2.3802 O   0  0  0  0  0  0  0  0  0  0  0  0
   -5.0109    4.9788   -2.7295 C   0  0  0  0  0  0  0  0  0  0  0  0
   -6.0366    4.2064   -2.0728 O   0  0  0  0  0  0  0  0  0  0  0  0
   -3.5907   -4.0888   -0.7448 H   0  0  0  0  0  0  0  0  0  0  0  0
   -4.0823   -4.6475    0.8587 H   0  0  0  0  0  0  0  0  0  0  0  0
   -2.3339   -4.5194    0.4196 H   0  0  0  0  0  0  0  0  0  0  0  0
   -2.6297   -4.4851    2.7299 H   0  0  0  0  0  0  0  0  0  0  0  0
   -2.1691   -3.8544    5.0441 H   0  0  0  0  0  0  0  0  0  0  0  0
   -2.3037   -1.4835    5.7582 H   0  0  0  0  0  0  0  0  0  0  0  0
   -2.9186    0.2659    4.1250 H   0  0  0  0  0  0  0  0  0  0  0  0
   -6.8366    2.2074   -0.3762 H   0  0  0  0  0  0  0  0  0  0  0  0
   -1.9304    2.9666   -1.0253 H   0  0  0  0  0  0  0  0  0  0  0  0
   -1.0878   -1.0391   -0.3295 H   0  0  0  0  0  0  0  0  0  0  0  0
    1.3444   -1.1641   -0.2306 H   0  0  0  0  0  0  0  0  0  0  0  0
    3.3060   -1.3299    0.6059 H   0  0  0  0  0  0  0  0  0  0  0  0
    4.6717   -0.3568    1.0970 H   0  0  0  0  0  0  0  0  0  0  0  0
    4.5236    1.0615   -0.9422 H   0  0  0  0  0  0  0  0  0  0  0  0
    3.0929    0.2016   -1.4549 H   0  0  0  0  0  0  0  0  0  0  0  0
    6.5577   -0.1371   -0.6406 H   0  0  0  0  0  0  0  0  0  0  0  0
    6.1296   -1.8119   -0.2362 H   0  0  0  0  0  0  0  0  0  0  0  0
    6.9365   -2.5264   -2.5275 H   0  0  0  0  0  0  0  0  0  0  0  0
    8.2032   -1.7491   -1.5765 H   0  0  0  0  0  0  0  0  0  0  0  0
    6.3912    1.1090   -2.8813 H   0  0  0  0  0  0  0  0  0  0  0  0
    6.3520    0.4009   -4.4965 H   0  0  0  0  0  0  0  0  0  0  0  0
    4.9557   -1.4870   -3.6659 H   0  0  0  0  0  0  0  0  0  0  0  0
    4.1414    0.0481   -3.4419 H   0  0  0  0  0  0  0  0  0  0  0  0
    1.4284    2.3773    2.2322 H   0  0  0  0  0  0  0  0  0  0  0  0
   -1.0341    2.5044    2.1232 H   0  0  0  0  0  0  0  0  0  0  0  0
   -5.1358    6.0325   -2.4553 H   0  0  0  0  0  0  0  0  0  0  0  0
   -5.1370    4.8801   -3.8139 H   0  0  0  0  0  0  0  0  0  0  0  0
  1  2  1  0
  2  3  1  0
  3  4  2  0
  4  5  1  0
  5  6  2  0
  6  7  1  0
  7  8  2  0
  8  9  1  0
  9 10  1  0
 10 11  1  0
 11 12  2  0
 12 13  1  0
 13 14  2  0
 14 15  1  0
 15 16  2  0
 16 17  1  0
 17 18  1  0
 18 19  2  0
 19 20  1  0
 20 21  2  0
 21 22  1  0
 22 23  1  0
 23 24  1  0
 24 25  1  0
 25 26  1  0
 26 27  1  0
 27 28  1  0
 28 29  1  0
 29 30  1  0
 21 31  1  0
 31 32  2  0
 14 33  1  0
 33 34  1  0
 34 35  1  0
  8  3  1  0
 17  9  2  0
 32 18  1  0
 16 11  1  0
 30 25  1  0
 35 13  1  0
  1 36  1  0
  1 37  1  0
  1 38  1  0
  4 39  1  0
  5 40  1  0
  6 41  1  0
  7 42  1  0
 12 43  1  0
 15 44  1  0
 19 45  1  0
 20 46  1  0
 23 47  1  0
 23 48  1  0
 24 49  1  0
 24 50  1  0
 26 51  1  0
 26 52  1  0
 27 53  1  0
 27 54  1  0
 29 55  1  0
 29 56  1  0
 30 57  1  0
 30 58  1  0
 31 59  1  0
 32 60  1  0
 34 61  1  0
 34 62  1  0
M  END
$$$$
