
     RDKit          3D

 48 50  0  0  0  0  0  0  0  0999 V2000
    7.2813    1.0131    2.8190 C   0  0  0  0  0  0  0  0  0  0  0  0
    7.5870    0.9097    1.4334 O   0  0  0  0  0  0  0  0  0  0  0  0
    6.5940    0.4522    0.6113 C   0  0  0  0  0  0  0  0  0  0  0  0
    5.3388   -0.0061    1.0171 C   0  0  0  0  0  0  0  0  0  0  0  0
    4.4089   -0.4524    0.0697 C   0  0  0  0  0  0  0  0  0  0  0  0
    4.7349   -0.4569   -1.2897 C   0  0  0  0  0  0  0  0  0  0  0  0
    3.8339   -0.8417   -2.2488 O   0  0  0  0  0  0  0  0  0  0  0  0
    3.2261   -2.1188   -2.0219 C   0  0  0  0  0  0  0  0  0  0  0  0
    1.8077   -1.8925   -1.6647 C   0  0  0  0  0  0  0  0  0  0  0  0
    0.8202   -1.0561   -2.1243 C   0  0  0  0  0  0  0  0  0  0  0  0
   -0.3084   -1.3572   -1.3225 C   0  0  0  0  0  0  0  0  0  0  0  0
   -1.6347   -0.7400   -1.3871 C   0  0  0  0  0  0  0  0  0  0  0  0
   -1.9011    0.1760   -2.1595 O   0  0  0  0  0  0  0  0  0  0  0  0
   -2.5481   -1.2647   -0.4953 N   0  0  0  0  0  0  0  0  0  0  0  0
   -3.8819   -0.6993   -0.3185 C   0  0  0  0  0  0  0  0  0  0  0  0
   -4.8028   -1.7596    0.2852 C   0  0  0  0  0  0  0  0  0  0  0  0
   -3.8215    0.5779    0.5398 C   0  0  0  0  0  0  0  0  0  0  0  0
   -5.0993    1.3748    0.4852 C   0  0  0  0  0  0  0  0  0  0  0  0
   -5.3536    2.2252   -0.5896 C   0  0  0  0  0  0  0  0  0  0  0  0
   -6.5512    2.9337   -0.6166 C   0  0  0  0  0  0  0  0  0  0  0  0
   -7.4596    2.7744    0.4227 C   0  0  0  0  0  0  0  0  0  0  0  0
   -7.1306    1.9071    1.4509 C   0  0  0  0  0  0  0  0  0  0  0  0
   -5.9769    1.2048    1.5040 N   0  0  0  0  0  0  0  0  0  0  0  0
   -0.0140   -2.3232   -0.4319 N   0  0  0  0  0  0  0  0  0  0  0  0
    1.3098   -2.6551   -0.6552 O   0  0  0  0  0  0  0  0  0  0  0  0
    5.9855    0.0234   -1.6965 C   0  0  0  0  0  0  0  0  0  0  0  0
    6.4307    0.0654   -3.3655 Cl  0  0  0  0  0  0  0  0  0  0  0  0
    6.9119    0.4654   -0.7493 C   0  0  0  0  0  0  0  0  0  0  0  0
    8.1656    1.4112    3.3271 H   0  0  0  0  0  0  0  0  0  0  0  0
    6.4555    1.7132    2.9882 H   0  0  0  0  0  0  0  0  0  0  0  0
    7.0628    0.0302    3.2508 H   0  0  0  0  0  0  0  0  0  0  0  0
    5.0462   -0.0223    2.0626 H   0  0  0  0  0  0  0  0  0  0  0  0
    3.4277   -0.7719    0.4124 H   0  0  0  0  0  0  0  0  0  0  0  0
    3.2745   -2.6728   -2.9660 H   0  0  0  0  0  0  0  0  0  0  0  0
    3.7560   -2.7176   -1.2708 H   0  0  0  0  0  0  0  0  0  0  0  0
    0.8954   -0.3228   -2.9142 H   0  0  0  0  0  0  0  0  0  0  0  0
   -2.1873   -1.9360    0.1773 H   0  0  0  0  0  0  0  0  0  0  0  0
   -4.2556   -0.4487   -1.3195 H   0  0  0  0  0  0  0  0  0  0  0  0
   -5.8367   -1.4069    0.3467 H   0  0  0  0  0  0  0  0  0  0  0  0
   -4.7982   -2.6677   -0.3282 H   0  0  0  0  0  0  0  0  0  0  0  0
   -4.4748   -2.0429    1.2913 H   0  0  0  0  0  0  0  0  0  0  0  0
   -3.5941    0.3193    1.5822 H   0  0  0  0  0  0  0  0  0  0  0  0
   -2.9979    1.2263    0.2135 H   0  0  0  0  0  0  0  0  0  0  0  0
   -4.6325    2.3355   -1.3947 H   0  0  0  0  0  0  0  0  0  0  0  0
   -6.7720    3.6042   -1.4426 H   0  0  0  0  0  0  0  0  0  0  0  0
   -8.4007    3.3124    0.4317 H   0  0  0  0  0  0  0  0  0  0  0  0
   -7.8072    1.7476    2.2859 H   0  0  0  0  0  0  0  0  0  0  0  0
    7.8867    0.8303   -1.0665 H   0  0  0  0  0  0  0  0  0  0  0  0
  1  2  1  0
  2  3  1  0
  3  4  2  0
  4  5  1  0
  5  6  2  0
  6  7  1  0
  7  8  1  0
  8  9  1  0
  9 10  2  0
 10 11  1  0
 11 12  1  0
 12 13  2  0
 12 14  1  0
 14 15  1  0
 15 16  1  0
 15 17  1  0
 17 18  1  0
 18 19  2  0
 19 20  1  0
 20 21  2  0
 21 22  1  0
 22 23  2  0
 11 24  2  0
 24 25  1  0
  6 26  1  0
 26 27  1  0
 26 28  2  0
 28  3  1  0
 25  9  1  0
 23 18  1  0
  1 29  1  0
  1 30  1  0
  1 31  1  0
  4 32  1  0
  5 33  1  0
  8 34  1  0
  8 35  1  0
 10 36  1  0
 14 37  1  0
 15 38  1  0
 16 39  1  0
 16 40  1  0
 16 41  1  0
 17 42  1  0
 17 43  1  0
 19 44  1  0
 20 45  1  0
 21 46  1  0
 22 47  1  0
 28 48  1  0
M  END
$$$$
