
     RDKit          3D

 60 62  0  0  0  0  0  0  0  0999 V2000
    0.3907    4.9383    1.6678 C   0  0  0  0  0  0  0  0  0  0  0  0
   -0.4485    4.0780    0.7699 C   0  0  0  0  0  0  0  0  0  0  0  0
   -0.1502    3.9909   -0.5928 C   0  0  0  0  0  0  0  0  0  0  0  0
   -0.9298    3.1965   -1.4317 C   0  0  0  0  0  0  0  0  0  0  0  0
   -2.0174    2.4725   -0.9159 C   0  0  0  0  0  0  0  0  0  0  0  0
   -2.9092    1.4347   -2.0613 S   0  0  0  0  0  6  0  0  0  0  0  0
   -3.6006    2.3241   -2.9718 O   0  0  0  0  0  0  0  0  0  0  0  0
   -3.6181    0.3917   -1.3516 O   0  0  0  0  0  0  0  0  0  0  0  0
   -1.6803    0.7086   -2.9756 N   0  0  0  0  0  0  0  0  0  0  0  0
   -1.1401   -0.5313   -2.5067 C   0  0  0  0  0  0  0  0  0  0  0  0
   -0.1399   -0.4679   -1.5290 C   0  0  0  0  0  0  0  0  0  0  0  0
    0.4134   -1.6289   -0.9892 C   0  0  0  0  0  0  0  0  0  0  0  0
    1.5102   -1.6362    0.0773 C   0  0  0  0  0  0  0  0  0  0  0  0
    1.6463   -0.4308    0.9846 C   0  0  0  0  0  0  0  0  0  0  0  0
    1.4085    0.7339    0.7069 O   0  0  0  0  0  0  0  0  0  0  0  0
    2.1498   -0.8398    2.1907 O   0  0  0  0  0  0  0  0  0  0  0  0
    2.3727    0.1893    3.1759 C   0  0  0  0  0  0  0  0  0  0  0  0
    3.7191    0.8586    2.9244 C   0  0  0  0  0  0  0  0  0  0  0  0
    2.3554   -0.4903    4.5401 C   0  0  0  0  0  0  0  0  0  0  0  0
    2.8639   -1.9629   -0.5224 C   0  0  0  0  0  0  0  0  0  0  0  0
    3.2400   -1.4785   -1.5955 O   0  0  0  0  0  0  0  0  0  0  0  0
    3.7637   -2.8224    0.3442 C   0  0  0  0  0  0  0  0  0  0  0  0
    4.6802   -3.5275   -0.3739 F   0  0  0  0  0  0  0  0  0  0  0  0
    3.0780   -3.7388    1.0807 F   0  0  0  0  0  0  0  0  0  0  0  0
    4.4730   -2.0742    1.2337 F   0  0  0  0  0  0  0  0  0  0  0  0
   -0.0403   -2.8616   -1.4990 C   0  0  0  0  0  0  0  0  0  0  0  0
    0.5549   -3.9780   -0.9555 O   0  0  0  0  0  0  0  0  0  0  0  0
   -1.0392   -2.9664   -2.5041 C   0  0  0  0  0  0  0  0  0  0  0  0
   -1.4766   -4.1991   -3.0521 C   0  0  0  0  0  0  0  0  0  0  0  0
   -2.4860   -4.2627   -4.0140 C   0  0  0  0  0  0  0  0  0  0  0  0
   -3.0847   -3.0968   -4.4593 C   0  0  0  0  0  0  0  0  0  0  0  0
   -2.6557   -1.8683   -3.9593 C   0  0  0  0  0  0  0  0  0  0  0  0
   -1.6226   -1.7719   -2.9943 C   0  0  0  0  0  0  0  0  0  0  0  0
   -2.3676    2.5854    0.4427 C   0  0  0  0  0  0  0  0  0  0  0  0
   -3.5547    1.8985    1.0573 C   0  0  0  0  0  0  0  0  0  0  0  0
   -1.5626    3.3890    1.2718 C   0  0  0  0  0  0  0  0  0  0  0  0
    0.1599    5.9955    1.4976 H   0  0  0  0  0  0  0  0  0  0  0  0
    0.2095    4.7093    2.7242 H   0  0  0  0  0  0  0  0  0  0  0  0
    1.4548    4.7666    1.4738 H   0  0  0  0  0  0  0  0  0  0  0  0
    0.6941    4.5362   -1.0083 H   0  0  0  0  0  0  0  0  0  0  0  0
   -0.6785    3.1420   -2.4885 H   0  0  0  0  0  0  0  0  0  0  0  0
   -1.8672    0.7938   -3.9730 H   0  0  0  0  0  0  0  0  0  0  0  0
    0.2132    0.5107   -1.2212 H   0  0  0  0  0  0  0  0  0  0  0  0
    1.2178   -2.4476    0.7586 H   0  0  0  0  0  0  0  0  0  0  0  0
    1.5634    0.9291    3.1441 H   0  0  0  0  0  0  0  0  0  0  0  0
    4.5292    0.1209    2.9237 H   0  0  0  0  0  0  0  0  0  0  0  0
    3.7388    1.3446    1.9437 H   0  0  0  0  0  0  0  0  0  0  0  0
    3.9331    1.6140    3.6867 H   0  0  0  0  0  0  0  0  0  0  0  0
    3.1326   -1.2602    4.6056 H   0  0  0  0  0  0  0  0  0  0  0  0
    2.5087    0.2332    5.3464 H   0  0  0  0  0  0  0  0  0  0  0  0
    1.3972   -0.9972    4.7025 H   0  0  0  0  0  0  0  0  0  0  0  0
   -0.0347   -4.7398   -1.0812 H   0  0  0  0  0  0  0  0  0  0  0  0
   -1.0293   -5.1424   -2.7525 H   0  0  0  0  0  0  0  0  0  0  0  0
   -2.8021   -5.2235   -4.4113 H   0  0  0  0  0  0  0  0  0  0  0  0
   -3.8811   -3.1362   -5.1985 H   0  0  0  0  0  0  0  0  0  0  0  0
   -3.1546   -0.9766   -4.3310 H   0  0  0  0  0  0  0  0  0  0  0  0
   -3.3681    0.8241    1.1591 H   0  0  0  0  0  0  0  0  0  0  0  0
   -3.7660    2.2881    2.0597 H   0  0  0  0  0  0  0  0  0  0  0  0
   -4.4555    2.0751    0.4606 H   0  0  0  0  0  0  0  0  0  0  0  0
   -1.8110    3.4848    2.3298 H   0  0  0  0  0  0  0  0  0  0  0  0
  1  2  1  0
  2  3  2  0
  3  4  1  0
  4  5  2  0
  5  6  1  0
  6  7  2  0
  6  8  2  0
  6  9  1  0
  9 10  1  0
 10 11  2  0
 11 12  1  0
 12 13  1  0
 13 14  1  0
 14 15  2  0
 14 16  1  0
 16 17  1  0
 17 18  1  0
 17 19  1  0
 13 20  1  0
 20 21  2  0
 20 22  1  0
 22 23  1  0
 22 24  1  0
 22 25  1  0
 12 26  2  0
 26 27  1  0
 26 28  1  0
 28 29  2  0
 29 30  1  0
 30 31  2  0
 31 32  1  0
 32 33  2  0
  5 34  1  0
 34 35  1  0
 34 36  2  0
 36  2  1  0
 33 10  1  0
 33 28  1  0
  1 37  1  0
  1 38  1  0
  1 39  1  0
  3 40  1  0
  4 41  1  0
  9 42  1  0
 11 43  1  0
 13 44  1  0
 17 45  1  0
 18 46  1  0
 18 47  1  0
 18 48  1  0
 19 49  1  0
 19 50  1  0
 19 51  1  0
 27 52  1  0
 29 53  1  0
 30 54  1  0
 31 55  1  0
 32 56  1  0
 35 57  1  0
 35 58  1  0
 35 59  1  0
 36 60  1  0
M  END
$$$$
