
     RDKit          3D

 47 48  0  0  0  0  0  0  0  0999 V2000
    2.9494    0.2446    3.8190 C   0  0  0  0  0  0  0  0  0  0  0  0
    2.9157    0.5622    2.3370 C   0  0  0  0  0  0  0  0  0  0  0  0
    1.7525    1.3572    2.0775 O   0  0  0  0  0  0  0  0  0  0  0  0
    1.5755    1.6786    0.7681 C   0  0  0  0  0  0  0  0  0  0  0  0
    2.3063    1.3341   -0.1498 O   0  0  0  0  0  0  0  0  0  0  0  0
    0.3778    2.5389    0.6238 C   0  0  0  0  0  0  0  0  0  0  0  0
    0.1647    3.5574    1.5909 C   0  0  0  0  0  0  0  0  0  0  0  0
   -0.0321    4.4041    2.3605 N   0  0  0  0  0  0  0  0  0  0  0  0
   -0.4845    2.3887   -0.4000 C   0  0  0  0  0  0  0  0  0  0  0  0
   -0.4343    1.3534   -1.4221 C   0  0  0  0  0  0  0  0  0  0  0  0
   -0.6185    0.0326   -1.1649 C   0  0  0  0  0  0  0  0  0  0  0  0
   -0.9823   -0.4270    0.1197 N   0  0  0  0  0  0  0  0  0  0  0  0
   -2.2787   -0.0391    0.7306 C   0  0  0  0  0  0  0  0  0  0  0  0
   -2.8907   -1.2148    1.5072 C   0  0  0  0  0  0  0  0  0  0  0  0
   -2.0545   -1.6975    2.5702 O   0  0  0  0  0  0  0  0  0  0  0  0
   -0.6533   -1.5245    2.3083 C   0  0  0  0  0  0  0  0  0  0  0  0
   -0.3076   -1.5433    0.8113 C   0  0  0  0  0  0  0  0  0  0  0  0
   -0.5009   -0.9960   -2.3331 C   0  0  0  0  0  0  0  0  0  0  0  0
    0.7573   -1.8742   -2.2333 C   0  0  0  0  0  0  0  0  0  0  0  0
   -1.7495   -1.8904   -2.4057 C   0  0  0  0  0  0  0  0  0  0  0  0
   -0.4793   -0.3469   -3.6294 O   0  0  0  0  0  0  0  0  0  0  0  0
    0.4101    0.7606   -3.6943 C   0  0  0  0  0  0  0  0  0  0  0  0
   -0.1113    1.8694   -2.7999 C   0  0  0  0  0  0  0  0  0  0  0  0
    2.9758    1.1658    4.4103 H   0  0  0  0  0  0  0  0  0  0  0  0
    2.0471   -0.2994    4.1171 H   0  0  0  0  0  0  0  0  0  0  0  0
    3.8252   -0.3609    4.0684 H   0  0  0  0  0  0  0  0  0  0  0  0
    2.8673   -0.3687    1.7613 H   0  0  0  0  0  0  0  0  0  0  0  0
    3.8140    1.1235    2.0569 H   0  0  0  0  0  0  0  0  0  0  0  0
   -1.3234    3.0760   -0.5047 H   0  0  0  0  0  0  0  0  0  0  0  0
   -2.9845    0.2900   -0.0407 H   0  0  0  0  0  0  0  0  0  0  0  0
   -2.1044    0.7957    1.4186 H   0  0  0  0  0  0  0  0  0  0  0  0
   -3.8457   -0.9166    1.9514 H   0  0  0  0  0  0  0  0  0  0  0  0
   -3.0923   -2.0556    0.8334 H   0  0  0  0  0  0  0  0  0  0  0  0
   -0.1205   -2.3261    2.8294 H   0  0  0  0  0  0  0  0  0  0  0  0
   -0.3455   -0.5758    2.7627 H   0  0  0  0  0  0  0  0  0  0  0  0
   -0.6351   -2.4959    0.3837 H   0  0  0  0  0  0  0  0  0  0  0  0
    0.7771   -1.4550    0.6917 H   0  0  0  0  0  0  0  0  0  0  0  0
    1.6437   -1.2798   -1.9856 H   0  0  0  0  0  0  0  0  0  0  0  0
    0.9646   -2.3647   -3.1918 H   0  0  0  0  0  0  0  0  0  0  0  0
    0.6636   -2.6575   -1.4767 H   0  0  0  0  0  0  0  0  0  0  0  0
   -1.7116   -2.5374   -3.2905 H   0  0  0  0  0  0  0  0  0  0  0  0
   -2.6570   -1.2831   -2.5082 H   0  0  0  0  0  0  0  0  0  0  0  0
   -1.8655   -2.5318   -1.5280 H   0  0  0  0  0  0  0  0  0  0  0  0
    0.4395    1.1068   -4.7327 H   0  0  0  0  0  0  0  0  0  0  0  0
    1.4293    0.4615   -3.4264 H   0  0  0  0  0  0  0  0  0  0  0  0
   -1.0291    2.2897   -3.2303 H   0  0  0  0  0  0  0  0  0  0  0  0
    0.6354    2.6714   -2.7607 H   0  0  0  0  0  0  0  0  0  0  0  0
  1  2  1  0
  2  3  1  0
  3  4  1  0
  4  5  2  0
  4  6  1  0
  6  7  1  0
  7  8  3  0
  6  9  2  3
  9 10  1  0
 10 11  2  0
 11 12  1  0
 12 13  1  0
 13 14  1  0
 14 15  1  0
 15 16  1  0
 16 17  1  0
 11 18  1  0
 18 19  1  0
 18 20  1  0
 18 21  1  0
 21 22  1  0
 22 23  1  0
 23 10  1  0
 17 12  1  0
  1 24  1  0
  1 25  1  0
  1 26  1  0
  2 27  1  0
  2 28  1  0
  9 29  1  0
 13 30  1  0
 13 31  1  0
 14 32  1  0
 14 33  1  0
 16 34  1  0
 16 35  1  0
 17 36  1  0
 17 37  1  0
 19 38  1  0
 19 39  1  0
 19 40  1  0
 20 41  1  0
 20 42  1  0
 20 43  1  0
 22 44  1  0
 22 45  1  0
 23 46  1  0
 23 47  1  0
M  END
$$$$
