
     RDKit          3D

 54 56  0  0  0  0  0  0  0  0999 V2000
    8.0983    1.6770   -3.0963 C   0  0  0  0  0  0  0  0  0  0  0  0
    7.1432    2.4614   -2.3924 O   0  0  0  0  0  0  0  0  0  0  0  0
    6.6256    1.9217   -1.2462 C   0  0  0  0  0  0  0  0  0  0  0  0
    6.9247    0.6648   -0.7199 C   0  0  0  0  0  0  0  0  0  0  0  0
    6.3149    0.2331    0.4658 C   0  0  0  0  0  0  0  0  0  0  0  0
    5.3957    1.0497    1.1386 C   0  0  0  0  0  0  0  0  0  0  0  0
    4.7353    0.5761    2.4100 C   0  0  0  0  0  0  0  0  0  0  0  0
    3.2144    0.4144    2.3049 C   0  0  0  0  0  0  0  0  0  0  0  0
    2.7942   -0.6361    1.2720 C   0  0  0  0  0  0  0  0  0  0  0  0
    1.3271   -0.8451    1.2939 C   0  0  0  0  0  0  0  0  0  0  0  0
    0.3535    0.0062    1.0452 N   0  0  0  0  0  0  0  0  0  0  0  0
   -0.8243   -0.6896    1.2316 N   0  0  0  0  0  0  0  0  0  0  0  0
   -0.4865   -1.9164    1.5777 C   0  0  0  0  0  0  0  0  0  0  0  0
   -1.6120   -3.1932    1.9160 S   0  0  0  0  0  0  0  0  0  0  0  0
   -2.8797   -2.2677    2.8281 C   0  0  0  0  0  0  0  0  0  0  0  0
   -3.7938   -1.4060    1.9640 C   0  0  0  0  0  0  0  0  0  0  0  0
   -4.3405   -0.4228    2.4684 O   0  0  0  0  0  0  0  0  0  0  0  0
   -4.0124   -1.8863    0.6862 N   0  0  0  0  0  0  0  0  0  0  0  0
   -4.8388   -1.3511   -0.3304 C   0  0  0  0  0  0  0  0  0  0  0  0
   -5.6107   -0.1973   -0.1609 C   0  0  0  0  0  0  0  0  0  0  0  0
   -6.4230    0.3038   -1.1979 C   0  0  0  0  0  0  0  0  0  0  0  0
   -7.2219    1.5578   -0.9582 C   0  0  0  0  0  0  0  0  0  0  0  0
   -6.4616   -0.3638   -2.4372 C   0  0  0  0  0  0  0  0  0  0  0  0
   -7.3142    0.1356   -3.5710 C   0  0  0  0  0  0  0  0  0  0  0  0
   -5.6941   -1.5249   -2.6095 C   0  0  0  0  0  0  0  0  0  0  0  0
   -4.8923   -2.0093   -1.5706 C   0  0  0  0  0  0  0  0  0  0  0  0
   -3.8827   -3.5901   -1.8993 Br  0  0  0  0  0  0  0  0  0  0  0  0
    0.8712   -2.0899    1.6332 O   0  0  0  0  0  0  0  0  0  0  0  0
    5.1068    2.3126    0.6094 C   0  0  0  0  0  0  0  0  0  0  0  0
    5.7157    2.7408   -0.5737 C   0  0  0  0  0  0  0  0  0  0  0  0
    8.9904    1.4965   -2.4842 H   0  0  0  0  0  0  0  0  0  0  0  0
    7.6573    0.7357   -3.4401 H   0  0  0  0  0  0  0  0  0  0  0  0
    8.4113    2.2400   -3.9808 H   0  0  0  0  0  0  0  0  0  0  0  0
    7.6266   -0.0063   -1.2070 H   0  0  0  0  0  0  0  0  0  0  0  0
    6.5669   -0.7501    0.8580 H   0  0  0  0  0  0  0  0  0  0  0  0
    4.9647    1.2984    3.2016 H   0  0  0  0  0  0  0  0  0  0  0  0
    5.1763   -0.3736    2.7334 H   0  0  0  0  0  0  0  0  0  0  0  0
    2.7427    1.3790    2.0665 H   0  0  0  0  0  0  0  0  0  0  0  0
    2.8337    0.1262    3.2959 H   0  0  0  0  0  0  0  0  0  0  0  0
    3.0843   -0.3227    0.2613 H   0  0  0  0  0  0  0  0  0  0  0  0
    3.3088   -1.5846    1.4770 H   0  0  0  0  0  0  0  0  0  0  0  0
   -3.5140   -2.9886    3.3560 H   0  0  0  0  0  0  0  0  0  0  0  0
   -2.3971   -1.6315    3.5794 H   0  0  0  0  0  0  0  0  0  0  0  0
   -3.4768   -2.7073    0.4122 H   0  0  0  0  0  0  0  0  0  0  0  0
   -5.5956    0.3450    0.7808 H   0  0  0  0  0  0  0  0  0  0  0  0
   -6.8845    2.3542   -1.6281 H   0  0  0  0  0  0  0  0  0  0  0  0
   -7.1048    1.9215    0.0694 H   0  0  0  0  0  0  0  0  0  0  0  0
   -8.2889    1.3669   -1.1206 H   0  0  0  0  0  0  0  0  0  0  0  0
   -7.1671   -0.4600   -4.4789 H   0  0  0  0  0  0  0  0  0  0  0  0
   -7.0553    1.1714   -3.8131 H   0  0  0  0  0  0  0  0  0  0  0  0
   -8.3752    0.0767   -3.3034 H   0  0  0  0  0  0  0  0  0  0  0  0
   -5.7198   -2.0519   -3.5627 H   0  0  0  0  0  0  0  0  0  0  0  0
    4.4055    2.9759    1.1115 H   0  0  0  0  0  0  0  0  0  0  0  0
    5.4784    3.7236   -0.9759 H   0  0  0  0  0  0  0  0  0  0  0  0
  1  2  1  0
  2  3  1  0
  3  4  2  0
  4  5  1  0
  5  6  2  0
  6  7  1  0
  7  8  1  0
  8  9  1  0
  9 10  1  0
 10 11  2  0
 11 12  1  0
 12 13  2  0
 13 14  1  0
 14 15  1  0
 15 16  1  0
 16 17  2  0
 16 18  1  0
 18 19  1  0
 19 20  2  0
 20 21  1  0
 21 22  1  0
 21 23  2  0
 23 24  1  0
 23 25  1  0
 25 26  2  0
 26 27  1  0
 13 28  1  0
  6 29  1  0
 29 30  2  0
 30  3  1  0
 28 10  1  0
 26 19  1  0
  1 31  1  0
  1 32  1  0
  1 33  1  0
  4 34  1  0
  5 35  1  0
  7 36  1  0
  7 37  1  0
  8 38  1  0
  8 39  1  0
  9 40  1  0
  9 41  1  0
 15 42  1  0
 15 43  1  0
 18 44  1  0
 20 45  1  0
 22 46  1  0
 22 47  1  0
 22 48  1  0
 24 49  1  0
 24 50  1  0
 24 51  1  0
 25 52  1  0
 29 53  1  0
 30 54  1  0
M  END
$$$$
