
     RDKit          3D

 68 70  0  0  0  0  0  0  0  0999 V2000
   -3.3988    3.6262    5.5050 C   0  0  0  0  0  0  0  0  0  0  0  0
   -2.9948    2.2869    5.2453 O   0  0  0  0  0  0  0  0  0  0  0  0
   -2.7684    1.9518    3.9394 C   0  0  0  0  0  0  0  0  0  0  0  0
   -2.9609    2.7775    2.8347 C   0  0  0  0  0  0  0  0  0  0  0  0
   -2.6934    2.3004    1.5461 C   0  0  0  0  0  0  0  0  0  0  0  0
   -2.2319    0.9886    1.3346 C   0  0  0  0  0  0  0  0  0  0  0  0
   -1.9324    0.5289   -0.0953 C   0  0  0  0  0  0  0  0  0  0  0  0
   -2.3079   -0.9312   -0.4833 C   0  0  0  0  0  0  0  0  0  0  0  0
   -1.7034   -1.5434   -1.3652 O   0  0  0  0  0  0  0  0  0  0  0  0
   -3.4445   -1.4413    0.1241 N   0  0  0  0  0  0  0  0  0  0  0  0
   -3.9478   -2.8121   -0.0542 C   0  0  0  0  0  0  0  0  0  0  0  0
   -4.3746   -3.0594   -1.5101 C   0  0  0  0  0  0  0  0  0  0  0  0
   -5.1841   -2.9884    0.8459 C   0  0  0  0  0  0  0  0  0  0  0  0
   -2.8903   -3.8429    0.3717 C   0  0  0  0  0  0  0  0  0  0  0  0
   -0.5522    0.8716   -0.5198 N   0  0  0  0  0  0  0  0  0  0  0  0
    0.5027    0.1171   -0.0013 C   0  0  0  0  0  0  0  0  0  0  0  0
    0.3387   -0.7439    0.8673 O   0  0  0  0  0  0  0  0  0  0  0  0
    1.8892    0.3314   -0.5927 C   0  0  0  0  0  0  0  0  0  0  0  0
    2.7075   -0.9552   -0.5175 C   0  0  0  0  0  0  0  0  0  0  0  0
    4.1276   -0.7554   -1.0078 C   0  0  0  0  0  0  0  0  0  0  0  0
    4.6067    0.3569   -1.2047 O   0  0  0  0  0  0  0  0  0  0  0  0
    4.7849   -1.9541   -1.1608 N   0  0  0  0  0  0  0  0  0  0  0  0
    6.1111   -2.0998   -1.4999 C   0  0  0  0  0  0  0  0  0  0  0  0
    7.0941   -1.1143   -1.7364 C   0  0  0  0  0  0  0  0  0  0  0  0
    8.2389   -1.8252   -1.9954 C   0  0  0  0  0  0  0  0  0  0  0  0
    9.6314   -1.4585   -2.3038 C   0  0  0  0  0  0  0  0  0  0  0  0
    7.9606   -3.1532   -1.9295 O   0  0  0  0  0  0  0  0  0  0  0  0
    6.6245   -3.3287   -1.6244 N   0  0  0  0  0  0  0  0  0  0  0  0
   -0.3860    2.0652   -1.2783 C   0  0  0  0  0  0  0  0  0  0  0  0
    0.4887    3.0736   -0.8497 C   0  0  0  0  0  0  0  0  0  0  0  0
    0.6246    4.2579   -1.5803 C   0  0  0  0  0  0  0  0  0  0  0  0
   -0.1145    4.4434   -2.7451 C   0  0  0  0  0  0  0  0  0  0  0  0
   -0.9844    3.4455   -3.1663 C   0  0  0  0  0  0  0  0  0  0  0  0
   -1.6933    3.6214   -4.2893 F   0  0  0  0  0  0  0  0  0  0  0  0
   -1.1325    2.2665   -2.4438 C   0  0  0  0  0  0  0  0  0  0  0  0
   -2.0254    0.1755    2.4568 C   0  0  0  0  0  0  0  0  0  0  0  0
   -2.2998    0.6522    3.7416 C   0  0  0  0  0  0  0  0  0  0  0  0
   -4.3610    3.8493    5.0316 H   0  0  0  0  0  0  0  0  0  0  0  0
   -2.6271    4.3358    5.1913 H   0  0  0  0  0  0  0  0  0  0  0  0
   -3.5284    3.7321    6.5858 H   0  0  0  0  0  0  0  0  0  0  0  0
   -3.3066    3.7994    2.9372 H   0  0  0  0  0  0  0  0  0  0  0  0
   -2.8418    2.9728    0.7022 H   0  0  0  0  0  0  0  0  0  0  0  0
   -2.6343    1.0973   -0.7225 H   0  0  0  0  0  0  0  0  0  0  0  0
   -3.8487   -0.9046    0.8810 H   0  0  0  0  0  0  0  0  0  0  0  0
   -3.5265   -3.0159   -2.2013 H   0  0  0  0  0  0  0  0  0  0  0  0
   -4.8336   -4.0473   -1.6254 H   0  0  0  0  0  0  0  0  0  0  0  0
   -5.1031   -2.3092   -1.8398 H   0  0  0  0  0  0  0  0  0  0  0  0
   -4.9310   -2.8280    1.9009 H   0  0  0  0  0  0  0  0  0  0  0  0
   -5.6037   -3.9954    0.7545 H   0  0  0  0  0  0  0  0  0  0  0  0
   -5.9692   -2.2712    0.5848 H   0  0  0  0  0  0  0  0  0  0  0  0
   -3.2948   -4.8605    0.3418 H   0  0  0  0  0  0  0  0  0  0  0  0
   -2.0125   -3.8237   -0.2828 H   0  0  0  0  0  0  0  0  0  0  0  0
   -2.5396   -3.6496    1.3925 H   0  0  0  0  0  0  0  0  0  0  0  0
    1.8198    0.6416   -1.6400 H   0  0  0  0  0  0  0  0  0  0  0  0
    2.3890    1.1200   -0.0204 H   0  0  0  0  0  0  0  0  0  0  0  0
    2.2227   -1.7338   -1.1187 H   0  0  0  0  0  0  0  0  0  0  0  0
    2.7659   -1.3167    0.5161 H   0  0  0  0  0  0  0  0  0  0  0  0
    4.3004   -2.8297   -1.0132 H   0  0  0  0  0  0  0  0  0  0  0  0
    6.9927   -0.0391   -1.7048 H   0  0  0  0  0  0  0  0  0  0  0  0
    9.9025   -1.7869   -3.3116 H   0  0  0  0  0  0  0  0  0  0  0  0
   10.3183   -1.9265   -1.5925 H   0  0  0  0  0  0  0  0  0  0  0  0
    9.7733   -0.3766   -2.2459 H   0  0  0  0  0  0  0  0  0  0  0  0
    1.0445    2.9714    0.0794 H   0  0  0  0  0  0  0  0  0  0  0  0
    1.3006    5.0357   -1.2319 H   0  0  0  0  0  0  0  0  0  0  0  0
   -0.0205    5.3543   -3.3265 H   0  0  0  0  0  0  0  0  0  0  0  0
   -1.8016    1.5023   -2.8294 H   0  0  0  0  0  0  0  0  0  0  0  0
   -1.6288   -0.8350    2.3505 H   0  0  0  0  0  0  0  0  0  0  0  0
   -2.1265    0.0063    4.5996 H   0  0  0  0  0  0  0  0  0  0  0  0
  1  2  1  0
  2  3  1  0
  3  4  2  0
  4  5  1  0
  5  6  2  0
  6  7  1  0
  7  8  1  0
  8  9  2  0
  8 10  1  0
 10 11  1  0
 11 12  1  0
 11 13  1  0
 11 14  1  0
  7 15  1  0
 15 16  1  0
 16 17  2  0
 16 18  1  0
 18 19  1  0
 19 20  1  0
 20 21  2  0
 20 22  1  0
 22 23  1  0
 23 24  1  0
 24 25  2  0
 25 26  1  0
 25 27  1  0
 27 28  1  0
 15 29  1  0
 29 30  2  0
 30 31  1  0
 31 32  2  0
 32 33  1  0
 33 34  1  0
 33 35  2  0
  6 36  1  0
 36 37  2  0
 37  3  1  0
 28 23  2  0
 35 29  1  0
  1 38  1  0
  1 39  1  0
  1 40  1  0
  4 41  1  0
  5 42  1  0
  7 43  1  0
 10 44  1  0
 12 45  1  0
 12 46  1  0
 12 47  1  0
 13 48  1  0
 13 49  1  0
 13 50  1  0
 14 51  1  0
 14 52  1  0
 14 53  1  0
 18 54  1  0
 18 55  1  0
 19 56  1  0
 19 57  1  0
 22 58  1  0
 24 59  1  0
 26 60  1  0
 26 61  1  0
 26 62  1  0
 30 63  1  0
 31 64  1  0
 32 65  1  0
 35 66  1  0
 36 67  1  0
 37 68  1  0
M  END
$$$$
