
     RDKit          3D

 54 57  0  0  0  0  0  0  0  0999 V2000
    0.9250    1.4169   -2.4574 O   0  0  0  0  0  0  0  0  0  0  0  0
   -0.1009    0.8629   -2.0729 C   0  0  0  0  0  0  0  0  0  0  0  0
   -1.4181    1.0278   -2.8406 C   0  0  0  0  0  0  0  0  0  0  0  0
   -2.5765    0.5714   -2.1339 O   0  0  0  0  0  0  0  0  0  0  0  0
   -3.1060    1.4787   -1.2735 C   0  0  0  0  0  0  0  0  0  0  0  0
   -2.6534    2.5861   -1.0423 O   0  0  0  0  0  0  0  0  0  0  0  0
   -4.3075    0.9186   -0.6001 C   0  0  0  0  0  0  0  0  0  0  0  0
   -4.9067   -0.2823   -1.0104 C   0  0  0  0  0  0  0  0  0  0  0  0
   -6.0290   -0.7724   -0.3368 C   0  0  0  0  0  0  0  0  0  0  0  0
   -6.5534   -0.0680    0.7448 C   0  0  0  0  0  0  0  0  0  0  0  0
   -5.9782    1.1447    1.1365 C   0  0  0  0  0  0  0  0  0  0  0  0
   -4.8510    1.6316    0.4767 C   0  0  0  0  0  0  0  0  0  0  0  0
   -6.4637    1.9057    2.1686 O   0  0  0  0  0  0  0  0  0  0  0  0
   -7.7900    1.5067    2.5341 C   0  0  0  0  0  0  0  0  0  0  0  0
   -7.8829   -0.0064    2.6417 C   0  0  0  0  0  0  0  0  0  0  0  0
   -7.6405   -0.6213    1.3703 O   0  0  0  0  0  0  0  0  0  0  0  0
   -0.2037   -0.0171   -1.0082 N   0  0  0  0  0  0  0  0  0  0  0  0
    0.7975   -0.3721   -0.0849 C   0  0  0  0  0  0  0  0  0  0  0  0
    0.4963   -1.4026    0.8176 C   0  0  0  0  0  0  0  0  0  0  0  0
    1.4356   -1.8286    1.7607 C   0  0  0  0  0  0  0  0  0  0  0  0
    2.6880   -1.2248    1.8134 C   0  0  0  0  0  0  0  0  0  0  0  0
    2.9888   -0.1937    0.9198 C   0  0  0  0  0  0  0  0  0  0  0  0
    4.5721    0.6041    1.0290 S   0  0  0  0  0  6  0  0  0  0  0  0
    4.9945    0.5338    2.4129 O   0  0  0  0  0  0  0  0  0  0  0  0
    4.5100    1.8720    0.3355 O   0  0  0  0  0  0  0  0  0  0  0  0
    5.5824   -0.4387    0.1254 N   0  0  0  0  0  0  0  0  0  0  0  0
    5.2825   -0.4909   -1.3445 C   0  0  0  0  0  0  0  0  0  0  0  0
    6.1972   -1.5214   -2.0180 C   0  0  0  0  0  0  0  0  0  0  0  0
    7.5819   -1.2052   -1.8147 O   0  0  0  0  0  0  0  0  0  0  0  0
    7.8870   -1.1770   -0.4126 C   0  0  0  0  0  0  0  0  0  0  0  0
    7.0391   -0.1329    0.3213 C   0  0  0  0  0  0  0  0  0  0  0  0
    2.0460    0.2470   -0.0171 C   0  0  0  0  0  0  0  0  0  0  0  0
   -1.3404    0.4223   -3.7500 H   0  0  0  0  0  0  0  0  0  0  0  0
   -1.5307    2.0738   -3.1490 H   0  0  0  0  0  0  0  0  0  0  0  0
   -4.5169   -0.8464   -1.8541 H   0  0  0  0  0  0  0  0  0  0  0  0
   -6.4905   -1.7055   -0.6500 H   0  0  0  0  0  0  0  0  0  0  0  0
   -4.4060    2.5709    0.7993 H   0  0  0  0  0  0  0  0  0  0  0  0
   -8.4909    1.9003    1.7874 H   0  0  0  0  0  0  0  0  0  0  0  0
   -8.0221    1.9701    3.4981 H   0  0  0  0  0  0  0  0  0  0  0  0
   -7.1579   -0.4028    3.3634 H   0  0  0  0  0  0  0  0  0  0  0  0
   -8.8852   -0.3022    2.9671 H   0  0  0  0  0  0  0  0  0  0  0  0
   -1.1004   -0.4791   -0.9095 H   0  0  0  0  0  0  0  0  0  0  0  0
   -0.4738   -1.8935    0.7968 H   0  0  0  0  0  0  0  0  0  0  0  0
    1.1876   -2.6279    2.4550 H   0  0  0  0  0  0  0  0  0  0  0  0
    3.4186   -1.5500    2.5512 H   0  0  0  0  0  0  0  0  0  0  0  0
    5.4553    0.4969   -1.7868 H   0  0  0  0  0  0  0  0  0  0  0  0
    4.2447   -0.7874   -1.5137 H   0  0  0  0  0  0  0  0  0  0  0  0
    6.0151   -1.5303   -3.0972 H   0  0  0  0  0  0  0  0  0  0  0  0
    6.0025   -2.5311   -1.6371 H   0  0  0  0  0  0  0  0  0  0  0  0
    7.7316   -2.1785    0.0062 H   0  0  0  0  0  0  0  0  0  0  0  0
    8.9489   -0.9325   -0.3101 H   0  0  0  0  0  0  0  0  0  0  0  0
    7.2906   -0.1606    1.3860 H   0  0  0  0  0  0  0  0  0  0  0  0
    7.2541    0.8663   -0.0757 H   0  0  0  0  0  0  0  0  0  0  0  0
    2.3036    1.0746   -0.6717 H   0  0  0  0  0  0  0  0  0  0  0  0
  1  2  2  0
  2  3  1  0
  3  4  1  0
  4  5  1  0
  5  6  2  0
  5  7  1  0
  7  8  2  0
  8  9  1  0
  9 10  2  0
 10 11  1  0
 11 12  2  0
 11 13  1  0
 13 14  1  0
 14 15  1  0
 15 16  1  0
  2 17  1  0
 17 18  1  0
 18 19  2  0
 19 20  1  0
 20 21  2  0
 21 22  1  0
 22 23  1  0
 23 24  2  0
 23 25  2  0
 23 26  1  0
 26 27  1  0
 27 28  1  0
 28 29  1  0
 29 30  1  0
 30 31  1  0
 22 32  2  0
 12  7  1  0
 32 18  1  0
 16 10  1  0
 31 26  1  0
  3 33  1  0
  3 34  1  0
  8 35  1  0
  9 36  1  0
 12 37  1  0
 14 38  1  0
 14 39  1  0
 15 40  1  0
 15 41  1  0
 17 42  1  0
 19 43  1  0
 20 44  1  0
 21 45  1  0
 27 46  1  0
 27 47  1  0
 28 48  1  0
 28 49  1  0
 30 50  1  0
 30 51  1  0
 31 52  1  0
 31 53  1  0
 32 54  1  0
M  END
$$$$
