
     RDKit          3D

 42 46  0  0  0  0  0  0  0  0999 V2000
    5.4184    1.8601    0.1683 C   0  0  0  0  0  0  0  0  0  0  0  0
    5.1988    1.4319   -1.1390 C   0  0  0  0  0  0  0  0  0  0  0  0
    3.9974    0.7994   -1.4916 C   0  0  0  0  0  0  0  0  0  0  0  0
    3.7724    0.3631   -2.8008 C   0  0  0  0  0  0  0  0  0  0  0  0
    2.5774   -0.2695   -3.1413 C   0  0  0  0  0  0  0  0  0  0  0  0
    1.5768   -0.4771   -2.1832 C   0  0  0  0  0  0  0  0  0  0  0  0
    0.3892   -1.1198   -2.5337 C   0  0  0  0  0  0  0  0  0  0  0  0
   -0.6088   -1.3213   -1.5856 C   0  0  0  0  0  0  0  0  0  0  0  0
   -0.4623   -0.8704   -0.2603 C   0  0  0  0  0  0  0  0  0  0  0  0
   -1.5979   -1.1411    0.7210 C   0  0  0  0  0  0  0  0  0  0  0  0
   -2.9470   -1.0140    0.1354 N   0  0  0  0  0  0  0  0  0  0  0  0
   -3.3062    0.3903   -0.1685 C   0  0  0  0  0  0  0  0  0  0  0  0
   -4.2174    1.0341    0.8886 C   0  0  0  0  0  0  0  0  0  0  0  0
   -5.4535    0.3315    1.0772 O   0  0  0  0  0  0  0  0  0  0  0  0
   -5.3593   -1.0665    0.7706 C   0  0  0  0  0  0  0  0  0  0  0  0
   -3.9545   -1.6298    1.0258 C   0  0  0  0  0  0  0  0  0  0  0  0
    0.7581   -0.2429    0.1291 C   0  0  0  0  0  0  0  0  0  0  0  0
    1.0373    0.1959    1.4427 C   0  0  0  0  0  0  0  0  0  0  0  0
    2.2426    0.8208    1.7775 C   0  0  0  0  0  0  0  0  0  0  0  0
    3.2282    1.0309    0.8128 C   0  0  0  0  0  0  0  0  0  0  0  0
    4.4393    1.6599    1.1388 C   0  0  0  0  0  0  0  0  0  0  0  0
    2.9965    0.5962   -0.5101 C   0  0  0  0  0  0  0  0  0  0  0  0
    1.7707   -0.0411   -0.8500 C   0  0  0  0  0  0  0  0  0  0  0  0
    6.3530    2.3485    0.4308 H   0  0  0  0  0  0  0  0  0  0  0  0
    5.9753    1.5948   -1.8832 H   0  0  0  0  0  0  0  0  0  0  0  0
    4.5276    0.5084   -3.5698 H   0  0  0  0  0  0  0  0  0  0  0  0
    2.4354   -0.6010   -4.1678 H   0  0  0  0  0  0  0  0  0  0  0  0
    0.2258   -1.4727   -3.5493 H   0  0  0  0  0  0  0  0  0  0  0  0
   -1.5220   -1.8312   -1.8893 H   0  0  0  0  0  0  0  0  0  0  0  0
   -1.4474   -2.1683    1.0794 H   0  0  0  0  0  0  0  0  0  0  0  0
   -1.5437   -0.4822    1.5923 H   0  0  0  0  0  0  0  0  0  0  0  0
   -2.4233    1.0197   -0.3274 H   0  0  0  0  0  0  0  0  0  0  0  0
   -3.8472    0.3766   -1.1232 H   0  0  0  0  0  0  0  0  0  0  0  0
   -4.4668    2.0589    0.5949 H   0  0  0  0  0  0  0  0  0  0  0  0
   -3.7067    1.0896    1.8570 H   0  0  0  0  0  0  0  0  0  0  0  0
   -5.6584   -1.2122   -0.2741 H   0  0  0  0  0  0  0  0  0  0  0  0
   -6.0930   -1.5876    1.3941 H   0  0  0  0  0  0  0  0  0  0  0  0
   -3.7003   -1.4447    2.0780 H   0  0  0  0  0  0  0  0  0  0  0  0
   -3.9564   -2.7134    0.8653 H   0  0  0  0  0  0  0  0  0  0  0  0
    0.3228    0.0576    2.2485 H   0  0  0  0  0  0  0  0  0  0  0  0
    2.4000    1.1397    2.8056 H   0  0  0  0  0  0  0  0  0  0  0  0
    4.6290    1.9990    2.1547 H   0  0  0  0  0  0  0  0  0  0  0  0
  1  2  2  0
  2  3  1  0
  3  4  2  0
  4  5  1  0
  5  6  2  0
  6  7  1  0
  7  8  2  0
  8  9  1  0
  9 10  1  0
 10 11  1  0
 11 12  1  0
 12 13  1  0
 13 14  1  0
 14 15  1  0
 15 16  1  0
  9 17  2  0
 17 18  1  0
 18 19  2  0
 19 20  1  0
 20 21  2  0
 20 22  1  0
 22 23  2  0
 21  1  1  0
 22  3  1  0
 23  6  1  0
 16 11  1  0
 23 17  1  0
  1 24  1  0
  2 25  1  0
  4 26  1  0
  5 27  1  0
  7 28  1  0
  8 29  1  0
 10 30  1  0
 10 31  1  0
 12 32  1  0
 12 33  1  0
 13 34  1  0
 13 35  1  0
 15 36  1  0
 15 37  1  0
 16 38  1  0
 16 39  1  0
 18 40  1  0
 19 41  1  0
 21 42  1  0
M  END
$$$$
