
     RDKit          3D

 43 45  0  0  0  0  0  0  0  0999 V2000
    5.8208    0.5318    3.2226 C   0  0  0  0  0  0  0  0  0  0  0  0
    5.2917    0.3751    1.8277 C   0  0  0  0  0  0  0  0  0  0  0  0
    6.1715    0.2822    0.7445 C   0  0  0  0  0  0  0  0  0  0  0  0
    5.6850    0.0979   -0.5547 C   0  0  0  0  0  0  0  0  0  0  0  0
    6.6296    0.0426   -1.7196 C   0  0  0  0  0  0  0  0  0  0  0  0
    4.2998    0.0204   -0.7676 C   0  0  0  0  0  0  0  0  0  0  0  0
    3.4065    0.0915    0.3024 C   0  0  0  0  0  0  0  0  0  0  0  0
    2.0038    0.0124    0.1661 N   0  0  0  0  0  0  0  0  0  0  0  0
    1.2834   -0.2317   -0.9889 C   0  0  0  0  0  0  0  0  0  0  0  0
    1.7323   -0.4952   -2.0979 O   0  0  0  0  0  0  0  0  0  0  0  0
   -0.1980   -0.2072   -0.8199 C   0  0  0  0  0  0  0  0  0  0  0  0
   -0.9735   -1.0797   -1.5890 C   0  0  0  0  0  0  0  0  0  0  0  0
   -2.3655   -1.0861   -1.4559 C   0  0  0  0  0  0  0  0  0  0  0  0
   -3.0022   -0.2166   -0.5612 C   0  0  0  0  0  0  0  0  0  0  0  0
   -4.4044   -0.2904   -0.4865 N   0  0  0  0  0  0  0  0  0  0  0  0
   -5.2642    0.4359    0.3190 C   0  0  0  0  0  0  0  0  0  0  0  0
   -4.9268    1.2893    1.1329 O   0  0  0  0  0  0  0  0  0  0  0  0
   -6.6568    0.0791    0.1091 C   0  0  0  0  0  0  0  0  0  0  0  0
   -7.8163    0.5512    0.6948 C   0  0  0  0  0  0  0  0  0  0  0  0
   -8.8900   -0.1574    0.1052 C   0  0  0  0  0  0  0  0  0  0  0  0
   -8.3260   -1.0191   -0.8052 C   0  0  0  0  0  0  0  0  0  0  0  0
   -6.9742   -0.8878   -0.8130 O   0  0  0  0  0  0  0  0  0  0  0  0
   -2.2246    0.6677    0.1898 C   0  0  0  0  0  0  0  0  0  0  0  0
   -0.8295    0.6786    0.0596 C   0  0  0  0  0  0  0  0  0  0  0  0
    3.9131    0.2646    1.5979 C   0  0  0  0  0  0  0  0  0  0  0  0
    6.0113   -0.4517    3.6631 H   0  0  0  0  0  0  0  0  0  0  0  0
    5.1061    1.0701    3.8541 H   0  0  0  0  0  0  0  0  0  0  0  0
    6.7523    1.1077    3.2244 H   0  0  0  0  0  0  0  0  0  0  0  0
    7.2445    0.3545    0.9122 H   0  0  0  0  0  0  0  0  0  0  0  0
    7.6003   -0.3644   -1.4176 H   0  0  0  0  0  0  0  0  0  0  0  0
    6.7791    1.0468   -2.1277 H   0  0  0  0  0  0  0  0  0  0  0  0
    6.2379   -0.6070   -2.5094 H   0  0  0  0  0  0  0  0  0  0  0  0
    3.9427   -0.0965   -1.7865 H   0  0  0  0  0  0  0  0  0  0  0  0
    1.4804    0.0777    1.0287 H   0  0  0  0  0  0  0  0  0  0  0  0
   -0.4952   -1.7585   -2.2929 H   0  0  0  0  0  0  0  0  0  0  0  0
   -2.9406   -1.7799   -2.0646 H   0  0  0  0  0  0  0  0  0  0  0  0
   -4.8657   -0.9611   -1.0927 H   0  0  0  0  0  0  0  0  0  0  0  0
   -7.8655    1.3175    1.4572 H   0  0  0  0  0  0  0  0  0  0  0  0
   -9.9452   -0.0527    0.3170 H   0  0  0  0  0  0  0  0  0  0  0  0
   -8.7298   -1.7527   -1.4897 H   0  0  0  0  0  0  0  0  0  0  0  0
   -2.6728    1.3757    0.8805 H   0  0  0  0  0  0  0  0  0  0  0  0
   -0.2606    1.4076    0.6306 H   0  0  0  0  0  0  0  0  0  0  0  0
    3.2351    0.3179    2.4461 H   0  0  0  0  0  0  0  0  0  0  0  0
  1  2  1  0
  2  3  2  0
  3  4  1  0
  4  5  1  0
  4  6  2  0
  6  7  1  0
  7  8  1  0
  8  9  1  0
  9 10  2  0
  9 11  1  0
 11 12  2  0
 12 13  1  0
 13 14  2  0
 14 15  1  0
 15 16  1  0
 16 17  2  0
 16 18  1  0
 18 19  2  0
 19 20  1  0
 20 21  2  0
 21 22  1  0
 14 23  1  0
 23 24  2  0
  7 25  2  0
 25  2  1  0
 24 11  1  0
 22 18  1  0
  1 26  1  0
  1 27  1  0
  1 28  1  0
  3 29  1  0
  5 30  1  0
  5 31  1  0
  5 32  1  0
  6 33  1  0
  8 34  1  0
 12 35  1  0
 13 36  1  0
 15 37  1  0
 19 38  1  0
 20 39  1  0
 21 40  1  0
 23 41  1  0
 24 42  1  0
 25 43  1  0
M  END
$$$$
