
     RDKit          3D

 57 60  0  0  0  0  0  0  0  0999 V2000
   -7.7815    3.5592    1.3629 C   0  0  0  0  0  0  0  0  0  0  0  0
   -7.4076    2.3155    2.1543 C   0  0  0  0  0  0  0  0  0  0  0  0
   -6.2703    1.5627    1.5144 C   0  0  0  0  0  0  0  0  0  0  0  0
   -6.5214    0.5261    0.6119 C   0  0  0  0  0  0  0  0  0  0  0  0
   -5.4620   -0.1621    0.0102 C   0  0  0  0  0  0  0  0  0  0  0  0
   -4.1197    0.1582    0.2858 C   0  0  0  0  0  0  0  0  0  0  0  0
   -3.0181   -0.5921   -0.3572 C   0  0  0  0  0  0  0  0  0  0  0  0
   -1.7696   -0.7489    0.2183 C   0  0  0  0  0  0  0  0  0  0  0  0
   -0.7971   -1.4669   -0.4799 C   0  0  0  0  0  0  0  0  0  0  0  0
    0.5389   -1.5412    0.1548 C   0  0  0  0  0  0  0  0  0  0  0  0
    0.6156   -2.0040    1.2846 O   0  0  0  0  0  0  0  0  0  0  0  0
    1.5545   -1.0014   -0.6109 N   0  0  0  0  0  0  0  0  0  0  0  0
    2.9247   -0.9340   -0.2886 C   0  0  0  0  0  0  0  0  0  0  0  0
    3.4784   -1.4757    0.8747 C   0  0  0  0  0  0  0  0  0  0  0  0
    4.8511   -1.3709    1.1249 C   0  0  0  0  0  0  0  0  0  0  0  0
    5.6733   -0.7114    0.2095 C   0  0  0  0  0  0  0  0  0  0  0  0
    7.4174   -0.6041    0.5128 S   0  0  0  0  0  6  0  0  0  0  0  0
    8.1067   -0.3718   -0.7361 O   0  0  0  0  0  0  0  0  0  0  0  0
    7.7802   -1.7204    1.3626 O   0  0  0  0  0  0  0  0  0  0  0  0
    7.5547    0.7400    1.4783 N   0  0  0  0  0  0  0  0  0  0  0  0
    7.2646    2.0505    1.0861 C   0  0  0  0  0  0  0  0  0  0  0  0
    7.5505    3.0802    2.1420 C   0  0  0  0  0  0  0  0  0  0  0  0
    6.7983    2.3421   -0.0047 O   0  0  0  0  0  0  0  0  0  0  0  0
    5.1385   -0.1844   -0.9661 C   0  0  0  0  0  0  0  0  0  0  0  0
    3.7663   -0.2924   -1.2082 C   0  0  0  0  0  0  0  0  0  0  0  0
   -1.0818   -2.0726   -1.7218 C   0  0  0  0  0  0  0  0  0  0  0  0
   -0.1823   -2.8821   -2.4642 C   0  0  0  0  0  0  0  0  0  0  0  0
   -0.5533   -3.4300   -3.6903 C   0  0  0  0  0  0  0  0  0  0  0  0
   -1.8249   -3.1875   -4.1879 C   0  0  0  0  0  0  0  0  0  0  0  0
   -2.7193   -2.4087   -3.4500 C   0  0  0  0  0  0  0  0  0  0  0  0
   -2.3760   -1.8541   -2.2242 C   0  0  0  0  0  0  0  0  0  0  0  0
   -3.3019   -1.1331   -1.5693 N   0  0  0  0  0  0  0  0  0  0  0  0
   -3.8872    1.2168    1.1828 C   0  0  0  0  0  0  0  0  0  0  0  0
   -4.9439    1.9085    1.7883 C   0  0  0  0  0  0  0  0  0  0  0  0
   -8.6159    4.0766    1.8462 H   0  0  0  0  0  0  0  0  0  0  0  0
   -6.9407    4.2582    1.3009 H   0  0  0  0  0  0  0  0  0  0  0  0
   -8.0832    3.3049    0.3408 H   0  0  0  0  0  0  0  0  0  0  0  0
   -8.2808    1.6587    2.2453 H   0  0  0  0  0  0  0  0  0  0  0  0
   -7.1319    2.5963    3.1782 H   0  0  0  0  0  0  0  0  0  0  0  0
   -7.5427    0.2432    0.3663 H   0  0  0  0  0  0  0  0  0  0  0  0
   -5.6937   -0.9675   -0.6862 H   0  0  0  0  0  0  0  0  0  0  0  0
   -1.5379   -0.3365    1.1950 H   0  0  0  0  0  0  0  0  0  0  0  0
    1.2860   -0.5814   -1.4938 H   0  0  0  0  0  0  0  0  0  0  0  0
    2.8681   -1.9967    1.6067 H   0  0  0  0  0  0  0  0  0  0  0  0
    5.2625   -1.8123    2.0300 H   0  0  0  0  0  0  0  0  0  0  0  0
    7.8954    0.5267    2.4100 H   0  0  0  0  0  0  0  0  0  0  0  0
    6.9050    2.9098    3.0078 H   0  0  0  0  0  0  0  0  0  0  0  0
    7.3591    4.0801    1.7437 H   0  0  0  0  0  0  0  0  0  0  0  0
    8.5989    3.0173    2.4461 H   0  0  0  0  0  0  0  0  0  0  0  0
    5.7772    0.3219   -1.6881 H   0  0  0  0  0  0  0  0  0  0  0  0
    3.3692    0.1358   -2.1255 H   0  0  0  0  0  0  0  0  0  0  0  0
    0.8111   -3.1114   -2.0821 H   0  0  0  0  0  0  0  0  0  0  0  0
    0.1449   -4.0503   -4.2475 H   0  0  0  0  0  0  0  0  0  0  0  0
   -2.1316   -3.6099   -5.1414 H   0  0  0  0  0  0  0  0  0  0  0  0
   -3.7198   -2.2345   -3.8410 H   0  0  0  0  0  0  0  0  0  0  0  0
   -2.8744    1.5369    1.4163 H   0  0  0  0  0  0  0  0  0  0  0  0
   -4.7204    2.7241    2.4733 H   0  0  0  0  0  0  0  0  0  0  0  0
  1  2  1  0
  2  3  1  0
  3  4  2  0
  4  5  1  0
  5  6  2  0
  6  7  1  0
  7  8  2  0
  8  9  1  0
  9 10  1  0
 10 11  2  0
 10 12  1  0
 12 13  1  0
 13 14  2  0
 14 15  1  0
 15 16  2  0
 16 17  1  0
 17 18  2  0
 17 19  2  0
 17 20  1  0
 20 21  1  0
 21 22  1  0
 21 23  2  0
 16 24  1  0
 24 25  2  0
  9 26  2  0
 26 27  1  0
 27 28  2  0
 28 29  1  0
 29 30  2  0
 30 31  1  0
 31 32  2  0
  6 33  1  0
 33 34  2  0
 34  3  1  0
 32  7  1  0
 25 13  1  0
 31 26  1  0
  1 35  1  0
  1 36  1  0
  1 37  1  0
  2 38  1  0
  2 39  1  0
  4 40  1  0
  5 41  1  0
  8 42  1  0
 12 43  1  0
 14 44  1  0
 15 45  1  0
 20 46  1  0
 22 47  1  0
 22 48  1  0
 22 49  1  0
 24 50  1  0
 25 51  1  0
 27 52  1  0
 28 53  1  0
 29 54  1  0
 30 55  1  0
 33 56  1  0
 34 57  1  0
M  END
$$$$
