
     RDKit          3D

 88 91  0  0  0  0  0  0  0  0999 V2000
   -7.4257   -3.3547    0.0963 C   0  0  0  0  0  0  0  0  0  0  0  0
   -6.1934   -3.6643    0.7384 O   0  0  0  0  0  0  0  0  0  0  0  0
   -5.0640   -3.0692    0.0679 C   0  0  2  0  0  0  0  0  0  0  0  0
   -3.8853   -4.0146    0.1924 C   0  0  0  0  0  0  0  0  0  0  0  0
   -4.1350   -5.4573   -0.1378 C   0  0  0  0  0  0  0  0  0  0  0  0
   -2.6578   -3.5788    0.5375 C   0  0  0  0  0  0  0  0  0  0  0  0
   -2.3181   -2.1215    0.8077 C   0  0  0  0  0  0  0  0  0  0  0  0
   -0.9470   -1.8028    0.2132 C   0  0  0  0  0  0  0  0  0  0  0  0
   -0.4864   -2.2568   -0.8272 O   0  0  0  0  0  0  0  0  0  0  0  0
   -0.2872   -0.9319    1.0356 O   0  0  0  0  0  0  0  0  0  0  0  0
    0.9647   -0.4078    0.5456 C   0  0  1  0  0  0  0  0  0  0  0  0
    1.1826    0.9411    1.2296 C   0  0  0  0  0  0  0  0  0  0  0  0
    2.5481    1.5002    0.8473 C   0  0  1  0  0  0  0  0  0  0  0  0
    2.8302    2.8433    1.5320 C   0  0  0  0  0  0  0  0  0  0  0  0
    2.0796    4.1144    1.1889 C   0  0  0  0  0  0  0  0  0  0  0  0
    1.2653    4.5243    0.1915 C   0  0  0  0  0  0  0  0  0  0  0  0
    0.8045    5.9644    0.1978 C   0  0  0  0  0  0  0  0  0  0  0  0
    0.8131    3.7322   -1.0255 C   0  0  0  0  0  0  0  0  0  0  0  0
   -0.7257    3.6138   -1.2209 C   0  0  1  0  0  0  0  0  0  0  0  0
   -1.2388    4.6549   -2.2261 C   0  0  0  0  0  0  0  0  0  0  0  0
   -1.0707    2.2335   -1.7494 C   0  0  0  0  0  0  0  0  0  0  0  0
   -1.8102    1.2609   -1.1881 C   0  0  0  0  0  0  0  0  0  0  0  0
   -2.4829    1.3178    0.0938 C   0  0  0  0  0  0  0  0  0  0  0  0
   -3.1236    0.3392    0.7840 C   0  0  0  0  0  0  0  0  0  0  0  0
   -3.5960    0.6253    2.2095 C   0  0  0  0  0  0  0  0  0  0  0  0
   -3.0784    1.8494    2.7250 O   0  0  0  0  0  0  0  0  0  0  0  0
   -3.4008   -1.1170    0.3016 C   0  0  1  0  0  0  0  0  0  0  0  0
   -3.4600   -1.1183   -1.1394 O   0  0  0  0  0  0  0  0  0  0  0  0
   -4.7951   -1.6858    0.7339 C   0  0  2  0  0  0  0  0  0  0  0  0
   -4.9133   -1.8344    2.1631 O   0  0  0  0  0  0  0  0  0  0  0  0
    3.5555    0.5623    1.2720 O   0  0  0  0  0  0  0  0  0  0  0  0
    3.4689   -0.6974    0.5867 C   0  0  2  0  0  0  0  0  0  0  0  0
    4.6238   -1.5805    1.1070 C   0  0  0  0  0  0  0  0  0  0  0  0
    5.1453   -2.5152    0.0209 C   0  0  0  0  0  0  0  0  0  0  0  0
    5.5999   -1.7240   -1.2224 C   0  0  2  0  0  0  0  0  0  0  0  0
    7.1211   -1.5601   -1.2497 C   0  0  0  0  0  0  0  0  0  0  0  0
    4.8960   -0.3558   -1.2963 C   0  0  1  0  0  0  0  0  0  0  0  0
    4.8278    0.1893   -2.7161 C   0  0  0  0  0  0  0  0  0  0  0  0
    3.5542   -0.5096   -0.8321 O   0  0  0  0  0  0  0  0  0  0  0  0
    2.1139   -1.3547    0.8901 C   0  0  0  0  0  0  0  0  0  0  0  0
   -8.2341   -3.8197    0.6660 H   0  0  0  0  0  0  0  0  0  0  0  0
   -7.5904   -2.2733    0.0743 H   0  0  0  0  0  0  0  0  0  0  0  0
   -7.4400   -3.7594   -0.9190 H   0  0  0  0  0  0  0  0  0  0  0  0
   -5.2756   -2.9447   -1.0031 H   0  0  0  0  0  0  0  0  0  0  0  0
   -4.9062   -5.8792    0.5134 H   0  0  0  0  0  0  0  0  0  0  0  0
   -3.2342   -6.0664   -0.0115 H   0  0  0  0  0  0  0  0  0  0  0  0
   -4.4615   -5.5563   -1.1774 H   0  0  0  0  0  0  0  0  0  0  0  0
   -1.8351   -4.2898    0.6162 H   0  0  0  0  0  0  0  0  0  0  0  0
   -2.2146   -2.0499    1.9009 H   0  0  0  0  0  0  0  0  0  0  0  0
    0.9052   -0.2501   -0.5388 H   0  0  0  0  0  0  0  0  0  0  0  0
    0.3698    1.6278    0.9791 H   0  0  0  0  0  0  0  0  0  0  0  0
    1.1267    0.7948    2.3173 H   0  0  0  0  0  0  0  0  0  0  0  0
    2.6564    1.6317   -0.2308 H   0  0  0  0  0  0  0  0  0  0  0  0
    3.8960    3.0682    1.4016 H   0  0  0  0  0  0  0  0  0  0  0  0
    2.7229    2.6876    2.6139 H   0  0  0  0  0  0  0  0  0  0  0  0
    2.3235    4.8754    1.9398 H   0  0  0  0  0  0  0  0  0  0  0  0
   -0.2842    6.0302    0.2690 H   0  0  0  0  0  0  0  0  0  0  0  0
    1.1320    6.4558   -0.7216 H   0  0  0  0  0  0  0  0  0  0  0  0
    1.2181    6.5382    1.0359 H   0  0  0  0  0  0  0  0  0  0  0  0
    1.2683    4.1937   -1.9136 H   0  0  0  0  0  0  0  0  0  0  0  0
    1.2309    2.7306   -0.9928 H   0  0  0  0  0  0  0  0  0  0  0  0
   -1.2236    3.7950   -0.2628 H   0  0  0  0  0  0  0  0  0  0  0  0
   -0.7249    4.5513   -3.1920 H   0  0  0  0  0  0  0  0  0  0  0  0
   -2.3158    4.5385   -2.4100 H   0  0  0  0  0  0  0  0  0  0  0  0
   -1.0769    5.6780   -1.8735 H   0  0  0  0  0  0  0  0  0  0  0  0
   -0.6159    1.9987   -2.7135 H   0  0  0  0  0  0  0  0  0  0  0  0
   -1.8433    0.3282   -1.7449 H   0  0  0  0  0  0  0  0  0  0  0  0
   -2.4123    2.2945    0.5709 H   0  0  0  0  0  0  0  0  0  0  0  0
   -3.2641   -0.1601    2.8934 H   0  0  0  0  0  0  0  0  0  0  0  0
   -4.6864    0.7026    2.2386 H   0  0  0  0  0  0  0  0  0  0  0  0
   -2.1158    1.7243    2.8077 H   0  0  0  0  0  0  0  0  0  0  0  0
   -3.9827   -0.3399   -1.4113 H   0  0  0  0  0  0  0  0  0  0  0  0
   -5.5947   -0.9986    0.4316 H   0  0  0  0  0  0  0  0  0  0  0  0
   -5.5621   -2.5577    2.2913 H   0  0  0  0  0  0  0  0  0  0  0  0
    4.3156   -2.1525    1.9903 H   0  0  0  0  0  0  0  0  0  0  0  0
    5.4509   -0.9482    1.4525 H   0  0  0  0  0  0  0  0  0  0  0  0
    4.3392   -3.2042   -0.2673 H   0  0  0  0  0  0  0  0  0  0  0  0
    5.9575   -3.1388    0.4144 H   0  0  0  0  0  0  0  0  0  0  0  0
    5.3185   -2.3235   -2.0994 H   0  0  0  0  0  0  0  0  0  0  0  0
    7.4400   -0.9919   -2.1282 H   0  0  0  0  0  0  0  0  0  0  0  0
    7.4849   -1.0448   -0.3557 H   0  0  0  0  0  0  0  0  0  0  0  0
    7.6064   -2.5416   -1.2980 H   0  0  0  0  0  0  0  0  0  0  0  0
    5.4091    0.3861   -0.6741 H   0  0  0  0  0  0  0  0  0  0  0  0
    4.2894    1.1427   -2.7249 H   0  0  0  0  0  0  0  0  0  0  0  0
    4.2722   -0.4876   -3.3739 H   0  0  0  0  0  0  0  0  0  0  0  0
    5.8229    0.3550   -3.1369 H   0  0  0  0  0  0  0  0  0  0  0  0
    2.0401   -1.6175    1.9543 H   0  0  0  0  0  0  0  0  0  0  0  0
    1.9991   -2.2873    0.3246 H   0  0  0  0  0  0  0  0  0  0  0  0
  1  2  1  0
  2  3  1  0
  3  4  1  0
  4  5  1  0
  4  6  2  0
  6  7  1  0
  7  8  1  0
  8  9  2  0
  8 10  1  0
 10 11  1  0
 11 12  1  0
 12 13  1  0
 13 14  1  0
 14 15  1  0
 15 16  2  0
 16 17  1  0
 16 18  1  0
 18 19  1  0
 19 20  1  0
 19 21  1  0
 21 22  2  0
 22 23  1  0
 23 24  2  0
 24 25  1  0
 25 26  1  0
 24 27  1  0
 27 28  1  6
 27 29  1  0
 29 30  1  0
 13 31  1  0
 32 31  1  1
 32 33  1  0
 33 34  1  0
 34 35  1  0
 35 36  1  0
 35 37  1  0
 37 38  1  0
 37 39  1  0
 32 40  1  0
 29  3  1  0
 39 32  1  0
 27  7  1  0
 40 11  1  0
  1 41  1  0
  1 42  1  0
  1 43  1  0
  3 44  1  6
  5 45  1  0
  5 46  1  0
  5 47  1  0
  6 48  1  0
  7 49  1  0
 11 50  1  6
 12 51  1  0
 12 52  1  0
 13 53  1  6
 14 54  1  0
 14 55  1  0
 15 56  1  0
 17 57  1  0
 17 58  1  0
 17 59  1  0
 18 60  1  0
 18 61  1  0
 19 62  1  1
 20 63  1  0
 20 64  1  0
 20 65  1  0
 21 66  1  0
 22 67  1  0
 23 68  1  0
 25 69  1  0
 25 70  1  0
 26 71  1  0
 28 72  1  0
 29 73  1  6
 30 74  1  0
 33 75  1  0
 33 76  1  0
 34 77  1  0
 34 78  1  0
 35 79  1  6
 36 80  1  0
 36 81  1  0
 36 82  1  0
 37 83  1  1
 38 84  1  0
 38 85  1  0
 38 86  1  0
 40 87  1  0
 40 88  1  0
M  END
$$$$
