
     RDKit          3D

 58 63  0  0  0  0  0  0  0  0999 V2000
    8.2090   -0.7606   -0.0614 C   0  0  0  0  0  0  0  0  0  0  0  0
    6.7791   -0.9958    0.2767 C   0  0  0  0  0  0  0  0  0  0  0  0
    5.9639   -2.0365   -0.1215 C   0  0  0  0  0  0  0  0  0  0  0  0
    4.6491   -1.9297    0.4201 C   0  0  0  0  0  0  0  0  0  0  0  0
    4.4983   -0.7987    1.2028 C   0  0  0  0  0  0  0  0  0  0  0  0
    3.3367   -0.3448    1.9483 C   0  0  0  0  0  0  0  0  0  0  0  0
    3.4017   -0.0559    3.1435 O   0  0  0  0  0  0  0  0  0  0  0  0
    2.1123   -0.2630    1.2673 N   0  0  0  0  0  0  0  0  0  0  0  0
    1.9765   -0.1899   -0.1881 C   0  0  0  0  0  0  0  0  0  0  0  0
    1.0369    0.9474   -0.5837 C   0  0  0  0  0  0  0  0  0  0  0  0
   -0.3968    0.8016    0.0194 C   0  0  0  0  0  0  0  0  0  0  0  0
   -0.3506   -0.1510    1.2464 C   0  0  0  0  0  0  0  0  0  0  0  0
    0.9260    0.0511    2.0549 C   0  0  0  0  0  0  0  0  0  0  0  0
   -0.7968    2.0822    0.5815 O   0  0  0  0  0  0  0  0  0  0  0  0
   -1.1513    3.0529   -0.3108 C   0  0  0  0  0  0  0  0  0  0  0  0
   -1.1524    4.3619    0.1736 C   0  0  0  0  0  0  0  0  0  0  0  0
   -1.4934    5.4196   -0.6720 C   0  0  0  0  0  0  0  0  0  0  0  0
   -1.8402    5.1640   -1.9991 C   0  0  0  0  0  0  0  0  0  0  0  0
   -2.2701    6.4702   -3.0338 Cl  0  0  0  0  0  0  0  0  0  0  0  0
   -1.8522    3.8595   -2.4879 C   0  0  0  0  0  0  0  0  0  0  0  0
   -1.5148    2.8048   -1.6324 C   0  0  0  0  0  0  0  0  0  0  0  0
   -1.5672    1.4096   -2.1089 C   0  0  0  0  0  0  0  0  0  0  0  0
   -1.7478    1.1844   -3.3013 O   0  0  0  0  0  0  0  0  0  0  0  0
   -1.4421    0.3337   -1.0330 C   0  0  0  0  0  0  0  0  0  0  0  0
   -2.8404    0.0481   -0.4990 C   0  0  0  0  0  0  0  0  0  0  0  0
   -2.8170   -1.4405   -0.5417 C   0  0  0  0  0  0  0  0  0  0  0  0
   -3.8691   -2.2626    0.1025 C   0  0  0  0  0  0  0  0  0  0  0  0
   -3.7651   -3.6578    0.0455 C   0  0  0  0  0  0  0  0  0  0  0  0
   -4.7225   -4.4599    0.6659 C   0  0  0  0  0  0  0  0  0  0  0  0
   -5.7884   -3.8755    1.3456 C   0  0  0  0  0  0  0  0  0  0  0  0
   -5.9044   -2.4870    1.3966 C   0  0  0  0  0  0  0  0  0  0  0  0
   -4.9491   -1.6783    0.7751 C   0  0  0  0  0  0  0  0  0  0  0  0
   -1.8093   -1.9501   -1.1753 N   0  0  0  0  0  0  0  0  0  0  0  0
   -1.0118   -0.8870   -1.6478 O   0  0  0  0  0  0  0  0  0  0  0  0
    5.9432    0.1069    1.2823 S   0  0  0  0  0  0  0  0  0  0  0  0
    8.6904   -1.6886   -0.3867 H   0  0  0  0  0  0  0  0  0  0  0  0
    8.2945   -0.0317   -0.8755 H   0  0  0  0  0  0  0  0  0  0  0  0
    8.7671   -0.3808    0.8033 H   0  0  0  0  0  0  0  0  0  0  0  0
    6.3041   -2.8606   -0.7466 H   0  0  0  0  0  0  0  0  0  0  0  0
    3.8594   -2.6566    0.2622 H   0  0  0  0  0  0  0  0  0  0  0  0
    2.9465   -0.0199   -0.6639 H   0  0  0  0  0  0  0  0  0  0  0  0
    1.5931   -1.1555   -0.5375 H   0  0  0  0  0  0  0  0  0  0  0  0
    1.0035    1.0047   -1.6783 H   0  0  0  0  0  0  0  0  0  0  0  0
    1.4831    1.8940   -0.2467 H   0  0  0  0  0  0  0  0  0  0  0  0
   -1.2079    0.0301    1.9057 H   0  0  0  0  0  0  0  0  0  0  0  0
   -0.3897   -1.2000    0.9362 H   0  0  0  0  0  0  0  0  0  0  0  0
    1.0127    1.0885    2.4023 H   0  0  0  0  0  0  0  0  0  0  0  0
    0.9132   -0.5925    2.9428 H   0  0  0  0  0  0  0  0  0  0  0  0
   -0.8792    4.5626    1.2068 H   0  0  0  0  0  0  0  0  0  0  0  0
   -1.4864    6.4391   -0.2913 H   0  0  0  0  0  0  0  0  0  0  0  0
   -2.1332    3.6622   -3.5214 H   0  0  0  0  0  0  0  0  0  0  0  0
   -3.0126    0.4370    0.5067 H   0  0  0  0  0  0  0  0  0  0  0  0
   -3.6365    0.4036   -1.1620 H   0  0  0  0  0  0  0  0  0  0  0  0
   -2.9349   -4.1300   -0.4782 H   0  0  0  0  0  0  0  0  0  0  0  0
   -4.6288   -5.5455    0.6271 H   0  0  0  0  0  0  0  0  0  0  0  0
   -6.5280   -4.5025    1.8377 H   0  0  0  0  0  0  0  0  0  0  0  0
   -6.7391   -2.0316    1.9256 H   0  0  0  0  0  0  0  0  0  0  0  0
   -5.0713   -0.5996    0.8344 H   0  0  0  0  0  0  0  0  0  0  0  0
  1  2  1  0
  2  3  2  0
  3  4  1  0
  4  5  2  0
  5  6  1  0
  6  7  2  0
  6  8  1  0
  8  9  1  0
  9 10  1  0
 10 11  1  0
 11 12  1  0
 12 13  1  0
 11 14  1  0
 14 15  1  0
 15 16  2  0
 16 17  1  0
 17 18  2  0
 18 19  1  0
 18 20  1  0
 20 21  2  0
 21 22  1  0
 22 23  2  0
 22 24  1  0
 24 25  1  0
 25 26  1  0
 26 27  1  0
 27 28  2  0
 28 29  1  0
 29 30  2  0
 30 31  1  0
 31 32  2  0
 26 33  2  0
 33 34  1  0
  5 35  1  0
 35  2  1  0
 13  8  1  0
 21 15  1  0
 34 24  1  0
 24 11  1  0
 32 27  1  0
  1 36  1  0
  1 37  1  0
  1 38  1  0
  3 39  1  0
  4 40  1  0
  9 41  1  0
  9 42  1  0
 10 43  1  0
 10 44  1  0
 12 45  1  0
 12 46  1  0
 13 47  1  0
 13 48  1  0
 16 49  1  0
 17 50  1  0
 20 51  1  0
 25 52  1  0
 25 53  1  0
 28 54  1  0
 29 55  1  0
 30 56  1  0
 31 57  1  0
 32 58  1  0
M  END
$$$$
