
     RDKit          3D

 88 91  0  0  0  0  0  0  0  0999 V2000
   -7.2614   -3.2196    0.5883 C   0  0  0  0  0  0  0  0  0  0  0  0
   -5.9613   -3.1988    1.1664 O   0  0  0  0  0  0  0  0  0  0  0  0
   -4.9472   -2.8126    0.2185 C   0  0  2  0  0  0  0  0  0  0  0  0
   -3.6885   -3.6032    0.5236 C   0  0  0  0  0  0  0  0  0  0  0  0
   -3.8527   -5.0859    0.6984 C   0  0  0  0  0  0  0  0  0  0  0  0
   -2.4808   -3.0120    0.5988 C   0  0  0  0  0  0  0  0  0  0  0  0
   -2.2673   -1.5203    0.3903 C   0  0  0  0  0  0  0  0  0  0  0  0
   -0.9450   -1.3127   -0.3356 C   0  0  0  0  0  0  0  0  0  0  0  0
   -0.8391   -1.1156   -1.5429 O   0  0  0  0  0  0  0  0  0  0  0  0
    0.1043   -1.3734    0.5385 O   0  0  0  0  0  0  0  0  0  0  0  0
    1.3733   -0.9201    0.0193 C   0  0  1  0  0  0  0  0  0  0  0  0
    1.3672    0.6011    0.0249 C   0  0  0  0  0  0  0  0  0  0  0  0
    2.7348    1.1768   -0.3052 C   0  0  1  0  0  0  0  0  0  0  0  0
    2.7321    2.7120   -0.1511 C   0  0  0  0  0  0  0  0  0  0  0  0
    1.7337    3.3933   -1.0524 C   0  0  0  0  0  0  0  0  0  0  0  0
    0.6951    4.1930   -0.7278 C   0  0  0  0  0  0  0  0  0  0  0  0
   -0.1430    4.7672   -1.8435 C   0  0  0  0  0  0  0  0  0  0  0  0
    0.3519    4.6637    0.6768 C   0  0  0  0  0  0  0  0  0  0  0  0
   -0.9828    4.2161    1.3353 C   0  0  1  0  0  0  0  0  0  0  0  0
   -2.2175    4.9060    0.7531 C   0  0  0  0  0  0  0  0  0  0  0  0
   -1.0520    2.7235    1.5950 C   0  0  0  0  0  0  0  0  0  0  0  0
   -1.7652    1.6983    1.0942 C   0  0  0  0  0  0  0  0  0  0  0  0
   -2.7256    1.7071    0.0223 C   0  0  0  0  0  0  0  0  0  0  0  0
   -3.4382    0.7198   -0.5745 C   0  0  0  0  0  0  0  0  0  0  0  0
   -4.4266    1.2112   -1.6320 C   0  0  0  0  0  0  0  0  0  0  0  0
   -5.6488    1.5598   -0.9986 O   0  0  0  0  0  0  0  0  0  0  0  0
   -3.4398   -0.8205   -0.3806 C   0  0  1  0  0  0  0  0  0  0  0  0
   -3.4760   -1.3751   -1.7281 O   0  0  0  0  0  0  0  0  0  0  0  0
   -4.7539   -1.2722    0.3244 C   0  0  2  0  0  0  0  0  0  0  0  0
   -4.7487   -0.8800    1.7134 O   0  0  0  0  0  0  0  0  0  0  0  0
    3.7163    0.6482    0.5966 O   0  0  0  0  0  0  0  0  0  0  0  0
    3.8297   -0.7808    0.5630 C   0  0  2  0  0  0  0  0  0  0  0  0
    4.9059   -1.1645    1.6031 C   0  0  0  0  0  0  0  0  0  0  0  0
    5.6562   -2.4215    1.1868 C   0  0  0  0  0  0  0  0  0  0  0  0
    6.3193   -2.2302   -0.1891 C   0  0  2  0  0  0  0  0  0  0  0  0
    7.8025   -1.8824   -0.0411 C   0  0  0  0  0  0  0  0  0  0  0  0
    5.5809   -1.1570   -1.0178 C   0  0  1  0  0  0  0  0  0  0  0  0
    5.7701   -1.3628   -2.5165 C   0  0  0  0  0  0  0  0  0  0  0  0
    4.1804   -1.2404   -0.7487 O   0  0  0  0  0  0  0  0  0  0  0  0
    2.4843   -1.4231    0.9356 C   0  0  0  0  0  0  0  0  0  0  0  0
   -7.5177   -2.2457    0.1624 H   0  0  0  0  0  0  0  0  0  0  0  0
   -7.3187   -3.9958   -0.1812 H   0  0  0  0  0  0  0  0  0  0  0  0
   -7.9822   -3.4576    1.3746 H   0  0  0  0  0  0  0  0  0  0  0  0
   -5.2580   -3.0803   -0.8008 H   0  0  0  0  0  0  0  0  0  0  0  0
   -4.3564   -5.5159   -0.1721 H   0  0  0  0  0  0  0  0  0  0  0  0
   -2.8909   -5.5961    0.8085 H   0  0  0  0  0  0  0  0  0  0  0  0
   -4.4461   -5.3057    1.5900 H   0  0  0  0  0  0  0  0  0  0  0  0
   -1.6027   -3.6068    0.8438 H   0  0  0  0  0  0  0  0  0  0  0  0
   -2.1799   -1.0989    1.3948 H   0  0  0  0  0  0  0  0  0  0  0  0
    1.5302   -1.3131   -0.9928 H   0  0  0  0  0  0  0  0  0  0  0  0
    1.0744    0.9326    1.0281 H   0  0  0  0  0  0  0  0  0  0  0  0
    0.6059    0.9720   -0.6690 H   0  0  0  0  0  0  0  0  0  0  0  0
    3.0208    0.9219   -1.3339 H   0  0  0  0  0  0  0  0  0  0  0  0
    2.5820    2.9621    0.9028 H   0  0  0  0  0  0  0  0  0  0  0  0
    3.7327    3.0905   -0.3935 H   0  0  0  0  0  0  0  0  0  0  0  0
    1.8975    3.1761   -2.1104 H   0  0  0  0  0  0  0  0  0  0  0  0
   -0.3748    5.8195   -1.6541 H   0  0  0  0  0  0  0  0  0  0  0  0
    0.3750    4.7283   -2.8081 H   0  0  0  0  0  0  0  0  0  0  0  0
   -1.0757    4.2069   -1.9510 H   0  0  0  0  0  0  0  0  0  0  0  0
    0.3701    5.7635    0.6635 H   0  0  0  0  0  0  0  0  0  0  0  0
    1.1613    4.3975    1.3665 H   0  0  0  0  0  0  0  0  0  0  0  0
   -0.9314    4.6374    2.3528 H   0  0  0  0  0  0  0  0  0  0  0  0
   -2.1279    5.9932    0.8630 H   0  0  0  0  0  0  0  0  0  0  0  0
   -3.1231    4.6028    1.2908 H   0  0  0  0  0  0  0  0  0  0  0  0
   -2.3683    4.7075   -0.3070 H   0  0  0  0  0  0  0  0  0  0  0  0
   -0.3725    2.4400    2.4048 H   0  0  0  0  0  0  0  0  0  0  0  0
   -1.5870    0.7529    1.5875 H   0  0  0  0  0  0  0  0  0  0  0  0
   -2.9369    2.7074   -0.3413 H   0  0  0  0  0  0  0  0  0  0  0  0
   -4.0444    2.0981   -2.1523 H   0  0  0  0  0  0  0  0  0  0  0  0
   -4.6390    0.4715   -2.4069 H   0  0  0  0  0  0  0  0  0  0  0  0
   -6.2371    1.8957   -1.6957 H   0  0  0  0  0  0  0  0  0  0  0  0
   -2.5866   -1.2230   -2.1146 H   0  0  0  0  0  0  0  0  0  0  0  0
   -5.6347   -0.8042   -0.1262 H   0  0  0  0  0  0  0  0  0  0  0  0
   -5.3743   -1.4911    2.1523 H   0  0  0  0  0  0  0  0  0  0  0  0
    5.6275   -0.3438    1.7126 H   0  0  0  0  0  0  0  0  0  0  0  0
    4.4638   -1.2874    2.5988 H   0  0  0  0  0  0  0  0  0  0  0  0
    6.3919   -2.6948    1.9515 H   0  0  0  0  0  0  0  0  0  0  0  0
    4.9459   -3.2561    1.1292 H   0  0  0  0  0  0  0  0  0  0  0  0
    6.2588   -3.1972   -0.7066 H   0  0  0  0  0  0  0  0  0  0  0  0
    8.2861   -1.7758   -1.0177 H   0  0  0  0  0  0  0  0  0  0  0  0
    8.3316   -2.6727    0.5043 H   0  0  0  0  0  0  0  0  0  0  0  0
    7.9376   -0.9445    0.5096 H   0  0  0  0  0  0  0  0  0  0  0  0
    5.9327   -0.1474   -0.7665 H   0  0  0  0  0  0  0  0  0  0  0  0
    6.8217   -1.2841   -2.8068 H   0  0  0  0  0  0  0  0  0  0  0  0
    5.3882   -2.3408   -2.8308 H   0  0  0  0  0  0  0  0  0  0  0  0
    5.2020   -0.6116   -3.0757 H   0  0  0  0  0  0  0  0  0  0  0  0
    2.2190   -1.1826    1.9738 H   0  0  0  0  0  0  0  0  0  0  0  0
    2.5332   -2.5173    0.8679 H   0  0  0  0  0  0  0  0  0  0  0  0
  1  2  1  0
  2  3  1  0
  3  4  1  0
  4  5  1  0
  4  6  2  0
  6  7  1  0
  7  8  1  0
  8  9  2  0
  8 10  1  0
 10 11  1  0
 11 12  1  0
 12 13  1  0
 13 14  1  0
 14 15  1  0
 15 16  2  0
 16 17  1  0
 16 18  1  0
 18 19  1  0
 19 20  1  0
 19 21  1  0
 21 22  2  0
 22 23  1  0
 23 24  2  0
 24 25  1  0
 25 26  1  0
 24 27  1  0
 27 28  1  6
 27 29  1  0
 29 30  1  0
 13 31  1  0
 32 31  1  6
 32 33  1  0
 33 34  1  0
 34 35  1  0
 35 36  1  0
 35 37  1  0
 37 38  1  0
 37 39  1  0
 32 40  1  0
 29  3  1  0
 39 32  1  0
 27  7  1  0
 40 11  1  0
  1 41  1  0
  1 42  1  0
  1 43  1  0
  3 44  1  6
  5 45  1  0
  5 46  1  0
  5 47  1  0
  6 48  1  0
  7 49  1  0
 11 50  1  6
 12 51  1  0
 12 52  1  0
 13 53  1  6
 14 54  1  0
 14 55  1  0
 15 56  1  0
 17 57  1  0
 17 58  1  0
 17 59  1  0
 18 60  1  0
 18 61  1  0
 19 62  1  1
 20 63  1  0
 20 64  1  0
 20 65  1  0
 21 66  1  0
 22 67  1  0
 23 68  1  0
 25 69  1  0
 25 70  1  0
 26 71  1  0
 28 72  1  0
 29 73  1  6
 30 74  1  0
 33 75  1  0
 33 76  1  0
 34 77  1  0
 34 78  1  0
 35 79  1  6
 36 80  1  0
 36 81  1  0
 36 82  1  0
 37 83  1  1
 38 84  1  0
 38 85  1  0
 38 86  1  0
 40 87  1  0
 40 88  1  0
M  END
$$$$
