
     RDKit          3D

 88 93  0  0  0  0  0  0  0  0999 V2000
    2.3796    0.4325   -2.1044 C   0  0  0  0  0  0  0  0  0  0  0  0
    2.3232   -0.4450   -0.8905 C   0  0  0  0  0  0  0  0  0  0  0  0
    3.1060   -1.3543   -0.6583 O   0  0  0  0  0  0  0  0  0  0  0  0
    1.2872   -0.0650   -0.0973 O   0  0  0  0  0  0  0  0  0  0  0  0
    1.1004   -0.7721    1.1394 C   0  0  1  0  0  0  0  0  0  0  0  0
    1.2610    0.1678    2.3698 C   0  0  1  0  0  0  0  0  0  0  0  0
    2.1331    1.4005    2.1364 C   0  0  0  0  0  0  0  0  0  0  0  0
    3.4532    0.9816    1.7654 O   0  0  0  0  0  0  0  0  0  0  0  0
    4.1881    1.9289    1.1309 C   0  0  0  0  0  0  0  0  0  0  0  0
    3.8226    3.0684    0.8878 O   0  0  0  0  0  0  0  0  0  0  0  0
    5.5239    1.4015    0.7466 C   0  0  0  0  0  0  0  0  0  0  0  0
    5.8557    0.0443    0.8539 C   0  0  0  0  0  0  0  0  0  0  0  0
    7.1202   -0.3998    0.4584 C   0  0  0  0  0  0  0  0  0  0  0  0
    8.0566    0.5054   -0.0418 C   0  0  0  0  0  0  0  0  0  0  0  0
    7.7318    1.8564   -0.1531 C   0  0  0  0  0  0  0  0  0  0  0  0
    6.4686    2.3049    0.2375 C   0  0  0  0  0  0  0  0  0  0  0  0
   -0.1814    0.5478    2.8159 C   0  0  0  0  0  0  0  0  0  0  0  0
   -1.1033    0.0958    1.6568 C   0  0  2  0  0  0  0  0  0  0  0  0
   -0.9155    1.1881    0.7124 O   0  0  0  0  0  0  0  0  0  0  0  0
   -1.6983    1.3584   -0.3693 C   0  0  0  0  0  0  0  0  0  0  0  0
   -2.6388    0.6626   -0.7109 O   0  0  0  0  0  0  0  0  0  0  0  0
   -1.2361    2.4872   -1.2053 C   0  0  0  0  0  0  0  0  0  0  0  0
   -0.2769    3.3557   -0.8494 C   0  0  0  0  0  0  0  0  0  0  0  0
    0.2163    4.4433   -1.7074 C   0  0  0  0  0  0  0  0  0  0  0  0
   -0.6025    5.1200   -2.6208 C   0  0  0  0  0  0  0  0  0  0  0  0
   -0.0890    6.1615   -3.3980 C   0  0  0  0  0  0  0  0  0  0  0  0
    1.2443    6.5445   -3.2632 C   0  0  0  0  0  0  0  0  0  0  0  0
    2.0646    5.8901   -2.3479 C   0  0  0  0  0  0  0  0  0  0  0  0
    1.5523    4.8490   -1.5701 C   0  0  0  0  0  0  0  0  0  0  0  0
   -2.5723   -0.0312    2.1612 C   0  0  0  0  0  0  0  0  0  0  0  0
   -3.2895    0.9672    2.2840 O   0  0  0  0  0  0  0  0  0  0  0  0
   -3.1109   -1.3448    2.6505 C   0  0  0  0  0  0  0  0  0  0  0  0
   -2.8692   -1.6069    4.1073 C   0  0  0  0  0  0  0  0  0  0  0  0
   -3.8494   -2.1750    1.8812 C   0  0  0  0  0  0  0  0  0  0  0  0
   -4.1899   -2.0682    0.4492 C   0  0  0  0  0  0  0  0  0  0  0  0
   -3.8436   -3.2668   -0.4360 C   0  0  2  0  0  0  0  0  0  0  0  0
   -3.0866   -3.0625   -1.7295 C   0  0  0  0  0  0  0  0  0  0  0  0
   -1.6625   -3.6761   -1.7526 C   0  0  0  0  0  0  0  0  0  0  0  0
   -0.6700   -3.2002   -0.6957 C   0  0  2  0  0  0  0  0  0  0  0  0
    0.7182   -3.7423   -0.8047 C   0  0  0  0  0  0  0  0  0  0  0  0
   -1.2215   -3.3006    0.5975 O   0  0  0  0  0  0  0  0  0  0  0  0
   -0.9737   -1.9443    0.1290 C   0  0  1  0  0  0  0  0  0  0  0  0
   -0.3565   -1.2129    1.2703 C   0  0  1  0  0  0  0  0  0  0  0  0
   -5.2951   -2.8533   -0.2350 C   0  0  0  0  0  0  0  0  0  0  0  0
   -6.0325   -2.1518   -1.3517 C   0  0  0  0  0  0  0  0  0  0  0  0
   -6.1836   -3.7799    0.5590 C   0  0  0  0  0  0  0  0  0  0  0  0
    1.4388    0.3611   -2.6553 H   0  0  0  0  0  0  0  0  0  0  0  0
    2.5746    1.4653   -1.8046 H   0  0  0  0  0  0  0  0  0  0  0  0
    3.1910    0.0964   -2.7560 H   0  0  0  0  0  0  0  0  0  0  0  0
    1.7788   -1.6263    1.2277 H   0  0  0  0  0  0  0  0  0  0  0  0
    1.7121   -0.4232    3.1794 H   0  0  0  0  0  0  0  0  0  0  0  0
    1.6916    2.0369    1.3636 H   0  0  0  0  0  0  0  0  0  0  0  0
    2.2097    1.9810    3.0639 H   0  0  0  0  0  0  0  0  0  0  0  0
    5.1361   -0.6823    1.2262 H   0  0  0  0  0  0  0  0  0  0  0  0
    7.3705   -1.4554    0.5325 H   0  0  0  0  0  0  0  0  0  0  0  0
    9.0387    0.1559   -0.3526 H   0  0  0  0  0  0  0  0  0  0  0  0
    8.4596    2.5610   -0.5468 H   0  0  0  0  0  0  0  0  0  0  0  0
    6.2239    3.3611    0.1436 H   0  0  0  0  0  0  0  0  0  0  0  0
   -0.2729    1.6206    3.0258 H   0  0  0  0  0  0  0  0  0  0  0  0
   -0.4196    0.0205    3.7459 H   0  0  0  0  0  0  0  0  0  0  0  0
   -1.7420    2.5449   -2.1638 H   0  0  0  0  0  0  0  0  0  0  0  0
    0.2178    3.2722    0.1158 H   0  0  0  0  0  0  0  0  0  0  0  0
   -1.6523    4.8591   -2.7310 H   0  0  0  0  0  0  0  0  0  0  0  0
   -0.7351    6.6808   -4.1012 H   0  0  0  0  0  0  0  0  0  0  0  0
    1.6409    7.3564   -3.8664 H   0  0  0  0  0  0  0  0  0  0  0  0
    3.1021    6.1922   -2.2309 H   0  0  0  0  0  0  0  0  0  0  0  0
    2.2110    4.3570   -0.8569 H   0  0  0  0  0  0  0  0  0  0  0  0
   -3.1637   -0.7391    4.7085 H   0  0  0  0  0  0  0  0  0  0  0  0
   -1.8126   -1.8208    4.2920 H   0  0  0  0  0  0  0  0  0  0  0  0
   -3.4468   -2.4629    4.4714 H   0  0  0  0  0  0  0  0  0  0  0  0
   -4.2223   -3.0720    2.3719 H   0  0  0  0  0  0  0  0  0  0  0  0
   -4.0660   -1.0663    0.0529 H   0  0  0  0  0  0  0  0  0  0  0  0
   -3.5601   -4.2072    0.0294 H   0  0  0  0  0  0  0  0  0  0  0  0
   -3.0303   -1.9990   -1.9835 H   0  0  0  0  0  0  0  0  0  0  0  0
   -3.6591   -3.5383   -2.5335 H   0  0  0  0  0  0  0  0  0  0  0  0
   -1.7540   -4.7658   -1.6631 H   0  0  0  0  0  0  0  0  0  0  0  0
   -1.2265   -3.4764   -2.7398 H   0  0  0  0  0  0  0  0  0  0  0  0
    1.2293   -3.2980   -1.6645 H   0  0  0  0  0  0  0  0  0  0  0  0
    0.6953   -4.8280   -0.9452 H   0  0  0  0  0  0  0  0  0  0  0  0
    1.3135   -3.5465    0.0909 H   0  0  0  0  0  0  0  0  0  0  0  0
   -1.7743   -1.3661   -0.2922 H   0  0  0  0  0  0  0  0  0  0  0  0
   -0.3981   -1.8792    2.1466 H   0  0  0  0  0  0  0  0  0  0  0  0
   -6.8834   -1.5948   -0.9480 H   0  0  0  0  0  0  0  0  0  0  0  0
   -5.3979   -1.4406   -1.8925 H   0  0  0  0  0  0  0  0  0  0  0  0
   -6.4098   -2.8808   -2.0754 H   0  0  0  0  0  0  0  0  0  0  0  0
   -6.7531   -4.4297   -0.1127 H   0  0  0  0  0  0  0  0  0  0  0  0
   -6.8945   -3.2006    1.1571 H   0  0  0  0  0  0  0  0  0  0  0  0
   -5.6196   -4.4335    1.2325 H   0  0  0  0  0  0  0  0  0  0  0  0
  1  2  1  0
  2  3  2  0
  2  4  1  0
  4  5  1  0
  5  6  1  0
  6  7  1  0
  7  8  1  0
  8  9  1  0
  9 10  2  0
  9 11  1  0
 11 12  2  0
 12 13  1  0
 13 14  2  0
 14 15  1  0
 15 16  2  0
  6 17  1  0
 17 18  1  0
 18 19  1  6
 19 20  1  0
 20 21  2  0
 20 22  1  0
 22 23  2  0
 23 24  1  0
 24 25  2  0
 25 26  1  0
 26 27  2  0
 27 28  1  0
 28 29  2  0
 18 30  1  0
 30 31  2  0
 30 32  1  0
 32 33  1  0
 32 34  2  3
 34 35  1  0
 35 36  1  0
 36 37  1  0
 37 38  1  0
 38 39  1  0
 39 40  1  1
 39 41  1  0
 41 42  1  0
 42 43  1  0
 36 44  1  0
 44 45  1  0
 44 46  1  0
 43  5  1  0
 16 11  1  0
 43 18  1  0
 29 24  1  0
 44 35  1  0
 42 39  1  0
  1 47  1  0
  1 48  1  0
  1 49  1  0
  5 50  1  1
  6 51  1  1
  7 52  1  0
  7 53  1  0
 12 54  1  0
 13 55  1  0
 14 56  1  0
 15 57  1  0
 16 58  1  0
 17 59  1  0
 17 60  1  0
 22 61  1  0
 23 62  1  0
 25 63  1  0
 26 64  1  0
 27 65  1  0
 28 66  1  0
 29 67  1  0
 33 68  1  0
 33 69  1  0
 33 70  1  0
 34 71  1  0
 35 72  1  0
 36 73  1  1
 37 74  1  0
 37 75  1  0
 38 76  1  0
 38 77  1  0
 40 78  1  0
 40 79  1  0
 40 80  1  0
 42 81  1  6
 43 82  1  1
 45 83  1  0
 45 84  1  0
 45 85  1  0
 46 86  1  0
 46 87  1  0
 46 88  1  0
M  END
$$$$
