
     RDKit          3D

 43 45  0  0  0  0  0  0  0  0999 V2000
    7.0537    2.0174    0.6635 C   0  0  0  0  0  0  0  0  0  0  0  0
    5.7716    1.3884    0.6549 O   0  0  0  0  0  0  0  0  0  0  0  0
    5.6222    0.4314    1.6051 C   0  0  0  0  0  0  0  0  0  0  0  0
    6.4713    0.0905    2.4136 O   0  0  0  0  0  0  0  0  0  0  0  0
    4.2626   -0.1705    1.5361 C   0  0  0  0  0  0  0  0  0  0  0  0
    3.3090    0.2260    0.5897 C   0  0  0  0  0  0  0  0  0  0  0  0
    2.0417   -0.3716    0.5647 C   0  0  0  0  0  0  0  0  0  0  0  0
    1.7180   -1.3724    1.4811 C   0  0  0  0  0  0  0  0  0  0  0  0
    0.5233   -2.0298    1.5696 O   0  0  0  0  0  0  0  0  0  0  0  0
   -0.3819   -1.9246    0.4783 C   0  0  0  0  0  0  0  0  0  0  0  0
   -1.2972   -0.6786    0.4656 C   0  0  0  0  0  0  0  0  0  0  0  0
   -1.1929    0.1518    1.3698 O   0  0  0  0  0  0  0  0  0  0  0  0
   -2.2070   -0.5877   -0.6185 N   0  0  0  0  0  0  0  0  0  0  0  0
   -2.5106   -1.7880   -1.4122 C   0  0  0  0  0  0  0  0  0  0  0  0
   -3.2645   -1.5312   -2.7032 C   0  0  0  0  0  0  0  0  0  0  0  0
   -4.5337   -0.7718   -2.3912 C   0  0  0  0  0  0  0  0  0  0  0  0
   -4.1837    0.4951   -1.6626 C   0  0  0  0  0  0  0  0  0  0  0  0
   -5.0346    1.6048   -1.8259 C   0  0  0  0  0  0  0  0  0  0  0  0
   -4.7608    2.8087   -1.1883 C   0  0  0  0  0  0  0  0  0  0  0  0
   -3.6342    2.9122   -0.3861 C   0  0  0  0  0  0  0  0  0  0  0  0
   -2.7933    1.8075   -0.2056 C   0  0  0  0  0  0  0  0  0  0  0  0
   -3.0581    0.5691   -0.8116 C   0  0  0  0  0  0  0  0  0  0  0  0
    2.6655   -1.7581    2.4329 C   0  0  0  0  0  0  0  0  0  0  0  0
    3.9316   -1.1671    2.4608 C   0  0  0  0  0  0  0  0  0  0  0  0
    7.8414    1.2850    0.4606 H   0  0  0  0  0  0  0  0  0  0  0  0
    7.2280    2.5209    1.6196 H   0  0  0  0  0  0  0  0  0  0  0  0
    7.0674    2.7690   -0.1307 H   0  0  0  0  0  0  0  0  0  0  0  0
    3.5314    1.0085   -0.1319 H   0  0  0  0  0  0  0  0  0  0  0  0
    1.3276   -0.0112   -0.1682 H   0  0  0  0  0  0  0  0  0  0  0  0
   -1.0343   -2.8008    0.5635 H   0  0  0  0  0  0  0  0  0  0  0  0
    0.1589   -2.0084   -0.4714 H   0  0  0  0  0  0  0  0  0  0  0  0
   -1.5800   -2.2976   -1.6767 H   0  0  0  0  0  0  0  0  0  0  0  0
   -3.0785   -2.4680   -0.7644 H   0  0  0  0  0  0  0  0  0  0  0  0
   -2.6351   -0.9541   -3.3931 H   0  0  0  0  0  0  0  0  0  0  0  0
   -3.5024   -2.4803   -3.1960 H   0  0  0  0  0  0  0  0  0  0  0  0
   -5.2077   -1.3715   -1.7681 H   0  0  0  0  0  0  0  0  0  0  0  0
   -5.0537   -0.5479   -3.3300 H   0  0  0  0  0  0  0  0  0  0  0  0
   -5.9151    1.5330   -2.4610 H   0  0  0  0  0  0  0  0  0  0  0  0
   -5.4179    3.6634   -1.3226 H   0  0  0  0  0  0  0  0  0  0  0  0
   -3.3996    3.8518    0.1079 H   0  0  0  0  0  0  0  0  0  0  0  0
   -1.9174    1.9684    0.4146 H   0  0  0  0  0  0  0  0  0  0  0  0
    2.4157   -2.5263    3.1613 H   0  0  0  0  0  0  0  0  0  0  0  0
    4.6533   -1.4854    3.2105 H   0  0  0  0  0  0  0  0  0  0  0  0
  1  2  1  0
  2  3  1  0
  3  4  2  0
  3  5  1  0
  5  6  2  0
  6  7  1  0
  7  8  2  0
  8  9  1  0
  9 10  1  0
 10 11  1  0
 11 12  2  0
 11 13  1  0
 13 14  1  0
 14 15  1  0
 15 16  1  0
 16 17  1  0
 17 18  2  0
 18 19  1  0
 19 20  2  0
 20 21  1  0
 21 22  2  0
  8 23  1  0
 23 24  2  0
 24  5  1  0
 22 13  1  0
 22 17  1  0
  1 25  1  0
  1 26  1  0
  1 27  1  0
  6 28  1  0
  7 29  1  0
 10 30  1  0
 10 31  1  0
 14 32  1  0
 14 33  1  0
 15 34  1  0
 15 35  1  0
 16 36  1  0
 16 37  1  0
 18 38  1  0
 19 39  1  0
 20 40  1  0
 21 41  1  0
 23 42  1  0
 24 43  1  0
M  END
$$$$
