
     RDKit          3D

 41 42  0  0  0  0  0  0  0  0999 V2000
   -5.2560    1.7266   -0.2308 C   0  0  0  0  0  0  0  0  0  0  0  0
   -4.5800    0.6656    0.6257 C   0  0  0  0  0  0  0  0  0  0  0  0
   -3.4991    0.0039   -0.1162 N   0  0  0  0  0  0  0  0  0  0  0  0
   -3.8667   -1.2375   -0.8091 C   0  0  0  0  0  0  0  0  0  0  0  0
   -3.6658   -2.4500    0.0890 C   0  0  0  0  0  0  0  0  0  0  0  0
   -2.1928    0.4834   -0.1003 C   0  0  0  0  0  0  0  0  0  0  0  0
   -1.8510    1.7167    0.4807 C   0  0  0  0  0  0  0  0  0  0  0  0
   -0.5348    2.2073    0.4988 C   0  0  0  0  0  0  0  0  0  0  0  0
    0.5063    1.4713   -0.0613 C   0  0  0  0  0  0  0  0  0  0  0  0
    1.8590    2.0385   -0.0816 C   0  0  0  0  0  0  0  0  0  0  0  0
    3.0150    1.4561    0.2747 C   0  0  0  0  0  0  0  0  0  0  0  0
    3.1675    0.0962    0.8642 C   0  0  0  0  0  0  0  0  0  0  0  0
    2.3039   -0.4212    1.5609 O   0  0  0  0  0  0  0  0  0  0  0  0
    4.4505   -0.6102    0.6389 C   0  0  0  0  0  0  0  0  0  0  0  0
    5.3105   -0.3360   -0.4281 C   0  0  0  0  0  0  0  0  0  0  0  0
    6.4933   -1.0634   -0.5587 C   0  0  0  0  0  0  0  0  0  0  0  0
    6.7730   -2.0450    0.3788 C   0  0  0  0  0  0  0  0  0  0  0  0
    5.9597   -2.3437    1.4136 N   0  0  0  0  0  0  0  0  0  0  0  0
    4.8122   -1.6262    1.5164 C   0  0  0  0  0  0  0  0  0  0  0  0
    0.1985    0.2536   -0.6609 C   0  0  0  0  0  0  0  0  0  0  0  0
   -1.1221   -0.2259   -0.6715 C   0  0  0  0  0  0  0  0  0  0  0  0
   -5.6753    1.2870   -1.1419 H   0  0  0  0  0  0  0  0  0  0  0  0
   -4.5558    2.5109   -0.5336 H   0  0  0  0  0  0  0  0  0  0  0  0
   -6.0727    2.1972    0.3254 H   0  0  0  0  0  0  0  0  0  0  0  0
   -5.3364   -0.0745    0.9170 H   0  0  0  0  0  0  0  0  0  0  0  0
   -4.2275    1.0902    1.5723 H   0  0  0  0  0  0  0  0  0  0  0  0
   -3.3225   -1.3536   -1.7529 H   0  0  0  0  0  0  0  0  0  0  0  0
   -4.9239   -1.1949   -1.1013 H   0  0  0  0  0  0  0  0  0  0  0  0
   -4.2690   -2.3701    0.9994 H   0  0  0  0  0  0  0  0  0  0  0  0
   -2.6209   -2.5621    0.3933 H   0  0  0  0  0  0  0  0  0  0  0  0
   -3.9653   -3.3623   -0.4363 H   0  0  0  0  0  0  0  0  0  0  0  0
   -2.6066    2.3489    0.9354 H   0  0  0  0  0  0  0  0  0  0  0  0
   -0.3420    3.1701    0.9653 H   0  0  0  0  0  0  0  0  0  0  0  0
    1.8967    3.0643   -0.4454 H   0  0  0  0  0  0  0  0  0  0  0  0
    3.9316    2.0283    0.1705 H   0  0  0  0  0  0  0  0  0  0  0  0
    5.0729    0.4167   -1.1735 H   0  0  0  0  0  0  0  0  0  0  0  0
    7.1790   -0.8746   -1.3779 H   0  0  0  0  0  0  0  0  0  0  0  0
    7.6818   -2.6376    0.3178 H   0  0  0  0  0  0  0  0  0  0  0  0
    4.1768   -1.9010    2.3557 H   0  0  0  0  0  0  0  0  0  0  0  0
    0.9748   -0.3497   -1.1230 H   0  0  0  0  0  0  0  0  0  0  0  0
   -1.2768   -1.1934   -1.1379 H   0  0  0  0  0  0  0  0  0  0  0  0
  1  2  1  0
  2  3  1  0
  3  4  1  0
  4  5  1  0
  3  6  1  0
  6  7  2  0
  7  8  1  0
  8  9  2  0
  9 10  1  0
 10 11  2  3
 11 12  1  0
 12 13  2  0
 12 14  1  0
 14 15  2  0
 15 16  1  0
 16 17  2  0
 17 18  1  0
 18 19  2  0
  9 20  1  0
 20 21  2  0
 21  6  1  0
 19 14  1  0
  1 22  1  0
  1 23  1  0
  1 24  1  0
  2 25  1  0
  2 26  1  0
  4 27  1  0
  4 28  1  0
  5 29  1  0
  5 30  1  0
  5 31  1  0
  7 32  1  0
  8 33  1  0
 10 34  1  0
 11 35  1  0
 15 36  1  0
 16 37  1  0
 17 38  1  0
 19 39  1  0
 20 40  1  0
 21 41  1  0
M  END
$$$$
