
     RDKit          3D

 60 63  0  0  0  0  0  0  0  0999 V2000
   -2.4152    5.6614    0.1928 C   0  0  0  0  0  0  0  0  0  0  0  0
   -2.7355    4.7652   -0.8664 O   0  0  0  0  0  0  0  0  0  0  0  0
   -2.4214    3.4485   -0.6754 C   0  0  0  0  0  0  0  0  0  0  0  0
   -1.8794    2.8933    0.4837 C   0  0  0  0  0  0  0  0  0  0  0  0
   -1.6088    1.5214    0.5501 C   0  0  0  0  0  0  0  0  0  0  0  0
   -1.8928    0.6971   -0.5439 C   0  0  0  0  0  0  0  0  0  0  0  0
   -1.6295   -0.6936   -0.4806 N   0  0  0  0  0  0  0  0  0  0  0  0
   -2.4938   -1.7302   -0.8120 C   0  0  0  0  0  0  0  0  0  0  0  0
   -3.9608   -1.5902   -1.0788 C   0  0  0  0  0  0  0  0  0  0  0  0
   -4.7384   -1.3355    0.1842 C   0  0  0  0  0  0  0  0  0  0  0  0
   -4.7331   -2.0748    1.3586 C   0  0  0  0  0  0  0  0  0  0  0  0
   -5.6012   -1.4473    2.2782 C   0  0  0  0  0  0  0  0  0  0  0  0
   -6.1293   -0.3440    1.6480 C   0  0  0  0  0  0  0  0  0  0  0  0
   -5.6245   -0.2933    0.3712 N   0  0  0  0  0  0  0  0  0  0  0  0
   -6.0140    0.7062   -0.6000 C   0  0  0  0  0  0  0  0  0  0  0  0
   -1.8629   -2.8848   -0.6860 N   0  0  0  0  0  0  0  0  0  0  0  0
   -0.6070   -2.6382   -0.2044 N   0  0  0  0  0  0  0  0  0  0  0  0
   -0.4805   -1.3393   -0.0615 C   0  0  0  0  0  0  0  0  0  0  0  0
    0.9954   -0.5576    0.3993 S   0  0  0  0  0  0  0  0  0  0  0  0
    1.6353   -1.7783    1.5830 C   0  0  0  0  0  0  0  0  0  0  0  0
    2.9362   -1.2543    2.1645 C   0  0  0  0  0  0  0  0  0  0  0  0
    2.9739   -0.3261    2.9687 O   0  0  0  0  0  0  0  0  0  0  0  0
    4.0688   -1.8862    1.6887 N   0  0  0  0  0  0  0  0  0  0  0  0
    5.3973   -1.4076    2.0269 C   0  0  0  0  0  0  0  0  0  0  0  0
    5.8347   -0.2150    1.1672 C   0  0  0  0  0  0  0  0  0  0  0  0
    5.9761   -0.5851   -0.2935 C   0  0  0  0  0  0  0  0  0  0  0  0
    7.1147   -1.2666   -0.7472 C   0  0  0  0  0  0  0  0  0  0  0  0
    7.2277   -1.6399   -2.0880 C   0  0  0  0  0  0  0  0  0  0  0  0
    6.2027   -1.3406   -2.9850 C   0  0  0  0  0  0  0  0  0  0  0  0
    5.0666   -0.6625   -2.5441 C   0  0  0  0  0  0  0  0  0  0  0  0
    4.9531   -0.2847   -1.2049 C   0  0  0  0  0  0  0  0  0  0  0  0
   -2.4319    1.2492   -1.7101 C   0  0  0  0  0  0  0  0  0  0  0  0
   -2.6896    2.6211   -1.7696 C   0  0  0  0  0  0  0  0  0  0  0  0
   -2.7036    6.6680   -0.1243 H   0  0  0  0  0  0  0  0  0  0  0  0
   -2.9841    5.4216    1.0984 H   0  0  0  0  0  0  0  0  0  0  0  0
   -1.3372    5.6679    0.3894 H   0  0  0  0  0  0  0  0  0  0  0  0
   -1.6573    3.4968    1.3585 H   0  0  0  0  0  0  0  0  0  0  0  0
   -1.2124    1.1168    1.4801 H   0  0  0  0  0  0  0  0  0  0  0  0
   -4.3234   -2.5343   -1.5077 H   0  0  0  0  0  0  0  0  0  0  0  0
   -4.1494   -0.8341   -1.8422 H   0  0  0  0  0  0  0  0  0  0  0  0
   -4.1485   -2.9735    1.5293 H   0  0  0  0  0  0  0  0  0  0  0  0
   -5.8174   -1.7639    3.2905 H   0  0  0  0  0  0  0  0  0  0  0  0
   -6.8319    0.3994    2.0039 H   0  0  0  0  0  0  0  0  0  0  0  0
   -5.2329    1.4654   -0.6392 H   0  0  0  0  0  0  0  0  0  0  0  0
   -6.1508    0.2301   -1.5745 H   0  0  0  0  0  0  0  0  0  0  0  0
   -6.9596    1.1610   -0.2922 H   0  0  0  0  0  0  0  0  0  0  0  0
    0.9305   -1.9314    2.4058 H   0  0  0  0  0  0  0  0  0  0  0  0
    1.7992   -2.7424    1.0891 H   0  0  0  0  0  0  0  0  0  0  0  0
    3.9884   -2.4429    0.8444 H   0  0  0  0  0  0  0  0  0  0  0  0
    5.4087   -1.1244    3.0840 H   0  0  0  0  0  0  0  0  0  0  0  0
    6.0796   -2.2536    1.8979 H   0  0  0  0  0  0  0  0  0  0  0  0
    5.1246    0.6151    1.2733 H   0  0  0  0  0  0  0  0  0  0  0  0
    6.7994    0.1600    1.5299 H   0  0  0  0  0  0  0  0  0  0  0  0
    7.9214   -1.5102   -0.0583 H   0  0  0  0  0  0  0  0  0  0  0  0
    8.1151   -2.1648   -2.4340 H   0  0  0  0  0  0  0  0  0  0  0  0
    6.2904   -1.6332   -4.0285 H   0  0  0  0  0  0  0  0  0  0  0  0
    4.2677   -0.4269   -3.2438 H   0  0  0  0  0  0  0  0  0  0  0  0
    4.0600    0.2442   -0.8754 H   0  0  0  0  0  0  0  0  0  0  0  0
   -2.6144    0.6470   -2.5967 H   0  0  0  0  0  0  0  0  0  0  0  0
   -3.0949    3.0548   -2.6819 H   0  0  0  0  0  0  0  0  0  0  0  0
  1  2  1  0
  2  3  1  0
  3  4  2  0
  4  5  1  0
  5  6  2  0
  6  7  1  0
  7  8  1  0
  8  9  1  0
  9 10  1  0
 10 11  2  0
 11 12  1  0
 12 13  2  0
 13 14  1  0
 14 15  1  0
  8 16  2  0
 16 17  1  0
 17 18  2  0
 18 19  1  0
 19 20  1  0
 20 21  1  0
 21 22  2  0
 21 23  1  0
 23 24  1  0
 24 25  1  0
 25 26  1  0
 26 27  2  0
 27 28  1  0
 28 29  2  0
 29 30  1  0
 30 31  2  0
  6 32  1  0
 32 33  2  0
 33  3  1  0
 18  7  1  0
 31 26  1  0
 14 10  1  0
  1 34  1  0
  1 35  1  0
  1 36  1  0
  4 37  1  0
  5 38  1  0
  9 39  1  0
  9 40  1  0
 11 41  1  0
 12 42  1  0
 13 43  1  0
 15 44  1  0
 15 45  1  0
 15 46  1  0
 20 47  1  0
 20 48  1  0
 23 49  1  0
 24 50  1  0
 24 51  1  0
 25 52  1  0
 25 53  1  0
 27 54  1  0
 28 55  1  0
 29 56  1  0
 30 57  1  0
 31 58  1  0
 32 59  1  0
 33 60  1  0
M  END
$$$$
