
     RDKit          3D

 34 35  0  0  0  0  0  0  0  0999 V2000
   -4.4588    0.5087   -0.8246 C   0  0  0  0  0  0  0  0  0  0  0  0
   -3.4621   -0.0253    0.1696 C   0  0  0  0  0  0  0  0  0  0  0  0
   -3.8777   -1.0344    1.0567 C   0  0  0  0  0  0  0  0  0  0  0  0
   -2.9977   -1.5677    1.9958 C   0  0  0  0  0  0  0  0  0  0  0  0
   -1.6964   -1.0872    2.0713 C   0  0  0  0  0  0  0  0  0  0  0  0
   -1.2707   -0.0814    1.2005 C   0  0  0  0  0  0  0  0  0  0  0  0
   -2.1327    0.4452    0.2294 C   0  0  0  0  0  0  0  0  0  0  0  0
   -1.7381    1.4791   -0.6516 N   0  0  0  0  0  0  0  0  0  0  0  0
   -0.5074    1.9413   -1.0236 C   0  0  0  0  0  0  0  0  0  0  0  0
   -0.4359    3.4470   -1.7489 S   0  0  0  0  0  0  0  0  0  0  0  0
    0.5553    1.1145   -0.8181 N   0  0  0  0  0  0  0  0  0  0  0  0
    1.9324    1.3776   -1.1998 C   0  0  0  0  0  0  0  0  0  0  0  0
    2.8410    0.3153   -0.6401 C   0  0  0  0  0  0  0  0  0  0  0  0
    3.2583    0.3756    0.6975 C   0  0  0  0  0  0  0  0  0  0  0  0
    4.0761   -0.6221    1.2297 C   0  0  0  0  0  0  0  0  0  0  0  0
    4.4782   -1.6924    0.4330 C   0  0  0  0  0  0  0  0  0  0  0  0
    4.0611   -1.7681   -0.8948 C   0  0  0  0  0  0  0  0  0  0  0  0
    3.2428   -0.7714   -1.4291 C   0  0  0  0  0  0  0  0  0  0  0  0
   -5.3976   -0.0546   -0.7969 H   0  0  0  0  0  0  0  0  0  0  0  0
   -4.6925    1.5545   -0.6012 H   0  0  0  0  0  0  0  0  0  0  0  0
   -4.0641    0.4290   -1.8428 H   0  0  0  0  0  0  0  0  0  0  0  0
   -4.8971   -1.4136    1.0197 H   0  0  0  0  0  0  0  0  0  0  0  0
   -3.3322   -2.3467    2.6760 H   0  0  0  0  0  0  0  0  0  0  0  0
   -1.0126   -1.4807    2.8191 H   0  0  0  0  0  0  0  0  0  0  0  0
   -0.2673    0.3097    1.3414 H   0  0  0  0  0  0  0  0  0  0  0  0
   -2.4895    2.0340   -1.0448 H   0  0  0  0  0  0  0  0  0  0  0  0
    0.3128    0.1337   -0.7615 H   0  0  0  0  0  0  0  0  0  0  0  0
    2.2351    2.3650   -0.8333 H   0  0  0  0  0  0  0  0  0  0  0  0
    1.9893    1.4012   -2.2943 H   0  0  0  0  0  0  0  0  0  0  0  0
    2.9431    1.2024    1.3309 H   0  0  0  0  0  0  0  0  0  0  0  0
    4.3977   -0.5650    2.2663 H   0  0  0  0  0  0  0  0  0  0  0  0
    5.1150   -2.4694    0.8477 H   0  0  0  0  0  0  0  0  0  0  0  0
    4.3719   -2.6056   -1.5142 H   0  0  0  0  0  0  0  0  0  0  0  0
    2.9203   -0.8484   -2.4653 H   0  0  0  0  0  0  0  0  0  0  0  0
  1  2  1  0
  2  3  2  0
  3  4  1  0
  4  5  2  0
  5  6  1  0
  6  7  2  0
  7  8  1  0
  8  9  1  0
  9 10  2  0
  9 11  1  0
 11 12  1  0
 12 13  1  0
 13 14  2  0
 14 15  1  0
 15 16  2  0
 16 17  1  0
 17 18  2  0
  7  2  1  0
 18 13  1  0
  1 19  1  0
  1 20  1  0
  1 21  1  0
  3 22  1  0
  4 23  1  0
  5 24  1  0
  6 25  1  0
  8 26  1  0
 11 27  1  0
 12 28  1  0
 12 29  1  0
 14 30  1  0
 15 31  1  0
 16 32  1  0
 17 33  1  0
 18 34  1  0
M  END
$$$$
