
     RDKit          3D

 58 60  0  0  0  0  0  0  0  0999 V2000
    8.3817    1.3891   -1.1404 C   0  0  0  0  0  0  0  0  0  0  0  0
    7.3518    0.7606   -0.2487 C   0  0  0  0  0  0  0  0  0  0  0  0
    7.6538   -0.3949    0.4805 C   0  0  0  0  0  0  0  0  0  0  0  0
    6.7062   -0.9612    1.3367 C   0  0  0  0  0  0  0  0  0  0  0  0
    5.4437   -0.3746    1.4861 C   0  0  0  0  0  0  0  0  0  0  0  0
    4.4040   -1.0025    2.3859 C   0  0  0  0  0  0  0  0  0  0  0  0
    3.7476   -2.2362    1.7551 C   0  0  0  0  0  0  0  0  0  0  0  0
    3.0489   -1.9362    0.5170 N   0  0  0  0  0  0  0  0  0  0  0  0
    1.8039   -1.3465    0.5182 C   0  0  0  0  0  0  0  0  0  0  0  0
    1.1512   -1.1417    1.5355 O   0  0  0  0  0  0  0  0  0  0  0  0
    1.3160   -0.9939   -0.8685 C   0  0  0  0  0  0  0  0  0  0  0  0
   -0.0233   -0.2749   -0.8026 C   0  0  0  0  0  0  0  0  0  0  0  0
   -0.4786    0.0271   -2.1649 N   0  0  0  0  0  0  0  0  0  0  0  0
   -1.3411    1.4331   -2.4635 S   0  0  0  0  0  6  0  0  0  0  0  0
   -1.8130    1.3512   -3.8266 O   0  0  0  0  0  0  0  0  0  0  0  0
   -0.5520    2.5484   -1.9909 O   0  0  0  0  0  0  0  0  0  0  0  0
   -2.7485    1.2562   -1.3964 C   0  0  0  0  0  0  0  0  0  0  0  0
   -2.8719    2.0491   -0.2570 C   0  0  0  0  0  0  0  0  0  0  0  0
   -3.9903    1.9005    0.5714 C   0  0  0  0  0  0  0  0  0  0  0  0
   -4.9963    0.9662    0.2698 C   0  0  0  0  0  0  0  0  0  0  0  0
   -4.8529    0.1908   -0.8807 C   0  0  0  0  0  0  0  0  0  0  0  0
   -3.7392    0.3318   -1.7222 C   0  0  0  0  0  0  0  0  0  0  0  0
   -5.8867   -0.7999   -1.2140 C   0  0  0  0  0  0  0  0  0  0  0  0
   -5.7065   -1.5482   -2.1722 O   0  0  0  0  0  0  0  0  0  0  0  0
   -7.0055   -0.8324   -0.3981 N   0  0  0  0  0  0  0  0  0  0  0  0
   -8.0479   -1.7879   -0.7262 C   0  0  0  0  0  0  0  0  0  0  0  0
   -7.1453   -0.1225    0.7884 C   0  0  0  0  0  0  0  0  0  0  0  0
   -8.1142   -0.2976    1.5311 O   0  0  0  0  0  0  0  0  0  0  0  0
   -6.1359    0.7858    1.0978 N   0  0  0  0  0  0  0  0  0  0  0  0
   -6.2664    1.5654    2.3229 C   0  0  0  0  0  0  0  0  0  0  0  0
    5.1486    0.7915    0.7689 C   0  0  0  0  0  0  0  0  0  0  0  0
    6.0966    1.3567   -0.0869 C   0  0  0  0  0  0  0  0  0  0  0  0
    7.9078    1.8891   -1.9920 H   0  0  0  0  0  0  0  0  0  0  0  0
    9.0619    0.6322   -1.5463 H   0  0  0  0  0  0  0  0  0  0  0  0
    8.9657    2.1241   -0.5776 H   0  0  0  0  0  0  0  0  0  0  0  0
    8.6319   -0.8619    0.3869 H   0  0  0  0  0  0  0  0  0  0  0  0
    6.9644   -1.8615    1.8899 H   0  0  0  0  0  0  0  0  0  0  0  0
    4.8809   -1.2871    3.3321 H   0  0  0  0  0  0  0  0  0  0  0  0
    3.6401   -0.2582    2.6436 H   0  0  0  0  0  0  0  0  0  0  0  0
    3.0320   -2.6697    2.4629 H   0  0  0  0  0  0  0  0  0  0  0  0
    4.4950   -3.0017    1.5202 H   0  0  0  0  0  0  0  0  0  0  0  0
    3.6182   -1.8511   -0.3171 H   0  0  0  0  0  0  0  0  0  0  0  0
    2.0625   -0.3557   -1.3566 H   0  0  0  0  0  0  0  0  0  0  0  0
    1.2254   -1.9178   -1.4521 H   0  0  0  0  0  0  0  0  0  0  0  0
    0.0832    0.6427   -0.2138 H   0  0  0  0  0  0  0  0  0  0  0  0
   -0.7743   -0.9052   -0.3132 H   0  0  0  0  0  0  0  0  0  0  0  0
   -0.7047   -0.7417   -2.7948 H   0  0  0  0  0  0  0  0  0  0  0  0
   -2.1084    2.7826   -0.0028 H   0  0  0  0  0  0  0  0  0  0  0  0
   -4.0466    2.5362    1.4509 H   0  0  0  0  0  0  0  0  0  0  0  0
   -3.6524   -0.2740   -2.6228 H   0  0  0  0  0  0  0  0  0  0  0  0
   -8.0465   -2.0322   -1.7933 H   0  0  0  0  0  0  0  0  0  0  0  0
   -9.0325   -1.3887   -0.4619 H   0  0  0  0  0  0  0  0  0  0  0  0
   -7.8706   -2.7023   -0.1502 H   0  0  0  0  0  0  0  0  0  0  0  0
   -6.3030    2.6306    2.0727 H   0  0  0  0  0  0  0  0  0  0  0  0
   -5.4155    1.3560    2.9791 H   0  0  0  0  0  0  0  0  0  0  0  0
   -7.1790    1.3231    2.8745 H   0  0  0  0  0  0  0  0  0  0  0  0
    4.1777    1.2713    0.8743 H   0  0  0  0  0  0  0  0  0  0  0  0
    5.8483    2.2687   -0.6259 H   0  0  0  0  0  0  0  0  0  0  0  0
  1  2  1  0
  2  3  2  0
  3  4  1  0
  4  5  2  0
  5  6  1  0
  6  7  1  0
  7  8  1  0
  8  9  1  0
  9 10  2  0
  9 11  1  0
 11 12  1  0
 12 13  1  0
 13 14  1  0
 14 15  2  0
 14 16  2  0
 14 17  1  0
 17 18  2  0
 18 19  1  0
 19 20  2  0
 20 21  1  0
 21 22  2  0
 21 23  1  0
 23 24  2  0
 23 25  1  0
 25 26  1  0
 25 27  1  0
 27 28  2  0
 27 29  1  0
 29 30  1  0
  5 31  1  0
 31 32  2  0
 32  2  1  0
 22 17  1  0
 29 20  1  0
  1 33  1  0
  1 34  1  0
  1 35  1  0
  3 36  1  0
  4 37  1  0
  6 38  1  0
  6 39  1  0
  7 40  1  0
  7 41  1  0
  8 42  1  0
 11 43  1  0
 11 44  1  0
 12 45  1  0
 12 46  1  0
 13 47  1  0
 18 48  1  0
 19 49  1  0
 22 50  1  0
 26 51  1  0
 26 52  1  0
 26 53  1  0
 30 54  1  0
 30 55  1  0
 30 56  1  0
 31 57  1  0
 32 58  1  0
M  END
$$$$
