
     RDKit          3D

 28 29  0  0  0  0  0  0  0  0999 V2000
    4.2405   -1.3909    2.1477 C   0  0  0  0  0  0  0  0  0  0  0  0
    4.2886   -0.5920    0.8599 C   0  0  0  0  0  0  0  0  0  0  0  0
    2.9422   -0.3245    0.4507 O   0  0  0  0  0  0  0  0  0  0  0  0
    2.8467    0.3940   -0.7051 C   0  0  0  0  0  0  0  0  0  0  0  0
    3.7970    0.7933   -1.3637 O   0  0  0  0  0  0  0  0  0  0  0  0
    1.4557    0.6056   -1.0235 C   0  0  0  0  0  0  0  0  0  0  0  0
    0.9075    1.2802   -2.1014 C   0  0  0  0  0  0  0  0  0  0  0  0
   -0.5038    1.2224   -1.9855 C   0  0  0  0  0  0  0  0  0  0  0  0
   -0.7976    0.5136   -0.8389 C   0  0  0  0  0  0  0  0  0  0  0  0
   -2.0510    0.1615   -0.2516 C   0  0  0  0  0  0  0  0  0  0  0  0
   -3.3309    0.4407   -0.6807 C   0  0  0  0  0  0  0  0  0  0  0  0
   -4.1806   -0.1479    0.2812 C   0  0  0  0  0  0  0  0  0  0  0  0
   -5.6592   -0.1585    0.3222 C   0  0  0  0  0  0  0  0  0  0  0  0
   -3.4755   -0.7519    1.2428 N   0  0  0  0  0  0  0  0  0  0  0  0
   -2.1487   -0.5584    0.9096 O   0  0  0  0  0  0  0  0  0  0  0  0
    0.3969    0.1480   -0.2693 N   0  0  0  0  0  0  0  0  0  0  0  0
    3.7100   -0.8341    2.9272 H   0  0  0  0  0  0  0  0  0  0  0  0
    5.2492   -1.6210    2.5021 H   0  0  0  0  0  0  0  0  0  0  0  0
    3.6950   -2.3288    1.9993 H   0  0  0  0  0  0  0  0  0  0  0  0
    4.8032   -1.1710    0.0849 H   0  0  0  0  0  0  0  0  0  0  0  0
    4.8185    0.3519    1.0302 H   0  0  0  0  0  0  0  0  0  0  0  0
    1.4755    1.7629   -2.8882 H   0  0  0  0  0  0  0  0  0  0  0  0
   -1.2206    1.6553   -2.6713 H   0  0  0  0  0  0  0  0  0  0  0  0
   -3.6117    0.9924   -1.5649 H   0  0  0  0  0  0  0  0  0  0  0  0
   -6.0816    0.3772   -0.5340 H   0  0  0  0  0  0  0  0  0  0  0  0
   -6.0377   -1.1854    0.2983 H   0  0  0  0  0  0  0  0  0  0  0  0
   -6.0226    0.3239    1.2353 H   0  0  0  0  0  0  0  0  0  0  0  0
    0.4952   -0.3843    0.5866 H   0  0  0  0  0  0  0  0  0  0  0  0
  1  2  1  0
  2  3  1  0
  3  4  1  0
  4  5  2  0
  4  6  1  0
  6  7  2  0
  7  8  1  0
  8  9  2  0
  9 10  1  0
 10 11  2  0
 11 12  1  0
 12 13  1  0
 12 14  2  0
 14 15  1  0
  9 16  1  0
 16  6  1  0
 15 10  1  0
  1 17  1  0
  1 18  1  0
  1 19  1  0
  2 20  1  0
  2 21  1  0
  7 22  1  0
  8 23  1  0
 11 24  1  0
 13 25  1  0
 13 26  1  0
 13 27  1  0
 16 28  1  0
M  END
$$$$
