
     RDKit          3D

 31 32  0  0  0  0  0  0  0  0999 V2000
    2.4653   -1.1969    1.7915 C   0  0  0  0  0  0  0  0  0  0  0  0
    2.1503   -1.7096    0.3939 C   0  0  0  0  0  0  0  0  0  0  0  0
    2.5510   -0.7542   -0.6357 N   0  0  0  0  0  0  0  0  0  0  0  0
    1.9235    0.3954   -1.0178 C   0  0  0  0  0  0  0  0  0  0  0  0
    0.5971    0.7854   -0.5891 C   0  0  0  0  0  0  0  0  0  0  0  0
    0.2971    2.0836   -0.2192 C   0  0  0  0  0  0  0  0  0  0  0  0
   -1.3282    2.2856    0.2573 S   0  0  0  0  0  0  0  0  0  0  0  0
   -1.7001    0.6477   -0.0785 C   0  0  0  0  0  0  0  0  0  0  0  0
   -3.0943    0.0897    0.1078 C   0  0  0  0  0  0  0  0  0  0  0  0
   -3.5435    0.1427    1.5687 C   0  0  0  0  0  0  0  0  0  0  0  0
   -4.1132    0.7678   -0.8093 C   0  0  0  0  0  0  0  0  0  0  0  0
   -0.5825   -0.0291   -0.5326 C   0  0  0  0  0  0  0  0  0  0  0  0
    2.6206    1.1649   -1.8063 N   0  0  0  0  0  0  0  0  0  0  0  0
    3.7908    0.4877   -1.9806 N   0  0  0  0  0  0  0  0  0  0  0  0
    3.7839   -0.6856   -1.2429 C   0  0  0  0  0  0  0  0  0  0  0  0
    5.0752   -1.7215   -1.1657 S   0  0  0  0  0  0  0  0  0  0  0  0
    2.1668   -1.9350    2.5424 H   0  0  0  0  0  0  0  0  0  0  0  0
    3.5362   -1.0027    1.9097 H   0  0  0  0  0  0  0  0  0  0  0  0
    1.9330   -0.2637    2.0010 H   0  0  0  0  0  0  0  0  0  0  0  0
    1.0816   -1.9118    0.3138 H   0  0  0  0  0  0  0  0  0  0  0  0
    2.6687   -2.6593    0.2298 H   0  0  0  0  0  0  0  0  0  0  0  0
    0.9717    2.9298   -0.1935 H   0  0  0  0  0  0  0  0  0  0  0  0
   -3.0637   -0.9709   -0.1783 H   0  0  0  0  0  0  0  0  0  0  0  0
   -4.5049   -0.3673    1.6939 H   0  0  0  0  0  0  0  0  0  0  0  0
   -2.8150   -0.3506    2.2218 H   0  0  0  0  0  0  0  0  0  0  0  0
   -3.6665    1.1722    1.9223 H   0  0  0  0  0  0  0  0  0  0  0  0
   -3.7914    0.7222   -1.8557 H   0  0  0  0  0  0  0  0  0  0  0  0
   -5.0866    0.2707   -0.7362 H   0  0  0  0  0  0  0  0  0  0  0  0
   -4.2598    1.8220   -0.5500 H   0  0  0  0  0  0  0  0  0  0  0  0
   -0.6203   -1.0691   -0.8336 H   0  0  0  0  0  0  0  0  0  0  0  0
    4.5569    0.8599   -2.5290 H   0  0  0  0  0  0  0  0  0  0  0  0
  1  2  1  0
  2  3  1  0
  3  4  1  0
  4  5  1  0
  5  6  2  0
  6  7  1  0
  7  8  1  0
  8  9  1  0
  9 10  1  0
  9 11  1  0
  8 12  2  0
  4 13  2  0
 13 14  1  0
 14 15  1  0
 15 16  2  0
 15  3  1  0
 12  5  1  0
  1 17  1  0
  1 18  1  0
  1 19  1  0
  2 20  1  0
  2 21  1  0
  6 22  1  0
  9 23  1  0
 10 24  1  0
 10 25  1  0
 10 26  1  0
 11 27  1  0
 11 28  1  0
 11 29  1  0
 12 30  1  0
 14 31  1  0
M  END
$$$$
