
     RDKit          3D

 56 60  0  0  0  0  0  0  0  0999 V2000
   -5.7934   -2.0102   -1.4528 C   0  0  0  0  0  0  0  0  0  0  0  0
   -5.4769   -0.6076   -1.3598 N   0  0  0  0  0  0  0  0  0  0  0  0
   -4.2341   -0.0374   -1.3441 C   0  0  0  0  0  0  0  0  0  0  0  0
   -2.7586   -0.9168   -1.5267 S   0  0  0  0  0  0  0  0  0  0  0  0
   -1.6108    0.4460   -1.8835 C   0  0  0  0  0  0  0  0  0  0  0  0
   -0.1850   -0.0405   -1.6803 C   0  0  0  0  0  0  0  0  0  0  0  0
    0.4953   -0.4273   -2.6253 O   0  0  0  0  0  0  0  0  0  0  0  0
    0.2088    0.0095   -0.3500 N   0  0  0  0  0  0  0  0  0  0  0  0
    1.4667   -0.3230    0.1927 C   0  0  0  0  0  0  0  0  0  0  0  0
    2.5647   -0.7094   -0.5729 C   0  0  0  0  0  0  0  0  0  0  0  0
    3.7954   -1.0139    0.0285 C   0  0  0  0  0  0  0  0  0  0  0  0
    3.9341   -0.9272    1.4257 C   0  0  0  0  0  0  0  0  0  0  0  0
    5.0915   -1.1777    2.1474 N   0  0  0  0  0  0  0  0  0  0  0  0
    4.8598   -0.9835    3.4267 C   0  0  0  0  0  0  0  0  0  0  0  0
    6.1107   -1.1789    4.6351 S   0  0  0  0  0  0  0  0  0  0  0  0
    7.6063   -1.1577    3.6148 C   0  0  0  0  0  0  0  0  0  0  0  0
    7.8317    0.2150    3.0077 C   0  0  0  0  0  0  0  0  0  0  0  0
    8.3318    1.1438    3.6393 O   0  0  0  0  0  0  0  0  0  0  0  0
    7.4273    0.3118    1.6869 N   0  0  0  0  0  0  0  0  0  0  0  0
    7.4659    1.5499    0.9763 C   0  0  0  0  0  0  0  0  0  0  0  0
    7.6409    1.5542   -0.5183 C   0  0  0  0  0  0  0  0  0  0  0  0
    8.7457    2.0475    0.3682 C   0  0  0  0  0  0  0  0  0  0  0  0
    3.2665   -0.5236    3.8445 S   0  0  0  0  0  0  0  0  0  0  0  0
    2.8268   -0.5433    2.1811 C   0  0  0  0  0  0  0  0  0  0  0  0
    1.5889   -0.2376    1.5883 C   0  0  0  0  0  0  0  0  0  0  0  0
   -4.3375    1.2521   -1.1419 N   0  0  0  0  0  0  0  0  0  0  0  0
   -5.6732    1.5480   -1.0403 N   0  0  0  0  0  0  0  0  0  0  0  0
   -6.3673    0.4362   -1.2124 C   0  0  0  0  0  0  0  0  0  0  0  0
   -7.8251    0.3421   -1.1983 C   0  0  0  0  0  0  0  0  0  0  0  0
   -8.5300   -0.3297   -2.2063 C   0  0  0  0  0  0  0  0  0  0  0  0
   -9.9253   -0.4025   -2.1667 C   0  0  0  0  0  0  0  0  0  0  0  0
  -10.6277    0.2032   -1.1261 C   0  0  0  0  0  0  0  0  0  0  0  0
   -9.9386    0.8913   -0.1296 C   0  0  0  0  0  0  0  0  0  0  0  0
   -8.5442    0.9653   -0.1694 C   0  0  0  0  0  0  0  0  0  0  0  0
   -5.8494   -2.2808   -2.5105 H   0  0  0  0  0  0  0  0  0  0  0  0
   -6.7462   -2.2103   -0.9564 H   0  0  0  0  0  0  0  0  0  0  0  0
   -5.0237   -2.5999   -0.9491 H   0  0  0  0  0  0  0  0  0  0  0  0
   -1.7316    0.7795   -2.9194 H   0  0  0  0  0  0  0  0  0  0  0  0
   -1.7873    1.3051   -1.2277 H   0  0  0  0  0  0  0  0  0  0  0  0
   -0.5085    0.2722    0.3167 H   0  0  0  0  0  0  0  0  0  0  0  0
    2.5074   -0.7801   -1.6554 H   0  0  0  0  0  0  0  0  0  0  0  0
    4.6418   -1.3117   -0.5838 H   0  0  0  0  0  0  0  0  0  0  0  0
    8.4698   -1.3898    4.2460 H   0  0  0  0  0  0  0  0  0  0  0  0
    7.5646   -1.9310    2.8405 H   0  0  0  0  0  0  0  0  0  0  0  0
    6.7264   -0.3685    1.3928 H   0  0  0  0  0  0  0  0  0  0  0  0
    6.7985    2.3003    1.3955 H   0  0  0  0  0  0  0  0  0  0  0  0
    7.0833    2.2869   -1.0898 H   0  0  0  0  0  0  0  0  0  0  0  0
    7.7902    0.6100   -1.0294 H   0  0  0  0  0  0  0  0  0  0  0  0
    8.9348    3.1132    0.4108 H   0  0  0  0  0  0  0  0  0  0  0  0
    9.6318    1.4348    0.4745 H   0  0  0  0  0  0  0  0  0  0  0  0
    0.7528    0.0633    2.2135 H   0  0  0  0  0  0  0  0  0  0  0  0
   -8.0054   -0.7833   -3.0438 H   0  0  0  0  0  0  0  0  0  0  0  0
  -10.4659   -0.9230   -2.9536 H   0  0  0  0  0  0  0  0  0  0  0  0
  -11.7130    0.1497   -1.0987 H   0  0  0  0  0  0  0  0  0  0  0  0
  -10.4844    1.3782    0.6750 H   0  0  0  0  0  0  0  0  0  0  0  0
   -8.0167    1.5168    0.6070 H   0  0  0  0  0  0  0  0  0  0  0  0
  1  2  1  0
  2  3  1  0
  3  4  1  0
  4  5  1  0
  5  6  1  0
  6  7  2  0
  6  8  1  0
  8  9  1  0
  9 10  2  0
 10 11  1  0
 11 12  2  0
 12 13  1  0
 13 14  2  0
 14 15  1  0
 15 16  1  0
 16 17  1  0
 17 18  2  0
 17 19  1  0
 19 20  1  0
 20 21  1  0
 21 22  1  0
 14 23  1  0
 23 24  1  0
 24 25  2  0
  3 26  2  0
 26 27  1  0
 27 28  2  0
 28 29  1  0
 29 30  2  0
 30 31  1  0
 31 32  2  0
 32 33  1  0
 33 34  2  0
 28  2  1  0
 34 29  1  0
 25  9  1  0
 24 12  1  0
 22 20  1  0
  1 35  1  0
  1 36  1  0
  1 37  1  0
  5 38  1  0
  5 39  1  0
  8 40  1  0
 10 41  1  0
 11 42  1  0
 16 43  1  0
 16 44  1  0
 19 45  1  0
 20 46  1  0
 21 47  1  0
 21 48  1  0
 22 49  1  0
 22 50  1  0
 25 51  1  0
 30 52  1  0
 31 53  1  0
 32 54  1  0
 33 55  1  0
 34 56  1  0
M  END
$$$$
