
     RDKit          3D

 29 29  0  0  0  0  0  0  0  0999 V2000
   -2.2052   -4.0054   -0.5053 C   0  0  0  0  0  0  0  0  0  0  0  0
   -2.4906   -3.0573    0.1750 C   0  0  0  0  0  0  0  0  0  0  0  0
   -2.8421   -1.9012    1.0109 C   0  0  0  0  0  0  0  0  0  0  0  0
   -3.4313   -0.8144    0.2293 N   0  0  0  0  0  0  0  0  0  0  0  0
   -2.5116   -0.1573   -0.7010 C   0  0  0  0  0  0  0  0  0  0  0  0
   -1.4121    0.6462   -0.0067 C   0  0  0  0  0  0  0  0  0  0  0  0
   -0.5617    1.4004   -1.0275 C   0  0  0  0  0  0  0  0  0  0  0  0
    0.4618    2.1492   -0.3725 O   0  0  0  0  0  0  0  0  0  0  0  0
    1.6980    1.5890   -0.1934 C   0  0  0  0  0  0  0  0  0  0  0  0
    1.9943    0.2349   -0.3806 C   0  0  0  0  0  0  0  0  0  0  0  0
    3.2905   -0.2440   -0.1588 C   0  0  0  0  0  0  0  0  0  0  0  0
    4.2952    0.6267    0.2554 C   0  0  0  0  0  0  0  0  0  0  0  0
    5.8850    0.0283    0.5254 Cl  0  0  0  0  0  0  0  0  0  0  0  0
    4.0196    1.9745    0.4551 C   0  0  0  0  0  0  0  0  0  0  0  0
    2.7249    2.4507    0.2337 C   0  0  0  0  0  0  0  0  0  0  0  0
    2.4326    4.1364    0.4965 Cl  0  0  0  0  0  0  0  0  0  0  0  0
   -1.9555   -4.8489   -1.1069 H   0  0  0  0  0  0  0  0  0  0  0  0
   -3.5856   -2.2177    1.7518 H   0  0  0  0  0  0  0  0  0  0  0  0
   -1.9779   -1.5587    1.5882 H   0  0  0  0  0  0  0  0  0  0  0  0
   -4.2187   -1.1963   -0.2951 H   0  0  0  0  0  0  0  0  0  0  0  0
   -2.0751   -0.8793   -1.4009 H   0  0  0  0  0  0  0  0  0  0  0  0
   -3.1087    0.5322   -1.3104 H   0  0  0  0  0  0  0  0  0  0  0  0
   -0.7687   -0.0057    0.5928 H   0  0  0  0  0  0  0  0  0  0  0  0
   -1.8495    1.3655    0.6974 H   0  0  0  0  0  0  0  0  0  0  0  0
   -1.1948    2.1330   -1.5422 H   0  0  0  0  0  0  0  0  0  0  0  0
   -0.1621    0.7492   -1.8135 H   0  0  0  0  0  0  0  0  0  0  0  0
    1.2395   -0.4822   -0.6859 H   0  0  0  0  0  0  0  0  0  0  0  0
    3.5060   -1.2996   -0.3075 H   0  0  0  0  0  0  0  0  0  0  0  0
    4.8038    2.6517    0.7815 H   0  0  0  0  0  0  0  0  0  0  0  0
  1  2  3  0
  2  3  1  0
  3  4  1  0
  4  5  1  0
  5  6  1  0
  6  7  1  0
  7  8  1  0
  8  9  1  0
  9 10  2  0
 10 11  1  0
 11 12  2  0
 12 13  1  0
 12 14  1  0
 14 15  2  0
 15 16  1  0
 15  9  1  0
  1 17  1  0
  3 18  1  0
  3 19  1  0
  4 20  1  0
  5 21  1  0
  5 22  1  0
  6 23  1  0
  6 24  1  0
  7 25  1  0
  7 26  1  0
 10 27  1  0
 11 28  1  0
 14 29  1  0
M  END
$$$$
