
     RDKit          3D

 39 40  0  0  0  0  0  0  0  0999 V2000
   -1.5594   -0.1714   -2.4322 C   0  0  0  0  0  0  0  0  0  0  0  0
   -2.4077    0.0577   -1.1974 C   0  0  0  0  0  0  0  0  0  0  0  0
   -1.8773    0.2934    0.0182 C   0  0  0  0  0  0  0  0  0  0  0  0
   -0.4085    0.4037    0.1939 C   0  0  0  0  0  0  0  0  0  0  0  0
    0.2290   -0.1958    1.1484 N   0  0  0  0  0  0  0  0  0  0  0  0
    1.5937   -0.0659    1.1899 N   0  0  0  0  0  0  0  0  0  0  0  0
    2.4187   -0.0984    0.0716 C   0  0  0  0  0  0  0  0  0  0  0  0
    2.0381   -0.1712   -1.0966 O   0  0  0  0  0  0  0  0  0  0  0  0
    3.8857   -0.1000    0.3357 C   0  0  0  0  0  0  0  0  0  0  0  0
    4.4157    0.4301    1.5216 C   0  0  0  0  0  0  0  0  0  0  0  0
    5.7953    0.4003    1.7382 C   0  0  0  0  0  0  0  0  0  0  0  0
    6.5037    1.1119    3.3409 Br  0  0  0  0  0  0  0  0  0  0  0  0
    6.6570   -0.1428    0.7869 C   0  0  0  0  0  0  0  0  0  0  0  0
    6.1378   -0.6505   -0.4031 C   0  0  0  0  0  0  0  0  0  0  0  0
    4.7629   -0.6192   -0.6307 C   0  0  0  0  0  0  0  0  0  0  0  0
    4.3424   -1.1194   -1.8344 O   0  0  0  0  0  0  0  0  0  0  0  0
   -2.7747    0.4978    1.1778 C   0  0  0  0  0  0  0  0  0  0  0  0
   -2.3432    0.9697    2.2288 O   0  0  0  0  0  0  0  0  0  0  0  0
   -4.1034    0.1777    0.9838 N   0  0  0  0  0  0  0  0  0  0  0  0
   -4.9935    0.2818    2.1240 C   0  0  0  0  0  0  0  0  0  0  0  0
   -4.6819    0.0301   -0.2674 C   0  0  0  0  0  0  0  0  0  0  0  0
   -5.9037   -0.0446   -0.4114 O   0  0  0  0  0  0  0  0  0  0  0  0
   -3.7971   -0.0123   -1.3500 N   0  0  0  0  0  0  0  0  0  0  0  0
   -4.3880   -0.1952   -2.6757 C   0  0  0  0  0  0  0  0  0  0  0  0
   -0.4971   -0.3063   -2.2155 H   0  0  0  0  0  0  0  0  0  0  0  0
   -1.6484    0.6765   -3.1189 H   0  0  0  0  0  0  0  0  0  0  0  0
   -1.8676   -1.0843   -2.9527 H   0  0  0  0  0  0  0  0  0  0  0  0
    0.0984    1.0444   -0.5482 H   0  0  0  0  0  0  0  0  0  0  0  0
    1.9818   -0.3670    2.0797 H   0  0  0  0  0  0  0  0  0  0  0  0
    3.7742    0.8889    2.2687 H   0  0  0  0  0  0  0  0  0  0  0  0
    7.7308   -0.1667    0.9555 H   0  0  0  0  0  0  0  0  0  0  0  0
    6.8024   -1.0646   -1.1575 H   0  0  0  0  0  0  0  0  0  0  0  0
    3.3875   -0.9070   -1.9359 H   0  0  0  0  0  0  0  0  0  0  0  0
   -5.3747    1.3068    2.1745 H   0  0  0  0  0  0  0  0  0  0  0  0
   -5.8383   -0.4057    2.0180 H   0  0  0  0  0  0  0  0  0  0  0  0
   -4.4675    0.0505    3.0552 H   0  0  0  0  0  0  0  0  0  0  0  0
   -3.9696    0.5357   -3.3740 H   0  0  0  0  0  0  0  0  0  0  0  0
   -5.4726   -0.0553   -2.6690 H   0  0  0  0  0  0  0  0  0  0  0  0
   -4.1809   -1.2130   -3.0204 H   0  0  0  0  0  0  0  0  0  0  0  0
  1  2  1  0
  2  3  2  0
  3  4  1  0
  4  5  2  3
  5  6  1  0
  6  7  1  0
  7  8  2  0
  7  9  1  0
  9 10  2  0
 10 11  1  0
 11 12  1  0
 11 13  2  0
 13 14  1  0
 14 15  2  0
 15 16  1  0
  3 17  1  0
 17 18  2  0
 17 19  1  0
 19 20  1  0
 19 21  1  0
 21 22  2  0
 21 23  1  0
 23 24  1  0
 23  2  1  0
 15  9  1  0
  1 25  1  0
  1 26  1  0
  1 27  1  0
  4 28  1  0
  6 29  1  0
 10 30  1  0
 13 31  1  0
 14 32  1  0
 16 33  1  0
 20 34  1  0
 20 35  1  0
 20 36  1  0
 24 37  1  0
 24 38  1  0
 24 39  1  0
M  END
$$$$
