
     RDKit          3D

 53 56  0  0  0  0  0  0  0  0999 V2000
    9.6263   -1.9827    0.0069 C   0  0  0  0  0  0  0  0  0  0  0  0
    9.0660   -1.5125   -1.3239 C   0  0  0  0  0  0  0  0  0  0  0  0
    7.7620   -2.0485   -1.5407 O   0  0  0  0  0  0  0  0  0  0  0  0
    6.6751   -1.3354   -1.1212 C   0  0  0  0  0  0  0  0  0  0  0  0
    6.6942   -0.1882   -0.3263 C   0  0  0  0  0  0  0  0  0  0  0  0
    5.4962    0.4399    0.0363 C   0  0  0  0  0  0  0  0  0  0  0  0
    4.2750   -0.0829   -0.3959 C   0  0  0  0  0  0  0  0  0  0  0  0
    3.0259    0.5977   -0.0014 C   0  0  0  0  0  0  0  0  0  0  0  0
    1.8657    0.1672   -0.3816 N   0  0  0  0  0  0  0  0  0  0  0  0
    0.7999    0.8938    0.0586 N   0  0  0  0  0  0  0  0  0  0  0  0
   -0.4958    0.5336   -0.2827 C   0  0  0  0  0  0  0  0  0  0  0  0
   -0.8050   -0.4243   -0.9841 O   0  0  0  0  0  0  0  0  0  0  0  0
   -1.4887    1.4462    0.2801 C   0  0  0  0  0  0  0  0  0  0  0  0
   -1.1287    2.5661    0.9829 N   0  0  0  0  0  0  0  0  0  0  0  0
   -2.2290    3.1878    1.3648 N   0  0  0  0  0  0  0  0  0  0  0  0
   -3.3184    2.4987    0.9071 N   0  0  0  0  0  0  0  0  0  0  0  0
   -4.6353    2.9792    1.1262 C   0  0  0  0  0  0  0  0  0  0  0  0
   -5.6923    2.3839    0.5732 N   0  0  0  0  0  0  0  0  0  0  0  0
   -6.7766    3.1483    0.9993 O   0  0  0  0  0  0  0  0  0  0  0  0
   -6.3621    4.2157    1.7887 N   0  0  0  0  0  0  0  0  0  0  0  0
   -5.0371    4.1045    1.8717 C   0  0  0  0  0  0  0  0  0  0  0  0
   -4.2476    4.9479    2.5636 N   0  0  0  0  0  0  0  0  0  0  0  0
   -2.8718    1.3684    0.2274 C   0  0  0  0  0  0  0  0  0  0  0  0
   -3.7589    0.3307   -0.3555 C   0  0  0  0  0  0  0  0  0  0  0  0
   -4.3265   -0.3547    0.7574 O   0  0  0  0  0  0  0  0  0  0  0  0
   -5.2501   -1.3261    0.4866 C   0  0  0  0  0  0  0  0  0  0  0  0
   -5.5933   -1.8042   -0.7809 C   0  0  0  0  0  0  0  0  0  0  0  0
   -6.5574   -2.8085   -0.9115 C   0  0  0  0  0  0  0  0  0  0  0  0
   -7.1700   -3.3298    0.2221 C   0  0  0  0  0  0  0  0  0  0  0  0
   -8.0923   -4.2919    0.0911 F   0  0  0  0  0  0  0  0  0  0  0  0
   -6.8366   -2.8674    1.4878 C   0  0  0  0  0  0  0  0  0  0  0  0
   -5.8741   -1.8652    1.6178 C   0  0  0  0  0  0  0  0  0  0  0  0
    4.2472   -1.2330   -1.1853 C   0  0  0  0  0  0  0  0  0  0  0  0
    5.4463   -1.8546   -1.5414 C   0  0  0  0  0  0  0  0  0  0  0  0
    9.6245   -3.0764    0.0582 H   0  0  0  0  0  0  0  0  0  0  0  0
    9.0207   -1.6261    0.8454 H   0  0  0  0  0  0  0  0  0  0  0  0
   10.6518   -1.6268    0.1418 H   0  0  0  0  0  0  0  0  0  0  0  0
    9.0965   -0.4225   -1.4293 H   0  0  0  0  0  0  0  0  0  0  0  0
    9.7005   -1.9087   -2.1250 H   0  0  0  0  0  0  0  0  0  0  0  0
    7.6221    0.2393    0.0381 H   0  0  0  0  0  0  0  0  0  0  0  0
    5.5332    1.3316    0.6563 H   0  0  0  0  0  0  0  0  0  0  0  0
    3.1314    1.4950    0.6352 H   0  0  0  0  0  0  0  0  0  0  0  0
    0.9423    1.7121    0.6434 H   0  0  0  0  0  0  0  0  0  0  0  0
   -3.2371    4.9488    2.4365 H   0  0  0  0  0  0  0  0  0  0  0  0
   -4.6339    5.8279    2.8893 H   0  0  0  0  0  0  0  0  0  0  0  0
   -3.1903   -0.3738   -0.9682 H   0  0  0  0  0  0  0  0  0  0  0  0
   -4.5274    0.7854   -0.9901 H   0  0  0  0  0  0  0  0  0  0  0  0
   -5.1279   -1.4265   -1.6854 H   0  0  0  0  0  0  0  0  0  0  0  0
   -6.8308   -3.1891   -1.8906 H   0  0  0  0  0  0  0  0  0  0  0  0
   -7.3234   -3.2866    2.3620 H   0  0  0  0  0  0  0  0  0  0  0  0
   -5.6085   -1.4992    2.6066 H   0  0  0  0  0  0  0  0  0  0  0  0
    3.3023   -1.6516   -1.5254 H   0  0  0  0  0  0  0  0  0  0  0  0
    5.4221   -2.7522   -2.1554 H   0  0  0  0  0  0  0  0  0  0  0  0
  1  2  1  0
  2  3  1  0
  3  4  1  0
  4  5  2  0
  5  6  1  0
  6  7  2  0
  7  8  1  0
  8  9  2  3
  9 10  1  0
 10 11  1  0
 11 12  2  0
 11 13  1  0
 13 14  1  0
 14 15  2  0
 15 16  1  0
 16 17  1  0
 17 18  2  0
 18 19  1  0
 19 20  1  0
 20 21  2  0
 21 22  1  0
 16 23  1  0
 23 24  1  0
 24 25  1  0
 25 26  1  0
 26 27  2  0
 27 28  1  0
 28 29  2  0
 29 30  1  0
 29 31  1  0
 31 32  2  0
  7 33  1  0
 33 34  2  0
 34  4  1  0
 23 13  2  0
 32 26  1  0
 21 17  1  0
  1 35  1  0
  1 36  1  0
  1 37  1  0
  2 38  1  0
  2 39  1  0
  5 40  1  0
  6 41  1  0
  8 42  1  0
 10 43  1  0
 22 44  1  0
 22 45  1  0
 24 46  1  0
 24 47  1  0
 27 48  1  0
 28 49  1  0
 31 50  1  0
 32 51  1  0
 33 52  1  0
 34 53  1  0
M  END
$$$$
