
     RDKit          3D

 58 61  0  0  0  0  0  0  0  0999 V2000
   -3.2886    6.4615    1.3240 C   0  0  0  0  0  0  0  0  0  0  0  0
   -2.4994    5.2965    1.1200 O   0  0  0  0  0  0  0  0  0  0  0  0
   -3.1691    4.1248    0.8946 C   0  0  0  0  0  0  0  0  0  0  0  0
   -4.5472    3.9714    0.8289 C   0  0  0  0  0  0  0  0  0  0  0  0
   -5.1144    2.7140    0.5918 C   0  0  0  0  0  0  0  0  0  0  0  0
   -4.2716    1.5995    0.4169 C   0  0  0  0  0  0  0  0  0  0  0  0
   -4.7552   -0.0213    0.1168 S   0  0  0  0  0  0  0  0  0  0  0  0
   -3.1417   -0.5835    0.0623 C   0  0  0  0  0  0  0  0  0  0  0  0
   -2.9102   -2.0086   -0.2094 C   0  0  0  0  0  0  0  0  0  0  0  0
   -2.6302   -2.4035   -1.5280 C   0  0  0  0  0  0  0  0  0  0  0  0
   -2.3960   -3.7431   -1.8320 C   0  0  0  0  0  0  0  0  0  0  0  0
   -2.4365   -4.6981   -0.8207 C   0  0  0  0  0  0  0  0  0  0  0  0
   -2.7088   -4.3184    0.4971 C   0  0  0  0  0  0  0  0  0  0  0  0
   -2.9468   -2.9761    0.8162 C   0  0  0  0  0  0  0  0  0  0  0  0
   -3.2047   -2.5148    2.0830 O   0  0  0  0  0  0  0  0  0  0  0  0
   -3.3205   -3.4761    3.1223 C   0  0  0  0  0  0  0  0  0  0  0  0
   -2.2337    0.4429    0.2639 C   0  0  0  0  0  0  0  0  0  0  0  0
   -0.7944    0.2078    0.2417 C   0  0  0  0  0  0  0  0  0  0  0  0
   -0.0217    0.6971   -0.8167 C   0  0  0  0  0  0  0  0  0  0  0  0
    1.3613    0.4832   -0.8417 C   0  0  0  0  0  0  0  0  0  0  0  0
    1.9809   -0.2196    0.1925 C   0  0  0  0  0  0  0  0  0  0  0  0
    3.3166   -0.4970    0.2899 O   0  0  0  0  0  0  0  0  0  0  0  0
    4.1558   -0.0381   -0.7754 C   0  0  0  0  0  0  0  0  0  0  0  0
    5.6016   -0.4494   -0.4513 C   0  0  0  0  0  0  0  0  0  0  0  0
    6.6021    0.0384   -1.4209 N   0  0  0  0  0  0  0  0  0  0  0  0
    6.4725   -0.6282   -2.7184 C   0  0  0  0  0  0  0  0  0  0  0  0
    7.9520   -0.1749   -0.8906 C   0  0  0  0  0  0  0  0  0  0  0  0
    1.2069   -0.7030    1.2509 C   0  0  0  0  0  0  0  0  0  0  0  0
   -0.1734   -0.4906    1.2802 C   0  0  0  0  0  0  0  0  0  0  0  0
   -2.8824    1.7185    0.4732 C   0  0  0  0  0  0  0  0  0  0  0  0
   -2.3426    3.0083    0.7199 C   0  0  0  0  0  0  0  0  0  0  0  0
   -3.8845    6.6947    0.4354 H   0  0  0  0  0  0  0  0  0  0  0  0
   -3.9228    6.3589    2.2107 H   0  0  0  0  0  0  0  0  0  0  0  0
   -2.6076    7.3004    1.4972 H   0  0  0  0  0  0  0  0  0  0  0  0
   -5.2224    4.8108    0.9590 H   0  0  0  0  0  0  0  0  0  0  0  0
   -6.1939    2.6004    0.5441 H   0  0  0  0  0  0  0  0  0  0  0  0
   -2.5936   -1.6617   -2.3227 H   0  0  0  0  0  0  0  0  0  0  0  0
   -2.1806   -4.0389   -2.8553 H   0  0  0  0  0  0  0  0  0  0  0  0
   -2.2517   -5.7435   -1.0554 H   0  0  0  0  0  0  0  0  0  0  0  0
   -2.7219   -5.0966    1.2526 H   0  0  0  0  0  0  0  0  0  0  0  0
   -2.3712   -3.9970    3.2836 H   0  0  0  0  0  0  0  0  0  0  0  0
   -4.1325   -4.1826    2.9207 H   0  0  0  0  0  0  0  0  0  0  0  0
   -3.5668   -2.9422    4.0453 H   0  0  0  0  0  0  0  0  0  0  0  0
   -0.4911    1.2468   -1.6294 H   0  0  0  0  0  0  0  0  0  0  0  0
    1.9215    0.8808   -1.6811 H   0  0  0  0  0  0  0  0  0  0  0  0
    3.8333   -0.5007   -1.7146 H   0  0  0  0  0  0  0  0  0  0  0  0
    4.0996    1.0546   -0.8521 H   0  0  0  0  0  0  0  0  0  0  0  0
    5.6568   -1.5409   -0.3396 H   0  0  0  0  0  0  0  0  0  0  0  0
    5.8318   -0.0416    0.5427 H   0  0  0  0  0  0  0  0  0  0  0  0
    7.2418   -0.2701   -3.4122 H   0  0  0  0  0  0  0  0  0  0  0  0
    6.5667   -1.7169   -2.6357 H   0  0  0  0  0  0  0  0  0  0  0  0
    5.5120   -0.3963   -3.1886 H   0  0  0  0  0  0  0  0  0  0  0  0
    8.7047    0.2189   -1.5828 H   0  0  0  0  0  0  0  0  0  0  0  0
    8.1646   -1.2358   -0.7153 H   0  0  0  0  0  0  0  0  0  0  0  0
    8.0856    0.3654    0.0533 H   0  0  0  0  0  0  0  0  0  0  0  0
    1.6822   -1.2493    2.0615 H   0  0  0  0  0  0  0  0  0  0  0  0
   -0.7572   -0.8722    2.1145 H   0  0  0  0  0  0  0  0  0  0  0  0
   -1.2637    3.1346    0.7794 H   0  0  0  0  0  0  0  0  0  0  0  0
  1  2  1  0
  2  3  1  0
  3  4  2  0
  4  5  1  0
  5  6  2  0
  6  7  1  0
  7  8  1  0
  8  9  1  0
  9 10  2  0
 10 11  1  0
 11 12  2  0
 12 13  1  0
 13 14  2  0
 14 15  1  0
 15 16  1  0
  8 17  2  0
 17 18  1  0
 18 19  2  0
 19 20  1  0
 20 21  2  0
 21 22  1  0
 22 23  1  0
 23 24  1  0
 24 25  1  0
 25 26  1  0
 25 27  1  0
 21 28  1  0
 28 29  2  0
 17 30  1  0
 30 31  2  0
 31  3  1  0
 30  6  1  0
 14  9  1  0
 29 18  1  0
  1 32  1  0
  1 33  1  0
  1 34  1  0
  4 35  1  0
  5 36  1  0
 10 37  1  0
 11 38  1  0
 12 39  1  0
 13 40  1  0
 16 41  1  0
 16 42  1  0
 16 43  1  0
 19 44  1  0
 20 45  1  0
 23 46  1  0
 23 47  1  0
 24 48  1  0
 24 49  1  0
 26 50  1  0
 26 51  1  0
 26 52  1  0
 27 53  1  0
 27 54  1  0
 27 55  1  0
 28 56  1  0
 29 57  1  0
 31 58  1  0
M  END
$$$$
