
     RDKit          3D

 46 49  0  0  0  0  0  0  0  0999 V2000
    1.9021    1.4885    0.8505 O   0  0  0  0  0  0  0  0  0  0  0  0
    1.9814    1.7348   -0.3469 C   0  0  0  0  0  0  0  0  0  0  0  0
    0.7818    1.8305   -1.2785 C   0  0  0  0  0  0  0  0  0  0  0  0
   -0.3977    1.1418   -0.7198 N   0  0  0  0  0  4  0  0  0  0  0  0
   -1.6597    1.6856   -0.4930 C   0  0  0  0  0  0  0  0  0  0  0  0
   -2.4730    0.7149    0.0835 C   0  0  0  0  0  0  0  0  0  0  0  0
   -3.9698    0.8964    0.5341 C   0  0  0  0  0  0  0  0  0  0  0  0
   -4.6560   -0.1388    1.1703 C   0  0  0  0  0  0  0  0  0  0  0  0
   -5.9875    0.0373    1.5660 C   0  0  0  0  0  0  0  0  0  0  0  0
   -6.6432    1.2481    1.3313 C   0  0  0  0  0  0  0  0  0  0  0  0
   -8.2832    1.3910    1.8454 Cl  0  0  0  0  0  0  0  0  0  0  0  0
   -5.9581    2.2882    0.6992 C   0  0  0  0  0  0  0  0  0  0  0  0
   -6.6907    3.8175    0.3713 Cl  0  0  0  0  0  0  0  0  0  0  0  0
   -4.6245    2.1130    0.3034 C   0  0  0  0  0  0  0  0  0  0  0  0
   -1.6470   -0.3927    0.1512 N   0  0  0  0  0  0  0  0  0  0  0  0
   -0.4206   -0.1158   -0.2854 C   0  0  0  0  0  0  0  0  0  0  0  0
    0.5076   -1.2689   -0.1940 C   0  0  0  0  0  0  0  0  0  0  0  0
   -0.4630   -2.4386    0.0578 C   0  0  0  0  0  0  0  0  0  0  0  0
   -1.7564   -1.7737    0.6037 C   0  0  0  0  0  0  0  0  0  0  0  0
    3.1318    1.9049   -1.0512 O   0  0  0  0  0  0  0  0  0  0  0  0
    4.3356    1.5646   -0.3440 C   0  0  0  0  0  0  0  0  0  0  0  0
    4.5169    0.0678   -0.3828 C   0  0  0  0  0  0  0  0  0  0  0  0
    4.7608   -0.5858   -1.5996 C   0  0  0  0  0  0  0  0  0  0  0  0
    4.8988   -1.9739   -1.6413 C   0  0  0  0  0  0  0  0  0  0  0  0
    4.7934   -2.7213   -0.4697 C   0  0  0  0  0  0  0  0  0  0  0  0
    4.5511   -2.0824    0.7448 C   0  0  0  0  0  0  0  0  0  0  0  0
    4.4120   -0.6944    0.7890 C   0  0  0  0  0  0  0  0  0  0  0  0
    1.0122    1.3412   -2.2306 H   0  0  0  0  0  0  0  0  0  0  0  0
    0.5457    2.8849   -1.4476 H   0  0  0  0  0  0  0  0  0  0  0  0
   -1.8184    2.7162   -0.7622 H   0  0  0  0  0  0  0  0  0  0  0  0
   -4.1898   -1.0916    1.3889 H   0  0  0  0  0  0  0  0  0  0  0  0
   -6.5121   -0.7773    2.0633 H   0  0  0  0  0  0  0  0  0  0  0  0
   -4.1242    2.9433   -0.1872 H   0  0  0  0  0  0  0  0  0  0  0  0
    1.0652   -1.3554   -1.1271 H   0  0  0  0  0  0  0  0  0  0  0  0
    1.1590   -1.0857    0.6621 H   0  0  0  0  0  0  0  0  0  0  0  0
   -0.6906   -2.9268   -0.8973 H   0  0  0  0  0  0  0  0  0  0  0  0
   -0.0555   -3.1946    0.7342 H   0  0  0  0  0  0  0  0  0  0  0  0
   -2.6470   -2.2525    0.1908 H   0  0  0  0  0  0  0  0  0  0  0  0
   -1.7759   -1.7853    1.6974 H   0  0  0  0  0  0  0  0  0  0  0  0
    4.3212    1.9619    0.6781 H   0  0  0  0  0  0  0  0  0  0  0  0
    5.1735    2.0485   -0.8582 H   0  0  0  0  0  0  0  0  0  0  0  0
    4.8575   -0.0152   -2.5215 H   0  0  0  0  0  0  0  0  0  0  0  0
    5.1055   -2.4728   -2.5855 H   0  0  0  0  0  0  0  0  0  0  0  0
    4.9194   -3.8012   -0.5008 H   0  0  0  0  0  0  0  0  0  0  0  0
    4.4864   -2.6650    1.6609 H   0  0  0  0  0  0  0  0  0  0  0  0
    4.2251   -0.2111    1.7468 H   0  0  0  0  0  0  0  0  0  0  0  0
  1  2  2  0
  2  3  1  0
  3  4  1  0
  4  5  1  0
  5  6  2  0
  6  7  1  0
  7  8  2  0
  8  9  1  0
  9 10  2  0
 10 11  1  0
 10 12  1  0
 12 13  1  0
 12 14  2  0
  6 15  1  0
 15 16  1  0
 16 17  1  0
 17 18  1  0
 18 19  1  0
  2 20  1  0
 20 21  1  0
 21 22  1  0
 22 23  2  0
 23 24  1  0
 24 25  2  0
 25 26  1  0
 26 27  2  0
 16  4  2  0
 27 22  1  0
 14  7  1  0
 19 15  1  0
  3 28  1  0
  3 29  1  0
  5 30  1  0
  8 31  1  0
  9 32  1  0
 14 33  1  0
 17 34  1  0
 17 35  1  0
 18 36  1  0
 18 37  1  0
 19 38  1  0
 19 39  1  0
 21 40  1  0
 21 41  1  0
 23 42  1  0
 24 43  1  0
 25 44  1  0
 26 45  1  0
 27 46  1  0
M  CHG  1   4   1
M  END
$$$$
