
     RDKit          3D

 39 39  0  0  0  0  0  0  0  0999 V2000
   -2.8911    2.8744    2.2494 C   0  0  0  0  0  0  0  0  0  0  0  0
   -3.2333    2.1012    1.0129 C   0  0  0  0  0  0  0  0  0  0  0  0
   -4.3571    1.7233    0.7184 O   0  0  0  0  0  0  0  0  0  0  0  0
   -2.1059    1.8806    0.2763 O   0  0  0  0  0  0  0  0  0  0  0  0
   -2.3384    1.1547   -0.9418 C   0  0  0  0  0  0  0  0  0  0  0  0
   -1.0344    1.0522   -1.7352 C   0  0  0  0  0  0  0  0  0  0  0  0
    0.1131    0.2978   -1.0340 C   0  0  0  0  0  0  0  0  0  0  0  0
    0.5417    1.0118    0.1896 N   0  0  0  0  0  0  0  0  0  0  0  0
    1.9174    1.9562    0.0803 S   0  0  0  0  0  6  0  0  0  0  0  0
    2.1105    2.5316    1.3911 O   0  0  0  0  0  0  0  0  0  0  0  0
    1.7766    2.7846   -1.0930 O   0  0  0  0  0  0  0  0  0  0  0  0
    3.0965    0.8804   -0.1916 O   0  0  0  0  0  0  0  0  0  0  0  0
    3.4666    0.0076    0.8742 C   0  0  0  0  0  0  0  0  0  0  0  0
    4.3878   -1.1175    0.3851 C   0  0  0  0  0  0  0  0  0  0  0  0
    5.9133   -0.4461   -0.2704 Cl  0  0  0  0  0  0  0  0  0  0  0  0
    3.5867   -2.0864   -0.8904 Cl  0  0  0  0  0  0  0  0  0  0  0  0
    4.7877   -2.2005    1.7568 Cl  0  0  0  0  0  0  0  0  0  0  0  0
   -0.2391   -1.1556   -0.7526 C   0  0  0  0  0  0  0  0  0  0  0  0
   -0.6595   -1.5932    0.5140 C   0  0  0  0  0  0  0  0  0  0  0  0
   -0.9802   -2.9339    0.7361 C   0  0  0  0  0  0  0  0  0  0  0  0
   -0.8866   -3.8561   -0.3030 C   0  0  0  0  0  0  0  0  0  0  0  0
   -0.4744   -3.4395   -1.5659 C   0  0  0  0  0  0  0  0  0  0  0  0
   -0.1552   -2.0992   -1.7904 C   0  0  0  0  0  0  0  0  0  0  0  0
   -3.8007    3.0494    2.8309 H   0  0  0  0  0  0  0  0  0  0  0  0
   -2.4615    3.8411    1.9748 H   0  0  0  0  0  0  0  0  0  0  0  0
   -2.1901    2.3015    2.8617 H   0  0  0  0  0  0  0  0  0  0  0  0
   -2.7384    0.1617   -0.7104 H   0  0  0  0  0  0  0  0  0  0  0  0
   -3.0745    1.6973   -1.5473 H   0  0  0  0  0  0  0  0  0  0  0  0
   -0.6937    2.0698   -1.9630 H   0  0  0  0  0  0  0  0  0  0  0  0
   -1.2545    0.5687   -2.6952 H   0  0  0  0  0  0  0  0  0  0  0  0
    0.9648    0.2679   -1.7275 H   0  0  0  0  0  0  0  0  0  0  0  0
   -0.2167    1.5495    0.6164 H   0  0  0  0  0  0  0  0  0  0  0  0
    2.5621   -0.4236    1.3211 H   0  0  0  0  0  0  0  0  0  0  0  0
    3.9701    0.6007    1.6477 H   0  0  0  0  0  0  0  0  0  0  0  0
   -0.7438   -0.8951    1.3435 H   0  0  0  0  0  0  0  0  0  0  0  0
   -1.3040   -3.2590    1.7217 H   0  0  0  0  0  0  0  0  0  0  0  0
   -1.1345   -4.9000   -0.1285 H   0  0  0  0  0  0  0  0  0  0  0  0
   -0.3979   -4.1596   -2.3767 H   0  0  0  0  0  0  0  0  0  0  0  0
    0.1704   -1.7989   -2.7848 H   0  0  0  0  0  0  0  0  0  0  0  0
  1  2  1  0
  2  3  2  0
  2  4  1  0
  4  5  1  0
  5  6  1  0
  6  7  1  0
  7  8  1  0
  8  9  1  0
  9 10  2  0
  9 11  2  0
  9 12  1  0
 12 13  1  0
 13 14  1  0
 14 15  1  0
 14 16  1  0
 14 17  1  0
  7 18  1  0
 18 19  2  0
 19 20  1  0
 20 21  2  0
 21 22  1  0
 22 23  2  0
 23 18  1  0
  1 24  1  0
  1 25  1  0
  1 26  1  0
  5 27  1  0
  5 28  1  0
  6 29  1  0
  6 30  1  0
  7 31  1  0
  8 32  1  0
 13 33  1  0
 13 34  1  0
 19 35  1  0
 20 36  1  0
 21 37  1  0
 22 38  1  0
 23 39  1  0
M  END
$$$$
