
     RDKit          3D

 55 58  0  0  0  0  0  0  0  0999 V2000
    8.4425    1.0493   -0.7844 C   0  0  0  0  0  0  0  0  0  0  0  0
    7.3798    1.1755    0.1495 O   0  0  0  0  0  0  0  0  0  0  0  0
    6.1495    0.6845   -0.2098 C   0  0  0  0  0  0  0  0  0  0  0  0
    5.8762    0.0504   -1.4263 C   0  0  0  0  0  0  0  0  0  0  0  0
    4.5907   -0.4234   -1.7064 C   0  0  0  0  0  0  0  0  0  0  0  0
    3.5690   -0.2754   -0.7647 C   0  0  0  0  0  0  0  0  0  0  0  0
    2.1839   -0.7665   -1.0211 C   0  0  0  0  0  0  0  0  0  0  0  0
    2.0502   -2.0372   -1.8040 C   0  0  0  0  0  0  0  0  0  0  0  0
    0.7958   -2.4732   -2.0338 C   0  0  0  0  0  0  0  0  0  0  0  0
    0.4795   -3.7134   -2.7795 C   0  0  0  0  0  0  0  0  0  0  0  0
   -0.1788   -4.6279   -2.0251 F   0  0  0  0  0  0  0  0  0  0  0  0
   -0.2512   -3.4881   -3.8985 F   0  0  0  0  0  0  0  0  0  0  0  0
    1.6184   -4.3356   -3.2018 F   0  0  0  0  0  0  0  0  0  0  0  0
   -0.2843   -1.7471   -1.5468 N   0  0  0  0  0  0  0  0  0  0  0  0
   -1.6048   -2.0188   -1.6658 N   0  0  0  0  0  0  0  0  0  0  0  0
   -2.2369   -1.0116   -1.0409 C   0  0  0  0  0  0  0  0  0  0  0  0
   -3.7042   -0.9268   -0.9937 C   0  0  0  0  0  0  0  0  0  0  0  0
   -4.3524   -0.7354   -2.0220 O   0  0  0  0  0  0  0  0  0  0  0  0
   -4.3107   -1.0337    0.2633 N   0  0  0  0  0  0  0  0  0  0  0  0
   -3.5885   -1.3036    1.4986 C   0  0  0  0  0  0  0  0  0  0  0  0
   -5.7215   -0.6812    0.3777 C   0  0  0  0  0  0  0  0  0  0  0  0
   -5.9133    0.7185    0.9137 C   0  0  0  0  0  0  0  0  0  0  0  0
   -6.2627    0.9315    2.2552 C   0  0  0  0  0  0  0  0  0  0  0  0
   -6.4187    2.2282    2.7477 C   0  0  0  0  0  0  0  0  0  0  0  0
   -6.2244    3.3231    1.9069 C   0  0  0  0  0  0  0  0  0  0  0  0
   -5.8754    3.1232    0.5727 C   0  0  0  0  0  0  0  0  0  0  0  0
   -5.7198    1.8281    0.0776 C   0  0  0  0  0  0  0  0  0  0  0  0
   -1.3164   -0.0905   -0.4922 C   0  0  0  0  0  0  0  0  0  0  0  0
   -0.0727   -0.5755   -0.8132 C   0  0  0  0  0  0  0  0  0  0  0  0
    1.1750   -0.0945   -0.5422 N   0  0  0  0  0  0  0  0  0  0  0  0
    3.8320    0.3759    0.4480 C   0  0  0  0  0  0  0  0  0  0  0  0
    5.1153    0.8554    0.7331 C   0  0  0  0  0  0  0  0  0  0  0  0
    5.4621    1.4925    1.8989 O   0  0  0  0  0  0  0  0  0  0  0  0
    4.4211    1.8041    2.8147 C   0  0  0  0  0  0  0  0  0  0  0  0
    8.2238    1.5953   -1.7079 H   0  0  0  0  0  0  0  0  0  0  0  0
    9.3357    1.4973   -0.3379 H   0  0  0  0  0  0  0  0  0  0  0  0
    8.6657   -0.0033   -0.9890 H   0  0  0  0  0  0  0  0  0  0  0  0
    6.6424   -0.0839   -2.1830 H   0  0  0  0  0  0  0  0  0  0  0  0
    4.4083   -0.8807   -2.6748 H   0  0  0  0  0  0  0  0  0  0  0  0
    2.9273   -2.5799   -2.1340 H   0  0  0  0  0  0  0  0  0  0  0  0
   -3.2976   -0.3536    1.9558 H   0  0  0  0  0  0  0  0  0  0  0  0
   -2.6959   -1.9062    1.3148 H   0  0  0  0  0  0  0  0  0  0  0  0
   -4.2340   -1.8592    2.1856 H   0  0  0  0  0  0  0  0  0  0  0  0
   -6.2078   -1.4175    1.0288 H   0  0  0  0  0  0  0  0  0  0  0  0
   -6.2265   -0.7605   -0.5919 H   0  0  0  0  0  0  0  0  0  0  0  0
   -6.4172    0.0884    2.9247 H   0  0  0  0  0  0  0  0  0  0  0  0
   -6.6933    2.3852    3.7875 H   0  0  0  0  0  0  0  0  0  0  0  0
   -6.3485    4.3325    2.2901 H   0  0  0  0  0  0  0  0  0  0  0  0
   -5.7264    3.9756   -0.0853 H   0  0  0  0  0  0  0  0  0  0  0  0
   -5.4486    1.6844   -0.9674 H   0  0  0  0  0  0  0  0  0  0  0  0
   -1.5312    0.8163    0.0547 H   0  0  0  0  0  0  0  0  0  0  0  0
    3.0193    0.4906    1.1585 H   0  0  0  0  0  0  0  0  0  0  0  0
    3.9777    0.8932    3.2297 H   0  0  0  0  0  0  0  0  0  0  0  0
    4.8621    2.3653    3.6438 H   0  0  0  0  0  0  0  0  0  0  0  0
    3.6602    2.4404    2.3508 H   0  0  0  0  0  0  0  0  0  0  0  0
  1  2  1  0
  2  3  1  0
  3  4  2  0
  4  5  1  0
  5  6  2  0
  6  7  1  0
  7  8  1  0
  8  9  2  0
  9 10  1  0
 10 11  1  0
 10 12  1  0
 10 13  1  0
  9 14  1  0
 14 15  1  0
 15 16  2  0
 16 17  1  0
 17 18  2  0
 17 19  1  0
 19 20  1  0
 19 21  1  0
 21 22  1  0
 22 23  2  0
 23 24  1  0
 24 25  2  0
 25 26  1  0
 26 27  2  0
 16 28  1  0
 28 29  2  0
 29 30  1  0
  6 31  1  0
 31 32  2  0
 32 33  1  0
 33 34  1  0
 32  3  1  0
 30  7  2  0
 29 14  1  0
 27 22  1  0
  1 35  1  0
  1 36  1  0
  1 37  1  0
  4 38  1  0
  5 39  1  0
  8 40  1  0
 20 41  1  0
 20 42  1  0
 20 43  1  0
 21 44  1  0
 21 45  1  0
 23 46  1  0
 24 47  1  0
 25 48  1  0
 26 49  1  0
 27 50  1  0
 28 51  1  0
 31 52  1  0
 34 53  1  0
 34 54  1  0
 34 55  1  0
M  END
$$$$
