
     RDKit          3D

 57 60  0  0  0  0  0  0  0  0999 V2000
    9.0677    0.4265   -0.0951 C   0  0  0  0  0  0  0  0  0  0  0  0
    8.2146    1.6830   -0.0272 C   0  0  0  0  0  0  0  0  0  0  0  0
    7.0197    1.5091   -0.7922 O   0  0  0  0  0  0  0  0  0  0  0  0
    5.8639    1.2478   -0.1099 C   0  0  0  0  0  0  0  0  0  0  0  0
    4.6895    1.5589   -0.7948 C   0  0  0  0  0  0  0  0  0  0  0  0
    3.4419    1.3486   -0.1997 C   0  0  0  0  0  0  0  0  0  0  0  0
    3.3512    0.8133    1.0895 C   0  0  0  0  0  0  0  0  0  0  0  0
    2.0617    0.6607    1.6286 N   0  0  0  0  0  0  0  0  0  0  0  0
    1.7069    0.0990    2.8411 C   0  0  0  0  0  0  0  0  0  0  0  0
    2.4705   -0.4330    3.6454 O   0  0  0  0  0  0  0  0  0  0  0  0
    0.2189    0.2123    3.1462 C   0  0  0  0  0  0  0  0  0  0  0  0
   -0.7293   -1.0866    2.2981 S   0  0  0  0  0  0  0  0  0  0  0  0
   -1.0801   -0.3130    0.7867 C   0  0  0  0  0  0  0  0  0  0  0  0
   -0.3971    0.7079    0.3162 N   0  0  0  0  0  0  0  0  0  0  0  0
   -0.8806    1.0037   -0.9224 N   0  0  0  0  0  0  0  0  0  0  0  0
   -1.8906    0.1884   -1.1754 C   0  0  0  0  0  0  0  0  0  0  0  0
   -2.8848    0.3870   -2.2802 C   0  0  0  0  0  0  0  0  0  0  0  0
   -4.0882    1.1496   -1.7980 C   0  0  0  0  0  0  0  0  0  0  0  0
   -4.1250    2.4049   -1.2085 C   0  0  0  0  0  0  0  0  0  0  0  0
   -5.4669    2.7042   -0.8897 C   0  0  0  0  0  0  0  0  0  0  0  0
   -6.2278    1.6356   -1.3031 C   0  0  0  0  0  0  0  0  0  0  0  0
   -5.3925    0.7041   -1.8692 N   0  0  0  0  0  0  0  0  0  0  0  0
   -5.8571   -0.5437   -2.4385 C   0  0  0  0  0  0  0  0  0  0  0  0
   -1.9968   -0.7487   -0.1532 N   0  0  0  0  0  0  0  0  0  0  0  0
   -2.8432   -1.8854   -0.1182 C   0  0  0  0  0  0  0  0  0  0  0  0
   -3.6004   -2.1782    1.0236 C   0  0  0  0  0  0  0  0  0  0  0  0
   -4.4182   -3.3113    1.0392 C   0  0  0  0  0  0  0  0  0  0  0  0
   -4.4676   -4.1433   -0.0747 C   0  0  0  0  0  0  0  0  0  0  0  0
   -5.2501   -5.2281   -0.0553 F   0  0  0  0  0  0  0  0  0  0  0  0
   -3.7138   -3.8660   -1.2093 C   0  0  0  0  0  0  0  0  0  0  0  0
   -2.8979   -2.7352   -1.2368 C   0  0  0  0  0  0  0  0  0  0  0  0
    4.5262    0.4763    1.7609 C   0  0  0  0  0  0  0  0  0  0  0  0
    5.7761    0.6814    1.1592 C   0  0  0  0  0  0  0  0  0  0  0  0
    9.3562    0.2136   -1.1311 H   0  0  0  0  0  0  0  0  0  0  0  0
    8.5211   -0.4502    0.2695 H   0  0  0  0  0  0  0  0  0  0  0  0
    9.9793    0.5484    0.4997 H   0  0  0  0  0  0  0  0  0  0  0  0
    8.0203    1.9923    1.0071 H   0  0  0  0  0  0  0  0  0  0  0  0
    8.7685    2.5107   -0.4886 H   0  0  0  0  0  0  0  0  0  0  0  0
    4.7452    1.9766   -1.7970 H   0  0  0  0  0  0  0  0  0  0  0  0
    2.5468    1.5985   -0.7655 H   0  0  0  0  0  0  0  0  0  0  0  0
    1.2949    0.9595    1.0266 H   0  0  0  0  0  0  0  0  0  0  0  0
   -0.1465    1.2167    2.9039 H   0  0  0  0  0  0  0  0  0  0  0  0
    0.0853    0.0847    4.2269 H   0  0  0  0  0  0  0  0  0  0  0  0
   -3.1596   -0.5570   -2.7534 H   0  0  0  0  0  0  0  0  0  0  0  0
   -2.4058    0.9801   -3.0700 H   0  0  0  0  0  0  0  0  0  0  0  0
   -3.2615    3.0304   -1.0142 H   0  0  0  0  0  0  0  0  0  0  0  0
   -5.8390    3.6008   -0.4089 H   0  0  0  0  0  0  0  0  0  0  0  0
   -7.2964    1.4728   -1.2380 H   0  0  0  0  0  0  0  0  0  0  0  0
   -5.3798   -0.6998   -3.4082 H   0  0  0  0  0  0  0  0  0  0  0  0
   -5.6117   -1.3485   -1.7407 H   0  0  0  0  0  0  0  0  0  0  0  0
   -6.9421   -0.4956   -2.5752 H   0  0  0  0  0  0  0  0  0  0  0  0
   -3.5971   -1.5297    1.8952 H   0  0  0  0  0  0  0  0  0  0  0  0
   -5.0155   -3.5489    1.9139 H   0  0  0  0  0  0  0  0  0  0  0  0
   -3.7579   -4.5401   -2.0573 H   0  0  0  0  0  0  0  0  0  0  0  0
   -2.2755   -2.5623   -2.1139 H   0  0  0  0  0  0  0  0  0  0  0  0
    4.5094    0.0441    2.7569 H   0  0  0  0  0  0  0  0  0  0  0  0
    6.6608    0.3730    1.7073 H   0  0  0  0  0  0  0  0  0  0  0  0
  1  2  1  0
  2  3  1  0
  3  4  1  0
  4  5  2  0
  5  6  1  0
  6  7  2  0
  7  8  1  0
  8  9  1  0
  9 10  2  0
  9 11  1  0
 11 12  1  0
 12 13  1  0
 13 14  2  0
 14 15  1  0
 15 16  2  0
 16 17  1  0
 17 18  1  0
 18 19  2  0
 19 20  1  0
 20 21  2  0
 21 22  1  0
 22 23  1  0
 16 24  1  0
 24 25  1  0
 25 26  2  0
 26 27  1  0
 27 28  2  0
 28 29  1  0
 28 30  1  0
 30 31  2  0
  7 32  1  0
 32 33  2  0
 33  4  1  0
 24 13  1  0
 31 25  1  0
 22 18  1  0
  1 34  1  0
  1 35  1  0
  1 36  1  0
  2 37  1  0
  2 38  1  0
  5 39  1  0
  6 40  1  0
  8 41  1  0
 11 42  1  0
 11 43  1  0
 17 44  1  0
 17 45  1  0
 19 46  1  0
 20 47  1  0
 21 48  1  0
 23 49  1  0
 23 50  1  0
 23 51  1  0
 26 52  1  0
 27 53  1  0
 30 54  1  0
 31 55  1  0
 32 56  1  0
 33 57  1  0
M  END
$$$$
