
     RDKit          3D

 39 42  0  0  0  0  0  0  0  0999 V2000
    5.9678   -1.0228   -1.2243 C   0  0  0  0  0  0  0  0  0  0  0  0
    5.7110   -1.4680    0.0839 C   0  0  0  0  0  0  0  0  0  0  0  0
    4.4739   -1.2320    0.6927 C   0  0  0  0  0  0  0  0  0  0  0  0
    3.5068   -0.5485   -0.0248 C   0  0  0  0  0  0  0  0  0  0  0  0
    3.7715   -0.1042   -1.3387 C   0  0  0  0  0  0  0  0  0  0  0  0
    4.9935   -0.3335   -1.9489 C   0  0  0  0  0  0  0  0  0  0  0  0
    2.5620    0.6117   -1.9040 C   0  0  0  0  0  0  0  0  0  0  0  0
    1.5772    0.5211   -0.7556 C   0  0  0  0  0  0  0  0  0  0  0  0
    0.2814    1.0109   -0.6995 C   0  0  0  0  0  0  0  0  0  0  0  0
   -0.4612    0.8075    0.4746 C   0  0  0  0  0  0  0  0  0  0  0  0
   -1.8743    1.3471    0.5859 C   0  0  0  0  0  0  0  0  0  0  0  0
   -2.8499    0.3443    1.0391 N   0  0  0  0  0  0  0  0  0  0  0  0
   -4.1120    1.0009    1.4418 C   0  0  0  0  0  0  0  0  0  0  0  0
   -5.3003    0.0305    1.3937 C   0  0  0  0  0  0  0  0  0  0  0  0
   -5.5745   -0.4340    0.0646 O   0  0  0  0  0  0  0  0  0  0  0  0
   -4.4040   -0.4971   -0.7621 C   0  0  0  0  0  0  0  0  0  0  0  0
   -3.1064   -0.7104    0.0336 C   0  0  0  0  0  0  0  0  0  0  0  0
    0.1306    0.1285    1.5654 C   0  0  0  0  0  0  0  0  0  0  0  0
    1.4395   -0.3624    1.4984 C   0  0  0  0  0  0  0  0  0  0  0  0
    2.1578   -0.1632    0.3333 C   0  0  0  0  0  0  0  0  0  0  0  0
    6.9377   -1.2187   -1.6758 H   0  0  0  0  0  0  0  0  0  0  0  0
    6.4848   -2.0031    0.6294 H   0  0  0  0  0  0  0  0  0  0  0  0
    4.2854   -1.5797    1.7025 H   0  0  0  0  0  0  0  0  0  0  0  0
    5.1922    0.0098   -2.9585 H   0  0  0  0  0  0  0  0  0  0  0  0
    2.1786    0.0875   -2.7842 H   0  0  0  0  0  0  0  0  0  0  0  0
    2.7999    1.6557   -2.1278 H   0  0  0  0  0  0  0  0  0  0  0  0
   -0.1430    1.5372   -1.5486 H   0  0  0  0  0  0  0  0  0  0  0  0
   -1.8297    2.1743    1.3073 H   0  0  0  0  0  0  0  0  0  0  0  0
   -2.1930    1.7826   -0.3704 H   0  0  0  0  0  0  0  0  0  0  0  0
   -3.9997    1.3966    2.4571 H   0  0  0  0  0  0  0  0  0  0  0  0
   -4.3350    1.8436    0.7736 H   0  0  0  0  0  0  0  0  0  0  0  0
   -6.2056    0.5252    1.7599 H   0  0  0  0  0  0  0  0  0  0  0  0
   -5.1237   -0.8410    2.0351 H   0  0  0  0  0  0  0  0  0  0  0  0
   -4.3507    0.4286   -1.3469 H   0  0  0  0  0  0  0  0  0  0  0  0
   -4.5494   -1.3194   -1.4700 H   0  0  0  0  0  0  0  0  0  0  0  0
   -2.2673   -0.8410   -0.6584 H   0  0  0  0  0  0  0  0  0  0  0  0
   -3.1955   -1.6553    0.5848 H   0  0  0  0  0  0  0  0  0  0  0  0
   -0.4463   -0.0241    2.4763 H   0  0  0  0  0  0  0  0  0  0  0  0
    1.8700   -0.8854    2.3453 H   0  0  0  0  0  0  0  0  0  0  0  0
  1  2  2  0
  2  3  1  0
  3  4  2  0
  4  5  1  0
  5  6  2  0
  5  7  1  0
  7  8  1  0
  8  9  2  0
  9 10  1  0
 10 11  1  0
 11 12  1  0
 12 13  1  0
 13 14  1  0
 14 15  1  0
 15 16  1  0
 16 17  1  0
 10 18  2  0
 18 19  1  0
 19 20  2  0
  6  1  1  0
 20  8  1  0
 20  4  1  0
 17 12  1  0
  1 21  1  0
  2 22  1  0
  3 23  1  0
  6 24  1  0
  7 25  1  0
  7 26  1  0
  9 27  1  0
 11 28  1  0
 11 29  1  0
 13 30  1  0
 13 31  1  0
 14 32  1  0
 14 33  1  0
 16 34  1  0
 16 35  1  0
 17 36  1  0
 17 37  1  0
 18 38  1  0
 19 39  1  0
M  END
$$$$
