
     RDKit          3D

 27 27  0  0  0  0  0  0  0  0999 V2000
   -5.8133   -0.8013   -1.1647 C   0  0  0  0  0  0  0  0  0  0  0  0
   -5.0566    0.1322   -0.5723 C   0  0  0  0  0  0  0  0  0  0  0  0
   -4.1317   -0.1269    0.5711 C   0  0  0  0  0  0  0  0  0  0  0  0
   -2.7894    0.0505    0.0939 N   0  0  0  0  0  0  0  0  0  0  0  0
   -1.7341    0.1768    0.9673 C   0  0  0  0  0  0  0  0  0  0  0  0
   -1.8124    0.3143    2.1802 O   0  0  0  0  0  0  0  0  0  0  0  0
   -0.3510    0.1146    0.2890 C   0  0  0  0  0  0  0  0  0  0  0  0
   -0.2806   -0.1517   -0.9032 O   0  0  0  0  0  0  0  0  0  0  0  0
    0.6746    0.3650    1.1848 N   0  0  0  0  0  0  0  0  0  0  0  0
    2.0208    0.2370    0.9534 N   0  0  0  0  0  0  0  0  0  0  0  0
    2.4739    0.3834   -0.2525 C   0  0  0  0  0  0  0  0  0  0  0  0
    3.8759    0.2196   -0.5215 C   0  0  0  0  0  0  0  0  0  0  0  0
    4.9462   -0.1133    0.2862 C   0  0  0  0  0  0  0  0  0  0  0  0
    6.0934   -0.1218   -0.5430 C   0  0  0  0  0  0  0  0  0  0  0  0
    5.6549    0.2063   -1.8038 C   0  0  0  0  0  0  0  0  0  0  0  0
    4.3132    0.4159   -1.8020 O   0  0  0  0  0  0  0  0  0  0  0  0
   -5.7950   -1.8396   -0.8476 H   0  0  0  0  0  0  0  0  0  0  0  0
   -6.4722   -0.5410   -1.9880 H   0  0  0  0  0  0  0  0  0  0  0  0
   -5.1182    1.1604   -0.9231 H   0  0  0  0  0  0  0  0  0  0  0  0
   -4.2222   -1.1481    0.9568 H   0  0  0  0  0  0  0  0  0  0  0  0
   -4.3299    0.5672    1.3943 H   0  0  0  0  0  0  0  0  0  0  0  0
   -2.5519   -0.2287   -0.8548 H   0  0  0  0  0  0  0  0  0  0  0  0
    0.4066    0.4027    2.1696 H   0  0  0  0  0  0  0  0  0  0  0  0
    1.8483    0.6638   -1.1147 H   0  0  0  0  0  0  0  0  0  0  0  0
    4.8929   -0.3234    1.3458 H   0  0  0  0  0  0  0  0  0  0  0  0
    7.1129   -0.3401   -0.2578 H   0  0  0  0  0  0  0  0  0  0  0  0
    6.1450    0.3262   -2.7602 H   0  0  0  0  0  0  0  0  0  0  0  0
  1  2  2  0
  2  3  1  0
  3  4  1  0
  4  5  1  0
  5  6  2  0
  5  7  1  0
  7  8  2  0
  7  9  1  0
  9 10  1  0
 10 11  2  3
 11 12  1  0
 12 13  2  0
 13 14  1  0
 14 15  2  0
 15 16  1  0
 16 12  1  0
  1 17  1  0
  1 18  1  0
  2 19  1  0
  3 20  1  0
  3 21  1  0
  4 22  1  0
  9 23  1  0
 11 24  1  0
 13 25  1  0
 14 26  1  0
 15 27  1  0
M  END
$$$$
