
     RDKit          3D

 53 58  0  0  0  0  0  0  0  0999 V2000
   -0.9522   -1.1769   -1.8598 O   0  0  0  0  0  0  0  0  0  0  0  0
   -1.4881   -0.2756   -1.2077 C   0  0  0  0  0  0  0  0  0  0  0  0
   -0.7936    1.1045   -1.1770 C   0  0  0  0  0  0  0  0  0  0  0  0
    0.6496    0.9260   -0.9348 N   0  0  0  0  0  4  0  0  0  0  0  0
    1.2987    0.9651    0.2987 C   0  0  0  0  0  0  0  0  0  0  0  0
    2.6393    0.6462    0.1135 C   0  0  0  0  0  0  0  0  0  0  0  0
    3.7472    0.5901    1.2274 C   0  0  0  0  0  0  0  0  0  0  0  0
    3.3991    0.7976    2.5690 C   0  0  0  0  0  0  0  0  0  0  0  0
    4.3787    0.7467    3.5667 C   0  0  0  0  0  0  0  0  0  0  0  0
    5.7044    0.4938    3.2268 C   0  0  0  0  0  0  0  0  0  0  0  0
    6.9076    0.4302    4.4518 Cl  0  0  0  0  0  0  0  0  0  0  0  0
    6.0586    0.2924    1.8958 C   0  0  0  0  0  0  0  0  0  0  0  0
    5.0810    0.3406    0.8952 C   0  0  0  0  0  0  0  0  0  0  0  0
    2.7224    0.4000   -1.2460 N   0  0  0  0  0  0  0  0  0  0  0  0
    1.5467    0.5658   -1.8474 C   0  0  0  0  0  0  0  0  0  0  0  0
    1.5948    0.3084   -3.3055 C   0  0  0  0  0  0  0  0  0  0  0  0
    2.9511   -0.4079   -3.4590 C   0  0  0  0  0  0  0  0  0  0  0  0
    3.7514   -0.0368   -2.1809 C   0  0  0  0  0  0  0  0  0  0  0  0
   -2.5983   -0.4094   -0.3569 N   0  0  0  0  0  0  0  0  0  0  0  0
   -2.8766   -1.6476    0.3338 C   0  0  0  0  0  0  0  0  0  0  0  0
   -2.5109   -2.8908   -0.2162 C   0  0  0  0  0  0  0  0  0  0  0  0
   -2.7582   -4.0940    0.4546 C   0  0  0  0  0  0  0  0  0  0  0  0
   -3.3809   -4.0847    1.6946 C   0  0  0  0  0  0  0  0  0  0  0  0
   -3.7514   -2.8714    2.2643 C   0  0  0  0  0  0  0  0  0  0  0  0
   -3.5035   -1.6612    1.5957 C   0  0  0  0  0  0  0  0  0  0  0  0
   -3.9225   -0.1647    2.4607 S   0  0  0  0  0  0  0  0  0  0  0  0
   -4.1846    0.8884    1.0635 C   0  0  0  0  0  0  0  0  0  0  0  0
   -5.0530    1.9788    1.2158 C   0  0  0  0  0  0  0  0  0  0  0  0
   -5.3006    2.8439    0.1529 C   0  0  0  0  0  0  0  0  0  0  0  0
   -4.6904    2.6191   -1.0732 C   0  0  0  0  0  0  0  0  0  0  0  0
   -3.8119    1.5439   -1.2265 C   0  0  0  0  0  0  0  0  0  0  0  0
   -3.5211    0.6765   -0.1535 C   0  0  0  0  0  0  0  0  0  0  0  0
   -0.9258    1.5958   -2.1459 H   0  0  0  0  0  0  0  0  0  0  0  0
   -1.1733    1.7559   -0.3859 H   0  0  0  0  0  0  0  0  0  0  0  0
    0.7141    1.2209    1.1671 H   0  0  0  0  0  0  0  0  0  0  0  0
    2.3761    0.9916    2.8775 H   0  0  0  0  0  0  0  0  0  0  0  0
    4.1011    0.9029    4.6063 H   0  0  0  0  0  0  0  0  0  0  0  0
    7.0962    0.0990    1.6306 H   0  0  0  0  0  0  0  0  0  0  0  0
    5.4039    0.1923   -0.1276 H   0  0  0  0  0  0  0  0  0  0  0  0
    0.7451   -0.3045   -3.6031 H   0  0  0  0  0  0  0  0  0  0  0  0
    1.5806    1.2863   -3.7936 H   0  0  0  0  0  0  0  0  0  0  0  0
    2.7843   -1.4913   -3.4714 H   0  0  0  0  0  0  0  0  0  0  0  0
    3.4751   -0.1376   -4.3803 H   0  0  0  0  0  0  0  0  0  0  0  0
    4.2920   -0.9030   -1.7914 H   0  0  0  0  0  0  0  0  0  0  0  0
    4.4328    0.7980   -2.3705 H   0  0  0  0  0  0  0  0  0  0  0  0
   -2.0722   -2.9755   -1.2071 H   0  0  0  0  0  0  0  0  0  0  0  0
   -2.4743   -5.0410   -0.0044 H   0  0  0  0  0  0  0  0  0  0  0  0
   -3.5795   -5.0181    2.2159 H   0  0  0  0  0  0  0  0  0  0  0  0
   -4.2343   -2.8758    3.2409 H   0  0  0  0  0  0  0  0  0  0  0  0
   -5.5554    2.1556    2.1666 H   0  0  0  0  0  0  0  0  0  0  0  0
   -5.9903    3.6766    0.2781 H   0  0  0  0  0  0  0  0  0  0  0  0
   -4.9176    3.2690   -1.9158 H   0  0  0  0  0  0  0  0  0  0  0  0
   -3.4110    1.3661   -2.2223 H   0  0  0  0  0  0  0  0  0  0  0  0
  1  2  2  0
  2  3  1  0
  3  4  1  0
  4  5  1  0
  5  6  2  0
  6  7  1  0
  7  8  2  0
  8  9  1  0
  9 10  2  0
 10 11  1  0
 10 12  1  0
 12 13  2  0
  6 14  1  0
 14 15  1  0
 15 16  1  0
 16 17  1  0
 17 18  1  0
  2 19  1  0
 19 20  1  0
 20 21  2  0
 21 22  1  0
 22 23  2  0
 23 24  1  0
 24 25  2  0
 25 26  1  0
 26 27  1  0
 27 28  2  0
 28 29  1  0
 29 30  2  0
 30 31  1  0
 31 32  2  0
 15  4  2  0
 32 19  1  0
 13  7  1  0
 18 14  1  0
 25 20  1  0
 32 27  1  0
  3 33  1  0
  3 34  1  0
  5 35  1  0
  8 36  1  0
  9 37  1  0
 12 38  1  0
 13 39  1  0
 16 40  1  0
 16 41  1  0
 17 42  1  0
 17 43  1  0
 18 44  1  0
 18 45  1  0
 21 46  1  0
 22 47  1  0
 23 48  1  0
 24 49  1  0
 28 50  1  0
 29 51  1  0
 30 52  1  0
 31 53  1  0
M  CHG  1   4   1
M  END
$$$$
