
     RDKit          3D

 56 60  0  0  0  0  0  0  0  0999 V2000
   -5.3333   -2.3875   -2.0397 C   0  0  0  0  0  0  0  0  0  0  0  0
   -4.0048   -1.9611   -1.4814 C   0  0  0  0  0  0  0  0  0  0  0  0
   -2.8501   -2.2391   -2.2288 C   0  0  0  0  0  0  0  0  0  0  0  0
   -1.5831   -1.8908   -1.7531 C   0  0  0  0  0  0  0  0  0  0  0  0
   -1.4229   -1.2716   -0.5059 C   0  0  0  0  0  0  0  0  0  0  0  0
   -0.0820   -0.9188   -0.0216 C   0  0  0  0  0  0  0  0  0  0  0  0
    0.4953    0.0870   -0.7150 N   0  0  0  0  0  0  0  0  0  0  0  0
    1.7537    0.5111   -0.3917 N   0  0  0  0  0  0  0  0  0  0  0  0
    2.4460   -0.0598    0.6173 C   0  0  0  0  0  0  0  0  0  0  0  0
    3.7501    0.4015    0.9414 N   0  0  0  0  0  0  0  0  0  0  0  0
    4.6109    1.2293    0.1803 C   0  0  0  0  0  0  0  0  0  0  0  0
    4.5603    1.2887   -1.2301 C   0  0  0  0  0  0  0  0  0  0  0  0
    5.4724    2.0553   -1.9665 C   0  0  0  0  0  0  0  0  0  0  0  0
    6.4414    2.7365   -1.2742 C   0  0  0  0  0  0  0  0  0  0  0  0
    6.5329    2.6583    0.0937 C   0  0  0  0  0  0  0  0  0  0  0  0
    5.6455    1.9118    0.8422 C   0  0  0  0  0  0  0  0  0  0  0  0
    7.5794    3.3747    0.5858 O   0  0  0  0  0  0  0  0  0  0  0  0
    8.1377    3.9084   -0.6348 C   0  0  0  0  0  0  0  0  0  0  0  0
    7.4094    3.5194   -1.8183 O   0  0  0  0  0  0  0  0  0  0  0  0
    1.8835   -1.1225    1.3664 C   0  0  0  0  0  0  0  0  0  0  0  0
    2.5747   -1.7880    2.4123 C   0  0  0  0  0  0  0  0  0  0  0  0
    2.0011   -2.8460    3.1236 C   0  0  0  0  0  0  0  0  0  0  0  0
    0.7210   -3.2697    2.8064 C   0  0  0  0  0  0  0  0  0  0  0  0
    0.0205   -2.6413    1.7732 C   0  0  0  0  0  0  0  0  0  0  0  0
    0.5793   -1.5650    1.0392 C   0  0  0  0  0  0  0  0  0  0  0  0
   -2.5713   -0.9887    0.2466 C   0  0  0  0  0  0  0  0  0  0  0  0
   -3.8499   -1.3238   -0.2350 C   0  0  0  0  0  0  0  0  0  0  0  0
   -5.2457   -0.9376    0.8061 S   0  0  0  0  0  6  0  0  0  0  0  0
   -4.7586   -0.3905    2.0535 O   0  0  0  0  0  0  0  0  0  0  0  0
   -6.1501   -2.0640    0.7939 O   0  0  0  0  0  0  0  0  0  0  0  0
   -6.0150    0.3021   -0.0051 N   0  0  0  0  0  0  0  0  0  0  0  0
   -5.3369    1.5415   -0.4154 C   0  0  0  0  0  0  0  0  0  0  0  0
   -4.6931    2.3111    0.7390 C   0  0  0  0  0  0  0  0  0  0  0  0
   -5.6183    2.4860    1.8062 O   0  0  0  0  0  0  0  0  0  0  0  0
   -6.0541   -1.5652   -2.0175 H   0  0  0  0  0  0  0  0  0  0  0  0
   -5.7250   -3.2440   -1.4835 H   0  0  0  0  0  0  0  0  0  0  0  0
   -5.2451   -2.6839   -3.0890 H   0  0  0  0  0  0  0  0  0  0  0  0
   -2.9234   -2.7333   -3.1961 H   0  0  0  0  0  0  0  0  0  0  0  0
   -0.7082   -2.1099   -2.3646 H   0  0  0  0  0  0  0  0  0  0  0  0
    3.7722    0.6500    1.9259 H   0  0  0  0  0  0  0  0  0  0  0  0
    3.8058    0.7305   -1.7788 H   0  0  0  0  0  0  0  0  0  0  0  0
    5.4173    2.1067   -3.0480 H   0  0  0  0  0  0  0  0  0  0  0  0
    5.7624    1.8636    1.9196 H   0  0  0  0  0  0  0  0  0  0  0  0
    9.1722    3.5562   -0.7308 H   0  0  0  0  0  0  0  0  0  0  0  0
    8.1456    5.0042   -0.5667 H   0  0  0  0  0  0  0  0  0  0  0  0
    3.5921   -1.5021    2.6723 H   0  0  0  0  0  0  0  0  0  0  0  0
    2.5609   -3.3406    3.9145 H   0  0  0  0  0  0  0  0  0  0  0  0
    0.2664   -4.0910    3.3544 H   0  0  0  0  0  0  0  0  0  0  0  0
   -0.9737   -3.0163    1.5394 H   0  0  0  0  0  0  0  0  0  0  0  0
   -2.4616   -0.5016    1.2169 H   0  0  0  0  0  0  0  0  0  0  0  0
   -6.8313    0.0078   -0.5399 H   0  0  0  0  0  0  0  0  0  0  0  0
   -6.1082    2.1787   -0.8614 H   0  0  0  0  0  0  0  0  0  0  0  0
   -4.6102    1.3314   -1.2047 H   0  0  0  0  0  0  0  0  0  0  0  0
   -4.3868    3.3035    0.3926 H   0  0  0  0  0  0  0  0  0  0  0  0
   -3.7992    1.8080    1.1232 H   0  0  0  0  0  0  0  0  0  0  0  0
   -5.7679    1.5906    2.1723 H   0  0  0  0  0  0  0  0  0  0  0  0
  1  2  1  0
  2  3  2  0
  3  4  1  0
  4  5  2  0
  5  6  1  0
  6  7  2  0
  7  8  1  0
  8  9  2  0
  9 10  1  0
 10 11  1  0
 11 12  2  0
 12 13  1  0
 13 14  2  0
 14 15  1  0
 15 16  2  0
 15 17  1  0
 17 18  1  0
 18 19  1  0
  9 20  1  0
 20 21  2  0
 21 22  1  0
 22 23  2  0
 23 24  1  0
 24 25  2  0
  5 26  1  0
 26 27  2  0
 27 28  1  0
 28 29  2  0
 28 30  2  0
 28 31  1  0
 31 32  1  0
 32 33  1  0
 33 34  1  0
 27  2  1  0
 25  6  1  0
 16 11  1  0
 25 20  1  0
 19 14  1  0
  1 35  1  0
  1 36  1  0
  1 37  1  0
  3 38  1  0
  4 39  1  0
 10 40  1  0
 12 41  1  0
 13 42  1  0
 16 43  1  0
 18 44  1  0
 18 45  1  0
 21 46  1  0
 22 47  1  0
 23 48  1  0
 24 49  1  0
 26 50  1  0
 31 51  1  0
 32 52  1  0
 32 53  1  0
 33 54  1  0
 33 55  1  0
 34 56  1  0
M  END
$$$$
