
     RDKit          3D

 60 65  0  0  0  0  0  0  0  0999 V2000
   -0.9059    2.6960    3.6232 O   0  0  0  0  0  0  0  0  0  0  0  0
   -1.5425    2.2418    2.6789 C   0  0  0  0  0  0  0  0  0  0  0  0
   -0.9240    1.8086    1.5121 N   0  0  0  0  0  0  0  0  0  0  0  0
   -1.6013    1.2953    0.4118 C   0  0  0  0  0  0  0  0  0  0  0  0
   -0.7535    0.8774   -0.7786 C   0  0  0  0  0  0  0  0  0  0  0  0
    0.2358   -0.2312   -0.4037 C   0  0  0  0  0  0  0  0  0  0  0  0
    1.1118   -0.6023   -1.5970 C   0  0  0  0  0  0  0  0  0  0  0  0
    1.8232    0.6203   -2.0674 N   0  0  0  0  0  0  0  0  0  0  0  0
    3.0881    0.3219   -3.1917 S   0  0  0  0  0  6  0  0  0  0  0  0
    3.6960    1.5879   -3.5381 O   0  0  0  0  0  0  0  0  0  0  0  0
    2.5549   -0.5631   -4.2052 O   0  0  0  0  0  0  0  0  0  0  0  0
    4.2698   -0.5734   -2.2193 C   0  0  0  0  0  0  0  0  0  0  0  0
    4.6483   -1.8684   -2.5866 C   0  0  0  0  0  0  0  0  0  0  0  0
    5.5706   -2.5600   -1.7999 C   0  0  0  0  0  0  0  0  0  0  0  0
    6.1051   -1.9568   -0.6613 C   0  0  0  0  0  0  0  0  0  0  0  0
    5.7412   -0.6487   -0.3189 C   0  0  0  0  0  0  0  0  0  0  0  0
    4.8106    0.0430   -1.0879 C   0  0  0  0  0  0  0  0  0  0  0  0
    6.2575    0.0130    0.7654 O   0  0  0  0  0  0  0  0  0  0  0  0
    7.4513   -0.6229    1.2386 C   0  0  0  0  0  0  0  0  0  0  0  0
    7.2431   -2.1234    1.3551 C   0  0  0  0  0  0  0  0  0  0  0  0
    6.9922   -2.7050    0.0697 O   0  0  0  0  0  0  0  0  0  0  0  0
    0.8609    1.6507   -2.5505 C   0  0  0  0  0  0  0  0  0  0  0  0
   -0.0262    2.0807   -1.3862 C   0  0  0  0  0  0  0  0  0  0  0  0
   -2.8974    1.1635    0.3488 N   0  0  0  0  0  0  0  0  0  0  0  0
   -3.5259    1.5720    1.4770 C   0  0  0  0  0  0  0  0  0  0  0  0
   -2.9711    2.0929    2.6204 C   0  0  0  0  0  0  0  0  0  0  0  0
   -3.9381    2.3956    3.5280 N   0  0  0  0  0  0  0  0  0  0  0  0
   -5.1101    2.0767    2.9784 N   0  0  0  0  0  0  0  0  0  0  0  0
   -4.8636    1.5639    1.7456 N   0  0  0  0  0  0  0  0  0  0  0  0
   -5.9503    1.1539    0.8813 C   0  0  0  0  0  0  0  0  0  0  0  0
   -6.2990   -0.2954    1.0803 C   0  0  0  0  0  0  0  0  0  0  0  0
   -7.0411   -0.7160    2.1947 C   0  0  0  0  0  0  0  0  0  0  0  0
   -7.3522   -2.0670    2.3689 C   0  0  0  0  0  0  0  0  0  0  0  0
   -6.9234   -3.0117    1.4368 C   0  0  0  0  0  0  0  0  0  0  0  0
   -6.1803   -2.6057    0.3302 C   0  0  0  0  0  0  0  0  0  0  0  0
   -5.8749   -1.2582    0.1616 C   0  0  0  0  0  0  0  0  0  0  0  0
   -5.1648   -0.8898   -0.9140 F   0  0  0  0  0  0  0  0  0  0  0  0
    0.0809    1.9032    1.5125 H   0  0  0  0  0  0  0  0  0  0  0  0
   -1.4377    0.4760   -1.5391 H   0  0  0  0  0  0  0  0  0  0  0  0
   -0.3085   -1.1162   -0.0535 H   0  0  0  0  0  0  0  0  0  0  0  0
    0.8793    0.0886    0.4256 H   0  0  0  0  0  0  0  0  0  0  0  0
    1.8264   -1.3648   -1.2738 H   0  0  0  0  0  0  0  0  0  0  0  0
    0.5005   -1.0232   -2.4039 H   0  0  0  0  0  0  0  0  0  0  0  0
    4.2360   -2.3415   -3.4747 H   0  0  0  0  0  0  0  0  0  0  0  0
    5.8696   -3.5699   -2.0692 H   0  0  0  0  0  0  0  0  0  0  0  0
    4.5266    1.0573   -0.8190 H   0  0  0  0  0  0  0  0  0  0  0  0
    7.6912   -0.1956    2.2172 H   0  0  0  0  0  0  0  0  0  0  0  0
    8.2719   -0.3826    0.5504 H   0  0  0  0  0  0  0  0  0  0  0  0
    8.1401   -2.5988    1.7648 H   0  0  0  0  0  0  0  0  0  0  0  0
    6.3995   -2.3604    2.0143 H   0  0  0  0  0  0  0  0  0  0  0  0
    0.2559    1.2498   -3.3716 H   0  0  0  0  0  0  0  0  0  0  0  0
    1.3966    2.5329   -2.9149 H   0  0  0  0  0  0  0  0  0  0  0  0
    0.5927    2.5781   -0.6291 H   0  0  0  0  0  0  0  0  0  0  0  0
   -0.7552    2.8240   -1.7304 H   0  0  0  0  0  0  0  0  0  0  0  0
   -5.6586    1.3643   -0.1533 H   0  0  0  0  0  0  0  0  0  0  0  0
   -6.8159    1.7899    1.1000 H   0  0  0  0  0  0  0  0  0  0  0  0
   -7.3738    0.0062    2.9393 H   0  0  0  0  0  0  0  0  0  0  0  0
   -7.9276   -2.3829    3.2367 H   0  0  0  0  0  0  0  0  0  0  0  0
   -7.1666   -4.0622    1.5747 H   0  0  0  0  0  0  0  0  0  0  0  0
   -5.8384   -3.3289   -0.4034 H   0  0  0  0  0  0  0  0  0  0  0  0
  1  2  2  0
  2  3  1  0
  3  4  1  0
  4  5  1  0
  5  6  1  0
  6  7  1  0
  7  8  1  0
  8  9  1  0
  9 10  2  0
  9 11  2  0
  9 12  1  0
 12 13  2  0
 13 14  1  0
 14 15  2  0
 15 16  1  0
 16 17  2  0
 16 18  1  0
 18 19  1  0
 19 20  1  0
 20 21  1  0
  8 22  1  0
 22 23  1  0
  4 24  2  0
 24 25  1  0
 25 26  2  0
 26 27  1  0
 27 28  2  0
 28 29  1  0
 29 30  1  0
 30 31  1  0
 31 32  2  0
 32 33  1  0
 33 34  2  0
 34 35  1  0
 35 36  2  0
 36 37  1  0
 26  2  1  0
 36 31  1  0
 23  5  1  0
 29 25  1  0
 17 12  1  0
 21 15  1  0
  3 38  1  0
  5 39  1  0
  6 40  1  0
  6 41  1  0
  7 42  1  0
  7 43  1  0
 13 44  1  0
 14 45  1  0
 17 46  1  0
 19 47  1  0
 19 48  1  0
 20 49  1  0
 20 50  1  0
 22 51  1  0
 22 52  1  0
 23 53  1  0
 23 54  1  0
 30 55  1  0
 30 56  1  0
 32 57  1  0
 33 58  1  0
 34 59  1  0
 35 60  1  0
M  END
$$$$
