
     RDKit          3D

 59 62  0  0  0  0  0  0  0  0999 V2000
    7.9969    3.0297    0.8851 C   0  0  0  0  0  0  0  0  0  0  0  0
    6.6440    2.3959    1.0118 C   0  0  0  0  0  0  0  0  0  0  0  0
    6.5153    1.0689    1.4268 C   0  0  0  0  0  0  0  0  0  0  0  0
    5.2525    0.4749    1.5192 C   0  0  0  0  0  0  0  0  0  0  0  0
    4.0886    1.1972    1.1979 C   0  0  0  0  0  0  0  0  0  0  0  0
    2.8206    0.5408    1.3065 N   0  0  0  0  0  0  0  0  0  0  0  0
    2.8060   -0.8154    1.4155 N   0  0  0  0  0  0  0  0  0  0  0  0
    1.5227   -1.1638    1.3221 C   0  0  0  0  0  0  0  0  0  0  0  0
    0.9978   -2.5228    1.3278 C   0  0  0  0  0  0  0  0  0  0  0  0
    1.7039   -3.5276    1.3809 O   0  0  0  0  0  0  0  0  0  0  0  0
   -0.4098   -2.5592    1.2592 N   0  0  0  0  0  0  0  0  0  0  0  0
   -1.0894   -3.8508    1.2559 C   0  0  0  0  0  0  0  0  0  0  0  0
   -1.1170   -4.5102   -0.1274 C   0  0  0  0  0  0  0  0  0  0  0  0
   -1.7585   -3.6461   -1.2118 C   0  0  0  0  0  0  0  0  0  0  0  0
   -3.1993   -3.2942   -0.8954 C   0  0  0  0  0  0  0  0  0  0  0  0
   -3.9538   -4.0415   -0.2831 O   0  0  0  0  0  0  0  0  0  0  0  0
   -3.5877   -2.0802   -1.4063 N   0  0  0  0  0  0  0  0  0  0  0  0
   -4.8688   -1.5200   -1.0423 C   0  0  0  0  0  0  0  0  0  0  0  0
   -5.0883   -0.2984   -1.8495 C   0  0  0  0  0  0  0  0  0  0  0  0
   -6.0099    0.0443   -2.8131 C   0  0  0  0  0  0  0  0  0  0  0  0
   -5.6867    1.3606   -3.2263 C   0  0  0  0  0  0  0  0  0  0  0  0
   -4.5861    1.7406   -2.4918 C   0  0  0  0  0  0  0  0  0  0  0  0
   -3.7673    2.9677   -2.4492 C   0  0  0  0  0  0  0  0  0  0  0  0
   -4.2169    0.7377   -1.6479 O   0  0  0  0  0  0  0  0  0  0  0  0
   -1.2397   -1.4365    1.1516 N   0  0  0  0  0  0  0  0  0  0  0  0
   -0.7463   -0.2300    1.1463 C   0  0  0  0  0  0  0  0  0  0  0  0
   -1.7002    0.9255    1.0356 C   0  0  0  0  0  0  0  0  0  0  0  0
    0.6822   -0.0491    1.2412 C   0  0  0  0  0  0  0  0  0  0  0  0
    1.5156    1.0552    1.3204 C   0  0  0  0  0  0  0  0  0  0  0  0
    1.1747    2.4928    1.4629 C   0  0  0  0  0  0  0  0  0  0  0  0
    4.2251    2.5131    0.7455 C   0  0  0  0  0  0  0  0  0  0  0  0
    5.4928    3.1062    0.6595 C   0  0  0  0  0  0  0  0  0  0  0  0
    8.7251    2.5403    1.5404 H   0  0  0  0  0  0  0  0  0  0  0  0
    8.3481    2.9585   -0.1484 H   0  0  0  0  0  0  0  0  0  0  0  0
    7.9564    4.0853    1.1756 H   0  0  0  0  0  0  0  0  0  0  0  0
    7.3950    0.4818    1.6819 H   0  0  0  0  0  0  0  0  0  0  0  0
    5.1942   -0.5605    1.8548 H   0  0  0  0  0  0  0  0  0  0  0  0
   -0.5683   -4.5166    1.9541 H   0  0  0  0  0  0  0  0  0  0  0  0
   -2.1020   -3.7129    1.6513 H   0  0  0  0  0  0  0  0  0  0  0  0
   -0.0937   -4.7494   -0.4391 H   0  0  0  0  0  0  0  0  0  0  0  0
   -1.6523   -5.4642   -0.0484 H   0  0  0  0  0  0  0  0  0  0  0  0
   -1.1674   -2.7370   -1.3685 H   0  0  0  0  0  0  0  0  0  0  0  0
   -1.7585   -4.1945   -2.1620 H   0  0  0  0  0  0  0  0  0  0  0  0
   -2.8635   -1.4151   -1.6434 H   0  0  0  0  0  0  0  0  0  0  0  0
   -4.8519   -1.2799    0.0266 H   0  0  0  0  0  0  0  0  0  0  0  0
   -5.6521   -2.2657   -1.2169 H   0  0  0  0  0  0  0  0  0  0  0  0
   -6.8143   -0.5818   -3.1752 H   0  0  0  0  0  0  0  0  0  0  0  0
   -6.1922    1.9556   -3.9735 H   0  0  0  0  0  0  0  0  0  0  0  0
   -2.7140    2.7300   -2.6247 H   0  0  0  0  0  0  0  0  0  0  0  0
   -4.0903    3.6810   -3.2146 H   0  0  0  0  0  0  0  0  0  0  0  0
   -3.8572    3.4531   -1.4709 H   0  0  0  0  0  0  0  0  0  0  0  0
   -2.7054    0.5656    0.8043 H   0  0  0  0  0  0  0  0  0  0  0  0
   -1.7418    1.4627    1.9870 H   0  0  0  0  0  0  0  0  0  0  0  0
   -1.3809    1.6048    0.2420 H   0  0  0  0  0  0  0  0  0  0  0  0
    0.2055    2.6207    1.9507 H   0  0  0  0  0  0  0  0  0  0  0  0
    1.1207    2.9777    0.4850 H   0  0  0  0  0  0  0  0  0  0  0  0
    1.8905    3.0215    2.0977 H   0  0  0  0  0  0  0  0  0  0  0  0
    3.3835    3.1041    0.4074 H   0  0  0  0  0  0  0  0  0  0  0  0
    5.5739    4.1299    0.3004 H   0  0  0  0  0  0  0  0  0  0  0  0
  1  2  1  0
  2  3  2  0
  3  4  1  0
  4  5  2  0
  5  6  1  0
  6  7  1  0
  7  8  2  0
  8  9  1  0
  9 10  2  0
  9 11  1  0
 11 12  1  0
 12 13  1  0
 13 14  1  0
 14 15  1  0
 15 16  2  0
 15 17  1  0
 17 18  1  0
 18 19  1  0
 19 20  2  0
 20 21  1  0
 21 22  2  0
 22 23  1  0
 22 24  1  0
 11 25  1  0
 25 26  2  0
 26 27  1  0
 26 28  1  0
 28 29  2  0
 29 30  1  0
  5 31  1  0
 31 32  2  0
 32  2  1  0
 29  6  1  0
 28  8  1  0
 24 19  1  0
  1 33  1  0
  1 34  1  0
  1 35  1  0
  3 36  1  0
  4 37  1  0
 12 38  1  0
 12 39  1  0
 13 40  1  0
 13 41  1  0
 14 42  1  0
 14 43  1  0
 17 44  1  0
 18 45  1  0
 18 46  1  0
 20 47  1  0
 21 48  1  0
 23 49  1  0
 23 50  1  0
 23 51  1  0
 27 52  1  0
 27 53  1  0
 27 54  1  0
 30 55  1  0
 30 56  1  0
 30 57  1  0
 31 58  1  0
 32 59  1  0
M  END
$$$$
