
     RDKit          3D

 53 55  0  0  0  0  0  0  0  0999 V2000
    7.6867    2.4236    1.4991 C   0  0  0  0  0  0  0  0  0  0  0  0
    7.6280    1.0931    1.9970 O   0  0  0  0  0  0  0  0  0  0  0  0
    6.7349    0.2487    1.3968 C   0  0  0  0  0  0  0  0  0  0  0  0
    5.8759    0.5727    0.3472 C   0  0  0  0  0  0  0  0  0  0  0  0
    5.0088   -0.3934   -0.1755 C   0  0  0  0  0  0  0  0  0  0  0  0
    4.9932   -1.6972    0.3387 C   0  0  0  0  0  0  0  0  0  0  0  0
    4.0404   -2.7234   -0.2154 C   0  0  0  0  0  0  0  0  0  0  0  0
    2.7566   -2.6339    0.4282 N   0  0  0  0  0  0  0  0  0  0  0  0
    1.7134   -1.9132   -0.1019 C   0  0  0  0  0  0  0  0  0  0  0  0
    1.6858   -1.3768   -1.2008 O   0  0  0  0  0  0  0  0  0  0  0  0
    0.4952   -1.8117    0.8457 C   0  0  0  0  0  0  0  0  0  0  0  0
    0.5284   -2.3411    1.9479 O   0  0  0  0  0  0  0  0  0  0  0  0
   -0.5575   -1.1084    0.3165 N   0  0  0  0  0  0  0  0  0  0  0  0
   -1.8583   -1.0524    0.9643 C   0  0  0  0  0  0  0  0  0  0  0  0
   -2.7494    0.0787    0.4176 C   0  0  0  0  0  0  0  0  0  0  0  0
   -2.2177    1.3557    0.8196 O   0  0  0  0  0  0  0  0  0  0  0  0
   -2.5113    2.2593   -0.2492 C   0  0  0  0  0  0  0  0  0  0  0  0
   -2.3412    1.4221   -1.4968 C   0  0  0  0  0  0  0  0  0  0  0  0
   -2.7555    0.0871   -1.0564 N   0  0  0  0  0  0  0  0  0  0  0  0
   -3.9941   -0.7198   -1.8439 S   0  0  0  0  0  6  0  0  0  0  0  0
   -4.1836   -1.9885   -1.1738 O   0  0  0  0  0  0  0  0  0  0  0  0
   -3.7297   -0.6532   -3.2650 O   0  0  0  0  0  0  0  0  0  0  0  0
   -5.4369    0.2759   -1.5243 C   0  0  0  0  0  0  0  0  0  0  0  0
   -5.7749    1.3065   -2.4078 C   0  0  0  0  0  0  0  0  0  0  0  0
   -6.9163    2.0718   -2.1690 C   0  0  0  0  0  0  0  0  0  0  0  0
   -7.7243    1.7950   -1.0653 C   0  0  0  0  0  0  0  0  0  0  0  0
   -7.4028    0.7446   -0.2043 C   0  0  0  0  0  0  0  0  0  0  0  0
   -6.2633   -0.0256   -0.4370 C   0  0  0  0  0  0  0  0  0  0  0  0
    5.8496   -2.0132    1.3996 C   0  0  0  0  0  0  0  0  0  0  0  0
    6.7145   -1.0465    1.9189 C   0  0  0  0  0  0  0  0  0  0  0  0
    8.4432    2.9635    2.0768 H   0  0  0  0  0  0  0  0  0  0  0  0
    7.9964    2.4392    0.4489 H   0  0  0  0  0  0  0  0  0  0  0  0
    6.7310    2.9398    1.6381 H   0  0  0  0  0  0  0  0  0  0  0  0
    5.8502    1.5662   -0.0870 H   0  0  0  0  0  0  0  0  0  0  0  0
    4.3370   -0.1215   -0.9887 H   0  0  0  0  0  0  0  0  0  0  0  0
    3.9338   -2.5968   -1.2989 H   0  0  0  0  0  0  0  0  0  0  0  0
    4.4256   -3.7344   -0.0430 H   0  0  0  0  0  0  0  0  0  0  0  0
    2.6598   -2.9138    1.4000 H   0  0  0  0  0  0  0  0  0  0  0  0
   -0.4987   -0.8710   -0.6712 H   0  0  0  0  0  0  0  0  0  0  0  0
   -1.6991   -0.9240    2.0407 H   0  0  0  0  0  0  0  0  0  0  0  0
   -2.3302   -2.0272    0.8031 H   0  0  0  0  0  0  0  0  0  0  0  0
   -3.7524    0.0054    0.8453 H   0  0  0  0  0  0  0  0  0  0  0  0
   -1.8347    3.1170   -0.2162 H   0  0  0  0  0  0  0  0  0  0  0  0
   -3.5424    2.6111   -0.1330 H   0  0  0  0  0  0  0  0  0  0  0  0
   -2.9018    1.8231   -2.3424 H   0  0  0  0  0  0  0  0  0  0  0  0
   -1.2855    1.3670   -1.7849 H   0  0  0  0  0  0  0  0  0  0  0  0
   -5.1668    1.5108   -3.2864 H   0  0  0  0  0  0  0  0  0  0  0  0
   -7.1859    2.8756   -2.8504 H   0  0  0  0  0  0  0  0  0  0  0  0
   -8.6181    2.3885   -0.8854 H   0  0  0  0  0  0  0  0  0  0  0  0
   -8.0493    0.5193    0.6410 H   0  0  0  0  0  0  0  0  0  0  0  0
   -6.0366   -0.8585    0.2250 H   0  0  0  0  0  0  0  0  0  0  0  0
    5.8519   -3.0114    1.8310 H   0  0  0  0  0  0  0  0  0  0  0  0
    7.3780   -1.3041    2.7410 H   0  0  0  0  0  0  0  0  0  0  0  0
  1  2  1  0
  2  3  1  0
  3  4  2  0
  4  5  1  0
  5  6  2  0
  6  7  1  0
  7  8  1  0
  8  9  1  0
  9 10  2  0
  9 11  1  0
 11 12  2  0
 11 13  1  0
 13 14  1  0
 14 15  1  0
 15 16  1  0
 16 17  1  0
 17 18  1  0
 18 19  1  0
 19 20  1  0
 20 21  2  0
 20 22  2  0
 20 23  1  0
 23 24  2  0
 24 25  1  0
 25 26  2  0
 26 27  1  0
 27 28  2  0
  6 29  1  0
 29 30  2  0
 30  3  1  0
 19 15  1  0
 28 23  1  0
  1 31  1  0
  1 32  1  0
  1 33  1  0
  4 34  1  0
  5 35  1  0
  7 36  1  0
  7 37  1  0
  8 38  1  0
 13 39  1  0
 14 40  1  0
 14 41  1  0
 15 42  1  0
 17 43  1  0
 17 44  1  0
 18 45  1  0
 18 46  1  0
 24 47  1  0
 25 48  1  0
 26 49  1  0
 27 50  1  0
 28 51  1  0
 29 52  1  0
 30 53  1  0
M  END
$$$$
