
     RDKit          3D

 51 54  0  0  0  0  0  0  0  0999 V2000
   -3.5029   -4.2869    2.2853 C   0  0  0  0  0  0  0  0  0  0  0  0
   -2.2564   -4.3448    1.6031 O   0  0  0  0  0  0  0  0  0  0  0  0
   -1.7257   -3.1620    1.1641 C   0  0  0  0  0  0  0  0  0  0  0  0
   -2.2236   -1.8972    1.4624 C   0  0  0  0  0  0  0  0  0  0  0  0
   -1.5956   -0.7462    0.9461 C   0  0  0  0  0  0  0  0  0  0  0  0
   -2.1338    0.5768    1.2989 C   0  0  0  0  0  0  0  0  0  0  0  0
   -3.1161    0.6452    2.0368 O   0  0  0  0  0  0  0  0  0  0  0  0
   -1.4789    1.6813    0.7774 N   0  0  0  0  0  0  0  0  0  0  0  0
   -2.0154    2.9934    1.1082 C   0  0  0  0  0  0  0  0  0  0  0  0
   -3.0962    3.3448    0.1433 C   0  0  0  0  0  0  0  0  0  0  0  0
   -4.4482    3.0704    0.0966 C   0  0  0  0  0  0  0  0  0  0  0  0
   -4.9407    3.6836   -1.0780 C   0  0  0  0  0  0  0  0  0  0  0  0
   -3.8625    4.2932   -1.6716 C   0  0  0  0  0  0  0  0  0  0  0  0
   -2.7384    4.0928   -0.9385 O   0  0  0  0  0  0  0  0  0  0  0  0
   -0.3413    1.6283   -0.0115 C   0  0  0  0  0  0  0  0  0  0  0  0
    0.2590    2.6451   -0.3692 O   0  0  0  0  0  0  0  0  0  0  0  0
    0.1115    0.3647   -0.3838 N   0  0  0  0  0  0  0  0  0  0  0  0
    1.3138    0.3242   -1.2224 C   0  0  0  0  0  0  0  0  0  0  0  0
    2.5831    0.2657   -0.3717 C   0  0  0  0  0  0  0  0  0  0  0  0
    2.5940   -0.2095    0.7652 O   0  0  0  0  0  0  0  0  0  0  0  0
    3.8687    0.7553   -0.9581 C   0  0  0  0  0  0  0  0  0  0  0  0
    4.0202    1.0207   -2.3279 C   0  0  0  0  0  0  0  0  0  0  0  0
    5.2471    1.4719   -2.8253 C   0  0  0  0  0  0  0  0  0  0  0  0
    6.3296    1.6513   -1.9627 C   0  0  0  0  0  0  0  0  0  0  0  0
    6.1835    1.3788   -0.6022 C   0  0  0  0  0  0  0  0  0  0  0  0
    7.6558    1.6094    0.5637 Br  0  0  0  0  0  0  0  0  0  0  0  0
    4.9635    0.9328   -0.0962 C   0  0  0  0  0  0  0  0  0  0  0  0
   -0.4770   -0.8294    0.1167 C   0  0  0  0  0  0  0  0  0  0  0  0
    0.0273   -2.1038   -0.1710 C   0  0  0  0  0  0  0  0  0  0  0  0
   -0.5779   -3.2471    0.3665 C   0  0  0  0  0  0  0  0  0  0  0  0
   -0.0316   -4.4644    0.0354 O   0  0  0  0  0  0  0  0  0  0  0  0
    0.8464   -4.8933    1.0822 C   0  0  0  0  0  0  0  0  0  0  0  0
   -3.4012   -3.7710    3.2466 H   0  0  0  0  0  0  0  0  0  0  0  0
   -4.2764   -3.8195    1.6652 H   0  0  0  0  0  0  0  0  0  0  0  0
   -3.8175   -5.3153    2.4897 H   0  0  0  0  0  0  0  0  0  0  0  0
   -3.0926   -1.7710    2.1022 H   0  0  0  0  0  0  0  0  0  0  0  0
   -1.2297    3.7564    1.0879 H   0  0  0  0  0  0  0  0  0  0  0  0
   -2.4223    2.9828    2.1259 H   0  0  0  0  0  0  0  0  0  0  0  0
   -5.0011    2.4915    0.8229 H   0  0  0  0  0  0  0  0  0  0  0  0
   -5.9559    3.6822   -1.4470 H   0  0  0  0  0  0  0  0  0  0  0  0
   -3.7337    4.8775   -2.5699 H   0  0  0  0  0  0  0  0  0  0  0  0
    1.3324    1.2287   -1.8389 H   0  0  0  0  0  0  0  0  0  0  0  0
    1.2828   -0.5227   -1.9132 H   0  0  0  0  0  0  0  0  0  0  0  0
    3.2061    0.8846   -3.0354 H   0  0  0  0  0  0  0  0  0  0  0  0
    5.3655    1.6766   -3.8906 H   0  0  0  0  0  0  0  0  0  0  0  0
    7.2840    1.9944   -2.3593 H   0  0  0  0  0  0  0  0  0  0  0  0
    4.8604    0.7220    0.9681 H   0  0  0  0  0  0  0  0  0  0  0  0
    0.9067   -2.2576   -0.7875 H   0  0  0  0  0  0  0  0  0  0  0  0
    0.3569   -4.8977    2.0617 H   0  0  0  0  0  0  0  0  0  0  0  0
    1.1503   -5.9201    0.8631 H   0  0  0  0  0  0  0  0  0  0  0  0
    1.7438   -4.2667    1.1000 H   0  0  0  0  0  0  0  0  0  0  0  0
  1  2  1  0
  2  3  1  0
  3  4  2  0
  4  5  1  0
  5  6  1  0
  6  7  2  0
  6  8  1  0
  8  9  1  0
  9 10  1  0
 10 11  2  0
 11 12  1  0
 12 13  2  0
 13 14  1  0
  8 15  1  0
 15 16  2  0
 15 17  1  0
 17 18  1  0
 18 19  1  0
 19 20  2  0
 19 21  1  0
 21 22  2  0
 22 23  1  0
 23 24  2  0
 24 25  1  0
 25 26  1  0
 25 27  2  0
 17 28  1  0
 28 29  1  0
 29 30  2  0
 30 31  1  0
 31 32  1  0
 30  3  1  0
 28  5  2  0
 14 10  1  0
 27 21  1  0
  1 33  1  0
  1 34  1  0
  1 35  1  0
  4 36  1  0
  9 37  1  0
  9 38  1  0
 11 39  1  0
 12 40  1  0
 13 41  1  0
 18 42  1  0
 18 43  1  0
 22 44  1  0
 23 45  1  0
 24 46  1  0
 27 47  1  0
 29 48  1  0
 32 49  1  0
 32 50  1  0
 32 51  1  0
M  END
$$$$
