
     RDKit          3D

 65 68  0  0  0  0  0  0  0  0999 V2000
    7.3067    0.2439    5.8606 C   0  0  0  0  0  0  0  0  0  0  0  0
    6.5889    0.3322    4.5787 C   0  0  0  0  0  0  0  0  0  0  0  0
    5.2734    0.2067    4.2075 C   0  0  0  0  0  0  0  0  0  0  0  0
    5.2808    0.3960    2.8073 C   0  0  0  0  0  0  0  0  0  0  0  0
    4.2341    0.3790    1.9141 N   0  0  0  0  0  0  0  0  0  0  0  0
    2.9234    0.1001    2.2267 C   0  0  0  0  0  0  0  0  0  0  0  0
    2.4937   -0.1805    3.3385 O   0  0  0  0  0  0  0  0  0  0  0  0
    2.0266    0.2045    1.0103 C   0  0  0  0  0  0  0  0  0  0  0  0
    0.6096   -0.2942    1.2915 C   0  0  0  0  0  0  0  0  0  0  0  0
   -0.2733   -0.1081    0.0739 C   0  0  0  0  0  0  0  0  0  0  0  0
    0.0181    0.7350   -0.7794 O   0  0  0  0  0  0  0  0  0  0  0  0
   -1.4295   -0.8703   -0.0197 N   0  0  0  0  0  0  0  0  0  0  0  0
   -2.1398   -1.3393    1.1731 C   0  0  0  0  0  0  0  0  0  0  0  0
   -2.3728   -2.8208    1.1344 C   0  0  0  0  0  0  0  0  0  0  0  0
   -3.5688   -3.4885    0.9441 C   0  0  0  0  0  0  0  0  0  0  0  0
   -3.4156   -4.9039    0.9788 C   0  0  0  0  0  0  0  0  0  0  0  0
   -2.1106   -5.2732    1.2102 C   0  0  0  0  0  0  0  0  0  0  0  0
   -1.0803   -3.9205    1.3855 S   0  0  0  0  0  0  0  0  0  0  0  0
   -2.1806   -0.9146   -1.3055 C   0  0  0  0  0  0  0  0  0  0  0  0
   -3.0407    0.3364   -1.6450 C   0  0  0  0  0  0  0  0  0  0  0  0
   -4.0274    0.2618   -2.3776 O   0  0  0  0  0  0  0  0  0  0  0  0
   -2.6059    1.5390   -1.1243 N   0  0  0  0  0  0  0  0  0  0  0  0
   -3.2303    2.8006   -1.4925 C   0  0  0  0  0  0  0  0  0  0  0  0
   -3.0640    3.8328   -0.3647 C   0  0  0  0  0  0  0  0  0  0  0  0
   -2.2576    4.9852   -0.9570 C   0  0  0  0  0  0  0  0  0  0  0  0
   -1.5192    4.3720   -2.1340 C   0  0  0  0  0  0  0  0  0  0  0  0
   -2.5460    3.4108   -2.7205 C   0  0  0  0  0  0  0  0  0  0  0  0
   -1.3311   -1.4335   -2.4662 C   0  0  0  0  0  0  0  0  0  0  0  0
   -1.1363   -2.8181   -2.6133 C   0  0  0  0  0  0  0  0  0  0  0  0
   -0.3383   -3.3247   -3.6402 C   0  0  0  0  0  0  0  0  0  0  0  0
    0.2889   -2.4574   -4.5281 C   0  0  0  0  0  0  0  0  0  0  0  0
    0.1122   -1.0828   -4.3961 C   0  0  0  0  0  0  0  0  0  0  0  0
   -0.6910   -0.5759   -3.3723 C   0  0  0  0  0  0  0  0  0  0  0  0
    6.5222    0.6225    2.3620 N   0  0  0  0  0  0  0  0  0  0  0  0
    7.3436    0.5671    3.4722 O   0  0  0  0  0  0  0  0  0  0  0  0
    6.6637    0.5651    6.6871 H   0  0  0  0  0  0  0  0  0  0  0  0
    8.1965    0.8819    5.8578 H   0  0  0  0  0  0  0  0  0  0  0  0
    7.6217   -0.7869    6.0492 H   0  0  0  0  0  0  0  0  0  0  0  0
    4.4376   -0.0049    4.8557 H   0  0  0  0  0  0  0  0  0  0  0  0
    4.5112    0.5509    0.9549 H   0  0  0  0  0  0  0  0  0  0  0  0
    2.0096    1.2582    0.7026 H   0  0  0  0  0  0  0  0  0  0  0  0
    2.4663   -0.3788    0.1902 H   0  0  0  0  0  0  0  0  0  0  0  0
    0.6504   -1.3536    1.5627 H   0  0  0  0  0  0  0  0  0  0  0  0
    0.1730    0.2671    2.1255 H   0  0  0  0  0  0  0  0  0  0  0  0
   -3.0966   -0.8026    1.2089 H   0  0  0  0  0  0  0  0  0  0  0  0
   -1.6145   -1.0719    2.0946 H   0  0  0  0  0  0  0  0  0  0  0  0
   -4.5145   -2.9859    0.7789 H   0  0  0  0  0  0  0  0  0  0  0  0
   -4.2234   -5.6134    0.8468 H   0  0  0  0  0  0  0  0  0  0  0  0
   -1.7111   -6.2741    1.2899 H   0  0  0  0  0  0  0  0  0  0  0  0
   -2.9557   -1.6812   -1.1698 H   0  0  0  0  0  0  0  0  0  0  0  0
   -1.6096    1.5699   -0.9086 H   0  0  0  0  0  0  0  0  0  0  0  0
   -4.2917    2.6196   -1.6978 H   0  0  0  0  0  0  0  0  0  0  0  0
   -4.0397    4.1900   -0.0127 H   0  0  0  0  0  0  0  0  0  0  0  0
   -2.5446    3.4061    0.5026 H   0  0  0  0  0  0  0  0  0  0  0  0
   -2.9391    5.7684   -1.3127 H   0  0  0  0  0  0  0  0  0  0  0  0
   -1.5771    5.4365   -0.2271 H   0  0  0  0  0  0  0  0  0  0  0  0
   -0.6373    3.8192   -1.7930 H   0  0  0  0  0  0  0  0  0  0  0  0
   -1.1945    5.1243   -2.8591 H   0  0  0  0  0  0  0  0  0  0  0  0
   -2.0718    2.6681   -3.3723 H   0  0  0  0  0  0  0  0  0  0  0  0
   -3.2739    3.9727   -3.3204 H   0  0  0  0  0  0  0  0  0  0  0  0
   -1.6112   -3.5155   -1.9283 H   0  0  0  0  0  0  0  0  0  0  0  0
   -0.2056   -4.3978   -3.7456 H   0  0  0  0  0  0  0  0  0  0  0  0
    0.9135   -2.8531   -5.3248 H   0  0  0  0  0  0  0  0  0  0  0  0
    0.6019   -0.4006   -5.0856 H   0  0  0  0  0  0  0  0  0  0  0  0
   -0.7964    0.5027   -3.2849 H   0  0  0  0  0  0  0  0  0  0  0  0
  1  2  1  0
  2  3  2  0
  3  4  1  0
  4  5  1  0
  5  6  1  0
  6  7  2  0
  6  8  1  0
  8  9  1  0
  9 10  1  0
 10 11  2  0
 10 12  1  0
 12 13  1  0
 13 14  1  0
 14 15  2  0
 15 16  1  0
 16 17  2  0
 17 18  1  0
 12 19  1  0
 19 20  1  0
 20 21  2  0
 20 22  1  0
 22 23  1  0
 23 24  1  0
 24 25  1  0
 25 26  1  0
 26 27  1  0
 19 28  1  0
 28 29  2  0
 29 30  1  0
 30 31  2  0
 31 32  1  0
 32 33  2  0
  4 34  2  0
 34 35  1  0
 35  2  1  0
 18 14  1  0
 27 23  1  0
 33 28  1  0
  1 36  1  0
  1 37  1  0
  1 38  1  0
  3 39  1  0
  5 40  1  0
  8 41  1  0
  8 42  1  0
  9 43  1  0
  9 44  1  0
 13 45  1  0
 13 46  1  0
 15 47  1  0
 16 48  1  0
 17 49  1  0
 19 50  1  0
 22 51  1  0
 23 52  1  0
 24 53  1  0
 24 54  1  0
 25 55  1  0
 25 56  1  0
 26 57  1  0
 26 58  1  0
 27 59  1  0
 27 60  1  0
 29 61  1  0
 30 62  1  0
 31 63  1  0
 32 64  1  0
 33 65  1  0
M  END
$$$$
