
     RDKit          3D

 37 38  0  0  0  0  0  0  0  0999 V2000
    0.5359    0.8306   -0.0707 O   0  0  0  0  0  0  0  0  0  0  0  0
    0.5679    0.1352   -1.0777 C   0  0  0  0  0  0  0  0  0  0  0  0
   -0.6930   -0.4228   -1.7245 C   0  0  0  0  0  0  0  0  0  0  0  0
   -1.9682   -0.1281   -0.9358 C   0  0  0  0  0  0  0  0  0  0  0  0
   -2.0763   -0.9760    0.3358 C   0  0  0  0  0  0  0  0  0  0  0  0
   -3.3494   -0.6813    1.0892 C   0  0  0  0  0  0  0  0  0  0  0  0
   -3.3990    0.3836    1.9988 C   0  0  0  0  0  0  0  0  0  0  0  0
   -4.5785    0.6715    2.6868 C   0  0  0  0  0  0  0  0  0  0  0  0
   -5.7191   -0.0990    2.4690 C   0  0  0  0  0  0  0  0  0  0  0  0
   -5.6819   -1.1565    1.5618 C   0  0  0  0  0  0  0  0  0  0  0  0
   -4.5030   -1.4460    0.8724 C   0  0  0  0  0  0  0  0  0  0  0  0
    1.7035   -0.2363   -1.7810 N   0  0  0  0  0  0  0  0  0  0  0  0
    3.0444    0.0865   -1.4837 C   0  0  0  0  0  0  0  0  0  0  0  0
    4.0217   -0.3969   -2.3674 C   0  0  0  0  0  0  0  0  0  0  0  0
    5.3775   -0.1298   -2.1595 C   0  0  0  0  0  0  0  0  0  0  0  0
    5.7759    0.6261   -1.0605 C   0  0  0  0  0  0  0  0  0  0  0  0
    4.8059    1.1101   -0.1732 C   0  0  0  0  0  0  0  0  0  0  0  0
    5.2270    1.9062    0.9875 N   0  0  0  0  0  4  0  0  0  0  0  0
    4.3617    2.2473    1.8048 O   0  0  0  0  0  0  0  0  0  0  0  0
    6.4306    2.1892    1.0824 O   0  0  0  0  0  1  0  0  0  0  0  0
    3.4428    0.8438   -0.3794 C   0  0  0  0  0  0  0  0  0  0  0  0
   -0.5768   -1.5038   -1.8647 H   0  0  0  0  0  0  0  0  0  0  0  0
   -0.7793    0.0387   -2.7158 H   0  0  0  0  0  0  0  0  0  0  0  0
   -2.8309   -0.3385   -1.5811 H   0  0  0  0  0  0  0  0  0  0  0  0
   -2.0196    0.9393   -0.6867 H   0  0  0  0  0  0  0  0  0  0  0  0
   -1.2211   -0.8024    0.9996 H   0  0  0  0  0  0  0  0  0  0  0  0
   -2.0433   -2.0425    0.0790 H   0  0  0  0  0  0  0  0  0  0  0  0
   -2.5155    0.9950    2.1739 H   0  0  0  0  0  0  0  0  0  0  0  0
   -4.6059    1.4981    3.3918 H   0  0  0  0  0  0  0  0  0  0  0  0
   -6.6370    0.1259    3.0054 H   0  0  0  0  0  0  0  0  0  0  0  0
   -6.5720   -1.7559    1.3905 H   0  0  0  0  0  0  0  0  0  0  0  0
   -4.4904   -2.2720    0.1657 H   0  0  0  0  0  0  0  0  0  0  0  0
    1.5544   -0.7968   -2.6112 H   0  0  0  0  0  0  0  0  0  0  0  0
    3.7414   -0.9899   -3.2354 H   0  0  0  0  0  0  0  0  0  0  0  0
    6.1210   -0.5119   -2.8557 H   0  0  0  0  0  0  0  0  0  0  0  0
    6.8345    0.8275   -0.9086 H   0  0  0  0  0  0  0  0  0  0  0  0
    2.7139    1.2320    0.3257 H   0  0  0  0  0  0  0  0  0  0  0  0
  1  2  2  0
  2  3  1  0
  3  4  1  0
  4  5  1  0
  5  6  1  0
  6  7  2  0
  7  8  1  0
  8  9  2  0
  9 10  1  0
 10 11  2  0
  2 12  1  0
 12 13  1  0
 13 14  2  0
 14 15  1  0
 15 16  2  0
 16 17  1  0
 17 18  1  0
 18 19  2  0
 18 20  1  0
 17 21  2  0
 11  6  1  0
 21 13  1  0
  3 22  1  0
  3 23  1  0
  4 24  1  0
  4 25  1  0
  5 26  1  0
  5 27  1  0
  7 28  1  0
  8 29  1  0
  9 30  1  0
 10 31  1  0
 11 32  1  0
 12 33  1  0
 14 34  1  0
 15 35  1  0
 16 36  1  0
 21 37  1  0
M  CHG  2  18   1  20  -1
M  END
$$$$
