
     RDKit          3D

 69 74  0  0  0  0  0  0  0  0999 V2000
    7.4309   -0.8807   -1.3610 C   0  0  0  0  0  0  0  0  0  0  0  0
    6.8458   -1.3645   -0.1609 O   0  0  0  0  0  0  0  0  0  0  0  0
    5.4822   -1.2721   -0.0333 C   0  0  0  0  0  0  0  0  0  0  0  0
    4.6239   -0.8095   -1.0368 C   0  0  0  0  0  0  0  0  0  0  0  0
    3.2399   -0.7397   -0.8204 C   0  0  0  0  0  0  0  0  0  0  0  0
    2.7072   -1.1191    0.4247 C   0  0  0  0  0  0  0  0  0  0  0  0
    3.5687   -1.6032    1.4229 C   0  0  0  0  0  0  0  0  0  0  0  0
    4.9494   -1.6734    1.2072 C   0  0  0  0  0  0  0  0  0  0  0  0
    5.8542   -2.1281    2.1358 O   0  0  0  0  0  0  0  0  0  0  0  0
    5.3925   -2.3123    3.4652 C   0  0  0  0  0  0  0  0  0  0  0  0
    1.2129   -1.0711    0.6889 C   0  0  0  0  0  0  0  0  0  0  0  0
    0.5485   -0.1545   -0.2514 N   0  0  0  0  0  0  0  0  0  0  0  0
   -0.8368   -0.1681   -0.0045 C   0  0  0  0  0  0  0  0  0  0  0  0
   -1.5974   -1.1687   -0.5023 N   0  0  0  0  0  0  0  0  0  0  0  0
   -2.9253   -1.1865   -0.2639 C   0  0  0  0  0  0  0  0  0  0  0  0
   -3.7278   -2.3252   -0.8850 C   0  0  0  0  0  0  0  0  0  0  0  0
   -4.0623   -2.1446   -2.3169 N   0  0  0  0  0  0  0  0  0  0  0  0
   -4.6730   -3.3590   -2.8921 C   0  0  0  0  0  0  0  0  0  0  0  0
   -6.2025   -3.2827   -3.0090 C   0  0  0  0  0  0  0  0  0  0  0  0
   -6.6532   -2.1893   -3.8185 O   0  0  0  0  0  0  0  0  0  0  0  0
   -5.7443   -1.0784   -3.8224 C   0  0  0  0  0  0  0  0  0  0  0  0
   -4.9398   -0.9685   -2.5182 C   0  0  0  0  0  0  0  0  0  0  0  0
   -3.6072   -0.2838    0.4553 N   0  0  0  0  0  0  0  0  0  0  0  0
   -2.8288    0.6989    0.9351 C   0  0  0  0  0  0  0  0  0  0  0  0
   -3.5108    1.9532    1.8655 S   0  0  0  0  0  0  0  0  0  0  0  0
   -2.0072    2.7284    2.0307 C   0  0  0  0  0  0  0  0  0  0  0  0
   -0.9814    2.0354    1.4144 C   0  0  0  0  0  0  0  0  0  0  0  0
   -1.4610    0.8377    0.7618 C   0  0  0  0  0  0  0  0  0  0  0  0
    0.4281    2.5546    1.4162 C   0  0  0  0  0  0  0  0  0  0  0  0
    0.6388    3.6488    2.4743 C   0  0  0  0  0  0  0  0  0  0  0  0
   -0.5062    4.6823    2.4707 C   0  0  0  0  0  0  0  0  0  0  0  0
   -0.2203    5.8043    3.4678 C   0  0  0  0  0  0  0  0  0  0  0  0
   -1.8581    4.0096    2.7941 C   0  0  0  0  0  0  0  0  0  0  0  0
    0.8585   -0.4995   -1.6465 C   0  0  0  0  0  0  0  0  0  0  0  0
    2.3380   -0.1881   -1.9026 C   0  0  0  0  0  0  0  0  0  0  0  0
    8.5169   -0.9805   -1.2675 H   0  0  0  0  0  0  0  0  0  0  0  0
    7.2085    0.1806   -1.5131 H   0  0  0  0  0  0  0  0  0  0  0  0
    7.1151   -1.4785   -2.2217 H   0  0  0  0  0  0  0  0  0  0  0  0
    5.0078   -0.4910   -2.0008 H   0  0  0  0  0  0  0  0  0  0  0  0
    3.1346   -1.9226    2.3651 H   0  0  0  0  0  0  0  0  0  0  0  0
    4.7024   -3.1586    3.5273 H   0  0  0  0  0  0  0  0  0  0  0  0
    6.2599   -2.5465    4.0896 H   0  0  0  0  0  0  0  0  0  0  0  0
    4.9360   -1.3997    3.8622 H   0  0  0  0  0  0  0  0  0  0  0  0
    0.8187   -2.0933    0.5993 H   0  0  0  0  0  0  0  0  0  0  0  0
    1.0503   -0.7241    1.7181 H   0  0  0  0  0  0  0  0  0  0  0  0
   -4.6361   -2.4907   -0.2912 H   0  0  0  0  0  0  0  0  0  0  0  0
   -3.1130   -3.2276   -0.7723 H   0  0  0  0  0  0  0  0  0  0  0  0
   -4.2595   -3.4729   -3.9015 H   0  0  0  0  0  0  0  0  0  0  0  0
   -4.3816   -4.2616   -2.3422 H   0  0  0  0  0  0  0  0  0  0  0  0
   -6.5889   -4.2017   -3.4603 H   0  0  0  0  0  0  0  0  0  0  0  0
   -6.6623   -3.1890   -2.0197 H   0  0  0  0  0  0  0  0  0  0  0  0
   -6.3379   -0.1713   -3.9771 H   0  0  0  0  0  0  0  0  0  0  0  0
   -5.0777   -1.1817   -4.6871 H   0  0  0  0  0  0  0  0  0  0  0  0
   -4.3289   -0.0590   -2.5456 H   0  0  0  0  0  0  0  0  0  0  0  0
   -5.6551   -0.8762   -1.6906 H   0  0  0  0  0  0  0  0  0  0  0  0
    0.6478    2.9648    0.4222 H   0  0  0  0  0  0  0  0  0  0  0  0
    1.1425    1.7475    1.6051 H   0  0  0  0  0  0  0  0  0  0  0  0
    1.5993    4.1431    2.2885 H   0  0  0  0  0  0  0  0  0  0  0  0
    0.7068    3.1885    3.4681 H   0  0  0  0  0  0  0  0  0  0  0  0
   -0.5644    5.1231    1.4661 H   0  0  0  0  0  0  0  0  0  0  0  0
    0.7299    6.2992    3.2396 H   0  0  0  0  0  0  0  0  0  0  0  0
   -1.0109    6.5616    3.4399 H   0  0  0  0  0  0  0  0  0  0  0  0
   -0.1617    5.4131    4.4901 H   0  0  0  0  0  0  0  0  0  0  0  0
   -1.9206    3.7850    3.8665 H   0  0  0  0  0  0  0  0  0  0  0  0
   -2.6736    4.7025    2.5534 H   0  0  0  0  0  0  0  0  0  0  0  0
    0.2516    0.0924   -2.3437 H   0  0  0  0  0  0  0  0  0  0  0  0
    0.6618   -1.5622   -1.8468 H   0  0  0  0  0  0  0  0  0  0  0  0
    2.4803    0.9000   -1.9347 H   0  0  0  0  0  0  0  0  0  0  0  0
    2.6257   -0.5956   -2.8791 H   0  0  0  0  0  0  0  0  0  0  0  0
  1  2  1  0
  2  3  1  0
  3  4  2  0
  4  5  1  0
  5  6  2  0
  6  7  1  0
  7  8  2  0
  8  9  1  0
  9 10  1  0
  6 11  1  0
 11 12  1  0
 12 13  1  0
 13 14  2  0
 14 15  1  0
 15 16  1  0
 16 17  1  0
 17 18  1  0
 18 19  1  0
 19 20  1  0
 20 21  1  0
 21 22  1  0
 15 23  2  0
 23 24  1  0
 24 25  1  0
 25 26  1  0
 26 27  2  0
 27 28  1  0
 27 29  1  0
 29 30  1  0
 30 31  1  0
 31 32  1  0
 31 33  1  0
 12 34  1  0
 34 35  1  0
  8  3  1  0
 28 13  1  0
 35  5  1  0
 22 17  1  0
 28 24  2  0
 33 26  1  0
  1 36  1  0
  1 37  1  0
  1 38  1  0
  4 39  1  0
  7 40  1  0
 10 41  1  0
 10 42  1  0
 10 43  1  0
 11 44  1  0
 11 45  1  0
 16 46  1  0
 16 47  1  0
 18 48  1  0
 18 49  1  0
 19 50  1  0
 19 51  1  0
 21 52  1  0
 21 53  1  0
 22 54  1  0
 22 55  1  0
 29 56  1  0
 29 57  1  0
 30 58  1  0
 30 59  1  0
 31 60  1  0
 32 61  1  0
 32 62  1  0
 32 63  1  0
 33 64  1  0
 33 65  1  0
 34 66  1  0
 34 67  1  0
 35 68  1  0
 35 69  1  0
M  END
$$$$
