
     RDKit          3D

 87 91  0  0  0  0  0  0  0  0999 V2000
   -0.7897    6.4230   -0.3191 C   0  0  0  0  0  0  0  0  0  0  0  0
   -0.0643    6.6202   -1.6388 C   0  0  0  0  0  0  0  0  0  0  0  0
    0.4000    5.3206   -2.2475 C   0  0  0  0  0  0  0  0  0  0  0  0
    0.2327    5.0207   -3.4245 O   0  0  0  0  0  0  0  0  0  0  0  0
    1.0722    4.5673   -1.3353 O   0  0  0  0  0  0  0  0  0  0  0  0
    1.6009    3.3190   -1.8051 C   0  0  0  0  0  0  0  0  0  0  0  0
    0.5339    2.2261   -1.7936 C   0  0  1  0  0  0  0  0  0  0  0  0
    1.1053    0.8333   -2.0950 C   0  0  0  0  0  0  0  0  0  0  0  0
    0.2386   -0.2280   -1.2973 C   0  0  2  0  0  0  0  0  0  0  0  0
    1.0985   -0.7756   -0.2951 O   0  0  0  0  0  0  0  0  0  0  0  0
    2.1988   -1.4312   -0.7346 C   0  0  0  0  0  0  0  0  0  0  0  0
    2.4084   -1.8102   -1.8758 O   0  0  0  0  0  0  0  0  0  0  0  0
    3.1602   -1.5321    0.3783 C   0  0  0  0  0  0  0  0  0  0  0  0
    4.2443   -2.3051    0.2334 C   0  0  0  0  0  0  0  0  0  0  0  0
    5.2906   -2.3284    1.2531 C   0  0  0  0  0  0  0  0  0  0  0  0
    5.2358   -3.2334    2.3175 C   0  0  0  0  0  0  0  0  0  0  0  0
    6.2373   -3.2252    3.2932 C   0  0  0  0  0  0  0  0  0  0  0  0
    7.2935   -2.3150    3.2062 C   0  0  0  0  0  0  0  0  0  0  0  0
    7.3523   -1.4148    2.1416 C   0  0  0  0  0  0  0  0  0  0  0  0
    6.3521   -1.4192    1.1683 C   0  0  0  0  0  0  0  0  0  0  0  0
   -0.4737   -1.2042   -2.2934 C   0  0  0  0  0  0  0  0  0  0  0  0
   -0.6603   -0.9108   -3.4772 O   0  0  0  0  0  0  0  0  0  0  0  0
   -1.0095   -2.5123   -1.8069 C   0  0  0  0  0  0  0  0  0  0  0  0
   -0.0343   -3.6470   -1.7166 C   0  0  0  0  0  0  0  0  0  0  0  0
   -2.3325   -2.6897   -1.6051 C   0  0  0  0  0  0  0  0  0  0  0  0
   -3.4234   -1.7080   -1.6916 C   0  0  0  0  0  0  0  0  0  0  0  0
   -4.2947   -1.4071   -0.4811 C   0  0  2  0  0  0  0  0  0  0  0  0
   -4.1161   -2.0705    0.8637 C   0  0  0  0  0  0  0  0  0  0  0  0
   -3.2965   -1.2148    1.8488 C   0  0  0  0  0  0  0  0  0  0  0  0
   -1.8872   -0.9751    1.3433 C   0  0  2  0  0  0  0  0  0  0  0  0
   -0.9489   -2.1141    1.5856 C   0  0  0  0  0  0  0  0  0  0  0  0
   -1.2657    0.2471    1.7834 O   0  0  0  0  0  0  0  0  0  0  0  0
   -1.7585    0.2754    0.4503 C   0  0  1  0  0  0  0  0  0  0  0  0
   -0.8500    0.6723   -0.6648 C   0  0  1  0  0  0  0  0  0  0  0  0
   -0.1860    2.0468   -0.4563 C   0  0  1  0  0  0  0  0  0  0  0  0
    0.7720    1.9865    0.6136 O   0  0  0  0  0  0  0  0  0  0  0  0
    0.4424    2.6656    1.7533 C   0  0  0  0  0  0  0  0  0  0  0  0
   -0.5031    3.4318    1.8765 O   0  0  0  0  0  0  0  0  0  0  0  0
    1.4412    2.3339    2.8343 C   0  0  0  0  0  0  0  0  0  0  0  0
    0.9113    2.6725    4.2176 C   0  0  0  0  0  0  0  0  0  0  0  0
   -4.8921   -2.1315   -1.6800 C   0  0  0  0  0  0  0  0  0  0  0  0
   -5.8186   -1.3294   -2.5751 C   0  0  0  0  0  0  0  0  0  0  0  0
   -5.3055   -3.5801   -1.5733 C   0  0  0  0  0  0  0  0  0  0  0  0
   -1.6364    5.7341   -0.4325 H   0  0  0  0  0  0  0  0  0  0  0  0
   -0.1179    6.0041    0.4395 H   0  0  0  0  0  0  0  0  0  0  0  0
   -1.1732    7.3835    0.0509 H   0  0  0  0  0  0  0  0  0  0  0  0
    0.7983    7.2817   -1.5169 H   0  0  0  0  0  0  0  0  0  0  0  0
   -0.7447    7.0987   -2.3487 H   0  0  0  0  0  0  0  0  0  0  0  0
    2.4235    3.0634   -1.1304 H   0  0  0  0  0  0  0  0  0  0  0  0
    2.0474    3.4325   -2.8003 H   0  0  0  0  0  0  0  0  0  0  0  0
   -0.2207    2.4613   -2.5570 H   0  0  0  0  0  0  0  0  0  0  0  0
    2.1477    0.8155   -1.7670 H   0  0  0  0  0  0  0  0  0  0  0  0
    1.1253    0.6566   -3.1786 H   0  0  0  0  0  0  0  0  0  0  0  0
    2.9898   -0.9101    1.2525 H   0  0  0  0  0  0  0  0  0  0  0  0
    4.4165   -2.9274   -0.6489 H   0  0  0  0  0  0  0  0  0  0  0  0
    4.4232   -3.9505    2.3945 H   0  0  0  0  0  0  0  0  0  0  0  0
    6.1947   -3.9273    4.1222 H   0  0  0  0  0  0  0  0  0  0  0  0
    8.0730   -2.3094    3.9664 H   0  0  0  0  0  0  0  0  0  0  0  0
    8.1804   -0.7114    2.0656 H   0  0  0  0  0  0  0  0  0  0  0  0
    6.4078   -0.7118    0.3437 H   0  0  0  0  0  0  0  0  0  0  0  0
   -0.5342   -4.6178   -1.7650 H   0  0  0  0  0  0  0  0  0  0  0  0
    0.5031   -3.6083   -0.7691 H   0  0  0  0  0  0  0  0  0  0  0  0
    0.6830   -3.6238   -2.5379 H   0  0  0  0  0  0  0  0  0  0  0  0
   -2.6307   -3.6955   -1.3282 H   0  0  0  0  0  0  0  0  0  0  0  0
   -3.1953   -0.8741   -2.3521 H   0  0  0  0  0  0  0  0  0  0  0  0
   -4.6258   -0.3804   -0.3468 H   0  0  0  0  0  0  0  0  0  0  0  0
   -5.1102   -2.2337    1.2978 H   0  0  0  0  0  0  0  0  0  0  0  0
   -3.6563   -3.0598    0.7739 H   0  0  0  0  0  0  0  0  0  0  0  0
   -3.8152   -0.2632    2.0248 H   0  0  0  0  0  0  0  0  0  0  0  0
   -3.2622   -1.7254    2.8192 H   0  0  0  0  0  0  0  0  0  0  0  0
   -0.9309   -2.3541    2.6583 H   0  0  0  0  0  0  0  0  0  0  0  0
   -1.2781   -3.0198    1.0724 H   0  0  0  0  0  0  0  0  0  0  0  0
    0.0819   -1.9020    1.3140 H   0  0  0  0  0  0  0  0  0  0  0  0
   -2.6697    0.8602    0.3336 H   0  0  0  0  0  0  0  0  0  0  0  0
   -1.5716    0.8374   -1.4845 H   0  0  0  0  0  0  0  0  0  0  0  0
   -0.9269    2.8425   -0.3139 H   0  0  0  0  0  0  0  0  0  0  0  0
    1.6578    1.2615    2.7917 H   0  0  0  0  0  0  0  0  0  0  0  0
    2.3609    2.8912    2.6314 H   0  0  0  0  0  0  0  0  0  0  0  0
    0.6905    3.7436    4.3077 H   0  0  0  0  0  0  0  0  0  0  0  0
   -0.0094    2.1210    4.4375 H   0  0  0  0  0  0  0  0  0  0  0  0
    1.6537    2.4135    4.9802 H   0  0  0  0  0  0  0  0  0  0  0  0
   -5.5215   -0.2753   -2.6335 H   0  0  0  0  0  0  0  0  0  0  0  0
   -6.8434   -1.3606   -2.1917 H   0  0  0  0  0  0  0  0  0  0  0  0
   -5.8109   -1.7392   -3.5939 H   0  0  0  0  0  0  0  0  0  0  0  0
   -6.3546   -3.6466   -1.2684 H   0  0  0  0  0  0  0  0  0  0  0  0
   -4.7269   -4.1525   -0.8445 H   0  0  0  0  0  0  0  0  0  0  0  0
   -5.2038   -4.0716   -2.5469 H   0  0  0  0  0  0  0  0  0  0  0  0
  1  2  1  0
  2  3  1  0
  3  4  2  0
  3  5  1  0
  5  6  1  0
  6  7  1  0
  7  8  1  0
  8  9  1  0
  9 10  1  1
 10 11  1  0
 11 12  2  0
 11 13  1  0
 13 14  2  0
 14 15  1  0
 15 16  2  0
 16 17  1  0
 17 18  2  0
 18 19  1  0
 19 20  2  0
  9 21  1  0
 21 22  2  0
 21 23  1  0
 23 24  1  0
 23 25  2  3
 25 26  1  0
 26 27  1  0
 27 28  1  0
 28 29  1  0
 29 30  1  0
 30 31  1  6
 30 32  1  0
 32 33  1  0
 33 34  1  0
 34 35  1  0
 35 36  1  0
 36 37  1  0
 37 38  2  0
 37 39  1  0
 39 40  1  0
 27 41  1  0
 41 42  1  0
 41 43  1  0
 35  7  1  0
 34  9  1  0
 20 15  1  0
 41 26  1  0
 33 30  1  0
  1 44  1  0
  1 45  1  0
  1 46  1  0
  2 47  1  0
  2 48  1  0
  6 49  1  0
  6 50  1  0
  7 51  1  6
  8 52  1  0
  8 53  1  0
 13 54  1  0
 14 55  1  0
 16 56  1  0
 17 57  1  0
 18 58  1  0
 19 59  1  0
 20 60  1  0
 24 61  1  0
 24 62  1  0
 24 63  1  0
 25 64  1  0
 26 65  1  0
 27 66  1  1
 28 67  1  0
 28 68  1  0
 29 69  1  0
 29 70  1  0
 31 71  1  0
 31 72  1  0
 31 73  1  0
 33 74  1  1
 34 75  1  6
 35 76  1  1
 39 77  1  0
 39 78  1  0
 40 79  1  0
 40 80  1  0
 40 81  1  0
 42 82  1  0
 42 83  1  0
 42 84  1  0
 43 85  1  0
 43 86  1  0
 43 87  1  0
M  END
$$$$
