
     RDKit          3D

 47 49  0  0  0  0  0  0  0  0999 V2000
   -2.5534    1.6350    1.6945 O   0  0  0  0  0  0  0  0  0  0  0  0
   -2.9931    0.7972    0.9114 C   0  0  0  0  0  0  0  0  0  0  0  0
   -4.4804    0.4275    0.9236 C   0  0  0  0  0  0  0  0  0  0  0  0
   -4.7788   -0.5619   -0.0603 O   0  0  0  0  0  0  0  0  0  0  0  0
   -6.0779   -0.9816   -0.1408 C   0  0  0  0  0  0  0  0  0  0  0  0
   -6.3148   -1.9612   -1.1104 C   0  0  0  0  0  0  0  0  0  0  0  0
   -7.5975   -2.4806   -1.3002 C   0  0  0  0  0  0  0  0  0  0  0  0
   -8.6490   -2.0164   -0.5154 C   0  0  0  0  0  0  0  0  0  0  0  0
  -10.3875   -2.7136   -0.7645 Br  0  0  0  0  0  0  0  0  0  0  0  0
   -8.4261   -1.0402    0.4534 C   0  0  0  0  0  0  0  0  0  0  0  0
   -7.1397   -0.5221    0.6410 C   0  0  0  0  0  0  0  0  0  0  0  0
   -2.2703    0.0979   -0.0378 N   0  0  0  0  0  0  0  0  0  0  0  0
   -0.8974    0.1868   -0.3273 C   0  0  0  0  0  0  0  0  0  0  0  0
   -0.0199    1.0600    0.3188 C   0  0  0  0  0  0  0  0  0  0  0  0
    1.3382    1.0898   -0.0241 C   0  0  0  0  0  0  0  0  0  0  0  0
    1.8342    0.2345   -1.0141 C   0  0  0  0  0  0  0  0  0  0  0  0
    3.2723    0.2303   -1.4124 C   0  0  0  0  0  0  0  0  0  0  0  0
    3.5502   -0.0435   -2.5739 O   0  0  0  0  0  0  0  0  0  0  0  0
    4.1609    0.5032   -0.3914 N   0  0  0  0  0  0  0  0  0  0  0  0
    5.5718    0.6115   -0.4509 C   0  0  0  0  0  0  0  0  0  0  0  0
    6.2648    0.5510   -1.6680 C   0  0  0  0  0  0  0  0  0  0  0  0
    7.6581    0.6630   -1.7153 C   0  0  0  0  0  0  0  0  0  0  0  0
    8.3863    0.8402   -0.5459 C   0  0  0  0  0  0  0  0  0  0  0  0
    7.7189    0.9086    0.6747 C   0  0  0  0  0  0  0  0  0  0  0  0
    6.3163    0.7989    0.7372 C   0  0  0  0  0  0  0  0  0  0  0  0
    5.7323    0.8889    2.1061 C   0  0  0  0  0  0  0  0  0  0  0  0
    6.3651    1.0099    3.1402 O   0  0  0  0  0  0  0  0  0  0  0  0
    4.3853    0.8309    2.1490 O   0  0  0  0  0  0  0  0  0  0  0  0
    0.9544   -0.6269   -1.6773 C   0  0  0  0  0  0  0  0  0  0  0  0
   -0.4007   -0.6521   -1.3322 C   0  0  0  0  0  0  0  0  0  0  0  0
   -5.0401    1.3470    0.7162 H   0  0  0  0  0  0  0  0  0  0  0  0
   -4.7053    0.0427    1.9251 H   0  0  0  0  0  0  0  0  0  0  0  0
   -5.4956   -2.3258   -1.7253 H   0  0  0  0  0  0  0  0  0  0  0  0
   -7.7620   -3.2418   -2.0581 H   0  0  0  0  0  0  0  0  0  0  0  0
   -9.2451   -0.6749    1.0682 H   0  0  0  0  0  0  0  0  0  0  0  0
   -7.0077    0.2373    1.4052 H   0  0  0  0  0  0  0  0  0  0  0  0
   -2.8180   -0.5624   -0.5833 H   0  0  0  0  0  0  0  0  0  0  0  0
   -0.3626    1.7437    1.0897 H   0  0  0  0  0  0  0  0  0  0  0  0
    1.9825    1.8080    0.4761 H   0  0  0  0  0  0  0  0  0  0  0  0
    3.7819    0.5711    0.5520 H   0  0  0  0  0  0  0  0  0  0  0  0
    5.7454    0.4213   -2.6128 H   0  0  0  0  0  0  0  0  0  0  0  0
    8.1689    0.6115   -2.6742 H   0  0  0  0  0  0  0  0  0  0  0  0
    9.4693    0.9264   -0.5832 H   0  0  0  0  0  0  0  0  0  0  0  0
    8.3007    1.0488    1.5847 H   0  0  0  0  0  0  0  0  0  0  0  0
    4.2006    0.9015    3.1130 H   0  0  0  0  0  0  0  0  0  0  0  0
    1.3226   -1.2831   -2.4640 H   0  0  0  0  0  0  0  0  0  0  0  0
   -1.0578   -1.3366   -1.8631 H   0  0  0  0  0  0  0  0  0  0  0  0
  1  2  2  0
  2  3  1  0
  3  4  1  0
  4  5  1  0
  5  6  2  0
  6  7  1  0
  7  8  2  0
  8  9  1  0
  8 10  1  0
 10 11  2  0
  2 12  1  0
 12 13  1  0
 13 14  2  0
 14 15  1  0
 15 16  2  0
 16 17  1  0
 17 18  2  0
 17 19  1  0
 19 20  1  0
 20 21  2  0
 21 22  1  0
 22 23  2  0
 23 24  1  0
 24 25  2  0
 25 26  1  0
 26 27  2  0
 26 28  1  0
 16 29  1  0
 29 30  2  0
 11  5  1  0
 30 13  1  0
 25 20  1  0
  3 31  1  0
  3 32  1  0
  6 33  1  0
  7 34  1  0
 10 35  1  0
 11 36  1  0
 12 37  1  0
 14 38  1  0
 15 39  1  0
 19 40  1  0
 21 41  1  0
 22 42  1  0
 23 43  1  0
 24 44  1  0
 28 45  1  0
 29 46  1  0
 30 47  1  0
M  END
$$$$
