
     RDKit          3D

 60 64  0  0  0  0  0  0  0  0999 V2000
   -0.8937   -4.1446   -0.7723 C   0  0  0  0  0  0  0  0  0  0  0  0
   -1.6944   -2.9270   -0.8618 N   0  0  0  0  0  0  0  0  0  0  0  0
   -2.9450   -2.9505   -0.2422 C   0  0  0  0  0  0  0  0  0  0  0  0
   -3.3568   -3.9483    0.3588 O   0  0  0  0  0  0  0  0  0  0  0  0
   -3.7901   -1.7112   -0.2545 C   0  0  0  0  0  0  0  0  0  0  0  0
   -4.6668   -1.5617    0.7572 C   0  0  0  0  0  0  0  0  0  0  0  0
   -5.6172   -0.4571    0.9179 C   0  0  0  0  0  0  0  0  0  0  0  0
   -5.2102    0.7551    1.4836 C   0  0  0  0  0  0  0  0  0  0  0  0
   -6.1221    1.8043    1.6275 C   0  0  0  0  0  0  0  0  0  0  0  0
   -7.4550    1.6538    1.2137 C   0  0  0  0  0  0  0  0  0  0  0  0
   -8.4304    2.7978    1.3468 C   0  0  0  0  0  0  0  0  0  0  0  0
   -8.2149    3.5533    2.4604 F   0  0  0  0  0  0  0  0  0  0  0  0
   -9.7292    2.3924    1.4204 F   0  0  0  0  0  0  0  0  0  0  0  0
   -8.3660    3.6585    0.2938 F   0  0  0  0  0  0  0  0  0  0  0  0
   -7.8528    0.4362    0.6409 C   0  0  0  0  0  0  0  0  0  0  0  0
   -6.9412   -0.6131    0.4978 C   0  0  0  0  0  0  0  0  0  0  0  0
   -3.6773   -0.6308   -1.5851 S   0  0  0  0  0  0  0  0  0  0  0  0
   -1.9231   -0.6632   -1.8331 C   0  0  0  0  0  0  0  0  0  0  0  0
   -1.3530    0.4608   -2.4596 C   0  0  0  0  0  0  0  0  0  0  0  0
    0.0091    0.5057   -2.7413 C   0  0  0  0  0  0  0  0  0  0  0  0
    0.8006   -0.5817   -2.3926 C   0  0  0  0  0  0  0  0  0  0  0  0
    2.2428   -0.5475   -2.6908 C   0  0  0  0  0  0  0  0  0  0  0  0
    2.5803   -0.7555   -3.8519 O   0  0  0  0  0  0  0  0  0  0  0  0
    3.1253   -0.2807   -1.6501 N   0  0  0  0  0  0  0  0  0  0  0  0
    4.5561   -0.5056   -1.8952 C   0  0  0  0  0  0  0  0  0  0  0  0
    5.4595    0.4175   -1.0609 C   0  0  0  0  0  0  0  0  0  0  0  0
    5.0876    0.3373    0.3711 N   0  0  0  0  0  0  0  0  0  0  0  0
    5.9617    1.0816    1.1938 C   0  0  0  0  0  0  0  0  0  0  0  0
    5.9293    0.8805    2.5762 C   0  0  0  0  0  0  0  0  0  0  0  0
    6.7892    1.5992    3.4048 C   0  0  0  0  0  0  0  0  0  0  0  0
    7.6735    2.5040    2.8379 C   0  0  0  0  0  0  0  0  0  0  0  0
    7.6603    2.6415    1.4629 C   0  0  0  0  0  0  0  0  0  0  0  0
    6.8340    1.9539    0.6425 N   0  0  0  0  0  0  0  0  0  0  0  0
    3.6771    0.7188    0.5896 C   0  0  0  0  0  0  0  0  0  0  0  0
    2.7417   -0.1891   -0.2329 C   0  0  0  0  0  0  0  0  0  0  0  0
    0.2433   -1.7183   -1.7944 C   0  0  0  0  0  0  0  0  0  0  0  0
   -1.1290   -1.7713   -1.4919 C   0  0  0  0  0  0  0  0  0  0  0  0
   -0.1050   -4.0004   -0.0273 H   0  0  0  0  0  0  0  0  0  0  0  0
   -1.4914   -5.0092   -0.4689 H   0  0  0  0  0  0  0  0  0  0  0  0
   -0.4619   -4.3801   -1.7505 H   0  0  0  0  0  0  0  0  0  0  0  0
   -4.7225   -2.3062    1.5502 H   0  0  0  0  0  0  0  0  0  0  0  0
   -4.1824    0.8926    1.8121 H   0  0  0  0  0  0  0  0  0  0  0  0
   -5.7881    2.7436    2.0655 H   0  0  0  0  0  0  0  0  0  0  0  0
   -8.8786    0.2981    0.3012 H   0  0  0  0  0  0  0  0  0  0  0  0
   -7.2699   -1.5492    0.0501 H   0  0  0  0  0  0  0  0  0  0  0  0
   -1.9758    1.3077   -2.7440 H   0  0  0  0  0  0  0  0  0  0  0  0
    0.4434    1.3709   -3.2356 H   0  0  0  0  0  0  0  0  0  0  0  0
    4.7866   -0.3778   -2.9583 H   0  0  0  0  0  0  0  0  0  0  0  0
    4.7554   -1.5538   -1.6399 H   0  0  0  0  0  0  0  0  0  0  0  0
    6.5004    0.1033   -1.2080 H   0  0  0  0  0  0  0  0  0  0  0  0
    5.3494    1.4463   -1.4301 H   0  0  0  0  0  0  0  0  0  0  0  0
    5.2553    0.1478    3.0071 H   0  0  0  0  0  0  0  0  0  0  0  0
    6.7715    1.4429    4.4791 H   0  0  0  0  0  0  0  0  0  0  0  0
    8.3603    3.0796    3.4474 H   0  0  0  0  0  0  0  0  0  0  0  0
    8.3371    3.3293    0.9626 H   0  0  0  0  0  0  0  0  0  0  0  0
    3.3910    0.6277    1.6437 H   0  0  0  0  0  0  0  0  0  0  0  0
    3.5224    1.7636    0.2887 H   0  0  0  0  0  0  0  0  0  0  0  0
    2.7690   -1.2104    0.1660 H   0  0  0  0  0  0  0  0  0  0  0  0
    1.7172    0.1800   -0.1343 H   0  0  0  0  0  0  0  0  0  0  0  0
    0.9136   -2.5411   -1.5646 H   0  0  0  0  0  0  0  0  0  0  0  0
  1  2  1  0
  2  3  1  0
  3  4  2  0
  3  5  1  0
  5  6  2  3
  6  7  1  0
  7  8  2  0
  8  9  1  0
  9 10  2  0
 10 11  1  0
 11 12  1  0
 11 13  1  0
 11 14  1  0
 10 15  1  0
 15 16  2  0
  5 17  1  0
 17 18  1  0
 18 19  2  0
 19 20  1  0
 20 21  2  0
 21 22  1  0
 22 23  2  0
 22 24  1  0
 24 25  1  0
 25 26  1  0
 26 27  1  0
 27 28  1  0
 28 29  2  0
 29 30  1  0
 30 31  2  0
 31 32  1  0
 32 33  2  0
 27 34  1  0
 34 35  1  0
 21 36  1  0
 36 37  2  0
 37  2  1  0
 16  7  1  0
 37 18  1  0
 35 24  1  0
 33 28  1  0
  1 38  1  0
  1 39  1  0
  1 40  1  0
  6 41  1  0
  8 42  1  0
  9 43  1  0
 15 44  1  0
 16 45  1  0
 19 46  1  0
 20 47  1  0
 25 48  1  0
 25 49  1  0
 26 50  1  0
 26 51  1  0
 29 52  1  0
 30 53  1  0
 31 54  1  0
 32 55  1  0
 34 56  1  0
 34 57  1  0
 35 58  1  0
 35 59  1  0
 36 60  1  0
M  END
$$$$
