
     RDKit          3D

 61 65  0  0  0  0  0  0  0  0999 V2000
   -7.8602   -1.4747    1.6684 C   0  0  0  0  0  0  0  0  0  0  0  0
   -7.4451   -0.1308    1.4724 O   0  0  0  0  0  0  0  0  0  0  0  0
   -6.1115    0.0961    1.2395 C   0  0  0  0  0  0  0  0  0  0  0  0
   -5.1278   -0.8960    1.2515 C   0  0  0  0  0  0  0  0  0  0  0  0
   -3.7916   -0.5673    1.0044 C   0  0  0  0  0  0  0  0  0  0  0  0
   -3.4114    0.7547    0.7420 C   0  0  0  0  0  0  0  0  0  0  0  0
   -2.0062    1.0606    0.4864 C   0  0  0  0  0  0  0  0  0  0  0  0
   -0.9624    0.2527    0.4925 N   0  0  0  0  0  0  0  0  0  0  0  0
    0.1045    1.0644    0.1609 C   0  0  0  0  0  0  0  0  0  0  0  0
    1.4768    0.5071    0.0469 C   0  0  0  0  0  0  0  0  0  0  0  0
    1.8316    0.2845   -1.3451 N   0  0  0  0  0  0  0  0  0  0  0  0
    2.7508    0.9680   -2.1003 C   0  0  0  0  0  0  0  0  0  0  0  0
    3.6768    2.3117   -1.5206 S   0  0  0  0  0  0  0  0  0  0  0  0
    5.2978    1.4997   -1.3443 C   0  0  0  0  0  0  0  0  0  0  0  0
    5.3083    0.5066   -0.2064 C   0  0  0  0  0  0  0  0  0  0  0  0
    5.4365    0.9404    1.1203 C   0  0  0  0  0  0  0  0  0  0  0  0
    5.3940    0.0239    2.1734 C   0  0  0  0  0  0  0  0  0  0  0  0
    5.2108   -1.3401    1.9211 C   0  0  0  0  0  0  0  0  0  0  0  0
    5.1985   -2.3268    3.0511 C   0  0  0  0  0  0  0  0  0  0  0  0
    5.1004   -1.7777    0.5970 C   0  0  0  0  0  0  0  0  0  0  0  0
    5.1452   -0.8630   -0.4570 C   0  0  0  0  0  0  0  0  0  0  0  0
    2.8915    0.4550   -3.2995 N   0  0  0  0  0  0  0  0  0  0  0  0
    2.0249   -0.6074   -3.3389 C   0  0  0  0  0  0  0  0  0  0  0  0
    1.7707   -1.5036   -4.3764 C   0  0  0  0  0  0  0  0  0  0  0  0
    0.8410   -2.4924   -4.1015 C   0  0  0  0  0  0  0  0  0  0  0  0
    0.1868   -2.6349   -2.9253 N   0  0  0  0  0  0  0  0  0  0  0  0
    0.4268   -1.7582   -1.9209 C   0  0  0  0  0  0  0  0  0  0  0  0
    1.3523   -0.7456   -2.1302 C   0  0  0  0  0  0  0  0  0  0  0  0
   -0.3453    2.3571   -0.0130 C   0  0  0  0  0  0  0  0  0  0  0  0
    0.2826    3.6431   -0.3627 C   0  0  0  0  0  0  0  0  0  0  0  0
   -1.6961    2.3625    0.1922 O   0  0  0  0  0  0  0  0  0  0  0  0
   -4.4024    1.7490    0.7318 C   0  0  0  0  0  0  0  0  0  0  0  0
   -5.7455    1.4316    0.9773 C   0  0  0  0  0  0  0  0  0  0  0  0
   -6.7691    2.3479    0.9857 O   0  0  0  0  0  0  0  0  0  0  0  0
   -6.4544    3.6954    0.6654 C   0  0  0  0  0  0  0  0  0  0  0  0
   -7.6393   -2.0897    0.7895 H   0  0  0  0  0  0  0  0  0  0  0  0
   -8.9457   -1.4724    1.8076 H   0  0  0  0  0  0  0  0  0  0  0  0
   -7.4106   -1.8988    2.5724 H   0  0  0  0  0  0  0  0  0  0  0  0
   -5.3639   -1.9361    1.4499 H   0  0  0  0  0  0  0  0  0  0  0  0
   -3.0418   -1.3574    1.0160 H   0  0  0  0  0  0  0  0  0  0  0  0
    2.2035    1.1700    0.5217 H   0  0  0  0  0  0  0  0  0  0  0  0
    1.5487   -0.4605    0.5574 H   0  0  0  0  0  0  0  0  0  0  0  0
    6.0510    2.2732   -1.1552 H   0  0  0  0  0  0  0  0  0  0  0  0
    5.5815    1.0186   -2.2873 H   0  0  0  0  0  0  0  0  0  0  0  0
    5.5682    1.9976    1.3425 H   0  0  0  0  0  0  0  0  0  0  0  0
    5.5052    0.3821    3.1948 H   0  0  0  0  0  0  0  0  0  0  0  0
    6.2184   -2.6568    3.2708 H   0  0  0  0  0  0  0  0  0  0  0  0
    4.7677   -1.8802    3.9535 H   0  0  0  0  0  0  0  0  0  0  0  0
    4.5898   -3.2017    2.7999 H   0  0  0  0  0  0  0  0  0  0  0  0
    4.9779   -2.8361    0.3757 H   0  0  0  0  0  0  0  0  0  0  0  0
    5.0426   -1.2270   -1.4786 H   0  0  0  0  0  0  0  0  0  0  0  0
    2.2713   -1.4287   -5.3314 H   0  0  0  0  0  0  0  0  0  0  0  0
    0.5858   -3.2319   -4.8562 H   0  0  0  0  0  0  0  0  0  0  0  0
   -0.1262   -1.8975   -1.0000 H   0  0  0  0  0  0  0  0  0  0  0  0
    0.5124    3.6766   -1.4319 H   0  0  0  0  0  0  0  0  0  0  0  0
    1.2108    3.7851    0.1991 H   0  0  0  0  0  0  0  0  0  0  0  0
   -0.3801    4.4830   -0.1309 H   0  0  0  0  0  0  0  0  0  0  0  0
   -4.1050    2.7729    0.5298 H   0  0  0  0  0  0  0  0  0  0  0  0
   -6.0426    3.7765   -0.3461 H   0  0  0  0  0  0  0  0  0  0  0  0
   -5.7751    4.1286    1.4069 H   0  0  0  0  0  0  0  0  0  0  0  0
   -7.3845    4.2713    0.6919 H   0  0  0  0  0  0  0  0  0  0  0  0
  1  2  1  0
  2  3  1  0
  3  4  2  0
  4  5  1  0
  5  6  2  0
  6  7  1  0
  7  8  2  0
  8  9  1  0
  9 10  1  0
 10 11  1  0
 11 12  1  0
 12 13  1  0
 13 14  1  0
 14 15  1  0
 15 16  2  0
 16 17  1  0
 17 18  2  0
 18 19  1  0
 18 20  1  0
 20 21  2  0
 12 22  2  0
 22 23  1  0
 23 24  2  0
 24 25  1  0
 25 26  2  0
 26 27  1  0
 27 28  2  0
  9 29  2  0
 29 30  1  0
 29 31  1  0
  6 32  1  0
 32 33  2  0
 33 34  1  0
 34 35  1  0
 33  3  1  0
 31  7  1  0
 28 11  1  0
 21 15  1  0
 28 23  1  0
  1 36  1  0
  1 37  1  0
  1 38  1  0
  4 39  1  0
  5 40  1  0
 10 41  1  0
 10 42  1  0
 14 43  1  0
 14 44  1  0
 16 45  1  0
 17 46  1  0
 19 47  1  0
 19 48  1  0
 19 49  1  0
 20 50  1  0
 21 51  1  0
 24 52  1  0
 25 53  1  0
 27 54  1  0
 30 55  1  0
 30 56  1  0
 30 57  1  0
 32 58  1  0
 35 59  1  0
 35 60  1  0
 35 61  1  0
M  END
$$$$
