
     RDKit          3D

 39 39  0  0  0  0  0  0  0  0999 V2000
   -5.4240    3.1464   -0.3278 C   0  0  0  0  0  0  0  0  0  0  0  0
   -4.2986    2.2804   -0.8041 C   0  0  0  0  0  0  0  0  0  0  0  0
   -3.8978    2.2369   -1.9585 O   0  0  0  0  0  0  0  0  0  0  0  0
   -3.7853    1.5675    0.2360 O   0  0  0  0  0  0  0  0  0  0  0  0
   -2.7148    0.6663   -0.0974 C   0  0  0  0  0  0  0  0  0  0  0  0
   -1.3815    1.4134   -0.1082 C   0  0  0  0  0  0  0  0  0  0  0  0
   -0.2051    0.5326   -0.5761 C   0  0  0  0  0  0  0  0  0  0  0  0
    0.9903    1.4033   -0.6916 N   0  0  0  0  0  0  0  0  0  0  0  0
    2.3411    0.7549   -1.4505 S   0  0  0  0  0  6  0  0  0  0  0  0
    1.8914   -0.0086   -2.5908 O   0  0  0  0  0  0  0  0  0  0  0  0
    3.2645    1.8550   -1.6132 O   0  0  0  0  0  0  0  0  0  0  0  0
    2.9749   -0.2671   -0.3716 O   0  0  0  0  0  0  0  0  0  0  0  0
    4.2970   -0.7368   -0.6139 C   0  0  0  0  0  0  0  0  0  0  0  0
    4.6084   -2.0053    0.1902 C   0  0  0  0  0  0  0  0  0  0  0  0
    4.4144   -1.7195    1.9467 Cl  0  0  0  0  0  0  0  0  0  0  0  0
    6.3115   -2.4910   -0.1127 Cl  0  0  0  0  0  0  0  0  0  0  0  0
    3.5484   -3.3560   -0.3132 Cl  0  0  0  0  0  0  0  0  0  0  0  0
    0.0132   -0.6413    0.3587 C   0  0  0  0  0  0  0  0  0  0  0  0
   -0.1799   -1.9520   -0.1038 C   0  0  0  0  0  0  0  0  0  0  0  0
    0.0079   -3.0401    0.7499 C   0  0  0  0  0  0  0  0  0  0  0  0
    0.3982   -2.8329    2.0710 C   0  0  0  0  0  0  0  0  0  0  0  0
    0.6023   -1.5380    2.5412 C   0  0  0  0  0  0  0  0  0  0  0  0
    0.4118   -0.4480    1.6912 C   0  0  0  0  0  0  0  0  0  0  0  0
   -5.0493    3.8769    0.3935 H   0  0  0  0  0  0  0  0  0  0  0  0
   -6.2046    2.5269    0.1209 H   0  0  0  0  0  0  0  0  0  0  0  0
   -5.8538    3.6824   -1.1788 H   0  0  0  0  0  0  0  0  0  0  0  0
   -2.9130    0.1698   -1.0550 H   0  0  0  0  0  0  0  0  0  0  0  0
   -2.7165   -0.1112    0.6733 H   0  0  0  0  0  0  0  0  0  0  0  0
   -1.1957    1.8357    0.8882 H   0  0  0  0  0  0  0  0  0  0  0  0
   -1.4645    2.2865   -0.7688 H   0  0  0  0  0  0  0  0  0  0  0  0
   -0.4608    0.1739   -1.5816 H   0  0  0  0  0  0  0  0  0  0  0  0
    0.7934    2.3030   -1.1296 H   0  0  0  0  0  0  0  0  0  0  0  0
    4.9930    0.0665   -0.3418 H   0  0  0  0  0  0  0  0  0  0  0  0
    4.4253   -0.9362   -1.6860 H   0  0  0  0  0  0  0  0  0  0  0  0
   -0.4704   -2.1388   -1.1360 H   0  0  0  0  0  0  0  0  0  0  0  0
   -0.1375   -4.0521    0.3801 H   0  0  0  0  0  0  0  0  0  0  0  0
    0.5548   -3.6821    2.7312 H   0  0  0  0  0  0  0  0  0  0  0  0
    0.9204   -1.3772    3.5681 H   0  0  0  0  0  0  0  0  0  0  0  0
    0.5912    0.5558    2.0710 H   0  0  0  0  0  0  0  0  0  0  0  0
  1  2  1  0
  2  3  2  0
  2  4  1  0
  4  5  1  0
  5  6  1  0
  6  7  1  0
  7  8  1  0
  8  9  1  0
  9 10  2  0
  9 11  2  0
  9 12  1  0
 12 13  1  0
 13 14  1  0
 14 15  1  0
 14 16  1  0
 14 17  1  0
  7 18  1  0
 18 19  2  0
 19 20  1  0
 20 21  2  0
 21 22  1  0
 22 23  2  0
 23 18  1  0
  1 24  1  0
  1 25  1  0
  1 26  1  0
  5 27  1  0
  5 28  1  0
  6 29  1  0
  6 30  1  0
  7 31  1  0
  8 32  1  0
 13 33  1  0
 13 34  1  0
 19 35  1  0
 20 36  1  0
 21 37  1  0
 22 38  1  0
 23 39  1  0
M  END
$$$$
