
     RDKit          3D

 39 41  0  0  0  0  0  0  0  0999 V2000
   -4.1315   -2.0000   -0.1728 C   0  0  0  0  0  0  0  0  0  0  0  0
   -4.1510   -0.8871    0.7123 O   0  0  0  0  0  0  0  0  0  0  0  0
   -3.1466    0.0311    0.5755 C   0  0  0  0  0  0  0  0  0  0  0  0
   -3.2227    1.1123    1.4605 C   0  0  0  0  0  0  0  0  0  0  0  0
   -2.2588    2.1224    1.4391 C   0  0  0  0  0  0  0  0  0  0  0  0
   -1.2068    2.0429    0.5248 C   0  0  0  0  0  0  0  0  0  0  0  0
    0.0289    3.3234    0.4886 S   0  0  0  0  0  6  0  0  0  0  0  0
    0.5800    3.3789   -0.8472 O   0  0  0  0  0  0  0  0  0  0  0  0
   -0.5455    4.4983    1.1108 O   0  0  0  0  0  0  0  0  0  0  0  0
    1.1993    2.7573    1.5691 N   0  0  0  0  0  0  0  0  0  0  0  0
    1.7269    1.4465    1.4016 C   0  0  0  0  0  0  0  0  0  0  0  0
    1.4381    0.4778    2.3643 C   0  0  0  0  0  0  0  0  0  0  0  0
    1.8953   -0.8300    2.1979 C   0  0  0  0  0  0  0  0  0  0  0  0
    2.6403   -1.1629    1.0656 C   0  0  0  0  0  0  0  0  0  0  0  0
    3.0878   -2.4466    0.9095 O   0  0  0  0  0  0  0  0  0  0  0  0
    2.9358   -0.1976    0.0918 C   0  0  0  0  0  0  0  0  0  0  0  0
    3.9096   -0.5757   -1.3546 S   0  0  0  0  0  0  0  0  0  0  0  0
    2.7384   -1.3090   -2.4228 C   0  0  0  0  0  0  0  0  0  0  0  0
    3.1179   -2.1630   -3.4302 N   0  0  0  0  0  0  0  0  0  0  0  0
    1.9870   -2.4423   -4.0310 C   0  0  0  0  0  0  0  0  0  0  0  0
    0.9765   -1.7721   -3.4215 N   0  0  0  0  0  0  0  0  0  0  0  0
    1.4244   -1.0414   -2.3890 N   0  0  0  0  0  0  0  0  0  0  0  0
    2.4790    1.1144    0.2746 C   0  0  0  0  0  0  0  0  0  0  0  0
   -1.1336    0.9819   -0.3819 C   0  0  0  0  0  0  0  0  0  0  0  0
   -2.0979   -0.0303   -0.3454 C   0  0  0  0  0  0  0  0  0  0  0  0
   -3.2438   -2.6191   -0.0046 H   0  0  0  0  0  0  0  0  0  0  0  0
   -5.0126   -2.6135    0.0418 H   0  0  0  0  0  0  0  0  0  0  0  0
   -4.1980   -1.6781   -1.2178 H   0  0  0  0  0  0  0  0  0  0  0  0
   -4.0447    1.1669    2.1714 H   0  0  0  0  0  0  0  0  0  0  0  0
   -2.3409    2.9586    2.1293 H   0  0  0  0  0  0  0  0  0  0  0  0
    1.0252    3.0868    2.5171 H   0  0  0  0  0  0  0  0  0  0  0  0
    0.8447    0.7247    3.2402 H   0  0  0  0  0  0  0  0  0  0  0  0
    1.6581   -1.5731    2.9532 H   0  0  0  0  0  0  0  0  0  0  0  0
    2.8183   -2.9803    1.6735 H   0  0  0  0  0  0  0  0  0  0  0  0
    1.8481   -3.0928   -4.8826 H   0  0  0  0  0  0  0  0  0  0  0  0
   -0.0105   -1.7591   -3.6509 H   0  0  0  0  0  0  0  0  0  0  0  0
    2.7065    1.8747   -0.4692 H   0  0  0  0  0  0  0  0  0  0  0  0
   -0.3231    0.9254   -1.1072 H   0  0  0  0  0  0  0  0  0  0  0  0
   -1.9981   -0.8500   -1.0481 H   0  0  0  0  0  0  0  0  0  0  0  0
  1  2  1  0
  2  3  1  0
  3  4  2  0
  4  5  1  0
  5  6  2  0
  6  7  1  0
  7  8  2  0
  7  9  2  0
  7 10  1  0
 10 11  1  0
 11 12  2  0
 12 13  1  0
 13 14  2  0
 14 15  1  0
 14 16  1  0
 16 17  1  0
 17 18  1  0
 18 19  1  0
 19 20  2  0
 20 21  1  0
 21 22  1  0
 16 23  2  0
  6 24  1  0
 24 25  2  0
 25  3  1  0
 23 11  1  0
 22 18  2  0
  1 26  1  0
  1 27  1  0
  1 28  1  0
  4 29  1  0
  5 30  1  0
 10 31  1  0
 12 32  1  0
 13 33  1  0
 15 34  1  0
 20 35  1  0
 21 36  1  0
 23 37  1  0
 24 38  1  0
 25 39  1  0
M  END
$$$$
