
     RDKit          3D

 46 48  0  0  0  0  0  0  0  0999 V2000
   -1.1155   -0.5553   -1.8947 C   0  0  0  0  0  0  0  0  0  0  0  0
   -2.0099    0.4151   -2.1390 C   0  0  0  0  0  0  0  0  0  0  0  0
   -2.5400    1.4625   -1.1944 C   0  0  0  0  0  0  0  0  0  0  0  0
   -2.0737    1.3539    0.1749 N   0  0  0  0  0  0  0  0  0  0  0  0
   -0.9710    1.9356    0.7392 C   0  0  0  0  0  0  0  0  0  0  0  0
    0.0853    3.0146   -0.1008 S   0  0  0  0  0  0  0  0  0  0  0  0
    1.5445    3.0096    0.9819 C   0  0  0  0  0  0  0  0  0  0  0  0
    2.4932    1.8787    0.6613 C   0  0  0  0  0  0  0  0  0  0  0  0
    2.4313    0.6703    1.3698 C   0  0  0  0  0  0  0  0  0  0  0  0
    3.3193   -0.3713    1.0784 C   0  0  0  0  0  0  0  0  0  0  0  0
    4.2783   -0.2238    0.0681 C   0  0  0  0  0  0  0  0  0  0  0  0
    5.2161   -1.3539   -0.1844 C   0  0  0  0  0  0  0  0  0  0  0  0
    5.2480   -2.3721    0.4912 O   0  0  0  0  0  0  0  0  0  0  0  0
    6.0123   -1.0862   -1.2502 O   0  0  0  0  0  0  0  0  0  0  0  0
    6.9615   -2.1163   -1.5379 C   0  0  0  0  0  0  0  0  0  0  0  0
    4.3329    0.9754   -0.6549 C   0  0  0  0  0  0  0  0  0  0  0  0
    3.4450    2.0171   -0.3605 C   0  0  0  0  0  0  0  0  0  0  0  0
   -0.8611    1.5569    1.9917 N   0  0  0  0  0  0  0  0  0  0  0  0
   -1.9203    0.7281    2.2738 N   0  0  0  0  0  0  0  0  0  0  0  0
   -2.6619    0.6349    1.1894 C   0  0  0  0  0  0  0  0  0  0  0  0
   -3.8844   -0.0933    1.1136 C   0  0  0  0  0  0  0  0  0  0  0  0
   -5.3976    0.7037    1.2377 S   0  0  0  0  0  0  0  0  0  0  0  0
   -6.1960   -0.8048    1.0839 C   0  0  0  0  0  0  0  0  0  0  0  0
   -7.5346   -0.8876    1.1164 N   0  0  0  0  0  0  0  0  0  0  0  0
   -5.4157   -1.8441    0.9202 N   0  0  0  0  0  0  0  0  0  0  0  0
   -4.0816   -1.4580    0.9877 C   0  0  0  0  0  0  0  0  0  0  0  0
   -3.0434   -2.5190    0.9132 C   0  0  0  0  0  0  0  0  0  0  0  0
   -0.6404   -0.6938   -0.9271 H   0  0  0  0  0  0  0  0  0  0  0  0
   -0.8225   -1.2474   -2.6818 H   0  0  0  0  0  0  0  0  0  0  0  0
   -2.4193    0.4721   -3.1469 H   0  0  0  0  0  0  0  0  0  0  0  0
   -2.2883    2.4599   -1.5693 H   0  0  0  0  0  0  0  0  0  0  0  0
   -3.6329    1.4119   -1.1856 H   0  0  0  0  0  0  0  0  0  0  0  0
    2.0685    3.9617    0.8313 H   0  0  0  0  0  0  0  0  0  0  0  0
    1.2617    2.9987    2.0407 H   0  0  0  0  0  0  0  0  0  0  0  0
    1.6925    0.5323    2.1594 H   0  0  0  0  0  0  0  0  0  0  0  0
    3.2604   -1.2990    1.6456 H   0  0  0  0  0  0  0  0  0  0  0  0
    7.7058   -2.1762   -0.7357 H   0  0  0  0  0  0  0  0  0  0  0  0
    6.4638   -3.0841   -1.6769 H   0  0  0  0  0  0  0  0  0  0  0  0
    7.4738   -1.8549   -2.4684 H   0  0  0  0  0  0  0  0  0  0  0  0
    5.0656    1.1178   -1.4451 H   0  0  0  0  0  0  0  0  0  0  0  0
    3.5046    2.9425   -0.9315 H   0  0  0  0  0  0  0  0  0  0  0  0
   -8.0807   -0.0548    0.9342 H   0  0  0  0  0  0  0  0  0  0  0  0
   -7.9458   -1.7532    0.7816 H   0  0  0  0  0  0  0  0  0  0  0  0
   -2.1211   -2.2189    1.4200 H   0  0  0  0  0  0  0  0  0  0  0  0
   -3.4018   -3.4356    1.3925 H   0  0  0  0  0  0  0  0  0  0  0  0
   -2.8050   -2.7497   -0.1288 H   0  0  0  0  0  0  0  0  0  0  0  0
  1  2  2  0
  2  3  1  0
  3  4  1  0
  4  5  1  0
  5  6  1  0
  6  7  1  0
  7  8  1  0
  8  9  2  0
  9 10  1  0
 10 11  2  0
 11 12  1  0
 12 13  2  0
 12 14  1  0
 14 15  1  0
 11 16  1  0
 16 17  2  0
  5 18  2  0
 18 19  1  0
 19 20  2  0
 20 21  1  0
 21 22  1  0
 22 23  1  0
 23 24  1  0
 23 25  2  0
 25 26  1  0
 26 27  1  0
 20  4  1  0
 26 21  2  0
 17  8  1  0
  1 28  1  0
  1 29  1  0
  2 30  1  0
  3 31  1  0
  3 32  1  0
  7 33  1  0
  7 34  1  0
  9 35  1  0
 10 36  1  0
 15 37  1  0
 15 38  1  0
 15 39  1  0
 16 40  1  0
 17 41  1  0
 24 42  1  0
 24 43  1  0
 27 44  1  0
 27 45  1  0
 27 46  1  0
M  END
$$$$
