
     RDKit          3D

 56 58  0  0  0  0  0  0  0  0999 V2000
    7.0419    1.4095   -0.7119 C   0  0  0  0  0  0  0  0  0  0  0  0
    5.7276    1.4391   -1.2582 O   0  0  0  0  0  0  0  0  0  0  0  0
    4.8294    0.5252   -0.7788 C   0  0  0  0  0  0  0  0  0  0  0  0
    5.0545   -0.3703    0.2668 C   0  0  0  0  0  0  0  0  0  0  0  0
    4.0466   -1.2548    0.6693 C   0  0  0  0  0  0  0  0  0  0  0  0
    2.8047   -1.2474    0.0283 C   0  0  0  0  0  0  0  0  0  0  0  0
    1.7437   -2.0705    0.3457 O   0  0  0  0  0  0  0  0  0  0  0  0
    1.9310   -2.9611    1.4397 C   0  0  0  0  0  0  0  0  0  0  0  0
    2.5727   -0.3421   -1.0286 C   0  0  0  0  0  0  0  0  0  0  0  0
    1.2897   -0.3800   -1.6180 N   0  0  0  0  0  0  0  0  0  0  0  0
    0.7640    0.4480   -2.5909 C   0  0  0  0  0  0  0  0  0  0  0  0
    1.3595    1.3407   -3.1873 O   0  0  0  0  0  0  0  0  0  0  0  0
   -0.6907    0.1308   -2.9116 C   0  0  0  0  0  0  0  0  0  0  0  0
   -1.8281    1.2264   -2.0216 S   0  0  0  0  0  0  0  0  0  0  0  0
   -1.6797    0.5280   -0.4281 C   0  0  0  0  0  0  0  0  0  0  0  0
   -0.7268    0.9986    0.3033 N   0  0  0  0  0  0  0  0  0  0  0  0
   -0.5163    0.4591    1.5715 C   0  0  0  0  0  0  0  0  0  0  0  0
    0.5451    0.9325    2.3412 C   0  0  0  0  0  0  0  0  0  0  0  0
    0.7905    0.4073    3.6129 C   0  0  0  0  0  0  0  0  0  0  0  0
   -0.0263   -0.5997    4.1231 C   0  0  0  0  0  0  0  0  0  0  0  0
   -1.0876   -1.0835    3.3594 C   0  0  0  0  0  0  0  0  0  0  0  0
   -1.3191   -0.5512    2.0854 C   0  0  0  0  0  0  0  0  0  0  0  0
   -2.4152   -1.0448    1.2367 C   0  0  0  0  0  0  0  0  0  0  0  0
   -3.1569   -1.9244    1.6707 O   0  0  0  0  0  0  0  0  0  0  0  0
   -2.5442   -0.4756   -0.0323 N   0  0  0  0  0  0  0  0  0  0  0  0
   -3.6755   -0.9746   -0.8320 C   0  0  0  0  0  0  0  0  0  0  0  0
   -5.0179   -0.3775   -0.3840 C   0  0  0  0  0  0  0  0  0  0  0  0
   -5.1377    1.0400   -0.6717 N   0  0  0  0  0  0  0  0  0  0  0  0
   -5.4383    1.4897   -1.9375 C   0  0  0  0  0  0  0  0  0  0  0  0
   -5.4833    2.9899   -2.0588 C   0  0  0  0  0  0  0  0  0  0  0  0
   -5.6727    0.7409   -2.8832 O   0  0  0  0  0  0  0  0  0  0  0  0
    3.5866    0.5356   -1.4222 C   0  0  0  0  0  0  0  0  0  0  0  0
    7.5378    0.4525   -0.9295 H   0  0  0  0  0  0  0  0  0  0  0  0
    7.6255    2.2055   -1.1928 H   0  0  0  0  0  0  0  0  0  0  0  0
    7.0319    1.6173    0.3651 H   0  0  0  0  0  0  0  0  0  0  0  0
    6.0026   -0.4006    0.7944 H   0  0  0  0  0  0  0  0  0  0  0  0
    4.2658   -1.9349    1.4858 H   0  0  0  0  0  0  0  0  0  0  0  0
    2.1481   -2.4151    2.3651 H   0  0  0  0  0  0  0  0  0  0  0  0
    0.9953   -3.5120    1.5850 H   0  0  0  0  0  0  0  0  0  0  0  0
    2.7129   -3.6932    1.2206 H   0  0  0  0  0  0  0  0  0  0  0  0
    0.6729   -1.0402   -1.1581 H   0  0  0  0  0  0  0  0  0  0  0  0
   -0.8377    0.2675   -3.9883 H   0  0  0  0  0  0  0  0  0  0  0  0
   -0.9200   -0.9153   -2.6926 H   0  0  0  0  0  0  0  0  0  0  0  0
    1.1867    1.7122    1.9405 H   0  0  0  0  0  0  0  0  0  0  0  0
    1.6268    0.7830    4.1985 H   0  0  0  0  0  0  0  0  0  0  0  0
    0.1625   -1.0083    5.1122 H   0  0  0  0  0  0  0  0  0  0  0  0
   -1.7235   -1.8736    3.7527 H   0  0  0  0  0  0  0  0  0  0  0  0
   -3.5152   -0.8055   -1.8993 H   0  0  0  0  0  0  0  0  0  0  0  0
   -3.7265   -2.0640   -0.7052 H   0  0  0  0  0  0  0  0  0  0  0  0
   -5.1708   -0.4998    0.6913 H   0  0  0  0  0  0  0  0  0  0  0  0
   -5.8332   -0.9007   -0.8964 H   0  0  0  0  0  0  0  0  0  0  0  0
   -4.8695    1.7102    0.0386 H   0  0  0  0  0  0  0  0  0  0  0  0
   -4.8140    3.4642   -1.3350 H   0  0  0  0  0  0  0  0  0  0  0  0
   -6.5086    3.3360   -1.8894 H   0  0  0  0  0  0  0  0  0  0  0  0
   -5.1583    3.2831   -3.0613 H   0  0  0  0  0  0  0  0  0  0  0  0
    3.4371    1.2476   -2.2290 H   0  0  0  0  0  0  0  0  0  0  0  0
  1  2  1  0
  2  3  1  0
  3  4  2  0
  4  5  1  0
  5  6  2  0
  6  7  1  0
  7  8  1  0
  6  9  1  0
  9 10  1  0
 10 11  1  0
 11 12  2  0
 11 13  1  0
 13 14  1  0
 14 15  1  0
 15 16  2  0
 16 17  1  0
 17 18  2  0
 18 19  1  0
 19 20  2  0
 20 21  1  0
 21 22  2  0
 22 23  1  0
 23 24  2  0
 23 25  1  0
 25 26  1  0
 26 27  1  0
 27 28  1  0
 28 29  1  0
 29 30  1  0
 29 31  2  0
  9 32  2  0
 32  3  1  0
 25 15  1  0
 22 17  1  0
  1 33  1  0
  1 34  1  0
  1 35  1  0
  4 36  1  0
  5 37  1  0
  8 38  1  0
  8 39  1  0
  8 40  1  0
 10 41  1  0
 13 42  1  0
 13 43  1  0
 18 44  1  0
 19 45  1  0
 20 46  1  0
 21 47  1  0
 26 48  1  0
 26 49  1  0
 27 50  1  0
 27 51  1  0
 28 52  1  0
 30 53  1  0
 30 54  1  0
 30 55  1  0
 32 56  1  0
M  END
$$$$
