
     RDKit          3D

 34 35  0  0  0  0  0  0  0  0999 V2000
   -3.0904    1.8985    0.5111 C   0  0  0  0  0  0  0  0  0  0  0  0
   -3.5487    0.5113    0.1475 C   0  0  0  0  0  0  0  0  0  0  0  0
   -4.9227    0.2214    0.2346 C   0  0  0  0  0  0  0  0  0  0  0  0
   -5.4087   -1.0425   -0.0910 C   0  0  0  0  0  0  0  0  0  0  0  0
   -4.5257   -2.0355   -0.4949 C   0  0  0  0  0  0  0  0  0  0  0  0
   -3.1580   -1.7633   -0.5830 C   0  0  0  0  0  0  0  0  0  0  0  0
   -2.6536   -0.4916   -0.2871 C   0  0  0  0  0  0  0  0  0  0  0  0
   -1.2681   -0.2012   -0.3296 N   0  0  0  0  0  0  0  0  0  0  0  0
   -0.2359   -0.7723   -1.0640 C   0  0  0  0  0  0  0  0  0  0  0  0
   -0.3648   -1.7109   -2.4415 S   0  0  0  0  0  0  0  0  0  0  0  0
    0.9770   -0.3728   -0.5154 N   0  0  0  0  0  0  0  0  0  0  0  0
    2.2914   -0.7960   -0.9755 C   0  0  0  0  0  0  0  0  0  0  0  0
    3.3700   -0.0944   -0.1931 C   0  0  0  0  0  0  0  0  0  0  0  0
    3.7437    1.2166   -0.5220 C   0  0  0  0  0  0  0  0  0  0  0  0
    4.7232    1.8801    0.2181 C   0  0  0  0  0  0  0  0  0  0  0  0
    5.3327    1.2432    1.2974 C   0  0  0  0  0  0  0  0  0  0  0  0
    4.9621   -0.0561    1.6396 C   0  0  0  0  0  0  0  0  0  0  0  0
    3.9825   -0.7217    0.9007 C   0  0  0  0  0  0  0  0  0  0  0  0
   -2.4411    1.8644    1.3917 H   0  0  0  0  0  0  0  0  0  0  0  0
   -2.5523    2.3543   -0.3265 H   0  0  0  0  0  0  0  0  0  0  0  0
   -3.9348    2.5543    0.7493 H   0  0  0  0  0  0  0  0  0  0  0  0
   -5.6273    0.9853    0.5570 H   0  0  0  0  0  0  0  0  0  0  0  0
   -6.4724   -1.2534   -0.0213 H   0  0  0  0  0  0  0  0  0  0  0  0
   -4.8944   -3.0297   -0.7336 H   0  0  0  0  0  0  0  0  0  0  0  0
   -2.5022   -2.5846   -0.8514 H   0  0  0  0  0  0  0  0  0  0  0  0
   -0.9998    0.6793    0.0864 H   0  0  0  0  0  0  0  0  0  0  0  0
    0.9382   -0.1196    0.4627 H   0  0  0  0  0  0  0  0  0  0  0  0
    2.3692   -1.8828   -0.8540 H   0  0  0  0  0  0  0  0  0  0  0  0
    2.3954   -0.5744   -2.0437 H   0  0  0  0  0  0  0  0  0  0  0  0
    3.2700    1.7260   -1.3590 H   0  0  0  0  0  0  0  0  0  0  0  0
    5.0104    2.8943   -0.0475 H   0  0  0  0  0  0  0  0  0  0  0  0
    6.0966    1.7599    1.8726 H   0  0  0  0  0  0  0  0  0  0  0  0
    5.4368   -0.5516    2.4828 H   0  0  0  0  0  0  0  0  0  0  0  0
    3.7019   -1.7344    1.1826 H   0  0  0  0  0  0  0  0  0  0  0  0
  1  2  1  0
  2  3  2  0
  3  4  1  0
  4  5  2  0
  5  6  1  0
  6  7  2  0
  7  8  1  0
  8  9  1  0
  9 10  2  0
  9 11  1  0
 11 12  1  0
 12 13  1  0
 13 14  2  0
 14 15  1  0
 15 16  2  0
 16 17  1  0
 17 18  2  0
  7  2  1  0
 18 13  1  0
  1 19  1  0
  1 20  1  0
  1 21  1  0
  3 22  1  0
  4 23  1  0
  5 24  1  0
  6 25  1  0
  8 26  1  0
 11 27  1  0
 12 28  1  0
 12 29  1  0
 14 30  1  0
 15 31  1  0
 16 32  1  0
 17 33  1  0
 18 34  1  0
M  END
$$$$
