
     RDKit          3D

 54 58  0  0  0  0  0  0  0  0999 V2000
    5.3584    2.1676   -1.2334 F   0  0  0  0  0  0  0  0  0  0  0  0
    6.2211    1.1842   -1.6170 C   0  0  0  0  0  0  0  0  0  0  0  0
    6.1640    1.1476   -2.9780 F   0  0  0  0  0  0  0  0  0  0  0  0
    7.4650    1.6558   -1.3154 F   0  0  0  0  0  0  0  0  0  0  0  0
    5.9097   -0.1560   -0.9870 C   0  0  0  0  0  0  0  0  0  0  0  0
    6.9460   -0.8606   -0.3423 C   0  0  0  0  0  0  0  0  0  0  0  0
    6.7145   -2.1020    0.2484 C   0  0  0  0  0  0  0  0  0  0  0  0
    5.4437   -2.6619    0.2042 C   0  0  0  0  0  0  0  0  0  0  0  0
    4.4058   -1.9840   -0.4339 C   0  0  0  0  0  0  0  0  0  0  0  0
    4.6188   -0.7334   -1.0405 C   0  0  0  0  0  0  0  0  0  0  0  0
    3.4439   -0.0479   -1.7144 C   0  0  0  0  0  0  0  0  0  0  0  0
    2.5634    0.7696   -0.7457 C   0  0  0  0  0  0  0  0  0  0  0  0
    1.6914   -0.0379    0.1299 N   0  0  0  0  0  0  0  0  0  0  0  0
    0.6479   -0.7536   -0.6409 C   0  0  0  0  0  0  0  0  0  0  0  0
   -0.5966   -1.1417    0.1897 C   0  0  0  0  0  0  0  0  0  0  0  0
   -1.2527    0.0412    0.7642 N   0  0  0  0  0  0  0  0  0  0  0  0
   -2.6309    0.2197    0.7011 C   0  0  0  0  0  0  0  0  0  0  0  0
   -3.0832    1.4283    0.4684 N   0  0  0  0  0  0  0  0  0  0  0  0
   -4.4641    1.6739    0.3508 C   0  0  0  0  0  0  0  0  0  0  0  0
   -4.8851    2.9786    0.0854 C   0  0  0  0  0  0  0  0  0  0  0  0
   -6.2434    3.2761   -0.0536 C   0  0  0  0  0  0  0  0  0  0  0  0
   -7.1974    2.2658    0.0717 C   0  0  0  0  0  0  0  0  0  0  0  0
   -6.7992    0.9551    0.3373 C   0  0  0  0  0  0  0  0  0  0  0  0
   -5.4364    0.6730    0.4732 C   0  0  0  0  0  0  0  0  0  0  0  0
   -4.9492   -0.6132    0.7555 N   0  0  0  0  0  0  0  0  0  0  0  0
   -5.6433   -1.7825    0.9588 C   0  0  0  0  0  0  0  0  0  0  0  0
   -4.7391   -2.7685    1.2856 C   0  0  0  0  0  0  0  0  0  0  0  0
   -3.4534   -2.1801    1.2630 C   0  0  0  0  0  0  0  0  0  0  0  0
   -3.5980   -0.8542    0.8907 C   0  0  0  0  0  0  0  0  0  0  0  0
   -0.3812    1.2176    0.9278 C   0  0  0  0  0  0  0  0  0  0  0  0
    1.0774    0.7932    1.1933 C   0  0  0  0  0  0  0  0  0  0  0  0
    7.9495   -0.4385   -0.2954 H   0  0  0  0  0  0  0  0  0  0  0  0
    7.5249   -2.6294    0.7452 H   0  0  0  0  0  0  0  0  0  0  0  0
    5.2560   -3.6261    0.6695 H   0  0  0  0  0  0  0  0  0  0  0  0
    3.4160   -2.4360   -0.4484 H   0  0  0  0  0  0  0  0  0  0  0  0
    2.8520   -0.7935   -2.2591 H   0  0  0  0  0  0  0  0  0  0  0  0
    3.8119    0.6236   -2.4985 H   0  0  0  0  0  0  0  0  0  0  0  0
    3.2307    1.3806   -0.1245 H   0  0  0  0  0  0  0  0  0  0  0  0
    1.9522    1.4708   -1.3290 H   0  0  0  0  0  0  0  0  0  0  0  0
    0.3060   -0.1388   -1.4848 H   0  0  0  0  0  0  0  0  0  0  0  0
    1.0792   -1.6691   -1.0604 H   0  0  0  0  0  0  0  0  0  0  0  0
   -1.2789   -1.6838   -0.4748 H   0  0  0  0  0  0  0  0  0  0  0  0
   -0.3048   -1.8201    0.9998 H   0  0  0  0  0  0  0  0  0  0  0  0
   -4.1440    3.7670   -0.0147 H   0  0  0  0  0  0  0  0  0  0  0  0
   -6.5543    4.2970   -0.2600 H   0  0  0  0  0  0  0  0  0  0  0  0
   -8.2533    2.5018   -0.0364 H   0  0  0  0  0  0  0  0  0  0  0  0
   -7.5595    0.1874    0.4339 H   0  0  0  0  0  0  0  0  0  0  0  0
   -6.7195   -1.8279    0.8791 H   0  0  0  0  0  0  0  0  0  0  0  0
   -4.9821   -3.7954    1.5269 H   0  0  0  0  0  0  0  0  0  0  0  0
   -2.5233   -2.6777    1.4991 H   0  0  0  0  0  0  0  0  0  0  0  0
   -0.4268    1.8482    0.0312 H   0  0  0  0  0  0  0  0  0  0  0  0
   -0.7292    1.8149    1.7791 H   0  0  0  0  0  0  0  0  0  0  0  0
    1.6830    1.6811    1.4117 H   0  0  0  0  0  0  0  0  0  0  0  0
    1.0964    0.1936    2.1131 H   0  0  0  0  0  0  0  0  0  0  0  0
  1  2  1  0
  2  3  1  0
  2  4  1  0
  2  5  1  0
  5  6  2  0
  6  7  1  0
  7  8  2  0
  8  9  1  0
  9 10  2  0
 10 11  1  0
 11 12  1  0
 12 13  1  0
 13 14  1  0
 14 15  1  0
 15 16  1  0
 16 17  1  0
 17 18  2  0
 18 19  1  0
 19 20  2  0
 20 21  1  0
 21 22  2  0
 22 23  1  0
 23 24  2  0
 24 25  1  0
 25 26  1  0
 26 27  2  0
 27 28  1  0
 28 29  2  0
 16 30  1  0
 30 31  1  0
 10  5  1  0
 31 13  1  0
 29 17  1  0
 24 19  1  0
 29 25  1  0
  6 32  1  0
  7 33  1  0
  8 34  1  0
  9 35  1  0
 11 36  1  0
 11 37  1  0
 12 38  1  0
 12 39  1  0
 14 40  1  0
 14 41  1  0
 15 42  1  0
 15 43  1  0
 20 44  1  0
 21 45  1  0
 22 46  1  0
 23 47  1  0
 26 48  1  0
 27 49  1  0
 28 50  1  0
 30 51  1  0
 30 52  1  0
 31 53  1  0
 31 54  1  0
M  END
$$$$
