
     RDKit          3D

 45 48  0  0  0  0  0  0  0  0999 V2000
    3.2300    2.5167    0.8740 C   0  0  0  0  0  0  0  0  0  0  0  0
    2.0703    1.5386    0.9035 C   0  0  0  0  0  0  0  0  0  0  0  0
    2.5512    0.2379    0.5393 O   0  0  0  0  0  0  0  0  0  0  0  0
    2.2704   -0.6962    1.5050 C   0  0  0  0  0  0  0  0  0  0  0  0
    3.1219   -0.7744    2.6130 C   0  0  0  0  0  0  0  0  0  0  0  0
    2.9243   -1.7613    3.5762 C   0  0  0  0  0  0  0  0  0  0  0  0
    1.8916   -2.6821    3.4226 C   0  0  0  0  0  0  0  0  0  0  0  0
    1.0566   -2.6157    2.3033 C   0  0  0  0  0  0  0  0  0  0  0  0
    1.2273   -1.6199    1.3218 C   0  0  0  0  0  0  0  0  0  0  0  0
    0.3354   -1.5749    0.1628 C   0  0  0  0  0  0  0  0  0  0  0  0
    0.2502   -2.6958   -0.5903 N   0  0  0  0  0  0  0  0  0  0  0  0
   -0.5838   -2.6331   -1.6580 C   0  0  0  0  0  0  0  0  0  0  0  0
   -0.6600   -3.8412   -2.5253 C   0  0  0  0  0  0  0  0  0  0  0  0
    0.1412   -4.8869   -2.1537 N   0  0  0  0  0  0  0  0  0  0  0  0
   -1.3865   -3.8994   -3.5095 O   0  0  0  0  0  0  0  0  0  0  0  0
   -1.3187   -1.5192   -1.9372 C   0  0  0  0  0  0  0  0  0  0  0  0
   -2.2063   -1.2089   -2.9553 N   0  0  0  0  0  0  0  0  0  0  0  0
   -2.6702    0.0996   -2.7612 C   0  0  0  0  0  0  0  0  0  0  0  0
   -3.4711    0.6414   -3.5053 O   0  0  0  0  0  0  0  0  0  0  0  0
   -2.0418    0.5803   -1.5724 N   0  0  0  0  0  0  0  0  0  0  0  0
   -2.2065    1.8577   -0.9745 C   0  0  0  0  0  0  0  0  0  0  0  0
   -2.8378    2.8965   -1.6787 C   0  0  0  0  0  0  0  0  0  0  0  0
   -3.0137    4.1673   -1.1163 C   0  0  0  0  0  0  0  0  0  0  0  0
   -2.5661    4.4292    0.1720 C   0  0  0  0  0  0  0  0  0  0  0  0
   -1.9478    3.4183    0.8964 C   0  0  0  0  0  0  0  0  0  0  0  0
   -1.7733    2.1490    0.3291 C   0  0  0  0  0  0  0  0  0  0  0  0
   -1.1955   -0.4478   -1.0853 C   0  0  0  0  0  0  0  0  0  0  0  0
   -0.3757   -0.4428   -0.0301 N   0  0  0  0  0  0  0  0  0  0  0  0
    2.8877    3.5317    1.0942 H   0  0  0  0  0  0  0  0  0  0  0  0
    3.7137    2.5122   -0.1082 H   0  0  0  0  0  0  0  0  0  0  0  0
    3.9932    2.2365    1.6068 H   0  0  0  0  0  0  0  0  0  0  0  0
    1.5798    1.5598    1.8855 H   0  0  0  0  0  0  0  0  0  0  0  0
    1.3308    1.8377    0.1539 H   0  0  0  0  0  0  0  0  0  0  0  0
    3.9479   -0.0764    2.7164 H   0  0  0  0  0  0  0  0  0  0  0  0
    3.5840   -1.8200    4.4382 H   0  0  0  0  0  0  0  0  0  0  0  0
    1.7392   -3.4585    4.1686 H   0  0  0  0  0  0  0  0  0  0  0  0
    0.2594   -3.3498    2.1970 H   0  0  0  0  0  0  0  0  0  0  0  0
    0.1715   -5.7181   -2.7272 H   0  0  0  0  0  0  0  0  0  0  0  0
    0.7746   -4.7912   -1.3673 H   0  0  0  0  0  0  0  0  0  0  0  0
   -2.4742   -1.8204   -3.7176 H   0  0  0  0  0  0  0  0  0  0  0  0
   -3.1967    2.7575   -2.6948 H   0  0  0  0  0  0  0  0  0  0  0  0
   -3.5021    4.9483   -1.6939 H   0  0  0  0  0  0  0  0  0  0  0  0
   -2.7046    5.4136    0.6104 H   0  0  0  0  0  0  0  0  0  0  0  0
   -1.6057    3.6077    1.9108 H   0  0  0  0  0  0  0  0  0  0  0  0
   -1.3141    1.3969    0.9611 H   0  0  0  0  0  0  0  0  0  0  0  0
  1  2  1  0
  2  3  1  0
  3  4  1  0
  4  5  2  0
  5  6  1  0
  6  7  2  0
  7  8  1  0
  8  9  2  0
  9 10  1  0
 10 11  2  0
 11 12  1  0
 12 13  1  0
 13 14  1  0
 13 15  2  0
 12 16  2  0
 16 17  1  0
 17 18  1  0
 18 19  2  0
 18 20  1  0
 20 21  1  0
 21 22  2  0
 22 23  1  0
 23 24  2  0
 24 25  1  0
 25 26  2  0
 20 27  1  0
 27 28  2  0
  9  4  1  0
 28 10  1  0
 27 16  1  0
 26 21  1  0
  1 29  1  0
  1 30  1  0
  1 31  1  0
  2 32  1  0
  2 33  1  0
  5 34  1  0
  6 35  1  0
  7 36  1  0
  8 37  1  0
 14 38  1  0
 14 39  1  0
 17 40  1  0
 22 41  1  0
 23 42  1  0
 24 43  1  0
 25 44  1  0
 26 45  1  0
M  END
$$$$
