
     RDKit          3D

 37 38  0  0  0  0  0  0  0  0999 V2000
   -5.1526    1.4096   -2.1127 C   0  0  0  0  0  0  0  0  0  0  0  0
   -4.6723    0.4895   -1.1429 O   0  0  0  0  0  0  0  0  0  0  0  0
   -3.4083    0.6883   -0.6457 C   0  0  0  0  0  0  0  0  0  0  0  0
   -2.5634    1.7339   -1.0317 C   0  0  0  0  0  0  0  0  0  0  0  0
   -1.2897    1.8528   -0.4714 C   0  0  0  0  0  0  0  0  0  0  0  0
   -0.8455    0.9211    0.4704 C   0  0  0  0  0  0  0  0  0  0  0  0
    0.5225    1.0842    1.0326 C   0  0  0  0  0  0  0  0  0  0  0  0
    1.0219    2.1999    1.1189 O   0  0  0  0  0  0  0  0  0  0  0  0
    1.1735   -0.0763    1.3947 N   0  0  0  0  0  0  0  0  0  0  0  0
    2.5520   -0.0566    1.8296 C   0  0  0  0  0  0  0  0  0  0  0  0
    3.4823   -0.3442    0.6782 C   0  0  0  0  0  0  0  0  0  0  0  0
    3.8747    0.6860   -0.1876 C   0  0  0  0  0  0  0  0  0  0  0  0
    4.7162    0.4221   -1.2708 C   0  0  0  0  0  0  0  0  0  0  0  0
    5.1715   -0.8774   -1.5067 C   0  0  0  0  0  0  0  0  0  0  0  0
    6.2077   -1.1337   -2.8650 Cl  0  0  0  0  0  0  0  0  0  0  0  0
    4.7793   -1.9151   -0.6547 C   0  0  0  0  0  0  0  0  0  0  0  0
    5.2940   -3.5488   -0.8854 Cl  0  0  0  0  0  0  0  0  0  0  0  0
    3.9361   -1.6482    0.4306 C   0  0  0  0  0  0  0  0  0  0  0  0
   -1.6917   -0.1182    0.8782 C   0  0  0  0  0  0  0  0  0  0  0  0
   -2.9716   -0.2402    0.3236 C   0  0  0  0  0  0  0  0  0  0  0  0
   -3.8669   -1.2278    0.6545 O   0  0  0  0  0  0  0  0  0  0  0  0
   -3.5277   -2.1047    1.7186 C   0  0  0  0  0  0  0  0  0  0  0  0
   -4.5357    1.3883   -3.0171 H   0  0  0  0  0  0  0  0  0  0  0  0
   -6.1643    1.1015   -2.3938 H   0  0  0  0  0  0  0  0  0  0  0  0
   -5.2164    2.4216   -1.6997 H   0  0  0  0  0  0  0  0  0  0  0  0
   -2.8649    2.4750   -1.7644 H   0  0  0  0  0  0  0  0  0  0  0  0
   -0.6422    2.6732   -0.7762 H   0  0  0  0  0  0  0  0  0  0  0  0
    0.8058   -0.9605    1.0730 H   0  0  0  0  0  0  0  0  0  0  0  0
    2.8005    0.9066    2.2895 H   0  0  0  0  0  0  0  0  0  0  0  0
    2.6590   -0.8227    2.6055 H   0  0  0  0  0  0  0  0  0  0  0  0
    3.5181    1.7031   -0.0223 H   0  0  0  0  0  0  0  0  0  0  0  0
    5.0090    1.2368   -1.9290 H   0  0  0  0  0  0  0  0  0  0  0  0
    3.6332   -2.4618    1.0866 H   0  0  0  0  0  0  0  0  0  0  0  0
   -1.3508   -0.8065    1.6421 H   0  0  0  0  0  0  0  0  0  0  0  0
   -2.6579   -2.7175    1.4605 H   0  0  0  0  0  0  0  0  0  0  0  0
   -3.3615   -1.5531    2.6498 H   0  0  0  0  0  0  0  0  0  0  0  0
   -4.3737   -2.7800    1.8787 H   0  0  0  0  0  0  0  0  0  0  0  0
  1  2  1  0
  2  3  1  0
  3  4  2  0
  4  5  1  0
  5  6  2  0
  6  7  1  0
  7  8  2  0
  7  9  1  0
  9 10  1  0
 10 11  1  0
 11 12  2  0
 12 13  1  0
 13 14  2  0
 14 15  1  0
 14 16  1  0
 16 17  1  0
 16 18  2  0
  6 19  1  0
 19 20  2  0
 20 21  1  0
 21 22  1  0
 20  3  1  0
 18 11  1  0
  1 23  1  0
  1 24  1  0
  1 25  1  0
  4 26  1  0
  5 27  1  0
  9 28  1  0
 10 29  1  0
 10 30  1  0
 12 31  1  0
 13 32  1  0
 18 33  1  0
 19 34  1  0
 22 35  1  0
 22 36  1  0
 22 37  1  0
M  END
$$$$
