
     RDKit          3D

 51 55  0  0  0  0  0  0  0  0999 V2000
    0.8281    1.3834   -0.2961 O   0  0  0  0  0  0  0  0  0  0  0  0
    1.0560    0.3580   -0.9346 C   0  0  0  0  0  0  0  0  0  0  0  0
    0.1010   -0.1200   -2.0420 C   0  0  0  0  0  0  0  0  0  0  0  0
   -1.2866   -0.1342   -1.5749 N   0  0  0  0  0  0  0  0  0  0  0  0
   -1.6783   -1.2455   -0.8355 C   0  0  0  0  0  0  0  0  0  0  0  0
   -0.8956   -2.1548   -0.5484 O   0  0  0  0  0  0  0  0  0  0  0  0
   -3.1350   -1.3483   -0.4613 C   0  0  0  0  0  0  0  0  0  0  0  0
   -3.4266   -0.6495    0.8565 C   0  0  0  0  0  0  0  0  0  0  0  0
   -4.8972   -0.6486    1.1430 C   0  0  0  0  0  0  0  0  0  0  0  0
   -6.0038   -0.1348    0.4919 C   0  0  0  0  0  0  0  0  0  0  0  0
   -7.1277   -0.4716    1.2831 C   0  0  0  0  0  0  0  0  0  0  0  0
   -6.6409   -1.1696    2.3630 C   0  0  0  0  0  0  0  0  0  0  0  0
   -5.2917   -1.2898    2.2833 O   0  0  0  0  0  0  0  0  0  0  0  0
   -2.7716    1.0569    1.0000 S   0  0  0  0  0  0  0  0  0  0  0  0
   -2.8468    1.6068   -0.7009 C   0  0  0  0  0  0  0  0  0  0  0  0
   -3.6137    2.7601   -0.9451 C   0  0  0  0  0  0  0  0  0  0  0  0
   -3.6451    3.3444   -2.2101 C   0  0  0  0  0  0  0  0  0  0  0  0
   -2.8990    2.7908   -3.2430 C   0  0  0  0  0  0  0  0  0  0  0  0
   -2.1233    1.6514   -3.0122 C   0  0  0  0  0  0  0  0  0  0  0  0
   -2.0861    1.0392   -1.7461 C   0  0  0  0  0  0  0  0  0  0  0  0
    2.1763   -0.4507   -0.8036 N   0  0  0  0  0  0  0  0  0  0  0  0
    3.2732   -0.2665    0.0647 C   0  0  0  0  0  0  0  0  0  0  0  0
    3.3838    0.7875    0.9757 C   0  0  0  0  0  0  0  0  0  0  0  0
    4.5150    0.9089    1.7912 C   0  0  0  0  0  0  0  0  0  0  0  0
    5.5463   -0.0211    1.6968 C   0  0  0  0  0  0  0  0  0  0  0  0
    5.4324   -1.0901    0.8083 C   0  0  0  0  0  0  0  0  0  0  0  0
    4.3078   -1.2051   -0.0112 C   0  0  0  0  0  0  0  0  0  0  0  0
    6.3931   -2.0616    0.6763 O   0  0  0  0  0  0  0  0  0  0  0  0
    7.2998   -2.0488    1.7848 C   0  0  0  0  0  0  0  0  0  0  0  0
    7.7443   -0.6293    2.0982 C   0  0  0  0  0  0  0  0  0  0  0  0
    6.6343    0.1738    2.5075 O   0  0  0  0  0  0  0  0  0  0  0  0
    0.2401    0.5444   -2.9002 H   0  0  0  0  0  0  0  0  0  0  0  0
    0.3710   -1.1293   -2.3770 H   0  0  0  0  0  0  0  0  0  0  0  0
   -3.7612   -0.9899   -1.2872 H   0  0  0  0  0  0  0  0  0  0  0  0
   -3.3789   -2.4159   -0.3758 H   0  0  0  0  0  0  0  0  0  0  0  0
   -2.9211   -1.2077    1.6554 H   0  0  0  0  0  0  0  0  0  0  0  0
   -5.9954    0.4213   -0.4356 H   0  0  0  0  0  0  0  0  0  0  0  0
   -8.1645   -0.2318    1.0936 H   0  0  0  0  0  0  0  0  0  0  0  0
   -7.0999   -1.6242    3.2295 H   0  0  0  0  0  0  0  0  0  0  0  0
   -4.1769    3.2263   -0.1381 H   0  0  0  0  0  0  0  0  0  0  0  0
   -4.2385    4.2399   -2.3808 H   0  0  0  0  0  0  0  0  0  0  0  0
   -2.9136    3.2444   -4.2302 H   0  0  0  0  0  0  0  0  0  0  0  0
   -1.5795    1.2304   -3.8538 H   0  0  0  0  0  0  0  0  0  0  0  0
    2.1983   -1.2975   -1.3587 H   0  0  0  0  0  0  0  0  0  0  0  0
    2.6035    1.5386    1.0826 H   0  0  0  0  0  0  0  0  0  0  0  0
    4.5891    1.7373    2.4914 H   0  0  0  0  0  0  0  0  0  0  0  0
    4.2542   -2.0412   -0.7013 H   0  0  0  0  0  0  0  0  0  0  0  0
    6.8043   -2.5164    2.6459 H   0  0  0  0  0  0  0  0  0  0  0  0
    8.1646   -2.6627    1.5128 H   0  0  0  0  0  0  0  0  0  0  0  0
    8.2112   -0.1560    1.2294 H   0  0  0  0  0  0  0  0  0  0  0  0
    8.4708   -0.6311    2.9144 H   0  0  0  0  0  0  0  0  0  0  0  0
  1  2  2  0
  2  3  1  0
  3  4  1  0
  4  5  1  0
  5  6  2  0
  5  7  1  0
  7  8  1  0
  8  9  1  0
  9 10  2  0
 10 11  1  0
 11 12  2  0
 12 13  1  0
  8 14  1  0
 14 15  1  0
 15 16  2  0
 16 17  1  0
 17 18  2  0
 18 19  1  0
 19 20  2  0
  2 21  1  0
 21 22  1  0
 22 23  2  0
 23 24  1  0
 24 25  2  0
 25 26  1  0
 26 27  2  0
 26 28  1  0
 28 29  1  0
 29 30  1  0
 30 31  1  0
 20  4  1  0
 27 22  1  0
 13  9  1  0
 20 15  1  0
 31 25  1  0
  3 32  1  0
  3 33  1  0
  7 34  1  0
  7 35  1  0
  8 36  1  0
 10 37  1  0
 11 38  1  0
 12 39  1  0
 16 40  1  0
 17 41  1  0
 18 42  1  0
 19 43  1  0
 21 44  1  0
 23 45  1  0
 24 46  1  0
 27 47  1  0
 29 48  1  0
 29 49  1  0
 30 50  1  0
 30 51  1  0
M  END
$$$$
