
     RDKit          3D

 48 51  0  0  0  0  0  0  0  0999 V2000
   -1.4602    2.0437    2.0212 C   0  0  0  0  0  0  0  0  0  0  0  0
   -0.9931    2.6858    0.7250 C   0  0  0  0  0  0  0  0  0  0  0  0
   -1.0292    1.7729   -0.3960 N   0  0  0  0  0  0  0  0  0  0  0  0
   -2.0611    1.6070   -1.2840 C   0  0  0  0  0  0  0  0  0  0  0  0
   -3.5859    2.4156   -1.1784 S   0  0  0  0  0  0  0  0  0  0  0  0
   -4.6965    1.1068   -1.7903 C   0  0  0  0  0  0  0  0  0  0  0  0
   -4.9839    0.0640   -0.7315 C   0  0  0  0  0  0  0  0  0  0  0  0
   -6.0220    0.2591    0.1960 C   0  0  0  0  0  0  0  0  0  0  0  0
   -6.2703   -0.6918    1.1889 C   0  0  0  0  0  0  0  0  0  0  0  0
   -5.4803   -1.8346    1.2585 C   0  0  0  0  0  0  0  0  0  0  0  0
   -5.7188   -2.7382    2.2151 F   0  0  0  0  0  0  0  0  0  0  0  0
   -4.4480   -2.0468    0.3523 C   0  0  0  0  0  0  0  0  0  0  0  0
   -4.2001   -1.0994   -0.6434 C   0  0  0  0  0  0  0  0  0  0  0  0
   -1.7239    0.7365   -2.2041 N   0  0  0  0  0  0  0  0  0  0  0  0
   -0.4707    0.2798   -1.8968 N   0  0  0  0  0  0  0  0  0  0  0  0
   -0.0588    0.8787   -0.7956 C   0  0  0  0  0  0  0  0  0  0  0  0
    1.3312    0.5585   -0.1632 C   0  0  0  0  0  0  0  0  0  0  0  0
    1.9653    1.1022    0.9562 C   0  0  0  0  0  0  0  0  0  0  0  0
    3.1688    0.5724    1.1630 N   0  0  0  0  0  0  0  0  0  0  0  0
    3.3820   -0.2350    0.0828 N   0  0  0  0  0  0  0  0  0  0  0  0
    4.7143   -0.6804   -0.1766 C   0  0  0  0  0  0  0  0  0  0  0  0
    5.6541   -0.6555    0.8678 C   0  0  0  0  0  0  0  0  0  0  0  0
    6.9714   -1.0669    0.6494 C   0  0  0  0  0  0  0  0  0  0  0  0
    7.3682   -1.4885   -0.6181 C   0  0  0  0  0  0  0  0  0  0  0  0
    6.4521   -1.4896   -1.6665 C   0  0  0  0  0  0  0  0  0  0  0  0
    5.1317   -1.0796   -1.4526 C   0  0  0  0  0  0  0  0  0  0  0  0
    2.2033   -0.4208   -0.6132 C   0  0  0  0  0  0  0  0  0  0  0  0
    1.9915   -1.5168   -1.5701 C   0  0  0  0  0  0  0  0  0  0  0  0
    2.8230   -2.5691   -1.3532 F   0  0  0  0  0  0  0  0  0  0  0  0
    2.1887   -1.1207   -2.8517 F   0  0  0  0  0  0  0  0  0  0  0  0
    0.7415   -2.0405   -1.4897 F   0  0  0  0  0  0  0  0  0  0  0  0
   -1.4148    2.7710    2.8374 H   0  0  0  0  0  0  0  0  0  0  0  0
   -0.8355    1.1867    2.2931 H   0  0  0  0  0  0  0  0  0  0  0  0
   -2.4924    1.6857    1.9387 H   0  0  0  0  0  0  0  0  0  0  0  0
   -1.6158    3.5555    0.4913 H   0  0  0  0  0  0  0  0  0  0  0  0
    0.0240    3.0765    0.8163 H   0  0  0  0  0  0  0  0  0  0  0  0
   -5.6403    1.5799   -2.0928 H   0  0  0  0  0  0  0  0  0  0  0  0
   -4.2953    0.6450   -2.6997 H   0  0  0  0  0  0  0  0  0  0  0  0
   -6.6387    1.1529    0.1513 H   0  0  0  0  0  0  0  0  0  0  0  0
   -7.0718   -0.5497    1.9075 H   0  0  0  0  0  0  0  0  0  0  0  0
   -3.8426   -2.9450    0.4247 H   0  0  0  0  0  0  0  0  0  0  0  0
   -3.3843   -1.2709   -1.3459 H   0  0  0  0  0  0  0  0  0  0  0  0
    1.6269    1.8523    1.6565 H   0  0  0  0  0  0  0  0  0  0  0  0
    5.3723   -0.3288    1.8656 H   0  0  0  0  0  0  0  0  0  0  0  0
    7.6863   -1.0554    1.4706 H   0  0  0  0  0  0  0  0  0  0  0  0
    8.3925   -1.8095   -0.7911 H   0  0  0  0  0  0  0  0  0  0  0  0
    6.7670   -1.8021   -2.6583 H   0  0  0  0  0  0  0  0  0  0  0  0
    4.4782   -1.0528   -2.3181 H   0  0  0  0  0  0  0  0  0  0  0  0
  1  2  1  0
  2  3  1  0
  3  4  1  0
  4  5  1  0
  5  6  1  0
  6  7  1  0
  7  8  2  0
  8  9  1  0
  9 10  2  0
 10 11  1  0
 10 12  1  0
 12 13  2  0
  4 14  2  0
 14 15  1  0
 15 16  2  0
 16 17  1  0
 17 18  1  0
 18 19  2  0
 19 20  1  0
 20 21  1  0
 21 22  2  0
 22 23  1  0
 23 24  2  0
 24 25  1  0
 25 26  2  0
 20 27  1  0
 27 28  1  0
 28 29  1  0
 28 30  1  0
 28 31  1  0
 16  3  1  0
 27 17  2  0
 13  7  1  0
 26 21  1  0
  1 32  1  0
  1 33  1  0
  1 34  1  0
  2 35  1  0
  2 36  1  0
  6 37  1  0
  6 38  1  0
  8 39  1  0
  9 40  1  0
 12 41  1  0
 13 42  1  0
 18 43  1  0
 22 44  1  0
 23 45  1  0
 24 46  1  0
 25 47  1  0
 26 48  1  0
M  END
$$$$
