
     RDKit          3D

 59 62  0  0  0  0  0  0  0  0999 V2000
   -9.8237   -0.1718   -1.5415 C   0  0  0  0  0  0  0  0  0  0  0  0
   -8.9469    0.8762   -1.9395 O   0  0  0  0  0  0  0  0  0  0  0  0
   -7.6098    0.6756   -1.7404 C   0  0  0  0  0  0  0  0  0  0  0  0
   -7.0238   -0.4530   -1.1654 C   0  0  0  0  0  0  0  0  0  0  0  0
   -5.6323   -0.5278   -1.0264 C   0  0  0  0  0  0  0  0  0  0  0  0
   -4.8178    0.5258   -1.4530 C   0  0  0  0  0  0  0  0  0  0  0  0
   -3.3742    0.4403   -1.3091 C   0  0  0  0  0  0  0  0  0  0  0  0
   -2.4315   -0.1187   -2.1522 C   0  0  0  0  0  0  0  0  0  0  0  0
   -1.1668    0.0131   -1.6505 N   0  0  0  0  0  0  0  0  0  0  0  0
   -1.3170    0.6362   -0.5045 C   0  0  0  0  0  0  0  0  0  0  0  0
   -0.0111    1.0583    0.5510 S   0  0  0  0  0  0  0  0  0  0  0  0
    1.3901    0.8535   -0.5860 C   0  0  0  0  0  0  0  0  0  0  0  0
    2.6945    1.2446    0.0976 C   0  0  0  0  0  0  0  0  0  0  0  0
    2.8011    2.2929    0.7300 O   0  0  0  0  0  0  0  0  0  0  0  0
    3.6964    0.3213   -0.1293 N   0  0  0  0  0  0  0  0  0  0  0  0
    4.9887    0.3723    0.3215 C   0  0  0  0  0  0  0  0  0  0  0  0
    5.8538   -0.5486   -0.0321 N   0  0  0  0  0  0  0  0  0  0  0  0
    7.0986   -0.2891    0.5365 C   0  0  0  0  0  0  0  0  0  0  0  0
    8.2385   -1.2528    0.2378 C   0  0  0  0  0  0  0  0  0  0  0  0
    7.9362   -2.6210    0.8814 C   0  0  0  0  0  0  0  0  0  0  0  0
    8.3859   -1.4387   -1.2869 C   0  0  0  0  0  0  0  0  0  0  0  0
    9.5885   -0.7483    0.7839 C   0  0  0  0  0  0  0  0  0  0  0  0
    7.1208    0.8409    1.3347 C   0  0  0  0  0  0  0  0  0  0  0  0
    5.5770    1.5828    1.3600 S   0  0  0  0  0  0  0  0  0  0  0  0
   -2.6359    0.9228   -0.2411 N   0  0  0  0  0  0  0  0  0  0  0  0
   -3.1679    1.6595    0.8966 C   0  0  0  0  0  0  0  0  0  0  0  0
   -3.6919    0.7444    1.9398 C   0  0  0  0  0  0  0  0  0  0  0  0
   -4.9661    0.4079    2.3533 C   0  0  0  0  0  0  0  0  0  0  0  0
   -4.8097   -0.5224    3.4092 C   0  0  0  0  0  0  0  0  0  0  0  0
   -3.4538   -0.6852    3.5811 C   0  0  0  0  0  0  0  0  0  0  0  0
   -2.7692    0.0829    2.6974 O   0  0  0  0  0  0  0  0  0  0  0  0
   -5.4048    1.6517   -2.0338 C   0  0  0  0  0  0  0  0  0  0  0  0
   -6.7933    1.7240   -2.1716 C   0  0  0  0  0  0  0  0  0  0  0  0
  -10.8439    0.1373   -1.7838 H   0  0  0  0  0  0  0  0  0  0  0  0
   -9.7730   -0.3347   -0.4608 H   0  0  0  0  0  0  0  0  0  0  0  0
   -9.6163   -1.0949   -2.0937 H   0  0  0  0  0  0  0  0  0  0  0  0
   -7.6161   -1.2939   -0.8181 H   0  0  0  0  0  0  0  0  0  0  0  0
   -5.1884   -1.4150   -0.5780 H   0  0  0  0  0  0  0  0  0  0  0  0
   -2.6100   -0.6064   -3.1012 H   0  0  0  0  0  0  0  0  0  0  0  0
    1.2712    1.4953   -1.4672 H   0  0  0  0  0  0  0  0  0  0  0  0
    1.4270   -0.1897   -0.9135 H   0  0  0  0  0  0  0  0  0  0  0  0
    3.5260   -0.4828   -0.7188 H   0  0  0  0  0  0  0  0  0  0  0  0
    7.0044   -3.0503    0.4953 H   0  0  0  0  0  0  0  0  0  0  0  0
    8.7403   -3.3399    0.6826 H   0  0  0  0  0  0  0  0  0  0  0  0
    7.8269   -2.5316    1.9691 H   0  0  0  0  0  0  0  0  0  0  0  0
    7.4728   -1.8489   -1.7332 H   0  0  0  0  0  0  0  0  0  0  0  0
    8.5936   -0.4830   -1.7850 H   0  0  0  0  0  0  0  0  0  0  0  0
    9.2062   -2.1268   -1.5254 H   0  0  0  0  0  0  0  0  0  0  0  0
    9.5662   -0.6421    1.8761 H   0  0  0  0  0  0  0  0  0  0  0  0
   10.4014   -1.4422    0.5389 H   0  0  0  0  0  0  0  0  0  0  0  0
    9.8499    0.2288    0.3598 H   0  0  0  0  0  0  0  0  0  0  0  0
    7.9419    1.2646    1.8953 H   0  0  0  0  0  0  0  0  0  0  0  0
   -2.3902    2.3126    1.3043 H   0  0  0  0  0  0  0  0  0  0  0  0
   -3.9562    2.3219    0.5247 H   0  0  0  0  0  0  0  0  0  0  0  0
   -5.8918    0.7867    1.9395 H   0  0  0  0  0  0  0  0  0  0  0  0
   -5.5867   -1.0160    3.9788 H   0  0  0  0  0  0  0  0  0  0  0  0
   -2.8460   -1.2782    4.2529 H   0  0  0  0  0  0  0  0  0  0  0  0
   -4.7900    2.4761   -2.3885 H   0  0  0  0  0  0  0  0  0  0  0  0
   -7.2420    2.6034   -2.6283 H   0  0  0  0  0  0  0  0  0  0  0  0
  1  2  1  0
  2  3  1  0
  3  4  2  0
  4  5  1  0
  5  6  2  0
  6  7  1  0
  7  8  2  0
  8  9  1  0
  9 10  2  0
 10 11  1  0
 11 12  1  0
 12 13  1  0
 13 14  2  0
 13 15  1  0
 15 16  1  0
 16 17  2  0
 17 18  1  0
 18 19  1  0
 19 20  1  0
 19 21  1  0
 19 22  1  0
 18 23  2  0
 23 24  1  0
 10 25  1  0
 25 26  1  0
 26 27  1  0
 27 28  2  0
 28 29  1  0
 29 30  2  0
 30 31  1  0
  6 32  1  0
 32 33  2  0
 33  3  1  0
 25  7  1  0
 31 27  1  0
 24 16  1  0
  1 34  1  0
  1 35  1  0
  1 36  1  0
  4 37  1  0
  5 38  1  0
  8 39  1  0
 12 40  1  0
 12 41  1  0
 15 42  1  0
 20 43  1  0
 20 44  1  0
 20 45  1  0
 21 46  1  0
 21 47  1  0
 21 48  1  0
 22 49  1  0
 22 50  1  0
 22 51  1  0
 23 52  1  0
 26 53  1  0
 26 54  1  0
 28 55  1  0
 29 56  1  0
 30 57  1  0
 32 58  1  0
 33 59  1  0
M  END
$$$$
