
     RDKit          3D

 38 39  0  0  0  0  0  0  0  0999 V2000
   -2.6058    1.7997    2.0563 C   0  0  0  0  0  0  0  0  0  0  0  0
   -2.3009    1.3507    0.7366 O   0  0  0  0  0  0  0  0  0  0  0  0
   -2.6043    0.0448    0.4629 C   0  0  0  0  0  0  0  0  0  0  0  0
   -2.5693   -0.9656    1.4309 C   0  0  0  0  0  0  0  0  0  0  0  0
   -2.9240   -2.2771    1.1017 C   0  0  0  0  0  0  0  0  0  0  0  0
   -3.3199   -2.5922   -0.1953 C   0  0  0  0  0  0  0  0  0  0  0  0
   -3.3388   -1.5987   -1.1716 C   0  0  0  0  0  0  0  0  0  0  0  0
   -2.9571   -0.2870   -0.8539 C   0  0  0  0  0  0  0  0  0  0  0  0
   -2.9900    0.7087   -1.9568 C   0  0  0  0  0  0  0  0  0  0  0  0
   -3.9207    0.6667   -2.7638 O   0  0  0  0  0  0  0  0  0  0  0  0
   -1.8824    1.7433   -2.0734 C   0  0  0  0  0  0  0  0  0  0  0  0
   -0.6185    1.2136   -1.6792 O   0  0  0  0  0  0  0  0  0  0  0  0
    0.3569    2.1448   -1.5870 C   0  0  0  0  0  0  0  0  0  0  0  0
    0.2502    3.3303   -1.8626 O   0  0  0  0  0  0  0  0  0  0  0  0
    1.6292    1.5662   -1.1093 C   0  0  0  0  0  0  0  0  0  0  0  0
    1.7811    0.2962   -0.7006 C   0  0  0  0  0  0  0  0  0  0  0  0
    3.0604   -0.2580   -0.2330 C   0  0  0  0  0  0  0  0  0  0  0  0
    3.3692   -1.5922   -0.5291 C   0  0  0  0  0  0  0  0  0  0  0  0
    4.5679   -2.1607   -0.0892 C   0  0  0  0  0  0  0  0  0  0  0  0
    5.4643   -1.4052    0.6622 C   0  0  0  0  0  0  0  0  0  0  0  0
    5.1602   -0.0833    0.9803 C   0  0  0  0  0  0  0  0  0  0  0  0
    3.9620    0.4862    0.5397 C   0  0  0  0  0  0  0  0  0  0  0  0
   -3.5966    1.4609    2.3825 H   0  0  0  0  0  0  0  0  0  0  0  0
   -2.6194    2.8940    2.0422 H   0  0  0  0  0  0  0  0  0  0  0  0
   -1.8308    1.4822    2.7651 H   0  0  0  0  0  0  0  0  0  0  0  0
   -2.2589   -0.7605    2.4506 H   0  0  0  0  0  0  0  0  0  0  0  0
   -2.8989   -3.0535    1.8627 H   0  0  0  0  0  0  0  0  0  0  0  0
   -3.6147   -3.6067   -0.4470 H   0  0  0  0  0  0  0  0  0  0  0  0
   -3.6529   -1.8450   -2.1836 H   0  0  0  0  0  0  0  0  0  0  0  0
   -1.8141    2.0239   -3.1323 H   0  0  0  0  0  0  0  0  0  0  0  0
   -2.1623    2.6243   -1.4830 H   0  0  0  0  0  0  0  0  0  0  0  0
    2.4548    2.2705   -1.1193 H   0  0  0  0  0  0  0  0  0  0  0  0
    0.9453   -0.3994   -0.7176 H   0  0  0  0  0  0  0  0  0  0  0  0
    2.6844   -2.2005   -1.1152 H   0  0  0  0  0  0  0  0  0  0  0  0
    4.8007   -3.1935   -0.3349 H   0  0  0  0  0  0  0  0  0  0  0  0
    6.3974   -1.8475    1.0027 H   0  0  0  0  0  0  0  0  0  0  0  0
    5.8539    0.5054    1.5743 H   0  0  0  0  0  0  0  0  0  0  0  0
    3.7422    1.5143    0.8160 H   0  0  0  0  0  0  0  0  0  0  0  0
  1  2  1  0
  2  3  1  0
  3  4  2  0
  4  5  1  0
  5  6  2  0
  6  7  1  0
  7  8  2  0
  8  9  1  0
  9 10  2  0
  9 11  1  0
 11 12  1  0
 12 13  1  0
 13 14  2  0
 13 15  1  0
 15 16  2  3
 16 17  1  0
 17 18  2  0
 18 19  1  0
 19 20  2  0
 20 21  1  0
 21 22  2  0
  8  3  1  0
 22 17  1  0
  1 23  1  0
  1 24  1  0
  1 25  1  0
  4 26  1  0
  5 27  1  0
  6 28  1  0
  7 29  1  0
 11 30  1  0
 11 31  1  0
 15 32  1  0
 16 33  1  0
 18 34  1  0
 19 35  1  0
 20 36  1  0
 21 37  1  0
 22 38  1  0
M  END
$$$$
