
     RDKit          3D

 32 33  0  0  0  0  0  0  0  0999 V2000
    4.1864    0.6626   -0.3819 C   0  0  0  0  0  0  0  0  0  0  0  0
    4.2189   -0.8474   -0.2182 C   0  0  0  0  0  0  0  0  0  0  0  0
    2.8962   -1.4313    0.8845 S   0  0  0  0  0  0  0  0  0  0  0  0
    1.4786   -1.2144   -0.0910 C   0  0  0  0  0  0  0  0  0  0  0  0
    1.2408   -1.4603   -1.4214 C   0  0  0  0  0  0  0  0  0  0  0  0
   -0.0371   -1.1111   -1.7615 N   0  0  0  0  0  0  0  0  0  0  0  0
   -0.6102   -0.6882   -0.6490 C   0  0  0  0  0  0  0  0  0  0  0  0
   -1.9876   -0.2089   -0.5617 C   0  0  0  0  0  0  0  0  0  0  0  0
   -2.3434    0.9986   -1.1739 C   0  0  0  0  0  0  0  0  0  0  0  0
   -3.6554    1.4698   -1.0957 C   0  0  0  0  0  0  0  0  0  0  0  0
   -4.6219    0.7309   -0.4145 C   0  0  0  0  0  0  0  0  0  0  0  0
   -4.2809   -0.4828    0.1812 C   0  0  0  0  0  0  0  0  0  0  0  0
   -2.9688   -0.9546    0.1036 C   0  0  0  0  0  0  0  0  0  0  0  0
    0.2916   -0.7253    0.4041 N   0  0  0  0  0  0  0  0  0  0  0  0
    0.0304   -0.2667    1.7579 C   0  0  0  0  0  0  0  0  0  0  0  0
    0.3572    1.2056    1.9447 C   0  0  0  0  0  0  0  0  0  0  0  0
    4.2817    1.1727    0.5827 H   0  0  0  0  0  0  0  0  0  0  0  0
    5.0234    0.9852   -1.0100 H   0  0  0  0  0  0  0  0  0  0  0  0
    3.2645    1.0021   -0.8648 H   0  0  0  0  0  0  0  0  0  0  0  0
    4.1545   -1.3452   -1.1905 H   0  0  0  0  0  0  0  0  0  0  0  0
    5.1742   -1.1394    0.2302 H   0  0  0  0  0  0  0  0  0  0  0  0
    1.9206   -1.8644   -2.1594 H   0  0  0  0  0  0  0  0  0  0  0  0
   -1.5969    1.5711   -1.7204 H   0  0  0  0  0  0  0  0  0  0  0  0
   -3.9237    2.4079   -1.5745 H   0  0  0  0  0  0  0  0  0  0  0  0
   -5.6448    1.0949   -0.3598 H   0  0  0  0  0  0  0  0  0  0  0  0
   -5.0386   -1.0672    0.6967 H   0  0  0  0  0  0  0  0  0  0  0  0
   -2.7179   -1.9126    0.5530 H   0  0  0  0  0  0  0  0  0  0  0  0
    0.6091   -0.8828    2.4531 H   0  0  0  0  0  0  0  0  0  0  0  0
   -1.0205   -0.4536    1.9951 H   0  0  0  0  0  0  0  0  0  0  0  0
   -0.2421    1.8330    1.2769 H   0  0  0  0  0  0  0  0  0  0  0  0
    0.1497    1.5114    2.9748 H   0  0  0  0  0  0  0  0  0  0  0  0
    1.4121    1.4105    1.7352 H   0  0  0  0  0  0  0  0  0  0  0  0
  1  2  1  0
  2  3  1  0
  3  4  1  0
  4  5  2  0
  5  6  1  0
  6  7  2  0
  7  8  1  0
  8  9  2  0
  9 10  1  0
 10 11  2  0
 11 12  1  0
 12 13  2  0
  7 14  1  0
 14 15  1  0
 15 16  1  0
 14  4  1  0
 13  8  1  0
  1 17  1  0
  1 18  1  0
  1 19  1  0
  2 20  1  0
  2 21  1  0
  5 22  1  0
  9 23  1  0
 10 24  1  0
 11 25  1  0
 12 26  1  0
 13 27  1  0
 15 28  1  0
 15 29  1  0
 16 30  1  0
 16 31  1  0
 16 32  1  0
M  END
$$$$
