
     RDKit          3D

 57 60  0  0  0  0  0  0  0  0999 V2000
   -0.1700    0.2675    4.9513 C   0  0  0  0  0  0  0  0  0  0  0  0
   -0.8529    0.7510    3.7952 O   0  0  0  0  0  0  0  0  0  0  0  0
   -0.0477    0.9476    2.7082 C   0  0  0  0  0  0  0  0  0  0  0  0
    1.1519    1.6620    2.8090 C   0  0  0  0  0  0  0  0  0  0  0  0
    1.9266    1.9116    1.6714 C   0  0  0  0  0  0  0  0  0  0  0  0
    1.5002    1.4545    0.4195 C   0  0  0  0  0  0  0  0  0  0  0  0
    2.2827    1.7256   -0.8143 C   0  0  0  0  0  0  0  0  0  0  0  0
    1.7016    1.9105   -1.8758 O   0  0  0  0  0  0  0  0  0  0  0  0
    3.6535    1.7256   -0.6711 N   0  0  0  0  0  0  0  0  0  0  0  0
    4.5239    1.7938   -1.8242 C   0  0  0  0  0  0  0  0  0  0  0  0
    4.9953    0.4152   -2.2130 C   0  0  0  0  0  0  0  0  0  0  0  0
    6.2344   -0.0796   -1.7412 C   0  0  0  0  0  0  0  0  0  0  0  0
    6.6659   -1.3687   -2.0703 C   0  0  0  0  0  0  0  0  0  0  0  0
    5.8406   -2.1386   -2.8608 C   0  0  0  0  0  0  0  0  0  0  0  0
    4.6312   -1.6702   -3.3190 C   0  0  0  0  0  0  0  0  0  0  0  0
    4.1794   -0.4044   -3.0123 C   0  0  0  0  0  0  0  0  0  0  0  0
    3.9719   -2.5877   -4.0762 O   0  0  0  0  0  0  0  0  0  0  0  0
    4.9078   -3.6856   -4.0460 C   0  0  0  0  0  0  0  0  0  0  0  0
    6.0957   -3.4093   -3.2729 O   0  0  0  0  0  0  0  0  0  0  0  0
    0.2914    0.7620    0.3057 C   0  0  0  0  0  0  0  0  0  0  0  0
   -0.4795    0.5143    1.4500 C   0  0  0  0  0  0  0  0  0  0  0  0
   -1.9919   -0.4052    1.2826 S   0  0  0  0  0  6  0  0  0  0  0  0
   -2.1536   -0.7323   -0.1199 O   0  0  0  0  0  0  0  0  0  0  0  0
   -1.9710   -1.4597    2.2762 O   0  0  0  0  0  0  0  0  0  0  0  0
   -3.1822    0.7346    1.6853 N   0  0  0  0  0  0  0  0  0  0  0  0
   -3.3405    1.8717    0.7618 C   0  0  0  0  0  0  0  0  0  0  0  0
   -4.4522    0.1863    2.2109 C   0  0  0  0  0  0  0  0  0  0  0  0
   -5.4409   -0.3096    1.1811 C   0  0  0  0  0  0  0  0  0  0  0  0
   -6.4915    0.5125    0.7438 C   0  0  0  0  0  0  0  0  0  0  0  0
   -7.4007    0.0561   -0.2129 C   0  0  0  0  0  0  0  0  0  0  0  0
   -7.2699   -1.2256   -0.7442 C   0  0  0  0  0  0  0  0  0  0  0  0
   -6.2312   -2.0514   -0.3189 C   0  0  0  0  0  0  0  0  0  0  0  0
   -5.3219   -1.5973    0.6387 C   0  0  0  0  0  0  0  0  0  0  0  0
    0.2918    1.0980    5.4984 H   0  0  0  0  0  0  0  0  0  0  0  0
    0.5780   -0.4956    4.6998 H   0  0  0  0  0  0  0  0  0  0  0  0
   -0.9127   -0.1942    5.6087 H   0  0  0  0  0  0  0  0  0  0  0  0
    1.4815    2.0627    3.7635 H   0  0  0  0  0  0  0  0  0  0  0  0
    2.8364    2.4979    1.7705 H   0  0  0  0  0  0  0  0  0  0  0  0
    4.0521    1.3448    0.1756 H   0  0  0  0  0  0  0  0  0  0  0  0
    5.3770    2.4245   -1.5504 H   0  0  0  0  0  0  0  0  0  0  0  0
    4.0200    2.2781   -2.6684 H   0  0  0  0  0  0  0  0  0  0  0  0
    6.8690    0.5436   -1.1141 H   0  0  0  0  0  0  0  0  0  0  0  0
    7.6161   -1.7538   -1.7153 H   0  0  0  0  0  0  0  0  0  0  0  0
    3.2146   -0.0590   -3.3757 H   0  0  0  0  0  0  0  0  0  0  0  0
    5.2076   -3.9192   -5.0749 H   0  0  0  0  0  0  0  0  0  0  0  0
    4.4068   -4.5619   -3.6172 H   0  0  0  0  0  0  0  0  0  0  0  0
   -0.0406    0.4188   -0.6734 H   0  0  0  0  0  0  0  0  0  0  0  0
   -2.4018    2.4230    0.6667 H   0  0  0  0  0  0  0  0  0  0  0  0
   -3.6658    1.5425   -0.2286 H   0  0  0  0  0  0  0  0  0  0  0  0
   -4.0781    2.5783    1.1557 H   0  0  0  0  0  0  0  0  0  0  0  0
   -4.9269    0.9728    2.8142 H   0  0  0  0  0  0  0  0  0  0  0  0
   -4.2531   -0.6105    2.9384 H   0  0  0  0  0  0  0  0  0  0  0  0
   -6.6085    1.5165    1.1460 H   0  0  0  0  0  0  0  0  0  0  0  0
   -8.2098    0.7008   -0.5464 H   0  0  0  0  0  0  0  0  0  0  0  0
   -7.9741   -1.5803   -1.4923 H   0  0  0  0  0  0  0  0  0  0  0  0
   -6.1223   -3.0494   -0.7367 H   0  0  0  0  0  0  0  0  0  0  0  0
   -4.5139   -2.2558    0.9538 H   0  0  0  0  0  0  0  0  0  0  0  0
  1  2  1  0
  2  3  1  0
  3  4  2  0
  4  5  1  0
  5  6  2  0
  6  7  1  0
  7  8  2  0
  7  9  1  0
  9 10  1  0
 10 11  1  0
 11 12  2  0
 12 13  1  0
 13 14  2  0
 14 15  1  0
 15 16  2  0
 15 17  1  0
 17 18  1  0
 18 19  1  0
  6 20  1  0
 20 21  2  0
 21 22  1  0
 22 23  2  0
 22 24  2  0
 22 25  1  0
 25 26  1  0
 25 27  1  0
 27 28  1  0
 28 29  2  0
 29 30  1  0
 30 31  2  0
 31 32  1  0
 32 33  2  0
 21  3  1  0
 33 28  1  0
 16 11  1  0
 19 14  1  0
  1 34  1  0
  1 35  1  0
  1 36  1  0
  4 37  1  0
  5 38  1  0
  9 39  1  0
 10 40  1  0
 10 41  1  0
 12 42  1  0
 13 43  1  0
 16 44  1  0
 18 45  1  0
 18 46  1  0
 20 47  1  0
 26 48  1  0
 26 49  1  0
 26 50  1  0
 27 51  1  0
 27 52  1  0
 29 53  1  0
 30 54  1  0
 31 55  1  0
 32 56  1  0
 33 57  1  0
M  END
$$$$
