
     RDKit          3D

 46 49  0  0  0  0  0  0  0  0999 V2000
    1.1550   -0.0328   -2.0664 O   0  0  0  0  0  0  0  0  0  0  0  0
    1.6575    0.9868   -1.6110 C   0  0  0  0  0  0  0  0  0  0  0  0
    0.9470    1.9352   -0.6552 C   0  0  0  0  0  0  0  0  0  0  0  0
   -0.2823    1.3328   -0.1048 N   0  0  0  0  0  4  0  0  0  0  0  0
   -1.5878    1.7997   -0.2467 C   0  0  0  0  0  0  0  0  0  0  0  0
   -2.4562    0.9083    0.3752 C   0  0  0  0  0  0  0  0  0  0  0  0
   -4.0250    1.0180    0.4356 C   0  0  0  0  0  0  0  0  0  0  0  0
   -4.6737    2.1232   -0.1270 C   0  0  0  0  0  0  0  0  0  0  0  0
   -6.0691    2.2207   -0.0765 C   0  0  0  0  0  0  0  0  0  0  0  0
   -6.8270    1.2184    0.5323 C   0  0  0  0  0  0  0  0  0  0  0  0
   -8.5409    1.4048    0.5573 Cl  0  0  0  0  0  0  0  0  0  0  0  0
   -6.1812    0.1128    1.0902 C   0  0  0  0  0  0  0  0  0  0  0  0
   -7.0410   -1.1752    1.8553 Cl  0  0  0  0  0  0  0  0  0  0  0  0
   -4.7835    0.0146    1.0403 C   0  0  0  0  0  0  0  0  0  0  0  0
   -1.6068   -0.0544    0.8930 N   0  0  0  0  0  0  0  0  0  0  0  0
   -0.3390    0.1850    0.5661 C   0  0  0  0  0  0  0  0  0  0  0  0
    0.6016   -0.8480    1.0636 C   0  0  0  0  0  0  0  0  0  0  0  0
   -0.2764   -1.6220    2.0674 C   0  0  0  0  0  0  0  0  0  0  0  0
   -1.7387   -1.2831    1.6674 C   0  0  0  0  0  0  0  0  0  0  0  0
    2.9240    1.4235   -1.8399 O   0  0  0  0  0  0  0  0  0  0  0  0
    3.7702    0.5071   -2.5531 C   0  0  0  0  0  0  0  0  0  0  0  0
    4.3430   -0.4905   -1.5780 C   0  0  0  0  0  0  0  0  0  0  0  0
    5.2615   -0.0816   -0.6002 C   0  0  0  0  0  0  0  0  0  0  0  0
    5.7700   -1.0002    0.3200 C   0  0  0  0  0  0  0  0  0  0  0  0
    5.3635   -2.3325    0.2749 C   0  0  0  0  0  0  0  0  0  0  0  0
    4.4496   -2.7493   -0.6918 C   0  0  0  0  0  0  0  0  0  0  0  0
    3.9401   -1.8331   -1.6132 C   0  0  0  0  0  0  0  0  0  0  0  0
    0.6925    2.8550   -1.1891 H   0  0  0  0  0  0  0  0  0  0  0  0
    1.6015    2.1618    0.1924 H   0  0  0  0  0  0  0  0  0  0  0  0
   -1.7377    2.7142   -0.7950 H   0  0  0  0  0  0  0  0  0  0  0  0
   -4.1283    2.9301   -0.6086 H   0  0  0  0  0  0  0  0  0  0  0  0
   -6.5639    3.0857   -0.5155 H   0  0  0  0  0  0  0  0  0  0  0  0
   -4.3204   -0.8630    1.4718 H   0  0  0  0  0  0  0  0  0  0  0  0
    0.8882   -1.4605    0.2066 H   0  0  0  0  0  0  0  0  0  0  0  0
    1.4604   -0.3583    1.5253 H   0  0  0  0  0  0  0  0  0  0  0  0
   -0.0860   -1.2403    3.0770 H   0  0  0  0  0  0  0  0  0  0  0  0
   -0.0761   -2.6966    2.0709 H   0  0  0  0  0  0  0  0  0  0  0  0
   -2.3588   -1.1233    2.5523 H   0  0  0  0  0  0  0  0  0  0  0  0
   -2.1642   -2.0611    1.0263 H   0  0  0  0  0  0  0  0  0  0  0  0
    3.2303    0.0248   -3.3780 H   0  0  0  0  0  0  0  0  0  0  0  0
    4.5806    1.0887   -3.0089 H   0  0  0  0  0  0  0  0  0  0  0  0
    5.5946    0.9537   -0.5562 H   0  0  0  0  0  0  0  0  0  0  0  0
    6.4920   -0.6815    1.0678 H   0  0  0  0  0  0  0  0  0  0  0  0
    5.7693   -3.0488    0.9840 H   0  0  0  0  0  0  0  0  0  0  0  0
    4.1431   -3.7921   -0.7354 H   0  0  0  0  0  0  0  0  0  0  0  0
    3.2284   -2.1767   -2.3623 H   0  0  0  0  0  0  0  0  0  0  0  0
  1  2  2  0
  2  3  1  0
  3  4  1  0
  4  5  1  0
  5  6  2  0
  6  7  1  0
  7  8  2  0
  8  9  1  0
  9 10  2  0
 10 11  1  0
 10 12  1  0
 12 13  1  0
 12 14  2  0
  6 15  1  0
 15 16  1  0
 16 17  1  0
 17 18  1  0
 18 19  1  0
  2 20  1  0
 20 21  1  0
 21 22  1  0
 22 23  2  0
 23 24  1  0
 24 25  2  0
 25 26  1  0
 26 27  2  0
 16  4  2  0
 27 22  1  0
 14  7  1  0
 19 15  1  0
  3 28  1  0
  3 29  1  0
  5 30  1  0
  8 31  1  0
  9 32  1  0
 14 33  1  0
 17 34  1  0
 17 35  1  0
 18 36  1  0
 18 37  1  0
 19 38  1  0
 19 39  1  0
 21 40  1  0
 21 41  1  0
 23 42  1  0
 24 43  1  0
 25 44  1  0
 26 45  1  0
 27 46  1  0
M  CHG  1   4   1
M  END
$$$$
