
     RDKit          3D

 46 49  0  0  0  0  0  0  0  0999 V2000
   -0.9974   -3.5800    1.3437 C   0  0  0  0  0  0  0  0  0  0  0  0
   -1.1207   -3.2925   -0.0444 O   0  0  0  0  0  0  0  0  0  0  0  0
   -1.1294   -1.9740   -0.4070 C   0  0  0  0  0  0  0  0  0  0  0  0
   -1.2508   -1.7488   -1.7795 C   0  0  0  0  0  0  0  0  0  0  0  0
   -1.2497   -0.4517   -2.2902 C   0  0  0  0  0  0  0  0  0  0  0  0
   -1.1178    0.6345   -1.4274 C   0  0  0  0  0  0  0  0  0  0  0  0
   -1.0158    0.4274   -0.0464 C   0  0  0  0  0  0  0  0  0  0  0  0
   -0.8332    1.5595    0.8598 C   0  0  0  0  0  0  0  0  0  0  0  0
    0.2302    1.8767    1.7045 C   0  0  0  0  0  0  0  0  0  0  0  0
    1.4900    1.1710    1.9525 C   0  0  0  0  0  0  0  0  0  0  0  0
    2.0675    1.2635    3.0333 O   0  0  0  0  0  0  0  0  0  0  0  0
    1.9645    0.4133    0.8885 N   0  0  0  0  0  0  0  0  0  0  0  0
    3.0854   -0.3529    1.0378 N   0  0  0  0  0  0  0  0  0  0  0  0
    3.5342   -1.0490    0.0342 C   0  0  0  0  0  0  0  0  0  0  0  0
    4.7153   -1.9556    0.3071 C   0  0  0  0  0  0  0  0  0  0  0  0
    2.9943   -1.0842   -1.3148 C   0  0  0  0  0  0  0  0  0  0  0  0
    2.7104   -2.1956   -2.0902 C   0  0  0  0  0  0  0  0  0  0  0  0
    2.2343   -1.8449   -3.3897 C   0  0  0  0  0  0  0  0  0  0  0  0
    2.1939   -0.4849   -3.5480 C   0  0  0  0  0  0  0  0  0  0  0  0
    1.6780    0.3704   -4.9437 Cl  0  0  0  0  0  0  0  0  0  0  0  0
    2.7171    0.3686   -2.1862 S   0  0  0  0  0  0  0  0  0  0  0  0
   -0.0668    3.0280    2.3846 N   0  0  0  0  0  0  0  0  0  0  0  0
   -1.2530    3.4537    1.9961 N   0  0  0  0  0  0  0  0  0  0  0  0
   -1.7879    2.5526    1.1270 N   0  0  0  0  0  0  0  0  0  0  0  0
   -3.1245    2.6863    0.6696 C   0  0  0  0  0  0  0  0  0  0  0  0
   -3.6985    1.7492   -0.0852 N   0  0  0  0  0  0  0  0  0  0  0  0
   -4.9913    2.2247   -0.2953 O   0  0  0  0  0  0  0  0  0  0  0  0
   -5.1897    3.4449    0.3411 N   0  0  0  0  0  0  0  0  0  0  0  0
   -4.0318    3.7300    0.9352 C   0  0  0  0  0  0  0  0  0  0  0  0
   -3.8026    4.8437    1.6574 N   0  0  0  0  0  0  0  0  0  0  0  0
   -1.0214   -0.8835    0.4582 C   0  0  0  0  0  0  0  0  0  0  0  0
   -1.0072   -4.6678    1.4616 H   0  0  0  0  0  0  0  0  0  0  0  0
   -0.0456   -3.2105    1.7394 H   0  0  0  0  0  0  0  0  0  0  0  0
   -1.8450   -3.1759    1.9070 H   0  0  0  0  0  0  0  0  0  0  0  0
   -1.3477   -2.5939   -2.4572 H   0  0  0  0  0  0  0  0  0  0  0  0
   -1.3474   -0.2896   -3.3609 H   0  0  0  0  0  0  0  0  0  0  0  0
   -1.1063    1.6388   -1.8465 H   0  0  0  0  0  0  0  0  0  0  0  0
    1.5026    0.4328   -0.0135 H   0  0  0  0  0  0  0  0  0  0  0  0
    4.3601   -2.9810    0.4455 H   0  0  0  0  0  0  0  0  0  0  0  0
    5.4187   -1.9275   -0.5302 H   0  0  0  0  0  0  0  0  0  0  0  0
    5.2368   -1.6387    1.2151 H   0  0  0  0  0  0  0  0  0  0  0  0
    2.8241   -3.2160   -1.7417 H   0  0  0  0  0  0  0  0  0  0  0  0
    1.9403   -2.5537   -4.1538 H   0  0  0  0  0  0  0  0  0  0  0  0
   -4.5946    5.4021    1.9588 H   0  0  0  0  0  0  0  0  0  0  0  0
   -2.9885    4.9127    2.2678 H   0  0  0  0  0  0  0  0  0  0  0  0
   -0.9333   -1.0324    1.5306 H   0  0  0  0  0  0  0  0  0  0  0  0
  1  2  1  0
  2  3  1  0
  3  4  2  0
  4  5  1  0
  5  6  2  0
  6  7  1  0
  7  8  1  0
  8  9  2  0
  9 10  1  0
 10 11  2  0
 10 12  1  0
 12 13  1  0
 13 14  2  3
 14 15  1  0
 14 16  1  0
 16 17  2  0
 17 18  1  0
 18 19  2  0
 19 20  1  0
 19 21  1  0
  9 22  1  0
 22 23  2  0
 23 24  1  0
 24 25  1  0
 25 26  2  0
 26 27  1  0
 27 28  1  0
 28 29  2  0
 29 30  1  0
  7 31  2  0
 31  3  1  0
 24  8  1  0
 29 25  1  0
 21 16  1  0
  1 32  1  0
  1 33  1  0
  1 34  1  0
  4 35  1  0
  5 36  1  0
  6 37  1  0
 12 38  1  0
 15 39  1  0
 15 40  1  0
 15 41  1  0
 17 42  1  0
 18 43  1  0
 30 44  1  0
 30 45  1  0
 31 46  1  0
M  END
$$$$
