
     RDKit          3D

 97 99  0  0  0  0  0  0  0  0999 V2000
   -0.7366    5.1330    0.6829 C   0  0  0  0  0  0  0  0  0  0  0  0
   -0.8139    3.7873    0.0277 C   0  0  0  0  0  0  0  0  0  0  0  0
   -0.5578    3.5746   -1.1490 O   0  0  0  0  0  0  0  0  0  0  0  0
   -1.2308    2.8637    0.9346 O   0  0  0  0  0  0  0  0  0  0  0  0
   -1.3333    1.4871    0.4707 C   0  0  1  0  0  0  0  0  0  0  0  0
   -0.6881    0.5964    1.5731 C   0  0  2  0  0  0  0  0  0  0  0  0
   -1.2275    0.9437    2.8703 O   0  0  0  0  0  0  0  0  0  0  0  0
   -2.1075    0.0898    3.4458 C   0  0  0  0  0  0  0  0  0  0  0  0
   -2.5894    0.6538    4.7461 C   0  0  0  0  0  0  0  0  0  0  0  0
   -2.4833   -0.9732    2.9761 O   0  0  0  0  0  0  0  0  0  0  0  0
    0.8322    0.7592    1.6414 C   0  0  0  0  0  0  0  0  0  0  0  0
    1.3774    1.7400    2.6494 C   0  0  0  0  0  0  0  0  0  0  0  0
    1.6927    0.0454    0.8818 C   0  0  0  0  0  0  0  0  0  0  0  0
    1.3301   -0.9379   -0.2202 C   0  0  1  0  0  0  0  0  0  0  0  0
    2.2649   -0.8132   -1.4540 C   0  0  1  0  0  0  0  0  0  0  0  0
    2.7314    0.5261   -1.6404 O   0  0  0  0  0  0  0  0  0  0  0  0
    1.9560    1.3167   -2.4237 C   0  0  0  0  0  0  0  0  0  0  0  0
    0.9812    0.9516   -3.0607 O   0  0  0  0  0  0  0  0  0  0  0  0
    2.4867    2.7037   -2.4262 C   0  0  0  0  0  0  0  0  0  0  0  0
    3.3851    3.1569   -1.4485 C   0  0  0  0  0  0  0  0  0  0  0  0
    3.8519    4.4728   -1.4892 C   0  0  0  0  0  0  0  0  0  0  0  0
    3.4275    5.3359   -2.5026 C   0  0  0  0  0  0  0  0  0  0  0  0
    2.5260    4.8899   -3.4712 C   0  0  0  0  0  0  0  0  0  0  0  0
    2.0500    3.5791   -3.4321 C   0  0  0  0  0  0  0  0  0  0  0  0
    3.4063   -1.8330   -1.2387 C   0  0  1  0  0  0  0  0  0  0  0  0
    4.7977   -1.2289   -1.0730 C   0  0  0  0  0  0  0  0  0  0  0  0
    2.9834   -2.6743   -0.0195 C   0  0  0  0  0  0  0  0  0  0  0  0
    1.4578   -2.4424    0.1493 C   0  0  1  0  0  0  0  0  0  0  0  0
    0.9338   -2.7692    1.4642 O   0  0  0  0  0  0  0  0  0  0  0  0
    1.5482   -2.5472    2.6514 C   0  0  0  0  0  0  0  0  0  0  0  0
    0.6578   -3.0014    3.7689 C   0  0  0  0  0  0  0  0  0  0  0  0
    2.6430   -2.0406    2.8349 O   0  0  0  0  0  0  0  0  0  0  0  0
    0.6528   -3.3720   -0.8546 C   0  0  1  0  0  0  0  0  0  0  0  0
    1.0962   -4.7448   -0.6219 O   0  0  0  0  0  0  0  0  0  0  0  0
    1.2223   -5.5468   -1.7159 C   0  0  0  0  0  0  0  0  0  0  0  0
    1.6892   -6.9089   -1.3057 C   0  0  0  0  0  0  0  0  0  0  0  0
    1.0104   -5.2075   -2.8705 O   0  0  0  0  0  0  0  0  0  0  0  0
   -0.9197   -3.3817   -0.7929 C   0  0  1  0  0  0  0  0  0  0  0  0
   -1.4967   -4.0023    0.4905 C   0  0  0  0  0  0  0  0  0  0  0  0
   -1.5548   -2.0660   -1.2078 C   0  0  0  0  0  0  0  0  0  0  0  0
   -2.4297   -1.3259   -0.5011 C   0  0  0  0  0  0  0  0  0  0  0  0
   -3.0697    0.0038   -0.8957 C   0  0  0  0  0  0  0  0  0  0  0  0
   -2.6284    0.5002   -2.2935 C   0  0  0  0  0  0  0  0  0  0  0  0
   -4.5938   -0.2685   -0.9854 C   0  0  0  0  0  0  0  0  0  0  0  0
   -2.8287    1.1261    0.1955 C   0  0  2  0  0  0  0  0  0  0  0  0
   -3.5459    2.3121   -0.2534 O   0  0  0  0  0  0  0  0  0  0  0  0
   -4.2022    3.0323    0.6975 C   0  0  0  0  0  0  0  0  0  0  0  0
   -4.9102    4.1864    0.0557 C   0  0  0  0  0  0  0  0  0  0  0  0
   -4.2168    2.7936    1.8949 O   0  0  0  0  0  0  0  0  0  0  0  0
   -0.2650    5.8409   -0.0023 H   0  0  0  0  0  0  0  0  0  0  0  0
   -1.7434    5.4883    0.9205 H   0  0  0  0  0  0  0  0  0  0  0  0
   -0.1243    5.0738    1.5867 H   0  0  0  0  0  0  0  0  0  0  0  0
   -0.7569    1.3716   -0.4516 H   0  0  0  0  0  0  0  0  0  0  0  0
   -0.8843   -0.4574    1.3728 H   0  0  0  0  0  0  0  0  0  0  0  0
   -3.0275   -0.1472    5.3476 H   0  0  0  0  0  0  0  0  0  0  0  0
   -3.3398    1.4232    4.5525 H   0  0  0  0  0  0  0  0  0  0  0  0
   -1.7514    1.0726    5.3085 H   0  0  0  0  0  0  0  0  0  0  0  0
    2.4419    1.9391    2.4907 H   0  0  0  0  0  0  0  0  0  0  0  0
    1.2586    1.3454    3.6616 H   0  0  0  0  0  0  0  0  0  0  0  0
    0.8638    2.7019    2.5805 H   0  0  0  0  0  0  0  0  0  0  0  0
    2.7614    0.1827    1.0492 H   0  0  0  0  0  0  0  0  0  0  0  0
    0.3300   -0.6820   -0.5539 H   0  0  0  0  0  0  0  0  0  0  0  0
    1.7230   -1.1412   -2.3499 H   0  0  0  0  0  0  0  0  0  0  0  0
    3.7157    2.4983   -0.6469 H   0  0  0  0  0  0  0  0  0  0  0  0
    4.5509    4.8262   -0.7327 H   0  0  0  0  0  0  0  0  0  0  0  0
    3.7961    6.3579   -2.5354 H   0  0  0  0  0  0  0  0  0  0  0  0
    2.1884    5.5655   -4.2548 H   0  0  0  0  0  0  0  0  0  0  0  0
    1.3361    3.2372   -4.1819 H   0  0  0  0  0  0  0  0  0  0  0  0
    3.4352   -2.4971   -2.1147 H   0  0  0  0  0  0  0  0  0  0  0  0
    5.0994   -0.6954   -1.9794 H   0  0  0  0  0  0  0  0  0  0  0  0
    4.8396   -0.5253   -0.2370 H   0  0  0  0  0  0  0  0  0  0  0  0
    5.5392   -2.0110   -0.8898 H   0  0  0  0  0  0  0  0  0  0  0  0
    3.2437   -3.7285   -0.1535 H   0  0  0  0  0  0  0  0  0  0  0  0
    3.5583   -2.3502    0.8493 H   0  0  0  0  0  0  0  0  0  0  0  0
    1.2607   -3.1727    4.6652 H   0  0  0  0  0  0  0  0  0  0  0  0
    0.1707   -3.9444    3.5085 H   0  0  0  0  0  0  0  0  0  0  0  0
   -0.0948   -2.2375    3.9739 H   0  0  0  0  0  0  0  0  0  0  0  0
    0.9370   -3.0929   -1.8753 H   0  0  0  0  0  0  0  0  0  0  0  0
    2.7378   -6.8632   -1.0074 H   0  0  0  0  0  0  0  0  0  0  0  0
    1.0725   -7.2819   -0.4829 H   0  0  0  0  0  0  0  0  0  0  0  0
    1.5845   -7.5990   -2.1479 H   0  0  0  0  0  0  0  0  0  0  0  0
   -1.2300   -4.0874   -1.5781 H   0  0  0  0  0  0  0  0  0  0  0  0
   -2.5721   -4.1939    0.3702 H   0  0  0  0  0  0  0  0  0  0  0  0
   -1.0233   -4.9634    0.7237 H   0  0  0  0  0  0  0  0  0  0  0  0
   -1.3848   -3.3508    1.3616 H   0  0  0  0  0  0  0  0  0  0  0  0
   -1.2432   -1.7261   -2.1969 H   0  0  0  0  0  0  0  0  0  0  0  0
   -2.7571   -1.6982    0.4703 H   0  0  0  0  0  0  0  0  0  0  0  0
   -2.8913   -0.2277   -3.0716 H   0  0  0  0  0  0  0  0  0  0  0  0
   -1.5495    0.6693   -2.3505 H   0  0  0  0  0  0  0  0  0  0  0  0
   -3.1257    1.4375   -2.5622 H   0  0  0  0  0  0  0  0  0  0  0  0
   -5.1431    0.6134   -1.3319 H   0  0  0  0  0  0  0  0  0  0  0  0
   -5.0056   -0.5592   -0.0113 H   0  0  0  0  0  0  0  0  0  0  0  0
   -4.8130   -1.0824   -1.6888 H   0  0  0  0  0  0  0  0  0  0  0  0
   -3.2906    0.7803    1.1249 H   0  0  0  0  0  0  0  0  0  0  0  0
   -5.6497    3.8086   -0.6531 H   0  0  0  0  0  0  0  0  0  0  0  0
   -5.4192    4.7791    0.8223 H   0  0  0  0  0  0  0  0  0  0  0  0
   -4.1863    4.8274   -0.4537 H   0  0  0  0  0  0  0  0  0  0  0  0
  1  2  1  0
  2  3  2  0
  2  4  1  0
  4  5  1  0
  5  6  1  0
  6  7  1  0
  7  8  1  0
  8  9  1  0
  8 10  2  0
  6 11  1  0
 11 12  1  0
 11 13  2  0
 13 14  1  0
 14 15  1  0
 15 16  1  0
 16 17  1  0
 17 18  2  0
 17 19  1  0
 19 20  2  0
 20 21  1  0
 21 22  2  0
 22 23  1  0
 23 24  2  0
 15 25  1  0
 25 26  1  0
 25 27  1  0
 27 28  1  0
 28 29  1  1
 29 30  1  0
 30 31  1  0
 30 32  2  0
 28 33  1  0
 33 34  1  0
 34 35  1  0
 35 36  1  0
 35 37  2  0
 33 38  1  0
 38 39  1  0
 38 40  1  0
 40 41  2  0
 41 42  1  0
 42 43  1  0
 42 44  1  0
 42 45  1  0
 45 46  1  0
 46 47  1  0
 47 48  1  0
 47 49  2  0
 45  5  1  0
 28 14  1  0
 24 19  1  0
  1 50  1  0
  1 51  1  0
  1 52  1  0
  5 53  1  6
  6 54  1  6
  9 55  1  0
  9 56  1  0
  9 57  1  0
 12 58  1  0
 12 59  1  0
 12 60  1  0
 13 61  1  0
 14 62  1  6
 15 63  1  6
 20 64  1  0
 21 65  1  0
 22 66  1  0
 23 67  1  0
 24 68  1  0
 25 69  1  6
 26 70  1  0
 26 71  1  0
 26 72  1  0
 27 73  1  0
 27 74  1  0
 31 75  1  0
 31 76  1  0
 31 77  1  0
 33 78  1  6
 36 79  1  0
 36 80  1  0
 36 81  1  0
 38 82  1  6
 39 83  1  0
 39 84  1  0
 39 85  1  0
 40 86  1  0
 41 87  1  0
 43 88  1  0
 43 89  1  0
 43 90  1  0
 44 91  1  0
 44 92  1  0
 44 93  1  0
 45 94  1  1
 48 95  1  0
 48 96  1  0
 48 97  1  0
M  END
$$$$
