
     RDKit          3D

 60 64  0  0  0  0  0  0  0  0999 V2000
   -1.5152   -2.7161   -3.7159 C   0  0  0  0  0  0  0  0  0  0  0  0
   -2.0885   -2.2648   -2.4508 N   0  0  0  0  0  0  0  0  0  0  0  0
   -3.4148   -1.8305   -2.4799 C   0  0  0  0  0  0  0  0  0  0  0  0
   -4.0775   -1.8236   -3.5219 O   0  0  0  0  0  0  0  0  0  0  0  0
   -4.0379   -1.2995   -1.2227 C   0  0  0  0  0  0  0  0  0  0  0  0
   -5.0205   -0.3891   -1.3693 C   0  0  0  0  0  0  0  0  0  0  0  0
   -5.7870    0.2473   -0.2925 C   0  0  0  0  0  0  0  0  0  0  0  0
   -6.7712   -0.4605    0.4046 C   0  0  0  0  0  0  0  0  0  0  0  0
   -7.4958    0.1601    1.4259 C   0  0  0  0  0  0  0  0  0  0  0  0
   -7.2459    1.4983    1.7661 C   0  0  0  0  0  0  0  0  0  0  0  0
   -8.0416    2.1759    2.8549 C   0  0  0  0  0  0  0  0  0  0  0  0
   -9.1588    2.7884    2.3753 F   0  0  0  0  0  0  0  0  0  0  0  0
   -8.4709    1.3158    3.8206 F   0  0  0  0  0  0  0  0  0  0  0  0
   -7.3365    3.1427    3.5079 F   0  0  0  0  0  0  0  0  0  0  0  0
   -6.2688    2.2074    1.0505 C   0  0  0  0  0  0  0  0  0  0  0  0
   -5.5439    1.5858    0.0300 C   0  0  0  0  0  0  0  0  0  0  0  0
   -3.5323   -1.9271    0.2937 S   0  0  0  0  0  0  0  0  0  0  0  0
   -1.7894   -2.0360   -0.0058 C   0  0  0  0  0  0  0  0  0  0  0  0
   -0.9525   -2.0069    1.1255 C   0  0  0  0  0  0  0  0  0  0  0  0
    0.4267   -2.1385    0.9952 C   0  0  0  0  0  0  0  0  0  0  0  0
    0.9698   -2.2917   -0.2765 C   0  0  0  0  0  0  0  0  0  0  0  0
    2.4238   -2.4653   -0.4443 C   0  0  0  0  0  0  0  0  0  0  0  0
    2.8174   -3.5699   -0.8083 O   0  0  0  0  0  0  0  0  0  0  0  0
    3.2613   -1.3881   -0.1920 N   0  0  0  0  0  0  0  0  0  0  0  0
    2.8376   -0.0006    0.0356 C   0  0  0  0  0  0  0  0  0  0  0  0
    3.7769    0.7634    0.9907 C   0  0  0  0  0  0  0  0  0  0  0  0
    5.1964    0.6256    0.6237 N   0  0  0  0  0  0  0  0  0  0  0  0
    5.9974    1.7646    0.7029 C   0  0  0  0  0  0  0  0  0  0  0  0
    5.9121    2.6214    1.8031 C   0  0  0  0  0  0  0  0  0  0  0  0
    6.7300    3.7489    1.8806 C   0  0  0  0  0  0  0  0  0  0  0  0
    7.6295    4.0024    0.8583 C   0  0  0  0  0  0  0  0  0  0  0  0
    7.6726    3.1080   -0.1932 C   0  0  0  0  0  0  0  0  0  0  0  0
    6.8880    2.0099   -0.2841 N   0  0  0  0  0  0  0  0  0  0  0  0
    5.5097   -0.2943   -0.4816 C   0  0  0  0  0  0  0  0  0  0  0  0
    4.7065   -1.5989   -0.3410 C   0  0  0  0  0  0  0  0  0  0  0  0
    0.1456   -2.3546   -1.4063 C   0  0  0  0  0  0  0  0  0  0  0  0
   -1.2492   -2.2141   -1.2906 C   0  0  0  0  0  0  0  0  0  0  0  0
   -0.9742   -3.6560   -3.5657 H   0  0  0  0  0  0  0  0  0  0  0  0
   -2.2826   -2.9048   -4.4721 H   0  0  0  0  0  0  0  0  0  0  0  0
   -0.8445   -1.9419   -4.1022 H   0  0  0  0  0  0  0  0  0  0  0  0
   -5.2978   -0.0432   -2.3642 H   0  0  0  0  0  0  0  0  0  0  0  0
   -6.9807   -1.4997    0.1582 H   0  0  0  0  0  0  0  0  0  0  0  0
   -8.2576   -0.4087    1.9577 H   0  0  0  0  0  0  0  0  0  0  0  0
   -6.0662    3.2512    1.2872 H   0  0  0  0  0  0  0  0  0  0  0  0
   -4.7885    2.1539   -0.5084 H   0  0  0  0  0  0  0  0  0  0  0  0
   -1.3782   -1.8968    2.1217 H   0  0  0  0  0  0  0  0  0  0  0  0
    1.0655   -2.1357    1.8747 H   0  0  0  0  0  0  0  0  0  0  0  0
    1.8151    0.0508    0.4142 H   0  0  0  0  0  0  0  0  0  0  0  0
    2.8340    0.4859   -0.9480 H   0  0  0  0  0  0  0  0  0  0  0  0
    3.6518    0.3675    2.0057 H   0  0  0  0  0  0  0  0  0  0  0  0
    3.4546    1.8121    1.0004 H   0  0  0  0  0  0  0  0  0  0  0  0
    5.2297    2.4066    2.6185 H   0  0  0  0  0  0  0  0  0  0  0  0
    6.6669    4.4125    2.7379 H   0  0  0  0  0  0  0  0  0  0  0  0
    8.2833    4.8661    0.8824 H   0  0  0  0  0  0  0  0  0  0  0  0
    8.3616    3.2499   -1.0208 H   0  0  0  0  0  0  0  0  0  0  0  0
    5.2704    0.1781   -1.4437 H   0  0  0  0  0  0  0  0  0  0  0  0
    6.5762   -0.5522   -0.4824 H   0  0  0  0  0  0  0  0  0  0  0  0
    4.8949   -2.2441   -1.2064 H   0  0  0  0  0  0  0  0  0  0  0  0
    5.0334   -2.1431    0.5536 H   0  0  0  0  0  0  0  0  0  0  0  0
    0.6296   -2.5043   -2.3675 H   0  0  0  0  0  0  0  0  0  0  0  0
  1  2  1  0
  2  3  1  0
  3  4  2  0
  3  5  1  0
  5  6  2  3
  6  7  1  0
  7  8  2  0
  8  9  1  0
  9 10  2  0
 10 11  1  0
 11 12  1  0
 11 13  1  0
 11 14  1  0
 10 15  1  0
 15 16  2  0
  5 17  1  0
 17 18  1  0
 18 19  2  0
 19 20  1  0
 20 21  2  0
 21 22  1  0
 22 23  2  0
 22 24  1  0
 24 25  1  0
 25 26  1  0
 26 27  1  0
 27 28  1  0
 28 29  2  0
 29 30  1  0
 30 31  2  0
 31 32  1  0
 32 33  2  0
 27 34  1  0
 34 35  1  0
 21 36  1  0
 36 37  2  0
 37  2  1  0
 16  7  1  0
 37 18  1  0
 35 24  1  0
 33 28  1  0
  1 38  1  0
  1 39  1  0
  1 40  1  0
  6 41  1  0
  8 42  1  0
  9 43  1  0
 15 44  1  0
 16 45  1  0
 19 46  1  0
 20 47  1  0
 25 48  1  0
 25 49  1  0
 26 50  1  0
 26 51  1  0
 29 52  1  0
 30 53  1  0
 31 54  1  0
 32 55  1  0
 34 56  1  0
 34 57  1  0
 35 58  1  0
 35 59  1  0
 36 60  1  0
M  END
$$$$
