
     RDKit          3D

 49 51  0  0  0  0  0  0  0  0999 V2000
    2.0229   -1.9055   -2.6004 O   0  0  0  0  0  0  0  0  0  0  0  0
    2.4026   -1.1505   -1.7161 C   0  0  0  0  0  0  0  0  0  0  0  0
    3.6897   -0.7189   -1.5051 N   0  0  0  0  0  0  0  0  0  0  0  0
    4.8120   -1.2540   -2.2301 C   0  0  0  0  0  0  0  0  0  0  0  0
    5.4824   -2.3526   -1.4480 C   0  0  0  0  0  0  0  0  0  0  0  0
    5.0158   -3.6721   -1.5389 C   0  0  0  0  0  0  0  0  0  0  0  0
    5.6191   -4.6895   -0.7984 C   0  0  0  0  0  0  0  0  0  0  0  0
    6.6893   -4.3976    0.0450 C   0  0  0  0  0  0  0  0  0  0  0  0
    7.1549   -3.0882    0.1518 C   0  0  0  0  0  0  0  0  0  0  0  0
    6.5527   -2.0688   -0.5878 C   0  0  0  0  0  0  0  0  0  0  0  0
    1.3910   -0.5865   -0.6920 C   0  0  0  0  0  0  0  0  0  0  0  0
    1.7546    0.2096    0.1617 O   0  0  0  0  0  0  0  0  0  0  0  0
    0.1073   -1.0466   -0.8679 N   0  0  0  0  0  0  0  0  0  0  0  0
   -1.0098   -0.4892   -0.1248 C   0  0  0  0  0  0  0  0  0  0  0  0
   -1.3757    0.9497   -0.5498 C   0  0  0  0  0  0  0  0  0  0  0  0
   -1.6379    0.9579   -1.9758 O   0  0  0  0  0  0  0  0  0  0  0  0
   -3.0187    1.2751   -2.1598 C   0  0  0  0  0  0  0  0  0  0  0  0
   -3.3911    2.0835   -0.9407 C   0  0  0  0  0  0  0  0  0  0  0  0
   -2.6258    1.3984    0.1100 N   0  0  0  0  0  0  0  0  0  0  0  0
   -2.3730    2.2333    1.5561 S   0  0  0  0  0  6  0  0  0  0  0  0
   -1.6840    1.3510    2.4703 O   0  0  0  0  0  0  0  0  0  0  0  0
   -1.8508    3.5418    1.2277 O   0  0  0  0  0  0  0  0  0  0  0  0
   -4.0306    2.4314    2.1665 C   0  0  0  0  0  0  0  0  0  0  0  0
   -4.7124    1.3103    2.6522 C   0  0  0  0  0  0  0  0  0  0  0  0
   -6.0133    1.4542    3.1371 C   0  0  0  0  0  0  0  0  0  0  0  0
   -6.6162    2.7132    3.1380 C   0  0  0  0  0  0  0  0  0  0  0  0
   -8.3789    2.9052    3.7939 Br  0  0  0  0  0  0  0  0  0  0  0  0
   -5.9306    3.8330    2.6629 C   0  0  0  0  0  0  0  0  0  0  0  0
   -4.6289    3.6951    2.1767 C   0  0  0  0  0  0  0  0  0  0  0  0
    3.8505   -0.1842   -0.6564 H   0  0  0  0  0  0  0  0  0  0  0  0
    5.5123   -0.4304   -2.4079 H   0  0  0  0  0  0  0  0  0  0  0  0
    4.4917   -1.6256   -3.2102 H   0  0  0  0  0  0  0  0  0  0  0  0
    4.1735   -3.9103   -2.1866 H   0  0  0  0  0  0  0  0  0  0  0  0
    5.2504   -5.7089   -0.8771 H   0  0  0  0  0  0  0  0  0  0  0  0
    7.1574   -5.1901    0.6229 H   0  0  0  0  0  0  0  0  0  0  0  0
    7.9856   -2.8604    0.8147 H   0  0  0  0  0  0  0  0  0  0  0  0
    6.9239   -1.0514   -0.4875 H   0  0  0  0  0  0  0  0  0  0  0  0
   -0.0671   -1.5567   -1.7302 H   0  0  0  0  0  0  0  0  0  0  0  0
   -0.7610   -0.5264    0.9401 H   0  0  0  0  0  0  0  0  0  0  0  0
   -1.8565   -1.1625   -0.3000 H   0  0  0  0  0  0  0  0  0  0  0  0
   -0.5456    1.6438   -0.3817 H   0  0  0  0  0  0  0  0  0  0  0  0
   -3.1595    1.8224   -3.0955 H   0  0  0  0  0  0  0  0  0  0  0  0
   -3.5808    0.3358   -2.2080 H   0  0  0  0  0  0  0  0  0  0  0  0
   -3.0530    3.1182   -1.0600 H   0  0  0  0  0  0  0  0  0  0  0  0
   -4.4674    2.0621   -0.7564 H   0  0  0  0  0  0  0  0  0  0  0  0
   -4.2351    0.3325    2.6583 H   0  0  0  0  0  0  0  0  0  0  0  0
   -6.5447    0.5844    3.5158 H   0  0  0  0  0  0  0  0  0  0  0  0
   -6.3985    4.8145    2.6734 H   0  0  0  0  0  0  0  0  0  0  0  0
   -4.0930    4.5708    1.8167 H   0  0  0  0  0  0  0  0  0  0  0  0
  1  2  2  0
  2  3  1  0
  3  4  1  0
  4  5  1  0
  5  6  2  0
  6  7  1  0
  7  8  2  0
  8  9  1  0
  9 10  2  0
  2 11  1  0
 11 12  2  0
 11 13  1  0
 13 14  1  0
 14 15  1  0
 15 16  1  0
 16 17  1  0
 17 18  1  0
 18 19  1  0
 19 20  1  0
 20 21  2  0
 20 22  2  0
 20 23  1  0
 23 24  2  0
 24 25  1  0
 25 26  2  0
 26 27  1  0
 26 28  1  0
 28 29  2  0
 10  5  1  0
 19 15  1  0
 29 23  1  0
  3 30  1  0
  4 31  1  0
  4 32  1  0
  6 33  1  0
  7 34  1  0
  8 35  1  0
  9 36  1  0
 10 37  1  0
 13 38  1  0
 14 39  1  0
 14 40  1  0
 15 41  1  0
 17 42  1  0
 17 43  1  0
 18 44  1  0
 18 45  1  0
 24 46  1  0
 25 47  1  0
 28 48  1  0
 29 49  1  0
M  END
$$$$
