
     RDKit          3D

 41 44  0  0  0  0  0  0  0  0999 V2000
   -2.5176    1.8077    1.9103 O   0  0  0  0  0  0  0  0  0  0  0  0
   -3.0901    0.9934    0.8602 S   0  0  0  0  0  6  0  0  0  0  0  0
   -4.5143    1.0058    0.5963 O   0  0  0  0  0  0  0  0  0  0  0  0
   -2.6837   -0.6243    1.1211 N   0  0  0  0  0  0  0  0  0  0  0  0
   -1.3058   -1.0059    1.1482 C   0  0  0  0  0  0  0  0  0  0  0  0
   -0.5413   -0.6042    2.2482 C   0  0  0  0  0  0  0  0  0  0  0  0
    0.8212   -0.8978    2.3187 C   0  0  0  0  0  0  0  0  0  0  0  0
    1.6897   -0.4215    3.8072 S   0  0  0  0  0  0  0  0  0  0  0  0
    2.8074    0.7743    3.2195 C   0  0  0  0  0  0  0  0  0  0  0  0
    3.6709    0.5252    2.1822 N   0  0  0  0  0  0  0  0  0  0  0  0
    4.3439    1.6490    2.0876 C   0  0  0  0  0  0  0  0  0  0  0  0
    3.9091    2.5210    3.0358 N   0  0  0  0  0  0  0  0  0  0  0  0
    2.9336    1.9789    3.7798 N   0  0  0  0  0  0  0  0  0  0  0  0
    1.4090   -1.6062    1.2599 C   0  0  0  0  0  0  0  0  0  0  0  0
    2.7526   -1.9066    1.2752 O   0  0  0  0  0  0  0  0  0  0  0  0
    0.6565   -2.0373    0.1425 C   0  0  0  0  0  0  0  0  0  0  0  0
    1.2486   -2.7568   -0.9181 C   0  0  0  0  0  0  0  0  0  0  0  0
    0.5105   -3.1684   -2.0264 C   0  0  0  0  0  0  0  0  0  0  0  0
   -0.8406   -2.8681   -2.1000 C   0  0  0  0  0  0  0  0  0  0  0  0
   -1.4509   -2.1604   -1.0631 C   0  0  0  0  0  0  0  0  0  0  0  0
   -0.7254   -1.7314    0.0763 C   0  0  0  0  0  0  0  0  0  0  0  0
   -2.2591    1.3940   -0.6599 C   0  0  0  0  0  0  0  0  0  0  0  0
   -0.9667    1.9273   -0.6224 C   0  0  0  0  0  0  0  0  0  0  0  0
   -0.3188    2.2389   -1.8170 C   0  0  0  0  0  0  0  0  0  0  0  0
   -0.9669    2.0361   -3.0368 C   0  0  0  0  0  0  0  0  0  0  0  0
   -2.2669    1.5280   -3.0680 C   0  0  0  0  0  0  0  0  0  0  0  0
   -2.9211    1.2101   -1.8780 C   0  0  0  0  0  0  0  0  0  0  0  0
   -3.3591   -1.2714    0.7211 H   0  0  0  0  0  0  0  0  0  0  0  0
   -1.0225   -0.0648    3.0630 H   0  0  0  0  0  0  0  0  0  0  0  0
    5.1299    1.8803    1.3824 H   0  0  0  0  0  0  0  0  0  0  0  0
    4.2206    3.4658    3.2338 H   0  0  0  0  0  0  0  0  0  0  0  0
    3.2097   -1.1872    1.7601 H   0  0  0  0  0  0  0  0  0  0  0  0
    2.3092   -3.0026   -0.8803 H   0  0  0  0  0  0  0  0  0  0  0  0
    0.9955   -3.7204   -2.8269 H   0  0  0  0  0  0  0  0  0  0  0  0
   -1.4224   -3.1821   -2.9627 H   0  0  0  0  0  0  0  0  0  0  0  0
   -2.5102   -1.9429   -1.1659 H   0  0  0  0  0  0  0  0  0  0  0  0
   -0.4596    2.0931    0.3256 H   0  0  0  0  0  0  0  0  0  0  0  0
    0.6910    2.6412   -1.7987 H   0  0  0  0  0  0  0  0  0  0  0  0
   -0.4588    2.2813   -3.9665 H   0  0  0  0  0  0  0  0  0  0  0  0
   -2.7699    1.3843   -4.0212 H   0  0  0  0  0  0  0  0  0  0  0  0
   -3.9373    0.8244   -1.9091 H   0  0  0  0  0  0  0  0  0  0  0  0
  1  2  2  0
  2  3  2  0
  2  4  1  0
  4  5  1  0
  5  6  2  0
  6  7  1  0
  7  8  1  0
  8  9  1  0
  9 10  1  0
 10 11  2  0
 11 12  1  0
 12 13  1  0
  7 14  2  0
 14 15  1  0
 14 16  1  0
 16 17  2  0
 17 18  1  0
 18 19  2  0
 19 20  1  0
 20 21  2  0
  2 22  1  0
 22 23  2  0
 23 24  1  0
 24 25  2  0
 25 26  1  0
 26 27  2  0
 21  5  1  0
 27 22  1  0
 13  9  2  0
 21 16  1  0
  4 28  1  0
  6 29  1  0
 11 30  1  0
 12 31  1  0
 15 32  1  0
 17 33  1  0
 18 34  1  0
 19 35  1  0
 20 36  1  0
 23 37  1  0
 24 38  1  0
 25 39  1  0
 26 40  1  0
 27 41  1  0
M  END
$$$$
