
     RDKit          3D

 46 48  0  0  0  0  0  0  0  0999 V2000
    0.5863    0.6715   -2.6958 C   0  0  0  0  0  0  0  0  0  0  0  0
    0.2111    1.8404   -1.8076 C   0  0  0  0  0  0  0  0  0  0  0  0
    0.6979    3.2027   -2.1703 C   0  0  0  0  0  0  0  0  0  0  0  0
    1.9328    3.5434   -2.5688 C   0  0  0  0  0  0  0  0  0  0  0  0
    3.1108    2.6775   -2.6788 C   0  0  0  0  0  0  0  0  0  0  0  0
    3.5413    1.8870   -1.6065 C   0  0  0  0  0  0  0  0  0  0  0  0
    4.6817    1.0906   -1.7287 C   0  0  0  0  0  0  0  0  0  0  0  0
    5.4103    1.0916   -2.9166 C   0  0  0  0  0  0  0  0  0  0  0  0
    5.0007    1.8905   -3.9826 C   0  0  0  0  0  0  0  0  0  0  0  0
    3.8579    2.6848   -3.8628 C   0  0  0  0  0  0  0  0  0  0  0  0
   -0.5914    1.7639   -0.7784 N   0  0  0  0  0  0  0  0  0  0  0  0
   -0.9835    0.5201   -0.3597 N   0  0  0  0  0  0  0  0  0  0  0  0
   -0.0751   -0.3225    0.2718 C   0  0  0  0  0  0  0  0  0  0  0  0
    1.1445   -0.2202    0.2718 O   0  0  0  0  0  0  0  0  0  0  0  0
   -0.7348   -1.4415    0.9961 C   0  0  0  0  0  0  0  0  0  0  0  0
   -0.1465   -1.9791    2.2748 C   0  0  0  0  0  0  0  0  0  0  0  0
   -1.4506   -1.2089    2.3303 C   0  0  0  0  0  0  0  0  0  0  0  0
   -1.4062    0.1565    2.9801 C   0  0  0  0  0  0  0  0  0  0  0  0
   -2.7410   -1.9795    2.5812 C   0  0  0  0  0  0  0  0  0  0  0  0
   -3.8382   -1.8802    1.7078 C   0  0  0  0  0  0  0  0  0  0  0  0
   -5.0248   -2.5794    1.9450 C   0  0  0  0  0  0  0  0  0  0  0  0
   -5.1414   -3.3924    3.0684 C   0  0  0  0  0  0  0  0  0  0  0  0
   -4.0738   -3.5036    3.9537 C   0  0  0  0  0  0  0  0  0  0  0  0
   -2.8899   -2.8022    3.7114 C   0  0  0  0  0  0  0  0  0  0  0  0
    0.9223    1.0191   -3.6767 H   0  0  0  0  0  0  0  0  0  0  0  0
    1.3793    0.0763   -2.2406 H   0  0  0  0  0  0  0  0  0  0  0  0
   -0.2880    0.0349   -2.8616 H   0  0  0  0  0  0  0  0  0  0  0  0
   -0.0528    3.9792   -2.0508 H   0  0  0  0  0  0  0  0  0  0  0  0
    2.1244    4.5878   -2.8090 H   0  0  0  0  0  0  0  0  0  0  0  0
    2.9882    1.8722   -0.6683 H   0  0  0  0  0  0  0  0  0  0  0  0
    4.9955    0.4689   -0.8939 H   0  0  0  0  0  0  0  0  0  0  0  0
    6.2974    0.4707   -3.0095 H   0  0  0  0  0  0  0  0  0  0  0  0
    5.5708    1.8953   -4.9078 H   0  0  0  0  0  0  0  0  0  0  0  0
    3.5521    3.3024   -4.7038 H   0  0  0  0  0  0  0  0  0  0  0  0
   -1.9104    0.5153    0.0544 H   0  0  0  0  0  0  0  0  0  0  0  0
   -1.1358   -2.1960    0.3249 H   0  0  0  0  0  0  0  0  0  0  0  0
   -0.1584   -3.0548    2.4130 H   0  0  0  0  0  0  0  0  0  0  0  0
    0.7555   -1.5111    2.6569 H   0  0  0  0  0  0  0  0  0  0  0  0
   -2.1857    0.8042    2.5650 H   0  0  0  0  0  0  0  0  0  0  0  0
   -1.5703    0.0715    4.0599 H   0  0  0  0  0  0  0  0  0  0  0  0
   -0.4417    0.6548    2.8353 H   0  0  0  0  0  0  0  0  0  0  0  0
   -3.7724   -1.2478    0.8262 H   0  0  0  0  0  0  0  0  0  0  0  0
   -5.8576   -2.4869    1.2527 H   0  0  0  0  0  0  0  0  0  0  0  0
   -6.0634   -3.9365    3.2552 H   0  0  0  0  0  0  0  0  0  0  0  0
   -4.1599   -4.1339    4.8349 H   0  0  0  0  0  0  0  0  0  0  0  0
   -2.0671   -2.8967    4.4174 H   0  0  0  0  0  0  0  0  0  0  0  0
  1  2  1  0
  2  3  1  0
  3  4  2  3
  4  5  1  0
  5  6  2  0
  6  7  1  0
  7  8  2  0
  8  9  1  0
  9 10  2  0
  2 11  2  3
 11 12  1  0
 12 13  1  0
 13 14  2  0
 13 15  1  0
 15 16  1  0
 16 17  1  0
 17 18  1  0
 17 19  1  0
 19 20  2  0
 20 21  1  0
 21 22  2  0
 22 23  1  0
 23 24  2  0
 10  5  1  0
 17 15  1  0
 24 19  1  0
  1 25  1  0
  1 26  1  0
  1 27  1  0
  3 28  1  0
  4 29  1  0
  6 30  1  0
  7 31  1  0
  8 32  1  0
  9 33  1  0
 10 34  1  0
 12 35  1  0
 15 36  1  0
 16 37  1  0
 16 38  1  0
 18 39  1  0
 18 40  1  0
 18 41  1  0
 20 42  1  0
 21 43  1  0
 22 44  1  0
 23 45  1  0
 24 46  1  0
M  END
$$$$
