
     RDKit          3D

 37 38  0  0  0  0  0  0  0  0999 V2000
   -5.5132    0.5160   -2.3625 C   0  0  0  0  0  0  0  0  0  0  0  0
   -4.9912   -0.4253   -1.3724 N   0  0  0  0  0  0  0  0  0  0  0  0
   -5.9876   -1.0177   -0.4806 C   0  0  0  0  0  0  0  0  0  0  0  0
   -3.6705   -0.2937   -0.9332 C   0  0  0  0  0  0  0  0  0  0  0  0
   -3.1887   -0.9641    0.2040 C   0  0  0  0  0  0  0  0  0  0  0  0
   -1.8573   -0.8531    0.6361 C   0  0  0  0  0  0  0  0  0  0  0  0
   -0.9412   -0.0775   -0.0720 C   0  0  0  0  0  0  0  0  0  0  0  0
    0.4387    0.0327    0.4204 C   0  0  0  0  0  0  0  0  0  0  0  0
    1.5116    0.0278   -0.3875 C   0  0  0  0  0  0  0  0  0  0  0  0
    2.8962    0.1292    0.0877 C   0  0  0  0  0  0  0  0  0  0  0  0
    3.8217    0.8459   -0.6690 C   0  0  0  0  0  0  0  0  0  0  0  0
    5.1439    0.9291   -0.2467 C   0  0  0  0  0  0  0  0  0  0  0  0
    5.5460    0.3060    0.8831 N   0  0  0  0  0  4  0  0  0  0  0  0
    6.9491    0.4161    1.3168 C   0  0  0  0  0  0  0  0  0  0  0  0
    4.6696   -0.4027    1.6289 C   0  0  0  0  0  0  0  0  0  0  0  0
    3.3375   -0.5106    1.2451 C   0  0  0  0  0  0  0  0  0  0  0  0
   -1.3920    0.6025   -1.2023 C   0  0  0  0  0  0  0  0  0  0  0  0
   -2.7264    0.4853   -1.6240 C   0  0  0  0  0  0  0  0  0  0  0  0
   -6.5594    0.2996   -2.6064 H   0  0  0  0  0  0  0  0  0  0  0  0
   -4.9640    0.4420   -3.3072 H   0  0  0  0  0  0  0  0  0  0  0  0
   -5.4674    1.5449   -1.9889 H   0  0  0  0  0  0  0  0  0  0  0  0
   -6.0913   -0.4301    0.4382 H   0  0  0  0  0  0  0  0  0  0  0  0
   -6.9732   -1.0624   -0.9576 H   0  0  0  0  0  0  0  0  0  0  0  0
   -5.7295   -2.0522   -0.2297 H   0  0  0  0  0  0  0  0  0  0  0  0
   -3.8414   -1.6017    0.7929 H   0  0  0  0  0  0  0  0  0  0  0  0
   -1.5545   -1.3976    1.5271 H   0  0  0  0  0  0  0  0  0  0  0  0
    0.5346    0.1090    1.5004 H   0  0  0  0  0  0  0  0  0  0  0  0
    1.3825   -0.0516   -1.4661 H   0  0  0  0  0  0  0  0  0  0  0  0
    3.5188    1.3523   -1.5840 H   0  0  0  0  0  0  0  0  0  0  0  0
    5.8864    1.4913   -0.8061 H   0  0  0  0  0  0  0  0  0  0  0  0
    7.0226    1.2913    1.9670 H   0  0  0  0  0  0  0  0  0  0  0  0
    7.5887    0.5290    0.4376 H   0  0  0  0  0  0  0  0  0  0  0  0
    7.2306   -0.4935    1.8537 H   0  0  0  0  0  0  0  0  0  0  0  0
    5.0436   -0.8829    2.5288 H   0  0  0  0  0  0  0  0  0  0  0  0
    2.6557   -1.1046    1.8506 H   0  0  0  0  0  0  0  0  0  0  0  0
   -0.7247    1.2408   -1.7749 H   0  0  0  0  0  0  0  0  0  0  0  0
   -3.0046    1.0302   -2.5212 H   0  0  0  0  0  0  0  0  0  0  0  0
  1  2  1  0
  2  3  1  0
  2  4  1  0
  4  5  2  0
  5  6  1  0
  6  7  2  0
  7  8  1  0
  8  9  2  3
  9 10  1  0
 10 11  2  0
 11 12  1  0
 12 13  2  0
 13 14  1  0
 13 15  1  0
 15 16  2  0
  7 17  1  0
 17 18  2  0
 18  4  1  0
 16 10  1  0
  1 19  1  0
  1 20  1  0
  1 21  1  0
  3 22  1  0
  3 23  1  0
  3 24  1  0
  5 25  1  0
  6 26  1  0
  8 27  1  0
  9 28  1  0
 11 29  1  0
 12 30  1  0
 14 31  1  0
 14 32  1  0
 14 33  1  0
 15 34  1  0
 16 35  1  0
 17 36  1  0
 18 37  1  0
M  CHG  1  13   1
M  END
$$$$
