
     RDKit          3D

 60 65  0  0  0  0  0  0  0  0999 V2000
    1.1175   -2.0578   -3.1125 O   0  0  0  0  0  0  0  0  0  0  0  0
    1.7323   -1.3327   -2.3392 C   0  0  0  0  0  0  0  0  0  0  0  0
    1.1043   -0.6959   -1.2751 N   0  0  0  0  0  0  0  0  0  0  0  0
    1.7509    0.1310   -0.3641 C   0  0  0  0  0  0  0  0  0  0  0  0
    0.8956    0.7539    0.7334 C   0  0  0  0  0  0  0  0  0  0  0  0
   -0.1079    1.7671    0.1629 C   0  0  0  0  0  0  0  0  0  0  0  0
   -1.5154    1.2045    0.0125 C   0  0  0  0  0  0  0  0  0  0  0  0
   -2.0329    0.6132    1.2757 N   0  0  0  0  0  0  0  0  0  0  0  0
   -3.4071    1.3838    1.9539 S   0  0  0  0  0  6  0  0  0  0  0  0
   -3.8152    0.6387    3.1247 O   0  0  0  0  0  0  0  0  0  0  0  0
   -3.1025    2.7977    2.0254 O   0  0  0  0  0  0  0  0  0  0  0  0
   -4.6434    1.1281    0.7089 C   0  0  0  0  0  0  0  0  0  0  0  0
   -5.2316    2.2223    0.0660 C   0  0  0  0  0  0  0  0  0  0  0  0
   -6.1995    1.9994   -0.9155 C   0  0  0  0  0  0  0  0  0  0  0  0
   -6.5759    0.6954   -1.2391 C   0  0  0  0  0  0  0  0  0  0  0  0
   -5.9676   -0.3935   -0.6025 C   0  0  0  0  0  0  0  0  0  0  0  0
   -5.0122   -0.1814    0.3871 C   0  0  0  0  0  0  0  0  0  0  0  0
   -6.2671   -1.6975   -0.8970 O   0  0  0  0  0  0  0  0  0  0  0  0
   -6.9850   -1.8039   -2.1327 C   0  0  0  0  0  0  0  0  0  0  0  0
   -8.0936   -0.7673   -2.2004 C   0  0  0  0  0  0  0  0  0  0  0  0
   -7.5457    0.5566   -2.1984 O   0  0  0  0  0  0  0  0  0  0  0  0
   -1.0064    0.2627    2.2923 C   0  0  0  0  0  0  0  0  0  0  0  0
    0.2268   -0.3081    1.6087 C   0  0  0  0  0  0  0  0  0  0  0  0
    3.0242    0.4127   -0.4127 N   0  0  0  0  0  0  0  0  0  0  0  0
    3.6626   -0.2020   -1.4384 C   0  0  0  0  0  0  0  0  0  0  0  0
    3.1366   -1.0343   -2.3954 C   0  0  0  0  0  0  0  0  0  0  0  0
    4.1039   -1.4440   -3.2599 N   0  0  0  0  0  0  0  0  0  0  0  0
    5.2487   -0.8871   -2.8654 N   0  0  0  0  0  0  0  0  0  0  0  0
    4.9897   -0.1544   -1.7540 N   0  0  0  0  0  0  0  0  0  0  0  0
    6.0428    0.5745   -1.0806 C   0  0  0  0  0  0  0  0  0  0  0  0
    6.5830   -0.2016    0.0948 C   0  0  0  0  0  0  0  0  0  0  0  0
    7.5331   -1.2193   -0.0939 C   0  0  0  0  0  0  0  0  0  0  0  0
    8.0173   -1.9517    0.9936 C   0  0  0  0  0  0  0  0  0  0  0  0
    7.5529   -1.6804    2.2785 C   0  0  0  0  0  0  0  0  0  0  0  0
    6.6073   -0.6818    2.4649 C   0  0  0  0  0  0  0  0  0  0  0  0
    6.1522   -0.4269    3.6988 F   0  0  0  0  0  0  0  0  0  0  0  0
    6.1187    0.0565    1.3916 C   0  0  0  0  0  0  0  0  0  0  0  0
    0.1257   -0.9212   -1.1840 H   0  0  0  0  0  0  0  0  0  0  0  0
    1.5864    1.3240    1.3720 H   0  0  0  0  0  0  0  0  0  0  0  0
    0.2359    2.1588   -0.8019 H   0  0  0  0  0  0  0  0  0  0  0  0
   -0.1545    2.6285    0.8435 H   0  0  0  0  0  0  0  0  0  0  0  0
   -2.1720    1.9984   -0.3583 H   0  0  0  0  0  0  0  0  0  0  0  0
   -1.5365    0.4188   -0.7502 H   0  0  0  0  0  0  0  0  0  0  0  0
   -4.9506    3.2434    0.3272 H   0  0  0  0  0  0  0  0  0  0  0  0
   -6.6707    2.8394   -1.4191 H   0  0  0  0  0  0  0  0  0  0  0  0
   -4.5556   -1.0273    0.8941 H   0  0  0  0  0  0  0  0  0  0  0  0
   -6.2749   -1.6843   -2.9584 H   0  0  0  0  0  0  0  0  0  0  0  0
   -7.4036   -2.8133   -2.1871 H   0  0  0  0  0  0  0  0  0  0  0  0
   -8.7844   -0.8601   -1.3533 H   0  0  0  0  0  0  0  0  0  0  0  0
   -8.6682   -0.8865   -3.1241 H   0  0  0  0  0  0  0  0  0  0  0  0
   -1.4164   -0.5012    2.9635 H   0  0  0  0  0  0  0  0  0  0  0  0
   -0.7408    1.1424    2.8914 H   0  0  0  0  0  0  0  0  0  0  0  0
   -0.0593   -1.1932    1.0289 H   0  0  0  0  0  0  0  0  0  0  0  0
    0.9428   -0.6585    2.3614 H   0  0  0  0  0  0  0  0  0  0  0  0
    5.6353    1.5427   -0.7658 H   0  0  0  0  0  0  0  0  0  0  0  0
    6.8371    0.7833   -1.8059 H   0  0  0  0  0  0  0  0  0  0  0  0
    7.8954   -1.4547   -1.0940 H   0  0  0  0  0  0  0  0  0  0  0  0
    8.7499   -2.7371    0.8355 H   0  0  0  0  0  0  0  0  0  0  0  0
    7.9168   -2.2435    3.1321 H   0  0  0  0  0  0  0  0  0  0  0  0
    5.3708    0.8246    1.5812 H   0  0  0  0  0  0  0  0  0  0  0  0
  1  2  2  0
  2  3  1  0
  3  4  1  0
  4  5  1  0
  5  6  1  0
  6  7  1  0
  7  8  1  0
  8  9  1  0
  9 10  2  0
  9 11  2  0
  9 12  1  0
 12 13  2  0
 13 14  1  0
 14 15  2  0
 15 16  1  0
 16 17  2  0
 16 18  1  0
 18 19  1  0
 19 20  1  0
 20 21  1  0
  8 22  1  0
 22 23  1  0
  4 24  2  0
 24 25  1  0
 25 26  2  0
 26 27  1  0
 27 28  2  0
 28 29  1  0
 29 30  1  0
 30 31  1  0
 31 32  2  0
 32 33  1  0
 33 34  2  0
 34 35  1  0
 35 36  1  0
 35 37  2  0
 26  2  1  0
 37 31  1  0
 23  5  1  0
 29 25  1  0
 17 12  1  0
 21 15  1  0
  3 38  1  0
  5 39  1  0
  6 40  1  0
  6 41  1  0
  7 42  1  0
  7 43  1  0
 13 44  1  0
 14 45  1  0
 17 46  1  0
 19 47  1  0
 19 48  1  0
 20 49  1  0
 20 50  1  0
 22 51  1  0
 22 52  1  0
 23 53  1  0
 23 54  1  0
 30 55  1  0
 30 56  1  0
 32 57  1  0
 33 58  1  0
 34 59  1  0
 37 60  1  0
M  END
$$$$
