
     RDKit          3D

 49 51  0  0  0  0  0  0  0  0999 V2000
    4.6561    2.0274    0.4502 C   0  0  0  0  0  0  0  0  0  0  0  0
    3.8058    2.6792   -0.4823 O   0  0  0  0  0  0  0  0  0  0  0  0
    2.8889    1.9071   -1.1525 C   0  0  0  0  0  0  0  0  0  0  0  0
    2.7352    0.5274   -0.9710 C   0  0  0  0  0  0  0  0  0  0  0  0
    1.7725   -0.1774   -1.6952 C   0  0  0  0  0  0  0  0  0  0  0  0
    0.9473    0.5038   -2.5876 C   0  0  0  0  0  0  0  0  0  0  0  0
   -0.2870   -0.3800   -3.5094 S   0  0  0  0  0  6  0  0  0  0  0  0
   -0.3574    0.2349   -4.8203 O   0  0  0  0  0  0  0  0  0  0  0  0
   -0.0542   -1.8000   -3.3727 O   0  0  0  0  0  0  0  0  0  0  0  0
   -1.7210    0.0377   -2.7410 N   0  0  0  0  0  0  0  0  0  0  0  0
   -1.9247   -0.0828   -1.3354 C   0  0  0  0  0  0  0  0  0  0  0  0
   -2.7213    0.8850   -0.7275 C   0  0  0  0  0  0  0  0  0  0  0  0
   -3.0346    0.7858    0.6249 C   0  0  0  0  0  0  0  0  0  0  0  0
   -2.5628   -0.2932    1.3868 C   0  0  0  0  0  0  0  0  0  0  0  0
   -1.7275   -1.2664    0.8014 C   0  0  0  0  0  0  0  0  0  0  0  0
   -1.4609   -1.1629   -0.5773 C   0  0  0  0  0  0  0  0  0  0  0  0
   -1.2142   -2.3571    1.5984 N   0  0  0  0  0  0  0  0  0  0  0  0
   -0.0591   -3.0668    1.2166 C   0  0  0  0  0  0  0  0  0  0  0  0
    0.2857   -4.2824    2.0488 C   0  0  0  0  0  0  0  0  0  0  0  0
    0.6918   -2.7624    0.2894 O   0  0  0  0  0  0  0  0  0  0  0  0
   -1.7273   -2.5125    2.9657 C   0  0  0  0  0  0  0  0  0  0  0  0
   -3.0527   -1.8259    3.2396 C   0  0  0  0  0  0  0  0  0  0  0  0
   -2.9498   -0.3706    2.8370 C   0  0  0  0  0  0  0  0  0  0  0  0
    1.0998    1.8783   -2.7983 C   0  0  0  0  0  0  0  0  0  0  0  0
    2.0717    2.5848   -2.0835 C   0  0  0  0  0  0  0  0  0  0  0  0
    2.2878    3.9356   -2.2077 O   0  0  0  0  0  0  0  0  0  0  0  0
    1.6873    4.5951   -3.3137 C   0  0  0  0  0  0  0  0  0  0  0  0
    4.0791    1.5830    1.2678 H   0  0  0  0  0  0  0  0  0  0  0  0
    5.3178    2.7833    0.8842 H   0  0  0  0  0  0  0  0  0  0  0  0
    5.2856    1.2799   -0.0438 H   0  0  0  0  0  0  0  0  0  0  0  0
    3.3467   -0.0341   -0.2722 H   0  0  0  0  0  0  0  0  0  0  0  0
    1.6682   -1.2506   -1.5442 H   0  0  0  0  0  0  0  0  0  0  0  0
   -2.2254    0.7643   -3.2439 H   0  0  0  0  0  0  0  0  0  0  0  0
   -3.1144    1.7227   -1.2968 H   0  0  0  0  0  0  0  0  0  0  0  0
   -3.6625    1.5486    1.0807 H   0  0  0  0  0  0  0  0  0  0  0  0
   -0.9205   -1.9578   -1.0800 H   0  0  0  0  0  0  0  0  0  0  0  0
   -0.5525   -4.9839    2.0631 H   0  0  0  0  0  0  0  0  0  0  0  0
    0.5661   -3.9874    3.0628 H   0  0  0  0  0  0  0  0  0  0  0  0
    1.1397   -4.7973    1.5967 H   0  0  0  0  0  0  0  0  0  0  0  0
   -1.8505   -3.5779    3.1849 H   0  0  0  0  0  0  0  0  0  0  0  0
   -0.9553   -2.1304    3.6462 H   0  0  0  0  0  0  0  0  0  0  0  0
   -3.8518   -2.3213    2.6728 H   0  0  0  0  0  0  0  0  0  0  0  0
   -3.3075   -1.9097    4.3018 H   0  0  0  0  0  0  0  0  0  0  0  0
   -3.9180    0.1148    3.0065 H   0  0  0  0  0  0  0  0  0  0  0  0
   -2.1998    0.1541    3.4405 H   0  0  0  0  0  0  0  0  0  0  0  0
    0.4522    2.3730   -3.5140 H   0  0  0  0  0  0  0  0  0  0  0  0
    2.0662    5.6214   -3.3370 H   0  0  0  0  0  0  0  0  0  0  0  0
    0.6002    4.6454   -3.1951 H   0  0  0  0  0  0  0  0  0  0  0  0
    1.9608    4.1179   -4.2608 H   0  0  0  0  0  0  0  0  0  0  0  0
  1  2  1  0
  2  3  1  0
  3  4  2  0
  4  5  1  0
  5  6  2  0
  6  7  1  0
  7  8  2  0
  7  9  2  0
  7 10  1  0
 10 11  1  0
 11 12  2  0
 12 13  1  0
 13 14  2  0
 14 15  1  0
 15 16  2  0
 15 17  1  0
 17 18  1  0
 18 19  1  0
 18 20  2  0
 17 21  1  0
 21 22  1  0
 22 23  1  0
  6 24  1  0
 24 25  2  0
 25 26  1  0
 26 27  1  0
 25  3  1  0
 16 11  1  0
 23 14  1  0
  1 28  1  0
  1 29  1  0
  1 30  1  0
  4 31  1  0
  5 32  1  0
 10 33  1  0
 12 34  1  0
 13 35  1  0
 16 36  1  0
 19 37  1  0
 19 38  1  0
 19 39  1  0
 21 40  1  0
 21 41  1  0
 22 42  1  0
 22 43  1  0
 23 44  1  0
 23 45  1  0
 24 46  1  0
 27 47  1  0
 27 48  1  0
 27 49  1  0
M  END
$$$$
