
     RDKit          3D

 46 49  0  0  0  0  0  0  0  0999 V2000
    2.3649   -1.2069    0.1659 O   0  0  0  0  0  0  0  0  0  0  0  0
    1.6042   -0.5708   -0.5577 C   0  0  0  0  0  0  0  0  0  0  0  0
    0.7397   -1.2616   -1.5992 C   0  0  0  0  0  0  0  0  0  0  0  0
   -0.1832   -2.2238   -1.0225 N   0  0  0  0  0  0  0  0  0  0  0  0
   -1.5209   -2.0154   -0.7448 C   0  0  0  0  0  0  0  0  0  0  0  0
   -2.2291   -0.7066   -0.8994 C   0  0  0  0  0  0  0  0  0  0  0  0
   -1.4809    0.2584   -0.1606 O   0  0  0  0  0  0  0  0  0  0  0  0
   -2.0885    1.4655    0.0415 C   0  0  0  0  0  0  0  0  0  0  0  0
   -1.6327    2.1766    1.1544 C   0  0  0  0  0  0  0  0  0  0  0  0
   -2.1501    3.4381    1.4483 C   0  0  0  0  0  0  0  0  0  0  0  0
   -3.1236    3.9966    0.6236 C   0  0  0  0  0  0  0  0  0  0  0  0
   -3.5771    3.2932   -0.4919 C   0  0  0  0  0  0  0  0  0  0  0  0
   -3.0595    2.0286   -0.7863 C   0  0  0  0  0  0  0  0  0  0  0  0
   -2.0931   -3.1379   -0.3507 N   0  0  0  0  0  0  0  0  0  0  0  0
   -1.1027   -4.0851   -0.3404 C   0  0  0  0  0  0  0  0  0  0  0  0
   -1.1710   -5.4413    0.0110 C   0  0  0  0  0  0  0  0  0  0  0  0
   -0.0075   -6.2161   -0.0604 C   0  0  0  0  0  0  0  0  0  0  0  0
    1.2000   -5.6506   -0.4721 C   0  0  0  0  0  0  0  0  0  0  0  0
    1.2853   -4.2998   -0.8295 C   0  0  0  0  0  0  0  0  0  0  0  0
    0.1087   -3.5433   -0.7552 C   0  0  0  0  0  0  0  0  0  0  0  0
    1.4809    0.8093   -0.5698 N   0  0  0  0  0  0  0  0  0  0  0  0
    2.1388    1.7554    0.2539 C   0  0  0  0  0  0  0  0  0  0  0  0
    3.0075    1.4033    1.2911 C   0  0  0  0  0  0  0  0  0  0  0  0
    3.6109    2.3908    2.0828 C   0  0  0  0  0  0  0  0  0  0  0  0
    4.6675    1.8721    3.3490 Cl  0  0  0  0  0  0  0  0  0  0  0  0
    3.3498    3.7437    1.8403 C   0  0  0  0  0  0  0  0  0  0  0  0
    4.0577    5.0093    2.7790 Cl  0  0  0  0  0  0  0  0  0  0  0  0
    2.4898    4.1098    0.8054 C   0  0  0  0  0  0  0  0  0  0  0  0
    1.8926    3.1228    0.0197 C   0  0  0  0  0  0  0  0  0  0  0  0
    0.8569    3.6320   -1.2724 Cl  0  0  0  0  0  0  0  0  0  0  0  0
    0.1661   -0.5463   -2.1962 H   0  0  0  0  0  0  0  0  0  0  0  0
    1.3966   -1.7909   -2.2985 H   0  0  0  0  0  0  0  0  0  0  0  0
   -3.2477   -0.7958   -0.5025 H   0  0  0  0  0  0  0  0  0  0  0  0
   -2.2640   -0.4375   -1.9610 H   0  0  0  0  0  0  0  0  0  0  0  0
   -0.8774    1.7400    1.8036 H   0  0  0  0  0  0  0  0  0  0  0  0
   -1.7970    3.9811    2.3209 H   0  0  0  0  0  0  0  0  0  0  0  0
   -3.5306    4.9789    0.8502 H   0  0  0  0  0  0  0  0  0  0  0  0
   -4.3355    3.7324   -1.1356 H   0  0  0  0  0  0  0  0  0  0  0  0
   -3.4271    1.5189   -1.6705 H   0  0  0  0  0  0  0  0  0  0  0  0
   -2.1121   -5.8706    0.3355 H   0  0  0  0  0  0  0  0  0  0  0  0
   -0.0465   -7.2671    0.2152 H   0  0  0  0  0  0  0  0  0  0  0  0
    2.0952   -6.2681   -0.5084 H   0  0  0  0  0  0  0  0  0  0  0  0
    2.2326   -3.8632   -1.1285 H   0  0  0  0  0  0  0  0  0  0  0  0
    0.7983    1.2183   -1.2034 H   0  0  0  0  0  0  0  0  0  0  0  0
    3.2264    0.3638    1.5171 H   0  0  0  0  0  0  0  0  0  0  0  0
    2.2875    5.1599    0.6092 H   0  0  0  0  0  0  0  0  0  0  0  0
  1  2  2  0
  2  3  1  0
  3  4  1  0
  4  5  1  0
  5  6  1  0
  6  7  1  0
  7  8  1  0
  8  9  2  0
  9 10  1  0
 10 11  2  0
 11 12  1  0
 12 13  2  0
  5 14  2  0
 14 15  1  0
 15 16  2  0
 16 17  1  0
 17 18  2  0
 18 19  1  0
 19 20  2  0
  2 21  1  0
 21 22  1  0
 22 23  2  0
 23 24  1  0
 24 25  1  0
 24 26  2  0
 26 27  1  0
 26 28  1  0
 28 29  2  0
 29 30  1  0
 20  4  1  0
 29 22  1  0
 13  8  1  0
 20 15  1  0
  3 31  1  0
  3 32  1  0
  6 33  1  0
  6 34  1  0
  9 35  1  0
 10 36  1  0
 11 37  1  0
 12 38  1  0
 13 39  1  0
 16 40  1  0
 17 41  1  0
 18 42  1  0
 19 43  1  0
 21 44  1  0
 23 45  1  0
 28 46  1  0
M  END
$$$$
