
     RDKit          3D

 60 63  0  0  0  0  0  0  0  0999 V2000
   10.7081   -2.5175   -2.5685 C   0  0  0  0  0  0  0  0  0  0  0  0
    9.6771   -1.9902   -1.5871 C   0  0  0  0  0  0  0  0  0  0  0  0
    8.3970   -2.4715   -1.9928 O   0  0  0  0  0  0  0  0  0  0  0  0
    7.3251   -2.1170   -1.2208 C   0  0  0  0  0  0  0  0  0  0  0  0
    7.3620   -1.3171   -0.0779 C   0  0  0  0  0  0  0  0  0  0  0  0
    6.1829   -1.0305    0.6206 C   0  0  0  0  0  0  0  0  0  0  0  0
    4.9539   -1.5465    0.1903 C   0  0  0  0  0  0  0  0  0  0  0  0
    3.6820   -1.2211    0.9246 C   0  0  0  0  0  0  0  0  0  0  0  0
    2.9622   -0.1611    0.2596 N   0  0  0  0  0  0  0  0  0  0  0  0
    1.7130    0.2263    0.7050 C   0  0  0  0  0  0  0  0  0  0  0  0
    1.1615   -0.3159    1.6596 O   0  0  0  0  0  0  0  0  0  0  0  0
    1.1247    1.4012   -0.0790 C   0  0  0  0  0  0  0  0  0  0  0  0
   -0.2845    1.5745    0.2288 N   0  0  0  0  0  0  0  0  0  0  0  0
   -0.5972    2.5187    1.2139 N   0  0  0  0  0  0  0  0  0  0  0  0
   -1.8247    2.6694    1.6276 C   0  0  0  0  0  0  0  0  0  0  0  0
   -2.0971    3.6948    2.6909 C   0  0  0  0  0  0  0  0  0  0  0  0
   -2.8720    1.8574    1.0567 C   0  0  0  0  0  0  0  0  0  0  0  0
   -4.2273    1.7153    1.3050 C   0  0  0  0  0  0  0  0  0  0  0  0
   -5.0588    2.2851    2.3964 C   0  0  0  0  0  0  0  0  0  0  0  0
   -4.6933    0.8281    0.3262 N   0  0  0  0  0  0  0  0  0  0  0  0
   -6.0265    0.4620   -0.0383 C   0  0  0  0  0  0  0  0  0  0  0  0
   -6.2243   -0.6964   -0.8083 C   0  0  0  0  0  0  0  0  0  0  0  0
   -7.5109   -1.0915   -1.1875 C   0  0  0  0  0  0  0  0  0  0  0  0
   -8.6237   -0.3357   -0.8098 C   0  0  0  0  0  0  0  0  0  0  0  0
  -10.0014   -0.7405   -1.2433 C   0  0  0  0  0  0  0  0  0  0  0  0
   -8.4256    0.8412   -0.0801 C   0  0  0  0  0  0  0  0  0  0  0  0
   -7.1385    1.2398    0.3020 C   0  0  0  0  0  0  0  0  0  0  0  0
   -3.6571    0.2672   -0.3551 N   0  0  0  0  0  0  0  0  0  0  0  0
   -2.5726    0.9283    0.0548 C   0  0  0  0  0  0  0  0  0  0  0  0
   -1.2096    0.7333   -0.4197 C   0  0  0  0  0  0  0  0  0  0  0  0
   -0.8935   -0.0688   -1.2966 O   0  0  0  0  0  0  0  0  0  0  0  0
    4.9220   -2.3416   -0.9625 C   0  0  0  0  0  0  0  0  0  0  0  0
    6.0998   -2.6241   -1.6584 C   0  0  0  0  0  0  0  0  0  0  0  0
   10.4729   -2.1940   -3.5881 H   0  0  0  0  0  0  0  0  0  0  0  0
   11.7105   -2.1650   -2.3079 H   0  0  0  0  0  0  0  0  0  0  0  0
   10.7089   -3.6125   -2.5735 H   0  0  0  0  0  0  0  0  0  0  0  0
    9.6938   -0.8950   -1.6052 H   0  0  0  0  0  0  0  0  0  0  0  0
    9.9219   -2.3536   -0.5830 H   0  0  0  0  0  0  0  0  0  0  0  0
    8.2896   -0.8996    0.2984 H   0  0  0  0  0  0  0  0  0  0  0  0
    6.2331   -0.4017    1.5077 H   0  0  0  0  0  0  0  0  0  0  0  0
    3.8929   -0.8994    1.9522 H   0  0  0  0  0  0  0  0  0  0  0  0
    3.0385   -2.1071    0.9936 H   0  0  0  0  0  0  0  0  0  0  0  0
    3.4433    0.3795   -0.4477 H   0  0  0  0  0  0  0  0  0  0  0  0
    1.6694    2.3124    0.1865 H   0  0  0  0  0  0  0  0  0  0  0  0
    1.2455    1.2163   -1.1514 H   0  0  0  0  0  0  0  0  0  0  0  0
   -1.2299    4.3507    2.8173 H   0  0  0  0  0  0  0  0  0  0  0  0
   -2.9592    4.3084    2.4149 H   0  0  0  0  0  0  0  0  0  0  0  0
   -2.2913    3.1904    3.6413 H   0  0  0  0  0  0  0  0  0  0  0  0
   -5.4799    3.2502    2.0997 H   0  0  0  0  0  0  0  0  0  0  0  0
   -5.8657    1.6090    2.6948 H   0  0  0  0  0  0  0  0  0  0  0  0
   -4.4630    2.4425    3.3002 H   0  0  0  0  0  0  0  0  0  0  0  0
   -5.3813   -1.3150   -1.1154 H   0  0  0  0  0  0  0  0  0  0  0  0
   -7.6326   -1.9957   -1.7807 H   0  0  0  0  0  0  0  0  0  0  0  0
  -10.7490   -0.4232   -0.5078 H   0  0  0  0  0  0  0  0  0  0  0  0
  -10.2392   -0.2848   -2.2103 H   0  0  0  0  0  0  0  0  0  0  0  0
  -10.0789   -1.8293   -1.3356 H   0  0  0  0  0  0  0  0  0  0  0  0
   -9.2756    1.4659    0.1876 H   0  0  0  0  0  0  0  0  0  0  0  0
   -7.0485    2.1871    0.8195 H   0  0  0  0  0  0  0  0  0  0  0  0
    3.9792   -2.7463   -1.3260 H   0  0  0  0  0  0  0  0  0  0  0  0
    6.0618   -3.2459   -2.5513 H   0  0  0  0  0  0  0  0  0  0  0  0
  1  2  1  0
  2  3  1  0
  3  4  1  0
  4  5  2  0
  5  6  1  0
  6  7  2  0
  7  8  1  0
  8  9  1  0
  9 10  1  0
 10 11  2  0
 10 12  1  0
 12 13  1  0
 13 14  1  0
 14 15  2  0
 15 16  1  0
 15 17  1  0
 17 18  2  0
 18 19  1  0
 18 20  1  0
 20 21  1  0
 21 22  2  0
 22 23  1  0
 23 24  2  0
 24 25  1  0
 24 26  1  0
 26 27  2  0
 20 28  1  0
 28 29  2  0
 29 30  1  0
 30 31  2  0
  7 32  1  0
 32 33  2  0
 33  4  1  0
 30 13  1  0
 29 17  1  0
 27 21  1  0
  1 34  1  0
  1 35  1  0
  1 36  1  0
  2 37  1  0
  2 38  1  0
  5 39  1  0
  6 40  1  0
  8 41  1  0
  8 42  1  0
  9 43  1  0
 12 44  1  0
 12 45  1  0
 16 46  1  0
 16 47  1  0
 16 48  1  0
 19 49  1  0
 19 50  1  0
 19 51  1  0
 22 52  1  0
 23 53  1  0
 25 54  1  0
 25 55  1  0
 25 56  1  0
 26 57  1  0
 27 58  1  0
 32 59  1  0
 33 60  1  0
M  END
$$$$
