
     RDKit          3D

 48 50  0  0  0  0  0  0  0  0999 V2000
   -4.5202   -1.9372    1.2303 C   0  0  0  0  0  0  0  0  0  0  0  0
   -5.0606   -0.8450    0.4946 O   0  0  0  0  0  0  0  0  0  0  0  0
   -4.1501   -0.0769   -0.1851 C   0  0  0  0  0  0  0  0  0  0  0  0
   -2.8422    0.1439    0.2524 C   0  0  0  0  0  0  0  0  0  0  0  0
   -1.9700    0.9428   -0.4995 C   0  0  0  0  0  0  0  0  0  0  0  0
   -0.5908    1.2000   -0.0573 C   0  0  0  0  0  0  0  0  0  0  0  0
    0.3615    0.2696    0.1599 C   0  0  0  0  0  0  0  0  0  0  0  0
    0.1309   -1.1206   -0.0190 C   0  0  0  0  0  0  0  0  0  0  0  0
    0.0237   -2.2713   -0.1237 N   0  0  0  0  0  0  0  0  0  0  0  0
    1.7226    0.7578    0.5952 C   0  0  0  0  0  0  0  0  0  0  0  0
    1.9116    1.9616    0.7460 O   0  0  0  0  0  0  0  0  0  0  0  0
    2.6683   -0.2376    0.7893 N   0  0  0  0  0  0  0  0  0  0  0  0
    4.0254   -0.0955    1.2014 C   0  0  0  0  0  0  0  0  0  0  0  0
    4.5779    1.1574    1.4878 C   0  0  0  0  0  0  0  0  0  0  0  0
    5.9038    1.2728    1.8911 C   0  0  0  0  0  0  0  0  0  0  0  0
    6.6923    0.1342    2.0123 C   0  0  0  0  0  0  0  0  0  0  0  0
    6.1941   -1.1274    1.7414 C   0  0  0  0  0  0  0  0  0  0  0  0
    7.0397   -2.1617    1.8896 N   0  0  0  0  0  0  0  0  0  0  0  0
    6.5877   -3.4039    1.6324 C   0  0  0  0  0  0  0  0  0  0  0  0
    5.3014   -3.6729    1.2242 C   0  0  0  0  0  0  0  0  0  0  0  0
    4.4279   -2.5996    1.0719 C   0  0  0  0  0  0  0  0  0  0  0  0
    4.8455   -1.2680    1.3284 C   0  0  0  0  0  0  0  0  0  0  0  0
   -2.4233    1.5515   -1.6797 C   0  0  0  0  0  0  0  0  0  0  0  0
   -3.7345    1.3566   -2.1225 C   0  0  0  0  0  0  0  0  0  0  0  0
   -4.2677    1.9065   -3.2594 O   0  0  0  0  0  0  0  0  0  0  0  0
   -3.3827    2.5884   -4.1371 C   0  0  0  0  0  0  0  0  0  0  0  0
   -4.5968    0.5558   -1.3555 C   0  0  0  0  0  0  0  0  0  0  0  0
   -5.8776    0.3187   -1.8032 O   0  0  0  0  0  0  0  0  0  0  0  0
   -6.7658    1.2966   -1.2650 C   0  0  0  0  0  0  0  0  0  0  0  0
   -3.7845   -2.4987    0.6437 H   0  0  0  0  0  0  0  0  0  0  0  0
   -5.3432   -2.6165    1.4725 H   0  0  0  0  0  0  0  0  0  0  0  0
   -4.0871   -1.5901    2.1737 H   0  0  0  0  0  0  0  0  0  0  0  0
   -2.5010   -0.2858    1.1890 H   0  0  0  0  0  0  0  0  0  0  0  0
   -0.3603    2.2585    0.0684 H   0  0  0  0  0  0  0  0  0  0  0  0
    2.3828   -1.1909    0.6210 H   0  0  0  0  0  0  0  0  0  0  0  0
    4.0070    2.0765    1.4113 H   0  0  0  0  0  0  0  0  0  0  0  0
    6.3232    2.2512    2.1116 H   0  0  0  0  0  0  0  0  0  0  0  0
    7.7285    0.2342    2.3285 H   0  0  0  0  0  0  0  0  0  0  0  0
    7.3140   -4.1998    1.7689 H   0  0  0  0  0  0  0  0  0  0  0  0
    4.9818   -4.6902    1.0280 H   0  0  0  0  0  0  0  0  0  0  0  0
    3.4198   -2.8358    0.7481 H   0  0  0  0  0  0  0  0  0  0  0  0
   -1.7350    2.1783   -2.2386 H   0  0  0  0  0  0  0  0  0  0  0  0
   -2.5706    1.9338   -4.4709 H   0  0  0  0  0  0  0  0  0  0  0  0
   -2.9916    3.4982   -3.6703 H   0  0  0  0  0  0  0  0  0  0  0  0
   -3.9534    2.8878   -5.0214 H   0  0  0  0  0  0  0  0  0  0  0  0
   -6.4948    2.3063   -1.5925 H   0  0  0  0  0  0  0  0  0  0  0  0
   -7.7700    1.0789   -1.6410 H   0  0  0  0  0  0  0  0  0  0  0  0
   -6.7979    1.2494   -0.1710 H   0  0  0  0  0  0  0  0  0  0  0  0
  1  2  1  0
  2  3  1  0
  3  4  2  0
  4  5  1  0
  5  6  1  0
  6  7  2  3
  7  8  1  0
  8  9  3  0
  7 10  1  0
 10 11  2  0
 10 12  1  0
 12 13  1  0
 13 14  2  0
 14 15  1  0
 15 16  2  0
 16 17  1  0
 17 18  2  0
 18 19  1  0
 19 20  2  0
 20 21  1  0
 21 22  2  0
  5 23  2  0
 23 24  1  0
 24 25  1  0
 25 26  1  0
 24 27  2  0
 27 28  1  0
 28 29  1  0
 27  3  1  0
 22 13  1  0
 22 17  1  0
  1 30  1  0
  1 31  1  0
  1 32  1  0
  4 33  1  0
  6 34  1  0
 12 35  1  0
 14 36  1  0
 15 37  1  0
 16 38  1  0
 19 39  1  0
 20 40  1  0
 21 41  1  0
 23 42  1  0
 26 43  1  0
 26 44  1  0
 26 45  1  0
 29 46  1  0
 29 47  1  0
 29 48  1  0
M  END
$$$$
