
     RDKit          3D

 58 61  0  0  0  0  0  0  0  0999 V2000
   -3.1653    6.3417    1.3589 C   0  0  0  0  0  0  0  0  0  0  0  0
   -2.4970    5.2077    0.8211 O   0  0  0  0  0  0  0  0  0  0  0  0
   -2.9771    3.9772    1.1784 C   0  0  0  0  0  0  0  0  0  0  0  0
   -4.0591    3.7337    2.0132 C   0  0  0  0  0  0  0  0  0  0  0  0
   -4.4536    2.4230    2.3055 C   0  0  0  0  0  0  0  0  0  0  0  0
   -3.7419    1.3469    1.7413 C   0  0  0  0  0  0  0  0  0  0  0  0
   -4.0555   -0.3269    1.9666 S   0  0  0  0  0  0  0  0  0  0  0  0
   -2.7564   -0.7942    0.9585 C   0  0  0  0  0  0  0  0  0  0  0  0
   -2.5285   -2.2286    0.7358 C   0  0  0  0  0  0  0  0  0  0  0  0
   -3.0342   -2.8145   -0.4363 C   0  0  0  0  0  0  0  0  0  0  0  0
   -2.8365   -4.1696   -0.6938 C   0  0  0  0  0  0  0  0  0  0  0  0
   -2.1292   -4.9496    0.2160 C   0  0  0  0  0  0  0  0  0  0  0  0
   -1.6153   -4.3786    1.3840 C   0  0  0  0  0  0  0  0  0  0  0  0
   -1.8083   -3.0187    1.6557 C   0  0  0  0  0  0  0  0  0  0  0  0
   -1.3181   -2.3745    2.7644 O   0  0  0  0  0  0  0  0  0  0  0  0
   -0.7326   -3.1744    3.7819 C   0  0  0  0  0  0  0  0  0  0  0  0
   -2.0867    0.3034    0.4429 C   0  0  0  0  0  0  0  0  0  0  0  0
   -0.9514    0.1520   -0.4601 C   0  0  0  0  0  0  0  0  0  0  0  0
    0.2686   -0.3432    0.0110 C   0  0  0  0  0  0  0  0  0  0  0  0
    1.3585   -0.4859   -0.8557 C   0  0  0  0  0  0  0  0  0  0  0  0
    1.2379   -0.1309   -2.1992 C   0  0  0  0  0  0  0  0  0  0  0  0
    2.2144   -0.2121   -3.1520 O   0  0  0  0  0  0  0  0  0  0  0  0
    3.4860   -0.7608   -2.7894 C   0  0  0  0  0  0  0  0  0  0  0  0
    4.4046    0.3283   -2.2083 C   0  0  0  0  0  0  0  0  0  0  0  0
    5.7759   -0.1359   -1.9189 N   0  0  0  0  0  0  0  0  0  0  0  0
    5.8092   -1.0470   -0.7729 C   0  0  0  0  0  0  0  0  0  0  0  0
    6.6452    1.0152   -1.6571 C   0  0  0  0  0  0  0  0  0  0  0  0
    0.0190    0.3715   -2.6646 C   0  0  0  0  0  0  0  0  0  0  0  0
   -1.0719    0.5143   -1.8037 C   0  0  0  0  0  0  0  0  0  0  0  0
   -2.6520    1.5555    0.8953 C   0  0  0  0  0  0  0  0  0  0  0  0
   -2.2778    2.8982    0.6245 C   0  0  0  0  0  0  0  0  0  0  0  0
   -4.2076    6.3806    1.0252 H   0  0  0  0  0  0  0  0  0  0  0  0
   -2.6616    7.2367    0.9813 H   0  0  0  0  0  0  0  0  0  0  0  0
   -3.0983    6.3580    2.4517 H   0  0  0  0  0  0  0  0  0  0  0  0
   -4.6272    4.5415    2.4629 H   0  0  0  0  0  0  0  0  0  0  0  0
   -5.3001    2.2394    2.9616 H   0  0  0  0  0  0  0  0  0  0  0  0
   -3.5845   -2.2100   -1.1541 H   0  0  0  0  0  0  0  0  0  0  0  0
   -3.2313   -4.6132   -1.6040 H   0  0  0  0  0  0  0  0  0  0  0  0
   -1.9712   -6.0064    0.0148 H   0  0  0  0  0  0  0  0  0  0  0  0
   -1.0607   -5.0230    2.0577 H   0  0  0  0  0  0  0  0  0  0  0  0
   -1.4374   -3.9259    4.1531 H   0  0  0  0  0  0  0  0  0  0  0  0
   -0.4775   -2.5166    4.6184 H   0  0  0  0  0  0  0  0  0  0  0  0
    0.1945   -3.6388    3.4306 H   0  0  0  0  0  0  0  0  0  0  0  0
    0.3774   -0.6225    1.0571 H   0  0  0  0  0  0  0  0  0  0  0  0
    2.2820   -0.8734   -0.4410 H   0  0  0  0  0  0  0  0  0  0  0  0
    3.3739   -1.6368   -2.1425 H   0  0  0  0  0  0  0  0  0  0  0  0
    3.9321   -1.1335   -3.7195 H   0  0  0  0  0  0  0  0  0  0  0  0
    4.4440    1.1342   -2.9542 H   0  0  0  0  0  0  0  0  0  0  0  0
    3.9505    0.7813   -1.3179 H   0  0  0  0  0  0  0  0  0  0  0  0
    5.3985   -0.5873    0.1333 H   0  0  0  0  0  0  0  0  0  0  0  0
    5.2508   -1.9650   -0.9796 H   0  0  0  0  0  0  0  0  0  0  0  0
    6.8381   -1.3604   -0.5615 H   0  0  0  0  0  0  0  0  0  0  0  0
    7.6754    0.6873   -1.4780 H   0  0  0  0  0  0  0  0  0  0  0  0
    6.3116    1.5967   -0.7899 H   0  0  0  0  0  0  0  0  0  0  0  0
    6.6780    1.6798   -2.5277 H   0  0  0  0  0  0  0  0  0  0  0  0
   -0.0824    0.6533   -3.7099 H   0  0  0  0  0  0  0  0  0  0  0  0
   -2.0103    0.9046   -2.1895 H   0  0  0  0  0  0  0  0  0  0  0  0
   -1.4276    3.0965   -0.0246 H   0  0  0  0  0  0  0  0  0  0  0  0
  1  2  1  0
  2  3  1  0
  3  4  2  0
  4  5  1  0
  5  6  2  0
  6  7  1  0
  7  8  1  0
  8  9  1  0
  9 10  2  0
 10 11  1  0
 11 12  2  0
 12 13  1  0
 13 14  2  0
 14 15  1  0
 15 16  1  0
  8 17  2  0
 17 18  1  0
 18 19  2  0
 19 20  1  0
 20 21  2  0
 21 22  1  0
 22 23  1  0
 23 24  1  0
 24 25  1  0
 25 26  1  0
 25 27  1  0
 21 28  1  0
 28 29  2  0
 17 30  1  0
 30 31  2  0
 31  3  1  0
 30  6  1  0
 14  9  1  0
 29 18  1  0
  1 32  1  0
  1 33  1  0
  1 34  1  0
  4 35  1  0
  5 36  1  0
 10 37  1  0
 11 38  1  0
 12 39  1  0
 13 40  1  0
 16 41  1  0
 16 42  1  0
 16 43  1  0
 19 44  1  0
 20 45  1  0
 23 46  1  0
 23 47  1  0
 24 48  1  0
 24 49  1  0
 26 50  1  0
 26 51  1  0
 26 52  1  0
 27 53  1  0
 27 54  1  0
 27 55  1  0
 28 56  1  0
 29 57  1  0
 31 58  1  0
M  END
$$$$
