
     RDKit          3D

 57 60  0  0  0  0  0  0  0  0999 V2000
   -2.0015    4.4707   -0.0770 C   0  0  0  0  0  0  0  0  0  0  0  0
   -0.8488    3.6266    0.4531 C   0  0  0  0  0  0  0  0  0  0  0  0
   -0.7783    2.2282   -0.1791 C   0  0  0  0  0  0  0  0  0  0  0  0
   -2.1276    1.1377    0.4418 S   0  0  0  0  0  0  0  0  0  0  0  0
   -2.8446    0.6657   -1.0947 C   0  0  0  0  0  0  0  0  0  0  0  0
   -3.1516    1.6511   -1.8840 N   0  0  0  0  0  0  0  0  0  0  0  0
   -3.7236    1.2741   -3.0956 C   0  0  0  0  0  0  0  0  0  0  0  0
   -4.0980    2.1838   -4.1083 C   0  0  0  0  0  0  0  0  0  0  0  0
   -4.6298    1.5172   -5.1939 C   0  0  0  0  0  0  0  0  0  0  0  0
   -4.6657   -0.1864   -4.9513 S   0  0  0  0  0  0  0  0  0  0  0  0
   -3.9716   -0.0254   -3.4136 C   0  0  0  0  0  0  0  0  0  0  0  0
   -3.6667   -1.1102   -2.5297 C   0  0  0  0  0  0  0  0  0  0  0  0
   -3.9080   -2.2881   -2.7855 O   0  0  0  0  0  0  0  0  0  0  0  0
   -3.0614   -0.6931   -1.3341 N   0  0  0  0  0  0  0  0  0  0  0  0
   -2.7105   -1.7585   -0.3888 C   0  0  0  0  0  0  0  0  0  0  0  0
   -1.2603   -2.1951   -0.4873 C   0  0  0  0  0  0  0  0  0  0  0  0
   -0.7519   -2.7464   -1.6742 C   0  0  0  0  0  0  0  0  0  0  0  0
    0.5810   -3.1608   -1.7560 C   0  0  0  0  0  0  0  0  0  0  0  0
    1.4265   -3.0397   -0.6483 C   0  0  0  0  0  0  0  0  0  0  0  0
    2.8292   -3.5013   -0.7813 C   0  0  0  0  0  0  0  0  0  0  0  0
    3.3087   -4.0425   -1.7613 O   0  0  0  0  0  0  0  0  0  0  0  0
    3.5671   -3.2741    0.3207 O   0  0  0  0  0  0  0  0  0  0  0  0
    0.9266   -2.5078    0.5427 C   0  0  0  0  0  0  0  0  0  0  0  0
   -0.4078   -2.0926    0.6227 C   0  0  0  0  0  0  0  0  0  0  0  0
    0.5703    1.5619    0.1271 C   0  0  0  0  0  0  0  0  0  0  0  0
    1.3579    1.3146   -0.7818 O   0  0  0  0  0  0  0  0  0  0  0  0
    0.7795    1.3117    1.4750 N   0  0  0  0  0  0  0  0  0  0  0  0
    1.9217    0.7492    2.0800 C   0  0  0  0  0  0  0  0  0  0  0  0
    3.1075    0.4702    1.4009 C   0  0  0  0  0  0  0  0  0  0  0  0
    4.1955   -0.0980    2.0730 C   0  0  0  0  0  0  0  0  0  0  0  0
    4.1222   -0.3974    3.4396 C   0  0  0  0  0  0  0  0  0  0  0  0
    5.3048   -1.0150    4.1282 C   0  0  0  0  0  0  0  0  0  0  0  0
    2.9307   -0.1124    4.1177 C   0  0  0  0  0  0  0  0  0  0  0  0
    2.7444   -0.4548    5.8021 Cl  0  0  0  0  0  0  0  0  0  0  0  0
    1.8438    0.4596    3.4462 C   0  0  0  0  0  0  0  0  0  0  0  0
   -2.9727    4.0533    0.2031 H   0  0  0  0  0  0  0  0  0  0  0  0
   -1.9441    5.4819    0.3367 H   0  0  0  0  0  0  0  0  0  0  0  0
   -1.9611    4.5510   -1.1676 H   0  0  0  0  0  0  0  0  0  0  0  0
    0.0871    4.1601    0.2407 H   0  0  0  0  0  0  0  0  0  0  0  0
   -0.9175    3.5670    1.5465 H   0  0  0  0  0  0  0  0  0  0  0  0
   -0.8281    2.3253   -1.2693 H   0  0  0  0  0  0  0  0  0  0  0  0
   -3.9855    3.2588   -4.0550 H   0  0  0  0  0  0  0  0  0  0  0  0
   -5.0006    1.9398   -6.1179 H   0  0  0  0  0  0  0  0  0  0  0  0
   -2.9439   -1.4311    0.6306 H   0  0  0  0  0  0  0  0  0  0  0  0
   -3.3415   -2.6423   -0.5510 H   0  0  0  0  0  0  0  0  0  0  0  0
   -1.3870   -2.8736   -2.5495 H   0  0  0  0  0  0  0  0  0  0  0  0
    0.9548   -3.5823   -2.6885 H   0  0  0  0  0  0  0  0  0  0  0  0
    4.4517   -3.6164    0.0797 H   0  0  0  0  0  0  0  0  0  0  0  0
    1.5681   -2.4117    1.4146 H   0  0  0  0  0  0  0  0  0  0  0  0
   -0.7700   -1.6878    1.5654 H   0  0  0  0  0  0  0  0  0  0  0  0
   -0.0203    1.4652    2.0781 H   0  0  0  0  0  0  0  0  0  0  0  0
    3.2246    0.6827    0.3422 H   0  0  0  0  0  0  0  0  0  0  0  0
    5.1026   -0.3059    1.5086 H   0  0  0  0  0  0  0  0  0  0  0  0
    5.6356   -0.3864    4.9612 H   0  0  0  0  0  0  0  0  0  0  0  0
    5.0494   -2.0127    4.5001 H   0  0  0  0  0  0  0  0  0  0  0  0
    6.1545   -1.1261    3.4440 H   0  0  0  0  0  0  0  0  0  0  0  0
    0.9340    0.6687    4.0023 H   0  0  0  0  0  0  0  0  0  0  0  0
  1  2  1  0
  2  3  1  0
  3  4  1  0
  4  5  1  0
  5  6  2  0
  6  7  1  0
  7  8  1  0
  8  9  2  0
  9 10  1  0
 10 11  1  0
 11 12  1  0
 12 13  2  0
 12 14  1  0
 14 15  1  0
 15 16  1  0
 16 17  2  0
 17 18  1  0
 18 19  2  0
 19 20  1  0
 20 21  2  0
 20 22  1  0
 19 23  1  0
 23 24  2  0
  3 25  1  0
 25 26  2  0
 25 27  1  0
 27 28  1  0
 28 29  2  0
 29 30  1  0
 30 31  2  0
 31 32  1  0
 31 33  1  0
 33 34  1  0
 33 35  2  0
 14  5  1  0
 24 16  1  0
 35 28  1  0
 11  7  2  0
  1 36  1  0
  1 37  1  0
  1 38  1  0
  2 39  1  0
  2 40  1  0
  3 41  1  0
  8 42  1  0
  9 43  1  0
 15 44  1  0
 15 45  1  0
 17 46  1  0
 18 47  1  0
 22 48  1  0
 23 49  1  0
 24 50  1  0
 27 51  1  0
 29 52  1  0
 30 53  1  0
 32 54  1  0
 32 55  1  0
 32 56  1  0
 35 57  1  0
M  END
$$$$
