
     RDKit          3D

 58 62  0  0  0  0  0  0  0  0999 V2000
    7.9550    2.2779    2.4298 C   0  0  0  0  0  0  0  0  0  0  0  0
    7.5807    1.4938    1.3038 O   0  0  0  0  0  0  0  0  0  0  0  0
    6.2842    1.0597    1.2554 C   0  0  0  0  0  0  0  0  0  0  0  0
    5.2980    1.3165    2.2098 C   0  0  0  0  0  0  0  0  0  0  0  0
    4.0032    0.8103    2.0388 C   0  0  0  0  0  0  0  0  0  0  0  0
    3.6746    0.0444    0.9201 C   0  0  0  0  0  0  0  0  0  0  0  0
    2.3550   -0.4263    0.7954 N   0  0  0  0  0  0  0  0  0  0  0  0
    1.9875   -1.1354   -0.2452 C   0  0  0  0  0  0  0  0  0  0  0  0
    0.6563   -1.5320   -0.3248 N   0  0  0  0  0  0  0  0  0  0  0  0
   -0.1932   -1.4493    0.8754 C   0  0  0  0  0  0  0  0  0  0  0  0
   -1.5402   -2.1652    0.6485 C   0  0  0  0  0  0  0  0  0  0  0  0
   -2.3514   -1.6378   -0.4755 N   0  0  0  0  0  0  0  0  0  0  0  0
   -3.4344   -0.7644    0.0124 C   0  0  0  0  0  0  0  0  0  0  0  0
   -4.4272   -0.3516   -1.0908 C   0  0  0  0  0  0  0  0  0  0  0  0
   -5.5593    0.4972   -0.5434 C   0  0  0  0  0  0  0  0  0  0  0  0
   -6.6596   -0.1587    0.0383 C   0  0  0  0  0  0  0  0  0  0  0  0
   -7.7249    0.5638    0.5730 C   0  0  0  0  0  0  0  0  0  0  0  0
   -7.7088    1.9531    0.5368 C   0  0  0  0  0  0  0  0  0  0  0  0
   -6.6256    2.6210   -0.0338 C   0  0  0  0  0  0  0  0  0  0  0  0
   -5.5364    1.9111   -0.5762 C   0  0  0  0  0  0  0  0  0  0  0  0
   -4.3916    2.6858   -1.1941 C   0  0  0  0  0  0  0  0  0  0  0  0
   -4.4716    4.0324   -0.9936 F   0  0  0  0  0  0  0  0  0  0  0  0
   -3.1754    2.3173   -0.7021 F   0  0  0  0  0  0  0  0  0  0  0  0
   -4.3154    2.5198   -2.5441 F   0  0  0  0  0  0  0  0  0  0  0  0
   -1.4875   -0.9431   -1.4594 C   0  0  0  0  0  0  0  0  0  0  0  0
   -0.0737   -1.5516   -1.6005 C   0  0  0  0  0  0  0  0  0  0  0  0
    2.9981   -1.4723   -1.2407 C   0  0  0  0  0  0  0  0  0  0  0  0
    2.9663   -2.2867   -2.3603 C   0  0  0  0  0  0  0  0  0  0  0  0
    4.2426   -2.2423   -2.9678 C   0  0  0  0  0  0  0  0  0  0  0  0
    5.0352   -1.4286   -2.1894 C   0  0  0  0  0  0  0  0  0  0  0  0
    4.2860   -0.9923   -1.1226 N   0  0  0  0  0  0  0  0  0  0  0  0
    4.6724   -0.2042   -0.0274 C   0  0  0  0  0  0  0  0  0  0  0  0
    5.9694    0.2936    0.1297 C   0  0  0  0  0  0  0  0  0  0  0  0
    7.3818    3.2100    2.4698 H   0  0  0  0  0  0  0  0  0  0  0  0
    9.0111    2.5413    2.3172 H   0  0  0  0  0  0  0  0  0  0  0  0
    7.8512    1.7086    3.3594 H   0  0  0  0  0  0  0  0  0  0  0  0
    5.4979    1.9062    3.0981 H   0  0  0  0  0  0  0  0  0  0  0  0
    3.2390    1.0160    2.7840 H   0  0  0  0  0  0  0  0  0  0  0  0
   -0.3687   -0.3995    1.1415 H   0  0  0  0  0  0  0  0  0  0  0  0
    0.3156   -1.9310    1.7190 H   0  0  0  0  0  0  0  0  0  0  0  0
   -2.1104   -2.1763    1.5855 H   0  0  0  0  0  0  0  0  0  0  0  0
   -1.3320   -3.2189    0.4198 H   0  0  0  0  0  0  0  0  0  0  0  0
   -3.0205    0.1234    0.5078 H   0  0  0  0  0  0  0  0  0  0  0  0
   -4.0023   -1.3085    0.7790 H   0  0  0  0  0  0  0  0  0  0  0  0
   -4.8525   -1.2490   -1.5601 H   0  0  0  0  0  0  0  0  0  0  0  0
   -3.9218    0.1843   -1.9002 H   0  0  0  0  0  0  0  0  0  0  0  0
   -6.6914   -1.2467    0.0758 H   0  0  0  0  0  0  0  0  0  0  0  0
   -8.5681    0.0403    1.0167 H   0  0  0  0  0  0  0  0  0  0  0  0
   -8.5402    2.5181    0.9514 H   0  0  0  0  0  0  0  0  0  0  0  0
   -6.6349    3.7105   -0.0540 H   0  0  0  0  0  0  0  0  0  0  0  0
   -1.9737   -0.9738   -2.4411 H   0  0  0  0  0  0  0  0  0  0  0  0
   -1.3702    0.1143   -1.1851 H   0  0  0  0  0  0  0  0  0  0  0  0
   -0.1511   -2.5865   -1.9534 H   0  0  0  0  0  0  0  0  0  0  0  0
    0.4584   -0.9727   -2.3638 H   0  0  0  0  0  0  0  0  0  0  0  0
    2.1182   -2.8592   -2.7086 H   0  0  0  0  0  0  0  0  0  0  0  0
    4.5551   -2.7572   -3.8672 H   0  0  0  0  0  0  0  0  0  0  0  0
    6.0724   -1.1510   -2.3092 H   0  0  0  0  0  0  0  0  0  0  0  0
    6.7486    0.1015   -0.6006 H   0  0  0  0  0  0  0  0  0  0  0  0
  1  2  1  0
  2  3  1  0
  3  4  2  0
  4  5  1  0
  5  6  2  0
  6  7  1  0
  7  8  2  0
  8  9  1  0
  9 10  1  0
 10 11  1  0
 11 12  1  0
 12 13  1  0
 13 14  1  0
 14 15  1  0
 15 16  2  0
 16 17  1  0
 17 18  2  0
 18 19  1  0
 19 20  2  0
 20 21  1  0
 21 22  1  0
 21 23  1  0
 21 24  1  0
 12 25  1  0
 25 26  1  0
  8 27  1  0
 27 28  2  0
 28 29  1  0
 29 30  2  0
 30 31  1  0
 31 32  1  0
 32 33  2  0
 33  3  1  0
 32  6  1  0
 26  9  1  0
 31 27  1  0
 20 15  1  0
  1 34  1  0
  1 35  1  0
  1 36  1  0
  4 37  1  0
  5 38  1  0
 10 39  1  0
 10 40  1  0
 11 41  1  0
 11 42  1  0
 13 43  1  0
 13 44  1  0
 14 45  1  0
 14 46  1  0
 16 47  1  0
 17 48  1  0
 18 49  1  0
 19 50  1  0
 25 51  1  0
 25 52  1  0
 26 53  1  0
 26 54  1  0
 28 55  1  0
 29 56  1  0
 30 57  1  0
 33 58  1  0
M  END
$$$$
