
     RDKit          3D

 74 79  0  0  0  0  0  0  0  0999 V2000
    8.3948   -1.4738    1.2896 C   0  0  0  0  0  0  0  0  0  0  0  0
    8.2272   -0.9542   -0.0217 O   0  0  0  0  0  0  0  0  0  0  0  0
    6.9977   -0.4332   -0.3273 C   0  0  0  0  0  0  0  0  0  0  0  0
    6.9253    0.2326   -1.5522 C   0  0  0  0  0  0  0  0  0  0  0  0
    5.7273    0.8196   -1.9802 C   0  0  0  0  0  0  0  0  0  0  0  0
    4.5678    0.7457   -1.1952 C   0  0  0  0  0  0  0  0  0  0  0  0
    3.3077    1.3772   -1.6252 C   0  0  0  0  0  0  0  0  0  0  0  0
    2.0874    0.7419   -1.4878 C   0  0  0  0  0  0  0  0  0  0  0  0
    0.9185    1.4491   -1.7849 C   0  0  0  0  0  0  0  0  0  0  0  0
   -0.3844    0.7633   -1.5261 C   0  0  0  0  0  0  0  0  0  0  0  0
   -1.2970    0.8528   -2.3351 O   0  0  0  0  0  0  0  0  0  0  0  0
   -0.4078    0.0564   -0.3405 N   0  0  0  0  0  0  0  0  0  0  0  0
   -1.4146   -0.7797    0.1749 C   0  0  0  0  0  0  0  0  0  0  0  0
   -2.6971   -0.8822   -0.3584 C   0  0  0  0  0  0  0  0  0  0  0  0
   -3.6137   -1.7407    0.2523 C   0  0  0  0  0  0  0  0  0  0  0  0
   -5.2571   -1.8511   -0.4083 S   0  0  0  0  0  6  0  0  0  0  0  0
   -5.1428   -2.0648   -1.8333 O   0  0  0  0  0  0  0  0  0  0  0  0
   -6.0228   -2.7545    0.4263 O   0  0  0  0  0  0  0  0  0  0  0  0
   -5.8780   -0.2850   -0.1374 N   0  0  0  0  0  0  0  0  0  0  0  0
   -6.0622    0.1003    1.3023 C   0  0  0  0  0  0  0  0  0  0  0  0
   -7.5446    0.1111    1.6876 C   0  0  0  0  0  0  0  0  0  0  0  0
   -8.3127    1.0582    0.9304 O   0  0  0  0  0  0  0  0  0  0  0  0
   -7.8314    1.2359   -0.4098 C   0  0  0  0  0  0  0  0  0  0  0  0
   -7.0995    0.0065   -0.9597 C   0  0  0  0  0  0  0  0  0  0  0  0
   -3.2551   -2.5148    1.3624 C   0  0  0  0  0  0  0  0  0  0  0  0
   -1.9667   -2.4135    1.8904 C   0  0  0  0  0  0  0  0  0  0  0  0
   -1.0350   -1.5400    1.3157 C   0  0  0  0  0  0  0  0  0  0  0  0
    0.2988   -1.4298    1.7784 N   0  0  0  0  0  0  0  0  0  0  0  0
    0.4482   -1.1623    3.2247 C   0  0  0  0  0  0  0  0  0  0  0  0
    1.9424   -1.1952    3.5798 C   0  0  0  0  0  0  0  0  0  0  0  0
    2.5601   -2.4724    3.3416 O   0  0  0  0  0  0  0  0  0  0  0  0
    1.8403   -3.2982    2.4137 C   0  0  0  0  0  0  0  0  0  0  0  0
    1.1822   -2.5119    1.2689 C   0  0  0  0  0  0  0  0  0  0  0  0
    0.9920    2.7711   -2.2845 C   0  0  0  0  0  0  0  0  0  0  0  0
   -0.1207    3.5865   -2.6225 C   0  0  0  0  0  0  0  0  0  0  0  0
    0.0504    4.8851   -3.0991 C   0  0  0  0  0  0  0  0  0  0  0  0
    1.3310    5.3942   -3.2444 C   0  0  0  0  0  0  0  0  0  0  0  0
    2.4316    4.6009   -2.9097 C   0  0  0  0  0  0  0  0  0  0  0  0
    2.2882    3.3075   -2.4313 C   0  0  0  0  0  0  0  0  0  0  0  0
    3.4049    2.6351   -2.1068 N   0  0  0  0  0  0  0  0  0  0  0  0
    4.6578    0.0677    0.0347 C   0  0  0  0  0  0  0  0  0  0  0  0
    5.8569   -0.5161    0.4659 C   0  0  0  0  0  0  0  0  0  0  0  0
    9.4305   -1.8085    1.3875 H   0  0  0  0  0  0  0  0  0  0  0  0
    8.2226   -0.7005    2.0447 H   0  0  0  0  0  0  0  0  0  0  0  0
    7.7489   -2.3404    1.4602 H   0  0  0  0  0  0  0  0  0  0  0  0
    7.8121    0.3064   -2.1762 H   0  0  0  0  0  0  0  0  0  0  0  0
    5.7037    1.3436   -2.9340 H   0  0  0  0  0  0  0  0  0  0  0  0
    2.0517   -0.2910   -1.1547 H   0  0  0  0  0  0  0  0  0  0  0  0
    0.4116    0.0536    0.2609 H   0  0  0  0  0  0  0  0  0  0  0  0
   -3.0022   -0.3006   -1.2254 H   0  0  0  0  0  0  0  0  0  0  0  0
   -5.5170   -0.5728    1.9721 H   0  0  0  0  0  0  0  0  0  0  0  0
   -5.6313    1.1031    1.4286 H   0  0  0  0  0  0  0  0  0  0  0  0
   -7.6533    0.3748    2.7452 H   0  0  0  0  0  0  0  0  0  0  0  0
   -7.9929   -0.8801    1.5509 H   0  0  0  0  0  0  0  0  0  0  0  0
   -8.6966    1.4739   -1.0374 H   0  0  0  0  0  0  0  0  0  0  0  0
   -7.1703    2.1110   -0.4160 H   0  0  0  0  0  0  0  0  0  0  0  0
   -6.7955    0.1967   -1.9937 H   0  0  0  0  0  0  0  0  0  0  0  0
   -7.7744   -0.8582   -0.9356 H   0  0  0  0  0  0  0  0  0  0  0  0
   -3.9675   -3.1998    1.8165 H   0  0  0  0  0  0  0  0  0  0  0  0
   -1.6966   -3.0426    2.7349 H   0  0  0  0  0  0  0  0  0  0  0  0
    0.0354   -0.1742    3.4576 H   0  0  0  0  0  0  0  0  0  0  0  0
   -0.0755   -1.9117    3.8297 H   0  0  0  0  0  0  0  0  0  0  0  0
    2.0845   -0.9520    4.6378 H   0  0  0  0  0  0  0  0  0  0  0  0
    2.4926   -0.4510    2.9901 H   0  0  0  0  0  0  0  0  0  0  0  0
    2.5527   -4.0184    2.0044 H   0  0  0  0  0  0  0  0  0  0  0  0
    1.0913   -3.8659    2.9735 H   0  0  0  0  0  0  0  0  0  0  0  0
    1.9696   -2.0272    0.6819 H   0  0  0  0  0  0  0  0  0  0  0  0
    0.6549   -3.2034    0.6007 H   0  0  0  0  0  0  0  0  0  0  0  0
   -1.1381    3.2128   -2.5218 H   0  0  0  0  0  0  0  0  0  0  0  0
   -0.8153    5.4900   -3.3587 H   0  0  0  0  0  0  0  0  0  0  0  0
    1.4809    6.4039   -3.6115 H   0  0  0  0  0  0  0  0  0  0  0  0
    3.4339    5.0083   -3.0244 H   0  0  0  0  0  0  0  0  0  0  0  0
    3.7931    0.0120    0.6931 H   0  0  0  0  0  0  0  0  0  0  0  0
    5.8613   -1.0173    1.4283 H   0  0  0  0  0  0  0  0  0  0  0  0
  1  2  1  0
  2  3  1  0
  3  4  2  0
  4  5  1  0
  5  6  2  0
  6  7  1  0
  7  8  2  0
  8  9  1  0
  9 10  1  0
 10 11  2  0
 10 12  1  0
 12 13  1  0
 13 14  2  0
 14 15  1  0
 15 16  1  0
 16 17  2  0
 16 18  2  0
 16 19  1  0
 19 20  1  0
 20 21  1  0
 21 22  1  0
 22 23  1  0
 23 24  1  0
 15 25  2  0
 25 26  1  0
 26 27  2  0
 27 28  1  0
 28 29  1  0
 29 30  1  0
 30 31  1  0
 31 32  1  0
 32 33  1  0
  9 34  2  0
 34 35  1  0
 35 36  2  0
 36 37  1  0
 37 38  2  0
 38 39  1  0
 39 40  2  0
  6 41  1  0
 41 42  2  0
 42  3  1  0
 40  7  1  0
 27 13  1  0
 33 28  1  0
 39 34  1  0
 24 19  1  0
  1 43  1  0
  1 44  1  0
  1 45  1  0
  4 46  1  0
  5 47  1  0
  8 48  1  0
 12 49  1  0
 14 50  1  0
 20 51  1  0
 20 52  1  0
 21 53  1  0
 21 54  1  0
 23 55  1  0
 23 56  1  0
 24 57  1  0
 24 58  1  0
 25 59  1  0
 26 60  1  0
 29 61  1  0
 29 62  1  0
 30 63  1  0
 30 64  1  0
 32 65  1  0
 32 66  1  0
 33 67  1  0
 33 68  1  0
 35 69  1  0
 36 70  1  0
 37 71  1  0
 38 72  1  0
 41 73  1  0
 42 74  1  0
M  END
$$$$
