
     RDKit          3D

 37 38  0  0  0  0  0  0  0  0999 V2000
    4.8644   -0.0305   -2.0609 C   0  0  0  0  0  0  0  0  0  0  0  0
    4.8793   -1.0018   -0.8942 C   0  0  0  0  0  0  0  0  0  0  0  0
    3.7290   -0.8323   -0.0277 N   0  0  0  0  0  0  0  0  0  0  0  0
    2.5655   -1.5423   -0.0655 C   0  0  0  0  0  0  0  0  0  0  0  0
    1.7727   -1.0455    0.9500 C   0  0  0  0  0  0  0  0  0  0  0  0
    0.4053   -1.4728    1.3338 C   0  0  0  0  0  0  0  0  0  0  0  0
   -0.5349   -0.5815    0.6973 N   0  0  0  0  0  0  0  0  0  0  0  0
   -1.8686   -0.6306    1.0303 C   0  0  0  0  0  0  0  0  0  0  0  0
   -2.3209   -1.3580    1.9057 O   0  0  0  0  0  0  0  0  0  0  0  0
   -2.7805    0.2373    0.2363 C   0  0  0  0  0  0  0  0  0  0  0  0
   -2.3395    1.4373   -0.3419 C   0  0  0  0  0  0  0  0  0  0  0  0
   -3.2251    2.2336   -1.0729 C   0  0  0  0  0  0  0  0  0  0  0  0
   -4.5555    1.8418   -1.2261 C   0  0  0  0  0  0  0  0  0  0  0  0
   -4.9979    0.6494   -0.6362 C   0  0  0  0  0  0  0  0  0  0  0  0
   -6.3982    0.2389   -0.7960 N   0  0  0  0  0  4  0  0  0  0  0  0
   -7.1778    1.0484   -1.3181 O   0  0  0  0  0  0  0  0  0  0  0  0
   -6.7157   -0.8932   -0.4073 O   0  0  0  0  0  1  0  0  0  0  0  0
   -4.1181   -0.1542    0.0992 C   0  0  0  0  0  0  0  0  0  0  0  0
    2.5640   -0.0215    1.5414 C   0  0  0  0  0  0  0  0  0  0  0  0
    2.2104    0.8572    2.6845 C   0  0  0  0  0  0  0  0  0  0  0  0
    3.7489    0.1067    0.9323 N   0  0  0  0  0  0  0  0  0  0  0  0
    4.8735    1.0074   -1.7121 H   0  0  0  0  0  0  0  0  0  0  0  0
    3.9683   -0.1668   -2.6759 H   0  0  0  0  0  0  0  0  0  0  0  0
    5.7419   -0.1855   -2.6959 H   0  0  0  0  0  0  0  0  0  0  0  0
    4.8738   -2.0354   -1.2566 H   0  0  0  0  0  0  0  0  0  0  0  0
    5.7789   -0.8651   -0.2834 H   0  0  0  0  0  0  0  0  0  0  0  0
    2.4010   -2.3287   -0.7891 H   0  0  0  0  0  0  0  0  0  0  0  0
    0.2613   -1.4434    2.4192 H   0  0  0  0  0  0  0  0  0  0  0  0
    0.1954   -2.4918    0.9912 H   0  0  0  0  0  0  0  0  0  0  0  0
   -0.2581   -0.1763   -0.1863 H   0  0  0  0  0  0  0  0  0  0  0  0
   -1.3167    1.7812   -0.2070 H   0  0  0  0  0  0  0  0  0  0  0  0
   -2.8792    3.1657   -1.5154 H   0  0  0  0  0  0  0  0  0  0  0  0
   -5.2328    2.4742   -1.7977 H   0  0  0  0  0  0  0  0  0  0  0  0
   -4.4575   -1.0779    0.5664 H   0  0  0  0  0  0  0  0  0  0  0  0
    2.0467    0.2597    3.5870 H   0  0  0  0  0  0  0  0  0  0  0  0
    3.0031    1.5819    2.8970 H   0  0  0  0  0  0  0  0  0  0  0  0
    1.2937    1.4146    2.4675 H   0  0  0  0  0  0  0  0  0  0  0  0
  1  2  1  0
  2  3  1  0
  3  4  1  0
  4  5  2  0
  5  6  1  0
  6  7  1  0
  7  8  1  0
  8  9  2  0
  8 10  1  0
 10 11  2  0
 11 12  1  0
 12 13  2  0
 13 14  1  0
 14 15  1  0
 15 16  2  0
 15 17  1  0
 14 18  2  0
  5 19  1  0
 19 20  1  0
 19 21  2  0
 21  3  1  0
 18 10  1  0
  1 22  1  0
  1 23  1  0
  1 24  1  0
  2 25  1  0
  2 26  1  0
  4 27  1  0
  6 28  1  0
  6 29  1  0
  7 30  1  0
 11 31  1  0
 12 32  1  0
 13 33  1  0
 18 34  1  0
 20 35  1  0
 20 36  1  0
 20 37  1  0
M  CHG  2  15   1  17  -1
M  END
$$$$
