
     RDKit          3D

 58 59  0  0  0  0  0  0  0  0999 V2000
    9.4678   -0.5206   -2.5161 C   0  0  0  0  0  0  0  0  0  0  0  0
    8.3867   -1.4313   -1.9550 C   0  0  0  0  0  0  0  0  0  0  0  0
    8.1641   -1.1803   -0.4614 C   0  0  0  0  0  0  0  0  0  0  0  0
    7.1111   -2.1176    0.1329 C   0  0  0  0  0  0  0  0  0  0  0  0
    5.8522   -1.9947   -0.5284 O   0  0  0  0  0  0  0  0  0  0  0  0
    4.9804   -1.0249   -0.1230 C   0  0  0  0  0  0  0  0  0  0  0  0
    3.7712   -1.0082   -0.8252 C   0  0  0  0  0  0  0  0  0  0  0  0
    2.7781   -0.0698   -0.5268 C   0  0  0  0  0  0  0  0  0  0  0  0
    2.9877    0.8636    0.4928 C   0  0  0  0  0  0  0  0  0  0  0  0
    1.9712    1.8905    0.8546 C   0  0  0  0  0  0  0  0  0  0  0  0
    2.3085    2.9304    1.4089 O   0  0  0  0  0  0  0  0  0  0  0  0
    0.6599    1.5907    0.5649 N   0  0  0  0  0  0  0  0  0  0  0  0
   -0.4114    2.4826    0.9829 C   0  0  0  0  0  0  0  0  0  0  0  0
   -1.7845    2.0828    0.4569 C   0  0  0  0  0  0  0  0  0  0  0  0
   -2.8159    2.7042    0.6847 O   0  0  0  0  0  0  0  0  0  0  0  0
   -1.7288    0.9390   -0.2888 O   0  0  0  0  0  0  0  0  0  0  0  0
   -3.0096    0.4744   -0.7326 C   0  0  0  0  0  0  0  0  0  0  0  0
   -3.8146   -0.1364    0.4159 C   0  0  0  0  0  0  0  0  0  0  0  0
   -3.2509   -0.5882    1.4202 O   0  0  0  0  0  0  0  0  0  0  0  0
   -5.3105   -0.1494    0.3118 C   0  0  0  0  0  0  0  0  0  0  0  0
   -6.0736   -0.0424    1.4230 C   0  0  0  0  0  0  0  0  0  0  0  0
   -5.5150    0.0709    2.6927 N   0  0  0  0  0  0  0  0  0  0  0  0
   -7.4607   -0.0384    1.2960 N   0  0  0  0  0  0  0  0  0  0  0  0
   -8.2898    0.1160    2.4910 C   0  0  0  0  0  0  0  0  0  0  0  0
   -8.1275   -0.1321    0.0765 C   0  0  0  0  0  0  0  0  0  0  0  0
   -9.3562   -0.1846   -0.0052 O   0  0  0  0  0  0  0  0  0  0  0  0
   -7.3274   -0.1754   -1.0517 N   0  0  0  0  0  0  0  0  0  0  0  0
   -7.9889   -0.2854   -2.3395 C   0  0  0  0  0  0  0  0  0  0  0  0
   -5.9580   -0.2860   -1.0088 C   0  0  0  0  0  0  0  0  0  0  0  0
   -5.2685   -0.5135   -2.0026 O   0  0  0  0  0  0  0  0  0  0  0  0
    4.2041    0.8588    1.1859 C   0  0  0  0  0  0  0  0  0  0  0  0
    5.1944   -0.0834    0.8822 C   0  0  0  0  0  0  0  0  0  0  0  0
    9.1944    0.5327   -2.3968 H   0  0  0  0  0  0  0  0  0  0  0  0
    9.6112   -0.7155   -3.5836 H   0  0  0  0  0  0  0  0  0  0  0  0
   10.4235   -0.6875   -2.0089 H   0  0  0  0  0  0  0  0  0  0  0  0
    8.6772   -2.4758   -2.1171 H   0  0  0  0  0  0  0  0  0  0  0  0
    7.4566   -1.2626   -2.5099 H   0  0  0  0  0  0  0  0  0  0  0  0
    9.1069   -1.3187    0.0809 H   0  0  0  0  0  0  0  0  0  0  0  0
    7.8596   -0.1369   -0.3231 H   0  0  0  0  0  0  0  0  0  0  0  0
    7.0193   -1.9948    1.2180 H   0  0  0  0  0  0  0  0  0  0  0  0
    7.4379   -3.1537   -0.0169 H   0  0  0  0  0  0  0  0  0  0  0  0
    3.6061   -1.7306   -1.6218 H   0  0  0  0  0  0  0  0  0  0  0  0
    1.8678   -0.0698   -1.1182 H   0  0  0  0  0  0  0  0  0  0  0  0
    0.3973    0.6431    0.3225 H   0  0  0  0  0  0  0  0  0  0  0  0
   -0.4424    2.4710    2.0769 H   0  0  0  0  0  0  0  0  0  0  0  0
   -0.1783    3.4915    0.6285 H   0  0  0  0  0  0  0  0  0  0  0  0
   -3.5546    1.2912   -1.2183 H   0  0  0  0  0  0  0  0  0  0  0  0
   -2.8179   -0.3104   -1.4706 H   0  0  0  0  0  0  0  0  0  0  0  0
   -4.5144   -0.1676    2.7043 H   0  0  0  0  0  0  0  0  0  0  0  0
   -5.9997   -0.4925    3.3843 H   0  0  0  0  0  0  0  0  0  0  0  0
   -9.3477    0.2535    2.2510 H   0  0  0  0  0  0  0  0  0  0  0  0
   -7.9635    0.9957    3.0555 H   0  0  0  0  0  0  0  0  0  0  0  0
   -8.1965   -0.7838    3.1074 H   0  0  0  0  0  0  0  0  0  0  0  0
   -7.3304    0.0300   -3.1540 H   0  0  0  0  0  0  0  0  0  0  0  0
   -8.8930    0.3310   -2.3613 H   0  0  0  0  0  0  0  0  0  0  0  0
   -8.2710   -1.3318   -2.4935 H   0  0  0  0  0  0  0  0  0  0  0  0
    4.3866    1.5927    1.9692 H   0  0  0  0  0  0  0  0  0  0  0  0
    6.1195   -0.0419    1.4467 H   0  0  0  0  0  0  0  0  0  0  0  0
  1  2  1  0
  2  3  1  0
  3  4  1  0
  4  5  1  0
  5  6  1  0
  6  7  2  0
  7  8  1  0
  8  9  2  0
  9 10  1  0
 10 11  2  0
 10 12  1  0
 12 13  1  0
 13 14  1  0
 14 15  2  0
 14 16  1  0
 16 17  1  0
 17 18  1  0
 18 19  2  0
 18 20  1  0
 20 21  2  0
 21 22  1  0
 21 23  1  0
 23 24  1  0
 23 25  1  0
 25 26  2  0
 25 27  1  0
 27 28  1  0
 27 29  1  0
 29 30  2  0
  9 31  1  0
 31 32  2  0
 32  6  1  0
 29 20  1  0
  1 33  1  0
  1 34  1  0
  1 35  1  0
  2 36  1  0
  2 37  1  0
  3 38  1  0
  3 39  1  0
  4 40  1  0
  4 41  1  0
  7 42  1  0
  8 43  1  0
 12 44  1  0
 13 45  1  0
 13 46  1  0
 17 47  1  0
 17 48  1  0
 22 49  1  0
 22 50  1  0
 24 51  1  0
 24 52  1  0
 24 53  1  0
 28 54  1  0
 28 55  1  0
 28 56  1  0
 31 57  1  0
 32 58  1  0
M  END
$$$$
