
     RDKit          3D

 33 35  0  0  0  0  0  0  0  0999 V2000
   -1.7160   -0.3980   -0.8433 O   0  0  0  0  0  0  0  0  0  0  0  0
   -2.3377    0.1951    0.0344 C   0  0  0  0  0  0  0  0  0  0  0  0
   -1.7459    0.6889    1.1905 N   0  0  0  0  0  0  0  0  0  0  0  0
   -0.3998    0.7181    1.5397 C   0  0  0  0  0  0  0  0  0  0  0  0
   -0.0735    1.3599    3.0448 S   0  0  0  0  0  0  0  0  0  0  0  0
    0.4476    0.2066    0.5859 N   0  0  0  0  0  0  0  0  0  0  0  0
    1.8518    0.0797    0.4823 C   0  0  0  0  0  0  0  0  0  0  0  0
    2.7904    0.6058    1.3982 C   0  0  0  0  0  0  0  0  0  0  0  0
    4.1748    0.4390    1.2208 C   0  0  0  0  0  0  0  0  0  0  0  0
    4.5804   -0.2559    0.1110 C   0  0  0  0  0  0  0  0  0  0  0  0
    5.8601   -0.5752   -0.3263 N   0  0  0  0  0  0  0  0  0  0  0  0
    5.7583   -1.2983   -1.5238 C   0  0  0  0  0  0  0  0  0  0  0  0
    6.6782   -1.7403   -2.1880 O   0  0  0  0  0  0  0  0  0  0  0  0
    4.3892   -1.4128   -1.8073 N   0  0  0  0  0  0  0  0  0  0  0  0
    3.6711   -0.7726   -0.8028 C   0  0  0  0  0  0  0  0  0  0  0  0
    2.3122   -0.6215   -0.6495 C   0  0  0  0  0  0  0  0  0  0  0  0
   -3.8019    0.3644   -0.0929 C   0  0  0  0  0  0  0  0  0  0  0  0
   -4.4759    1.4549    0.4443 C   0  0  0  0  0  0  0  0  0  0  0  0
   -5.8151    1.6347    0.3453 N   0  0  0  0  0  0  0  0  0  0  0  0
   -6.5074    0.6939   -0.3426 C   0  0  0  0  0  0  0  0  0  0  0  0
   -5.9166   -0.4131   -0.9331 C   0  0  0  0  0  0  0  0  0  0  0  0
   -6.9544   -1.6687   -1.8810 Br  0  0  0  0  0  0  0  0  0  0  0  0
   -4.5411   -0.5805   -0.8105 C   0  0  0  0  0  0  0  0  0  0  0  0
   -2.3368    1.0506    1.9278 H   0  0  0  0  0  0  0  0  0  0  0  0
   -0.0586   -0.1976   -0.2052 H   0  0  0  0  0  0  0  0  0  0  0  0
    2.4850    1.1717    2.2689 H   0  0  0  0  0  0  0  0  0  0  0  0
    4.8813    0.8488    1.9325 H   0  0  0  0  0  0  0  0  0  0  0  0
    6.7340   -0.3429    0.1158 H   0  0  0  0  0  0  0  0  0  0  0  0
    4.0228   -1.8881   -2.6155 H   0  0  0  0  0  0  0  0  0  0  0  0
    1.6286   -1.0373   -1.3812 H   0  0  0  0  0  0  0  0  0  0  0  0
   -3.9625    2.2563    0.9681 H   0  0  0  0  0  0  0  0  0  0  0  0
   -7.5781    0.8697   -0.4067 H   0  0  0  0  0  0  0  0  0  0  0  0
   -4.0446   -1.4352   -1.2644 H   0  0  0  0  0  0  0  0  0  0  0  0
  1  2  2  0
  2  3  1  0
  3  4  1  0
  4  5  2  0
  4  6  1  0
  6  7  1  0
  7  8  2  0
  8  9  1  0
  9 10  2  0
 10 11  1  0
 11 12  1  0
 12 13  2  0
 12 14  1  0
 14 15  1  0
 15 16  2  0
  2 17  1  0
 17 18  2  0
 18 19  1  0
 19 20  2  0
 20 21  1  0
 21 22  1  0
 21 23  2  0
 16  7  1  0
 23 17  1  0
 15 10  1  0
  3 24  1  0
  6 25  1  0
  8 26  1  0
  9 27  1  0
 11 28  1  0
 14 29  1  0
 16 30  1  0
 18 31  1  0
 20 32  1  0
 23 33  1  0
M  END
$$$$
