
     RDKit          3D

 44 47  0  0  0  0  0  0  0  0999 V2000
   -2.8850   -1.5826   -1.2679 O   0  0  0  0  0  0  0  0  0  0  0  0
   -2.9590   -0.9548   -0.2219 C   0  0  0  0  0  0  0  0  0  0  0  0
   -2.4971   -1.3404    1.0222 O   0  0  0  0  0  0  0  0  0  0  0  0
   -1.7583   -2.5283    0.9765 C   0  0  0  0  0  0  0  0  0  0  0  0
   -2.4280   -3.7278    1.2230 C   0  0  0  0  0  0  0  0  0  0  0  0
   -1.7140   -4.9239    1.2005 C   0  0  0  0  0  0  0  0  0  0  0  0
   -0.3421   -4.9134    0.9422 C   0  0  0  0  0  0  0  0  0  0  0  0
    0.3253   -3.7052    0.7143 C   0  0  0  0  0  0  0  0  0  0  0  0
   -0.3737   -2.4933    0.7443 C   0  0  0  0  0  0  0  0  0  0  0  0
    0.3606   -1.2435    0.5132 C   0  0  0  0  0  0  0  0  0  0  0  0
    0.4100   -0.2796    1.4445 C   0  0  0  0  0  0  0  0  0  0  0  0
    1.0540    1.0539    1.2653 C   0  0  0  0  0  0  0  0  0  0  0  0
    0.5139    1.9958    1.8493 O   0  0  0  0  0  0  0  0  0  0  0  0
    2.2547    1.1904    0.4646 C   0  0  0  0  0  0  0  0  0  0  0  0
    3.2162    0.2937    0.0268 C   0  0  0  0  0  0  0  0  0  0  0  0
    4.1736    1.0327   -0.7171 C   0  0  0  0  0  0  0  0  0  0  0  0
    5.3580    0.7330   -1.4125 C   0  0  0  0  0  0  0  0  0  0  0  0
    6.0517    1.7786   -2.0396 C   0  0  0  0  0  0  0  0  0  0  0  0
    5.5831    3.0940   -1.9770 C   0  0  0  0  0  0  0  0  0  0  0  0
    4.4083    3.4109   -1.2872 C   0  0  0  0  0  0  0  0  0  0  0  0
    3.7427    2.3510   -0.6768 C   0  0  0  0  0  0  0  0  0  0  0  0
    2.5928    2.4502    0.0402 O   0  0  0  0  0  0  0  0  0  0  0  0
   -3.6172    0.3743   -0.1166 C   0  0  0  0  0  0  0  0  0  0  0  0
   -4.4798    0.7674   -1.1490 C   0  0  0  0  0  0  0  0  0  0  0  0
   -5.1100    2.0123   -1.1032 C   0  0  0  0  0  0  0  0  0  0  0  0
   -4.8754    2.8727   -0.0316 C   0  0  0  0  0  0  0  0  0  0  0  0
   -4.0101    2.4926    0.9940 C   0  0  0  0  0  0  0  0  0  0  0  0
   -3.3801    1.2465    0.9546 C   0  0  0  0  0  0  0  0  0  0  0  0
   -3.4964   -3.7315    1.4165 H   0  0  0  0  0  0  0  0  0  0  0  0
   -2.2268   -5.8659    1.3780 H   0  0  0  0  0  0  0  0  0  0  0  0
    0.2106   -5.8497    0.9189 H   0  0  0  0  0  0  0  0  0  0  0  0
    1.3953   -3.7221    0.5209 H   0  0  0  0  0  0  0  0  0  0  0  0
    0.8210   -1.1457   -0.4654 H   0  0  0  0  0  0  0  0  0  0  0  0
   -0.1181   -0.3807    2.3887 H   0  0  0  0  0  0  0  0  0  0  0  0
    3.2400   -0.7680    0.2266 H   0  0  0  0  0  0  0  0  0  0  0  0
    5.7330   -0.2845   -1.4670 H   0  0  0  0  0  0  0  0  0  0  0  0
    6.9695    1.5616   -2.5824 H   0  0  0  0  0  0  0  0  0  0  0  0
    6.1407    3.8868   -2.4716 H   0  0  0  0  0  0  0  0  0  0  0  0
    4.0304    4.4241   -1.2255 H   0  0  0  0  0  0  0  0  0  0  0  0
   -4.6622    0.1057   -1.9939 H   0  0  0  0  0  0  0  0  0  0  0  0
   -5.7785    2.3128   -1.9063 H   0  0  0  0  0  0  0  0  0  0  0  0
   -5.3608    3.8452    0.0010 H   0  0  0  0  0  0  0  0  0  0  0  0
   -3.8166    3.1712    1.8218 H   0  0  0  0  0  0  0  0  0  0  0  0
   -2.6961    0.9836    1.7578 H   0  0  0  0  0  0  0  0  0  0  0  0
  1  2  2  0
  2  3  1  0
  3  4  1  0
  4  5  2  0
  5  6  1  0
  6  7  2  0
  7  8  1  0
  8  9  2  0
  9 10  1  0
 10 11  2  3
 11 12  1  0
 12 13  2  0
 12 14  1  0
 14 15  2  0
 15 16  1  0
 16 17  2  0
 17 18  1  0
 18 19  2  0
 19 20  1  0
 20 21  2  0
 21 22  1  0
  2 23  1  0
 23 24  2  0
 24 25  1  0
 25 26  2  0
 26 27  1  0
 27 28  2  0
  9  4  1  0
 22 14  1  0
 28 23  1  0
 21 16  1  0
  5 29  1  0
  6 30  1  0
  7 31  1  0
  8 32  1  0
 10 33  1  0
 11 34  1  0
 15 35  1  0
 17 36  1  0
 18 37  1  0
 19 38  1  0
 20 39  1  0
 24 40  1  0
 25 41  1  0
 26 42  1  0
 27 43  1  0
 28 44  1  0
M  END
$$$$
