
     RDKit          3D

 56 60  0  0  0  0  0  0  0  0999 V2000
   -5.7649   -0.6440    0.0655 C   0  0  0  0  0  0  0  0  0  0  0  0
   -4.3393   -0.2001    0.2389 C   0  0  0  0  0  0  0  0  0  0  0  0
   -3.9936    0.5164    1.3949 C   0  0  0  0  0  0  0  0  0  0  0  0
   -2.6856    0.9674    1.6030 C   0  0  0  0  0  0  0  0  0  0  0  0
   -1.6829    0.7401    0.6519 C   0  0  0  0  0  0  0  0  0  0  0  0
   -0.3008    1.2056    0.8524 C   0  0  0  0  0  0  0  0  0  0  0  0
    0.6044    0.2028    0.8672 N   0  0  0  0  0  0  0  0  0  0  0  0
    1.9329    0.4715    1.0407 N   0  0  0  0  0  0  0  0  0  0  0  0
    2.3741    1.7364    1.1971 C   0  0  0  0  0  0  0  0  0  0  0  0
    3.7573    1.9842    1.4080 N   0  0  0  0  0  0  0  0  0  0  0  0
    4.8450    1.1103    1.1726 C   0  0  0  0  0  0  0  0  0  0  0  0
    6.0621    1.3363    1.8622 C   0  0  0  0  0  0  0  0  0  0  0  0
    7.2026    0.5618    1.6139 C   0  0  0  0  0  0  0  0  0  0  0  0
    7.1124   -0.4148    0.6494 C   0  0  0  0  0  0  0  0  0  0  0  0
    5.9474   -0.6324   -0.0448 C   0  0  0  0  0  0  0  0  0  0  0  0
    4.8080    0.1170    0.1849 C   0  0  0  0  0  0  0  0  0  0  0  0
    6.0714   -1.6236   -0.9664 O   0  0  0  0  0  0  0  0  0  0  0  0
    7.4578   -1.9834   -0.7918 C   0  0  0  0  0  0  0  0  0  0  0  0
    8.1179   -1.2351    0.2511 O   0  0  0  0  0  0  0  0  0  0  0  0
    1.4675    2.8227    1.1690 C   0  0  0  0  0  0  0  0  0  0  0  0
    1.8794    4.1751    1.2867 C   0  0  0  0  0  0  0  0  0  0  0  0
    0.9672    5.2314    1.2454 C   0  0  0  0  0  0  0  0  0  0  0  0
   -0.3821    4.9667    1.0750 C   0  0  0  0  0  0  0  0  0  0  0  0
   -0.8142    3.6461    0.9398 C   0  0  0  0  0  0  0  0  0  0  0  0
    0.0887    2.5521    0.9918 C   0  0  0  0  0  0  0  0  0  0  0  0
   -2.0210    0.0104   -0.4994 C   0  0  0  0  0  0  0  0  0  0  0  0
   -3.3280   -0.4605   -0.7047 C   0  0  0  0  0  0  0  0  0  0  0  0
   -3.6394   -1.3989   -2.1870 S   0  0  0  0  0  6  0  0  0  0  0  0
   -2.4047   -1.5288   -2.9305 O   0  0  0  0  0  0  0  0  0  0  0  0
   -4.8481   -0.9066   -2.8077 O   0  0  0  0  0  0  0  0  0  0  0  0
   -3.9281   -2.9535   -1.5528 N   0  0  0  0  0  0  0  0  0  0  0  0
   -4.6266   -3.8559   -2.5182 C   0  0  0  0  0  0  0  0  0  0  0  0
   -4.8856   -5.1949   -1.8264 C   0  0  0  0  0  0  0  0  0  0  0  0
   -5.6939   -5.0033   -0.6693 O   0  0  0  0  0  0  0  0  0  0  0  0
   -5.8251   -1.7275   -0.0693 H   0  0  0  0  0  0  0  0  0  0  0  0
   -6.2221   -0.1368   -0.7897 H   0  0  0  0  0  0  0  0  0  0  0  0
   -6.3698   -0.4038    0.9478 H   0  0  0  0  0  0  0  0  0  0  0  0
   -4.7420    0.7276    2.1536 H   0  0  0  0  0  0  0  0  0  0  0  0
   -2.4538    1.4979    2.5252 H   0  0  0  0  0  0  0  0  0  0  0  0
    3.8717    2.5078    2.2706 H   0  0  0  0  0  0  0  0  0  0  0  0
    6.1305    2.1313    2.6008 H   0  0  0  0  0  0  0  0  0  0  0  0
    8.1306    0.7372    2.1457 H   0  0  0  0  0  0  0  0  0  0  0  0
    3.9201   -0.0667   -0.4112 H   0  0  0  0  0  0  0  0  0  0  0  0
    7.9855   -1.8050   -1.7376 H   0  0  0  0  0  0  0  0  0  0  0  0
    7.5192   -3.0532   -0.5522 H   0  0  0  0  0  0  0  0  0  0  0  0
    2.9340    4.4238    1.3888 H   0  0  0  0  0  0  0  0  0  0  0  0
    1.3156    6.2583    1.3339 H   0  0  0  0  0  0  0  0  0  0  0  0
   -1.1014    5.7850    1.0340 H   0  0  0  0  0  0  0  0  0  0  0  0
   -1.8772    3.4808    0.7785 H   0  0  0  0  0  0  0  0  0  0  0  0
   -1.2438   -0.1935   -1.2375 H   0  0  0  0  0  0  0  0  0  0  0  0
   -3.0084   -3.3415   -1.3154 H   0  0  0  0  0  0  0  0  0  0  0  0
   -5.5857   -3.4066   -2.7976 H   0  0  0  0  0  0  0  0  0  0  0  0
   -4.0076   -4.0105   -3.4084 H   0  0  0  0  0  0  0  0  0  0  0  0
   -5.4025   -5.8845   -2.4982 H   0  0  0  0  0  0  0  0  0  0  0  0
   -3.9475   -5.6620   -1.5067 H   0  0  0  0  0  0  0  0  0  0  0  0
   -5.3776   -4.1766   -0.2566 H   0  0  0  0  0  0  0  0  0  0  0  0
  1  2  1  0
  2  3  2  0
  3  4  1  0
  4  5  2  0
  5  6  1  0
  6  7  2  0
  7  8  1  0
  8  9  2  0
  9 10  1  0
 10 11  1  0
 11 12  2  0
 12 13  1  0
 13 14  2  0
 14 15  1  0
 15 16  2  0
 15 17  1  0
 17 18  1  0
 18 19  1  0
  9 20  1  0
 20 21  2  0
 21 22  1  0
 22 23  2  0
 23 24  1  0
 24 25  2  0
  5 26  1  0
 26 27  2  0
 27 28  1  0
 28 29  2  0
 28 30  2  0
 28 31  1  0
 31 32  1  0
 32 33  1  0
 33 34  1  0
 27  2  1  0
 25  6  1  0
 16 11  1  0
 25 20  1  0
 19 14  1  0
  1 35  1  0
  1 36  1  0
  1 37  1  0
  3 38  1  0
  4 39  1  0
 10 40  1  0
 12 41  1  0
 13 42  1  0
 16 43  1  0
 18 44  1  0
 18 45  1  0
 21 46  1  0
 22 47  1  0
 23 48  1  0
 24 49  1  0
 26 50  1  0
 31 51  1  0
 32 52  1  0
 32 53  1  0
 33 54  1  0
 33 55  1  0
 34 56  1  0
M  END
$$$$
