
     RDKit          3D

 57 60  0  0  0  0  0  0  0  0999 V2000
   -0.3373    2.4619    4.3998 C   0  0  0  0  0  0  0  0  0  0  0  0
   -0.8832    1.6862    3.3402 O   0  0  0  0  0  0  0  0  0  0  0  0
   -0.0213    0.9299    2.5983 C   0  0  0  0  0  0  0  0  0  0  0  0
    1.2813    0.6148    3.0002 C   0  0  0  0  0  0  0  0  0  0  0  0
    2.1028   -0.1849    2.1965 C   0  0  0  0  0  0  0  0  0  0  0  0
    1.6386   -0.6802    0.9739 C   0  0  0  0  0  0  0  0  0  0  0  0
    2.5521   -1.5286    0.1593 C   0  0  0  0  0  0  0  0  0  0  0  0
    3.4518   -2.1540    0.7084 O   0  0  0  0  0  0  0  0  0  0  0  0
    2.3354   -1.5316   -1.2013 N   0  0  0  0  0  0  0  0  0  0  0  0
    3.2424   -2.2020   -2.1062 C   0  0  0  0  0  0  0  0  0  0  0  0
    4.1925   -1.2141   -2.7349 C   0  0  0  0  0  0  0  0  0  0  0  0
    3.9195   -0.6685   -4.0109 C   0  0  0  0  0  0  0  0  0  0  0  0
    4.7816    0.2670   -4.5923 C   0  0  0  0  0  0  0  0  0  0  0  0
    5.8980    0.6415   -3.8771 C   0  0  0  0  0  0  0  0  0  0  0  0
    6.1686    0.1238   -2.6328 C   0  0  0  0  0  0  0  0  0  0  0  0
    5.3384   -0.7999   -2.0343 C   0  0  0  0  0  0  0  0  0  0  0  0
    7.3126    0.6287   -2.0986 O   0  0  0  0  0  0  0  0  0  0  0  0
    7.7333    1.5197   -3.1517 C   0  0  0  0  0  0  0  0  0  0  0  0
    6.8386    1.5356   -4.2835 O   0  0  0  0  0  0  0  0  0  0  0  0
    0.3334   -0.3923    0.5708 C   0  0  0  0  0  0  0  0  0  0  0  0
   -0.4876    0.4084    1.3830 C   0  0  0  0  0  0  0  0  0  0  0  0
   -2.1364    0.7690    0.8132 S   0  0  0  0  0  6  0  0  0  0  0  0
   -2.3396    0.0150   -0.4091 O   0  0  0  0  0  0  0  0  0  0  0  0
   -2.2906    2.2083    0.8115 O   0  0  0  0  0  0  0  0  0  0  0  0
   -3.1261    0.0826    2.0047 N   0  0  0  0  0  0  0  0  0  0  0  0
   -3.1089   -1.3847    2.1157 C   0  0  0  0  0  0  0  0  0  0  0  0
   -4.4588    0.7008    2.1782 C   0  0  0  0  0  0  0  0  0  0  0  0
   -5.5235    0.2657    1.1986 C   0  0  0  0  0  0  0  0  0  0  0  0
   -6.4349   -0.7469    1.5362 C   0  0  0  0  0  0  0  0  0  0  0  0
   -7.4137   -1.1536    0.6276 C   0  0  0  0  0  0  0  0  0  0  0  0
   -7.4919   -0.5546   -0.6278 C   0  0  0  0  0  0  0  0  0  0  0  0
   -6.5931    0.4515   -0.9752 C   0  0  0  0  0  0  0  0  0  0  0  0
   -5.6148    0.8607   -0.0675 C   0  0  0  0  0  0  0  0  0  0  0  0
    0.4829    3.0975    4.0494 H   0  0  0  0  0  0  0  0  0  0  0  0
   -1.1291    3.1166    4.7763 H   0  0  0  0  0  0  0  0  0  0  0  0
   -0.0157    1.8201    5.2262 H   0  0  0  0  0  0  0  0  0  0  0  0
    1.6901    0.9661    3.9430 H   0  0  0  0  0  0  0  0  0  0  0  0
    3.1128   -0.4201    2.5302 H   0  0  0  0  0  0  0  0  0  0  0  0
    1.7296   -0.8327   -1.6076 H   0  0  0  0  0  0  0  0  0  0  0  0
    3.7999   -2.9920   -1.5908 H   0  0  0  0  0  0  0  0  0  0  0  0
    2.6320   -2.6860   -2.8766 H   0  0  0  0  0  0  0  0  0  0  0  0
    3.0294   -0.9748   -4.5573 H   0  0  0  0  0  0  0  0  0  0  0  0
    4.5800    0.6867   -5.5713 H   0  0  0  0  0  0  0  0  0  0  0  0
    5.5660   -1.1895   -1.0462 H   0  0  0  0  0  0  0  0  0  0  0  0
    7.8015    2.5353   -2.7451 H   0  0  0  0  0  0  0  0  0  0  0  0
    8.7275    1.2117   -3.4954 H   0  0  0  0  0  0  0  0  0  0  0  0
   -0.0600   -0.8026   -0.3555 H   0  0  0  0  0  0  0  0  0  0  0  0
   -3.5300   -1.8587    1.2247 H   0  0  0  0  0  0  0  0  0  0  0  0
   -3.6879   -1.7036    2.9885 H   0  0  0  0  0  0  0  0  0  0  0  0
   -2.0888   -1.7489    2.2653 H   0  0  0  0  0  0  0  0  0  0  0  0
   -4.3776    1.7946    2.1671 H   0  0  0  0  0  0  0  0  0  0  0  0
   -4.7976    0.4780    3.1994 H   0  0  0  0  0  0  0  0  0  0  0  0
   -6.3887   -1.2261    2.5114 H   0  0  0  0  0  0  0  0  0  0  0  0
   -8.1149   -1.9386    0.8983 H   0  0  0  0  0  0  0  0  0  0  0  0
   -8.2517   -0.8722   -1.3368 H   0  0  0  0  0  0  0  0  0  0  0  0
   -6.6491    0.9176   -1.9556 H   0  0  0  0  0  0  0  0  0  0  0  0
   -4.9201    1.6467   -0.3587 H   0  0  0  0  0  0  0  0  0  0  0  0
  1  2  1  0
  2  3  1  0
  3  4  2  0
  4  5  1  0
  5  6  2  0
  6  7  1  0
  7  8  2  0
  7  9  1  0
  9 10  1  0
 10 11  1  0
 11 12  2  0
 12 13  1  0
 13 14  2  0
 14 15  1  0
 15 16  2  0
 15 17  1  0
 17 18  1  0
 18 19  1  0
  6 20  1  0
 20 21  2  0
 21 22  1  0
 22 23  2  0
 22 24  2  0
 22 25  1  0
 25 26  1  0
 25 27  1  0
 27 28  1  0
 28 29  2  0
 29 30  1  0
 30 31  2  0
 31 32  1  0
 32 33  2  0
 21  3  1  0
 33 28  1  0
 16 11  1  0
 19 14  1  0
  1 34  1  0
  1 35  1  0
  1 36  1  0
  4 37  1  0
  5 38  1  0
  9 39  1  0
 10 40  1  0
 10 41  1  0
 12 42  1  0
 13 43  1  0
 16 44  1  0
 18 45  1  0
 18 46  1  0
 20 47  1  0
 26 48  1  0
 26 49  1  0
 26 50  1  0
 27 51  1  0
 27 52  1  0
 29 53  1  0
 30 54  1  0
 31 55  1  0
 32 56  1  0
 33 57  1  0
M  END
$$$$
