
     RDKit          3D

 50 53  0  0  0  0  0  0  0  0999 V2000
   -1.7728    1.7278    5.2739 C   0  0  0  0  0  0  0  0  0  0  0  0
   -1.1699    0.9496    4.1143 C   0  0  0  0  0  0  0  0  0  0  0  0
   -1.5118    1.5601    2.7626 C   0  0  0  0  0  0  0  0  0  0  0  0
   -2.2412    2.5517    2.6903 O   0  0  0  0  0  0  0  0  0  0  0  0
   -0.9915    0.9445    1.6250 N   0  0  0  0  0  0  0  0  0  0  0  0
   -1.3793    1.4969    0.3204 C   0  0  0  0  0  0  0  0  0  0  0  0
   -2.3426    0.6122   -0.4389 C   0  0  0  0  0  0  0  0  0  0  0  0
   -2.0290    0.1550   -1.7258 C   0  0  0  0  0  0  0  0  0  0  0  0
   -2.9204   -0.6604   -2.4277 C   0  0  0  0  0  0  0  0  0  0  0  0
   -4.1416   -1.0336   -1.8561 C   0  0  0  0  0  0  0  0  0  0  0  0
   -5.1154   -1.8767   -2.6247 C   0  0  0  0  0  0  0  0  0  0  0  0
   -4.4714   -0.5525   -0.5847 C   0  0  0  0  0  0  0  0  0  0  0  0
   -3.5805    0.2624    0.1173 C   0  0  0  0  0  0  0  0  0  0  0  0
   -0.2279   -0.3124    1.6498 C   0  0  0  0  0  0  0  0  0  0  0  0
    1.0712   -0.2012    0.9056 C   0  0  0  0  0  0  0  0  0  0  0  0
    1.2847   -0.7762   -0.2922 C   0  0  0  0  0  0  0  0  0  0  0  0
    2.5683   -0.6397   -0.9792 C   0  0  0  0  0  0  0  0  0  0  0  0
    2.7825   -1.2143   -2.2366 C   0  0  0  0  0  0  0  0  0  0  0  0
    4.0203   -1.0326   -2.8184 C   0  0  0  0  0  0  0  0  0  0  0  0
    5.0197   -0.3163   -2.1995 C   0  0  0  0  0  0  0  0  0  0  0  0
    4.8437    0.2624   -0.9609 C   0  0  0  0  0  0  0  0  0  0  0  0
    3.5991    0.0934   -0.3518 C   0  0  0  0  0  0  0  0  0  0  0  0
    3.3622    0.6512    0.9092 N   0  0  0  0  0  0  0  0  0  0  0  0
    2.1797    0.5304    1.5893 C   0  0  0  0  0  0  0  0  0  0  0  0
    2.0507    0.9962    2.7168 O   0  0  0  0  0  0  0  0  0  0  0  0
    6.1553   -0.2614   -2.9458 O   0  0  0  0  0  0  0  0  0  0  0  0
    5.7584   -1.0229   -4.1057 C   0  0  0  0  0  0  0  0  0  0  0  0
    4.4039   -1.5154   -4.0306 O   0  0  0  0  0  0  0  0  0  0  0  0
   -1.4089    2.7607    5.2858 H   0  0  0  0  0  0  0  0  0  0  0  0
   -1.5048    1.2599    6.2263 H   0  0  0  0  0  0  0  0  0  0  0  0
   -2.8653    1.7567    5.2032 H   0  0  0  0  0  0  0  0  0  0  0  0
   -0.0835    0.9333    4.2366 H   0  0  0  0  0  0  0  0  0  0  0  0
   -1.5562   -0.0747    4.1453 H   0  0  0  0  0  0  0  0  0  0  0  0
   -1.8408    2.4852    0.4272 H   0  0  0  0  0  0  0  0  0  0  0  0
   -0.4651    1.6649   -0.2599 H   0  0  0  0  0  0  0  0  0  0  0  0
   -1.0900    0.4371   -2.1971 H   0  0  0  0  0  0  0  0  0  0  0  0
   -2.6587   -0.9969   -3.4284 H   0  0  0  0  0  0  0  0  0  0  0  0
   -5.7743   -1.2381   -3.2207 H   0  0  0  0  0  0  0  0  0  0  0  0
   -5.7270   -2.4826   -1.9476 H   0  0  0  0  0  0  0  0  0  0  0  0
   -4.5909   -2.5675   -3.2932 H   0  0  0  0  0  0  0  0  0  0  0  0
   -5.4286   -0.8029   -0.1324 H   0  0  0  0  0  0  0  0  0  0  0  0
   -3.8611    0.6349    1.1013 H   0  0  0  0  0  0  0  0  0  0  0  0
   -0.8669   -1.0883    1.2107 H   0  0  0  0  0  0  0  0  0  0  0  0
   -0.0262   -0.6513    2.6683 H   0  0  0  0  0  0  0  0  0  0  0  0
    0.5026   -1.3438   -0.7869 H   0  0  0  0  0  0  0  0  0  0  0  0
    2.0149   -1.7837   -2.7482 H   0  0  0  0  0  0  0  0  0  0  0  0
    5.6460    0.8207   -0.4942 H   0  0  0  0  0  0  0  0  0  0  0  0
    4.0928    1.1606    1.3887 H   0  0  0  0  0  0  0  0  0  0  0  0
    6.4367   -1.8771   -4.2133 H   0  0  0  0  0  0  0  0  0  0  0  0
    5.8510   -0.3852   -4.9924 H   0  0  0  0  0  0  0  0  0  0  0  0
  1  2  1  0
  2  3  1  0
  3  4  2  0
  3  5  1  0
  5  6  1  0
  6  7  1  0
  7  8  2  0
  8  9  1  0
  9 10  2  0
 10 11  1  0
 10 12  1  0
 12 13  2  0
  5 14  1  0
 14 15  1  0
 15 16  2  0
 16 17  1  0
 17 18  2  0
 18 19  1  0
 19 20  2  0
 20 21  1  0
 21 22  2  0
 22 23  1  0
 23 24  1  0
 24 25  2  0
 20 26  1  0
 26 27  1  0
 27 28  1  0
 13  7  1  0
 24 15  1  0
 22 17  1  0
 28 19  1  0
  1 29  1  0
  1 30  1  0
  1 31  1  0
  2 32  1  0
  2 33  1  0
  6 34  1  0
  6 35  1  0
  8 36  1  0
  9 37  1  0
 11 38  1  0
 11 39  1  0
 11 40  1  0
 12 41  1  0
 13 42  1  0
 14 43  1  0
 14 44  1  0
 16 45  1  0
 18 46  1  0
 21 47  1  0
 23 48  1  0
 27 49  1  0
 27 50  1  0
M  END
$$$$
