
     RDKit          3D

100102  0  0  0  0  0  0  0  0999 V2000
    2.2688    0.5257    1.5772 C   0  0  0  0  0  0  0  0  0  0  0  0
    1.5389    0.5420    0.4402 C   0  0  0  0  0  0  0  0  0  0  0  0
    1.7735   -0.4216   -0.7302 C   0  0  1  0  0  0  0  0  0  0  0  0
    2.8481    0.2125   -1.4730 O   0  0  0  0  0  0  0  0  0  0  0  0
    2.7106    0.2702   -2.8246 C   0  0  0  0  0  0  0  0  0  0  0  0
    1.8507   -0.3009   -3.4786 O   0  0  0  0  0  0  0  0  0  0  0  0
    3.8045    1.1223   -3.4225 C   0  0  0  0  0  0  0  0  0  0  0  0
    5.0443    0.3000   -3.7882 C   0  0  0  0  0  0  0  0  0  0  0  0
    6.2435    1.2246   -4.0035 C   0  0  0  0  0  0  0  0  0  0  0  0
    4.8087   -0.5408   -5.0450 C   0  0  0  0  0  0  0  0  0  0  0  0
    2.1719   -1.8732   -0.3463 C   0  0  0  0  0  0  0  0  0  0  0  0
    2.8243   -2.5533   -1.4511 O   0  0  0  0  0  0  0  0  0  0  0  0
    4.1746   -2.6536   -1.3871 C   0  0  0  0  0  0  0  0  0  0  0  0
    4.6974   -3.4190   -2.5644 C   0  0  0  0  0  0  0  0  0  0  0  0
    4.8761   -2.2242   -0.4821 O   0  0  0  0  0  0  0  0  0  0  0  0
    0.9412   -2.7494   -0.0798 C   0  0  0  0  0  0  0  0  0  0  0  0
    0.1408   -2.9999   -0.9913 O   0  0  0  0  0  0  0  0  0  0  0  0
    0.7000   -3.3181    1.3504 C   0  0  0  0  0  0  0  0  0  0  0  0
   -0.1277   -4.6184    1.2168 C   0  0  0  0  0  0  0  0  0  0  0  0
    2.0011   -3.7043    2.0739 C   0  0  0  0  0  0  0  0  0  0  0  0
   -0.0233   -2.2299    2.1271 C   0  0  0  0  0  0  0  0  0  0  0  0
   -1.3546   -2.0726    2.2285 C   0  0  0  0  0  0  0  0  0  0  0  0
   -2.0104   -0.8561    2.8453 C   0  0  2  0  0  0  0  0  0  0  0  0
   -2.9802   -1.3211    3.9391 C   0  0  0  0  0  0  0  0  0  0  0  0
   -2.7364    0.0353    1.7875 C   0  0  2  0  0  0  0  0  0  0  0  0
   -3.7637   -0.7779    1.1493 O   0  0  0  0  0  0  0  0  0  0  0  0
   -5.0554   -0.4241    1.3635 C   0  0  0  0  0  0  0  0  0  0  0  0
   -5.4355    0.5487    1.9962 O   0  0  0  0  0  0  0  0  0  0  0  0
   -5.9787   -1.3937    0.7158 C   0  0  0  0  0  0  0  0  0  0  0  0
   -5.5216   -2.5223    0.0204 C   0  0  0  0  0  0  0  0  0  0  0  0
   -6.4359   -3.4033   -0.5632 C   0  0  0  0  0  0  0  0  0  0  0  0
   -7.8068   -3.1656   -0.4538 C   0  0  0  0  0  0  0  0  0  0  0  0
   -8.2679   -2.0483    0.2406 C   0  0  0  0  0  0  0  0  0  0  0  0
   -7.3574   -1.1636    0.8236 C   0  0  0  0  0  0  0  0  0  0  0  0
   -1.8288    0.6323    0.6516 C   0  0  1  0  0  0  0  0  0  0  0  0
   -1.2881   -0.4168   -0.1409 O   0  0  0  0  0  0  0  0  0  0  0  0
   -2.6249    1.5492   -0.3070 C   0  0  0  0  0  0  0  0  0  0  0  0
   -2.5048    2.9785    0.2444 C   0  0  2  0  0  0  0  0  0  0  0  0
   -2.1281    3.9772   -0.8448 C   0  0  0  0  0  0  0  0  0  0  0  0
   -1.5111    2.8759    1.4156 C   0  0  2  0  0  0  0  0  0  0  0  0
   -0.7630    4.0735    1.6136 O   0  0  0  0  0  0  0  0  0  0  0  0
   -0.1561    4.1832    2.8293 C   0  0  0  0  0  0  0  0  0  0  0  0
    0.5657    5.4920    2.9368 C   0  0  0  0  0  0  0  0  0  0  0  0
   -0.1662    3.3289    3.7054 O   0  0  0  0  0  0  0  0  0  0  0  0
   -0.7064    1.5787    1.1631 C   0  0  2  0  0  0  0  0  0  0  0  0
    0.5154    1.6645    0.1907 C   0  0  1  0  0  0  0  0  0  0  0  0
    1.2328    2.9027    0.3982 O   0  0  0  0  0  0  0  0  0  0  0  0
    1.7675    3.4952   -0.7031 C   0  0  0  0  0  0  0  0  0  0  0  0
    2.5028    4.7384   -0.3048 C   0  0  0  0  0  0  0  0  0  0  0  0
    1.6562    3.1103   -1.8581 O   0  0  0  0  0  0  0  0  0  0  0  0
    3.0719   -0.1803    1.7587 H   0  0  0  0  0  0  0  0  0  0  0  0
    2.1078    1.2672    2.3565 H   0  0  0  0  0  0  0  0  0  0  0  0
    0.8695   -0.4555   -1.3474 H   0  0  0  0  0  0  0  0  0  0  0  0
    3.3952    1.6469   -4.2939 H   0  0  0  0  0  0  0  0  0  0  0  0
    4.0595    1.9038   -2.6949 H   0  0  0  0  0  0  0  0  0  0  0  0
    5.2881   -0.3774   -2.9606 H   0  0  0  0  0  0  0  0  0  0  0  0
    7.1411    0.6467   -4.2490 H   0  0  0  0  0  0  0  0  0  0  0  0
    6.4586    1.7991   -3.0960 H   0  0  0  0  0  0  0  0  0  0  0  0
    6.0598    1.9334   -4.8195 H   0  0  0  0  0  0  0  0  0  0  0  0
    3.9764   -1.2379   -4.9065 H   0  0  0  0  0  0  0  0  0  0  0  0
    4.5788    0.0912   -5.9098 H   0  0  0  0  0  0  0  0  0  0  0  0
    5.6985   -1.1338   -5.2861 H   0  0  0  0  0  0  0  0  0  0  0  0
    2.8319   -1.8861    0.5177 H   0  0  0  0  0  0  0  0  0  0  0  0
    4.0974   -3.2024   -3.4531 H   0  0  0  0  0  0  0  0  0  0  0  0
    5.7260   -3.1056   -2.7712 H   0  0  0  0  0  0  0  0  0  0  0  0
    4.6701   -4.4885   -2.3455 H   0  0  0  0  0  0  0  0  0  0  0  0
   -0.4055   -5.0201    2.1994 H   0  0  0  0  0  0  0  0  0  0  0  0
    0.4442   -5.3917    0.6891 H   0  0  0  0  0  0  0  0  0  0  0  0
   -1.0517   -4.4741    0.6460 H   0  0  0  0  0  0  0  0  0  0  0  0
    2.5850   -2.8306    2.3865 H   0  0  0  0  0  0  0  0  0  0  0  0
    1.7964   -4.2794    2.9862 H   0  0  0  0  0  0  0  0  0  0  0  0
    2.6438   -4.3167    1.4308 H   0  0  0  0  0  0  0  0  0  0  0  0
    0.6074   -1.4633    2.5717 H   0  0  0  0  0  0  0  0  0  0  0  0
   -2.0286   -2.7920    1.7696 H   0  0  0  0  0  0  0  0  0  0  0  0
   -1.2515   -0.2457    3.3464 H   0  0  0  0  0  0  0  0  0  0  0  0
   -2.4424   -1.8544    4.7307 H   0  0  0  0  0  0  0  0  0  0  0  0
   -3.4843   -0.4651    4.3999 H   0  0  0  0  0  0  0  0  0  0  0  0
   -3.7482   -1.9973    3.5500 H   0  0  0  0  0  0  0  0  0  0  0  0
   -3.1995    0.8649    2.3320 H   0  0  0  0  0  0  0  0  0  0  0  0
   -4.4596   -2.7300   -0.0791 H   0  0  0  0  0  0  0  0  0  0  0  0
   -6.0776   -4.2772   -1.1043 H   0  0  0  0  0  0  0  0  0  0  0  0
   -8.5161   -3.8536   -0.9090 H   0  0  0  0  0  0  0  0  0  0  0  0
   -9.3361   -1.8631    0.3258 H   0  0  0  0  0  0  0  0  0  0  0  0
   -7.7303   -0.2931    1.3625 H   0  0  0  0  0  0  0  0  0  0  0  0
   -2.0041   -1.0447   -0.3516 H   0  0  0  0  0  0  0  0  0  0  0  0
   -2.2138    1.4867   -1.3229 H   0  0  0  0  0  0  0  0  0  0  0  0
   -3.6739    1.2547   -0.3998 H   0  0  0  0  0  0  0  0  0  0  0  0
   -3.4790    3.2893    0.6454 H   0  0  0  0  0  0  0  0  0  0  0  0
   -2.0621    4.9937   -0.4441 H   0  0  0  0  0  0  0  0  0  0  0  0
   -1.1691    3.7299   -1.3082 H   0  0  0  0  0  0  0  0  0  0  0  0
   -2.8898    3.9841   -1.6314 H   0  0  0  0  0  0  0  0  0  0  0  0
   -2.1241    2.7305    2.3167 H   0  0  0  0  0  0  0  0  0  0  0  0
    0.0369    6.2662    2.3740 H   0  0  0  0  0  0  0  0  0  0  0  0
    1.5838    5.3839    2.5605 H   0  0  0  0  0  0  0  0  0  0  0  0
    0.5915    5.8019    3.9853 H   0  0  0  0  0  0  0  0  0  0  0  0
   -0.3241    1.2405    2.1297 H   0  0  0  0  0  0  0  0  0  0  0  0
    0.1541    1.6294   -0.8418 H   0  0  0  0  0  0  0  0  0  0  0  0
    1.7851    5.5284   -0.0742 H   0  0  0  0  0  0  0  0  0  0  0  0
    3.1435    5.0601   -1.1305 H   0  0  0  0  0  0  0  0  0  0  0  0
    3.1427    4.5368    0.5584 H   0  0  0  0  0  0  0  0  0  0  0  0
  1  2  2  0
  2  3  1  0
  3  4  1  0
  4  5  1  0
  5  6  2  0
  5  7  1  0
  7  8  1  0
  8  9  1  0
  8 10  1  0
  3 11  1  0
 11 12  1  0
 12 13  1  0
 13 14  1  0
 13 15  2  0
 11 16  1  0
 16 17  2  0
 16 18  1  0
 18 19  1  0
 18 20  1  0
 18 21  1  0
 21 22  2  0
 22 23  1  0
 23 24  1  0
 23 25  1  0
 25 26  1  0
 26 27  1  0
 27 28  2  0
 27 29  1  0
 29 30  2  0
 30 31  1  0
 31 32  2  0
 32 33  1  0
 33 34  2  0
 25 35  1  0
 35 36  1  6
 35 37  1  0
 37 38  1  0
 38 39  1  0
 38 40  1  0
 40 41  1  0
 41 42  1  0
 42 43  1  0
 42 44  2  0
 40 45  1  0
 45 46  1  0
 46 47  1  0
 47 48  1  0
 48 49  1  0
 48 50  2  0
 46  2  1  0
 34 29  1  0
 45 35  1  0
  1 51  1  0
  1 52  1  0
  3 53  1  6
  7 54  1  0
  7 55  1  0
  8 56  1  0
  9 57  1  0
  9 58  1  0
  9 59  1  0
 10 60  1  0
 10 61  1  0
 10 62  1  0
 11 63  1  0
 14 64  1  0
 14 65  1  0
 14 66  1  0
 19 67  1  0
 19 68  1  0
 19 69  1  0
 20 70  1  0
 20 71  1  0
 20 72  1  0
 21 73  1  0
 22 74  1  0
 23 75  1  1
 24 76  1  0
 24 77  1  0
 24 78  1  0
 25 79  1  1
 30 80  1  0
 31 81  1  0
 32 82  1  0
 33 83  1  0
 34 84  1  0
 36 85  1  0
 37 86  1  0
 37 87  1  0
 38 88  1  1
 39 89  1  0
 39 90  1  0
 39 91  1  0
 40 92  1  1
 43 93  1  0
 43 94  1  0
 43 95  1  0
 45 96  1  1
 46 97  1  6
 49 98  1  0
 49 99  1  0
 49100  1  0
M  END
$$$$
