
     RDKit          3D

 41 42  0  0  0  0  0  0  0  0999 V2000
    5.8245    2.6909    0.3234 C   0  0  0  0  0  0  0  0  0  0  0  0
    5.1889    1.4886   -0.1094 O   0  0  0  0  0  0  0  0  0  0  0  0
    4.1197    1.1191    0.6517 C   0  0  0  0  0  0  0  0  0  0  0  0
    3.7115    1.7459    1.6208 O   0  0  0  0  0  0  0  0  0  0  0  0
    3.5449   -0.1105    0.1344 C   0  0  0  0  0  0  0  0  0  0  0  0
    3.9270   -0.8341   -0.9849 C   0  0  0  0  0  0  0  0  0  0  0  0
    3.0677   -1.9417   -1.1084 C   0  0  0  0  0  0  0  0  0  0  0  0
    2.1527   -1.9057   -0.0676 C   0  0  0  0  0  0  0  0  0  0  0  0
    0.8020   -3.0075    0.2850 S   0  0  0  0  0  6  0  0  0  0  0  0
    0.6898   -3.8680   -0.8696 O   0  0  0  0  0  0  0  0  0  0  0  0
    1.0588   -3.5202    1.6095 O   0  0  0  0  0  0  0  0  0  0  0  0
   -0.5827   -2.0630    0.3658 N   0  0  0  0  0  0  0  0  0  0  0  0
   -1.0665   -1.5353   -0.9169 C   0  0  0  0  0  0  0  0  0  0  0  0
   -2.1776   -0.5403   -0.6893 C   0  0  0  0  0  0  0  0  0  0  0  0
   -3.5168   -0.8977   -0.8936 C   0  0  0  0  0  0  0  0  0  0  0  0
   -4.5453    0.0235   -0.6618 C   0  0  0  0  0  0  0  0  0  0  0  0
   -4.2479    1.3113   -0.2165 C   0  0  0  0  0  0  0  0  0  0  0  0
   -5.1530    2.3018    0.0472 O   0  0  0  0  0  0  0  0  0  0  0  0
   -6.5253    1.9904   -0.1564 C   0  0  0  0  0  0  0  0  0  0  0  0
   -2.9147    1.6674   -0.0031 C   0  0  0  0  0  0  0  0  0  0  0  0
   -1.8859    0.7514   -0.2335 C   0  0  0  0  0  0  0  0  0  0  0  0
    2.4738   -0.7968    0.6994 N   0  0  0  0  0  0  0  0  0  0  0  0
    1.8123   -0.3768    1.9216 C   0  0  0  0  0  0  0  0  0  0  0  0
    5.1290    3.5342    0.2674 H   0  0  0  0  0  0  0  0  0  0  0  0
    6.6643    2.8906   -0.3479 H   0  0  0  0  0  0  0  0  0  0  0  0
    6.2142    2.5751    1.3396 H   0  0  0  0  0  0  0  0  0  0  0  0
    4.7435   -0.5774   -1.6497 H   0  0  0  0  0  0  0  0  0  0  0  0
    3.0903   -2.7012   -1.8813 H   0  0  0  0  0  0  0  0  0  0  0  0
   -1.3063   -2.5463    0.8982 H   0  0  0  0  0  0  0  0  0  0  0  0
   -0.2587   -1.0373   -1.4648 H   0  0  0  0  0  0  0  0  0  0  0  0
   -1.4347   -2.3584   -1.5399 H   0  0  0  0  0  0  0  0  0  0  0  0
   -3.7740   -1.8978   -1.2371 H   0  0  0  0  0  0  0  0  0  0  0  0
   -5.5665   -0.2981   -0.8376 H   0  0  0  0  0  0  0  0  0  0  0  0
   -7.1108    2.8802    0.0944 H   0  0  0  0  0  0  0  0  0  0  0  0
   -6.8490    1.1812    0.5065 H   0  0  0  0  0  0  0  0  0  0  0  0
   -6.7234    1.7463   -1.2053 H   0  0  0  0  0  0  0  0  0  0  0  0
   -2.6755    2.6682    0.3489 H   0  0  0  0  0  0  0  0  0  0  0  0
   -0.8564    1.0518   -0.0518 H   0  0  0  0  0  0  0  0  0  0  0  0
    1.0663   -1.0989    2.2445 H   0  0  0  0  0  0  0  0  0  0  0  0
    1.3238    0.5825    1.7320 H   0  0  0  0  0  0  0  0  0  0  0  0
    2.5660   -0.2877    2.7084 H   0  0  0  0  0  0  0  0  0  0  0  0
  1  2  1  0
  2  3  1  0
  3  4  2  0
  3  5  1  0
  5  6  2  0
  6  7  1  0
  7  8  2  0
  8  9  1  0
  9 10  2  0
  9 11  2  0
  9 12  1  0
 12 13  1  0
 13 14  1  0
 14 15  2  0
 15 16  1  0
 16 17  2  0
 17 18  1  0
 18 19  1  0
 17 20  1  0
 20 21  2  0
  8 22  1  0
 22 23  1  0
 22  5  1  0
 21 14  1  0
  1 24  1  0
  1 25  1  0
  1 26  1  0
  6 27  1  0
  7 28  1  0
 12 29  1  0
 13 30  1  0
 13 31  1  0
 15 32  1  0
 16 33  1  0
 19 34  1  0
 19 35  1  0
 19 36  1  0
 20 37  1  0
 21 38  1  0
 23 39  1  0
 23 40  1  0
 23 41  1  0
M  END
$$$$
