
     RDKit          3D

 45 44  0  0  0  0  0  0  0  0999 V2000
    2.7628   -3.7543    2.0175 C   0  0  0  0  0  0  0  0  0  0  0  0
    3.0632   -2.3912    2.6212 C   0  0  0  0  0  0  0  0  0  0  0  0
    4.2325   -1.6668    1.9468 C   0  0  0  0  0  0  0  0  0  0  0  0
    4.0171   -1.3490    0.4692 C   0  0  0  0  0  0  0  0  0  0  0  0
    2.8957   -0.4644    0.2598 N   0  0  0  0  0  0  0  0  0  0  0  0
    2.2439   -0.3913   -0.9334 C   0  0  0  0  0  0  0  0  0  0  0  0
    2.4284   -1.1245   -1.8917 O   0  0  0  0  0  0  0  0  0  0  0  0
    1.3682    0.6411   -0.8916 O   0  0  0  0  0  0  0  0  0  0  0  0
    0.5791    0.7884   -2.0865 C   0  0  0  0  0  0  0  0  0  0  0  0
   -0.3529    2.0028   -1.9120 C   0  0  0  0  0  0  0  0  0  0  0  0
   -1.0932    2.3195   -3.2223 C   0  0  0  0  0  0  0  0  0  0  0  0
   -1.9262    3.5919   -3.1374 C   0  0  0  0  0  0  0  0  0  0  0  0
   -1.2521    1.8437   -0.7720 N   0  0  0  0  0  0  0  0  0  0  0  0
   -2.1845    0.8594   -0.6574 C   0  0  0  0  0  0  0  0  0  0  0  0
   -2.5001    0.0700   -1.5327 O   0  0  0  0  0  0  0  0  0  0  0  0
   -2.6930    0.8890    0.5981 O   0  0  0  0  0  0  0  0  0  0  0  0
   -3.6822   -0.1118    0.9016 C   0  0  0  0  0  0  0  0  0  0  0  0
   -2.9889   -1.4077    1.3078 C   0  0  0  0  0  0  0  0  0  0  0  0
   -4.5295    0.4277    2.0476 C   0  0  0  0  0  0  0  0  0  0  0  0
    3.6559   -4.3869    2.0103 H   0  0  0  0  0  0  0  0  0  0  0  0
    1.9919   -4.2632    2.6051 H   0  0  0  0  0  0  0  0  0  0  0  0
    2.3915   -3.6657    0.9923 H   0  0  0  0  0  0  0  0  0  0  0  0
    2.1606   -1.7706    2.5852 H   0  0  0  0  0  0  0  0  0  0  0  0
    3.3071   -2.5260    3.6819 H   0  0  0  0  0  0  0  0  0  0  0  0
    4.4177   -0.7326    2.4919 H   0  0  0  0  0  0  0  0  0  0  0  0
    5.1394   -2.2750    2.0486 H   0  0  0  0  0  0  0  0  0  0  0  0
    4.9017   -0.8378    0.0727 H   0  0  0  0  0  0  0  0  0  0  0  0
    3.8847   -2.2620   -0.1205 H   0  0  0  0  0  0  0  0  0  0  0  0
    2.7433    0.3193    0.8782 H   0  0  0  0  0  0  0  0  0  0  0  0
    0.0070   -0.1300   -2.2603 H   0  0  0  0  0  0  0  0  0  0  0  0
    1.2514    0.9605   -2.9358 H   0  0  0  0  0  0  0  0  0  0  0  0
    0.2708    2.8672   -1.6487 H   0  0  0  0  0  0  0  0  0  0  0  0
   -1.7422    1.4876   -3.5170 H   0  0  0  0  0  0  0  0  0  0  0  0
   -0.3593    2.4435   -4.0281 H   0  0  0  0  0  0  0  0  0  0  0  0
   -1.3057    4.4488   -2.8565 H   0  0  0  0  0  0  0  0  0  0  0  0
   -2.7332    3.4944   -2.4048 H   0  0  0  0  0  0  0  0  0  0  0  0
   -2.3818    3.8082   -4.1090 H   0  0  0  0  0  0  0  0  0  0  0  0
   -1.0202    2.2991    0.0993 H   0  0  0  0  0  0  0  0  0  0  0  0
   -4.3363   -0.2816    0.0375 H   0  0  0  0  0  0  0  0  0  0  0  0
   -2.3812   -1.8001    0.4860 H   0  0  0  0  0  0  0  0  0  0  0  0
   -3.7166   -2.1735    1.5931 H   0  0  0  0  0  0  0  0  0  0  0  0
   -2.3069   -1.2397    2.1487 H   0  0  0  0  0  0  0  0  0  0  0  0
   -5.3090   -0.2841    2.3359 H   0  0  0  0  0  0  0  0  0  0  0  0
   -5.0075    1.3694    1.7564 H   0  0  0  0  0  0  0  0  0  0  0  0
   -3.9114    0.6475    2.9251 H   0  0  0  0  0  0  0  0  0  0  0  0
  1  2  1  0
  2  3  1  0
  3  4  1  0
  4  5  1  0
  5  6  1  0
  6  7  2  0
  6  8  1  0
  8  9  1  0
  9 10  1  0
 10 11  1  0
 11 12  1  0
 10 13  1  0
 13 14  1  0
 14 15  2  0
 14 16  1  0
 16 17  1  0
 17 18  1  0
 17 19  1  0
  1 20  1  0
  1 21  1  0
  1 22  1  0
  2 23  1  0
  2 24  1  0
  3 25  1  0
  3 26  1  0
  4 27  1  0
  4 28  1  0
  5 29  1  0
  9 30  1  0
  9 31  1  0
 10 32  1  0
 11 33  1  0
 11 34  1  0
 12 35  1  0
 12 36  1  0
 12 37  1  0
 13 38  1  0
 17 39  1  0
 18 40  1  0
 18 41  1  0
 18 42  1  0
 19 43  1  0
 19 44  1  0
 19 45  1  0
M  END
$$$$
