
     RDKit          3D

 32 32  0  0  0  0  0  0  0  0999 V2000
   -4.3982   -1.1504    2.1592 C   0  0  0  0  0  0  0  0  0  0  0  0
   -4.0797   -1.2232    1.0031 C   0  0  0  0  0  0  0  0  0  0  0  0
   -3.6956   -1.3171   -0.4162 C   0  0  0  0  0  0  0  0  0  0  0  0
   -2.9832   -0.1085   -0.8713 N   0  0  0  0  0  0  0  0  0  0  0  0
   -2.9496   -0.0951   -2.3376 C   0  0  0  0  0  0  0  0  0  0  0  0
   -1.6178   -0.0610   -0.3067 C   0  0  0  0  0  0  0  0  0  0  0  0
   -0.9403    1.3011   -0.5190 C   0  0  0  0  0  0  0  0  0  0  0  0
    0.3829    1.3962    0.2400 C   0  0  0  0  0  0  0  0  0  0  0  0
    1.2716    0.4008   -0.2639 O   0  0  0  0  0  0  0  0  0  0  0  0
    2.4976    0.2693    0.3313 C   0  0  0  0  0  0  0  0  0  0  0  0
    2.9930    1.1219    1.3234 C   0  0  0  0  0  0  0  0  0  0  0  0
    4.2638    0.9081    1.8686 C   0  0  0  0  0  0  0  0  0  0  0  0
    5.0445   -0.1563    1.4234 C   0  0  0  0  0  0  0  0  0  0  0  0
    6.6054   -0.4105    2.0998 Cl  0  0  0  0  0  0  0  0  0  0  0  0
    4.5704   -1.0128    0.4360 C   0  0  0  0  0  0  0  0  0  0  0  0
    3.3016   -0.7981   -0.1073 C   0  0  0  0  0  0  0  0  0  0  0  0
    2.7516   -1.8915   -1.3310 Cl  0  0  0  0  0  0  0  0  0  0  0  0
   -4.6821   -1.0792    3.1835 H   0  0  0  0  0  0  0  0  0  0  0  0
   -3.0968   -2.2196   -0.5930 H   0  0  0  0  0  0  0  0  0  0  0  0
   -4.6245   -1.4368   -0.9889 H   0  0  0  0  0  0  0  0  0  0  0  0
   -3.9654   -0.1429   -2.7471 H   0  0  0  0  0  0  0  0  0  0  0  0
   -2.5219    0.8371   -2.7189 H   0  0  0  0  0  0  0  0  0  0  0  0
   -2.3763   -0.9354   -2.7457 H   0  0  0  0  0  0  0  0  0  0  0  0
   -1.6609   -0.2303    0.7761 H   0  0  0  0  0  0  0  0  0  0  0  0
   -0.9995   -0.8655   -0.7258 H   0  0  0  0  0  0  0  0  0  0  0  0
   -0.7395    1.4546   -1.5851 H   0  0  0  0  0  0  0  0  0  0  0  0
   -1.6031    2.1063   -0.1807 H   0  0  0  0  0  0  0  0  0  0  0  0
    0.2037    1.2440    1.3112 H   0  0  0  0  0  0  0  0  0  0  0  0
    0.8098    2.3924    0.0749 H   0  0  0  0  0  0  0  0  0  0  0  0
    2.4194    1.9658    1.6936 H   0  0  0  0  0  0  0  0  0  0  0  0
    4.6377    1.5782    2.6393 H   0  0  0  0  0  0  0  0  0  0  0  0
    5.1814   -1.8418    0.0901 H   0  0  0  0  0  0  0  0  0  0  0  0
  1  2  3  0
  2  3  1  0
  3  4  1  0
  4  5  1  0
  4  6  1  0
  6  7  1  0
  7  8  1  0
  8  9  1  0
  9 10  1  0
 10 11  2  0
 11 12  1  0
 12 13  2  0
 13 14  1  0
 13 15  1  0
 15 16  2  0
 16 17  1  0
 16 10  1  0
  1 18  1  0
  3 19  1  0
  3 20  1  0
  5 21  1  0
  5 22  1  0
  5 23  1  0
  6 24  1  0
  6 25  1  0
  7 26  1  0
  7 27  1  0
  8 28  1  0
  8 29  1  0
 11 30  1  0
 12 31  1  0
 15 32  1  0
M  END
$$$$
