
     RDKit          3D

 52 54  0  0  0  0  0  0  0  0999 V2000
   -3.1967   -1.7118    0.3302 C   0  0  0  0  0  0  0  0  0  0  0  0
   -3.4981   -0.8934   -0.8350 N   0  0  0  0  0  0  0  0  0  0  0  0
   -4.5293   -1.3952   -1.7417 C   0  0  0  0  0  0  0  0  0  0  0  0
   -5.9258   -1.1781   -1.2068 C   0  0  0  0  0  0  0  0  0  0  0  0
   -6.4694    0.1137   -1.1514 C   0  0  0  0  0  0  0  0  0  0  0  0
   -7.7577    0.3211   -0.6565 C   0  0  0  0  0  0  0  0  0  0  0  0
   -8.5165   -0.7601   -0.2123 C   0  0  0  0  0  0  0  0  0  0  0  0
   -7.9881   -2.0491   -0.2622 C   0  0  0  0  0  0  0  0  0  0  0  0
   -6.6994   -2.2581   -0.7574 C   0  0  0  0  0  0  0  0  0  0  0  0
   -2.8419    0.2887   -1.1657 C   0  0  0  0  0  0  0  0  0  0  0  0
   -3.1889    0.9803   -2.1272 O   0  0  0  0  0  0  0  0  0  0  0  0
   -1.6824    0.7460   -0.2795 C   0  0  0  0  0  0  0  0  0  0  0  0
   -0.6531   -0.2422   -0.2334 O   0  0  0  0  0  0  0  0  0  0  0  0
    0.3835    0.0840    0.5852 C   0  0  0  0  0  0  0  0  0  0  0  0
    0.4231    1.0617    1.3222 O   0  0  0  0  0  0  0  0  0  0  0  0
    1.4804   -0.9537    0.5048 C   0  0  0  0  0  0  0  0  0  0  0  0
    2.0956   -1.1477   -0.8087 N   0  0  0  0  0  0  0  0  0  0  0  0
    2.6723    0.1617   -1.6821 S   0  0  0  0  0  6  0  0  0  0  0  0
    1.6038    1.1227   -1.8210 O   0  0  0  0  0  0  0  0  0  0  0  0
    3.3546   -0.3948   -2.8287 O   0  0  0  0  0  0  0  0  0  0  0  0
    3.9013    0.8401   -0.5967 C   0  0  0  0  0  0  0  0  0  0  0  0
    3.6026    1.9572    0.1837 C   0  0  0  0  0  0  0  0  0  0  0  0
    4.5779    2.4787    1.0347 C   0  0  0  0  0  0  0  0  0  0  0  0
    5.8567    1.9004    1.1024 C   0  0  0  0  0  0  0  0  0  0  0  0
    6.8452    2.4158    1.9552 C   0  0  0  0  0  0  0  0  0  0  0  0
    8.1146    1.8375    2.0079 C   0  0  0  0  0  0  0  0  0  0  0  0
    8.4127    0.7383    1.2082 C   0  0  0  0  0  0  0  0  0  0  0  0
    7.4419    0.2122    0.3545 C   0  0  0  0  0  0  0  0  0  0  0  0
    6.1592    0.7796    0.2916 C   0  0  0  0  0  0  0  0  0  0  0  0
    5.1731    0.2590   -0.5596 C   0  0  0  0  0  0  0  0  0  0  0  0
   -2.6123   -1.1749    1.0779 H   0  0  0  0  0  0  0  0  0  0  0  0
   -2.6366   -2.5910   -0.0011 H   0  0  0  0  0  0  0  0  0  0  0  0
   -4.1270   -2.0346    0.8057 H   0  0  0  0  0  0  0  0  0  0  0  0
   -4.3374   -2.4624   -1.9078 H   0  0  0  0  0  0  0  0  0  0  0  0
   -4.4527   -0.9199   -2.7268 H   0  0  0  0  0  0  0  0  0  0  0  0
   -5.8871    0.9654   -1.5009 H   0  0  0  0  0  0  0  0  0  0  0  0
   -8.1692    1.3266   -0.6232 H   0  0  0  0  0  0  0  0  0  0  0  0
   -9.5209   -0.5978    0.1699 H   0  0  0  0  0  0  0  0  0  0  0  0
   -8.5822   -2.8920    0.0803 H   0  0  0  0  0  0  0  0  0  0  0  0
   -6.3042   -3.2706   -0.7910 H   0  0  0  0  0  0  0  0  0  0  0  0
   -1.2734    1.6678   -0.7104 H   0  0  0  0  0  0  0  0  0  0  0  0
   -2.0733    0.9656    0.7209 H   0  0  0  0  0  0  0  0  0  0  0  0
    2.2554   -0.7142    1.2403 H   0  0  0  0  0  0  0  0  0  0  0  0
    1.0463   -1.9071    0.8280 H   0  0  0  0  0  0  0  0  0  0  0  0
    2.5655   -2.0264   -1.0137 H   0  0  0  0  0  0  0  0  0  0  0  0
    2.6211    2.4266    0.1424 H   0  0  0  0  0  0  0  0  0  0  0  0
    4.3328    3.3466    1.6444 H   0  0  0  0  0  0  0  0  0  0  0  0
    6.6343    3.2770    2.5856 H   0  0  0  0  0  0  0  0  0  0  0  0
    8.8711    2.2487    2.6714 H   0  0  0  0  0  0  0  0  0  0  0  0
    9.4028    0.2908    1.2462 H   0  0  0  0  0  0  0  0  0  0  0  0
    7.6979   -0.6442   -0.2654 H   0  0  0  0  0  0  0  0  0  0  0  0
    5.3976   -0.5945   -1.1966 H   0  0  0  0  0  0  0  0  0  0  0  0
  1  2  1  0
  2  3  1  0
  3  4  1  0
  4  5  2  0
  5  6  1  0
  6  7  2  0
  7  8  1  0
  8  9  2  0
  2 10  1  0
 10 11  2  0
 10 12  1  0
 12 13  1  0
 13 14  1  0
 14 15  2  0
 14 16  1  0
 16 17  1  0
 17 18  1  0
 18 19  2  0
 18 20  2  0
 18 21  1  0
 21 22  2  0
 22 23  1  0
 23 24  2  0
 24 25  1  0
 25 26  2  0
 26 27  1  0
 27 28  2  0
 28 29  1  0
 29 30  2  0
  9  4  1  0
 30 21  1  0
 29 24  1  0
  1 31  1  0
  1 32  1  0
  1 33  1  0
  3 34  1  0
  3 35  1  0
  5 36  1  0
  6 37  1  0
  7 38  1  0
  8 39  1  0
  9 40  1  0
 12 41  1  0
 12 42  1  0
 16 43  1  0
 16 44  1  0
 17 45  1  0
 22 46  1  0
 23 47  1  0
 25 48  1  0
 26 49  1  0
 27 50  1  0
 28 51  1  0
 30 52  1  0
M  END
$$$$
