
     RDKit          3D

 68 71  0  0  0  0  0  0  0  0999 V2000
    8.9880   -0.0806    5.2863 C   0  0  0  0  0  0  0  0  0  0  0  0
    8.1210   -0.5456    4.1904 C   0  0  0  0  0  0  0  0  0  0  0  0
    6.7864   -0.4067    3.9008 C   0  0  0  0  0  0  0  0  0  0  0  0
    6.6083   -1.1165    2.6938 C   0  0  0  0  0  0  0  0  0  0  0  0
    5.4649   -1.3115    1.9518 N   0  0  0  0  0  0  0  0  0  0  0  0
    4.2197   -0.8183    2.2657 C   0  0  0  0  0  0  0  0  0  0  0  0
    3.9457   -0.1315    3.2444 O   0  0  0  0  0  0  0  0  0  0  0  0
    3.1759   -1.2356    1.2499 C   0  0  0  0  0  0  0  0  0  0  0  0
    1.8153   -0.6142    1.5535 C   0  0  0  0  0  0  0  0  0  0  0  0
    0.7661   -1.0468    0.5457 C   0  0  0  0  0  0  0  0  0  0  0  0
    1.0338   -1.9040   -0.2992 O   0  0  0  0  0  0  0  0  0  0  0  0
   -0.4989   -0.4752    0.6392 N   0  0  0  0  0  0  0  0  0  0  0  0
   -0.8564    0.5553    1.6252 C   0  0  0  0  0  0  0  0  0  0  0  0
   -0.8462    1.9276    1.0543 C   0  0  0  0  0  0  0  0  0  0  0  0
    0.0868    2.6803    0.3701 C   0  0  0  0  0  0  0  0  0  0  0  0
   -0.5104    3.9397    0.1243 C   0  0  0  0  0  0  0  0  0  0  0  0
   -1.7629    3.8849    0.6860 C   0  0  0  0  0  0  0  0  0  0  0  0
   -1.9742    2.6727    1.2577 O   0  0  0  0  0  0  0  0  0  0  0  0
   -1.4675   -0.8508   -0.4204 C   0  0  0  0  0  0  0  0  0  0  0  0
   -1.2503   -0.0503   -1.7476 C   0  0  0  0  0  0  0  0  0  0  0  0
   -0.3196    0.7344   -1.9268 O   0  0  0  0  0  0  0  0  0  0  0  0
   -2.1499   -0.3531   -2.7623 N   0  0  0  0  0  0  0  0  0  0  0  0
   -2.1378    0.3736   -4.0116 C   0  0  0  0  0  0  0  0  0  0  0  0
   -2.9686   -0.3087   -5.0982 C   0  0  0  0  0  0  0  0  0  0  0  0
   -3.4662    0.8165   -6.0078 C   0  0  0  0  0  0  0  0  0  0  0  0
   -3.0340    2.1236   -5.3500 C   0  0  0  0  0  0  0  0  0  0  0  0
   -2.7704    1.7575   -3.8988 C   0  0  0  0  0  0  0  0  0  0  0  0
   -2.9233   -0.9041    0.0641 C   0  0  0  0  0  0  0  0  0  0  0  0
   -3.7654    0.2173   -0.0849 C   0  0  0  0  0  0  0  0  0  0  0  0
   -5.0908    0.1897    0.3469 C   0  0  0  0  0  0  0  0  0  0  0  0
   -5.6019   -0.9566    0.9417 C   0  0  0  0  0  0  0  0  0  0  0  0
   -4.7840   -2.0714    1.1170 C   0  0  0  0  0  0  0  0  0  0  0  0
   -3.4423   -2.0580    0.6990 C   0  0  0  0  0  0  0  0  0  0  0  0
   -2.6078   -3.2915    0.9270 C   0  0  0  0  0  0  0  0  0  0  0  0
    7.7628   -1.6492    2.2786 N   0  0  0  0  0  0  0  0  0  0  0  0
    8.7101   -1.2916    3.2203 O   0  0  0  0  0  0  0  0  0  0  0  0
   10.0056    0.1096    4.9299 H   0  0  0  0  0  0  0  0  0  0  0  0
    8.6037    0.8479    5.7201 H   0  0  0  0  0  0  0  0  0  0  0  0
    9.0369   -0.8343    6.0783 H   0  0  0  0  0  0  0  0  0  0  0  0
    6.0516    0.1273    4.4836 H   0  0  0  0  0  0  0  0  0  0  0  0
    5.6049   -1.8695    1.1199 H   0  0  0  0  0  0  0  0  0  0  0  0
    3.1050   -2.3300    1.2649 H   0  0  0  0  0  0  0  0  0  0  0  0
    3.5135   -0.9307    0.2517 H   0  0  0  0  0  0  0  0  0  0  0  0
    1.4860   -0.9278    2.5511 H   0  0  0  0  0  0  0  0  0  0  0  0
    1.9096    0.4763    1.5363 H   0  0  0  0  0  0  0  0  0  0  0  0
   -1.8306    0.3121    2.0596 H   0  0  0  0  0  0  0  0  0  0  0  0
   -0.1621    0.5346    2.4691 H   0  0  0  0  0  0  0  0  0  0  0  0
    1.0700    2.3504    0.0622 H   0  0  0  0  0  0  0  0  0  0  0  0
   -0.0799    4.7804   -0.4009 H   0  0  0  0  0  0  0  0  0  0  0  0
   -2.5818    4.5868    0.7600 H   0  0  0  0  0  0  0  0  0  0  0  0
   -1.2207   -1.8717   -0.7423 H   0  0  0  0  0  0  0  0  0  0  0  0
   -2.9869   -0.8681   -2.5147 H   0  0  0  0  0  0  0  0  0  0  0  0
   -1.0987    0.4714   -4.3502 H   0  0  0  0  0  0  0  0  0  0  0  0
   -3.8284   -0.8396   -4.6710 H   0  0  0  0  0  0  0  0  0  0  0  0
   -2.3780   -1.0482   -5.6497 H   0  0  0  0  0  0  0  0  0  0  0  0
   -4.5577    0.7701   -6.0945 H   0  0  0  0  0  0  0  0  0  0  0  0
   -3.0543    0.7308   -7.0183 H   0  0  0  0  0  0  0  0  0  0  0  0
   -2.1096    2.4822   -5.8173 H   0  0  0  0  0  0  0  0  0  0  0  0
   -3.7875    2.9097   -5.4522 H   0  0  0  0  0  0  0  0  0  0  0  0
   -2.1163    2.4806   -3.4017 H   0  0  0  0  0  0  0  0  0  0  0  0
   -3.7123    1.7158   -3.3379 H   0  0  0  0  0  0  0  0  0  0  0  0
   -3.3910    1.1375   -0.5331 H   0  0  0  0  0  0  0  0  0  0  0  0
   -5.7200    1.0676    0.2242 H   0  0  0  0  0  0  0  0  0  0  0  0
   -6.6347   -0.9811    1.2797 H   0  0  0  0  0  0  0  0  0  0  0  0
   -5.2016   -2.9564    1.5942 H   0  0  0  0  0  0  0  0  0  0  0  0
   -3.1207   -4.0059    1.5796 H   0  0  0  0  0  0  0  0  0  0  0  0
   -2.4059   -3.7925   -0.0241 H   0  0  0  0  0  0  0  0  0  0  0  0
   -1.6638   -3.0363    1.4174 H   0  0  0  0  0  0  0  0  0  0  0  0
  1  2  1  0
  2  3  2  0
  3  4  1  0
  4  5  1  0
  5  6  1  0
  6  7  2  0
  6  8  1  0
  8  9  1  0
  9 10  1  0
 10 11  2  0
 10 12  1  0
 12 13  1  0
 13 14  1  0
 14 15  2  0
 15 16  1  0
 16 17  2  0
 17 18  1  0
 12 19  1  0
 19 20  1  0
 20 21  2  0
 20 22  1  0
 22 23  1  0
 23 24  1  0
 24 25  1  0
 25 26  1  0
 26 27  1  0
 19 28  1  0
 28 29  2  0
 29 30  1  0
 30 31  2  0
 31 32  1  0
 32 33  2  0
 33 34  1  0
  4 35  2  0
 35 36  1  0
 36  2  1  0
 18 14  1  0
 27 23  1  0
 33 28  1  0
  1 37  1  0
  1 38  1  0
  1 39  1  0
  3 40  1  0
  5 41  1  0
  8 42  1  0
  8 43  1  0
  9 44  1  0
  9 45  1  0
 13 46  1  0
 13 47  1  0
 15 48  1  0
 16 49  1  0
 17 50  1  0
 19 51  1  0
 22 52  1  0
 23 53  1  0
 24 54  1  0
 24 55  1  0
 25 56  1  0
 25 57  1  0
 26 58  1  0
 26 59  1  0
 27 60  1  0
 27 61  1  0
 29 62  1  0
 30 63  1  0
 31 64  1  0
 32 65  1  0
 34 66  1  0
 34 67  1  0
 34 68  1  0
M  END
$$$$
