
     RDKit          3D

 44 44  0  0  0  0  0  0  0  0999 V2000
   -6.0463    0.0449    0.5341 C   0  0  0  0  0  0  0  0  0  0  0  0
   -5.1566    1.2155    0.1406 C   0  0  0  0  0  0  0  0  0  0  0  0
   -3.8838    0.7453   -0.4203 N   0  0  0  0  0  0  0  0  0  0  0  0
   -3.8509    0.5796   -1.8801 C   0  0  0  0  0  0  0  0  0  0  0  0
   -3.3596    1.8477   -2.5636 C   0  0  0  0  0  0  0  0  0  0  0  0
   -2.7760    0.4720    0.3770 C   0  0  0  0  0  0  0  0  0  0  0  0
   -2.8350    0.5003    1.7803 C   0  0  0  0  0  0  0  0  0  0  0  0
   -1.7220    0.2241    2.5855 C   0  0  0  0  0  0  0  0  0  0  0  0
   -0.4969   -0.0918    2.0087 C   0  0  0  0  0  0  0  0  0  0  0  0
   -0.3894   -0.1301    0.6248 C   0  0  0  0  0  0  0  0  0  0  0  0
    0.7429   -0.4210   -0.0870 O   0  0  0  0  0  0  0  0  0  0  0  0
    1.9270   -0.6842    0.6533 C   0  0  0  0  0  0  0  0  0  0  0  0
    3.1097   -0.9798   -0.2801 C   0  0  0  0  0  0  0  0  0  0  0  0
    2.9924   -0.9841   -1.5073 O   0  0  0  0  0  0  0  0  0  0  0  0
    4.3459   -1.2445    0.3186 N   0  0  0  0  0  0  0  0  0  0  0  0
    4.6327   -1.0549    1.7342 C   0  0  0  0  0  0  0  0  0  0  0  0
    5.4937   -1.4742   -0.5669 C   0  0  0  0  0  0  0  0  0  0  0  0
    6.0660   -0.1809   -1.1472 C   0  0  0  0  0  0  0  0  0  0  0  0
    7.2705   -0.4643   -1.9338 C   0  0  0  0  0  0  0  0  0  0  0  0
    8.2366   -0.6924   -2.5345 N   0  0  0  0  0  0  0  0  0  0  0  0
   -1.5179    0.1476   -0.1646 C   0  0  0  0  0  0  0  0  0  0  0  0
   -6.9985    0.4111    0.9305 H   0  0  0  0  0  0  0  0  0  0  0  0
   -6.2616   -0.5931   -0.3294 H   0  0  0  0  0  0  0  0  0  0  0  0
   -5.5787   -0.5812    1.2999 H   0  0  0  0  0  0  0  0  0  0  0  0
   -5.6889    1.8178   -0.6068 H   0  0  0  0  0  0  0  0  0  0  0  0
   -5.0036    1.8940    0.9872 H   0  0  0  0  0  0  0  0  0  0  0  0
   -4.8612    0.3589   -2.2482 H   0  0  0  0  0  0  0  0  0  0  0  0
   -3.2510   -0.2869   -2.1798 H   0  0  0  0  0  0  0  0  0  0  0  0
   -3.3612    1.7158   -3.6501 H   0  0  0  0  0  0  0  0  0  0  0  0
   -4.0059    2.6988   -2.3245 H   0  0  0  0  0  0  0  0  0  0  0  0
   -2.3425    2.1078   -2.2553 H   0  0  0  0  0  0  0  0  0  0  0  0
   -3.7620    0.7284    2.2966 H   0  0  0  0  0  0  0  0  0  0  0  0
   -1.8227    0.2552    3.6673 H   0  0  0  0  0  0  0  0  0  0  0  0
    0.3401   -0.3014    2.6636 H   0  0  0  0  0  0  0  0  0  0  0  0
    2.1869    0.1986    1.2487 H   0  0  0  0  0  0  0  0  0  0  0  0
    1.7775   -1.5678    1.2844 H   0  0  0  0  0  0  0  0  0  0  0  0
    5.2905   -1.8587    2.0774 H   0  0  0  0  0  0  0  0  0  0  0  0
    5.1335   -0.0911    1.8618 H   0  0  0  0  0  0  0  0  0  0  0  0
    3.7298   -1.0676    2.3459 H   0  0  0  0  0  0  0  0  0  0  0  0
    5.1736   -2.1332   -1.3846 H   0  0  0  0  0  0  0  0  0  0  0  0
    6.2572   -2.0278   -0.0062 H   0  0  0  0  0  0  0  0  0  0  0  0
    5.3218    0.3224   -1.7740 H   0  0  0  0  0  0  0  0  0  0  0  0
    6.3139    0.5140   -0.3365 H   0  0  0  0  0  0  0  0  0  0  0  0
   -1.3700    0.1110   -1.2399 H   0  0  0  0  0  0  0  0  0  0  0  0
  1  2  1  0
  2  3  1  0
  3  4  1  0
  4  5  1  0
  3  6  1  0
  6  7  2  0
  7  8  1  0
  8  9  2  0
  9 10  1  0
 10 11  1  0
 11 12  1  0
 12 13  1  0
 13 14  2  0
 13 15  1  0
 15 16  1  0
 15 17  1  0
 17 18  1  0
 18 19  1  0
 19 20  3  0
 10 21  2  0
 21  6  1  0
  1 22  1  0
  1 23  1  0
  1 24  1  0
  2 25  1  0
  2 26  1  0
  4 27  1  0
  4 28  1  0
  5 29  1  0
  5 30  1  0
  5 31  1  0
  7 32  1  0
  8 33  1  0
  9 34  1  0
 12 35  1  0
 12 36  1  0
 16 37  1  0
 16 38  1  0
 16 39  1  0
 17 40  1  0
 17 41  1  0
 18 42  1  0
 18 43  1  0
 21 44  1  0
M  END
$$$$
