
     RDKit          3D

 58 62  0  0  0  0  0  0  0  0999 V2000
    5.5424    1.3512    5.8620 C   0  0  0  0  0  0  0  0  0  0  0  0
    5.3955    0.3508    4.8692 O   0  0  0  0  0  0  0  0  0  0  0  0
    4.4918    0.5829    3.8639 C   0  0  0  0  0  0  0  0  0  0  0  0
    3.5790    1.6429    3.8532 C   0  0  0  0  0  0  0  0  0  0  0  0
    2.6874    1.7944    2.7873 C   0  0  0  0  0  0  0  0  0  0  0  0
    2.6863    0.8899    1.7176 C   0  0  0  0  0  0  0  0  0  0  0  0
    1.7421    1.0746    0.6203 C   0  0  0  0  0  0  0  0  0  0  0  0
    0.8595    2.0324    0.4304 N   0  0  0  0  0  0  0  0  0  0  0  0
    0.2350    1.7084   -0.7617 C   0  0  0  0  0  0  0  0  0  0  0  0
   -0.8219    2.6109   -1.2979 C   0  0  0  0  0  0  0  0  0  0  0  0
   -1.8357    1.9191   -2.0745 N   0  0  0  0  0  0  0  0  0  0  0  0
   -2.8720    1.1526   -1.5968 C   0  0  0  0  0  0  0  0  0  0  0  0
   -3.1075    0.8276    0.0883 S   0  0  0  0  0  0  0  0  0  0  0  0
   -4.5763   -0.2459    0.0623 C   0  0  0  0  0  0  0  0  0  0  0  0
   -4.2338   -1.7099   -0.0790 C   0  0  0  0  0  0  0  0  0  0  0  0
   -3.9287   -2.4795    1.0583 C   0  0  0  0  0  0  0  0  0  0  0  0
   -3.6222   -3.8380    0.9416 C   0  0  0  0  0  0  0  0  0  0  0  0
   -3.5981   -4.4383   -0.3186 C   0  0  0  0  0  0  0  0  0  0  0  0
   -3.8796   -3.6755   -1.4473 C   0  0  0  0  0  0  0  0  0  0  0  0
   -3.8424   -4.2574   -2.6583 F   0  0  0  0  0  0  0  0  0  0  0  0
   -4.2033   -2.3255   -1.3386 C   0  0  0  0  0  0  0  0  0  0  0  0
   -3.6413    0.7120   -2.5663 N   0  0  0  0  0  0  0  0  0  0  0  0
   -3.0846    1.1936   -3.7226 C   0  0  0  0  0  0  0  0  0  0  0  0
   -3.4946    1.0084   -5.0426 C   0  0  0  0  0  0  0  0  0  0  0  0
   -2.7193    1.6296   -6.0023 C   0  0  0  0  0  0  0  0  0  0  0  0
   -1.6247    2.3841   -5.7412 N   0  0  0  0  0  0  0  0  0  0  0  0
   -1.2305    2.5684   -4.4595 C   0  0  0  0  0  0  0  0  0  0  0  0
   -1.9612    1.9654   -3.4479 C   0  0  0  0  0  0  0  0  0  0  0  0
    0.7883    0.5442   -1.2527 C   0  0  0  0  0  0  0  0  0  0  0  0
    0.5828   -0.3067   -2.4396 C   0  0  0  0  0  0  0  0  0  0  0  0
    1.7522    0.1353   -0.3728 O   0  0  0  0  0  0  0  0  0  0  0  0
    3.6027   -0.1744    1.7339 C   0  0  0  0  0  0  0  0  0  0  0  0
    4.5009   -0.3387    2.7970 C   0  0  0  0  0  0  0  0  0  0  0  0
    5.4260   -1.3556    2.8828 O   0  0  0  0  0  0  0  0  0  0  0  0
    5.4281   -2.3366    1.8555 C   0  0  0  0  0  0  0  0  0  0  0  0
    5.8134    2.3148    5.4163 H   0  0  0  0  0  0  0  0  0  0  0  0
    4.6352    1.4361    6.4709 H   0  0  0  0  0  0  0  0  0  0  0  0
    6.3603    1.0469    6.5232 H   0  0  0  0  0  0  0  0  0  0  0  0
    3.5271    2.3635    4.6621 H   0  0  0  0  0  0  0  0  0  0  0  0
    1.9831    2.6272    2.7995 H   0  0  0  0  0  0  0  0  0  0  0  0
   -0.3571    3.3770   -1.9347 H   0  0  0  0  0  0  0  0  0  0  0  0
   -1.3356    3.1451   -0.4878 H   0  0  0  0  0  0  0  0  0  0  0  0
   -5.0938   -0.1009    1.0206 H   0  0  0  0  0  0  0  0  0  0  0  0
   -5.2914    0.0753   -0.7042 H   0  0  0  0  0  0  0  0  0  0  0  0
   -3.9370   -2.0191    2.0467 H   0  0  0  0  0  0  0  0  0  0  0  0
   -3.4069   -4.4260    1.8332 H   0  0  0  0  0  0  0  0  0  0  0  0
   -3.3711   -5.4935   -0.4322 H   0  0  0  0  0  0  0  0  0  0  0  0
   -4.4277   -1.7661   -2.2407 H   0  0  0  0  0  0  0  0  0  0  0  0
   -4.3595    0.4140   -5.2945 H   0  0  0  0  0  0  0  0  0  0  0  0
   -2.9671    1.5335   -7.0570 H   0  0  0  0  0  0  0  0  0  0  0  0
   -0.3450    3.1749   -4.3003 H   0  0  0  0  0  0  0  0  0  0  0  0
   -0.3722   -0.8381   -2.3722 H   0  0  0  0  0  0  0  0  0  0  0  0
    1.3795   -1.0537   -2.5310 H   0  0  0  0  0  0  0  0  0  0  0  0
    0.5885    0.2952   -3.3530 H   0  0  0  0  0  0  0  0  0  0  0  0
    3.6023   -0.8707    0.9008 H   0  0  0  0  0  0  0  0  0  0  0  0
    5.6650   -1.8919    0.8832 H   0  0  0  0  0  0  0  0  0  0  0  0
    6.2153   -3.0634    2.0882 H   0  0  0  0  0  0  0  0  0  0  0  0
    4.4726   -2.8773    1.8215 H   0  0  0  0  0  0  0  0  0  0  0  0
  1  2  1  0
  2  3  1  0
  3  4  2  0
  4  5  1  0
  5  6  2  0
  6  7  1  0
  7  8  2  0
  8  9  1  0
  9 10  1  0
 10 11  1  0
 11 12  1  0
 12 13  1  0
 13 14  1  0
 14 15  1  0
 15 16  2  0
 16 17  1  0
 17 18  2  0
 18 19  1  0
 19 20  1  0
 19 21  2  0
 12 22  2  0
 22 23  1  0
 23 24  2  0
 24 25  1  0
 25 26  2  0
 26 27  1  0
 27 28  2  0
  9 29  2  0
 29 30  1  0
 29 31  1  0
  6 32  1  0
 32 33  2  0
 33 34  1  0
 34 35  1  0
 33  3  1  0
 31  7  1  0
 28 11  1  0
 21 15  1  0
 28 23  1  0
  1 36  1  0
  1 37  1  0
  1 38  1  0
  4 39  1  0
  5 40  1  0
 10 41  1  0
 10 42  1  0
 14 43  1  0
 14 44  1  0
 16 45  1  0
 17 46  1  0
 18 47  1  0
 21 48  1  0
 24 49  1  0
 25 50  1  0
 27 51  1  0
 30 52  1  0
 30 53  1  0
 30 54  1  0
 32 55  1  0
 35 56  1  0
 35 57  1  0
 35 58  1  0
M  END
$$$$
