
     RDKit          3D

 56 61  0  0  0  0  0  0  0  0999 V2000
    1.6808    1.6922   -2.7827 O   0  0  0  0  0  0  0  0  0  0  0  0
    1.2381    2.1613   -1.7449 C   0  0  0  0  0  0  0  0  0  0  0  0
    1.0485    3.5280   -1.5173 N   0  0  0  0  0  0  0  0  0  0  0  0
    0.5301    3.7653   -0.2524 C   0  0  0  0  0  0  0  0  0  0  0  0
    0.2190    4.9909    0.2976 C   0  0  0  0  0  0  0  0  0  0  0  0
   -0.3097    4.9986    1.5902 C   0  0  0  0  0  0  0  0  0  0  0  0
   -0.5128    3.7968    2.2925 C   0  0  0  0  0  0  0  0  0  0  0  0
   -0.1873    2.5654    1.7158 C   0  0  0  0  0  0  0  0  0  0  0  0
    0.3381    2.5612    0.4319 C   0  0  0  0  0  0  0  0  0  0  0  0
    0.7794    1.4269   -0.4504 C   0  0  0  0  0  0  0  0  0  0  0  0
    1.8720    0.5694    0.1210 N   0  0  0  0  0  0  0  0  0  0  0  0
    1.5427   -0.8784   -0.1658 C   0  0  2  0  0  0  0  0  0  0  0  0
    2.3824   -1.4587   -1.3177 C   0  0  0  0  0  0  0  0  0  0  0  0
    3.8301   -1.6752   -0.9413 C   0  0  0  0  0  0  0  0  0  0  0  0
    4.7740   -0.6632   -1.1606 C   0  0  0  0  0  0  0  0  0  0  0  0
    6.1093   -0.8512   -0.8022 C   0  0  0  0  0  0  0  0  0  0  0  0
    6.5130   -2.0512   -0.2200 C   0  0  0  0  0  0  0  0  0  0  0  0
    5.5817   -3.0635    0.0053 C   0  0  0  0  0  0  0  0  0  0  0  0
    4.2451   -2.8771   -0.3519 C   0  0  0  0  0  0  0  0  0  0  0  0
    0.0964   -0.8222   -0.4811 C   0  0  0  0  0  0  0  0  0  0  0  0
   -0.3419    0.4970   -0.6448 C   0  0  0  0  0  0  0  0  0  0  0  0
   -1.6815    0.4785   -0.9360 C   0  0  0  0  0  0  0  0  0  0  0  0
   -2.5555    1.4473   -1.1796 O   0  0  0  0  0  0  0  0  0  0  0  0
   -2.0640   -0.8545   -0.9261 N   0  0  0  0  0  0  0  0  0  0  0  0
   -3.4135   -1.3366   -1.1915 C   0  0  0  0  0  0  0  0  0  0  0  0
   -4.2273   -1.4465    0.0756 C   0  0  0  0  0  0  0  0  0  0  0  0
   -4.2295   -2.6342    0.8215 C   0  0  0  0  0  0  0  0  0  0  0  0
   -4.9760   -2.7326    1.9968 C   0  0  0  0  0  0  0  0  0  0  0  0
   -5.7241   -1.6443    2.4416 C   0  0  0  0  0  0  0  0  0  0  0  0
   -5.7234   -0.4556    1.7143 C   0  0  0  0  0  0  0  0  0  0  0  0
   -4.9775   -0.3558    0.5388 C   0  0  0  0  0  0  0  0  0  0  0  0
   -0.9680   -1.6634   -0.6661 C   0  0  0  0  0  0  0  0  0  0  0  0
   -1.0750   -2.9853   -0.6310 O   0  0  0  0  0  0  0  0  0  0  0  0
    1.2853    4.2275   -2.2044 H   0  0  0  0  0  0  0  0  0  0  0  0
    0.3749    5.9171   -0.2438 H   0  0  0  0  0  0  0  0  0  0  0  0
   -0.5692    5.9441    2.0620 H   0  0  0  0  0  0  0  0  0  0  0  0
   -0.9303    3.8267    3.2971 H   0  0  0  0  0  0  0  0  0  0  0  0
   -0.3569    1.6397    2.2583 H   0  0  0  0  0  0  0  0  0  0  0  0
    1.8186    0.6725    1.1323 H   0  0  0  0  0  0  0  0  0  0  0  0
    1.7025   -1.4581    0.7517 H   0  0  0  0  0  0  0  0  0  0  0  0
    2.3258   -0.8242   -2.2112 H   0  0  0  0  0  0  0  0  0  0  0  0
    1.9604   -2.4229   -1.6335 H   0  0  0  0  0  0  0  0  0  0  0  0
    4.4669    0.2801   -1.6097 H   0  0  0  0  0  0  0  0  0  0  0  0
    6.8325   -0.0595   -0.9778 H   0  0  0  0  0  0  0  0  0  0  0  0
    7.5534   -2.1968    0.0575 H   0  0  0  0  0  0  0  0  0  0  0  0
    5.8976   -3.9994    0.4583 H   0  0  0  0  0  0  0  0  0  0  0  0
    3.5328   -3.6779   -0.1711 H   0  0  0  0  0  0  0  0  0  0  0  0
   -2.0930    2.2973   -1.0679 H   0  0  0  0  0  0  0  0  0  0  0  0
   -3.3399   -2.3070   -1.6963 H   0  0  0  0  0  0  0  0  0  0  0  0
   -3.8894   -0.6542   -1.9055 H   0  0  0  0  0  0  0  0  0  0  0  0
   -3.6413   -3.4879    0.4902 H   0  0  0  0  0  0  0  0  0  0  0  0
   -4.9702   -3.6581    2.5662 H   0  0  0  0  0  0  0  0  0  0  0  0
   -6.3041   -1.7212    3.3572 H   0  0  0  0  0  0  0  0  0  0  0  0
   -6.3011    0.3961    2.0631 H   0  0  0  0  0  0  0  0  0  0  0  0
   -4.9772    0.5813   -0.0147 H   0  0  0  0  0  0  0  0  0  0  0  0
   -0.1921   -3.3448   -0.4373 H   0  0  0  0  0  0  0  0  0  0  0  0
  1  2  2  0
  2  3  1  0
  3  4  1  0
  4  5  2  0
  5  6  1  0
  6  7  2  0
  7  8  1  0
  8  9  2  0
  9 10  1  0
 10 11  1  0
 11 12  1  0
 12 13  1  0
 13 14  1  0
 14 15  2  0
 15 16  1  0
 16 17  2  0
 17 18  1  0
 18 19  2  0
 12 20  1  0
 20 21  1  0
 21 22  2  0
 22 23  1  0
 22 24  1  0
 24 25  1  0
 25 26  1  0
 26 27  2  0
 27 28  1  0
 28 29  2  0
 29 30  1  0
 30 31  2  0
 24 32  1  0
 32 33  1  0
 10  2  1  0
 19 14  1  0
 32 20  2  0
  9  4  1  0
 21 10  1  0
 31 26  1  0
  3 34  1  0
  5 35  1  0
  6 36  1  0
  7 37  1  0
  8 38  1  0
 11 39  1  0
 12 40  1  1
 13 41  1  0
 13 42  1  0
 15 43  1  0
 16 44  1  0
 17 45  1  0
 18 46  1  0
 19 47  1  0
 23 48  1  0
 25 49  1  0
 25 50  1  0
 27 51  1  0
 28 52  1  0
 29 53  1  0
 30 54  1  0
 31 55  1  0
 33 56  1  0
M  END
$$$$
