
     RDKit          3D

 58 63  0  0  0  0  0  0  0  0999 V2000
    7.2238    2.6691   -1.6767 C   0  0  0  0  0  0  0  0  0  0  0  0
    6.2497    1.6945   -1.1092 C   0  0  0  0  0  0  0  0  0  0  0  0
    5.8163    0.5062   -1.6583 C   0  0  0  0  0  0  0  0  0  0  0  0
    4.8756   -0.1624   -0.8219 C   0  0  0  0  0  0  0  0  0  0  0  0
    4.5983    0.5473    0.3310 C   0  0  0  0  0  0  0  0  0  0  0  0
    3.7077    0.2168    1.4352 C   0  0  0  0  0  0  0  0  0  0  0  0
    4.0627    0.3111    2.6109 O   0  0  0  0  0  0  0  0  0  0  0  0
    2.4185   -0.2421    1.1179 N   0  0  0  0  0  0  0  0  0  0  0  0
    1.5623   -0.6871    2.2119 C   0  0  0  0  0  0  0  0  0  0  0  0
    0.5017   -1.6602    1.7115 C   0  0  0  0  0  0  0  0  0  0  0  0
   -0.4266   -1.0453    0.6172 C   0  0  0  0  0  0  0  0  0  0  0  0
    0.2716    0.1841   -0.0273 C   0  0  0  0  0  0  0  0  0  0  0  0
    1.7760   -0.0323   -0.1782 C   0  0  0  0  0  0  0  0  0  0  0  0
   -0.5515   -1.9979   -0.4748 O   0  0  0  0  0  0  0  0  0  0  0  0
   -1.3434   -3.0852   -0.2356 C   0  0  0  0  0  0  0  0  0  0  0  0
   -1.1587   -4.1778   -1.0822 C   0  0  0  0  0  0  0  0  0  0  0  0
   -1.9120   -5.3396   -0.8980 C   0  0  0  0  0  0  0  0  0  0  0  0
   -2.8532   -5.4023    0.1296 C   0  0  0  0  0  0  0  0  0  0  0  0
   -3.7761   -6.8358    0.3527 Cl  0  0  0  0  0  0  0  0  0  0  0  0
   -3.0558   -4.3103    0.9692 C   0  0  0  0  0  0  0  0  0  0  0  0
   -2.3016   -3.1487    0.7741 C   0  0  0  0  0  0  0  0  0  0  0  0
   -2.5282   -1.9622    1.6192 C   0  0  0  0  0  0  0  0  0  0  0  0
   -3.2729   -2.0452    2.5900 O   0  0  0  0  0  0  0  0  0  0  0  0
   -1.8367   -0.6808    1.1633 C   0  0  0  0  0  0  0  0  0  0  0  0
   -2.7708    0.0205    0.1836 C   0  0  0  0  0  0  0  0  0  0  0  0
   -2.7202    1.3992    0.7426 C   0  0  0  0  0  0  0  0  0  0  0  0
   -3.3025    2.5598    0.0286 C   0  0  0  0  0  0  0  0  0  0  0  0
   -3.1458    3.8403    0.5766 C   0  0  0  0  0  0  0  0  0  0  0  0
   -3.6775    4.9568   -0.0742 C   0  0  0  0  0  0  0  0  0  0  0  0
   -4.3674    4.7941   -1.2729 C   0  0  0  0  0  0  0  0  0  0  0  0
   -5.0208    6.1654   -2.0785 Cl  0  0  0  0  0  0  0  0  0  0  0  0
   -4.5317    3.5243   -1.8250 C   0  0  0  0  0  0  0  0  0  0  0  0
   -4.0011    2.4050   -1.1750 C   0  0  0  0  0  0  0  0  0  0  0  0
   -2.1319    1.5002    1.8903 N   0  0  0  0  0  0  0  0  0  0  0  0
   -1.7190    0.2069    2.2802 O   0  0  0  0  0  0  0  0  0  0  0  0
    5.5203    1.9879    0.4094 S   0  0  0  0  0  0  0  0  0  0  0  0
    7.6721    3.3033   -0.9042 H   0  0  0  0  0  0  0  0  0  0  0  0
    6.7253    3.3166   -2.4063 H   0  0  0  0  0  0  0  0  0  0  0  0
    8.0380    2.1427   -2.1870 H   0  0  0  0  0  0  0  0  0  0  0  0
    6.1667    0.1263   -2.6107 H   0  0  0  0  0  0  0  0  0  0  0  0
    4.4313   -1.1229   -1.0525 H   0  0  0  0  0  0  0  0  0  0  0  0
    2.1727   -1.1742    2.9807 H   0  0  0  0  0  0  0  0  0  0  0  0
    1.1067    0.1987    2.6697 H   0  0  0  0  0  0  0  0  0  0  0  0
    1.0118   -2.5454    1.3082 H   0  0  0  0  0  0  0  0  0  0  0  0
   -0.0767   -2.0145    2.5719 H   0  0  0  0  0  0  0  0  0  0  0  0
   -0.1460    0.3858   -1.0210 H   0  0  0  0  0  0  0  0  0  0  0  0
    0.1254    1.0841    0.5796 H   0  0  0  0  0  0  0  0  0  0  0  0
    1.9753   -0.9160   -0.7943 H   0  0  0  0  0  0  0  0  0  0  0  0
    2.2118    0.8391   -0.6769 H   0  0  0  0  0  0  0  0  0  0  0  0
   -0.4187   -4.1339   -1.8782 H   0  0  0  0  0  0  0  0  0  0  0  0
   -1.7567   -6.1935   -1.5539 H   0  0  0  0  0  0  0  0  0  0  0  0
   -3.7974   -4.3583    1.7639 H   0  0  0  0  0  0  0  0  0  0  0  0
   -3.8031   -0.3413    0.2356 H   0  0  0  0  0  0  0  0  0  0  0  0
   -2.4301   -0.0223   -0.8530 H   0  0  0  0  0  0  0  0  0  0  0  0
   -2.6102    3.9786    1.5148 H   0  0  0  0  0  0  0  0  0  0  0  0
   -3.5502    5.9446    0.3611 H   0  0  0  0  0  0  0  0  0  0  0  0
   -5.0748    3.3998   -2.7589 H   0  0  0  0  0  0  0  0  0  0  0  0
   -4.1526    1.4286   -1.6258 H   0  0  0  0  0  0  0  0  0  0  0  0
  1  2  1  0
  2  3  2  0
  3  4  1  0
  4  5  2  0
  5  6  1  0
  6  7  2  0
  6  8  1  0
  8  9  1  0
  9 10  1  0
 10 11  1  0
 11 12  1  0
 12 13  1  0
 11 14  1  0
 14 15  1  0
 15 16  2  0
 16 17  1  0
 17 18  2  0
 18 19  1  0
 18 20  1  0
 20 21  2  0
 21 22  1  0
 22 23  2  0
 22 24  1  0
 24 25  1  0
 25 26  1  0
 26 27  1  0
 27 28  2  0
 28 29  1  0
 29 30  2  0
 30 31  1  0
 30 32  1  0
 32 33  2  0
 26 34  2  0
 34 35  1  0
  5 36  1  0
 36  2  1  0
 13  8  1  0
 21 15  1  0
 35 24  1  0
 24 11  1  0
 33 27  1  0
  1 37  1  0
  1 38  1  0
  1 39  1  0
  3 40  1  0
  4 41  1  0
  9 42  1  0
  9 43  1  0
 10 44  1  0
 10 45  1  0
 12 46  1  0
 12 47  1  0
 13 48  1  0
 13 49  1  0
 16 50  1  0
 17 51  1  0
 20 52  1  0
 25 53  1  0
 25 54  1  0
 28 55  1  0
 29 56  1  0
 32 57  1  0
 33 58  1  0
M  END
$$$$
