
     RDKit          3D

 97 99  0  0  0  0  0  0  0  0999 V2000
   -1.9333    1.4150    2.6748 C   0  0  0  0  0  0  0  0  0  0  0  0
   -1.5009    1.1160    1.4293 C   0  0  0  0  0  0  0  0  0  0  0  0
   -1.7914   -0.2482    0.7814 C   0  0  1  0  0  0  0  0  0  0  0  0
   -2.6765   -1.0039    1.6579 O   0  0  0  0  0  0  0  0  0  0  0  0
   -2.3065   -2.2765    1.9687 C   0  0  0  0  0  0  0  0  0  0  0  0
   -1.2871   -2.8285    1.5761 O   0  0  0  0  0  0  0  0  0  0  0  0
   -3.3517   -2.9163    2.8620 C   0  0  0  0  0  0  0  0  0  0  0  0
   -2.7434   -4.0655    3.6642 C   0  0  0  0  0  0  0  0  0  0  0  0
   -4.5228   -3.4030    2.0162 C   0  0  0  0  0  0  0  0  0  0  0  0
   -2.4033   -0.2249   -0.6360 C   0  0  0  0  0  0  0  0  0  0  0  0
   -3.7539    0.2749   -0.5398 O   0  0  0  0  0  0  0  0  0  0  0  0
   -4.3214    0.6350   -1.7180 C   0  0  0  0  0  0  0  0  0  0  0  0
   -5.7584    1.0032   -1.5089 C   0  0  0  0  0  0  0  0  0  0  0  0
   -3.7514    0.6513   -2.8004 O   0  0  0  0  0  0  0  0  0  0  0  0
   -2.4102   -1.6647   -1.1937 C   0  0  0  0  0  0  0  0  0  0  0  0
   -3.4073   -2.3842   -1.0421 O   0  0  0  0  0  0  0  0  0  0  0  0
   -1.1976   -2.1661   -2.0312 C   0  0  0  0  0  0  0  0  0  0  0  0
   -1.5677   -1.9072   -3.5046 C   0  0  0  0  0  0  0  0  0  0  0  0
   -1.0562   -3.6916   -1.8452 C   0  0  0  0  0  0  0  0  0  0  0  0
    0.1338   -1.5440   -1.6024 C   0  0  0  0  0  0  0  0  0  0  0  0
    0.8945   -0.7150   -2.3348 C   0  0  0  0  0  0  0  0  0  0  0  0
    2.2169   -0.0628   -1.9925 C   0  0  2  0  0  0  0  0  0  0  0  0
    3.3140   -0.8180   -2.7614 C   0  0  0  0  0  0  0  0  0  0  0  0
    2.6561    0.2008   -0.5154 C   0  0  2  0  0  0  0  0  0  0  0  0
    3.0852   -1.0534    0.0882 O   0  0  0  0  0  0  0  0  0  0  0  0
    4.3984   -1.1929    0.3943 C   0  0  0  0  0  0  0  0  0  0  0  0
    5.2572   -0.3359    0.2659 O   0  0  0  0  0  0  0  0  0  0  0  0
    4.6658   -2.5621    0.9114 C   0  0  0  0  0  0  0  0  0  0  0  0
    3.6452   -3.5049    1.1058 C   0  0  0  0  0  0  0  0  0  0  0  0
    3.9534   -4.7796    1.5879 C   0  0  0  0  0  0  0  0  0  0  0  0
    5.2761   -5.1201    1.8775 C   0  0  0  0  0  0  0  0  0  0  0  0
    6.2945   -4.1862    1.6853 C   0  0  0  0  0  0  0  0  0  0  0  0
    5.9923   -2.9106    1.2045 C   0  0  0  0  0  0  0  0  0  0  0  0
    1.6528    0.8915    0.4881 C   0  0  1  0  0  0  0  0  0  0  0  0
    1.0950   -0.1001    1.3386 O   0  0  0  0  0  0  0  0  0  0  0  0
    2.4012    1.8698    1.4125 C   0  0  0  0  0  0  0  0  0  0  0  0
    2.4824    3.1945    0.6424 C   0  0  2  0  0  0  0  0  0  0  0  0
    2.3158    4.3917    1.5713 C   0  0  0  0  0  0  0  0  0  0  0  0
    1.4445    3.0639   -0.4983 C   0  0  2  0  0  0  0  0  0  0  0  0
    0.6728    4.2443   -0.7196 O   0  0  0  0  0  0  0  0  0  0  0  0
    1.2645    5.2123   -1.4742 C   0  0  0  0  0  0  0  0  0  0  0  0
    0.3518    6.3927   -1.6014 C   0  0  0  0  0  0  0  0  0  0  0  0
    2.3704    5.1329   -1.9883 O   0  0  0  0  0  0  0  0  0  0  0  0
    0.5823    1.8129   -0.1463 C   0  0  2  0  0  0  0  0  0  0  0  0
   -0.6893    2.1819    0.6854 C   0  0  1  0  0  0  0  0  0  0  0  0
   -1.6335    2.7742   -0.2480 O   0  0  0  0  0  0  0  0  0  0  0  0
   -2.2197    3.9450    0.1237 C   0  0  0  0  0  0  0  0  0  0  0  0
   -3.1661    4.3981   -0.9469 C   0  0  0  0  0  0  0  0  0  0  0  0
   -2.0091    4.5649    1.1558 O   0  0  0  0  0  0  0  0  0  0  0  0
   -2.5121    0.7219    3.2764 H   0  0  0  0  0  0  0  0  0  0  0  0
   -1.7354    2.3803    3.1344 H   0  0  0  0  0  0  0  0  0  0  0  0
   -0.8523   -0.7777    0.7237 H   0  0  0  0  0  0  0  0  0  0  0  0
   -3.6992   -2.1584    3.5758 H   0  0  0  0  0  0  0  0  0  0  0  0
   -2.3788   -4.8645    3.0074 H   0  0  0  0  0  0  0  0  0  0  0  0
   -3.4822   -4.4949    4.3492 H   0  0  0  0  0  0  0  0  0  0  0  0
   -1.8940   -3.7147    4.2609 H   0  0  0  0  0  0  0  0  0  0  0  0
   -5.2850   -3.8800    2.6412 H   0  0  0  0  0  0  0  0  0  0  0  0
   -4.1930   -4.1288    1.2644 H   0  0  0  0  0  0  0  0  0  0  0  0
   -4.9923   -2.5686    1.4832 H   0  0  0  0  0  0  0  0  0  0  0  0
   -1.8277    0.4143   -1.3113 H   0  0  0  0  0  0  0  0  0  0  0  0
   -5.8548    1.6611   -0.6409 H   0  0  0  0  0  0  0  0  0  0  0  0
   -6.1251    1.5484   -2.3844 H   0  0  0  0  0  0  0  0  0  0  0  0
   -6.3540    0.0976   -1.3685 H   0  0  0  0  0  0  0  0  0  0  0  0
   -2.5063   -2.4101   -3.7703 H   0  0  0  0  0  0  0  0  0  0  0  0
   -1.7150   -0.8399   -3.7062 H   0  0  0  0  0  0  0  0  0  0  0  0
   -0.7933   -2.2793   -4.1862 H   0  0  0  0  0  0  0  0  0  0  0  0
   -0.8547   -3.9491   -0.7985 H   0  0  0  0  0  0  0  0  0  0  0  0
   -1.9685   -4.2244   -2.1373 H   0  0  0  0  0  0  0  0  0  0  0  0
   -0.2344   -4.0931   -2.4492 H   0  0  0  0  0  0  0  0  0  0  0  0
    0.4988   -1.8555   -0.6242 H   0  0  0  0  0  0  0  0  0  0  0  0
    0.5490   -0.4422   -3.3330 H   0  0  0  0  0  0  0  0  0  0  0  0
    2.1550    0.9295   -2.4582 H   0  0  0  0  0  0  0  0  0  0  0  0
    3.0979   -0.8429   -3.8354 H   0  0  0  0  0  0  0  0  0  0  0  0
    3.4073   -1.8542   -2.4185 H   0  0  0  0  0  0  0  0  0  0  0  0
    4.2839   -0.3261   -2.6375 H   0  0  0  0  0  0  0  0  0  0  0  0
    3.5197    0.8711   -0.6163 H   0  0  0  0  0  0  0  0  0  0  0  0
    2.6069   -3.2659    0.8858 H   0  0  0  0  0  0  0  0  0  0  0  0
    3.1601   -5.5093    1.7355 H   0  0  0  0  0  0  0  0  0  0  0  0
    5.5122   -6.1140    2.2506 H   0  0  0  0  0  0  0  0  0  0  0  0
    7.3257   -4.4544    1.9028 H   0  0  0  0  0  0  0  0  0  0  0  0
    6.7964   -2.1919    1.0556 H   0  0  0  0  0  0  0  0  0  0  0  0
    1.7994   -0.7445    1.5419 H   0  0  0  0  0  0  0  0  0  0  0  0
    3.3942    1.5025    1.6958 H   0  0  0  0  0  0  0  0  0  0  0  0
    1.8476    1.9965    2.3533 H   0  0  0  0  0  0  0  0  0  0  0  0
    3.4773    3.2710    0.1846 H   0  0  0  0  0  0  0  0  0  0  0  0
    1.3237    4.4136    2.0330 H   0  0  0  0  0  0  0  0  0  0  0  0
    3.0611    4.3569    2.3737 H   0  0  0  0  0  0  0  0  0  0  0  0
    2.4637    5.3330    1.0340 H   0  0  0  0  0  0  0  0  0  0  0  0
    1.9857    2.8273   -1.4226 H   0  0  0  0  0  0  0  0  0  0  0  0
    0.9008    7.2274   -2.0467 H   0  0  0  0  0  0  0  0  0  0  0  0
    0.0009    6.7003   -0.6137 H   0  0  0  0  0  0  0  0  0  0  0  0
   -0.4942    6.1387   -2.2462 H   0  0  0  0  0  0  0  0  0  0  0  0
    0.2061    1.4069   -1.0863 H   0  0  0  0  0  0  0  0  0  0  0  0
   -0.3699    2.9344    1.4160 H   0  0  0  0  0  0  0  0  0  0  0  0
   -3.9014    3.6147   -1.1514 H   0  0  0  0  0  0  0  0  0  0  0  0
   -3.6981    5.2903   -0.6016 H   0  0  0  0  0  0  0  0  0  0  0  0
   -2.6096    4.6458   -1.8547 H   0  0  0  0  0  0  0  0  0  0  0  0
  1  2  2  0
  2  3  1  0
  3  4  1  0
  4  5  1  0
  5  6  2  0
  5  7  1  0
  7  8  1  0
  7  9  1  0
  3 10  1  0
 10 11  1  0
 11 12  1  0
 12 13  1  0
 12 14  2  0
 10 15  1  0
 15 16  2  0
 15 17  1  0
 17 18  1  0
 17 19  1  0
 17 20  1  0
 20 21  2  0
 21 22  1  0
 22 23  1  0
 22 24  1  0
 24 25  1  0
 25 26  1  0
 26 27  2  0
 26 28  1  0
 28 29  2  0
 29 30  1  0
 30 31  2  0
 31 32  1  0
 32 33  2  0
 24 34  1  0
 34 35  1  1
 34 36  1  0
 36 37  1  0
 37 38  1  0
 37 39  1  0
 39 40  1  0
 40 41  1  0
 41 42  1  0
 41 43  2  0
 39 44  1  0
 44 45  1  0
 45 46  1  0
 46 47  1  0
 47 48  1  0
 47 49  2  0
 45  2  1  0
 33 28  1  0
 44 34  1  0
  1 50  1  0
  1 51  1  0
  3 52  1  6
  7 53  1  0
  8 54  1  0
  8 55  1  0
  8 56  1  0
  9 57  1  0
  9 58  1  0
  9 59  1  0
 10 60  1  0
 13 61  1  0
 13 62  1  0
 13 63  1  0
 18 64  1  0
 18 65  1  0
 18 66  1  0
 19 67  1  0
 19 68  1  0
 19 69  1  0
 20 70  1  0
 21 71  1  0
 22 72  1  6
 23 73  1  0
 23 74  1  0
 23 75  1  0
 24 76  1  6
 29 77  1  0
 30 78  1  0
 31 79  1  0
 32 80  1  0
 33 81  1  0
 35 82  1  0
 36 83  1  0
 36 84  1  0
 37 85  1  6
 38 86  1  0
 38 87  1  0
 38 88  1  0
 39 89  1  6
 42 90  1  0
 42 91  1  0
 42 92  1  0
 44 93  1  6
 45 94  1  1
 48 95  1  0
 48 96  1  0
 48 97  1  0
M  END
$$$$
