
     RDKit          3D

 57 60  0  0  0  0  0  0  0  0999 V2000
   -0.2280    2.4880    4.0682 C   0  0  0  0  0  0  0  0  0  0  0  0
   -0.8313    1.2713    3.6265 O   0  0  0  0  0  0  0  0  0  0  0  0
   -0.0363    0.5806    2.7543 C   0  0  0  0  0  0  0  0  0  0  0  0
    1.2179    0.1148    3.1647 C   0  0  0  0  0  0  0  0  0  0  0  0
    2.0035   -0.6513    2.2990 C   0  0  0  0  0  0  0  0  0  0  0  0
    1.5306   -0.9665    1.0190 C   0  0  0  0  0  0  0  0  0  0  0  0
    2.3280   -1.8025    0.0853 C   0  0  0  0  0  0  0  0  0  0  0  0
    1.7608   -2.5784   -0.6737 O   0  0  0  0  0  0  0  0  0  0  0  0
    3.6924   -1.6128    0.1254 N   0  0  0  0  0  0  0  0  0  0  0  0
    4.5603   -2.2393   -0.8465 C   0  0  0  0  0  0  0  0  0  0  0  0
    4.8109   -1.3174   -2.0133 C   0  0  0  0  0  0  0  0  0  0  0  0
    3.8931   -1.2758   -3.0899 C   0  0  0  0  0  0  0  0  0  0  0  0
    4.0871   -0.4103   -4.1708 C   0  0  0  0  0  0  0  0  0  0  0  0
    5.1978    0.4041   -4.1463 C   0  0  0  0  0  0  0  0  0  0  0  0
    6.0912    0.3787   -3.1013 C   0  0  0  0  0  0  0  0  0  0  0  0
    5.9274   -0.4647   -2.0219 C   0  0  0  0  0  0  0  0  0  0  0  0
    7.1115    1.2638   -3.2684 O   0  0  0  0  0  0  0  0  0  0  0  0
    6.7553    1.8498   -4.5383 C   0  0  0  0  0  0  0  0  0  0  0  0
    5.5446    1.3058   -5.1032 O   0  0  0  0  0  0  0  0  0  0  0  0
    0.2660   -0.5280    0.6126 C   0  0  0  0  0  0  0  0  0  0  0  0
   -0.5152    0.2420    1.4847 C   0  0  0  0  0  0  0  0  0  0  0  0
   -2.1002    0.8254    0.9352 S   0  0  0  0  0  6  0  0  0  0  0  0
   -2.1471    2.2500    1.1958 O   0  0  0  0  0  0  0  0  0  0  0  0
   -2.3110    0.3250   -0.4085 O   0  0  0  0  0  0  0  0  0  0  0  0
   -3.1846    0.0216    1.9607 N   0  0  0  0  0  0  0  0  0  0  0  0
   -3.2714   -1.4415    1.8104 C   0  0  0  0  0  0  0  0  0  0  0  0
   -4.4803    0.6966    2.1933 C   0  0  0  0  0  0  0  0  0  0  0  0
   -5.5475    0.4657    1.1489 C   0  0  0  0  0  0  0  0  0  0  0  0
   -6.5466   -0.4996    1.3504 C   0  0  0  0  0  0  0  0  0  0  0  0
   -7.5288   -0.7183    0.3827 C   0  0  0  0  0  0  0  0  0  0  0  0
   -7.5229    0.0240   -0.7969 C   0  0  0  0  0  0  0  0  0  0  0  0
   -6.5362    0.9847   -1.0096 C   0  0  0  0  0  0  0  0  0  0  0  0
   -5.5540    1.2054   -0.0424 C   0  0  0  0  0  0  0  0  0  0  0  0
    0.2676    3.0205    3.2473 H   0  0  0  0  0  0  0  0  0  0  0  0
    0.4761    2.2926    4.8814 H   0  0  0  0  0  0  0  0  0  0  0  0
   -1.0216    3.1308    4.4594 H   0  0  0  0  0  0  0  0  0  0  0  0
    1.5783    0.3166    4.1706 H   0  0  0  0  0  0  0  0  0  0  0  0
    2.9610   -1.0293    2.6488 H   0  0  0  0  0  0  0  0  0  0  0  0
    4.0507   -0.7904    0.5899 H   0  0  0  0  0  0  0  0  0  0  0  0
    4.1341   -3.1886   -1.1917 H   0  0  0  0  0  0  0  0  0  0  0  0
    5.5030   -2.4723   -0.3384 H   0  0  0  0  0  0  0  0  0  0  0  0
    3.0146   -1.9220   -3.0770 H   0  0  0  0  0  0  0  0  0  0  0  0
    3.3846   -0.3772   -4.9957 H   0  0  0  0  0  0  0  0  0  0  0  0
    6.6476   -0.4595   -1.2107 H   0  0  0  0  0  0  0  0  0  0  0  0
    7.5775    1.6836   -5.2439 H   0  0  0  0  0  0  0  0  0  0  0  0
    6.6231    2.9298   -4.4010 H   0  0  0  0  0  0  0  0  0  0  0  0
   -0.0996   -0.7878   -0.3805 H   0  0  0  0  0  0  0  0  0  0  0  0
   -2.2923   -1.9038    1.9588 H   0  0  0  0  0  0  0  0  0  0  0  0
   -3.9378   -1.8613    2.5698 H   0  0  0  0  0  0  0  0  0  0  0  0
   -3.6534   -1.7206    0.8235 H   0  0  0  0  0  0  0  0  0  0  0  0
   -4.8545    0.3613    3.1708 H   0  0  0  0  0  0  0  0  0  0  0  0
   -4.3342    1.7751    2.3304 H   0  0  0  0  0  0  0  0  0  0  0  0
   -6.5658   -1.0894    2.2645 H   0  0  0  0  0  0  0  0  0  0  0  0
   -8.2972   -1.4694    0.5476 H   0  0  0  0  0  0  0  0  0  0  0  0
   -8.2848   -0.1477   -1.5526 H   0  0  0  0  0  0  0  0  0  0  0  0
   -6.5252    1.5607   -1.9320 H   0  0  0  0  0  0  0  0  0  0  0  0
   -4.7887    1.9570   -0.2295 H   0  0  0  0  0  0  0  0  0  0  0  0
  1  2  1  0
  2  3  1  0
  3  4  2  0
  4  5  1  0
  5  6  2  0
  6  7  1  0
  7  8  2  0
  7  9  1  0
  9 10  1  0
 10 11  1  0
 11 12  2  0
 12 13  1  0
 13 14  2  0
 14 15  1  0
 15 16  2  0
 15 17  1  0
 17 18  1  0
 18 19  1  0
  6 20  1  0
 20 21  2  0
 21 22  1  0
 22 23  2  0
 22 24  2  0
 22 25  1  0
 25 26  1  0
 25 27  1  0
 27 28  1  0
 28 29  2  0
 29 30  1  0
 30 31  2  0
 31 32  1  0
 32 33  2  0
 21  3  1  0
 33 28  1  0
 16 11  1  0
 19 14  1  0
  1 34  1  0
  1 35  1  0
  1 36  1  0
  4 37  1  0
  5 38  1  0
  9 39  1  0
 10 40  1  0
 10 41  1  0
 12 42  1  0
 13 43  1  0
 16 44  1  0
 18 45  1  0
 18 46  1  0
 20 47  1  0
 26 48  1  0
 26 49  1  0
 26 50  1  0
 27 51  1  0
 27 52  1  0
 29 53  1  0
 30 54  1  0
 31 55  1  0
 32 56  1  0
 33 57  1  0
M  END
$$$$
