
     RDKit          3D

 56 60  0  0  0  0  0  0  0  0999 V2000
   -6.0978   -2.2196   -0.0708 C   0  0  0  0  0  0  0  0  0  0  0  0
   -4.9269   -1.7643   -0.7781 N   0  0  0  0  0  0  0  0  0  0  0  0
   -3.7762   -2.4689   -1.0034 C   0  0  0  0  0  0  0  0  0  0  0  0
   -3.4477   -4.0181   -0.3088 S   0  0  0  0  0  0  0  0  0  0  0  0
   -1.6551   -4.1089   -0.5490 C   0  0  0  0  0  0  0  0  0  0  0  0
   -0.9316   -3.0727    0.3068 C   0  0  0  0  0  0  0  0  0  0  0  0
   -1.0742   -3.0396    1.5270 O   0  0  0  0  0  0  0  0  0  0  0  0
   -0.0927   -2.2524   -0.4332 N   0  0  0  0  0  0  0  0  0  0  0  0
    0.7631   -1.2394    0.0461 C   0  0  0  0  0  0  0  0  0  0  0  0
    1.5995   -0.6234   -0.8903 C   0  0  0  0  0  0  0  0  0  0  0  0
    2.5147    0.3683   -0.5069 C   0  0  0  0  0  0  0  0  0  0  0  0
    2.5812    0.7721    0.8388 C   0  0  0  0  0  0  0  0  0  0  0  0
    3.4435    1.7248    1.3614 N   0  0  0  0  0  0  0  0  0  0  0  0
    3.2023    1.8735    2.6469 C   0  0  0  0  0  0  0  0  0  0  0  0
    4.1040    3.0062    3.6312 S   0  0  0  0  0  0  0  0  0  0  0  0
    5.4192    3.5212    2.4943 C   0  0  0  0  0  0  0  0  0  0  0  0
    6.4795    2.4417    2.3734 C   0  0  0  0  0  0  0  0  0  0  0  0
    7.4676    2.4071    3.1036 O   0  0  0  0  0  0  0  0  0  0  0  0
    6.2370    1.5234    1.3684 N   0  0  0  0  0  0  0  0  0  0  0  0
    7.0651    0.3804    1.1662 C   0  0  0  0  0  0  0  0  0  0  0  0
    6.9643   -0.4175   -0.1035 C   0  0  0  0  0  0  0  0  0  0  0  0
    8.1809    0.4172    0.1627 C   0  0  0  0  0  0  0  0  0  0  0  0
    1.9742    0.8827    3.3054 S   0  0  0  0  0  0  0  0  0  0  0  0
    1.7073    0.1848    1.7558 C   0  0  0  0  0  0  0  0  0  0  0  0
    0.7947   -0.8198    1.3811 C   0  0  0  0  0  0  0  0  0  0  0  0
   -2.9914   -1.8019   -1.8114 N   0  0  0  0  0  0  0  0  0  0  0  0
   -3.6069   -0.6040   -2.0914 N   0  0  0  0  0  0  0  0  0  0  0  0
   -4.7546   -0.5546   -1.4256 C   0  0  0  0  0  0  0  0  0  0  0  0
   -5.6920    0.5692   -1.4393 C   0  0  0  0  0  0  0  0  0  0  0  0
   -6.3332    1.0163   -0.2734 C   0  0  0  0  0  0  0  0  0  0  0  0
   -7.2471    2.0734   -0.3230 C   0  0  0  0  0  0  0  0  0  0  0  0
   -7.5165    2.7036   -1.5349 C   0  0  0  0  0  0  0  0  0  0  0  0
   -6.8608    2.2906   -2.6965 C   0  0  0  0  0  0  0  0  0  0  0  0
   -5.9500    1.2330   -2.6467 C   0  0  0  0  0  0  0  0  0  0  0  0
   -6.9851   -1.7238   -0.4685 H   0  0  0  0  0  0  0  0  0  0  0  0
   -5.9739   -1.9961    0.9899 H   0  0  0  0  0  0  0  0  0  0  0  0
   -6.2248   -3.2966   -0.2261 H   0  0  0  0  0  0  0  0  0  0  0  0
   -1.3018   -5.0998   -0.2447 H   0  0  0  0  0  0  0  0  0  0  0  0
   -1.4199   -4.0000   -1.6127 H   0  0  0  0  0  0  0  0  0  0  0  0
   -0.1203   -2.3610   -1.4449 H   0  0  0  0  0  0  0  0  0  0  0  0
    1.5596   -0.9003   -1.9415 H   0  0  0  0  0  0  0  0  0  0  0  0
    3.1645    0.8326   -1.2459 H   0  0  0  0  0  0  0  0  0  0  0  0
    5.0239    3.7930    1.5129 H   0  0  0  0  0  0  0  0  0  0  0  0
    5.9011    4.4165    2.9035 H   0  0  0  0  0  0  0  0  0  0  0  0
    5.2868    1.4963    0.9921 H   0  0  0  0  0  0  0  0  0  0  0  0
    7.2508   -0.1817    2.0794 H   0  0  0  0  0  0  0  0  0  0  0  0
    6.2847   -0.0800   -0.8773 H   0  0  0  0  0  0  0  0  0  0  0  0
    7.0581   -1.4933   -0.0277 H   0  0  0  0  0  0  0  0  0  0  0  0
    8.3153    1.3225   -0.4239 H   0  0  0  0  0  0  0  0  0  0  0  0
    9.1066   -0.0803    0.4306 H   0  0  0  0  0  0  0  0  0  0  0  0
    0.1290   -1.2329    2.1346 H   0  0  0  0  0  0  0  0  0  0  0  0
   -6.1220    0.5591    0.6903 H   0  0  0  0  0  0  0  0  0  0  0  0
   -7.7458    2.4055    0.5857 H   0  0  0  0  0  0  0  0  0  0  0  0
   -8.2280    3.5259   -1.5732 H   0  0  0  0  0  0  0  0  0  0  0  0
   -7.0613    2.7858   -3.6434 H   0  0  0  0  0  0  0  0  0  0  0  0
   -5.4410    0.9244   -3.5589 H   0  0  0  0  0  0  0  0  0  0  0  0
  1  2  1  0
  2  3  1  0
  3  4  1  0
  4  5  1  0
  5  6  1  0
  6  7  2  0
  6  8  1  0
  8  9  1  0
  9 10  2  0
 10 11  1  0
 11 12  2  0
 12 13  1  0
 13 14  2  0
 14 15  1  0
 15 16  1  0
 16 17  1  0
 17 18  2  0
 17 19  1  0
 19 20  1  0
 20 21  1  0
 21 22  1  0
 14 23  1  0
 23 24  1  0
 24 25  2  0
  3 26  2  0
 26 27  1  0
 27 28  2  0
 28 29  1  0
 29 30  2  0
 30 31  1  0
 31 32  2  0
 32 33  1  0
 33 34  2  0
 28  2  1  0
 34 29  1  0
 25  9  1  0
 24 12  1  0
 22 20  1  0
  1 35  1  0
  1 36  1  0
  1 37  1  0
  5 38  1  0
  5 39  1  0
  8 40  1  0
 10 41  1  0
 11 42  1  0
 16 43  1  0
 16 44  1  0
 19 45  1  0
 20 46  1  0
 21 47  1  0
 21 48  1  0
 22 49  1  0
 22 50  1  0
 25 51  1  0
 30 52  1  0
 31 53  1  0
 32 54  1  0
 33 55  1  0
 34 56  1  0
M  END
$$$$
