
     RDKit          3D

 32 32  0  0  0  0  0  0  0  0999 V2000
    0.8860    1.1907   -4.6429 C   0  0  0  0  0  0  0  0  0  0  0  0
   -0.1883    1.3993   -4.1473 C   0  0  0  0  0  0  0  0  0  0  0  0
   -1.5088    1.6542   -3.5462 C   0  0  0  0  0  0  0  0  0  0  0  0
   -1.7023    0.8862   -2.3023 N   0  0  0  0  0  0  0  0  0  0  0  0
   -3.1242    0.8960   -1.9449 C   0  0  0  0  0  0  0  0  0  0  0  0
   -0.8666    1.4229   -1.2113 C   0  0  0  0  0  0  0  0  0  0  0  0
   -0.8362    0.5097    0.0188 C   0  0  0  0  0  0  0  0  0  0  0  0
    0.1792    1.0100    1.0446 C   0  0  0  0  0  0  0  0  0  0  0  0
    0.1569    0.1907    2.2134 O   0  0  0  0  0  0  0  0  0  0  0  0
    1.0145   -0.8732    2.3081 C   0  0  0  0  0  0  0  0  0  0  0  0
    1.7682   -1.3867    1.2476 C   0  0  0  0  0  0  0  0  0  0  0  0
    2.6083   -2.4854    1.4506 C   0  0  0  0  0  0  0  0  0  0  0  0
    3.5329   -3.1038    0.1364 Cl  0  0  0  0  0  0  0  0  0  0  0  0
    2.7061   -3.0889    2.7018 C   0  0  0  0  0  0  0  0  0  0  0  0
    1.9528   -2.5919    3.7637 C   0  0  0  0  0  0  0  0  0  0  0  0
    1.1105   -1.4928    3.5674 C   0  0  0  0  0  0  0  0  0  0  0  0
    0.2020   -0.9223    4.9245 Cl  0  0  0  0  0  0  0  0  0  0  0  0
    1.8375    0.9965   -5.0813 H   0  0  0  0  0  0  0  0  0  0  0  0
   -1.6495    2.7285   -3.3721 H   0  0  0  0  0  0  0  0  0  0  0  0
   -2.2597    1.3526   -4.2880 H   0  0  0  0  0  0  0  0  0  0  0  0
   -3.7324    0.5038   -2.7683 H   0  0  0  0  0  0  0  0  0  0  0  0
   -3.3264    0.2414   -1.0918 H   0  0  0  0  0  0  0  0  0  0  0  0
   -3.4820    1.9038   -1.7050 H   0  0  0  0  0  0  0  0  0  0  0  0
    0.1689    1.5253   -1.5578 H   0  0  0  0  0  0  0  0  0  0  0  0
   -1.2022    2.4280   -0.9232 H   0  0  0  0  0  0  0  0  0  0  0  0
   -1.8194    0.4607    0.5009 H   0  0  0  0  0  0  0  0  0  0  0  0
   -0.5948   -0.5174   -0.2788 H   0  0  0  0  0  0  0  0  0  0  0  0
    1.1886    1.1170    0.6308 H   0  0  0  0  0  0  0  0  0  0  0  0
   -0.1158    2.0145    1.3711 H   0  0  0  0  0  0  0  0  0  0  0  0
    1.7129   -0.9630    0.2507 H   0  0  0  0  0  0  0  0  0  0  0  0
    3.3599   -3.9436    2.8546 H   0  0  0  0  0  0  0  0  0  0  0  0
    2.0234   -3.0628    4.7410 H   0  0  0  0  0  0  0  0  0  0  0  0
  1  2  3  0
  2  3  1  0
  3  4  1  0
  4  5  1  0
  4  6  1  0
  6  7  1  0
  7  8  1  0
  8  9  1  0
  9 10  1  0
 10 11  2  0
 11 12  1  0
 12 13  1  0
 12 14  2  0
 14 15  1  0
 15 16  2  0
 16 17  1  0
 16 10  1  0
  1 18  1  0
  3 19  1  0
  3 20  1  0
  5 21  1  0
  5 22  1  0
  5 23  1  0
  6 24  1  0
  6 25  1  0
  7 26  1  0
  7 27  1  0
  8 28  1  0
  8 29  1  0
 11 30  1  0
 14 31  1  0
 15 32  1  0
M  END
$$$$
