
     RDKit          3D

 54 57  0  0  0  0  0  0  0  0999 V2000
    4.7814    1.4586    4.5476 C   0  0  0  0  0  0  0  0  0  0  0  0
    3.7677    0.7041    3.7028 C   0  0  0  0  0  0  0  0  0  0  0  0
    4.3194    0.3265    2.3356 C   0  0  0  0  0  0  0  0  0  0  0  0
    5.4973    0.5218    2.0382 O   0  0  0  0  0  0  0  0  0  0  0  0
    3.4268   -0.2550    1.4473 N   0  0  0  0  0  0  0  0  0  0  0  0
    2.0199   -0.5506    1.7493 C   0  0  0  0  0  0  0  0  0  0  0  0
    1.4089   -1.5712    0.7736 C   0  0  0  0  0  0  0  0  0  0  0  0
    1.5152   -1.0939   -0.6290 N   0  0  0  0  0  0  0  0  0  0  0  0
    1.1468   -2.1241   -1.5364 C   0  0  0  0  0  0  0  0  0  0  0  0
    2.0157   -3.1683   -1.8829 C   0  0  0  0  0  0  0  0  0  0  0  0
    1.5949   -4.1774   -2.7507 C   0  0  0  0  0  0  0  0  0  0  0  0
    0.3029   -4.1508   -3.2732 C   0  0  0  0  0  0  0  0  0  0  0  0
   -0.2010   -5.4034   -4.3421 Cl  0  0  0  0  0  0  0  0  0  0  0  0
   -0.5810   -3.1251   -2.9418 C   0  0  0  0  0  0  0  0  0  0  0  0
   -0.1650   -2.1133   -2.0766 C   0  0  0  0  0  0  0  0  0  0  0  0
   -0.9691   -1.0185   -1.6950 N   0  0  0  0  0  0  0  0  0  0  0  0
   -2.2945   -0.7872   -1.9853 C   0  0  0  0  0  0  0  0  0  0  0  0
   -3.0504   -1.5395   -2.5877 O   0  0  0  0  0  0  0  0  0  0  0  0
   -2.8350    0.4972   -1.4550 C   0  0  0  0  0  0  0  0  0  0  0  0
   -2.0437    1.6535   -1.3721 C   0  0  0  0  0  0  0  0  0  0  0  0
   -2.5838    2.8345   -0.8564 C   0  0  0  0  0  0  0  0  0  0  0  0
   -3.9099    2.8634   -0.4283 C   0  0  0  0  0  0  0  0  0  0  0  0
   -4.7129    1.7246   -0.5520 C   0  0  0  0  0  0  0  0  0  0  0  0
   -4.1769    0.5408   -1.0556 C   0  0  0  0  0  0  0  0  0  0  0  0
   -6.0349    1.6971   -0.1878 O   0  0  0  0  0  0  0  0  0  0  0  0
   -6.5596    3.0199   -0.0282 C   0  0  0  0  0  0  0  0  0  0  0  0
   -5.6037    3.8782    0.7840 C   0  0  0  0  0  0  0  0  0  0  0  0
   -4.3620    4.0495    0.0903 O   0  0  0  0  0  0  0  0  0  0  0  0
    2.7864   -0.3984   -0.9649 C   0  0  0  0  0  0  0  0  0  0  0  0
    3.8844   -0.5949    0.0945 C   0  0  0  0  0  0  0  0  0  0  0  0
    5.6720    0.8490    4.7317 H   0  0  0  0  0  0  0  0  0  0  0  0
    4.3464    1.7282    5.5143 H   0  0  0  0  0  0  0  0  0  0  0  0
    5.1018    2.3783    4.0478 H   0  0  0  0  0  0  0  0  0  0  0  0
    3.4793   -0.2114    4.2297 H   0  0  0  0  0  0  0  0  0  0  0  0
    2.8816    1.3331    3.5682 H   0  0  0  0  0  0  0  0  0  0  0  0
    1.4758    0.3995    1.6891 H   0  0  0  0  0  0  0  0  0  0  0  0
    1.9328   -0.9252    2.7734 H   0  0  0  0  0  0  0  0  0  0  0  0
    1.9270   -2.5314    0.8996 H   0  0  0  0  0  0  0  0  0  0  0  0
    0.3538   -1.7233    1.0305 H   0  0  0  0  0  0  0  0  0  0  0  0
    3.0196   -3.2156   -1.4729 H   0  0  0  0  0  0  0  0  0  0  0  0
    2.2758   -4.9830   -3.0119 H   0  0  0  0  0  0  0  0  0  0  0  0
   -1.5771   -3.1280   -3.3706 H   0  0  0  0  0  0  0  0  0  0  0  0
   -0.4692   -0.3791   -1.0838 H   0  0  0  0  0  0  0  0  0  0  0  0
   -1.0157    1.6581   -1.7252 H   0  0  0  0  0  0  0  0  0  0  0  0
   -1.9723    3.7307   -0.7871 H   0  0  0  0  0  0  0  0  0  0  0  0
   -4.8048   -0.3426   -1.1433 H   0  0  0  0  0  0  0  0  0  0  0  0
   -7.5221    2.9350    0.4861 H   0  0  0  0  0  0  0  0  0  0  0  0
   -6.7388    3.4478   -1.0223 H   0  0  0  0  0  0  0  0  0  0  0  0
   -5.3959    3.4303    1.7637 H   0  0  0  0  0  0  0  0  0  0  0  0
   -6.0326    4.8721    0.9465 H   0  0  0  0  0  0  0  0  0  0  0  0
    2.5493    0.6716   -1.0207 H   0  0  0  0  0  0  0  0  0  0  0  0
    3.1671   -0.6772   -1.9552 H   0  0  0  0  0  0  0  0  0  0  0  0
    4.7615    0.0033   -0.1742 H   0  0  0  0  0  0  0  0  0  0  0  0
    4.2004   -1.6443    0.1243 H   0  0  0  0  0  0  0  0  0  0  0  0
  1  2  1  0
  2  3  1  0
  3  4  2  0
  3  5  1  0
  5  6  1  0
  6  7  1  0
  7  8  1  0
  8  9  1  0
  9 10  2  0
 10 11  1  0
 11 12  2  0
 12 13  1  0
 12 14  1  0
 14 15  2  0
 15 16  1  0
 16 17  1  0
 17 18  2  0
 17 19  1  0
 19 20  2  0
 20 21  1  0
 21 22  2  0
 22 23  1  0
 23 24  2  0
 23 25  1  0
 25 26  1  0
 26 27  1  0
 27 28  1  0
  8 29  1  0
 29 30  1  0
 30  5  1  0
 15  9  1  0
 24 19  1  0
 28 22  1  0
  1 31  1  0
  1 32  1  0
  1 33  1  0
  2 34  1  0
  2 35  1  0
  6 36  1  0
  6 37  1  0
  7 38  1  0
  7 39  1  0
 10 40  1  0
 11 41  1  0
 14 42  1  0
 16 43  1  0
 20 44  1  0
 21 45  1  0
 24 46  1  0
 26 47  1  0
 26 48  1  0
 27 49  1  0
 27 50  1  0
 29 51  1  0
 29 52  1  0
 30 53  1  0
 30 54  1  0
M  END
$$$$
