
     RDKit          3D

 62 66  0  0  0  0  0  0  0  0999 V2000
   -3.8788    5.7836   -2.9953 C   0  0  0  0  0  0  0  0  0  0  0  0
   -3.1261    4.8099   -2.2831 O   0  0  0  0  0  0  0  0  0  0  0  0
   -3.8005    3.7022   -1.8464 C   0  0  0  0  0  0  0  0  0  0  0  0
   -5.1476    3.4344   -2.0468 C   0  0  0  0  0  0  0  0  0  0  0  0
   -5.7234    2.2610   -1.5463 C   0  0  0  0  0  0  0  0  0  0  0  0
   -4.9207    1.3476   -0.8360 C   0  0  0  0  0  0  0  0  0  0  0  0
   -5.4228   -0.1388   -0.1383 S   0  0  0  0  0  0  0  0  0  0  0  0
   -3.8569   -0.4931    0.4519 C   0  0  0  0  0  0  0  0  0  0  0  0
   -3.6569   -1.7536    1.1831 C   0  0  0  0  0  0  0  0  0  0  0  0
   -4.1684   -1.8727    2.4870 C   0  0  0  0  0  0  0  0  0  0  0  0
   -3.9772   -3.0417    3.2222 C   0  0  0  0  0  0  0  0  0  0  0  0
   -3.2755   -4.1043    2.6611 C   0  0  0  0  0  0  0  0  0  0  0  0
   -2.7607   -4.0011    1.3663 C   0  0  0  0  0  0  0  0  0  0  0  0
   -2.9368   -2.8277    0.6224 C   0  0  0  0  0  0  0  0  0  0  0  0
   -2.4808   -2.6675   -0.6628 O   0  0  0  0  0  0  0  0  0  0  0  0
   -1.3842   -3.4843   -1.0517 C   0  0  0  0  0  0  0  0  0  0  0  0
   -2.9512    0.5055    0.1283 C   0  0  0  0  0  0  0  0  0  0  0  0
   -1.5450    0.4229    0.5116 C   0  0  0  0  0  0  0  0  0  0  0  0
   -0.5631    0.2557   -0.4712 C   0  0  0  0  0  0  0  0  0  0  0  0
    0.7889    0.1793   -0.1184 C   0  0  0  0  0  0  0  0  0  0  0  0
    1.1690    0.2720    1.2208 C   0  0  0  0  0  0  0  0  0  0  0  0
    2.4483    0.2116    1.7006 O   0  0  0  0  0  0  0  0  0  0  0  0
    3.5008    0.0891    0.7379 C   0  0  0  0  0  0  0  0  0  0  0  0
    4.8393    0.0714    1.4973 C   0  0  0  0  0  0  0  0  0  0  0  0
    6.0764   -0.0401    0.7234 N   0  0  0  0  0  0  0  0  0  0  0  0
    6.3351    1.0616   -0.1967 C   0  0  0  0  0  0  0  0  0  0  0  0
    7.5229    0.5505   -1.0006 C   0  0  0  0  0  0  0  0  0  0  0  0
    7.4454   -0.9713   -0.9084 C   0  0  0  0  0  0  0  0  0  0  0  0
    6.2099   -1.2583   -0.0666 C   0  0  0  0  0  0  0  0  0  0  0  0
    0.1871    0.4408    2.2007 C   0  0  0  0  0  0  0  0  0  0  0  0
   -1.1635    0.5197    1.8521 C   0  0  0  0  0  0  0  0  0  0  0  0
   -3.5624    1.5822   -0.6209 C   0  0  0  0  0  0  0  0  0  0  0  0
   -3.0139    2.7856   -1.1384 C   0  0  0  0  0  0  0  0  0  0  0  0
   -3.2005    6.5987   -3.2651 H   0  0  0  0  0  0  0  0  0  0  0  0
   -4.6727    6.2045   -2.3694 H   0  0  0  0  0  0  0  0  0  0  0  0
   -4.2846    5.3674   -3.9233 H   0  0  0  0  0  0  0  0  0  0  0  0
   -5.7916    4.1178   -2.5905 H   0  0  0  0  0  0  0  0  0  0  0  0
   -6.7790    2.0583   -1.7052 H   0  0  0  0  0  0  0  0  0  0  0  0
   -4.7161   -1.0469    2.9360 H   0  0  0  0  0  0  0  0  0  0  0  0
   -4.3778   -3.1225    4.2292 H   0  0  0  0  0  0  0  0  0  0  0  0
   -3.1322   -5.0199    3.2295 H   0  0  0  0  0  0  0  0  0  0  0  0
   -2.2380   -4.8591    0.9570 H   0  0  0  0  0  0  0  0  0  0  0  0
   -1.7117   -4.5124   -1.2353 H   0  0  0  0  0  0  0  0  0  0  0  0
   -0.5748   -3.4528   -0.3141 H   0  0  0  0  0  0  0  0  0  0  0  0
   -0.9910   -3.0883   -1.9930 H   0  0  0  0  0  0  0  0  0  0  0  0
   -0.8486    0.1734   -1.5178 H   0  0  0  0  0  0  0  0  0  0  0  0
    1.5137    0.0455   -0.9137 H   0  0  0  0  0  0  0  0  0  0  0  0
    3.4703    0.9447    0.0546 H   0  0  0  0  0  0  0  0  0  0  0  0
    3.3757   -0.8460    0.1812 H   0  0  0  0  0  0  0  0  0  0  0  0
    4.8107   -0.7492    2.2269 H   0  0  0  0  0  0  0  0  0  0  0  0
    4.8969    0.9757    2.1180 H   0  0  0  0  0  0  0  0  0  0  0  0
    5.4930    1.2463   -0.8733 H   0  0  0  0  0  0  0  0  0  0  0  0
    6.5752    1.9925    0.3262 H   0  0  0  0  0  0  0  0  0  0  0  0
    7.4825    0.8955   -2.0388 H   0  0  0  0  0  0  0  0  0  0  0  0
    8.4669    0.9006   -0.5668 H   0  0  0  0  0  0  0  0  0  0  0  0
    8.3474   -1.3590   -0.4204 H   0  0  0  0  0  0  0  0  0  0  0  0
    7.3741   -1.4342   -1.8979 H   0  0  0  0  0  0  0  0  0  0  0  0
    5.3516   -1.4229   -0.7277 H   0  0  0  0  0  0  0  0  0  0  0  0
    6.3472   -2.1465    0.5579 H   0  0  0  0  0  0  0  0  0  0  0  0
    0.4760    0.5137    3.2463 H   0  0  0  0  0  0  0  0  0  0  0  0
   -1.9089    0.6560    2.6312 H   0  0  0  0  0  0  0  0  0  0  0  0
   -1.9602    3.0050   -0.9804 H   0  0  0  0  0  0  0  0  0  0  0  0
  1  2  1  0
  2  3  1  0
  3  4  2  0
  4  5  1  0
  5  6  2  0
  6  7  1  0
  7  8  1  0
  8  9  1  0
  9 10  2  0
 10 11  1  0
 11 12  2  0
 12 13  1  0
 13 14  2  0
 14 15  1  0
 15 16  1  0
  8 17  2  0
 17 18  1  0
 18 19  2  0
 19 20  1  0
 20 21  2  0
 21 22  1  0
 22 23  1  0
 23 24  1  0
 24 25  1  0
 25 26  1  0
 26 27  1  0
 27 28  1  0
 28 29  1  0
 21 30  1  0
 30 31  2  0
 17 32  1  0
 32 33  2  0
 33  3  1  0
 32  6  1  0
 14  9  1  0
 31 18  1  0
 29 25  1  0
  1 34  1  0
  1 35  1  0
  1 36  1  0
  4 37  1  0
  5 38  1  0
 10 39  1  0
 11 40  1  0
 12 41  1  0
 13 42  1  0
 16 43  1  0
 16 44  1  0
 16 45  1  0
 19 46  1  0
 20 47  1  0
 23 48  1  0
 23 49  1  0
 24 50  1  0
 24 51  1  0
 26 52  1  0
 26 53  1  0
 27 54  1  0
 27 55  1  0
 28 56  1  0
 28 57  1  0
 29 58  1  0
 29 59  1  0
 30 60  1  0
 31 61  1  0
 33 62  1  0
M  END
$$$$
