
     RDKit          3D

 62 66  0  0  0  0  0  0  0  0999 V2000
   -4.8321    6.1198   -2.6359 C   0  0  0  0  0  0  0  0  0  0  0  0
   -3.8604    5.1190   -2.3635 O   0  0  0  0  0  0  0  0  0  0  0  0
   -4.3231    3.9119   -1.9157 C   0  0  0  0  0  0  0  0  0  0  0  0
   -5.6556    3.5517   -1.7710 C   0  0  0  0  0  0  0  0  0  0  0  0
   -6.0036    2.2816   -1.2991 C   0  0  0  0  0  0  0  0  0  0  0  0
   -4.9855    1.3648   -0.9744 C   0  0  0  0  0  0  0  0  0  0  0  0
   -5.1925   -0.2341   -0.3847 S   0  0  0  0  0  0  0  0  0  0  0  0
   -3.5077   -0.5107   -0.2902 C   0  0  0  0  0  0  0  0  0  0  0  0
   -3.0451   -1.8263    0.1738 C   0  0  0  0  0  0  0  0  0  0  0  0
   -2.5640   -2.7448   -0.7739 C   0  0  0  0  0  0  0  0  0  0  0  0
   -2.1114   -4.0023   -0.3782 C   0  0  0  0  0  0  0  0  0  0  0  0
   -2.1310   -4.3519    0.9689 C   0  0  0  0  0  0  0  0  0  0  0  0
   -2.6005   -3.4460    1.9242 C   0  0  0  0  0  0  0  0  0  0  0  0
   -3.0652   -2.1839    1.5369 C   0  0  0  0  0  0  0  0  0  0  0  0
   -3.5036   -1.2325    2.4245 O   0  0  0  0  0  0  0  0  0  0  0  0
   -4.0119   -1.7095    3.6621 C   0  0  0  0  0  0  0  0  0  0  0  0
   -2.7823    0.5896   -0.7205 C   0  0  0  0  0  0  0  0  0  0  0  0
   -1.3228    0.5766   -0.7647 C   0  0  0  0  0  0  0  0  0  0  0  0
   -0.5729    0.4890    0.4137 C   0  0  0  0  0  0  0  0  0  0  0  0
    0.8258    0.4681    0.3646 C   0  0  0  0  0  0  0  0  0  0  0  0
    1.4840    0.5297   -0.8637 C   0  0  0  0  0  0  0  0  0  0  0  0
    2.8378    0.5084   -1.0531 O   0  0  0  0  0  0  0  0  0  0  0  0
    3.6501    0.2310    0.0923 C   0  0  0  0  0  0  0  0  0  0  0  0
    5.1072    0.1226   -0.3832 C   0  0  0  0  0  0  0  0  0  0  0  0
    6.0625   -0.1520    0.6967 N   0  0  0  0  0  0  0  0  0  0  0  0
    7.4448   -0.1230    0.2091 C   0  0  0  0  0  0  0  0  0  0  0  0
    8.2176   -0.7704    1.3476 C   0  0  0  0  0  0  0  0  0  0  0  0
    7.2239   -1.7155    2.0108 C   0  0  0  0  0  0  0  0  0  0  0  0
    5.9046   -1.4861    1.2840 C   0  0  0  0  0  0  0  0  0  0  0  0
    0.7342    0.6327   -2.0383 C   0  0  0  0  0  0  0  0  0  0  0  0
   -0.6617    0.6575   -1.9937 C   0  0  0  0  0  0  0  0  0  0  0  0
   -3.6360    1.6905   -1.1135 C   0  0  0  0  0  0  0  0  0  0  0  0
   -3.3208    2.9899   -1.5912 C   0  0  0  0  0  0  0  0  0  0  0  0
   -4.3013    7.0270   -2.9400 H   0  0  0  0  0  0  0  0  0  0  0  0
   -5.4147    6.3603   -1.7403 H   0  0  0  0  0  0  0  0  0  0  0  0
   -5.4836    5.8207   -3.4633 H   0  0  0  0  0  0  0  0  0  0  0  0
   -6.4618    4.2349   -2.0156 H   0  0  0  0  0  0  0  0  0  0  0  0
   -7.0487    2.0077   -1.1839 H   0  0  0  0  0  0  0  0  0  0  0  0
   -2.5410   -2.4780   -1.8285 H   0  0  0  0  0  0  0  0  0  0  0  0
   -1.7383   -4.7034   -1.1200 H   0  0  0  0  0  0  0  0  0  0  0  0
   -1.7707   -5.3289    1.2806 H   0  0  0  0  0  0  0  0  0  0  0  0
   -2.5766   -3.7454    2.9669 H   0  0  0  0  0  0  0  0  0  0  0  0
   -4.7349   -2.5170    3.5184 H   0  0  0  0  0  0  0  0  0  0  0  0
   -4.5334   -0.8802    4.1505 H   0  0  0  0  0  0  0  0  0  0  0  0
   -3.1973   -2.0256    4.3193 H   0  0  0  0  0  0  0  0  0  0  0  0
   -1.0729    0.4351    1.3789 H   0  0  0  0  0  0  0  0  0  0  0  0
    1.3666    0.4059    1.3027 H   0  0  0  0  0  0  0  0  0  0  0  0
    3.5609    1.0473    0.8200 H   0  0  0  0  0  0  0  0  0  0  0  0
    3.3350   -0.7156    0.5469 H   0  0  0  0  0  0  0  0  0  0  0  0
    5.3684    1.0758   -0.8621 H   0  0  0  0  0  0  0  0  0  0  0  0
    5.1731   -0.6348   -1.1766 H   0  0  0  0  0  0  0  0  0  0  0  0
    7.7961    0.8962    0.0146 H   0  0  0  0  0  0  0  0  0  0  0  0
    7.5648   -0.7208   -0.7024 H   0  0  0  0  0  0  0  0  0  0  0  0
    9.1055   -1.2972    0.9877 H   0  0  0  0  0  0  0  0  0  0  0  0
    8.5519   -0.0160    2.0715 H   0  0  0  0  0  0  0  0  0  0  0  0
    7.5445   -2.7594    1.9293 H   0  0  0  0  0  0  0  0  0  0  0  0
    7.1346   -1.4740    3.0767 H   0  0  0  0  0  0  0  0  0  0  0  0
    5.7742   -2.2558    0.5112 H   0  0  0  0  0  0  0  0  0  0  0  0
    5.0588   -1.5387    1.9775 H   0  0  0  0  0  0  0  0  0  0  0  0
    1.2425    0.6877   -2.9973 H   0  0  0  0  0  0  0  0  0  0  0  0
   -1.2254    0.7328   -2.9209 H   0  0  0  0  0  0  0  0  0  0  0  0
   -2.2790    3.2825   -1.7023 H   0  0  0  0  0  0  0  0  0  0  0  0
  1  2  1  0
  2  3  1  0
  3  4  2  0
  4  5  1  0
  5  6  2  0
  6  7  1  0
  7  8  1  0
  8  9  1  0
  9 10  2  0
 10 11  1  0
 11 12  2  0
 12 13  1  0
 13 14  2  0
 14 15  1  0
 15 16  1  0
  8 17  2  0
 17 18  1  0
 18 19  2  0
 19 20  1  0
 20 21  2  0
 21 22  1  0
 22 23  1  0
 23 24  1  0
 24 25  1  0
 25 26  1  0
 26 27  1  0
 27 28  1  0
 28 29  1  0
 21 30  1  0
 30 31  2  0
 17 32  1  0
 32 33  2  0
 33  3  1  0
 32  6  1  0
 14  9  1  0
 31 18  1  0
 29 25  1  0
  1 34  1  0
  1 35  1  0
  1 36  1  0
  4 37  1  0
  5 38  1  0
 10 39  1  0
 11 40  1  0
 12 41  1  0
 13 42  1  0
 16 43  1  0
 16 44  1  0
 16 45  1  0
 19 46  1  0
 20 47  1  0
 23 48  1  0
 23 49  1  0
 24 50  1  0
 24 51  1  0
 26 52  1  0
 26 53  1  0
 27 54  1  0
 27 55  1  0
 28 56  1  0
 28 57  1  0
 29 58  1  0
 29 59  1  0
 30 60  1  0
 31 61  1  0
 33 62  1  0
M  END
$$$$
