
     RDKit          3D

 38 38  0  0  0  0  0  0  0  0999 V2000
    5.6954    1.3668    3.6831 C   0  0  0  0  0  0  0  0  0  0  0  0
    5.9146    1.1361    2.2982 O   0  0  0  0  0  0  0  0  0  0  0  0
    4.7467    1.3457    1.5021 C   0  0  0  0  0  0  0  0  0  0  0  0
    3.8778    0.0847    1.4428 C   0  0  0  0  0  0  0  0  0  0  0  0
    2.6004    0.2997    0.7859 N   0  0  0  0  0  0  0  0  0  0  0  0
    2.5073    0.4088   -0.5851 C   0  0  0  0  0  0  0  0  0  0  0  0
    3.4688    0.3289   -1.3388 O   0  0  0  0  0  0  0  0  0  0  0  0
    1.1345    0.6816   -1.1001 C   0  0  0  0  0  0  0  0  0  0  0  0
    1.0157    1.7538   -2.0228 C   0  0  0  0  0  0  0  0  0  0  0  0
    0.8935    2.6498   -2.7516 N   0  0  0  0  0  0  0  0  0  0  0  0
    0.1447   -0.1459   -0.7044 C   0  0  0  0  0  0  0  0  0  0  0  0
   -1.2895   -0.1690   -1.0203 C   0  0  0  0  0  0  0  0  0  0  0  0
   -1.9001    0.9535   -1.8244 C   0  0  0  0  0  0  0  0  0  0  0  0
   -2.0211   -1.2031   -0.5501 C   0  0  0  0  0  0  0  0  0  0  0  0
   -3.4567   -1.4033   -0.7695 C   0  0  0  0  0  0  0  0  0  0  0  0
   -3.9209   -1.9380   -1.9763 C   0  0  0  0  0  0  0  0  0  0  0  0
   -5.2891   -2.1268   -2.1793 C   0  0  0  0  0  0  0  0  0  0  0  0
   -6.1969   -1.7840   -1.1779 C   0  0  0  0  0  0  0  0  0  0  0  0
   -5.7389   -1.2523    0.0272 C   0  0  0  0  0  0  0  0  0  0  0  0
   -4.3710   -1.0625    0.2325 C   0  0  0  0  0  0  0  0  0  0  0  0
    6.6347    1.1865    4.2129 H   0  0  0  0  0  0  0  0  0  0  0  0
    4.9382    0.6853    4.0800 H   0  0  0  0  0  0  0  0  0  0  0  0
    5.3950    2.4049    3.8545 H   0  0  0  0  0  0  0  0  0  0  0  0
    4.1774    2.2067    1.8733 H   0  0  0  0  0  0  0  0  0  0  0  0
    5.0865    1.6030    0.4931 H   0  0  0  0  0  0  0  0  0  0  0  0
    4.4201   -0.7113    0.9191 H   0  0  0  0  0  0  0  0  0  0  0  0
    3.6602   -0.2892    2.4480 H   0  0  0  0  0  0  0  0  0  0  0  0
    1.7947    0.5013    1.3647 H   0  0  0  0  0  0  0  0  0  0  0  0
    0.4441   -0.9669   -0.0473 H   0  0  0  0  0  0  0  0  0  0  0  0
   -2.9904    0.8950   -1.8914 H   0  0  0  0  0  0  0  0  0  0  0  0
   -1.6811    1.9223   -1.3632 H   0  0  0  0  0  0  0  0  0  0  0  0
   -1.5218    0.9410   -2.8515 H   0  0  0  0  0  0  0  0  0  0  0  0
   -1.5688   -1.9979    0.0405 H   0  0  0  0  0  0  0  0  0  0  0  0
   -3.2219   -2.2074   -2.7645 H   0  0  0  0  0  0  0  0  0  0  0  0
   -5.6463   -2.5400   -3.1190 H   0  0  0  0  0  0  0  0  0  0  0  0
   -7.2623   -1.9302   -1.3375 H   0  0  0  0  0  0  0  0  0  0  0  0
   -6.4476   -0.9837    0.8063 H   0  0  0  0  0  0  0  0  0  0  0  0
   -4.0261   -0.6437    1.1746 H   0  0  0  0  0  0  0  0  0  0  0  0
  1  2  1  0
  2  3  1  0
  3  4  1  0
  4  5  1  0
  5  6  1  0
  6  7  2  0
  6  8  1  0
  8  9  1  0
  9 10  3  0
  8 11  2  3
 11 12  1  0
 12 13  1  0
 12 14  2  3
 14 15  1  0
 15 16  2  0
 16 17  1  0
 17 18  2  0
 18 19  1  0
 19 20  2  0
 20 15  1  0
  1 21  1  0
  1 22  1  0
  1 23  1  0
  3 24  1  0
  3 25  1  0
  4 26  1  0
  4 27  1  0
  5 28  1  0
 11 29  1  0
 13 30  1  0
 13 31  1  0
 13 32  1  0
 14 33  1  0
 16 34  1  0
 17 35  1  0
 18 36  1  0
 19 37  1  0
 20 38  1  0
M  END
$$$$
