
     RDKit          3D

 43 43  0  0  0  0  0  0  0  0999 V2000
   -5.8446    1.7663    0.3302 C   0  0  0  0  0  0  0  0  0  0  0  0
   -4.6320    2.2768    1.0450 C   0  0  0  0  0  0  0  0  0  0  0  0
   -4.4730    4.0101    1.0200 Cl  0  0  0  0  0  0  0  0  0  0  0  0
   -3.6839    1.5663    1.6799 C   0  0  0  0  0  0  0  0  0  0  0  0
   -3.6456    0.0879    1.8941 C   0  0  0  0  0  0  0  0  0  0  0  0
   -2.6161   -0.6887    1.0554 N   0  0  0  0  0  4  0  0  0  0  0  0
   -2.6429   -2.1471    1.5372 C   0  0  0  0  0  0  0  0  0  0  0  0
   -2.9952   -0.6579   -0.4214 C   0  0  0  0  0  0  0  0  0  0  0  0
   -1.1814   -0.0772    1.2527 C   0  0  0  0  0  0  0  0  0  0  0  0
   -0.0197   -0.7686    0.5389 C   0  0  0  0  0  0  0  0  0  0  0  0
   -0.0545   -1.9015    0.0764 O   0  0  0  0  0  0  0  0  0  0  0  0
    1.0541    0.0681    0.4972 O   0  0  0  0  0  0  0  0  0  0  0  0
    2.2019   -0.4503   -0.2014 C   0  0  0  0  0  0  0  0  0  0  0  0
    3.2318    0.6740   -0.3354 C   0  0  0  0  0  0  0  0  0  0  0  0
    4.4418    0.2551   -1.1266 C   0  0  0  0  0  0  0  0  0  0  0  0
    5.6578   -0.0086   -0.4796 C   0  0  0  0  0  0  0  0  0  0  0  0
    6.7801   -0.3983   -1.2129 C   0  0  0  0  0  0  0  0  0  0  0  0
    6.6975   -0.5325   -2.5968 C   0  0  0  0  0  0  0  0  0  0  0  0
    5.4933   -0.2754   -3.2498 C   0  0  0  0  0  0  0  0  0  0  0  0
    4.3700    0.1187   -2.5203 C   0  0  0  0  0  0  0  0  0  0  0  0
   -5.9265    2.2250   -0.6607 H   0  0  0  0  0  0  0  0  0  0  0  0
   -6.7507    2.0048    0.8985 H   0  0  0  0  0  0  0  0  0  0  0  0
   -5.8199    0.6840    0.1770 H   0  0  0  0  0  0  0  0  0  0  0  0
   -2.8864    2.1259    2.1716 H   0  0  0  0  0  0  0  0  0  0  0  0
   -4.6205   -0.3715    1.6981 H   0  0  0  0  0  0  0  0  0  0  0  0
   -3.4067   -0.1101    2.9477 H   0  0  0  0  0  0  0  0  0  0  0  0
   -3.6879   -2.4826    1.5440 H   0  0  0  0  0  0  0  0  0  0  0  0
   -2.0769   -2.7764    0.8470 H   0  0  0  0  0  0  0  0  0  0  0  0
   -2.2204   -2.1823    2.5457 H   0  0  0  0  0  0  0  0  0  0  0  0
   -4.0224   -1.0219   -0.5250 H   0  0  0  0  0  0  0  0  0  0  0  0
   -2.9156    0.3705   -0.7904 H   0  0  0  0  0  0  0  0  0  0  0  0
   -2.3185   -1.3112   -0.9780 H   0  0  0  0  0  0  0  0  0  0  0  0
   -0.9877   -0.0742    2.3282 H   0  0  0  0  0  0  0  0  0  0  0  0
   -1.2376    0.9498    0.8737 H   0  0  0  0  0  0  0  0  0  0  0  0
    1.8960   -0.8168   -1.1880 H   0  0  0  0  0  0  0  0  0  0  0  0
    2.6229   -1.2812    0.3785 H   0  0  0  0  0  0  0  0  0  0  0  0
    3.5321    0.9971    0.6706 H   0  0  0  0  0  0  0  0  0  0  0  0
    2.7773    1.5629   -0.7964 H   0  0  0  0  0  0  0  0  0  0  0  0
    5.7462    0.0884    0.6032 H   0  0  0  0  0  0  0  0  0  0  0  0
    7.7205   -0.5998   -0.7041 H   0  0  0  0  0  0  0  0  0  0  0  0
    7.5729   -0.8365   -3.1664 H   0  0  0  0  0  0  0  0  0  0  0  0
    5.4308   -0.3816   -4.3315 H   0  0  0  0  0  0  0  0  0  0  0  0
    3.4396    0.3203   -3.0541 H   0  0  0  0  0  0  0  0  0  0  0  0
  1  2  1  0
  2  3  1  0
  2  4  2  3
  4  5  1  0
  5  6  1  0
  6  7  1  0
  6  8  1  0
  6  9  1  0
  9 10  1  0
 10 11  2  0
 10 12  1  0
 12 13  1  0
 13 14  1  0
 14 15  1  0
 15 16  2  0
 16 17  1  0
 17 18  2  0
 18 19  1  0
 19 20  2  0
 20 15  1  0
  1 21  1  0
  1 22  1  0
  1 23  1  0
  4 24  1  0
  5 25  1  0
  5 26  1  0
  7 27  1  0
  7 28  1  0
  7 29  1  0
  8 30  1  0
  8 31  1  0
  8 32  1  0
  9 33  1  0
  9 34  1  0
 13 35  1  0
 13 36  1  0
 14 37  1  0
 14 38  1  0
 16 39  1  0
 17 40  1  0
 18 41  1  0
 19 42  1  0
 20 43  1  0
M  CHG  1   6   1
M  END
$$$$
