
     RDKit          3D

 44 44  0  0  0  0  0  0  0  0999 V2000
   -4.3007   -1.1455    0.5830 C   0  0  0  0  0  0  0  0  0  0  0  0
   -4.3466   -0.3425   -0.7102 C   0  0  0  0  0  0  0  0  0  0  0  0
   -3.7310    0.9823   -0.5475 N   0  0  0  0  0  0  0  0  0  0  0  0
   -4.6393    2.1354   -0.5835 C   0  0  0  0  0  0  0  0  0  0  0  0
   -5.1935    2.4433    0.7993 C   0  0  0  0  0  0  0  0  0  0  0  0
   -2.3511    1.1473   -0.4489 C   0  0  0  0  0  0  0  0  0  0  0  0
   -1.7698    2.3595   -0.0373 C   0  0  0  0  0  0  0  0  0  0  0  0
   -0.3823    2.5355    0.0530 C   0  0  0  0  0  0  0  0  0  0  0  0
    0.4783    1.4889   -0.2547 C   0  0  0  0  0  0  0  0  0  0  0  0
   -0.0551    0.2653   -0.6372 C   0  0  0  0  0  0  0  0  0  0  0  0
    0.6886   -0.8330   -0.9759 O   0  0  0  0  0  0  0  0  0  0  0  0
    1.8576   -1.0526   -0.1943 C   0  0  0  0  0  0  0  0  0  0  0  0
    3.1646   -0.5095   -0.7984 C   0  0  0  0  0  0  0  0  0  0  0  0
    3.1779    0.0661   -1.8886 O   0  0  0  0  0  0  0  0  0  0  0  0
    4.3373   -0.6607   -0.0472 N   0  0  0  0  0  0  0  0  0  0  0  0
    5.5643   -0.1055   -0.6062 C   0  0  0  0  0  0  0  0  0  0  0  0
    4.4691   -1.4831    1.1649 C   0  0  0  0  0  0  0  0  0  0  0  0
    5.2293   -2.7970    0.9613 C   0  0  0  0  0  0  0  0  0  0  0  0
    4.4293   -3.7770    0.2209 C   0  0  0  0  0  0  0  0  0  0  0  0
    3.7840   -4.5588   -0.3427 N   0  0  0  0  0  0  0  0  0  0  0  0
   -1.4454    0.1134   -0.7495 C   0  0  0  0  0  0  0  0  0  0  0  0
   -4.7995   -0.6113    1.3977 H   0  0  0  0  0  0  0  0  0  0  0  0
   -3.2750   -1.3528    0.9016 H   0  0  0  0  0  0  0  0  0  0  0  0
   -4.8087   -2.1056    0.4470 H   0  0  0  0  0  0  0  0  0  0  0  0
   -5.4007   -0.2356   -0.9955 H   0  0  0  0  0  0  0  0  0  0  0  0
   -3.8866   -0.8977   -1.5350 H   0  0  0  0  0  0  0  0  0  0  0  0
   -4.1571    3.0223   -1.0108 H   0  0  0  0  0  0  0  0  0  0  0  0
   -5.4782    1.9275   -1.2599 H   0  0  0  0  0  0  0  0  0  0  0  0
   -4.3951    2.6379    1.5221 H   0  0  0  0  0  0  0  0  0  0  0  0
   -5.7910    1.6083    1.1785 H   0  0  0  0  0  0  0  0  0  0  0  0
   -5.8395    3.3258    0.7588 H   0  0  0  0  0  0  0  0  0  0  0  0
   -2.3875    3.2098    0.2345 H   0  0  0  0  0  0  0  0  0  0  0  0
    0.0198    3.4988    0.3553 H   0  0  0  0  0  0  0  0  0  0  0  0
    1.5483    1.6602   -0.2182 H   0  0  0  0  0  0  0  0  0  0  0  0
    1.9639   -2.1394   -0.1203 H   0  0  0  0  0  0  0  0  0  0  0  0
    1.7285   -0.6660    0.8242 H   0  0  0  0  0  0  0  0  0  0  0  0
    6.0780   -0.8867   -1.1738 H   0  0  0  0  0  0  0  0  0  0  0  0
    6.2076    0.2476    0.2049 H   0  0  0  0  0  0  0  0  0  0  0  0
    5.3575    0.7360   -1.2737 H   0  0  0  0  0  0  0  0  0  0  0  0
    3.4880   -1.6869    1.6012 H   0  0  0  0  0  0  0  0  0  0  0  0
    5.0091   -0.8694    1.8962 H   0  0  0  0  0  0  0  0  0  0  0  0
    6.1825   -2.6255    0.4503 H   0  0  0  0  0  0  0  0  0  0  0  0
    5.4703   -3.2155    1.9459 H   0  0  0  0  0  0  0  0  0  0  0  0
   -1.8001   -0.8537   -1.0910 H   0  0  0  0  0  0  0  0  0  0  0  0
  1  2  1  0
  2  3  1  0
  3  4  1  0
  4  5  1  0
  3  6  1  0
  6  7  2  0
  7  8  1  0
  8  9  2  0
  9 10  1  0
 10 11  1  0
 11 12  1  0
 12 13  1  0
 13 14  2  0
 13 15  1  0
 15 16  1  0
 15 17  1  0
 17 18  1  0
 18 19  1  0
 19 20  3  0
 10 21  2  0
 21  6  1  0
  1 22  1  0
  1 23  1  0
  1 24  1  0
  2 25  1  0
  2 26  1  0
  4 27  1  0
  4 28  1  0
  5 29  1  0
  5 30  1  0
  5 31  1  0
  7 32  1  0
  8 33  1  0
  9 34  1  0
 12 35  1  0
 12 36  1  0
 16 37  1  0
 16 38  1  0
 16 39  1  0
 17 40  1  0
 17 41  1  0
 18 42  1  0
 18 43  1  0
 21 44  1  0
M  END
$$$$
