
     RDKit          3D

 56 58  0  0  0  0  0  0  0  0999 V2000
    9.6140    1.5704    0.8441 C   0  0  0  0  0  0  0  0  0  0  0  0
    8.8445    0.3930    1.0511 O   0  0  0  0  0  0  0  0  0  0  0  0
    7.8566    0.1321    0.1421 C   0  0  0  0  0  0  0  0  0  0  0  0
    7.1239   -1.0296    0.3934 C   0  0  0  0  0  0  0  0  0  0  0  0
    6.0849   -1.4156   -0.4565 C   0  0  0  0  0  0  0  0  0  0  0  0
    5.7665   -0.6447   -1.5810 C   0  0  0  0  0  0  0  0  0  0  0  0
    4.6303   -1.0476   -2.4837 C   0  0  0  0  0  0  0  0  0  0  0  0
    3.3791   -0.5326   -1.9938 N   0  0  0  0  0  0  0  0  0  0  0  0
    2.5282   -1.2804   -1.2164 C   0  0  0  0  0  0  0  0  0  0  0  0
    2.6355   -2.4710   -0.9570 O   0  0  0  0  0  0  0  0  0  0  0  0
    1.3455   -0.4674   -0.6416 C   0  0  0  0  0  0  0  0  0  0  0  0
    1.2262    0.7188   -0.9159 O   0  0  0  0  0  0  0  0  0  0  0  0
    0.5124   -1.2086    0.1651 N   0  0  0  0  0  0  0  0  0  0  0  0
   -0.7552   -0.6920    0.6544 C   0  0  0  0  0  0  0  0  0  0  0  0
   -1.9412   -0.9811   -0.3075 C   0  0  0  0  0  0  0  0  0  0  0  0
   -1.6718   -0.4446   -1.6166 O   0  0  0  0  0  0  0  0  0  0  0  0
   -2.1552    0.9016   -1.5903 C   0  0  0  0  0  0  0  0  0  0  0  0
   -3.3957    0.8496   -0.7209 C   0  0  0  0  0  0  0  0  0  0  0  0
   -3.2277   -0.3760    0.0756 N   0  0  0  0  0  0  0  0  0  0  0  0
   -3.6528   -0.3716    1.6922 S   0  0  0  0  0  6  0  0  0  0  0  0
   -3.4831   -1.7166    2.1972 O   0  0  0  0  0  0  0  0  0  0  0  0
   -2.9806    0.7498    2.3130 O   0  0  0  0  0  0  0  0  0  0  0  0
   -5.3911   -0.0301    1.6320 C   0  0  0  0  0  0  0  0  0  0  0  0
   -5.8846    1.1872    2.1054 C   0  0  0  0  0  0  0  0  0  0  0  0
   -7.2568    1.4380    2.0509 C   0  0  0  0  0  0  0  0  0  0  0  0
   -8.1346    0.4813    1.5216 C   0  0  0  0  0  0  0  0  0  0  0  0
   -9.6129    0.7407    1.4995 C   0  0  0  0  0  0  0  0  0  0  0  0
   -7.6256   -0.7450    1.0718 C   0  0  0  0  0  0  0  0  0  0  0  0
   -6.2552   -1.0028    1.1233 C   0  0  0  0  0  0  0  0  0  0  0  0
    6.4967    0.5262   -1.8246 C   0  0  0  0  0  0  0  0  0  0  0  0
    7.5376    0.9103   -0.9707 C   0  0  0  0  0  0  0  0  0  0  0  0
    8.9868    2.4665    0.8958 H   0  0  0  0  0  0  0  0  0  0  0  0
   10.3516    1.6338    1.6500 H   0  0  0  0  0  0  0  0  0  0  0  0
   10.1602    1.5235   -0.1039 H   0  0  0  0  0  0  0  0  0  0  0  0
    7.3615   -1.6389    1.2620 H   0  0  0  0  0  0  0  0  0  0  0  0
    5.5215   -2.3202   -0.2331 H   0  0  0  0  0  0  0  0  0  0  0  0
    4.7814   -0.6432   -3.4906 H   0  0  0  0  0  0  0  0  0  0  0  0
    4.5856   -2.1389   -2.5750 H   0  0  0  0  0  0  0  0  0  0  0  0
    3.2029    0.4674   -2.0152 H   0  0  0  0  0  0  0  0  0  0  0  0
    0.7204   -2.2022    0.2312 H   0  0  0  0  0  0  0  0  0  0  0  0
   -0.9186   -1.1631    1.6278 H   0  0  0  0  0  0  0  0  0  0  0  0
   -0.6430    0.3861    0.8129 H   0  0  0  0  0  0  0  0  0  0  0  0
   -2.0638   -2.0629   -0.4265 H   0  0  0  0  0  0  0  0  0  0  0  0
   -1.3880    1.5516   -1.1571 H   0  0  0  0  0  0  0  0  0  0  0  0
   -2.3667    1.2440   -2.6070 H   0  0  0  0  0  0  0  0  0  0  0  0
   -3.4962    1.7605   -0.1253 H   0  0  0  0  0  0  0  0  0  0  0  0
   -4.2933    0.7379   -1.3383 H   0  0  0  0  0  0  0  0  0  0  0  0
   -5.2170    1.9382    2.5215 H   0  0  0  0  0  0  0  0  0  0  0  0
   -7.6402    2.3840    2.4286 H   0  0  0  0  0  0  0  0  0  0  0  0
   -9.8199    1.8087    1.3741 H   0  0  0  0  0  0  0  0  0  0  0  0
  -10.0885    0.2177    0.6632 H   0  0  0  0  0  0  0  0  0  0  0  0
  -10.0664    0.3992    2.4351 H   0  0  0  0  0  0  0  0  0  0  0  0
   -8.2964   -1.5081    0.6819 H   0  0  0  0  0  0  0  0  0  0  0  0
   -5.8687   -1.9573    0.7725 H   0  0  0  0  0  0  0  0  0  0  0  0
    6.2608    1.1512   -2.6831 H   0  0  0  0  0  0  0  0  0  0  0  0
    8.0759    1.8230   -1.2026 H   0  0  0  0  0  0  0  0  0  0  0  0
  1  2  1  0
  2  3  1  0
  3  4  2  0
  4  5  1  0
  5  6  2  0
  6  7  1  0
  7  8  1  0
  8  9  1  0
  9 10  2  0
  9 11  1  0
 11 12  2  0
 11 13  1  0
 13 14  1  0
 14 15  1  0
 15 16  1  0
 16 17  1  0
 17 18  1  0
 18 19  1  0
 19 20  1  0
 20 21  2  0
 20 22  2  0
 20 23  1  0
 23 24  2  0
 24 25  1  0
 25 26  2  0
 26 27  1  0
 26 28  1  0
 28 29  2  0
  6 30  1  0
 30 31  2  0
 31  3  1  0
 19 15  1  0
 29 23  1  0
  1 32  1  0
  1 33  1  0
  1 34  1  0
  4 35  1  0
  5 36  1  0
  7 37  1  0
  7 38  1  0
  8 39  1  0
 13 40  1  0
 14 41  1  0
 14 42  1  0
 15 43  1  0
 17 44  1  0
 17 45  1  0
 18 46  1  0
 18 47  1  0
 24 48  1  0
 25 49  1  0
 27 50  1  0
 27 51  1  0
 27 52  1  0
 28 53  1  0
 29 54  1  0
 30 55  1  0
 31 56  1  0
M  END
$$$$
