
     RDKit          3D

 61 65  0  0  0  0  0  0  0  0999 V2000
    6.3467   -4.1838    2.4341 C   0  0  0  0  0  0  0  0  0  0  0  0
    5.1708   -3.3809    1.9600 C   0  0  0  0  0  0  0  0  0  0  0  0
    4.4493   -3.7786    0.8314 C   0  0  0  0  0  0  0  0  0  0  0  0
    3.3344   -3.0482    0.4076 C   0  0  0  0  0  0  0  0  0  0  0  0
    2.9067   -1.9077    1.1063 C   0  0  0  0  0  0  0  0  0  0  0  0
    1.7358   -1.1392    0.6599 C   0  0  0  0  0  0  0  0  0  0  0  0
    1.8043    0.2369    0.4584 C   0  0  0  0  0  0  0  0  0  0  0  0
    0.6845    0.9674    0.0354 C   0  0  0  0  0  0  0  0  0  0  0  0
    0.7715    2.4209   -0.1395 C   0  0  0  0  0  0  0  0  0  0  0  0
    0.2924    3.2979    0.8472 C   0  0  0  0  0  0  0  0  0  0  0  0
    0.3798    4.6818    0.6758 C   0  0  0  0  0  0  0  0  0  0  0  0
    0.9497    5.2186   -0.4825 C   0  0  0  0  0  0  0  0  0  0  0  0
    1.0757    6.7056   -0.6494 C   0  0  0  0  0  0  0  0  0  0  0  0
    1.4615    4.3522   -1.4529 C   0  0  0  0  0  0  0  0  0  0  0  0
    1.3746    2.9680   -1.2838 C   0  0  0  0  0  0  0  0  0  0  0  0
   -0.5070    0.3342   -0.1954 N   0  0  0  0  0  4  0  0  0  0  0  0
   -1.6569    1.0897   -0.6342 C   0  0  0  0  0  0  0  0  0  0  0  0
   -2.6572    1.3937    0.2915 C   0  0  0  0  0  0  0  0  0  0  0  0
   -3.7638    2.1219   -0.1396 C   0  0  0  0  0  0  0  0  0  0  0  0
   -3.8542    2.5329   -1.4728 C   0  0  0  0  0  0  0  0  0  0  0  0
   -2.8423    2.2199   -2.3853 C   0  0  0  0  0  0  0  0  0  0  0  0
   -1.7304    1.4910   -1.9697 C   0  0  0  0  0  0  0  0  0  0  0  0
   -0.6034   -1.0185   -0.0085 C   0  0  0  0  0  0  0  0  0  0  0  0
   -1.8760   -1.6931   -0.2849 C   0  0  0  0  0  0  0  0  0  0  0  0
   -2.7225   -2.0800    0.7669 C   0  0  0  0  0  0  0  0  0  0  0  0
   -3.9350   -2.7241    0.5080 C   0  0  0  0  0  0  0  0  0  0  0  0
   -4.3266   -2.9966   -0.8060 C   0  0  0  0  0  0  0  0  0  0  0  0
   -5.6134   -3.7199   -1.0813 C   0  0  0  0  0  0  0  0  0  0  0  0
   -3.4730   -2.6467   -1.8564 C   0  0  0  0  0  0  0  0  0  0  0  0
   -2.2596   -2.0032   -1.5996 C   0  0  0  0  0  0  0  0  0  0  0  0
    0.5102   -1.7552    0.4202 C   0  0  0  0  0  0  0  0  0  0  0  0
    3.6309   -1.5266    2.2474 C   0  0  0  0  0  0  0  0  0  0  0  0
    4.7454   -2.2568    2.6725 C   0  0  0  0  0  0  0  0  0  0  0  0
    7.0736   -3.5460    2.9480 H   0  0  0  0  0  0  0  0  0  0  0  0
    6.0124   -4.9656    3.1229 H   0  0  0  0  0  0  0  0  0  0  0  0
    6.8650   -4.6520    1.5907 H   0  0  0  0  0  0  0  0  0  0  0  0
    4.7542   -4.6607    0.2710 H   0  0  0  0  0  0  0  0  0  0  0  0
    2.8120   -3.3830   -0.4862 H   0  0  0  0  0  0  0  0  0  0  0  0
    2.7454    0.7621    0.6298 H   0  0  0  0  0  0  0  0  0  0  0  0
   -0.1489    2.9201    1.7679 H   0  0  0  0  0  0  0  0  0  0  0  0
    0.0048    5.3433    1.4557 H   0  0  0  0  0  0  0  0  0  0  0  0
    1.0275    6.9843   -1.7073 H   0  0  0  0  0  0  0  0  0  0  0  0
    2.0285    7.0489   -0.2350 H   0  0  0  0  0  0  0  0  0  0  0  0
    0.2588    7.2265   -0.1390 H   0  0  0  0  0  0  0  0  0  0  0  0
    1.9369    4.7544   -2.3466 H   0  0  0  0  0  0  0  0  0  0  0  0
    1.7891    2.3264   -2.0601 H   0  0  0  0  0  0  0  0  0  0  0  0
   -2.5899    1.0822    1.3288 H   0  0  0  0  0  0  0  0  0  0  0  0
   -4.5618    2.3742    0.5567 H   0  0  0  0  0  0  0  0  0  0  0  0
   -4.7220    3.1028   -1.8040 H   0  0  0  0  0  0  0  0  0  0  0  0
   -2.9295    2.5489   -3.4196 H   0  0  0  0  0  0  0  0  0  0  0  0
   -0.9508    1.2462   -2.6839 H   0  0  0  0  0  0  0  0  0  0  0  0
   -2.4509   -1.8892    1.8042 H   0  0  0  0  0  0  0  0  0  0  0  0
   -4.5740   -3.0185    1.3396 H   0  0  0  0  0  0  0  0  0  0  0  0
   -5.4411   -4.8005   -1.0873 H   0  0  0  0  0  0  0  0  0  0  0  0
   -6.3640   -3.4847   -0.3194 H   0  0  0  0  0  0  0  0  0  0  0  0
   -6.0291   -3.4214   -2.0494 H   0  0  0  0  0  0  0  0  0  0  0  0
   -3.7490   -2.8804   -2.8838 H   0  0  0  0  0  0  0  0  0  0  0  0
   -1.6188   -1.7568   -2.4446 H   0  0  0  0  0  0  0  0  0  0  0  0
    0.4079   -2.8315    0.5688 H   0  0  0  0  0  0  0  0  0  0  0  0
    3.3309   -0.6611    2.8347 H   0  0  0  0  0  0  0  0  0  0  0  0
    5.2802   -1.9423    3.5671 H   0  0  0  0  0  0  0  0  0  0  0  0
  1  2  1  0
  2  3  2  0
  3  4  1  0
  4  5  2  0
  5  6  1  0
  6  7  2  0
  7  8  1  0
  8  9  1  0
  9 10  2  0
 10 11  1  0
 11 12  2  0
 12 13  1  0
 12 14  1  0
 14 15  2  0
  8 16  2  0
 16 17  1  0
 17 18  2  0
 18 19  1  0
 19 20  2  0
 20 21  1  0
 21 22  2  0
 16 23  1  0
 23 24  1  0
 24 25  2  0
 25 26  1  0
 26 27  2  0
 27 28  1  0
 27 29  1  0
 29 30  2  0
 23 31  2  0
  5 32  1  0
 32 33  2  0
 33  2  1  0
 31  6  1  0
 15  9  1  0
 22 17  1  0
 30 24  1  0
  1 34  1  0
  1 35  1  0
  1 36  1  0
  3 37  1  0
  4 38  1  0
  7 39  1  0
 10 40  1  0
 11 41  1  0
 13 42  1  0
 13 43  1  0
 13 44  1  0
 14 45  1  0
 15 46  1  0
 18 47  1  0
 19 48  1  0
 20 49  1  0
 21 50  1  0
 22 51  1  0
 25 52  1  0
 26 53  1  0
 28 54  1  0
 28 55  1  0
 28 56  1  0
 29 57  1  0
 30 58  1  0
 31 59  1  0
 32 60  1  0
 33 61  1  0
M  CHG  1  16   1
M  END
$$$$
