
     RDKit          3D

 43 46  0  0  0  0  0  0  0  0999 V2000
    6.4133    1.9859    0.9862 C   0  0  0  0  0  0  0  0  0  0  0  0
    5.0300    1.4296    0.8105 C   0  0  0  0  0  0  0  0  0  0  0  0
    4.5116    1.2083   -0.4688 C   0  0  0  0  0  0  0  0  0  0  0  0
    3.2350    0.6617   -0.6364 C   0  0  0  0  0  0  0  0  0  0  0  0
    2.4669    0.3181    0.4763 C   0  0  0  0  0  0  0  0  0  0  0  0
    1.0303   -0.2931    0.3033 C   0  0  0  0  0  0  0  0  0  0  0  0
    0.1398   -0.6077    1.3236 C   0  0  0  0  0  0  0  0  0  0  0  0
   -1.0454   -1.0884    0.7625 N   0  0  0  0  0  4  0  0  0  0  0  0
   -2.2369   -1.5303    1.4823 C   0  0  0  0  0  0  0  0  0  0  0  0
   -3.4130   -0.6731    1.0842 C   0  0  0  0  0  0  0  0  0  0  0  0
   -4.6021   -1.2608    0.6299 C   0  0  0  0  0  0  0  0  0  0  0  0
   -5.6920   -0.4649    0.2622 C   0  0  0  0  0  0  0  0  0  0  0  0
   -5.6134    0.9280    0.3472 C   0  0  0  0  0  0  0  0  0  0  0  0
   -6.9922    1.8443   -0.1377 Cl  0  0  0  0  0  0  0  0  0  0  0  0
   -4.4390    1.5255    0.8109 C   0  0  0  0  0  0  0  0  0  0  0  0
   -4.2536    3.2367    0.9416 Cl  0  0  0  0  0  0  0  0  0  0  0  0
   -3.3496    0.7273    1.1828 C   0  0  0  0  0  0  0  0  0  0  0  0
   -0.8805   -1.0961   -0.5566 C   0  0  0  0  0  0  0  0  0  0  0  0
    0.3374   -0.6454   -0.8411 N   0  0  0  0  0  0  0  0  0  0  0  0
    0.5948   -0.6432   -2.2745 C   0  0  0  0  0  0  0  0  0  0  0  0
   -0.5763   -1.4843   -2.8539 C   0  0  0  0  0  0  0  0  0  0  0  0
   -1.6613   -1.4688   -1.7591 C   0  0  0  0  0  0  0  0  0  0  0  0
    2.9851    0.5285    1.7594 C   0  0  0  0  0  0  0  0  0  0  0  0
    4.2619    1.0745    1.9228 C   0  0  0  0  0  0  0  0  0  0  0  0
    6.6696    2.6617    0.1635 H   0  0  0  0  0  0  0  0  0  0  0  0
    7.1429    1.1708    1.0157 H   0  0  0  0  0  0  0  0  0  0  0  0
    6.4875    2.5620    1.9145 H   0  0  0  0  0  0  0  0  0  0  0  0
    5.1020    1.4671   -1.3468 H   0  0  0  0  0  0  0  0  0  0  0  0
    2.8760    0.5319   -1.6487 H   0  0  0  0  0  0  0  0  0  0  0  0
    0.1935   -0.5322    2.3966 H   0  0  0  0  0  0  0  0  0  0  0  0
   -2.4028   -2.5842    1.2325 H   0  0  0  0  0  0  0  0  0  0  0  0
   -2.0720   -1.4568    2.5626 H   0  0  0  0  0  0  0  0  0  0  0  0
   -4.7032   -2.3436    0.5594 H   0  0  0  0  0  0  0  0  0  0  0  0
   -6.6085   -0.9379   -0.0879 H   0  0  0  0  0  0  0  0  0  0  0  0
   -2.4445    1.2086    1.5500 H   0  0  0  0  0  0  0  0  0  0  0  0
    1.5579   -1.1056   -2.5015 H   0  0  0  0  0  0  0  0  0  0  0  0
    0.5586    0.3879   -2.6378 H   0  0  0  0  0  0  0  0  0  0  0  0
   -0.9347   -1.1064   -3.8152 H   0  0  0  0  0  0  0  0  0  0  0  0
   -0.2334   -2.5149   -3.0039 H   0  0  0  0  0  0  0  0  0  0  0  0
   -2.3978   -0.6778   -1.9144 H   0  0  0  0  0  0  0  0  0  0  0  0
   -2.1282   -2.4406   -1.5947 H   0  0  0  0  0  0  0  0  0  0  0  0
    2.4300    0.2738    2.6571 H   0  0  0  0  0  0  0  0  0  0  0  0
    4.6564    1.2237    2.9270 H   0  0  0  0  0  0  0  0  0  0  0  0
  1  2  1  0
  2  3  2  0
  3  4  1  0
  4  5  2  0
  5  6  1  0
  6  7  2  0
  7  8  1  0
  8  9  1  0
  9 10  1  0
 10 11  2  0
 11 12  1  0
 12 13  2  0
 13 14  1  0
 13 15  1  0
 15 16  1  0
 15 17  2  0
  8 18  2  0
 18 19  1  0
 19 20  1  0
 20 21  1  0
 21 22  1  0
  5 23  1  0
 23 24  2  0
 24  2  1  0
 19  6  1  0
 17 10  1  0
 22 18  1  0
  1 25  1  0
  1 26  1  0
  1 27  1  0
  3 28  1  0
  4 29  1  0
  7 30  1  0
  9 31  1  0
  9 32  1  0
 11 33  1  0
 12 34  1  0
 17 35  1  0
 20 36  1  0
 20 37  1  0
 21 38  1  0
 21 39  1  0
 22 40  1  0
 22 41  1  0
 23 42  1  0
 24 43  1  0
M  CHG  1   8   1
M  END
$$$$
