
     RDKit          3D

 39 40  0  0  0  0  0  0  0  0999 V2000
   -1.8445   -1.8783   -0.8943 C   0  0  0  0  0  0  0  0  0  0  0  0
   -2.5773   -0.5990   -0.5392 C   0  0  0  0  0  0  0  0  0  0  0  0
   -1.9762    0.4354    0.0818 C   0  0  0  0  0  0  0  0  0  0  0  0
   -0.5233    0.4744    0.4133 C   0  0  0  0  0  0  0  0  0  0  0  0
    0.4063   -0.0468   -0.3203 N   0  0  0  0  0  0  0  0  0  0  0  0
    1.6844    0.1250    0.1242 N   0  0  0  0  0  0  0  0  0  0  0  0
    2.7212   -0.5120   -0.5401 C   0  0  0  0  0  0  0  0  0  0  0  0
    2.5860   -1.2855   -1.4875 O   0  0  0  0  0  0  0  0  0  0  0  0
    4.0946   -0.2784   -0.0152 C   0  0  0  0  0  0  0  0  0  0  0  0
    4.4280    0.8933    0.6795 C   0  0  0  0  0  0  0  0  0  0  0  0
    5.7251    1.0619    1.1701 C   0  0  0  0  0  0  0  0  0  0  0  0
    6.1669    2.6413    2.1123 Br  0  0  0  0  0  0  0  0  0  0  0  0
    6.6985    0.0844    0.9711 C   0  0  0  0  0  0  0  0  0  0  0  0
    6.3790   -1.0710    0.2594 C   0  0  0  0  0  0  0  0  0  0  0  0
    5.0892   -1.2447   -0.2395 C   0  0  0  0  0  0  0  0  0  0  0  0
    4.8673   -2.3969   -0.9462 O   0  0  0  0  0  0  0  0  0  0  0  0
   -2.7925    1.5973    0.5069 C   0  0  0  0  0  0  0  0  0  0  0  0
   -2.2741    2.4742    1.1995 O   0  0  0  0  0  0  0  0  0  0  0  0
   -4.1078    1.6218    0.1025 N   0  0  0  0  0  0  0  0  0  0  0  0
   -4.9238    2.7619    0.4770 C   0  0  0  0  0  0  0  0  0  0  0  0
   -4.7447    0.5654   -0.5294 C   0  0  0  0  0  0  0  0  0  0  0  0
   -5.9539    0.5919   -0.7666 O   0  0  0  0  0  0  0  0  0  0  0  0
   -3.9394   -0.5271   -0.8602 N   0  0  0  0  0  0  0  0  0  0  0  0
   -4.5928   -1.6283   -1.5685 C   0  0  0  0  0  0  0  0  0  0  0  0
   -0.9476   -2.0435   -0.2928 H   0  0  0  0  0  0  0  0  0  0  0  0
   -1.5631   -1.8753   -1.9521 H   0  0  0  0  0  0  0  0  0  0  0  0
   -2.4607   -2.7617   -0.6979 H   0  0  0  0  0  0  0  0  0  0  0  0
   -0.2764    1.0329    1.3349 H   0  0  0  0  0  0  0  0  0  0  0  0
    1.8403    0.6313    0.9881 H   0  0  0  0  0  0  0  0  0  0  0  0
    3.7045    1.6903    0.8193 H   0  0  0  0  0  0  0  0  0  0  0  0
    7.7081    0.2156    1.3526 H   0  0  0  0  0  0  0  0  0  0  0  0
    7.1341   -1.8334    0.0844 H   0  0  0  0  0  0  0  0  0  0  0  0
    3.9891   -2.3190   -1.3863 H   0  0  0  0  0  0  0  0  0  0  0  0
   -5.5011    2.4951    1.3680 H   0  0  0  0  0  0  0  0  0  0  0  0
   -5.6198    3.0115   -0.3302 H   0  0  0  0  0  0  0  0  0  0  0  0
   -4.3136    3.6422    0.6975 H   0  0  0  0  0  0  0  0  0  0  0  0
   -3.9927   -1.9254   -2.4341 H   0  0  0  0  0  0  0  0  0  0  0  0
   -4.7145   -2.4701   -0.8800 H   0  0  0  0  0  0  0  0  0  0  0  0
   -5.5828   -1.3507   -1.9417 H   0  0  0  0  0  0  0  0  0  0  0  0
  1  2  1  0
  2  3  2  0
  3  4  1  0
  4  5  2  3
  5  6  1  0
  6  7  1  0
  7  8  2  0
  7  9  1  0
  9 10  2  0
 10 11  1  0
 11 12  1  0
 11 13  2  0
 13 14  1  0
 14 15  2  0
 15 16  1  0
  3 17  1  0
 17 18  2  0
 17 19  1  0
 19 20  1  0
 19 21  1  0
 21 22  2  0
 21 23  1  0
 23 24  1  0
 23  2  1  0
 15  9  1  0
  1 25  1  0
  1 26  1  0
  1 27  1  0
  4 28  1  0
  6 29  1  0
 10 30  1  0
 13 31  1  0
 14 32  1  0
 16 33  1  0
 20 34  1  0
 20 35  1  0
 20 36  1  0
 24 37  1  0
 24 38  1  0
 24 39  1  0
M  END
$$$$
