
     RDKit          3D

 47 50  0  0  0  0  0  0  0  0999 V2000
   -2.5771   -3.3200    1.5680 C   0  0  0  0  0  0  0  0  0  0  0  0
   -1.4892   -2.3130    1.3217 C   0  0  0  0  0  0  0  0  0  0  0  0
   -0.2594   -2.6528    1.5879 N   0  0  0  0  0  0  0  0  0  0  0  0
    0.7988   -1.7635    1.3768 N   0  0  0  0  0  0  0  0  0  0  0  0
    2.1280   -2.2432    1.7236 C   0  0  0  0  0  0  0  0  0  0  0  0
    2.9012   -2.5919    0.4537 C   0  0  0  0  0  0  0  0  0  0  0  0
    2.8439   -3.6967   -0.0823 O   0  0  0  0  0  0  0  0  0  0  0  0
    3.6320   -1.5393   -0.0631 N   0  0  0  0  0  0  0  0  0  0  0  0
    4.2728   -1.6620   -1.3495 C   0  0  0  0  0  0  0  0  0  0  0  0
    5.2842   -0.5675   -1.4803 C   0  0  0  0  0  0  0  0  0  0  0  0
    5.0796    0.7552   -1.8395 C   0  0  0  0  0  0  0  0  0  0  0  0
    6.2944    1.5065   -1.8622 C   0  0  0  0  0  0  0  0  0  0  0  0
    7.3861    0.7340   -1.5170 C   0  0  0  0  0  0  0  0  0  0  0  0
    6.9451   -0.8842   -1.1659 S   0  0  0  0  0  0  0  0  0  0  0  0
    0.6685   -0.4473    0.8988 C   0  0  0  0  0  0  0  0  0  0  0  0
    1.6308    0.3032    0.7323 O   0  0  0  0  0  0  0  0  0  0  0  0
   -0.7116   -0.0874    0.6107 C   0  0  0  0  0  0  0  0  0  0  0  0
   -1.1387    1.0752    0.1167 N   0  0  0  0  0  0  0  0  0  0  0  0
   -2.4970    0.9745    0.0980 N   0  0  0  0  0  0  0  0  0  0  0  0
   -3.2648    2.1530   -0.1645 C   0  0  0  0  0  0  0  0  0  0  0  0
   -4.6230    2.2531    0.1581 C   0  0  0  0  0  0  0  0  0  0  0  0
   -5.3264    3.4351   -0.1020 C   0  0  0  0  0  0  0  0  0  0  0  0
   -4.6803    4.5289   -0.6720 C   0  0  0  0  0  0  0  0  0  0  0  0
   -3.3254    4.4497   -0.9766 C   0  0  0  0  0  0  0  0  0  0  0  0
   -2.6190    3.2723   -0.7189 C   0  0  0  0  0  0  0  0  0  0  0  0
   -2.9018   -0.3389    0.3717 C   0  0  0  0  0  0  0  0  0  0  0  0
   -4.2757   -0.8631    0.1588 C   0  0  0  0  0  0  0  0  0  0  0  0
   -1.7600   -0.9923    0.8060 C   0  0  0  0  0  0  0  0  0  0  0  0
   -2.2007   -4.1415    2.1859 H   0  0  0  0  0  0  0  0  0  0  0  0
   -3.4162   -2.8536    2.0903 H   0  0  0  0  0  0  0  0  0  0  0  0
   -2.9159   -3.7298    0.6127 H   0  0  0  0  0  0  0  0  0  0  0  0
    2.6628   -1.4719    2.2888 H   0  0  0  0  0  0  0  0  0  0  0  0
    2.0549   -3.1352    2.3549 H   0  0  0  0  0  0  0  0  0  0  0  0
    3.3436   -0.6034    0.2188 H   0  0  0  0  0  0  0  0  0  0  0  0
    3.4970   -1.5628   -2.1177 H   0  0  0  0  0  0  0  0  0  0  0  0
    4.7206   -2.6596   -1.4525 H   0  0  0  0  0  0  0  0  0  0  0  0
    4.1010    1.1676   -2.0753 H   0  0  0  0  0  0  0  0  0  0  0  0
    6.3642    2.5597   -2.1170 H   0  0  0  0  0  0  0  0  0  0  0  0
    8.4241    1.0422   -1.4510 H   0  0  0  0  0  0  0  0  0  0  0  0
   -5.1637    1.4578    0.6550 H   0  0  0  0  0  0  0  0  0  0  0  0
   -6.3802    3.5064    0.1569 H   0  0  0  0  0  0  0  0  0  0  0  0
   -5.2292    5.4467   -0.8670 H   0  0  0  0  0  0  0  0  0  0  0  0
   -2.8119    5.3038   -1.4106 H   0  0  0  0  0  0  0  0  0  0  0  0
   -1.5587    3.2405   -0.9672 H   0  0  0  0  0  0  0  0  0  0  0  0
   -4.8797   -0.7440    1.0621 H   0  0  0  0  0  0  0  0  0  0  0  0
   -4.7734   -0.3740   -0.6824 H   0  0  0  0  0  0  0  0  0  0  0  0
   -4.2550   -1.9265   -0.0899 H   0  0  0  0  0  0  0  0  0  0  0  0
  1  2  1  0
  2  3  2  0
  3  4  1  0
  4  5  1  0
  5  6  1  0
  6  7  2  0
  6  8  1  0
  8  9  1  0
  9 10  1  0
 10 11  2  0
 11 12  1  0
 12 13  2  0
 13 14  1  0
  4 15  1  0
 15 16  2  0
 15 17  1  0
 17 18  2  0
 18 19  1  0
 19 20  1  0
 20 21  2  0
 21 22  1  0
 22 23  2  0
 23 24  1  0
 24 25  2  0
 19 26  1  0
 26 27  1  0
 26 28  2  0
 28  2  1  0
 14 10  1  0
 28 17  1  0
 25 20  1  0
  1 29  1  0
  1 30  1  0
  1 31  1  0
  5 32  1  0
  5 33  1  0
  8 34  1  0
  9 35  1  0
  9 36  1  0
 11 37  1  0
 12 38  1  0
 13 39  1  0
 21 40  1  0
 22 41  1  0
 23 42  1  0
 24 43  1  0
 25 44  1  0
 27 45  1  0
 27 46  1  0
 27 47  1  0
M  END
$$$$
