
     RDKit          3D

 52 55  0  0  0  0  0  0  0  0999 V2000
   -6.5477    3.8345   -0.1870 C   0  0  0  0  0  0  0  0  0  0  0  0
   -5.8663    2.8841    0.7810 C   0  0  0  0  0  0  0  0  0  0  0  0
   -4.7716    2.0678    0.1003 C   0  0  0  0  0  0  0  0  0  0  0  0
   -4.1924    1.2095    1.0829 O   0  0  0  0  0  0  0  0  0  0  0  0
   -3.1807    0.3864    0.6719 C   0  0  0  0  0  0  0  0  0  0  0  0
   -2.6623    0.3027   -0.6203 C   0  0  0  0  0  0  0  0  0  0  0  0
   -1.6212   -0.5889   -0.9053 C   0  0  0  0  0  0  0  0  0  0  0  0
   -1.0932   -1.4071    0.0989 C   0  0  0  0  0  0  0  0  0  0  0  0
   -0.0054   -2.3289   -0.1985 C   0  0  0  0  0  0  0  0  0  0  0  0
    1.3667   -2.1145   -0.2096 C   0  0  0  0  0  0  0  0  0  0  0  0
    2.1024   -0.8806    0.0650 C   0  0  0  0  0  0  0  0  0  0  0  0
    1.5391    0.1838    0.2978 O   0  0  0  0  0  0  0  0  0  0  0  0
    3.4812   -1.0716    0.0071 N   0  0  0  0  0  0  0  0  0  0  0  0
    4.4478   -0.0988    0.0513 N   0  0  0  0  0  0  0  0  0  0  0  0
    4.2284    0.9620    0.7624 C   0  0  0  0  0  0  0  0  0  0  0  0
    5.2034    2.0717    0.8193 C   0  0  0  0  0  0  0  0  0  0  0  0
    4.9023    3.1908    1.6015 C   0  0  0  0  0  0  0  0  0  0  0  0
    5.8080    4.2508    1.6717 C   0  0  0  0  0  0  0  0  0  0  0  0
    7.0087    4.1922    0.9629 C   0  0  0  0  0  0  0  0  0  0  0  0
    7.3075    3.0754    0.1815 C   0  0  0  0  0  0  0  0  0  0  0  0
    6.4053    2.0129    0.1076 C   0  0  0  0  0  0  0  0  0  0  0  0
    2.0056   -3.2834   -0.5330 N   0  0  0  0  0  0  0  0  0  0  0  0
    1.0922   -4.2154   -0.7319 N   0  0  0  0  0  0  0  0  0  0  0  0
   -0.1500   -3.6737   -0.5509 N   0  0  0  0  0  0  0  0  0  0  0  0
   -1.3246   -4.4523   -0.7128 C   0  0  0  0  0  0  0  0  0  0  0  0
   -2.5353   -3.9340   -0.5054 N   0  0  0  0  0  0  0  0  0  0  0  0
   -3.4066   -4.9939   -0.7464 O   0  0  0  0  0  0  0  0  0  0  0  0
   -2.7130   -6.1472   -1.0978 N   0  0  0  0  0  0  0  0  0  0  0  0
   -1.4250   -5.8064   -1.0847 C   0  0  0  0  0  0  0  0  0  0  0  0
   -0.4163   -6.6461   -1.3849 N   0  0  0  0  0  0  0  0  0  0  0  0
   -1.6067   -1.3158    1.3958 C   0  0  0  0  0  0  0  0  0  0  0  0
   -2.6466   -0.4255    1.6753 C   0  0  0  0  0  0  0  0  0  0  0  0
   -5.8300    4.5442   -0.6105 H   0  0  0  0  0  0  0  0  0  0  0  0
   -7.0160    3.2864   -1.0107 H   0  0  0  0  0  0  0  0  0  0  0  0
   -7.3269    4.4056    0.3273 H   0  0  0  0  0  0  0  0  0  0  0  0
   -5.4373    3.4489    1.6175 H   0  0  0  0  0  0  0  0  0  0  0  0
   -6.6080    2.2077    1.2228 H   0  0  0  0  0  0  0  0  0  0  0  0
   -5.2110    1.4714   -0.7084 H   0  0  0  0  0  0  0  0  0  0  0  0
   -4.0095    2.7451   -0.3039 H   0  0  0  0  0  0  0  0  0  0  0  0
   -3.0404    0.9177   -1.4298 H   0  0  0  0  0  0  0  0  0  0  0  0
   -1.2269   -0.6315   -1.9179 H   0  0  0  0  0  0  0  0  0  0  0  0
    3.8011   -1.9556   -0.3838 H   0  0  0  0  0  0  0  0  0  0  0  0
    3.3288    1.0898    1.3871 H   0  0  0  0  0  0  0  0  0  0  0  0
    3.9684    3.2490    2.1546 H   0  0  0  0  0  0  0  0  0  0  0  0
    5.5775    5.1236    2.2776 H   0  0  0  0  0  0  0  0  0  0  0  0
    7.7126    5.0191    1.0182 H   0  0  0  0  0  0  0  0  0  0  0  0
    8.2425    3.0320   -0.3713 H   0  0  0  0  0  0  0  0  0  0  0  0
    6.6436    1.1462   -0.5039 H   0  0  0  0  0  0  0  0  0  0  0  0
    0.5533   -6.4062   -1.1864 H   0  0  0  0  0  0  0  0  0  0  0  0
   -0.6031   -7.6415   -1.4467 H   0  0  0  0  0  0  0  0  0  0  0  0
   -1.2087   -1.9307    2.1987 H   0  0  0  0  0  0  0  0  0  0  0  0
   -3.0435   -0.3619    2.6854 H   0  0  0  0  0  0  0  0  0  0  0  0
  1  2  1  0
  2  3  1  0
  3  4  1  0
  4  5  1  0
  5  6  2  0
  6  7  1  0
  7  8  2  0
  8  9  1  0
  9 10  2  0
 10 11  1  0
 11 12  2  0
 11 13  1  0
 13 14  1  0
 14 15  2  3
 15 16  1  0
 16 17  2  0
 17 18  1  0
 18 19  2  0
 19 20  1  0
 20 21  2  0
 10 22  1  0
 22 23  2  0
 23 24  1  0
 24 25  1  0
 25 26  2  0
 26 27  1  0
 27 28  1  0
 28 29  2  0
 29 30  1  0
  8 31  1  0
 31 32  2  0
 32  5  1  0
 24  9  1  0
 29 25  1  0
 21 16  1  0
  1 33  1  0
  1 34  1  0
  1 35  1  0
  2 36  1  0
  2 37  1  0
  3 38  1  0
  3 39  1  0
  6 40  1  0
  7 41  1  0
 13 42  1  0
 15 43  1  0
 17 44  1  0
 18 45  1  0
 19 46  1  0
 20 47  1  0
 21 48  1  0
 30 49  1  0
 30 50  1  0
 31 51  1  0
 32 52  1  0
M  END
$$$$
