
     RDKit          3D

 36 37  0  0  0  0  0  0  0  0999 V2000
   -1.7559    2.0913    0.4779 O   0  0  0  0  0  0  0  0  0  0  0  0
   -0.8176    1.4409    0.9376 C   0  0  0  0  0  0  0  0  0  0  0  0
    0.4545    2.0873    1.4905 C   0  0  0  0  0  0  0  0  0  0  0  0
    1.5861    1.2143    1.5436 O   0  0  0  0  0  0  0  0  0  0  0  0
    2.1746    0.9908    0.3413 C   0  0  0  0  0  0  0  0  0  0  0  0
    1.7852    1.4227   -0.7305 O   0  0  0  0  0  0  0  0  0  0  0  0
    3.3622    0.1085    0.4911 C   0  0  0  0  0  0  0  0  0  0  0  0
    4.0224   -0.3128   -0.6728 C   0  0  0  0  0  0  0  0  0  0  0  0
    5.1405   -1.1449   -0.5884 C   0  0  0  0  0  0  0  0  0  0  0  0
    5.6052   -1.5593    0.6591 C   0  0  0  0  0  0  0  0  0  0  0  0
    4.9516   -1.1387    1.8166 C   0  0  0  0  0  0  0  0  0  0  0  0
    5.5293   -1.6511    3.3545 Cl  0  0  0  0  0  0  0  0  0  0  0  0
    3.8341   -0.3074    1.7427 C   0  0  0  0  0  0  0  0  0  0  0  0
   -0.8615    0.0654    1.0328 N   0  0  0  0  0  0  0  0  0  0  0  0
   -2.0451   -0.6694    0.6319 C   0  0  0  0  0  0  0  0  0  0  0  0
   -2.3146   -0.5919   -0.8790 C   0  0  0  0  0  0  0  0  0  0  0  0
   -3.7313   -0.5148   -1.1674 N   0  0  0  0  0  0  0  0  0  0  0  0
   -4.4476    0.6493   -1.3190 C   0  0  0  0  0  0  0  0  0  0  0  0
   -3.8733    1.8797   -1.1982 O   0  0  0  0  0  0  0  0  0  0  0  0
   -5.7435    0.4687   -1.5904 C   0  0  0  0  0  0  0  0  0  0  0  0
   -6.1574   -1.2162   -1.6403 S   0  0  0  0  0  0  0  0  0  0  0  0
   -4.4875   -1.6746   -1.2692 C   0  0  0  0  0  0  0  0  0  0  0  0
   -4.1119   -2.8263   -1.1204 O   0  0  0  0  0  0  0  0  0  0  0  0
    0.2403    2.4048    2.5163 H   0  0  0  0  0  0  0  0  0  0  0  0
    0.6905    2.9846    0.9066 H   0  0  0  0  0  0  0  0  0  0  0  0
    3.6682    0.0065   -1.6524 H   0  0  0  0  0  0  0  0  0  0  0  0
    5.6481   -1.4682   -1.4946 H   0  0  0  0  0  0  0  0  0  0  0  0
    6.4764   -2.2070    0.7224 H   0  0  0  0  0  0  0  0  0  0  0  0
    3.3466    0.0113    2.6599 H   0  0  0  0  0  0  0  0  0  0  0  0
   -0.1118   -0.4156    1.5169 H   0  0  0  0  0  0  0  0  0  0  0  0
   -2.8858   -0.2610    1.2056 H   0  0  0  0  0  0  0  0  0  0  0  0
   -1.9094   -1.7114    0.9405 H   0  0  0  0  0  0  0  0  0  0  0  0
   -1.8053    0.2479   -1.3644 H   0  0  0  0  0  0  0  0  0  0  0  0
   -1.9085   -1.4956   -1.3510 H   0  0  0  0  0  0  0  0  0  0  0  0
   -3.0867    1.8310   -0.6138 H   0  0  0  0  0  0  0  0  0  0  0  0
   -6.4611    1.2616   -1.7455 H   0  0  0  0  0  0  0  0  0  0  0  0
  1  2  2  0
  2  3  1  0
  3  4  1  0
  4  5  1  0
  5  6  2  0
  5  7  1  0
  7  8  2  0
  8  9  1  0
  9 10  2  0
 10 11  1  0
 11 12  1  0
 11 13  2  0
  2 14  1  0
 14 15  1  0
 15 16  1  0
 16 17  1  0
 17 18  1  0
 18 19  1  0
 18 20  2  0
 20 21  1  0
 21 22  1  0
 22 23  2  0
 13  7  1  0
 22 17  1  0
  3 24  1  0
  3 25  1  0
  8 26  1  0
  9 27  1  0
 10 28  1  0
 13 29  1  0
 14 30  1  0
 15 31  1  0
 15 32  1  0
 16 33  1  0
 16 34  1  0
 19 35  1  0
 20 36  1  0
M  END
$$$$
