
     RDKit          3D

 40 41  0  0  0  0  0  0  0  0999 V2000
    5.3105   -0.9968   -5.2249 C   0  0  0  0  0  0  0  0  0  0  0  0
    4.5595    0.3160   -5.3957 C   0  0  0  0  0  0  0  0  0  0  0  0
    4.1503    0.9357   -4.0610 C   0  0  0  0  0  0  0  0  0  0  0  0
    2.9888    0.2220   -3.3801 C   0  0  0  0  0  0  0  0  0  0  0  0
    2.3593   -0.6752   -3.9267 O   0  0  0  0  0  0  0  0  0  0  0  0
    2.7534    0.7401   -2.1148 N   0  0  0  0  0  0  0  0  0  0  0  0
    1.7672    0.3377   -1.1913 C   0  0  0  0  0  0  0  0  0  0  0  0
    1.7178    1.0234    0.0300 C   0  0  0  0  0  0  0  0  0  0  0  0
    0.7690    0.6905    1.0049 C   0  0  0  0  0  0  0  0  0  0  0  0
   -0.1513   -0.3348    0.7643 C   0  0  0  0  0  0  0  0  0  0  0  0
   -1.1819   -0.7328    1.7628 C   0  0  0  0  0  0  0  0  0  0  0  0
   -1.7211   -1.8362    1.7160 O   0  0  0  0  0  0  0  0  0  0  0  0
   -1.5198    0.2105    2.7162 N   0  0  0  0  0  0  0  0  0  0  0  0
   -2.6604   -0.0698    3.4992 N   0  0  0  0  0  0  0  0  0  0  0  0
   -3.5213    0.9854    3.7715 C   0  0  0  0  0  0  0  0  0  0  0  0
   -3.1733    2.1412    3.5149 O   0  0  0  0  0  0  0  0  0  0  0  0
   -4.8062    0.6067    4.3439 C   0  0  0  0  0  0  0  0  0  0  0  0
   -5.2555   -0.6194    4.8063 C   0  0  0  0  0  0  0  0  0  0  0  0
   -6.5954   -0.5660    5.2940 C   0  0  0  0  0  0  0  0  0  0  0  0
   -7.1288    0.6980    5.1967 C   0  0  0  0  0  0  0  0  0  0  0  0
   -6.0207    1.8096    4.5237 S   0  0  0  0  0  0  0  0  0  0  0  0
   -0.0945   -1.0314   -0.4471 C   0  0  0  0  0  0  0  0  0  0  0  0
    0.8559   -0.6941   -1.4191 C   0  0  0  0  0  0  0  0  0  0  0  0
    4.6913   -1.7549   -4.7367 H   0  0  0  0  0  0  0  0  0  0  0  0
    6.2146   -0.8547   -4.6242 H   0  0  0  0  0  0  0  0  0  0  0  0
    5.6125   -1.3873   -6.2018 H   0  0  0  0  0  0  0  0  0  0  0  0
    3.6816    0.1551   -6.0317 H   0  0  0  0  0  0  0  0  0  0  0  0
    5.2126    1.0204   -5.9244 H   0  0  0  0  0  0  0  0  0  0  0  0
    5.0082    0.9607   -3.3786 H   0  0  0  0  0  0  0  0  0  0  0  0
    3.8309    1.9702   -4.2383 H   0  0  0  0  0  0  0  0  0  0  0  0
    3.3542    1.4998   -1.8205 H   0  0  0  0  0  0  0  0  0  0  0  0
    2.4213    1.8243    0.2454 H   0  0  0  0  0  0  0  0  0  0  0  0
    0.7846    1.2290    1.9481 H   0  0  0  0  0  0  0  0  0  0  0  0
   -1.3494    1.2038    2.5586 H   0  0  0  0  0  0  0  0  0  0  0  0
   -3.0107   -1.0218    3.4096 H   0  0  0  0  0  0  0  0  0  0  0  0
   -4.6611   -1.5250    4.8109 H   0  0  0  0  0  0  0  0  0  0  0  0
   -7.1376   -1.4118    5.6998 H   0  0  0  0  0  0  0  0  0  0  0  0
   -8.1165    1.0261    5.4918 H   0  0  0  0  0  0  0  0  0  0  0  0
   -0.7924   -1.8428   -0.6480 H   0  0  0  0  0  0  0  0  0  0  0  0
    0.8546   -1.2640   -2.3436 H   0  0  0  0  0  0  0  0  0  0  0  0
  1  2  1  0
  2  3  1  0
  3  4  1  0
  4  5  2  0
  4  6  1  0
  6  7  1  0
  7  8  2  0
  8  9  1  0
  9 10  2  0
 10 11  1  0
 11 12  2  0
 11 13  1  0
 13 14  1  0
 14 15  1  0
 15 16  2  0
 15 17  1  0
 17 18  2  0
 18 19  1  0
 19 20  2  0
 20 21  1  0
 10 22  1  0
 22 23  2  0
 23  7  1  0
 21 17  1  0
  1 24  1  0
  1 25  1  0
  1 26  1  0
  2 27  1  0
  2 28  1  0
  3 29  1  0
  3 30  1  0
  6 31  1  0
  8 32  1  0
  9 33  1  0
 13 34  1  0
 14 35  1  0
 18 36  1  0
 19 37  1  0
 20 38  1  0
 22 39  1  0
 23 40  1  0
M  END
$$$$
