
     RDKit          3D

 42 44  0  0  0  0  0  0  0  0999 V2000
    0.7602   -1.0215    2.2885 C   0  0  0  0  0  0  0  0  0  0  0  0
   -0.1731   -0.7833    1.1420 C   0  0  0  0  0  0  0  0  0  0  0  0
    0.1353   -0.7782   -0.1677 C   0  0  0  0  0  0  0  0  0  0  0  0
    1.3743   -0.9635   -0.7187 N   0  0  0  0  0  0  0  0  0  0  0  0
    1.6639   -1.2840   -2.0309 C   0  0  0  0  0  0  0  0  0  0  0  0
    0.8479   -1.6971   -2.8517 O   0  0  0  0  0  0  0  0  0  0  0  0
    3.1360   -1.2461   -2.3944 C   0  0  0  0  0  0  0  0  0  0  0  0
    3.8764   -0.1913   -1.7210 N   0  0  0  0  0  0  0  0  0  0  0  0
    4.4540    0.9077   -2.2923 C   0  0  0  0  0  0  0  0  0  0  0  0
    5.0534    1.6068   -1.2686 C   0  0  0  0  0  0  0  0  0  0  0  0
    4.7817    0.8477   -0.1099 C   0  0  0  0  0  0  0  0  0  0  0  0
    5.1608    1.1250    1.2641 N   0  0  0  0  0  4  0  0  0  0  0  0
    5.9173    2.0917    1.4397 O   0  0  0  0  0  0  0  0  0  0  0  0
    4.7009    0.3986    2.1581 O   0  0  0  0  0  1  0  0  0  0  0  0
    4.0714   -0.2644   -0.3825 N   0  0  0  0  0  0  0  0  0  0  0  0
   -1.1394   -0.4302   -0.8845 C   0  0  0  0  0  0  0  0  0  0  0  0
   -1.2186   -0.1385   -2.0674 O   0  0  0  0  0  0  0  0  0  0  0  0
   -2.1334   -0.3508    0.1104 N   0  0  0  0  0  0  0  0  0  0  0  0
   -3.3387    0.3939   -0.0110 C   0  0  0  0  0  0  0  0  0  0  0  0
   -3.9855    0.5114   -1.2490 C   0  0  0  0  0  0  0  0  0  0  0  0
   -5.1770    1.2334   -1.3753 C   0  0  0  0  0  0  0  0  0  0  0  0
   -5.7401    1.8530   -0.2637 C   0  0  0  0  0  0  0  0  0  0  0  0
   -5.1109    1.7532    0.9734 C   0  0  0  0  0  0  0  0  0  0  0  0
   -3.9204    1.0295    1.0973 C   0  0  0  0  0  0  0  0  0  0  0  0
   -1.5407   -0.5849    1.3865 N   0  0  0  0  0  0  0  0  0  0  0  0
   -2.2535   -1.5993    2.1841 C   0  0  0  0  0  0  0  0  0  0  0  0
    0.6362   -0.2380    3.0436 H   0  0  0  0  0  0  0  0  0  0  0  0
    0.5558   -1.9892    2.7574 H   0  0  0  0  0  0  0  0  0  0  0  0
    1.8110   -1.0159    1.9869 H   0  0  0  0  0  0  0  0  0  0  0  0
    2.1711   -0.9265   -0.0833 H   0  0  0  0  0  0  0  0  0  0  0  0
    3.6030   -2.2002   -2.1298 H   0  0  0  0  0  0  0  0  0  0  0  0
    3.2348   -1.0830   -3.4726 H   0  0  0  0  0  0  0  0  0  0  0  0
    4.3883    1.1020   -3.3553 H   0  0  0  0  0  0  0  0  0  0  0  0
    5.6021    2.5361   -1.3412 H   0  0  0  0  0  0  0  0  0  0  0  0
   -3.5842    0.0285   -2.1371 H   0  0  0  0  0  0  0  0  0  0  0  0
   -5.6607    1.3084   -2.3459 H   0  0  0  0  0  0  0  0  0  0  0  0
   -6.6637    2.4169   -0.3636 H   0  0  0  0  0  0  0  0  0  0  0  0
   -5.5389    2.2455    1.8427 H   0  0  0  0  0  0  0  0  0  0  0  0
   -3.4375    0.9997    2.0700 H   0  0  0  0  0  0  0  0  0  0  0  0
   -1.8634   -1.6169    3.2072 H   0  0  0  0  0  0  0  0  0  0  0  0
   -3.3248   -1.3902    2.2531 H   0  0  0  0  0  0  0  0  0  0  0  0
   -2.1311   -2.5962    1.7451 H   0  0  0  0  0  0  0  0  0  0  0  0
  1  2  1  0
  2  3  2  0
  3  4  1  0
  4  5  1  0
  5  6  2  0
  5  7  1  0
  7  8  1  0
  8  9  1  0
  9 10  2  0
 10 11  1  0
 11 12  1  0
 12 13  2  0
 12 14  1  0
 11 15  2  0
  3 16  1  0
 16 17  2  0
 16 18  1  0
 18 19  1  0
 19 20  2  0
 20 21  1  0
 21 22  2  0
 22 23  1  0
 23 24  2  0
 18 25  1  0
 25 26  1  0
 25  2  1  0
 15  8  1  0
 24 19  1  0
  1 27  1  0
  1 28  1  0
  1 29  1  0
  4 30  1  0
  7 31  1  0
  7 32  1  0
  9 33  1  0
 10 34  1  0
 20 35  1  0
 21 36  1  0
 22 37  1  0
 23 38  1  0
 24 39  1  0
 26 40  1  0
 26 41  1  0
 26 42  1  0
M  CHG  2  12   1  14  -1
M  END
$$$$
