
     RDKit          3D

 63 67  0  0  0  0  0  0  0  0999 V2000
    8.1468    1.2453   -3.1218 C   0  0  0  0  0  0  0  0  0  0  0  0
    7.4177    2.2326   -2.2304 C   0  0  0  0  0  0  0  0  0  0  0  0
    6.5387    1.5354   -1.3375 O   0  0  0  0  0  0  0  0  0  0  0  0
    5.2866    1.2775   -1.8168 C   0  0  0  0  0  0  0  0  0  0  0  0
    4.8882    1.5954   -2.9307 O   0  0  0  0  0  0  0  0  0  0  0  0
    4.4531    0.5721   -0.8512 C   0  0  0  0  0  0  0  0  0  0  0  0
    3.1045    0.1486   -1.0309 C   0  0  0  0  0  0  0  0  0  0  0  0
    2.6747   -0.4618    0.1342 C   0  0  0  0  0  0  0  0  0  0  0  0
    1.4039   -1.0683    0.5123 C   0  0  0  0  0  0  0  0  0  0  0  0
    0.2609   -1.0394   -0.2798 N   0  0  0  0  0  0  0  0  0  0  0  0
   -0.1069    0.1350   -1.0836 C   0  0  0  0  0  0  0  0  0  0  0  0
   -1.6175    0.4470   -0.9830 C   0  0  0  0  0  0  0  0  0  0  0  0
   -2.4961   -0.6580   -1.4338 N   0  0  0  0  0  0  0  0  0  0  0  0
   -3.8496   -0.5492   -0.8604 C   0  0  0  0  0  0  0  0  0  0  0  0
   -4.6098    0.7062   -1.3283 C   0  0  0  0  0  0  0  0  0  0  0  0
   -6.0200    0.7528   -0.7707 C   0  0  0  0  0  0  0  0  0  0  0  0
   -7.0238    0.0318   -1.4424 C   0  0  0  0  0  0  0  0  0  0  0  0
   -8.3358    0.0208   -0.9722 C   0  0  0  0  0  0  0  0  0  0  0  0
   -8.6676    0.7294    0.1763 C   0  0  0  0  0  0  0  0  0  0  0  0
   -7.6856    1.4485    0.8566 C   0  0  0  0  0  0  0  0  0  0  0  0
   -6.3523    1.4692    0.4026 C   0  0  0  0  0  0  0  0  0  0  0  0
   -5.3286    2.2746    1.1742 C   0  0  0  0  0  0  0  0  0  0  0  0
   -4.2166    1.5540    1.4924 F   0  0  0  0  0  0  0  0  0  0  0  0
   -4.8855    3.3599    0.4806 F   0  0  0  0  0  0  0  0  0  0  0  0
   -5.7967    2.7619    2.3589 F   0  0  0  0  0  0  0  0  0  0  0  0
   -1.8841   -1.9717   -1.1206 C   0  0  0  0  0  0  0  0  0  0  0  0
   -0.8501   -1.9573    0.0236 C   0  0  0  0  0  0  0  0  0  0  0  0
    1.3355   -1.6919    1.6639 N   0  0  0  0  0  0  0  0  0  0  0  0
    2.4398   -1.7307    2.5348 C   0  0  0  0  0  0  0  0  0  0  0  0
    2.2994   -2.3961    3.7543 C   0  0  0  0  0  0  0  0  0  0  0  0
    3.3610   -2.4564    4.6610 C   0  0  0  0  0  0  0  0  0  0  0  0
    4.5786   -1.8480    4.3540 C   0  0  0  0  0  0  0  0  0  0  0  0
    4.7408   -1.1773    3.1411 C   0  0  0  0  0  0  0  0  0  0  0  0
    3.6689   -1.1251    2.2445 C   0  0  0  0  0  0  0  0  0  0  0  0
    3.7487   -0.4852    0.9973 N   0  0  0  0  0  0  0  0  0  0  0  0
    4.8121    0.1689    0.4243 C   0  0  0  0  0  0  0  0  0  0  0  0
    8.8626    1.7613   -3.7680 H   0  0  0  0  0  0  0  0  0  0  0  0
    7.4440    0.6906   -3.7514 H   0  0  0  0  0  0  0  0  0  0  0  0
    8.6843    0.5069   -2.5179 H   0  0  0  0  0  0  0  0  0  0  0  0
    8.1412    2.7715   -1.6101 H   0  0  0  0  0  0  0  0  0  0  0  0
    6.8789    2.9833   -2.8193 H   0  0  0  0  0  0  0  0  0  0  0  0
    2.5242    0.2863   -1.9336 H   0  0  0  0  0  0  0  0  0  0  0  0
    0.4347    1.0249   -0.7432 H   0  0  0  0  0  0  0  0  0  0  0  0
    0.1627   -0.0474   -2.1304 H   0  0  0  0  0  0  0  0  0  0  0  0
   -1.8253    1.3353   -1.5900 H   0  0  0  0  0  0  0  0  0  0  0  0
   -1.8363    0.7061    0.0621 H   0  0  0  0  0  0  0  0  0  0  0  0
   -3.8086   -0.5865    0.2358 H   0  0  0  0  0  0  0  0  0  0  0  0
   -4.4335   -1.4237   -1.1770 H   0  0  0  0  0  0  0  0  0  0  0  0
   -4.0736    1.6203   -1.0554 H   0  0  0  0  0  0  0  0  0  0  0  0
   -4.6627    0.7188   -2.4253 H   0  0  0  0  0  0  0  0  0  0  0  0
   -6.7844   -0.5293   -2.3444 H   0  0  0  0  0  0  0  0  0  0  0  0
   -9.0990   -0.5409   -1.5046 H   0  0  0  0  0  0  0  0  0  0  0  0
   -9.6911    0.7241    0.5428 H   0  0  0  0  0  0  0  0  0  0  0  0
   -7.9682    1.9991    1.7536 H   0  0  0  0  0  0  0  0  0  0  0  0
   -1.3766   -2.3091   -2.0340 H   0  0  0  0  0  0  0  0  0  0  0  0
   -2.6470   -2.7316   -0.9123 H   0  0  0  0  0  0  0  0  0  0  0  0
   -0.4627   -2.9755    0.1489 H   0  0  0  0  0  0  0  0  0  0  0  0
   -1.3354   -1.6628    0.9626 H   0  0  0  0  0  0  0  0  0  0  0  0
    1.3512   -2.8689    3.9967 H   0  0  0  0  0  0  0  0  0  0  0  0
    3.2352   -2.9784    5.6062 H   0  0  0  0  0  0  0  0  0  0  0  0
    5.4024   -1.8984    5.0620 H   0  0  0  0  0  0  0  0  0  0  0  0
    5.6983   -0.7152    2.9249 H   0  0  0  0  0  0  0  0  0  0  0  0
    5.7516    0.2889    0.9449 H   0  0  0  0  0  0  0  0  0  0  0  0
  1  2  1  0
  2  3  1  0
  3  4  1  0
  4  5  2  0
  4  6  1  0
  6  7  1  0
  7  8  2  0
  8  9  1  0
  9 10  1  0
 10 11  1  0
 11 12  1  0
 12 13  1  0
 13 14  1  0
 14 15  1  0
 15 16  1  0
 16 17  2  0
 17 18  1  0
 18 19  2  0
 19 20  1  0
 20 21  2  0
 21 22  1  0
 22 23  1  0
 22 24  1  0
 22 25  1  0
 13 26  1  0
 26 27  1  0
  9 28  2  0
 28 29  1  0
 29 30  2  0
 30 31  1  0
 31 32  2  0
 32 33  1  0
 33 34  2  0
 34 35  1  0
 35 36  1  0
 36  6  2  0
 35  8  1  0
 27 10  1  0
 34 29  1  0
 21 16  1  0
  1 37  1  0
  1 38  1  0
  1 39  1  0
  2 40  1  0
  2 41  1  0
  7 42  1  0
 11 43  1  0
 11 44  1  0
 12 45  1  0
 12 46  1  0
 14 47  1  0
 14 48  1  0
 15 49  1  0
 15 50  1  0
 17 51  1  0
 18 52  1  0
 19 53  1  0
 20 54  1  0
 26 55  1  0
 26 56  1  0
 27 57  1  0
 27 58  1  0
 30 59  1  0
 31 60  1  0
 32 61  1  0
 33 62  1  0
 36 63  1  0
M  END
$$$$
