
     RDKit          3D

 51 55  0  0  0  0  0  0  0  0999 V2000
   -3.6894   -2.3344   -0.4810 C   0  0  0  0  0  0  0  0  0  0  0  0
   -2.9086   -1.3515    0.3561 C   0  0  0  0  0  0  0  0  0  0  0  0
   -1.5675   -1.2347    0.0204 N   0  0  0  0  0  0  0  0  0  0  0  0
   -0.7348   -0.3875    0.6626 C   0  0  0  0  0  0  0  0  0  0  0  0
    0.5973   -0.0651    0.5168 C   0  0  0  0  0  0  0  0  0  0  0  0
    1.4947   -0.6201   -0.4787 C   0  0  0  0  0  0  0  0  0  0  0  0
    1.1101   -1.4154   -1.3325 O   0  0  0  0  0  0  0  0  0  0  0  0
    2.8031   -0.2045   -0.3947 N   0  0  0  0  0  0  0  0  0  0  0  0
    3.8045   -0.7554   -1.2753 C   0  0  0  0  0  0  0  0  0  0  0  0
    5.1125   -0.0289   -1.1111 C   0  0  0  0  0  0  0  0  0  0  0  0
    5.3356    1.1911   -1.7917 C   0  0  0  0  0  0  0  0  0  0  0  0
    6.5313    1.8981   -1.6292 C   0  0  0  0  0  0  0  0  0  0  0  0
    7.4776    1.3692   -0.7795 C   0  0  0  0  0  0  0  0  0  0  0  0
    7.2668    0.1894   -0.1067 C   0  0  0  0  0  0  0  0  0  0  0  0
    6.0987   -0.5304   -0.2461 C   0  0  0  0  0  0  0  0  0  0  0  0
    8.3194   -0.1528    0.6833 O   0  0  0  0  0  0  0  0  0  0  0  0
    9.2210    0.9438    0.4238 C   0  0  0  0  0  0  0  0  0  0  0  0
    8.6897    1.9173   -0.4990 O   0  0  0  0  0  0  0  0  0  0  0  0
    0.8075    0.8916    1.5389 C   0  0  0  0  0  0  0  0  0  0  0  0
   -0.2809    1.1416    2.2729 N   0  0  0  0  0  0  0  0  0  0  0  0
   -1.2373    0.3542    1.7073 N   0  0  0  0  0  0  0  0  0  0  0  0
   -2.5662    0.2986    2.1589 C   0  0  0  0  0  0  0  0  0  0  0  0
   -2.9314    0.9439    3.1342 O   0  0  0  0  0  0  0  0  0  0  0  0
   -3.4563   -0.6260    1.3645 C   0  0  0  0  0  0  0  0  0  0  0  0
   -4.9018   -0.6434    1.7977 C   0  0  0  0  0  0  0  0  0  0  0  0
   -5.8735   -0.0672    0.7906 C   0  0  0  0  0  0  0  0  0  0  0  0
   -7.0171   -0.7901    0.4157 C   0  0  0  0  0  0  0  0  0  0  0  0
   -7.9306   -0.2548   -0.4971 C   0  0  0  0  0  0  0  0  0  0  0  0
   -7.7204    1.0126   -1.0386 C   0  0  0  0  0  0  0  0  0  0  0  0
   -6.5984    1.7472   -0.6632 C   0  0  0  0  0  0  0  0  0  0  0  0
   -5.6916    1.2090    0.2463 C   0  0  0  0  0  0  0  0  0  0  0  0
   -4.6255    1.9440    0.5917 F   0  0  0  0  0  0  0  0  0  0  0  0
   -3.1285   -3.2700   -0.5868 H   0  0  0  0  0  0  0  0  0  0  0  0
   -4.6560   -2.6002   -0.0477 H   0  0  0  0  0  0  0  0  0  0  0  0
   -3.8607   -1.9231   -1.4811 H   0  0  0  0  0  0  0  0  0  0  0  0
   -1.2301   -1.7793   -0.7786 H   0  0  0  0  0  0  0  0  0  0  0  0
    3.1193    0.3343    0.3979 H   0  0  0  0  0  0  0  0  0  0  0  0
    3.4534   -0.6892   -2.3121 H   0  0  0  0  0  0  0  0  0  0  0  0
    3.9173   -1.8213   -1.0443 H   0  0  0  0  0  0  0  0  0  0  0  0
    4.5691    1.5923   -2.4532 H   0  0  0  0  0  0  0  0  0  0  0  0
    6.7088    2.8318   -2.1512 H   0  0  0  0  0  0  0  0  0  0  0  0
    5.9592   -1.4566    0.3020 H   0  0  0  0  0  0  0  0  0  0  0  0
    9.4444    1.4454    1.3724 H   0  0  0  0  0  0  0  0  0  0  0  0
   10.1532    0.5412    0.0108 H   0  0  0  0  0  0  0  0  0  0  0  0
    1.7150    1.4256    1.7896 H   0  0  0  0  0  0  0  0  0  0  0  0
   -5.0534   -0.1040    2.7403 H   0  0  0  0  0  0  0  0  0  0  0  0
   -5.1747   -1.6814    2.0303 H   0  0  0  0  0  0  0  0  0  0  0  0
   -7.2073   -1.7770    0.8325 H   0  0  0  0  0  0  0  0  0  0  0  0
   -8.8111   -0.8263   -0.7817 H   0  0  0  0  0  0  0  0  0  0  0  0
   -8.4328    1.4294   -1.7459 H   0  0  0  0  0  0  0  0  0  0  0  0
   -6.4234    2.7390   -1.0682 H   0  0  0  0  0  0  0  0  0  0  0  0
  1  2  1  0
  2  3  1  0
  3  4  1  0
  4  5  2  0
  5  6  1  0
  6  7  2  0
  6  8  1  0
  8  9  1  0
  9 10  1  0
 10 11  2  0
 11 12  1  0
 12 13  2  0
 13 14  1  0
 14 15  2  0
 14 16  1  0
 16 17  1  0
 17 18  1  0
  5 19  1  0
 19 20  2  0
 20 21  1  0
 21 22  1  0
 22 23  2  0
 22 24  1  0
 24 25  1  0
 25 26  1  0
 26 27  2  0
 27 28  1  0
 28 29  2  0
 29 30  1  0
 30 31  2  0
 31 32  1  0
 24  2  2  0
 31 26  1  0
 21  4  1  0
 15 10  1  0
 18 13  1  0
  1 33  1  0
  1 34  1  0
  1 35  1  0
  3 36  1  0
  8 37  1  0
  9 38  1  0
  9 39  1  0
 11 40  1  0
 12 41  1  0
 15 42  1  0
 17 43  1  0
 17 44  1  0
 19 45  1  0
 25 46  1  0
 25 47  1  0
 27 48  1  0
 28 49  1  0
 29 50  1  0
 30 51  1  0
M  END
$$$$
