
     RDKit          3D

 46 48  0  0  0  0  0  0  0  0999 V2000
    0.2287   -0.7405   -1.5834 C   0  0  0  0  0  0  0  0  0  0  0  0
    0.9444    0.3792   -0.8579 C   0  0  0  0  0  0  0  0  0  0  0  0
    2.4220    0.3084   -0.6541 C   0  0  0  0  0  0  0  0  0  0  0  0
    3.1655   -0.7994   -0.7901 C   0  0  0  0  0  0  0  0  0  0  0  0
    4.6189   -0.8299   -0.5657 C   0  0  0  0  0  0  0  0  0  0  0  0
    5.4125   -1.6458   -1.3830 C   0  0  0  0  0  0  0  0  0  0  0  0
    6.7933   -1.7247   -1.1842 C   0  0  0  0  0  0  0  0  0  0  0  0
    7.3931   -0.9973   -0.1587 C   0  0  0  0  0  0  0  0  0  0  0  0
    6.6129   -0.1951    0.6710 C   0  0  0  0  0  0  0  0  0  0  0  0
    5.2319   -0.1156    0.4724 C   0  0  0  0  0  0  0  0  0  0  0  0
    0.3501    1.4347   -0.3740 N   0  0  0  0  0  0  0  0  0  0  0  0
   -1.0049    1.5412   -0.4775 N   0  0  0  0  0  0  0  0  0  0  0  0
   -1.6616    2.5899    0.1429 C   0  0  0  0  0  0  0  0  0  0  0  0
   -1.1199    3.5069    0.7504 O   0  0  0  0  0  0  0  0  0  0  0  0
   -3.1546    2.5953    0.0548 C   0  0  0  0  0  0  0  0  0  0  0  0
   -3.9374    1.8683   -1.0053 C   0  0  0  0  0  0  0  0  0  0  0  0
   -4.0429    1.4153    0.4430 C   0  0  0  0  0  0  0  0  0  0  0  0
   -5.3237    1.7428    1.1796 C   0  0  0  0  0  0  0  0  0  0  0  0
   -3.4498    0.0650    0.8211 C   0  0  0  0  0  0  0  0  0  0  0  0
   -3.7669   -1.1006    0.1008 C   0  0  0  0  0  0  0  0  0  0  0  0
   -3.2234   -2.3415    0.4430 C   0  0  0  0  0  0  0  0  0  0  0  0
   -2.3514   -2.4446    1.5223 C   0  0  0  0  0  0  0  0  0  0  0  0
   -2.0309   -1.3103    2.2615 C   0  0  0  0  0  0  0  0  0  0  0  0
   -2.5814   -0.0731    1.9177 C   0  0  0  0  0  0  0  0  0  0  0  0
   -0.2809   -1.3745   -0.8534 H   0  0  0  0  0  0  0  0  0  0  0  0
   -0.5043   -0.3292   -2.2837 H   0  0  0  0  0  0  0  0  0  0  0  0
    0.9115   -1.3525   -2.1754 H   0  0  0  0  0  0  0  0  0  0  0  0
    2.8649    1.2546   -0.3522 H   0  0  0  0  0  0  0  0  0  0  0  0
    2.7290   -1.7507   -1.0765 H   0  0  0  0  0  0  0  0  0  0  0  0
    4.9649   -2.2214   -2.1899 H   0  0  0  0  0  0  0  0  0  0  0  0
    7.3998   -2.3543   -1.8301 H   0  0  0  0  0  0  0  0  0  0  0  0
    8.4671   -1.0582   -0.0032 H   0  0  0  0  0  0  0  0  0  0  0  0
    7.0770    0.3672    1.4773 H   0  0  0  0  0  0  0  0  0  0  0  0
    4.6433    0.5037    1.1454 H   0  0  0  0  0  0  0  0  0  0  0  0
   -1.5427    0.7463   -0.7932 H   0  0  0  0  0  0  0  0  0  0  0  0
   -3.5412    3.5822    0.3067 H   0  0  0  0  0  0  0  0  0  0  0  0
   -3.4164    1.2521   -1.7272 H   0  0  0  0  0  0  0  0  0  0  0  0
   -4.7825    2.3896   -1.4455 H   0  0  0  0  0  0  0  0  0  0  0  0
   -6.0799    0.9714    0.9984 H   0  0  0  0  0  0  0  0  0  0  0  0
   -5.7458    2.7020    0.8597 H   0  0  0  0  0  0  0  0  0  0  0  0
   -5.1410    1.8028    2.2578 H   0  0  0  0  0  0  0  0  0  0  0  0
   -4.4581   -1.0428   -0.7379 H   0  0  0  0  0  0  0  0  0  0  0  0
   -3.4883   -3.2272   -0.1287 H   0  0  0  0  0  0  0  0  0  0  0  0
   -1.9284   -3.4083    1.7938 H   0  0  0  0  0  0  0  0  0  0  0  0
   -1.3542   -1.3830    3.1093 H   0  0  0  0  0  0  0  0  0  0  0  0
   -2.3181    0.8018    2.5113 H   0  0  0  0  0  0  0  0  0  0  0  0
  1  2  1  0
  2  3  1  0
  3  4  2  3
  4  5  1  0
  5  6  2  0
  6  7  1  0
  7  8  2  0
  8  9  1  0
  9 10  2  0
  2 11  2  3
 11 12  1  0
 12 13  1  0
 13 14  2  0
 13 15  1  0
 15 16  1  0
 16 17  1  0
 17 18  1  0
 17 19  1  0
 19 20  2  0
 20 21  1  0
 21 22  2  0
 22 23  1  0
 23 24  2  0
 10  5  1  0
 17 15  1  0
 24 19  1  0
  1 25  1  0
  1 26  1  0
  1 27  1  0
  3 28  1  0
  4 29  1  0
  6 30  1  0
  7 31  1  0
  8 32  1  0
  9 33  1  0
 10 34  1  0
 12 35  1  0
 15 36  1  0
 16 37  1  0
 16 38  1  0
 18 39  1  0
 18 40  1  0
 18 41  1  0
 20 42  1  0
 21 43  1  0
 22 44  1  0
 23 45  1  0
 24 46  1  0
M  END
$$$$
