
     RDKit          3D

 52 51  0  0  0  0  0  0  0  0999 V2000
   -7.2546   -0.8855   -2.4751 C   0  0  0  0  0  0  0  0  0  0  0  0
   -6.1138   -0.7541   -2.1217 C   0  0  0  0  0  0  0  0  0  0  0  0
   -4.7158   -0.6078   -1.7070 C   0  0  0  0  0  0  0  0  0  0  0  0
   -4.5476    0.3267   -0.4807 N   0  0  0  0  0  4  0  0  0  0  0  0
   -5.3185   -0.2440    0.7047 C   0  0  0  0  0  0  0  0  0  0  0  0
   -5.0779    1.7153   -0.8245 C   0  0  0  0  0  0  0  0  0  0  0  0
   -3.0310    0.3737   -0.1825 C   0  0  0  0  0  0  0  0  0  0  0  0
   -2.6563    1.2116    1.0427 C   0  0  0  0  0  0  0  0  0  0  0  0
   -1.1368    1.3344    1.2272 C   0  0  0  0  0  0  0  0  0  0  0  0
   -0.4538   -0.0013    1.5335 C   0  0  0  0  0  0  0  0  0  0  0  0
    1.0155    0.1475    1.9449 C   0  0  0  0  0  0  0  0  0  0  0  0
    1.9104    0.6660    0.8164 C   0  0  0  0  0  0  0  0  0  0  0  0
    3.3803    0.8130    1.2248 C   0  0  0  0  0  0  0  0  0  0  0  0
    4.0870   -0.4776    1.6514 C   0  0  0  0  0  0  0  0  0  0  0  0
    4.0656   -1.6155    0.6259 C   0  0  0  0  0  0  0  0  0  0  0  0
    4.6516   -1.2806   -0.7490 C   0  0  0  0  0  0  0  0  0  0  0  0
    6.1264   -0.8805   -0.6994 C   0  0  0  0  0  0  0  0  0  0  0  0
    6.6895   -0.6652   -2.0959 C   0  0  0  0  0  0  0  0  0  0  0  0
   -8.2645   -1.0110   -2.7994 H   0  0  0  0  0  0  0  0  0  0  0  0
   -4.2931   -1.5801   -1.4291 H   0  0  0  0  0  0  0  0  0  0  0  0
   -4.1145   -0.1817   -2.5182 H   0  0  0  0  0  0  0  0  0  0  0  0
   -5.2172    0.4376    1.5529 H   0  0  0  0  0  0  0  0  0  0  0  0
   -4.9048   -1.2273    0.9460 H   0  0  0  0  0  0  0  0  0  0  0  0
   -6.3771   -0.3230    0.4438 H   0  0  0  0  0  0  0  0  0  0  0  0
   -6.1353    1.6426   -1.0919 H   0  0  0  0  0  0  0  0  0  0  0  0
   -4.9842    2.3587    0.0532 H   0  0  0  0  0  0  0  0  0  0  0  0
   -4.4945    2.1123   -1.6601 H   0  0  0  0  0  0  0  0  0  0  0  0
   -2.5454    0.7720   -1.0814 H   0  0  0  0  0  0  0  0  0  0  0  0
   -2.7126   -0.6658   -0.0454 H   0  0  0  0  0  0  0  0  0  0  0  0
   -3.0533    2.2270    0.9499 H   0  0  0  0  0  0  0  0  0  0  0  0
   -3.0840    0.7792    1.9534 H   0  0  0  0  0  0  0  0  0  0  0  0
   -0.9487    2.0315    2.0530 H   0  0  0  0  0  0  0  0  0  0  0  0
   -0.7038    1.7839    0.3265 H   0  0  0  0  0  0  0  0  0  0  0  0
   -0.9885   -0.4968    2.3531 H   0  0  0  0  0  0  0  0  0  0  0  0
   -0.5161   -0.6666    0.6649 H   0  0  0  0  0  0  0  0  0  0  0  0
    1.3682   -0.8378    2.2699 H   0  0  0  0  0  0  0  0  0  0  0  0
    1.0893    0.8133    2.8131 H   0  0  0  0  0  0  0  0  0  0  0  0
    1.8249    0.0103   -0.0573 H   0  0  0  0  0  0  0  0  0  0  0  0
    1.5598    1.6539    0.4964 H   0  0  0  0  0  0  0  0  0  0  0  0
    3.9290    1.2667    0.3908 H   0  0  0  0  0  0  0  0  0  0  0  0
    3.4467    1.5306    2.0523 H   0  0  0  0  0  0  0  0  0  0  0  0
    3.6421   -0.8438    2.5843 H   0  0  0  0  0  0  0  0  0  0  0  0
    5.1268   -0.2356    1.9027 H   0  0  0  0  0  0  0  0  0  0  0  0
    4.6161   -2.4667    1.0462 H   0  0  0  0  0  0  0  0  0  0  0  0
    3.0346   -1.9635    0.4907 H   0  0  0  0  0  0  0  0  0  0  0  0
    4.5432   -2.1665   -1.3876 H   0  0  0  0  0  0  0  0  0  0  0  0
    4.0667   -0.4858   -1.2258 H   0  0  0  0  0  0  0  0  0  0  0  0
    6.2516    0.0439   -0.1257 H   0  0  0  0  0  0  0  0  0  0  0  0
    6.7075   -1.6605   -0.1941 H   0  0  0  0  0  0  0  0  0  0  0  0
    6.6191   -1.5798   -2.6933 H   0  0  0  0  0  0  0  0  0  0  0  0
    6.1481    0.1299   -2.6185 H   0  0  0  0  0  0  0  0  0  0  0  0
    7.7440   -0.3775   -2.0388 H   0  0  0  0  0  0  0  0  0  0  0  0
  1  2  3  0
  2  3  1  0
  3  4  1  0
  4  5  1  0
  4  6  1  0
  4  7  1  0
  7  8  1  0
  8  9  1  0
  9 10  1  0
 10 11  1  0
 11 12  1  0
 12 13  1  0
 13 14  1  0
 14 15  1  0
 15 16  1  0
 16 17  1  0
 17 18  1  0
  1 19  1  0
  3 20  1  0
  3 21  1  0
  5 22  1  0
  5 23  1  0
  5 24  1  0
  6 25  1  0
  6 26  1  0
  6 27  1  0
  7 28  1  0
  7 29  1  0
  8 30  1  0
  8 31  1  0
  9 32  1  0
  9 33  1  0
 10 34  1  0
 10 35  1  0
 11 36  1  0
 11 37  1  0
 12 38  1  0
 12 39  1  0
 13 40  1  0
 13 41  1  0
 14 42  1  0
 14 43  1  0
 15 44  1  0
 15 45  1  0
 16 46  1  0
 16 47  1  0
 17 48  1  0
 17 49  1  0
 18 50  1  0
 18 51  1  0
 18 52  1  0
M  CHG  1   4   1
M  END
$$$$
