
     RDKit          3D

 56 58  0  0  0  0  0  0  0  0999 V2000
    9.2613   -1.0672    0.9385 C   0  0  0  0  0  0  0  0  0  0  0  0
    8.5131   -2.0444    0.2266 O   0  0  0  0  0  0  0  0  0  0  0  0
    7.3382   -1.6308   -0.3385 C   0  0  0  0  0  0  0  0  0  0  0  0
    6.8149   -0.3391   -0.2934 C   0  0  0  0  0  0  0  0  0  0  0  0
    5.5961   -0.0520   -0.9182 C   0  0  0  0  0  0  0  0  0  0  0  0
    4.8875   -1.0495   -1.6020 C   0  0  0  0  0  0  0  0  0  0  0  0
    3.5653   -0.7366   -2.2511 C   0  0  0  0  0  0  0  0  0  0  0  0
    2.4870   -0.8585   -1.3070 N   0  0  0  0  0  0  0  0  0  0  0  0
    1.9879    0.2119   -0.6070 C   0  0  0  0  0  0  0  0  0  0  0  0
    2.2810    1.3894   -0.7672 O   0  0  0  0  0  0  0  0  0  0  0  0
    0.9526   -0.1857    0.4683 C   0  0  0  0  0  0  0  0  0  0  0  0
    0.6002   -1.3506    0.5727 O   0  0  0  0  0  0  0  0  0  0  0  0
    0.5141    0.8772    1.2235 N   0  0  0  0  0  0  0  0  0  0  0  0
   -0.6778    0.7946    2.0547 C   0  0  0  0  0  0  0  0  0  0  0  0
   -1.9733    1.2315    1.3261 C   0  0  0  0  0  0  0  0  0  0  0  0
   -1.8565    2.6178    0.9294 O   0  0  0  0  0  0  0  0  0  0  0  0
   -1.6845    2.6388   -0.4940 C   0  0  0  0  0  0  0  0  0  0  0  0
   -2.4238    1.4173   -0.9902 C   0  0  0  0  0  0  0  0  0  0  0  0
   -2.2082    0.4684    0.0970 N   0  0  0  0  0  0  0  0  0  0  0  0
   -3.1194   -0.9338    0.1825 S   0  0  0  0  0  6  0  0  0  0  0  0
   -3.0728   -1.5681   -1.1183 O   0  0  0  0  0  0  0  0  0  0  0  0
   -2.7497   -1.6443    1.3874 O   0  0  0  0  0  0  0  0  0  0  0  0
   -4.7913   -0.3563    0.4199 C   0  0  0  0  0  0  0  0  0  0  0  0
   -5.6122   -0.1410   -0.6910 C   0  0  0  0  0  0  0  0  0  0  0  0
   -6.9295    0.2815   -0.5046 C   0  0  0  0  0  0  0  0  0  0  0  0
   -7.4418    0.4602    0.7874 C   0  0  0  0  0  0  0  0  0  0  0  0
   -8.8499    0.9415    0.9841 C   0  0  0  0  0  0  0  0  0  0  0  0
   -6.6141    0.2235    1.8933 C   0  0  0  0  0  0  0  0  0  0  0  0
   -5.2959   -0.1994    1.7136 C   0  0  0  0  0  0  0  0  0  0  0  0
    5.4124   -2.3465   -1.6342 C   0  0  0  0  0  0  0  0  0  0  0  0
    6.6300   -2.6297   -1.0103 C   0  0  0  0  0  0  0  0  0  0  0  0
   10.1597   -1.5541    1.3299 H   0  0  0  0  0  0  0  0  0  0  0  0
    8.6944   -0.6797    1.7916 H   0  0  0  0  0  0  0  0  0  0  0  0
    9.5837   -0.2571    0.2762 H   0  0  0  0  0  0  0  0  0  0  0  0
    7.3247    0.4682    0.2210 H   0  0  0  0  0  0  0  0  0  0  0  0
    5.1963    0.9597   -0.8645 H   0  0  0  0  0  0  0  0  0  0  0  0
    3.5827    0.2718   -2.6804 H   0  0  0  0  0  0  0  0  0  0  0  0
    3.3669   -1.4354   -3.0711 H   0  0  0  0  0  0  0  0  0  0  0  0
    2.1971   -1.7786   -0.9861 H   0  0  0  0  0  0  0  0  0  0  0  0
    0.8525    1.7932    0.9425 H   0  0  0  0  0  0  0  0  0  0  0  0
   -0.7752   -0.2268    2.4346 H   0  0  0  0  0  0  0  0  0  0  0  0
   -0.4976    1.4656    2.9013 H   0  0  0  0  0  0  0  0  0  0  0  0
   -2.8170    1.1802    2.0184 H   0  0  0  0  0  0  0  0  0  0  0  0
   -2.0820    3.5709   -0.9044 H   0  0  0  0  0  0  0  0  0  0  0  0
   -0.6146    2.5858   -0.7200 H   0  0  0  0  0  0  0  0  0  0  0  0
   -3.4843    1.6578   -1.0989 H   0  0  0  0  0  0  0  0  0  0  0  0
   -2.0268    1.0602   -1.9431 H   0  0  0  0  0  0  0  0  0  0  0  0
   -5.2379   -0.3026   -1.6995 H   0  0  0  0  0  0  0  0  0  0  0  0
   -7.5599    0.4587   -1.3739 H   0  0  0  0  0  0  0  0  0  0  0  0
   -9.2670    0.5574    1.9209 H   0  0  0  0  0  0  0  0  0  0  0  0
   -8.8705    2.0353    1.0094 H   0  0  0  0  0  0  0  0  0  0  0  0
   -9.4985    0.5934    0.1734 H   0  0  0  0  0  0  0  0  0  0  0  0
   -6.9981    0.3547    2.9032 H   0  0  0  0  0  0  0  0  0  0  0  0
   -4.6789   -0.4113    2.5837 H   0  0  0  0  0  0  0  0  0  0  0  0
    4.8799   -3.1469   -2.1426 H   0  0  0  0  0  0  0  0  0  0  0  0
    7.0296   -3.6405   -1.0443 H   0  0  0  0  0  0  0  0  0  0  0  0
  1  2  1  0
  2  3  1  0
  3  4  2  0
  4  5  1  0
  5  6  2  0
  6  7  1  0
  7  8  1  0
  8  9  1  0
  9 10  2  0
  9 11  1  0
 11 12  2  0
 11 13  1  0
 13 14  1  0
 14 15  1  0
 15 16  1  0
 16 17  1  0
 17 18  1  0
 18 19  1  0
 19 20  1  0
 20 21  2  0
 20 22  2  0
 20 23  1  0
 23 24  2  0
 24 25  1  0
 25 26  2  0
 26 27  1  0
 26 28  1  0
 28 29  2  0
  6 30  1  0
 30 31  2  0
 31  3  1  0
 19 15  1  0
 29 23  1  0
  1 32  1  0
  1 33  1  0
  1 34  1  0
  4 35  1  0
  5 36  1  0
  7 37  1  0
  7 38  1  0
  8 39  1  0
 13 40  1  0
 14 41  1  0
 14 42  1  0
 15 43  1  0
 17 44  1  0
 17 45  1  0
 18 46  1  0
 18 47  1  0
 24 48  1  0
 25 49  1  0
 27 50  1  0
 27 51  1  0
 27 52  1  0
 28 53  1  0
 29 54  1  0
 30 55  1  0
 31 56  1  0
M  END
$$$$
