
     RDKit          3D

 51 55  0  0  0  0  0  0  0  0999 V2000
   -1.0638   -1.2337    0.9072 C   0  0  0  0  0  0  0  0  0  0  0  0
   -1.4261   -0.5089   -0.3670 C   0  0  0  0  0  0  0  0  0  0  0  0
   -0.4488    0.3581   -0.8436 N   0  0  0  0  0  0  0  0  0  0  0  0
   -0.6360    1.1037   -1.9586 C   0  0  0  0  0  0  0  0  0  0  0  0
    0.1126    2.0477   -2.6304 C   0  0  0  0  0  0  0  0  0  0  0  0
    1.4422    2.5429   -2.3435 C   0  0  0  0  0  0  0  0  0  0  0  0
    1.8511    3.6130   -2.7783 O   0  0  0  0  0  0  0  0  0  0  0  0
    2.2137    1.6942   -1.5825 N   0  0  0  0  0  0  0  0  0  0  0  0
    3.6024    1.9906   -1.3324 C   0  0  0  0  0  0  0  0  0  0  0  0
    4.1327    1.0859   -0.2521 C   0  0  0  0  0  0  0  0  0  0  0  0
    3.9263    1.4137    1.1087 C   0  0  0  0  0  0  0  0  0  0  0  0
    4.3753    0.5694    2.1290 C   0  0  0  0  0  0  0  0  0  0  0  0
    5.0173   -0.5926    1.7621 C   0  0  0  0  0  0  0  0  0  0  0  0
    5.2155   -0.9243    0.4429 C   0  0  0  0  0  0  0  0  0  0  0  0
    4.7843   -0.1127   -0.5854 C   0  0  0  0  0  0  0  0  0  0  0  0
    5.8609   -2.1123    0.2979 O   0  0  0  0  0  0  0  0  0  0  0  0
    6.0663   -2.4799    1.6783 C   0  0  0  0  0  0  0  0  0  0  0  0
    5.5145   -1.5291    2.6130 O   0  0  0  0  0  0  0  0  0  0  0  0
   -0.7341    2.4522   -3.6889 C   0  0  0  0  0  0  0  0  0  0  0  0
   -1.8908    1.7855   -3.7278 N   0  0  0  0  0  0  0  0  0  0  0  0
   -1.8277    0.9659   -2.6440 N   0  0  0  0  0  0  0  0  0  0  0  0
   -2.8614    0.0862   -2.2824 C   0  0  0  0  0  0  0  0  0  0  0  0
   -3.8623   -0.0382   -2.9774 O   0  0  0  0  0  0  0  0  0  0  0  0
   -2.6103   -0.6784   -1.0076 C   0  0  0  0  0  0  0  0  0  0  0  0
   -3.7497   -1.5648   -0.5650 C   0  0  0  0  0  0  0  0  0  0  0  0
   -4.4258   -1.1399    0.7209 C   0  0  0  0  0  0  0  0  0  0  0  0
   -4.6532   -2.0752    1.7430 C   0  0  0  0  0  0  0  0  0  0  0  0
   -5.2988   -1.6971    2.9237 C   0  0  0  0  0  0  0  0  0  0  0  0
   -5.7361   -0.3844    3.0950 C   0  0  0  0  0  0  0  0  0  0  0  0
   -5.5319    0.5497    2.0824 C   0  0  0  0  0  0  0  0  0  0  0  0
   -4.8881    0.1677    0.9083 C   0  0  0  0  0  0  0  0  0  0  0  0
   -4.7111    1.0892   -0.0484 F   0  0  0  0  0  0  0  0  0  0  0  0
   -1.1307   -0.5504    1.7601 H   0  0  0  0  0  0  0  0  0  0  0  0
   -0.0356   -1.6088    0.8490 H   0  0  0  0  0  0  0  0  0  0  0  0
   -1.6978   -2.1003    1.1068 H   0  0  0  0  0  0  0  0  0  0  0  0
    0.3149    0.5559   -0.1952 H   0  0  0  0  0  0  0  0  0  0  0  0
    1.9352    0.7220   -1.5661 H   0  0  0  0  0  0  0  0  0  0  0  0
    3.7112    3.0429   -1.0449 H   0  0  0  0  0  0  0  0  0  0  0  0
    4.1570    1.8534   -2.2680 H   0  0  0  0  0  0  0  0  0  0  0  0
    3.4116    2.3367    1.3724 H   0  0  0  0  0  0  0  0  0  0  0  0
    4.2251    0.8188    3.1735 H   0  0  0  0  0  0  0  0  0  0  0  0
    4.9517   -0.4032   -1.6175 H   0  0  0  0  0  0  0  0  0  0  0  0
    5.5984   -3.4553    1.8539 H   0  0  0  0  0  0  0  0  0  0  0  0
    7.1434   -2.5682    1.8616 H   0  0  0  0  0  0  0  0  0  0  0  0
   -0.5347    3.1997   -4.4481 H   0  0  0  0  0  0  0  0  0  0  0  0
   -4.5308   -1.6417   -1.3307 H   0  0  0  0  0  0  0  0  0  0  0  0
   -3.3627   -2.5876   -0.4640 H   0  0  0  0  0  0  0  0  0  0  0  0
   -4.3314   -3.1083    1.6274 H   0  0  0  0  0  0  0  0  0  0  0  0
   -5.4672   -2.4308    3.7089 H   0  0  0  0  0  0  0  0  0  0  0  0
   -6.2420   -0.0923    4.0116 H   0  0  0  0  0  0  0  0  0  0  0  0
   -5.8745    1.5737    2.1948 H   0  0  0  0  0  0  0  0  0  0  0  0
  1  2  1  0
  2  3  1  0
  3  4  1  0
  4  5  2  0
  5  6  1  0
  6  7  2  0
  6  8  1  0
  8  9  1  0
  9 10  1  0
 10 11  2  0
 11 12  1  0
 12 13  2  0
 13 14  1  0
 14 15  2  0
 14 16  1  0
 16 17  1  0
 17 18  1  0
  5 19  1  0
 19 20  2  0
 20 21  1  0
 21 22  1  0
 22 23  2  0
 22 24  1  0
 24 25  1  0
 25 26  1  0
 26 27  2  0
 27 28  1  0
 28 29  2  0
 29 30  1  0
 30 31  2  0
 31 32  1  0
 24  2  2  0
 31 26  1  0
 21  4  1  0
 15 10  1  0
 18 13  1  0
  1 33  1  0
  1 34  1  0
  1 35  1  0
  3 36  1  0
  8 37  1  0
  9 38  1  0
  9 39  1  0
 11 40  1  0
 12 41  1  0
 15 42  1  0
 17 43  1  0
 17 44  1  0
 19 45  1  0
 25 46  1  0
 25 47  1  0
 27 48  1  0
 28 49  1  0
 29 50  1  0
 30 51  1  0
M  END
$$$$
