
     RDKit          3D

 37 38  0  0  0  0  0  0  0  0999 V2000
    1.3439    2.6471   -0.5179 O   0  0  0  0  0  0  0  0  0  0  0  0
    0.7538    1.8670   -1.2596 C   0  0  0  0  0  0  0  0  0  0  0  0
   -0.5998    2.2053   -1.8852 C   0  0  0  0  0  0  0  0  0  0  0  0
   -1.7014    1.7475   -1.0926 O   0  0  0  0  0  0  0  0  0  0  0  0
   -1.9656    0.4205   -1.1970 C   0  0  0  0  0  0  0  0  0  0  0  0
   -1.3345   -0.3655   -1.8879 O   0  0  0  0  0  0  0  0  0  0  0  0
   -3.1285    0.0311   -0.3522 C   0  0  0  0  0  0  0  0  0  0  0  0
   -3.5377   -1.3127   -0.4228 C   0  0  0  0  0  0  0  0  0  0  0  0
   -4.6215   -1.7707    0.3332 C   0  0  0  0  0  0  0  0  0  0  0  0
   -5.3043   -0.8884    1.1663 C   0  0  0  0  0  0  0  0  0  0  0  0
   -6.6392   -1.4486    2.0951 Cl  0  0  0  0  0  0  0  0  0  0  0  0
   -4.9113    0.4448    1.2512 C   0  0  0  0  0  0  0  0  0  0  0  0
   -3.8277    0.9027    0.4968 C   0  0  0  0  0  0  0  0  0  0  0  0
   -3.5278    2.2272    0.6647 O   0  0  0  0  0  0  0  0  0  0  0  0
    1.2330    0.6170   -1.5849 N   0  0  0  0  0  0  0  0  0  0  0  0
    2.4440    0.0849   -0.9871 C   0  0  0  0  0  0  0  0  0  0  0  0
    2.2363   -0.3837    0.4579 C   0  0  0  0  0  0  0  0  0  0  0  0
    3.3965   -1.0839    0.9790 N   0  0  0  0  0  0  0  0  0  0  0  0
    4.4300   -0.4641    1.6356 C   0  0  0  0  0  0  0  0  0  0  0  0
    4.3576    0.8763    1.8580 O   0  0  0  0  0  0  0  0  0  0  0  0
    5.4296   -1.2777    1.9945 C   0  0  0  0  0  0  0  0  0  0  0  0
    5.1171   -2.9129    1.4966 S   0  0  0  0  0  0  0  0  0  0  0  0
    3.5744   -2.4394    0.7581 C   0  0  0  0  0  0  0  0  0  0  0  0
    2.8433   -3.2089    0.1566 O   0  0  0  0  0  0  0  0  0  0  0  0
   -0.6607    1.8198   -2.9104 H   0  0  0  0  0  0  0  0  0  0  0  0
   -0.6746    3.2958   -1.9588 H   0  0  0  0  0  0  0  0  0  0  0  0
   -3.0138   -2.0165   -1.0687 H   0  0  0  0  0  0  0  0  0  0  0  0
   -4.9246   -2.8128    0.2660 H   0  0  0  0  0  0  0  0  0  0  0  0
   -5.4418    1.1348    1.9029 H   0  0  0  0  0  0  0  0  0  0  0  0
   -2.7537    2.4538    0.1135 H   0  0  0  0  0  0  0  0  0  0  0  0
    0.5633   -0.0499   -1.9724 H   0  0  0  0  0  0  0  0  0  0  0  0
    3.2235    0.8551   -1.0249 H   0  0  0  0  0  0  0  0  0  0  0  0
    2.7680   -0.7480   -1.6205 H   0  0  0  0  0  0  0  0  0  0  0  0
    1.3806   -1.0702    0.4914 H   0  0  0  0  0  0  0  0  0  0  0  0
    1.9833    0.4565    1.1147 H   0  0  0  0  0  0  0  0  0  0  0  0
    5.1607    1.1599    2.3258 H   0  0  0  0  0  0  0  0  0  0  0  0
    6.3300   -0.9935    2.5198 H   0  0  0  0  0  0  0  0  0  0  0  0
  1  2  2  0
  2  3  1  0
  3  4  1  0
  4  5  1  0
  5  6  2  0
  5  7  1  0
  7  8  2  0
  8  9  1  0
  9 10  2  0
 10 11  1  0
 10 12  1  0
 12 13  2  0
 13 14  1  0
  2 15  1  0
 15 16  1  0
 16 17  1  0
 17 18  1  0
 18 19  1  0
 19 20  1  0
 19 21  2  0
 21 22  1  0
 22 23  1  0
 23 24  2  0
 13  7  1  0
 23 18  1  0
  3 25  1  0
  3 26  1  0
  8 27  1  0
  9 28  1  0
 12 29  1  0
 14 30  1  0
 15 31  1  0
 16 32  1  0
 16 33  1  0
 17 34  1  0
 17 35  1  0
 20 36  1  0
 21 37  1  0
M  END
$$$$
