
     RDKit          3D

 59 62  0  0  0  0  0  0  0  0999 V2000
   -5.7650    0.8045   -3.5826 C   0  0  0  0  0  0  0  0  0  0  0  0
   -5.4332    1.3713   -2.2117 C   0  0  0  0  0  0  0  0  0  0  0  0
   -5.0338    0.3353   -1.2716 N   0  0  0  0  0  0  0  0  0  0  0  0
   -5.9067   -0.3687   -0.4633 C   0  0  0  0  0  0  0  0  0  0  0  0
   -7.3058   -0.3128   -0.3376 C   0  0  0  0  0  0  0  0  0  0  0  0
   -7.9209   -1.1617    0.5849 C   0  0  0  0  0  0  0  0  0  0  0  0
   -7.1704   -2.0407    1.3556 C   0  0  0  0  0  0  0  0  0  0  0  0
   -5.7801   -2.0938    1.2210 C   0  0  0  0  0  0  0  0  0  0  0  0
   -5.1347   -1.2481    0.2972 C   0  0  0  0  0  0  0  0  0  0  0  0
   -3.7687   -1.0672   -0.0807 C   0  0  0  0  0  0  0  0  0  0  0  0
   -2.5582   -1.6735    0.3318 C   0  0  0  0  0  0  0  0  0  0  0  0
   -1.3463   -1.2833   -0.2433 C   0  0  0  0  0  0  0  0  0  0  0  0
   -0.0984   -1.8351    0.1062 N   0  0  0  0  0  0  0  0  0  0  0  0
    0.1733   -2.8183    1.0477 C   0  0  0  0  0  0  0  0  0  0  0  0
   -0.6529   -3.4221    1.7257 O   0  0  0  0  0  0  0  0  0  0  0  0
    1.6781   -3.1385    1.1124 C   0  0  0  0  0  0  0  0  0  0  0  0
    2.0322   -3.9164    2.3704 C   0  0  0  0  0  0  0  0  0  0  0  0
    2.3943   -1.8886    1.1055 O   0  0  0  0  0  0  0  0  0  0  0  0
    3.6198   -1.9093    0.5301 C   0  0  0  0  0  0  0  0  0  0  0  0
    4.1531   -2.8776    0.0187 O   0  0  0  0  0  0  0  0  0  0  0  0
    4.2137   -0.5464    0.5475 C   0  0  0  0  0  0  0  0  0  0  0  0
    5.3270   -0.2962   -0.2588 C   0  0  0  0  0  0  0  0  0  0  0  0
    5.9057    0.9795   -0.3000 C   0  0  0  0  0  0  0  0  0  0  0  0
    5.3836    2.0205    0.4676 C   0  0  0  0  0  0  0  0  0  0  0  0
    5.8945    3.3370    0.4739 N   0  0  0  0  0  0  0  0  0  0  0  0
    6.9621    3.8295   -0.2623 C   0  0  0  0  0  0  0  0  0  0  0  0
    7.6644    3.1872   -1.0384 O   0  0  0  0  0  0  0  0  0  0  0  0
    7.2135    5.3046   -0.0424 C   0  0  0  0  0  0  0  0  0  0  0  0
    8.2042    5.4910    1.0137 C   0  0  0  0  0  0  0  0  0  0  0  0
    8.9703    5.6664    1.8692 N   0  0  0  0  0  0  0  0  0  0  0  0
    4.2762    1.7625    1.2856 C   0  0  0  0  0  0  0  0  0  0  0  0
    3.6921    0.4904    1.3262 C   0  0  0  0  0  0  0  0  0  0  0  0
   -1.3436   -0.2872   -1.2239 C   0  0  0  0  0  0  0  0  0  0  0  0
   -2.5255    0.3309   -1.6487 C   0  0  0  0  0  0  0  0  0  0  0  0
   -3.7311   -0.0765   -1.0613 C   0  0  0  0  0  0  0  0  0  0  0  0
   -6.5991    0.0935   -3.5257 H   0  0  0  0  0  0  0  0  0  0  0  0
   -4.9054    0.2791   -4.0137 H   0  0  0  0  0  0  0  0  0  0  0  0
   -6.0499    1.6095   -4.2656 H   0  0  0  0  0  0  0  0  0  0  0  0
   -6.2952    1.9015   -1.7896 H   0  0  0  0  0  0  0  0  0  0  0  0
   -4.6186    2.1034   -2.2840 H   0  0  0  0  0  0  0  0  0  0  0  0
   -7.9046    0.3648   -0.9359 H   0  0  0  0  0  0  0  0  0  0  0  0
   -9.0026   -1.1354    0.6999 H   0  0  0  0  0  0  0  0  0  0  0  0
   -7.6651   -2.6934    2.0688 H   0  0  0  0  0  0  0  0  0  0  0  0
   -5.2001   -2.7856    1.8242 H   0  0  0  0  0  0  0  0  0  0  0  0
   -2.6084   -2.4402    1.0970 H   0  0  0  0  0  0  0  0  0  0  0  0
    0.7118   -1.4440   -0.3581 H   0  0  0  0  0  0  0  0  0  0  0  0
    1.9088   -3.7330    0.2190 H   0  0  0  0  0  0  0  0  0  0  0  0
    3.1098   -4.1020    2.4238 H   0  0  0  0  0  0  0  0  0  0  0  0
    1.7641   -3.3480    3.2665 H   0  0  0  0  0  0  0  0  0  0  0  0
    1.5122   -4.8770    2.4061 H   0  0  0  0  0  0  0  0  0  0  0  0
    5.7535   -1.0904   -0.8683 H   0  0  0  0  0  0  0  0  0  0  0  0
    6.7675    1.1183   -0.9455 H   0  0  0  0  0  0  0  0  0  0  0  0
    5.4273    3.9786    1.1034 H   0  0  0  0  0  0  0  0  0  0  0  0
    6.2763    5.8110    0.2073 H   0  0  0  0  0  0  0  0  0  0  0  0
    7.5598    5.7394   -0.9860 H   0  0  0  0  0  0  0  0  0  0  0  0
    3.8461    2.5457    1.9048 H   0  0  0  0  0  0  0  0  0  0  0  0
    2.8353    0.3270    1.9737 H   0  0  0  0  0  0  0  0  0  0  0  0
   -0.4113    0.0297   -1.6849 H   0  0  0  0  0  0  0  0  0  0  0  0
   -2.4948    1.0990   -2.4143 H   0  0  0  0  0  0  0  0  0  0  0  0
  1  2  1  0
  2  3  1  0
  3  4  1  0
  4  5  2  0
  5  6  1  0
  6  7  2  0
  7  8  1  0
  8  9  2  0
  9 10  1  0
 10 11  2  0
 11 12  1  0
 12 13  1  0
 13 14  1  0
 14 15  2  0
 14 16  1  0
 16 17  1  0
 16 18  1  0
 18 19  1  0
 19 20  2  0
 19 21  1  0
 21 22  2  0
 22 23  1  0
 23 24  2  0
 24 25  1  0
 25 26  1  0
 26 27  2  0
 26 28  1  0
 28 29  1  0
 29 30  3  0
 24 31  1  0
 31 32  2  0
 12 33  2  0
 33 34  1  0
 34 35  2  0
 35  3  1  0
  9  4  1  0
 35 10  1  0
 32 21  1  0
  1 36  1  0
  1 37  1  0
  1 38  1  0
  2 39  1  0
  2 40  1  0
  5 41  1  0
  6 42  1  0
  7 43  1  0
  8 44  1  0
 11 45  1  0
 13 46  1  0
 16 47  1  0
 17 48  1  0
 17 49  1  0
 17 50  1  0
 22 51  1  0
 23 52  1  0
 25 53  1  0
 28 54  1  0
 28 55  1  0
 31 56  1  0
 32 57  1  0
 33 58  1  0
 34 59  1  0
M  END
$$$$
