
     RDKit          3D

 40 41  0  0  0  0  0  0  0  0999 V2000
    7.5714   -1.4677    0.7312 C   0  0  0  0  0  0  0  0  0  0  0  0
    6.8948   -0.2788    0.3427 O   0  0  0  0  0  0  0  0  0  0  0  0
    5.5332   -0.2745    0.4625 C   0  0  0  0  0  0  0  0  0  0  0  0
    4.9188    0.9257    0.1014 C   0  0  0  0  0  0  0  0  0  0  0  0
    3.5297    1.0698    0.1755 C   0  0  0  0  0  0  0  0  0  0  0  0
    2.7313    0.0117    0.6226 C   0  0  0  0  0  0  0  0  0  0  0  0
    1.2663    0.1035    0.6835 C   0  0  0  0  0  0  0  0  0  0  0  0
    0.6089    1.2109    1.0629 C   0  0  0  0  0  0  0  0  0  0  0  0
   -0.8730    1.2799    1.1664 C   0  0  0  0  0  0  0  0  0  0  0  0
   -1.3688    1.8997    2.0974 O   0  0  0  0  0  0  0  0  0  0  0  0
   -1.5349    0.6719    0.1191 N   0  0  0  0  0  0  0  0  0  0  0  0
   -2.8978    0.5359   -0.0858 C   0  0  0  0  0  0  0  0  0  0  0  0
   -3.7953    0.9348    0.8224 C   0  0  0  0  0  0  0  0  0  0  0  0
   -5.2344    0.7711    0.5927 C   0  0  0  0  0  0  0  0  0  0  0  0
   -6.0197    1.0845    1.4840 O   0  0  0  0  0  0  0  0  0  0  0  0
   -5.5985    0.2603   -0.6298 N   0  0  0  0  0  0  0  0  0  0  0  0
   -7.0115    0.0909   -0.9108 C   0  0  0  0  0  0  0  0  0  0  0  0
   -4.6970   -0.2186   -1.5661 C   0  0  0  0  0  0  0  0  0  0  0  0
   -5.0796   -0.7668   -2.6028 O   0  0  0  0  0  0  0  0  0  0  0  0
   -3.3396   -0.0531   -1.2680 N   0  0  0  0  0  0  0  0  0  0  0  0
   -2.3922   -0.5325   -2.2706 C   0  0  0  0  0  0  0  0  0  0  0  0
    3.3505   -1.1957    0.9685 C   0  0  0  0  0  0  0  0  0  0  0  0
    4.7425   -1.3375    0.8950 C   0  0  0  0  0  0  0  0  0  0  0  0
    7.2799   -2.3119    0.0977 H   0  0  0  0  0  0  0  0  0  0  0  0
    8.6442   -1.3024    0.5924 H   0  0  0  0  0  0  0  0  0  0  0  0
    7.4029   -1.6906    1.7900 H   0  0  0  0  0  0  0  0  0  0  0  0
    5.5280    1.7579   -0.2440 H   0  0  0  0  0  0  0  0  0  0  0  0
    3.0900    2.0162   -0.1290 H   0  0  0  0  0  0  0  0  0  0  0  0
    0.7313   -0.8125    0.4449 H   0  0  0  0  0  0  0  0  0  0  0  0
    1.1208    2.1030    1.4095 H   0  0  0  0  0  0  0  0  0  0  0  0
   -0.9384    0.3293   -0.6174 H   0  0  0  0  0  0  0  0  0  0  0  0
   -3.5487    1.3830    1.7752 H   0  0  0  0  0  0  0  0  0  0  0  0
   -7.2718   -0.9603   -0.7508 H   0  0  0  0  0  0  0  0  0  0  0  0
   -7.2209    0.3481   -1.9540 H   0  0  0  0  0  0  0  0  0  0  0  0
   -7.6336    0.7153   -0.2635 H   0  0  0  0  0  0  0  0  0  0  0  0
   -2.8819   -0.9751   -3.1420 H   0  0  0  0  0  0  0  0  0  0  0  0
   -1.7855    0.3078   -2.6236 H   0  0  0  0  0  0  0  0  0  0  0  0
   -1.7526   -1.3009   -1.8238 H   0  0  0  0  0  0  0  0  0  0  0  0
    2.7579   -2.0413    1.3122 H   0  0  0  0  0  0  0  0  0  0  0  0
    5.1733   -2.2908    1.1824 H   0  0  0  0  0  0  0  0  0  0  0  0
  1  2  1  0
  2  3  1  0
  3  4  2  0
  4  5  1  0
  5  6  2  0
  6  7  1  0
  7  8  2  3
  8  9  1  0
  9 10  2  0
  9 11  1  0
 11 12  1  0
 12 13  2  0
 13 14  1  0
 14 15  2  0
 14 16  1  0
 16 17  1  0
 16 18  1  0
 18 19  2  0
 18 20  1  0
 20 21  1  0
  6 22  1  0
 22 23  2  0
 23  3  1  0
 20 12  1  0
  1 24  1  0
  1 25  1  0
  1 26  1  0
  4 27  1  0
  5 28  1  0
  7 29  1  0
  8 30  1  0
 11 31  1  0
 13 32  1  0
 17 33  1  0
 17 34  1  0
 17 35  1  0
 21 36  1  0
 21 37  1  0
 21 38  1  0
 22 39  1  0
 23 40  1  0
M  END
$$$$
