
     RDKit          3D

 49 52  0  0  0  0  0  0  0  0999 V2000
   -0.4570    4.4357    1.0208 O   0  0  0  0  0  0  0  0  0  0  0  0
   -1.2295    3.4920    1.0163 C   0  0  0  0  0  0  0  0  0  0  0  0
   -1.6142    2.8885    2.1544 O   0  0  0  0  0  0  0  0  0  0  0  0
   -1.9188    2.9373   -0.1677 C   0  0  0  0  0  0  0  0  0  0  0  0
   -2.5086    3.9107   -0.9998 C   0  0  0  0  0  0  0  0  0  0  0  0
   -3.3082    3.5322   -2.0723 C   0  0  0  0  0  0  0  0  0  0  0  0
   -3.5459    2.1809   -2.2966 C   0  0  0  0  0  0  0  0  0  0  0  0
   -2.9399    1.2095   -1.4797 C   0  0  0  0  0  0  0  0  0  0  0  0
   -3.2546   -0.2139   -1.7323 C   0  0  0  0  0  0  0  0  0  0  0  0
   -3.9513   -0.5434   -2.6870 O   0  0  0  0  0  0  0  0  0  0  0  0
   -2.7381   -1.2318   -0.7996 C   0  0  0  0  0  0  0  0  0  0  0  0
   -3.1557   -2.5640   -0.9350 C   0  0  0  0  0  0  0  0  0  0  0  0
   -2.6618   -3.5358   -0.0700 C   0  0  0  0  0  0  0  0  0  0  0  0
   -1.7546   -3.1767    0.9238 C   0  0  0  0  0  0  0  0  0  0  0  0
   -1.3399   -1.8447    1.0519 C   0  0  0  0  0  0  0  0  0  0  0  0
   -1.8131   -0.8456    0.1828 C   0  0  0  0  0  0  0  0  0  0  0  0
   -1.4026    0.5129    0.2892 N   0  0  0  0  0  0  0  0  0  0  0  0
    0.0799    0.6805    0.4393 C   0  0  0  0  0  0  0  0  0  0  0  0
    0.8828    0.2049   -0.8008 C   0  0  0  0  0  0  0  0  0  0  0  0
    0.6022    1.0598   -1.9222 O   0  0  0  0  0  0  0  0  0  0  0  0
    2.4026    0.2634   -0.5163 C   0  0  0  0  0  0  0  0  0  0  0  0
    2.7828   -0.7350    0.4855 N   0  0  0  0  0  0  0  0  0  0  0  0
    3.5305   -1.8716   -0.0760 C   0  0  0  0  0  0  0  0  0  0  0  0
    4.0716   -2.5632    1.1667 C   0  0  0  0  0  0  0  0  0  0  0  0
    4.1350   -1.4646    2.2356 C   0  0  0  0  0  0  0  0  0  0  0  0
    3.6636   -0.1987    1.5337 C   0  0  0  0  0  0  0  0  0  0  0  0
   -2.0594    1.5534   -0.4322 C   0  0  0  0  0  0  0  0  0  0  0  0
   -1.1326    3.3732    2.8578 H   0  0  0  0  0  0  0  0  0  0  0  0
   -2.3583    4.9715   -0.7918 H   0  0  0  0  0  0  0  0  0  0  0  0
   -3.7676    4.2848   -2.7097 H   0  0  0  0  0  0  0  0  0  0  0  0
   -4.2047    1.8758   -3.1075 H   0  0  0  0  0  0  0  0  0  0  0  0
   -3.8656   -2.8384   -1.7125 H   0  0  0  0  0  0  0  0  0  0  0  0
   -2.9873   -4.5673   -0.1701 H   0  0  0  0  0  0  0  0  0  0  0  0
   -1.3711   -3.9306    1.6081 H   0  0  0  0  0  0  0  0  0  0  0  0
   -0.6545   -1.6024    1.8583 H   0  0  0  0  0  0  0  0  0  0  0  0
    0.3457    1.7257    0.6182 H   0  0  0  0  0  0  0  0  0  0  0  0
    0.4141    0.1568    1.3419 H   0  0  0  0  0  0  0  0  0  0  0  0
    0.5954   -0.8152   -1.0894 H   0  0  0  0  0  0  0  0  0  0  0  0
    0.9048    0.5893   -2.7210 H   0  0  0  0  0  0  0  0  0  0  0  0
    2.6542    1.2862   -0.1826 H   0  0  0  0  0  0  0  0  0  0  0  0
    2.9576    0.1321   -1.4616 H   0  0  0  0  0  0  0  0  0  0  0  0
    2.8931   -2.5413   -0.6710 H   0  0  0  0  0  0  0  0  0  0  0  0
    4.3713   -1.5369   -0.7008 H   0  0  0  0  0  0  0  0  0  0  0  0
    3.3916   -3.3627    1.4875 H   0  0  0  0  0  0  0  0  0  0  0  0
    5.0616   -3.0060    0.9877 H   0  0  0  0  0  0  0  0  0  0  0  0
    3.4645   -1.7211    3.0685 H   0  0  0  0  0  0  0  0  0  0  0  0
    5.1453   -1.3550    2.6497 H   0  0  0  0  0  0  0  0  0  0  0  0
    4.5232    0.3385    1.1110 H   0  0  0  0  0  0  0  0  0  0  0  0
    3.1216    0.4703    2.2168 H   0  0  0  0  0  0  0  0  0  0  0  0
  1  2  2  0
  2  3  1  0
  2  4  1  0
  4  5  2  0
  5  6  1  0
  6  7  2  0
  7  8  1  0
  8  9  1  0
  9 10  2  0
  9 11  1  0
 11 12  2  0
 12 13  1  0
 13 14  2  0
 14 15  1  0
 15 16  2  0
 16 17  1  0
 17 18  1  0
 18 19  1  0
 19 20  1  0
 19 21  1  0
 21 22  1  0
 22 23  1  0
 23 24  1  0
 24 25  1  0
 25 26  1  0
 17 27  1  0
 27  4  1  0
 27  8  2  0
 16 11  1  0
 26 22  1  0
  3 28  1  0
  5 29  1  0
  6 30  1  0
  7 31  1  0
 12 32  1  0
 13 33  1  0
 14 34  1  0
 15 35  1  0
 18 36  1  0
 18 37  1  0
 19 38  1  0
 20 39  1  0
 21 40  1  0
 21 41  1  0
 23 42  1  0
 23 43  1  0
 24 44  1  0
 24 45  1  0
 25 46  1  0
 25 47  1  0
 26 48  1  0
 26 49  1  0
M  END
$$$$
