
     RDKit          3D

102104  0  0  0  0  0  0  0  0999 V2000
    6.9421    3.4548    3.5525 C   0  0  0  0  0  0  0  0  0  0  0  0
    7.2025    3.6114    2.0622 C   0  0  0  0  0  0  0  0  0  0  0  0
    6.8259    2.3713    1.2487 C   0  0  0  0  0  0  0  0  0  0  0  0
    5.3189    2.1070    1.2174 C   0  0  0  0  0  0  0  0  0  0  0  0
    4.9885    0.8803    0.3630 C   0  0  0  0  0  0  0  0  0  0  0  0
    3.4810    0.5849    0.2927 C   0  0  0  0  0  0  0  0  0  0  0  0
    2.7406    1.5496   -0.6410 C   0  0  0  0  0  0  0  0  0  0  0  0
    1.2538    1.6386   -0.3367 C   0  0  0  0  0  0  0  0  0  0  0  0
    0.6480    0.8971    0.4307 O   0  0  0  0  0  0  0  0  0  0  0  0
    0.6378    2.6733   -1.0196 N   0  0  0  0  0  0  0  0  0  0  0  0
   -0.8152    2.8220   -0.9527 C   0  0  0  0  0  0  0  0  0  0  0  0
   -1.2290    4.2526   -1.3242 C   0  0  0  0  0  0  0  0  0  0  0  0
   -2.7392    4.5424   -1.2083 C   0  0  0  0  0  0  0  0  0  0  0  0
   -3.0372    5.9575   -1.7129 C   0  0  0  0  0  0  0  0  0  0  0  0
   -3.2578    4.3885    0.2228 C   0  0  0  0  0  0  0  0  0  0  0  0
   -1.4008    1.8069   -1.9498 C   0  0  0  0  0  0  0  0  0  0  0  0
   -0.9283    1.6481   -3.0730 O   0  0  0  0  0  0  0  0  0  0  0  0
   -2.4864    1.1062   -1.4724 N   0  0  0  0  0  0  0  0  0  0  0  0
   -3.0591   -0.0286   -2.2113 C   0  0  0  0  0  0  0  0  0  0  0  0
   -4.5913   -0.0481   -2.0938 C   0  0  0  0  0  0  0  0  0  0  0  0
   -5.2490    1.1991   -2.6396 C   0  0  0  0  0  0  0  0  0  0  0  0
   -5.9222    2.0822   -1.7827 C   0  0  0  0  0  0  0  0  0  0  0  0
   -6.5211    3.2402   -2.2870 C   0  0  0  0  0  0  0  0  0  0  0  0
   -6.4542    3.5254   -3.6511 C   0  0  0  0  0  0  0  0  0  0  0  0
   -5.7901    2.6512   -4.5116 C   0  0  0  0  0  0  0  0  0  0  0  0
   -5.1940    1.4923   -4.0102 C   0  0  0  0  0  0  0  0  0  0  0  0
   -2.5237   -1.3719   -1.6641 C   0  0  0  0  0  0  0  0  0  0  0  0
   -2.7777   -2.4388   -2.2155 O   0  0  0  0  0  0  0  0  0  0  0  0
   -1.8591   -1.2640   -0.4543 N   0  0  0  0  0  0  0  0  0  0  0  0
   -1.1078   -2.3577    0.1585 C   0  0  0  0  0  0  0  0  0  0  0  0
   -1.8161   -3.7146    0.3082 C   0  0  0  0  0  0  0  0  0  0  0  0
   -2.9169   -3.7505    1.3910 C   0  0  0  0  0  0  0  0  0  0  0  0
   -4.1356   -2.8906    1.0533 C   0  0  0  0  0  0  0  0  0  0  0  0
   -3.3659   -5.1969    1.6112 C   0  0  0  0  0  0  0  0  0  0  0  0
    0.2670   -2.4573   -0.5417 C   0  0  0  0  0  0  0  0  0  0  0  0
    0.5414   -1.8585   -1.5793 O   0  0  0  0  0  0  0  0  0  0  0  0
    1.2041   -3.2181    0.1369 N   0  0  0  0  0  0  0  0  0  0  0  0
    2.6194   -3.0021   -0.1659 C   0  0  0  0  0  0  0  0  0  0  0  0
    3.5199   -4.2034    0.1635 C   0  0  0  0  0  0  0  0  0  0  0  0
    3.2426   -4.9063    1.4741 C   0  0  0  0  0  0  0  0  0  0  0  0
    3.8904   -4.5124    2.6518 C   0  0  0  0  0  0  0  0  0  0  0  0
    3.6161   -5.1542    3.8605 C   0  0  0  0  0  0  0  0  0  0  0  0
    2.6954   -6.1994    3.9031 C   0  0  0  0  0  0  0  0  0  0  0  0
    2.0504   -6.6091    2.7366 C   0  0  0  0  0  0  0  0  0  0  0  0
    2.3222   -5.9646    1.5288 C   0  0  0  0  0  0  0  0  0  0  0  0
    3.0406   -1.7435    0.6025 C   0  0  0  0  0  0  0  0  0  0  0  0
    3.0129   -1.6285    1.8216 O   0  0  0  0  0  0  0  0  0  0  0  0
    3.3441   -0.7397   -0.2687 O   0  0  0  0  0  0  0  0  0  0  0  0
    5.8724    3.3820    3.7716 H   0  0  0  0  0  0  0  0  0  0  0  0
    7.4384    2.5616    3.9458 H   0  0  0  0  0  0  0  0  0  0  0  0
    7.3303    4.3221    4.0961 H   0  0  0  0  0  0  0  0  0  0  0  0
    8.2716    3.8115    1.9170 H   0  0  0  0  0  0  0  0  0  0  0  0
    6.6618    4.4870    1.6847 H   0  0  0  0  0  0  0  0  0  0  0  0
    7.3526    1.4963    1.6468 H   0  0  0  0  0  0  0  0  0  0  0  0
    7.1820    2.5162    0.2209 H   0  0  0  0  0  0  0  0  0  0  0  0
    4.9462    1.9353    2.2342 H   0  0  0  0  0  0  0  0  0  0  0  0
    4.8109    2.9960    0.8321 H   0  0  0  0  0  0  0  0  0  0  0  0
    5.3894    1.0024   -0.6517 H   0  0  0  0  0  0  0  0  0  0  0  0
    5.5054    0.0058    0.7806 H   0  0  0  0  0  0  0  0  0  0  0  0
    3.0513    0.6371    1.3003 H   0  0  0  0  0  0  0  0  0  0  0  0
    3.1435    2.5645   -0.5495 H   0  0  0  0  0  0  0  0  0  0  0  0
    2.8424    1.2309   -1.6860 H   0  0  0  0  0  0  0  0  0  0  0  0
    1.0470    2.8997   -1.9229 H   0  0  0  0  0  0  0  0  0  0  0  0
   -1.1300    2.5798    0.0669 H   0  0  0  0  0  0  0  0  0  0  0  0
   -0.9107    4.4619   -2.3556 H   0  0  0  0  0  0  0  0  0  0  0  0
   -0.6754    4.9594   -0.6905 H   0  0  0  0  0  0  0  0  0  0  0  0
   -3.2870    3.8468   -1.8549 H   0  0  0  0  0  0  0  0  0  0  0  0
   -2.5251    6.7148   -1.1105 H   0  0  0  0  0  0  0  0  0  0  0  0
   -4.1120    6.1657   -1.6767 H   0  0  0  0  0  0  0  0  0  0  0  0
   -2.7098    6.0759   -2.7518 H   0  0  0  0  0  0  0  0  0  0  0  0
   -3.1743    3.3557    0.5738 H   0  0  0  0  0  0  0  0  0  0  0  0
   -2.7041    5.0311    0.9167 H   0  0  0  0  0  0  0  0  0  0  0  0
   -4.3170    4.6629    0.2852 H   0  0  0  0  0  0  0  0  0  0  0  0
   -2.7899    1.2367   -0.5153 H   0  0  0  0  0  0  0  0  0  0  0  0
   -2.7415    0.0365   -3.2572 H   0  0  0  0  0  0  0  0  0  0  0  0
   -4.8769   -0.1823   -1.0412 H   0  0  0  0  0  0  0  0  0  0  0  0
   -5.0041   -0.9155   -2.6262 H   0  0  0  0  0  0  0  0  0  0  0  0
   -5.9851    1.8792   -0.7159 H   0  0  0  0  0  0  0  0  0  0  0  0
   -7.0385    3.9230   -1.6176 H   0  0  0  0  0  0  0  0  0  0  0  0
   -6.9195    4.4249   -4.0458 H   0  0  0  0  0  0  0  0  0  0  0  0
   -5.7366    2.8693   -5.5762 H   0  0  0  0  0  0  0  0  0  0  0  0
   -4.6844    0.8190   -4.6969 H   0  0  0  0  0  0  0  0  0  0  0  0
   -1.3735   -0.3765   -0.3650 H   0  0  0  0  0  0  0  0  0  0  0  0
   -0.8793   -1.9892    1.1678 H   0  0  0  0  0  0  0  0  0  0  0  0
   -1.0658   -4.4674    0.5849 H   0  0  0  0  0  0  0  0  0  0  0  0
   -2.2188   -4.0685   -0.6450 H   0  0  0  0  0  0  0  0  0  0  0  0
   -2.4907   -3.3891    2.3350 H   0  0  0  0  0  0  0  0  0  0  0  0
   -4.5462   -3.1449    0.0696 H   0  0  0  0  0  0  0  0  0  0  0  0
   -3.8882   -1.8254    1.0603 H   0  0  0  0  0  0  0  0  0  0  0  0
   -4.9294   -3.0317    1.7970 H   0  0  0  0  0  0  0  0  0  0  0  0
   -3.7988   -5.6217    0.6985 H   0  0  0  0  0  0  0  0  0  0  0  0
   -4.1198   -5.2580    2.4034 H   0  0  0  0  0  0  0  0  0  0  0  0
   -2.5187   -5.8234    1.9128 H   0  0  0  0  0  0  0  0  0  0  0  0
    1.0048   -3.4263    1.1117 H   0  0  0  0  0  0  0  0  0  0  0  0
    2.7282   -2.7953   -1.2377 H   0  0  0  0  0  0  0  0  0  0  0  0
    3.4052   -4.9440   -0.6391 H   0  0  0  0  0  0  0  0  0  0  0  0
    4.5751   -3.9008    0.1338 H   0  0  0  0  0  0  0  0  0  0  0  0
    4.6102   -3.6958    2.6440 H   0  0  0  0  0  0  0  0  0  0  0  0
    4.1214   -4.8359    4.7702 H   0  0  0  0  0  0  0  0  0  0  0  0
    2.4849   -6.6972    4.8470 H   0  0  0  0  0  0  0  0  0  0  0  0
    1.3378   -7.4305    2.7699 H   0  0  0  0  0  0  0  0  0  0  0  0
    1.8105   -6.2960    0.6263 H   0  0  0  0  0  0  0  0  0  0  0  0
  1  2  1  0
  2  3  1  0
  3  4  1  0
  4  5  1  0
  5  6  1  0
  6  7  1  0
  7  8  1  0
  8  9  2  0
  8 10  1  0
 10 11  1  0
 11 12  1  0
 12 13  1  0
 13 14  1  0
 13 15  1  0
 11 16  1  0
 16 17  2  0
 16 18  1  0
 18 19  1  0
 19 20  1  0
 20 21  1  0
 21 22  2  0
 22 23  1  0
 23 24  2  0
 24 25  1  0
 25 26  2  0
 19 27  1  0
 27 28  2  0
 27 29  1  0
 29 30  1  0
 30 31  1  0
 31 32  1  0
 32 33  1  0
 32 34  1  0
 30 35  1  0
 35 36  2  0
 35 37  1  0
 37 38  1  0
 38 39  1  0
 39 40  1  0
 40 41  2  0
 41 42  1  0
 42 43  2  0
 43 44  1  0
 44 45  2  0
 38 46  1  0
 46 47  2  0
 46 48  1  0
 48  6  1  0
 26 21  1  0
 45 40  1  0
  1 49  1  0
  1 50  1  0
  1 51  1  0
  2 52  1  0
  2 53  1  0
  3 54  1  0
  3 55  1  0
  4 56  1  0
  4 57  1  0
  5 58  1  0
  5 59  1  0
  6 60  1  0
  7 61  1  0
  7 62  1  0
 10 63  1  0
 11 64  1  0
 12 65  1  0
 12 66  1  0
 13 67  1  0
 14 68  1  0
 14 69  1  0
 14 70  1  0
 15 71  1  0
 15 72  1  0
 15 73  1  0
 18 74  1  0
 19 75  1  0
 20 76  1  0
 20 77  1  0
 22 78  1  0
 23 79  1  0
 24 80  1  0
 25 81  1  0
 26 82  1  0
 29 83  1  0
 30 84  1  0
 31 85  1  0
 31 86  1  0
 32 87  1  0
 33 88  1  0
 33 89  1  0
 33 90  1  0
 34 91  1  0
 34 92  1  0
 34 93  1  0
 37 94  1  0
 38 95  1  0
 39 96  1  0
 39 97  1  0
 41 98  1  0
 42 99  1  0
 43100  1  0
 44101  1  0
 45102  1  0
M  END
$$$$
