
     RDKit          3D

 59 62  0  0  0  0  0  0  0  0999 V2000
    8.4148   -1.4244    2.0921 C   0  0  0  0  0  0  0  0  0  0  0  0
    7.5346   -0.8677    3.0612 O   0  0  0  0  0  0  0  0  0  0  0  0
    6.2671   -0.5613    2.6482 C   0  0  0  0  0  0  0  0  0  0  0  0
    5.4074   -0.1412    3.6695 C   0  0  0  0  0  0  0  0  0  0  0  0
    4.0804    0.1987    3.3946 C   0  0  0  0  0  0  0  0  0  0  0  0
    3.6038    0.1221    2.0867 C   0  0  0  0  0  0  0  0  0  0  0  0
    2.2195    0.4531    1.7578 C   0  0  0  0  0  0  0  0  0  0  0  0
    1.7674    0.3578    0.4940 C   0  0  0  0  0  0  0  0  0  0  0  0
    0.3542    0.6742    0.1010 C   0  0  0  0  0  0  0  0  0  0  0  0
   -0.5674   -0.2958    0.7180 N   0  0  0  0  0  0  0  0  0  0  0  0
   -0.5916   -1.6638    0.1426 C   0  0  0  0  0  0  0  0  0  0  0  0
   -1.6767   -1.9254   -0.9012 C   0  0  0  0  0  0  0  0  0  0  0  0
   -1.5868   -1.0787   -2.1610 C   0  0  0  0  0  0  0  0  0  0  0  0
   -2.3341   -1.9347   -3.1526 C   0  0  0  0  0  0  0  0  0  0  0  0
   -1.8743   -3.3243   -2.7679 C   0  0  0  0  0  0  0  0  0  0  0  0
   -1.5911   -3.2959   -1.3589 O   0  0  0  0  0  0  0  0  0  0  0  0
   -1.7862    0.2420    1.7410 S   0  0  0  0  0  6  0  0  0  0  0  0
   -1.2679    1.3492    2.5151 O   0  0  0  0  0  0  0  0  0  0  0  0
   -2.3777   -0.9078    2.3874 O   0  0  0  0  0  0  0  0  0  0  0  0
   -3.0143    0.9291    0.6458 C   0  0  0  0  0  0  0  0  0  0  0  0
   -4.1973    0.2301    0.3965 C   0  0  0  0  0  0  0  0  0  0  0  0
   -5.1633    0.7844   -0.4468 C   0  0  0  0  0  0  0  0  0  0  0  0
   -4.9712    2.0518   -1.0141 C   0  0  0  0  0  0  0  0  0  0  0  0
   -6.0355    2.5975   -1.9088 C   0  0  0  0  0  0  0  0  0  0  0  0
   -5.9393    4.0264   -2.3749 C   0  0  0  0  0  0  0  0  0  0  0  0
   -6.9664    1.8748   -2.2566 O   0  0  0  0  0  0  0  0  0  0  0  0
   -3.8010    2.7648   -0.7247 C   0  0  0  0  0  0  0  0  0  0  0  0
   -2.8275    2.2083    0.1110 C   0  0  0  0  0  0  0  0  0  0  0  0
    2.6929   -0.0629   -0.5983 C   0  0  0  0  0  0  0  0  0  0  0  0
    2.3174   -0.1479   -1.7643 O   0  0  0  0  0  0  0  0  0  0  0  0
    3.9827   -0.3592   -0.2470 N   0  0  0  0  0  0  0  0  0  0  0  0
    4.4670   -0.2891    1.0653 C   0  0  0  0  0  0  0  0  0  0  0  0
    5.7947   -0.6289    1.3374 C   0  0  0  0  0  0  0  0  0  0  0  0
    8.6444   -0.6978    1.3067 H   0  0  0  0  0  0  0  0  0  0  0  0
    8.0056   -2.3470    1.6677 H   0  0  0  0  0  0  0  0  0  0  0  0
    9.3519   -1.6781    2.5967 H   0  0  0  0  0  0  0  0  0  0  0  0
    5.7757   -0.0855    4.6911 H   0  0  0  0  0  0  0  0  0  0  0  0
    3.4312    0.5159    4.2078 H   0  0  0  0  0  0  0  0  0  0  0  0
    1.5603    0.7609    2.5637 H   0  0  0  0  0  0  0  0  0  0  0  0
    0.2051    0.6918   -0.9812 H   0  0  0  0  0  0  0  0  0  0  0  0
    0.1372    1.6958    0.4303 H   0  0  0  0  0  0  0  0  0  0  0  0
   -0.6960   -2.3853    0.9640 H   0  0  0  0  0  0  0  0  0  0  0  0
    0.3859   -1.9080   -0.2916 H   0  0  0  0  0  0  0  0  0  0  0  0
   -2.6668   -1.8291   -0.4480 H   0  0  0  0  0  0  0  0  0  0  0  0
   -0.5458   -0.9729   -2.4894 H   0  0  0  0  0  0  0  0  0  0  0  0
   -2.0190   -0.0812   -2.0479 H   0  0  0  0  0  0  0  0  0  0  0  0
   -2.1238   -1.6866   -4.1964 H   0  0  0  0  0  0  0  0  0  0  0  0
   -3.4139   -1.8369   -2.9868 H   0  0  0  0  0  0  0  0  0  0  0  0
   -0.9485   -3.5919   -3.2871 H   0  0  0  0  0  0  0  0  0  0  0  0
   -2.6263   -4.0893   -2.9767 H   0  0  0  0  0  0  0  0  0  0  0  0
   -4.3802   -0.7432    0.8483 H   0  0  0  0  0  0  0  0  0  0  0  0
   -6.0763    0.2254   -0.6498 H   0  0  0  0  0  0  0  0  0  0  0  0
   -6.8628    4.2969   -2.8962 H   0  0  0  0  0  0  0  0  0  0  0  0
   -5.8304    4.7020   -1.5223 H   0  0  0  0  0  0  0  0  0  0  0  0
   -5.1052    4.1396   -3.0713 H   0  0  0  0  0  0  0  0  0  0  0  0
   -3.6242    3.7569   -1.1307 H   0  0  0  0  0  0  0  0  0  0  0  0
   -1.9380    2.7867    0.3503 H   0  0  0  0  0  0  0  0  0  0  0  0
    4.5884   -0.6537   -1.0002 H   0  0  0  0  0  0  0  0  0  0  0  0
    6.4370   -0.9410    0.5235 H   0  0  0  0  0  0  0  0  0  0  0  0
  1  2  1  0
  2  3  1  0
  3  4  2  0
  4  5  1  0
  5  6  2  0
  6  7  1  0
  7  8  2  0
  8  9  1  0
  9 10  1  0
 10 11  1  0
 11 12  1  0
 12 13  1  0
 13 14  1  0
 14 15  1  0
 15 16  1  0
 10 17  1  0
 17 18  2  0
 17 19  2  0
 17 20  1  0
 20 21  2  0
 21 22  1  0
 22 23  2  0
 23 24  1  0
 24 25  1  0
 24 26  2  0
 23 27  1  0
 27 28  2  0
  8 29  1  0
 29 30  2  0
 29 31  1  0
 31 32  1  0
 32 33  2  0
 33  3  1  0
 32  6  1  0
 16 12  1  0
 28 20  1  0
  1 34  1  0
  1 35  1  0
  1 36  1  0
  4 37  1  0
  5 38  1  0
  7 39  1  0
  9 40  1  0
  9 41  1  0
 11 42  1  0
 11 43  1  0
 12 44  1  0
 13 45  1  0
 13 46  1  0
 14 47  1  0
 14 48  1  0
 15 49  1  0
 15 50  1  0
 21 51  1  0
 22 52  1  0
 25 53  1  0
 25 54  1  0
 25 55  1  0
 27 56  1  0
 28 57  1  0
 31 58  1  0
 33 59  1  0
M  END
$$$$
