
     RDKit          3D

 44 46  0  0  0  0  0  0  0  0999 V2000
   -3.9707    2.9110   -2.3217 C   0  0  0  0  0  0  0  0  0  0  0  0
   -4.5795    2.0096   -1.2447 C   0  0  0  0  0  0  0  0  0  0  0  0
   -5.9797    1.5431   -1.6505 C   0  0  0  0  0  0  0  0  0  0  0  0
   -3.6714    0.8349   -0.9215 C   0  0  0  0  0  0  0  0  0  0  0  0
   -3.1536    0.6941    0.3766 C   0  0  0  0  0  0  0  0  0  0  0  0
   -2.3182   -0.3767    0.7002 C   0  0  0  0  0  0  0  0  0  0  0  0
   -1.9869   -1.3111   -0.2825 C   0  0  0  0  0  0  0  0  0  0  0  0
   -0.9317   -2.6783    0.1190 S   0  0  0  0  0  6  0  0  0  0  0  0
   -0.7856   -2.7586    1.5562 O   0  0  0  0  0  0  0  0  0  0  0  0
   -1.3903   -3.8194   -0.6464 O   0  0  0  0  0  0  0  0  0  0  0  0
    0.5467   -2.2238   -0.5704 N   0  0  0  0  0  0  0  0  0  0  0  0
    1.3588   -1.3031    0.1469 C   0  0  0  0  0  0  0  0  0  0  0  0
    1.1860    0.0642   -0.0531 C   0  0  0  0  0  0  0  0  0  0  0  0
    1.9521    0.9701    0.6774 C   0  0  0  0  0  0  0  0  0  0  0  0
    2.8871    0.5057    1.6021 C   0  0  0  0  0  0  0  0  0  0  0  0
    3.5966    1.4709    2.2626 O   0  0  0  0  0  0  0  0  0  0  0  0
    3.0610   -0.8684    1.8249 C   0  0  0  0  0  0  0  0  0  0  0  0
    4.1546   -1.5493    3.0630 S   0  0  0  0  0  0  0  0  0  0  0  0
    5.7174   -1.0497    2.4888 C   0  0  0  0  0  0  0  0  0  0  0  0
    6.0639    0.2726    2.3711 N   0  0  0  0  0  0  0  0  0  0  0  0
    7.3038    0.2114    1.9429 C   0  0  0  0  0  0  0  0  0  0  0  0
    7.6790   -1.0896    1.8201 N   0  0  0  0  0  0  0  0  0  0  0  0
    6.6806   -1.9164    2.1677 N   0  0  0  0  0  0  0  0  0  0  0  0
    2.2783   -1.7700    1.0883 C   0  0  0  0  0  0  0  0  0  0  0  0
   -2.5020   -1.1983   -1.5752 C   0  0  0  0  0  0  0  0  0  0  0  0
   -3.3377   -0.1255   -1.8912 C   0  0  0  0  0  0  0  0  0  0  0  0
   -2.9729    3.2543   -2.0266 H   0  0  0  0  0  0  0  0  0  0  0  0
   -3.8752    2.3944   -3.2830 H   0  0  0  0  0  0  0  0  0  0  0  0
   -4.5961    3.7961   -2.4811 H   0  0  0  0  0  0  0  0  0  0  0  0
   -4.6935    2.6217   -0.3401 H   0  0  0  0  0  0  0  0  0  0  0  0
   -6.4208    0.9076   -0.8745 H   0  0  0  0  0  0  0  0  0  0  0  0
   -5.9665    0.9697   -2.5837 H   0  0  0  0  0  0  0  0  0  0  0  0
   -6.6436    2.4019   -1.7977 H   0  0  0  0  0  0  0  0  0  0  0  0
   -3.4006    1.4190    1.1501 H   0  0  0  0  0  0  0  0  0  0  0  0
   -1.9289   -0.4694    1.7120 H   0  0  0  0  0  0  0  0  0  0  0  0
    1.0066   -3.0341   -0.9844 H   0  0  0  0  0  0  0  0  0  0  0  0
    0.4666    0.4348   -0.7781 H   0  0  0  0  0  0  0  0  0  0  0  0
    1.8259    2.0389    0.5263 H   0  0  0  0  0  0  0  0  0  0  0  0
    4.4386    1.0738    2.5700 H   0  0  0  0  0  0  0  0  0  0  0  0
    7.9560    1.0430    1.7157 H   0  0  0  0  0  0  0  0  0  0  0  0
    8.5667   -1.4775    1.5197 H   0  0  0  0  0  0  0  0  0  0  0  0
    2.3694   -2.8392    1.2653 H   0  0  0  0  0  0  0  0  0  0  0  0
   -2.2590   -1.9368   -2.3357 H   0  0  0  0  0  0  0  0  0  0  0  0
   -3.7313   -0.0477   -2.9026 H   0  0  0  0  0  0  0  0  0  0  0  0
  1  2  1  0
  2  3  1  0
  2  4  1  0
  4  5  2  0
  5  6  1  0
  6  7  2  0
  7  8  1  0
  8  9  2  0
  8 10  2  0
  8 11  1  0
 11 12  1  0
 12 13  2  0
 13 14  1  0
 14 15  2  0
 15 16  1  0
 15 17  1  0
 17 18  1  0
 18 19  1  0
 19 20  1  0
 20 21  2  0
 21 22  1  0
 22 23  1  0
 17 24  2  0
  7 25  1  0
 25 26  2  0
 26  4  1  0
 24 12  1  0
 23 19  2  0
  1 27  1  0
  1 28  1  0
  1 29  1  0
  2 30  1  0
  3 31  1  0
  3 32  1  0
  3 33  1  0
  5 34  1  0
  6 35  1  0
 11 36  1  0
 13 37  1  0
 14 38  1  0
 16 39  1  0
 21 40  1  0
 22 41  1  0
 24 42  1  0
 25 43  1  0
 26 44  1  0
M  END
$$$$
