
     RDKit          3D

 59 62  0  0  0  0  0  0  0  0999 V2000
    7.0276    2.6343   -0.6627 C   0  0  0  0  0  0  0  0  0  0  0  0
    6.8608    1.2241   -0.5809 O   0  0  0  0  0  0  0  0  0  0  0  0
    5.5991    0.7614   -0.3260 C   0  0  0  0  0  0  0  0  0  0  0  0
    5.5081   -0.6272   -0.1831 C   0  0  0  0  0  0  0  0  0  0  0  0
    4.2819   -1.2419    0.0864 C   0  0  0  0  0  0  0  0  0  0  0  0
    3.1314   -0.4644    0.2123 C   0  0  0  0  0  0  0  0  0  0  0  0
    1.8297   -1.0619    0.5018 C   0  0  0  0  0  0  0  0  0  0  0  0
    0.7209   -0.3044    0.5934 C   0  0  0  0  0  0  0  0  0  0  0  0
   -0.6342   -0.8650    0.9181 C   0  0  0  0  0  0  0  0  0  0  0  0
   -1.4749   -0.9785   -0.3050 N   0  0  0  0  0  0  0  0  0  0  0  0
   -1.0387   -2.0125   -1.2981 C   0  0  0  0  0  0  0  0  0  0  0  0
   -1.2351   -3.4632   -0.8385 C   0  0  0  0  0  0  0  0  0  0  0  0
   -1.1674   -4.4520   -1.9929 C   0  0  0  0  0  0  0  0  0  0  0  0
   -0.8112   -5.7298   -1.2762 C   0  0  0  0  0  0  0  0  0  0  0  0
    0.1460   -5.2413   -0.2089 C   0  0  0  0  0  0  0  0  0  0  0  0
   -0.1762   -3.8669    0.0575 O   0  0  0  0  0  0  0  0  0  0  0  0
   -3.1548   -0.9342   -0.0139 S   0  0  0  0  0  6  0  0  0  0  0  0
   -3.4266   -1.7779    1.1302 O   0  0  0  0  0  0  0  0  0  0  0  0
   -3.8392   -1.1442   -1.2724 O   0  0  0  0  0  0  0  0  0  0  0  0
   -3.4358    0.7558    0.4506 C   0  0  0  0  0  0  0  0  0  0  0  0
   -3.2693    1.7557   -0.5122 C   0  0  0  0  0  0  0  0  0  0  0  0
   -3.4807    3.0931   -0.1657 C   0  0  0  0  0  0  0  0  0  0  0  0
   -3.8660    3.4286    1.1402 C   0  0  0  0  0  0  0  0  0  0  0  0
   -4.0918    4.8437    1.5623 C   0  0  0  0  0  0  0  0  0  0  0  0
   -3.8035    5.9512    0.5831 C   0  0  0  0  0  0  0  0  0  0  0  0
   -4.5122    5.0879    2.6913 O   0  0  0  0  0  0  0  0  0  0  0  0
   -4.0502    2.4115    2.0905 C   0  0  0  0  0  0  0  0  0  0  0  0
   -3.8385    1.0736    1.7489 C   0  0  0  0  0  0  0  0  0  0  0  0
    0.8247    1.1796    0.4571 C   0  0  0  0  0  0  0  0  0  0  0  0
   -0.1456    1.9191    0.5904 O   0  0  0  0  0  0  0  0  0  0  0  0
    2.0641    1.6984    0.1875 N   0  0  0  0  0  0  0  0  0  0  0  0
    3.2231    0.9235    0.0611 C   0  0  0  0  0  0  0  0  0  0  0  0
    4.4479    1.5412   -0.2060 C   0  0  0  0  0  0  0  0  0  0  0  0
    6.7419    3.1210    0.2764 H   0  0  0  0  0  0  0  0  0  0  0  0
    6.4691    3.0472   -1.5094 H   0  0  0  0  0  0  0  0  0  0  0  0
    8.0894    2.8359   -0.8319 H   0  0  0  0  0  0  0  0  0  0  0  0
    6.4045   -1.2364   -0.2794 H   0  0  0  0  0  0  0  0  0  0  0  0
    4.2417   -2.3223    0.1963 H   0  0  0  0  0  0  0  0  0  0  0  0
    1.7818   -2.1393    0.6307 H   0  0  0  0  0  0  0  0  0  0  0  0
   -0.5478   -1.8395    1.4092 H   0  0  0  0  0  0  0  0  0  0  0  0
   -1.1091   -0.2114    1.6581 H   0  0  0  0  0  0  0  0  0  0  0  0
   -1.5945   -1.8331   -2.2266 H   0  0  0  0  0  0  0  0  0  0  0  0
    0.0125   -1.8377   -1.5519 H   0  0  0  0  0  0  0  0  0  0  0  0
   -2.1793   -3.5963   -0.3012 H   0  0  0  0  0  0  0  0  0  0  0  0
   -0.3639   -4.1856   -2.6900 H   0  0  0  0  0  0  0  0  0  0  0  0
   -2.1043   -4.5152   -2.5540 H   0  0  0  0  0  0  0  0  0  0  0  0
   -0.3680   -6.4883   -1.9280 H   0  0  0  0  0  0  0  0  0  0  0  0
   -1.7045   -6.1598   -0.8092 H   0  0  0  0  0  0  0  0  0  0  0  0
    0.0712   -5.8238    0.7159 H   0  0  0  0  0  0  0  0  0  0  0  0
    1.1829   -5.2761   -0.5595 H   0  0  0  0  0  0  0  0  0  0  0  0
   -2.9580    1.4991   -1.5234 H   0  0  0  0  0  0  0  0  0  0  0  0
   -3.3297    3.8509   -0.9293 H   0  0  0  0  0  0  0  0  0  0  0  0
   -3.9411    6.9173    1.0798 H   0  0  0  0  0  0  0  0  0  0  0  0
   -2.7663    5.8969    0.2415 H   0  0  0  0  0  0  0  0  0  0  0  0
   -4.4964    5.8978   -0.2610 H   0  0  0  0  0  0  0  0  0  0  0  0
   -4.3540    2.6607    3.1061 H   0  0  0  0  0  0  0  0  0  0  0  0
   -3.9825    0.2980    2.4979 H   0  0  0  0  0  0  0  0  0  0  0  0
    2.1079    2.7043    0.1017 H   0  0  0  0  0  0  0  0  0  0  0  0
    4.4829    2.6184   -0.3156 H   0  0  0  0  0  0  0  0  0  0  0  0
  1  2  1  0
  2  3  1  0
  3  4  2  0
  4  5  1  0
  5  6  2  0
  6  7  1  0
  7  8  2  0
  8  9  1  0
  9 10  1  0
 10 11  1  0
 11 12  1  0
 12 13  1  0
 13 14  1  0
 14 15  1  0
 15 16  1  0
 10 17  1  0
 17 18  2  0
 17 19  2  0
 17 20  1  0
 20 21  2  0
 21 22  1  0
 22 23  2  0
 23 24  1  0
 24 25  1  0
 24 26  2  0
 23 27  1  0
 27 28  2  0
  8 29  1  0
 29 30  2  0
 29 31  1  0
 31 32  1  0
 32 33  2  0
 33  3  1  0
 32  6  1  0
 16 12  1  0
 28 20  1  0
  1 34  1  0
  1 35  1  0
  1 36  1  0
  4 37  1  0
  5 38  1  0
  7 39  1  0
  9 40  1  0
  9 41  1  0
 11 42  1  0
 11 43  1  0
 12 44  1  0
 13 45  1  0
 13 46  1  0
 14 47  1  0
 14 48  1  0
 15 49  1  0
 15 50  1  0
 21 51  1  0
 22 52  1  0
 25 53  1  0
 25 54  1  0
 25 55  1  0
 27 56  1  0
 28 57  1  0
 31 58  1  0
 33 59  1  0
M  END
$$$$
