
     RDKit          3D

 60 65  0  0  0  0  0  0  0  0999 V2000
    6.4399    0.6281   -0.8322 C   0  0  0  0  0  0  0  0  0  0  0  0
    5.8456   -0.7013   -1.1052 C   0  0  0  0  0  0  0  0  0  0  0  0
    6.5845   -1.8118   -0.9906 N   0  0  0  0  0  0  0  0  0  0  0  0
    5.7532   -2.8538   -1.3523 O   0  0  0  0  0  0  0  0  0  0  0  0
    4.5243   -2.3678   -1.6730 C   0  0  0  0  0  0  0  0  0  0  0  0
    3.5493   -3.3642   -2.1531 C   0  0  0  0  0  0  0  0  0  0  0  0
    4.5117   -1.0016   -1.4865 C   0  0  0  0  0  0  0  0  0  0  0  0
    3.4265   -0.0753   -1.7232 C   0  0  0  0  0  0  0  0  0  0  0  0
    3.5954    0.8972   -2.4547 O   0  0  0  0  0  0  0  0  0  0  0  0
    2.2040   -0.3222   -1.0920 N   0  0  0  0  0  0  0  0  0  0  0  0
    1.0844    0.5539   -1.4206 C   0  0  0  0  0  0  0  0  0  0  0  0
   -0.2389   -0.1034   -1.0549 C   0  0  0  0  0  0  0  0  0  0  0  0
   -0.3692   -0.3988    0.4694 C   0  0  0  0  0  0  0  0  0  0  0  0
    1.0572   -0.5993    1.0761 C   0  0  0  0  0  0  0  0  0  0  0  0
    2.0359   -1.1980    0.0684 C   0  0  0  0  0  0  0  0  0  0  0  0
   -1.0930   -1.6589    0.5264 O   0  0  0  0  0  0  0  0  0  0  0  0
   -1.5612   -2.0371    1.7543 C   0  0  0  0  0  0  0  0  0  0  0  0
   -1.9410   -3.3737    1.8820 C   0  0  0  0  0  0  0  0  0  0  0  0
   -2.4045   -3.8507    3.1093 C   0  0  0  0  0  0  0  0  0  0  0  0
   -2.4880   -2.9873    4.1977 C   0  0  0  0  0  0  0  0  0  0  0  0
   -2.9321   -3.4518    5.3720 F   0  0  0  0  0  0  0  0  0  0  0  0
   -2.1272   -1.6512    4.0825 C   0  0  0  0  0  0  0  0  0  0  0  0
   -1.6732   -1.1783    2.8493 C   0  0  0  0  0  0  0  0  0  0  0  0
   -1.3268    0.2445    2.6749 C   0  0  0  0  0  0  0  0  0  0  0  0
   -1.2373    0.9735    3.6563 O   0  0  0  0  0  0  0  0  0  0  0  0
   -1.1662    0.7027    1.2293 C   0  0  0  0  0  0  0  0  0  0  0  0
   -2.5618    1.0172    0.6973 C   0  0  0  0  0  0  0  0  0  0  0  0
   -2.2914    2.3367    0.0629 C   0  0  0  0  0  0  0  0  0  0  0  0
   -3.2889    3.0156   -0.7972 C   0  0  0  0  0  0  0  0  0  0  0  0
   -2.9279    4.2053   -1.4447 C   0  0  0  0  0  0  0  0  0  0  0  0
   -3.8440    4.8675   -2.2666 C   0  0  0  0  0  0  0  0  0  0  0  0
   -5.1222    4.3423   -2.4403 C   0  0  0  0  0  0  0  0  0  0  0  0
   -6.2517    5.1538   -3.4516 Cl  0  0  0  0  0  0  0  0  0  0  0  0
   -5.4923    3.1616   -1.7975 C   0  0  0  0  0  0  0  0  0  0  0  0
   -4.5771    2.4965   -0.9744 C   0  0  0  0  0  0  0  0  0  0  0  0
   -1.1224    2.8301    0.3130 N   0  0  0  0  0  0  0  0  0  0  0  0
   -0.4592    1.9446    1.1900 O   0  0  0  0  0  0  0  0  0  0  0  0
    7.4251    0.5397   -0.3626 H   0  0  0  0  0  0  0  0  0  0  0  0
    6.5572    1.1901   -1.7642 H   0  0  0  0  0  0  0  0  0  0  0  0
    5.7989    1.2057   -0.1585 H   0  0  0  0  0  0  0  0  0  0  0  0
    2.6985   -2.8846   -2.6459 H   0  0  0  0  0  0  0  0  0  0  0  0
    4.0146   -4.0416   -2.8762 H   0  0  0  0  0  0  0  0  0  0  0  0
    3.1724   -3.9621   -1.3179 H   0  0  0  0  0  0  0  0  0  0  0  0
    1.2275    1.5015   -0.8901 H   0  0  0  0  0  0  0  0  0  0  0  0
    1.1053    0.7745   -2.4941 H   0  0  0  0  0  0  0  0  0  0  0  0
   -1.0646    0.5073   -1.4281 H   0  0  0  0  0  0  0  0  0  0  0  0
   -0.3191   -1.0463   -1.6155 H   0  0  0  0  0  0  0  0  0  0  0  0
    1.0305   -1.2589    1.9502 H   0  0  0  0  0  0  0  0  0  0  0  0
    1.4669    0.3608    1.4140 H   0  0  0  0  0  0  0  0  0  0  0  0
    2.9975   -1.3673    0.5617 H   0  0  0  0  0  0  0  0  0  0  0  0
    1.6619   -2.1619   -0.2929 H   0  0  0  0  0  0  0  0  0  0  0  0
   -1.8660   -4.0484    1.0323 H   0  0  0  0  0  0  0  0  0  0  0  0
   -2.6969   -4.8903    3.2262 H   0  0  0  0  0  0  0  0  0  0  0  0
   -2.2108   -0.9945    4.9441 H   0  0  0  0  0  0  0  0  0  0  0  0
   -3.3070    1.1547    1.4887 H   0  0  0  0  0  0  0  0  0  0  0  0
   -2.9307    0.2800   -0.0201 H   0  0  0  0  0  0  0  0  0  0  0  0
   -1.9325    4.6270   -1.3134 H   0  0  0  0  0  0  0  0  0  0  0  0
   -3.5529    5.7896   -2.7634 H   0  0  0  0  0  0  0  0  0  0  0  0
   -6.4925    2.7564   -1.9311 H   0  0  0  0  0  0  0  0  0  0  0  0
   -4.8977    1.5840   -0.4805 H   0  0  0  0  0  0  0  0  0  0  0  0
  1  2  1  0
  2  3  2  0
  3  4  1  0
  4  5  1  0
  5  6  1  0
  5  7  2  0
  7  8  1  0
  8  9  2  0
  8 10  1  0
 10 11  1  0
 11 12  1  0
 12 13  1  0
 13 14  1  0
 14 15  1  0
 13 16  1  0
 16 17  1  0
 17 18  2  0
 18 19  1  0
 19 20  2  0
 20 21  1  0
 20 22  1  0
 22 23  2  0
 23 24  1  0
 24 25  2  0
 24 26  1  0
 26 27  1  0
 27 28  1  0
 28 29  1  0
 29 30  2  0
 30 31  1  0
 31 32  2  0
 32 33  1  0
 32 34  1  0
 34 35  2  0
 28 36  2  0
 36 37  1  0
  7  2  1  0
 15 10  1  0
 23 17  1  0
 37 26  1  0
 26 13  1  0
 35 29  1  0
  1 38  1  0
  1 39  1  0
  1 40  1  0
  6 41  1  0
  6 42  1  0
  6 43  1  0
 11 44  1  0
 11 45  1  0
 12 46  1  0
 12 47  1  0
 14 48  1  0
 14 49  1  0
 15 50  1  0
 15 51  1  0
 18 52  1  0
 19 53  1  0
 22 54  1  0
 27 55  1  0
 27 56  1  0
 30 57  1  0
 31 58  1  0
 34 59  1  0
 35 60  1  0
M  END
$$$$
