
     RDKit          3D

 36 37  0  0  0  0  0  0  0  0999 V2000
   -0.3636    1.0269   -3.5269 O   0  0  0  0  0  0  0  0  0  0  0  0
   -0.1303    0.0467   -2.8254 C   0  0  0  0  0  0  0  0  0  0  0  0
    1.2859   -0.4716   -2.5864 C   0  0  0  0  0  0  0  0  0  0  0  0
    1.9167    0.2386   -1.5170 O   0  0  0  0  0  0  0  0  0  0  0  0
    1.7085   -0.2428   -0.2716 C   0  0  0  0  0  0  0  0  0  0  0  0
    1.0832   -1.2522    0.0222 O   0  0  0  0  0  0  0  0  0  0  0  0
    2.3540    0.6357    0.7403 C   0  0  0  0  0  0  0  0  0  0  0  0
    2.3437    0.2174    2.0777 C   0  0  0  0  0  0  0  0  0  0  0  0
    2.9278    1.0161    3.0602 C   0  0  0  0  0  0  0  0  0  0  0  0
    2.9085    0.4935    4.6995 Cl  0  0  0  0  0  0  0  0  0  0  0  0
    3.5234    2.2293    2.7291 C   0  0  0  0  0  0  0  0  0  0  0  0
    3.5334    2.6417    1.3989 C   0  0  0  0  0  0  0  0  0  0  0  0
    4.2720    4.1379    0.9798 Cl  0  0  0  0  0  0  0  0  0  0  0  0
    2.9522    1.8566    0.4021 C   0  0  0  0  0  0  0  0  0  0  0  0
   -1.1089   -0.6585   -2.1668 N   0  0  0  0  0  0  0  0  0  0  0  0
   -2.4954   -0.2218   -2.1560 C   0  0  0  0  0  0  0  0  0  0  0  0
   -3.3843   -1.1101   -1.2742 C   0  0  0  0  0  0  0  0  0  0  0  0
   -3.1030   -0.9432    0.1450 N   0  0  0  0  0  0  0  0  0  0  0  0
   -2.0571   -1.5510    0.7948 C   0  0  0  0  0  0  0  0  0  0  0  0
   -1.2584   -2.4079    0.0976 O   0  0  0  0  0  0  0  0  0  0  0  0
   -1.8954   -1.1796    2.0690 C   0  0  0  0  0  0  0  0  0  0  0  0
   -3.0906   -0.0094    2.5363 S   0  0  0  0  0  0  0  0  0  0  0  0
   -3.7961   -0.0154    0.9070 C   0  0  0  0  0  0  0  0  0  0  0  0
   -4.7160    0.7070    0.5626 O   0  0  0  0  0  0  0  0  0  0  0  0
    1.8687   -0.2989   -3.4976 H   0  0  0  0  0  0  0  0  0  0  0  0
    1.2857   -1.5542   -2.4134 H   0  0  0  0  0  0  0  0  0  0  0  0
    1.8858   -0.7298    2.3548 H   0  0  0  0  0  0  0  0  0  0  0  0
    3.9756    2.8479    3.4991 H   0  0  0  0  0  0  0  0  0  0  0  0
    2.9676    2.2052   -0.6289 H   0  0  0  0  0  0  0  0  0  0  0  0
   -0.8278   -1.3294   -1.4548 H   0  0  0  0  0  0  0  0  0  0  0  0
   -2.5205    0.8193   -1.8129 H   0  0  0  0  0  0  0  0  0  0  0  0
   -2.8513   -0.2412   -3.1921 H   0  0  0  0  0  0  0  0  0  0  0  0
   -3.2725   -2.1681   -1.5393 H   0  0  0  0  0  0  0  0  0  0  0  0
   -4.4317   -0.8391   -1.4508 H   0  0  0  0  0  0  0  0  0  0  0  0
   -0.3616   -2.3657    0.4950 H   0  0  0  0  0  0  0  0  0  0  0  0
   -1.1279   -1.5296    2.7430 H   0  0  0  0  0  0  0  0  0  0  0  0
  1  2  2  0
  2  3  1  0
  3  4  1  0
  4  5  1  0
  5  6  2  0
  5  7  1  0
  7  8  2  0
  8  9  1  0
  9 10  1  0
  9 11  2  0
 11 12  1  0
 12 13  1  0
 12 14  2  0
  2 15  1  0
 15 16  1  0
 16 17  1  0
 17 18  1  0
 18 19  1  0
 19 20  1  0
 19 21  2  0
 21 22  1  0
 22 23  1  0
 23 24  2  0
 14  7  1  0
 23 18  1  0
  3 25  1  0
  3 26  1  0
  8 27  1  0
 11 28  1  0
 14 29  1  0
 15 30  1  0
 16 31  1  0
 16 32  1  0
 17 33  1  0
 17 34  1  0
 20 35  1  0
 21 36  1  0
M  END
$$$$
