
     RDKit          3D

 47 48  0  0  0  0  0  0  0  0999 V2000
    5.9217   -0.9364   -3.2624 C   0  0  0  0  0  0  0  0  0  0  0  0
    6.5755   -1.0340   -2.0017 O   0  0  0  0  0  0  0  0  0  0  0  0
    5.9724   -0.3961   -0.9472 C   0  0  0  0  0  0  0  0  0  0  0  0
    4.7215    0.2244   -0.9638 C   0  0  0  0  0  0  0  0  0  0  0  0
    4.2272    0.8485    0.1947 C   0  0  0  0  0  0  0  0  0  0  0  0
    2.9266    1.5213    0.1921 C   0  0  0  0  0  0  0  0  0  0  0  0
    1.7824    0.8616   -0.0383 C   0  0  0  0  0  0  0  0  0  0  0  0
    0.4845    1.5926   -0.0031 C   0  0  0  0  0  0  0  0  0  0  0  0
    0.4445    2.8218   -0.0004 O   0  0  0  0  0  0  0  0  0  0  0  0
   -0.7679    0.7594   -0.0144 C   0  0  0  0  0  0  0  0  0  0  0  0
   -1.8107    1.3004    0.9245 C   0  0  0  0  0  0  0  0  0  0  0  0
   -1.8455    0.9944    2.1153 O   0  0  0  0  0  0  0  0  0  0  0  0
   -2.7762    2.2831    0.3720 C   0  0  0  0  0  0  0  0  0  0  0  0
   -4.0256    1.9655    0.0013 C   0  0  0  0  0  0  0  0  0  0  0  0
   -4.6516    0.6403    0.0836 C   0  0  0  0  0  0  0  0  0  0  0  0
   -5.2120    0.0817   -1.0731 C   0  0  0  0  0  0  0  0  0  0  0  0
   -5.8421   -1.1617   -1.0208 C   0  0  0  0  0  0  0  0  0  0  0  0
   -5.9091   -1.8389    0.1895 C   0  0  0  0  0  0  0  0  0  0  0  0
   -6.5327   -3.0576    0.2164 O   0  0  0  0  0  0  0  0  0  0  0  0
   -5.3557   -1.3066    1.3585 C   0  0  0  0  0  0  0  0  0  0  0  0
   -5.4848   -2.0939    2.4744 O   0  0  0  0  0  0  0  0  0  0  0  0
   -4.7950   -1.6492    3.6392 C   0  0  0  0  0  0  0  0  0  0  0  0
   -4.7403   -0.0553    1.3001 C   0  0  0  0  0  0  0  0  0  0  0  0
    4.9937    0.8528    1.3667 C   0  0  0  0  0  0  0  0  0  0  0  0
    6.2397    0.2263    1.3917 C   0  0  0  0  0  0  0  0  0  0  0  0
    6.7130   -0.3902    0.2405 C   0  0  0  0  0  0  0  0  0  0  0  0
    7.9410   -0.9923    0.2883 O   0  0  0  0  0  0  0  0  0  0  0  0
    4.9568   -1.4543   -3.2444 H   0  0  0  0  0  0  0  0  0  0  0  0
    6.5546   -1.4348   -4.0047 H   0  0  0  0  0  0  0  0  0  0  0  0
    5.8071    0.1090   -3.5701 H   0  0  0  0  0  0  0  0  0  0  0  0
    4.1172    0.2461   -1.8646 H   0  0  0  0  0  0  0  0  0  0  0  0
    2.9357    2.5872    0.4131 H   0  0  0  0  0  0  0  0  0  0  0  0
    1.7561   -0.2061   -0.2209 H   0  0  0  0  0  0  0  0  0  0  0  0
   -0.5570   -0.2747    0.2805 H   0  0  0  0  0  0  0  0  0  0  0  0
   -1.1573    0.7294   -1.0383 H   0  0  0  0  0  0  0  0  0  0  0  0
   -2.3910    3.2914    0.2553 H   0  0  0  0  0  0  0  0  0  0  0  0
   -4.6559    2.7424   -0.4284 H   0  0  0  0  0  0  0  0  0  0  0  0
   -5.1568    0.6026   -2.0273 H   0  0  0  0  0  0  0  0  0  0  0  0
   -6.2792   -1.5978   -1.9138 H   0  0  0  0  0  0  0  0  0  0  0  0
   -6.4646   -3.3549    1.1447 H   0  0  0  0  0  0  0  0  0  0  0  0
   -4.9574   -2.3903    4.4288 H   0  0  0  0  0  0  0  0  0  0  0  0
   -5.2007   -0.6972    3.9990 H   0  0  0  0  0  0  0  0  0  0  0  0
   -3.7179   -1.5795    3.4573 H   0  0  0  0  0  0  0  0  0  0  0  0
   -4.3293    0.4057    2.1928 H   0  0  0  0  0  0  0  0  0  0  0  0
    4.6250    1.3382    2.2681 H   0  0  0  0  0  0  0  0  0  0  0  0
    6.8364    0.2206    2.2983 H   0  0  0  0  0  0  0  0  0  0  0  0
    8.0838   -1.3450   -0.6117 H   0  0  0  0  0  0  0  0  0  0  0  0
  1  2  1  0
  2  3  1  0
  3  4  2  0
  4  5  1  0
  5  6  1  0
  6  7  2  3
  7  8  1  0
  8  9  2  0
  8 10  1  0
 10 11  1  0
 11 12  2  0
 11 13  1  0
 13 14  2  3
 14 15  1  0
 15 16  2  0
 16 17  1  0
 17 18  2  0
 18 19  1  0
 18 20  1  0
 20 21  1  0
 21 22  1  0
 20 23  2  0
  5 24  2  0
 24 25  1  0
 25 26  2  0
 26 27  1  0
 26  3  1  0
 23 15  1  0
  1 28  1  0
  1 29  1  0
  1 30  1  0
  4 31  1  0
  6 32  1  0
  7 33  1  0
 10 34  1  0
 10 35  1  0
 13 36  1  0
 14 37  1  0
 16 38  1  0
 17 39  1  0
 19 40  1  0
 22 41  1  0
 22 42  1  0
 22 43  1  0
 23 44  1  0
 24 45  1  0
 25 46  1  0
 27 47  1  0
M  END
$$$$
