
     RDKit          3D

 32 34  0  0  0  0  0  0  0  0999 V2000
   -0.3018    1.4407    0.0330 O   0  0  0  0  0  0  0  0  0  0  0  0
   -0.2672    0.2218   -0.0150 C   0  0  0  0  0  0  0  0  0  0  0  0
   -1.4802   -0.6639   -0.0384 C   0  0  0  0  0  0  0  0  0  0  0  0
   -2.8883   -0.2658   -0.0718 C   0  0  0  0  0  0  0  0  0  0  0  0
   -3.8865   -1.1098    0.4428 C   0  0  0  0  0  0  0  0  0  0  0  0
   -5.2332   -0.7345    0.4133 C   0  0  0  0  0  0  0  0  0  0  0  0
   -5.6031    0.4929   -0.1284 C   0  0  0  0  0  0  0  0  0  0  0  0
   -4.6275    1.3454   -0.6369 C   0  0  0  0  0  0  0  0  0  0  0  0
   -3.2811    0.9691   -0.6069 C   0  0  0  0  0  0  0  0  0  0  0  0
   -0.9689   -1.9032   -0.0951 C   0  0  0  0  0  0  0  0  0  0  0  0
    0.4058   -1.9647   -0.0647 N   0  0  0  0  0  0  0  0  0  0  0  0
    0.8449   -0.6315   -0.0540 N   0  0  0  0  0  0  0  0  0  0  0  0
    2.2217   -0.3247    0.0191 C   0  0  0  0  0  0  0  0  0  0  0  0
    3.1736   -1.3518    0.1550 C   0  0  0  0  0  0  0  0  0  0  0  0
    4.5426   -1.0733    0.2289 C   0  0  0  0  0  0  0  0  0  0  0  0
    4.9890    0.2429    0.1667 C   0  0  0  0  0  0  0  0  0  0  0  0
    4.0535    1.2749    0.0318 C   0  0  0  0  0  0  0  0  0  0  0  0
    4.5220    2.6643   -0.0402 N   0  0  0  0  0  4  0  0  0  0  0  0
    5.7102    2.8840    0.2374 O   0  0  0  0  0  0  0  0  0  0  0  0
    3.7088    3.5333   -0.3819 O   0  0  0  0  0  1  0  0  0  0  0  0
    2.6785    0.9987   -0.0403 C   0  0  0  0  0  0  0  0  0  0  0  0
   -3.6304   -2.0679    0.8892 H   0  0  0  0  0  0  0  0  0  0  0  0
   -5.9913   -1.3989    0.8199 H   0  0  0  0  0  0  0  0  0  0  0  0
   -6.6489    0.7883   -0.1491 H   0  0  0  0  0  0  0  0  0  0  0  0
   -4.9093    2.3085   -1.0552 H   0  0  0  0  0  0  0  0  0  0  0  0
   -2.5454    1.6613   -1.0125 H   0  0  0  0  0  0  0  0  0  0  0  0
   -1.5153   -2.8319   -0.1952 H   0  0  0  0  0  0  0  0  0  0  0  0
    0.7744   -2.4967   -0.8556 H   0  0  0  0  0  0  0  0  0  0  0  0
    2.8638   -2.3915    0.2314 H   0  0  0  0  0  0  0  0  0  0  0  0
    5.2567   -1.8862    0.3424 H   0  0  0  0  0  0  0  0  0  0  0  0
    6.0560    0.4480    0.2253 H   0  0  0  0  0  0  0  0  0  0  0  0
    1.9767    1.8221   -0.1475 H   0  0  0  0  0  0  0  0  0  0  0  0
  1  2  2  0
  2  3  1  0
  3  4  1  0
  4  5  2  0
  5  6  1  0
  6  7  2  0
  7  8  1  0
  8  9  2  0
  3 10  2  0
 10 11  1  0
 11 12  1  0
 12 13  1  0
 13 14  2  0
 14 15  1  0
 15 16  2  0
 16 17  1  0
 17 18  1  0
 18 19  2  0
 18 20  1  0
 17 21  2  0
 12  2  1  0
 21 13  1  0
  9  4  1  0
  5 22  1  0
  6 23  1  0
  7 24  1  0
  8 25  1  0
  9 26  1  0
 10 27  1  0
 11 28  1  0
 14 29  1  0
 15 30  1  0
 16 31  1  0
 21 32  1  0
M  CHG  2  18   1  20  -1
M  END
$$$$
