
     RDKit          3D

 56 61  0  0  0  0  0  0  0  0999 V2000
    8.1878   -0.1258   -2.3814 C   0  0  0  0  0  0  0  0  0  0  0  0
    6.7583   -0.0978   -1.9279 C   0  0  0  0  0  0  0  0  0  0  0  0
    6.4394   -0.3119   -0.5836 C   0  0  0  0  0  0  0  0  0  0  0  0
    5.1129   -0.2583   -0.1484 C   0  0  0  0  0  0  0  0  0  0  0  0
    4.0889    0.0215   -1.0536 C   0  0  0  0  0  0  0  0  0  0  0  0
    2.5928    0.0706   -0.5797 C   0  0  0  0  0  0  0  0  0  0  0  0
    1.4728    0.2174   -1.3908 C   0  0  0  0  0  0  0  0  0  0  0  0
    0.3272    0.1690   -0.5972 N   0  0  0  0  0  4  0  0  0  0  0  0
   -1.0736    0.2542   -1.0655 C   0  0  0  0  0  0  0  0  0  0  0  0
   -1.9651   -0.8083   -0.3857 C   0  0  0  0  0  0  0  0  0  0  0  0
   -1.4671   -1.8969   -0.0908 O   0  0  0  0  0  0  0  0  0  0  0  0
   -3.2362   -0.3477   -0.0024 N   0  0  0  0  0  0  0  0  0  0  0  0
   -3.9925    0.5439   -0.8444 C   0  0  0  0  0  0  0  0  0  0  0  0
   -3.8933    0.4163   -2.2449 C   0  0  0  0  0  0  0  0  0  0  0  0
   -4.6091    1.2540   -3.1042 C   0  0  0  0  0  0  0  0  0  0  0  0
   -5.4475    2.2275   -2.5814 C   0  0  0  0  0  0  0  0  0  0  0  0
   -5.5813    2.3511   -1.2008 C   0  0  0  0  0  0  0  0  0  0  0  0
   -4.8738    1.5063   -0.3332 C   0  0  0  0  0  0  0  0  0  0  0  0
   -5.0913    1.7350    1.4074 S   0  0  0  0  0  0  0  0  0  0  0  0
   -4.7249    0.0800    1.9467 C   0  0  0  0  0  0  0  0  0  0  0  0
   -5.2867   -0.3256    3.1696 C   0  0  0  0  0  0  0  0  0  0  0  0
   -4.9932   -1.5726    3.7076 C   0  0  0  0  0  0  0  0  0  0  0  0
   -4.1375   -2.4219    3.0229 C   0  0  0  0  0  0  0  0  0  0  0  0
   -3.5698   -2.0194    1.8080 C   0  0  0  0  0  0  0  0  0  0  0  0
   -3.8491   -0.7643    1.2385 C   0  0  0  0  0  0  0  0  0  0  0  0
    0.7245   -0.0031    0.6624 C   0  0  0  0  0  0  0  0  0  0  0  0
    2.0546   -0.0208    0.6903 N   0  0  0  0  0  0  0  0  0  0  0  0
    2.5669   -0.1447    2.0476 C   0  0  0  0  0  0  0  0  0  0  0  0
    1.3229    0.1478    2.9299 C   0  0  0  0  0  0  0  0  0  0  0  0
    0.1182   -0.1255    2.0116 C   0  0  0  0  0  0  0  0  0  0  0  0
    4.4034    0.2472   -2.3984 C   0  0  0  0  0  0  0  0  0  0  0  0
    5.7317    0.1960   -2.8291 C   0  0  0  0  0  0  0  0  0  0  0  0
    8.2595   -0.4055   -3.4349 H   0  0  0  0  0  0  0  0  0  0  0  0
    8.7596   -0.8641   -1.8121 H   0  0  0  0  0  0  0  0  0  0  0  0
    8.6445    0.8594   -2.2468 H   0  0  0  0  0  0  0  0  0  0  0  0
    7.2285   -0.5329    0.1334 H   0  0  0  0  0  0  0  0  0  0  0  0
    4.9193   -0.4578    0.8976 H   0  0  0  0  0  0  0  0  0  0  0  0
    1.3445    0.3321   -2.4541 H   0  0  0  0  0  0  0  0  0  0  0  0
   -1.0859    0.0921   -2.1472 H   0  0  0  0  0  0  0  0  0  0  0  0
   -1.4088    1.2675   -0.8306 H   0  0  0  0  0  0  0  0  0  0  0  0
   -3.3120   -0.3816   -2.6998 H   0  0  0  0  0  0  0  0  0  0  0  0
   -4.5357    1.1280   -4.1823 H   0  0  0  0  0  0  0  0  0  0  0  0
   -6.0150    2.8759   -3.2452 H   0  0  0  0  0  0  0  0  0  0  0  0
   -6.2564    3.1075   -0.8058 H   0  0  0  0  0  0  0  0  0  0  0  0
   -5.9558    0.3362    3.7191 H   0  0  0  0  0  0  0  0  0  0  0  0
   -5.4369   -1.8808    4.6534 H   0  0  0  0  0  0  0  0  0  0  0  0
   -3.9153   -3.4076    3.4270 H   0  0  0  0  0  0  0  0  0  0  0  0
   -2.9479   -2.7524    1.3046 H   0  0  0  0  0  0  0  0  0  0  0  0
    3.3617    0.5807    2.2352 H   0  0  0  0  0  0  0  0  0  0  0  0
    2.9255   -1.1675    2.1966 H   0  0  0  0  0  0  0  0  0  0  0  0
    1.3038   -0.4429    3.8479 H   0  0  0  0  0  0  0  0  0  0  0  0
    1.3281    1.2061    3.2093 H   0  0  0  0  0  0  0  0  0  0  0  0
   -0.6854    0.6022    2.1115 H   0  0  0  0  0  0  0  0  0  0  0  0
   -0.2369   -1.1512    2.1092 H   0  0  0  0  0  0  0  0  0  0  0  0
    3.6432    0.4778   -3.1384 H   0  0  0  0  0  0  0  0  0  0  0  0
    5.9634    0.3855   -3.8765 H   0  0  0  0  0  0  0  0  0  0  0  0
  1  2  1  0
  2  3  2  0
  3  4  1  0
  4  5  2  0
  5  6  1  0
  6  7  2  0
  7  8  1  0
  8  9  1  0
  9 10  1  0
 10 11  2  0
 10 12  1  0
 12 13  1  0
 13 14  2  0
 14 15  1  0
 15 16  2  0
 16 17  1  0
 17 18  2  0
 18 19  1  0
 19 20  1  0
 20 21  2  0
 21 22  1  0
 22 23  2  0
 23 24  1  0
 24 25  2  0
  8 26  2  0
 26 27  1  0
 27 28  1  0
 28 29  1  0
 29 30  1  0
  5 31  1  0
 31 32  2  0
 32  2  1  0
 27  6  1  0
 25 12  1  0
 30 26  1  0
 18 13  1  0
 25 20  1  0
  1 33  1  0
  1 34  1  0
  1 35  1  0
  3 36  1  0
  4 37  1  0
  7 38  1  0
  9 39  1  0
  9 40  1  0
 14 41  1  0
 15 42  1  0
 16 43  1  0
 17 44  1  0
 21 45  1  0
 22 46  1  0
 23 47  1  0
 24 48  1  0
 28 49  1  0
 28 50  1  0
 29 51  1  0
 29 52  1  0
 30 53  1  0
 30 54  1  0
 31 55  1  0
 32 56  1  0
M  CHG  1   8   1
M  END
$$$$
