
     RDKit          3D

 57 59  0  0  0  0  0  0  0  0999 V2000
   -2.5918   -3.5209   -2.9699 C   0  0  0  0  0  0  0  0  0  0  0  0
   -1.8572   -2.7935   -1.8485 C   0  0  0  0  0  0  0  0  0  0  0  0
   -2.4274   -1.4757   -1.5202 N   0  0  0  0  0  0  0  0  0  0  0  0
   -3.8440   -1.5176   -1.1202 C   0  0  0  0  0  0  0  0  0  0  0  0
   -4.1893   -2.3780    0.0947 C   0  0  0  0  0  0  0  0  0  0  0  0
   -1.5651   -0.7785   -0.5467 C   0  0  0  0  0  0  0  0  0  0  0  0
   -1.7955    0.7394   -0.4847 C   0  0  0  0  0  0  0  0  0  0  0  0
   -0.8583    1.2909    0.4459 O   0  0  0  0  0  0  0  0  0  0  0  0
   -0.7985    2.6513    0.5963 C   0  0  0  0  0  0  0  0  0  0  0  0
   -1.5581    3.5601   -0.0598 C   0  0  0  0  0  0  0  0  0  0  0  0
   -1.4161    5.0108    0.3084 C   0  0  2  0  0  0  0  0  0  0  0  0
   -1.8228    5.9232   -0.7000 O   0  0  0  0  0  0  0  0  0  0  0  0
   -1.3091    7.1460   -0.3259 C   0  0  0  0  0  0  0  0  0  0  0  0
   -1.6346    8.2004   -0.8472 O   0  0  0  0  0  0  0  0  0  0  0  0
   -0.0776    7.0617    0.9562 S   0  0  0  0  0  0  0  0  0  0  0  0
    0.0515    5.3171    0.6120 C   0  0  1  0  0  0  0  0  0  0  0  0
    0.5707    4.4012    1.6626 C   0  0  0  0  0  0  0  0  0  0  0  0
    0.1714    3.1079    1.6143 C   0  0  0  0  0  0  0  0  0  0  0  0
    0.7051    2.2185    2.6894 C   0  0  0  0  0  0  0  0  0  0  0  0
    0.5582    2.5102    3.8749 O   0  0  0  0  0  0  0  0  0  0  0  0
    1.4296    0.9688    2.3334 C   0  0  0  0  0  0  0  0  0  0  0  0
    2.0418    0.7434    1.1598 C   0  0  0  0  0  0  0  0  0  0  0  0
    2.7254   -0.5114    0.8119 C   0  0  0  0  0  0  0  0  0  0  0  0
    3.3871   -1.3076    1.7544 C   0  0  0  0  0  0  0  0  0  0  0  0
    4.0369   -2.4892    1.3700 C   0  0  0  0  0  0  0  0  0  0  0  0
    4.0463   -2.8821    0.0333 C   0  0  0  0  0  0  0  0  0  0  0  0
    4.6439   -4.0003   -0.4752 O   0  0  0  0  0  0  0  0  0  0  0  0
    5.2816   -4.8679    0.4527 C   0  0  0  0  0  0  0  0  0  0  0  0
    3.4017   -2.0843   -0.9125 C   0  0  0  0  0  0  0  0  0  0  0  0
    2.7511   -0.9075   -0.5307 C   0  0  0  0  0  0  0  0  0  0  0  0
   -2.0085   -4.3906   -3.2910 H   0  0  0  0  0  0  0  0  0  0  0  0
   -3.5719   -3.8859   -2.6462 H   0  0  0  0  0  0  0  0  0  0  0  0
   -2.7289   -2.8706   -3.8407 H   0  0  0  0  0  0  0  0  0  0  0  0
   -0.8238   -2.6511   -2.1950 H   0  0  0  0  0  0  0  0  0  0  0  0
   -1.8015   -3.4401   -0.9622 H   0  0  0  0  0  0  0  0  0  0  0  0
   -4.2070   -0.4994   -0.9377 H   0  0  0  0  0  0  0  0  0  0  0  0
   -4.4457   -1.8599   -1.9710 H   0  0  0  0  0  0  0  0  0  0  0  0
   -3.9605   -3.4349   -0.0805 H   0  0  0  0  0  0  0  0  0  0  0  0
   -3.6588   -2.0535    0.9934 H   0  0  0  0  0  0  0  0  0  0  0  0
   -5.2630   -2.3045    0.3054 H   0  0  0  0  0  0  0  0  0  0  0  0
   -1.6414   -1.2157    0.4575 H   0  0  0  0  0  0  0  0  0  0  0  0
   -0.5109   -0.9142   -0.8297 H   0  0  0  0  0  0  0  0  0  0  0  0
   -1.6327    1.1679   -1.4809 H   0  0  0  0  0  0  0  0  0  0  0  0
   -2.8094    0.9676   -0.1395 H   0  0  0  0  0  0  0  0  0  0  0  0
   -2.3170    3.2934   -0.7843 H   0  0  0  0  0  0  0  0  0  0  0  0
   -2.0793    5.1647    1.1770 H   0  0  0  0  0  0  0  0  0  0  0  0
    0.6806    5.2255   -0.2852 H   0  0  0  0  0  0  0  0  0  0  0  0
    1.2709    4.7588    2.4118 H   0  0  0  0  0  0  0  0  0  0  0  0
    1.4378    0.2402    3.1379 H   0  0  0  0  0  0  0  0  0  0  0  0
    2.0314    1.4976    0.3773 H   0  0  0  0  0  0  0  0  0  0  0  0
    3.4179   -1.0202    2.8027 H   0  0  0  0  0  0  0  0  0  0  0  0
    4.5308   -3.0720    2.1398 H   0  0  0  0  0  0  0  0  0  0  0  0
    5.7050   -5.7048   -0.1102 H   0  0  0  0  0  0  0  0  0  0  0  0
    4.5613   -5.2770    1.1683 H   0  0  0  0  0  0  0  0  0  0  0  0
    6.1063   -4.3622    0.9659 H   0  0  0  0  0  0  0  0  0  0  0  0
    3.4066   -2.3814   -1.9593 H   0  0  0  0  0  0  0  0  0  0  0  0
    2.2547   -0.3140   -1.2963 H   0  0  0  0  0  0  0  0  0  0  0  0
  1  2  1  0
  2  3  1  0
  3  4  1  0
  4  5  1  0
  3  6  1  0
  6  7  1  0
  7  8  1  0
  8  9  1  0
  9 10  2  0
 10 11  1  0
 11 12  1  0
 12 13  1  0
 13 14  2  0
 13 15  1  0
 15 16  1  0
 16 17  1  0
 17 18  2  0
 18 19  1  0
 19 20  2  0
 19 21  1  0
 21 22  2  0
 22 23  1  0
 23 24  2  0
 24 25  1  0
 25 26  2  0
 26 27  1  0
 27 28  1  0
 26 29  1  0
 29 30  2  0
 18  9  1  0
 30 23  1  0
 16 11  1  0
  1 31  1  0
  1 32  1  0
  1 33  1  0
  2 34  1  0
  2 35  1  0
  4 36  1  0
  4 37  1  0
  5 38  1  0
  5 39  1  0
  5 40  1  0
  6 41  1  0
  6 42  1  0
  7 43  1  0
  7 44  1  0
 10 45  1  0
 11 46  1  1
 16 47  1  6
 17 48  1  0
 21 49  1  0
 22 50  1  0
 24 51  1  0
 25 52  1  0
 28 53  1  0
 28 54  1  0
 28 55  1  0
 29 56  1  0
 30 57  1  0
M  END
$$$$
