
     RDKit          3D

 21 21  0  0  0  0  0  0  0  0999 V2000
    3.0855   -0.2985   -0.3527 C   0  0  0  0  0  0  0  0  0  0  0  0
    1.6104   -0.0182   -0.2574 C   0  0  0  0  0  0  0  0  0  0  0  0
    1.1314    1.2261   -0.6784 C   0  0  0  0  0  0  0  0  0  0  0  0
   -0.2269    1.4879   -0.6170 C   0  0  0  0  0  0  0  0  0  0  0  0
   -0.6866    2.7069   -1.0400 O   0  0  0  0  0  0  0  0  0  0  0  0
   -1.1582    0.5415   -0.1626 C   0  0  0  0  0  0  0  0  0  0  0  0
   -2.5024    0.9821   -0.0375 N   0  0  0  0  0  0  0  0  0  0  0  0
   -0.6931   -0.6828    0.3468 C   0  0  0  0  0  0  0  0  0  0  0  0
   -1.6416   -1.6990    0.9299 C   0  0  0  0  0  0  0  0  0  0  0  0
    0.6943   -0.9662    0.2514 C   0  0  0  0  0  0  0  0  0  0  0  0
    1.2958   -2.5150    0.7708 Cl  0  0  0  0  0  0  0  0  0  0  0  0
    3.6295    0.5538   -0.7744 H   0  0  0  0  0  0  0  0  0  0  0  0
    3.2705   -1.1573   -1.0058 H   0  0  0  0  0  0  0  0  0  0  0  0
    3.5028   -0.4924    0.6406 H   0  0  0  0  0  0  0  0  0  0  0  0
    1.8025    1.9901   -1.0608 H   0  0  0  0  0  0  0  0  0  0  0  0
   -1.6605    2.6094   -0.9893 H   0  0  0  0  0  0  0  0  0  0  0  0
   -2.6256    1.4149    0.8799 H   0  0  0  0  0  0  0  0  0  0  0  0
   -3.1577    0.2067   -0.1137 H   0  0  0  0  0  0  0  0  0  0  0  0
   -1.2259   -2.1553    1.8342 H   0  0  0  0  0  0  0  0  0  0  0  0
   -1.8536   -2.4794    0.1925 H   0  0  0  0  0  0  0  0  0  0  0  0
   -2.5904   -1.2551    1.2437 H   0  0  0  0  0  0  0  0  0  0  0  0
  1  2  1  0
  2  3  2  0
  3  4  1  0
  4  5  1  0
  4  6  2  0
  6  7  1  0
  6  8  1  0
  8  9  1  0
  8 10  2  0
 10 11  1  0
 10  2  1  0
  1 12  1  0
  1 13  1  0
  1 14  1  0
  3 15  1  0
  5 16  1  0
  7 17  1  0
  7 18  1  0
  9 19  1  0
  9 20  1  0
  9 21  1  0
M  END
$$$$
