
     RDKit          3D

 64 67  0  0  0  0  0  0  0  0999 V2000
    4.2924   -2.8531   -5.6672 C   0  0  0  0  0  0  0  0  0  0  0  0
    4.0685   -1.5174   -5.2304 O   0  0  0  0  0  0  0  0  0  0  0  0
    3.7429   -1.3527   -3.9141 C   0  0  0  0  0  0  0  0  0  0  0  0
    3.3357   -2.3582   -3.0402 C   0  0  0  0  0  0  0  0  0  0  0  0
    3.0369   -2.0546   -1.7056 C   0  0  0  0  0  0  0  0  0  0  0  0
    3.1495   -0.7445   -1.2267 C   0  0  0  0  0  0  0  0  0  0  0  0
    2.8526   -0.5313    0.1314 N   0  0  0  0  0  0  0  0  0  0  0  0
    2.9302    0.6465    0.8533 C   0  0  0  0  0  0  0  0  0  0  0  0
    3.2415    1.7495    0.4167 O   0  0  0  0  0  0  0  0  0  0  0  0
    2.4925    0.4808    2.3204 C   0  0  0  0  0  0  0  0  0  0  0  0
    2.4866   -0.9230    2.7825 N   0  0  0  0  0  0  0  0  0  0  0  0
    3.7907   -1.4771    3.1370 C   0  0  0  0  0  0  0  0  0  0  0  0
    1.3619   -1.6565    3.1171 C   0  0  0  0  0  0  0  0  0  0  0  0
    1.4136   -2.7743    3.6203 O   0  0  0  0  0  0  0  0  0  0  0  0
    0.0242   -1.0699    2.8958 C   0  0  0  0  0  0  0  0  0  0  0  0
   -0.4580   -0.8314    1.6675 C   0  0  0  0  0  0  0  0  0  0  0  0
   -1.7747   -0.3563    1.4104 C   0  0  0  0  0  0  0  0  0  0  0  0
   -2.9280   -0.9213    1.9014 C   0  0  0  0  0  0  0  0  0  0  0  0
   -3.9778   -0.1810    1.4061 N   0  0  0  0  0  0  0  0  0  0  0  0
   -5.3715   -0.4072    1.5881 C   0  0  0  0  0  0  0  0  0  0  0  0
   -5.8404   -1.4953    2.3376 C   0  0  0  0  0  0  0  0  0  0  0  0
   -7.2139   -1.7027    2.4906 C   0  0  0  0  0  0  0  0  0  0  0  0
   -8.1248   -0.8313    1.8984 C   0  0  0  0  0  0  0  0  0  0  0  0
   -7.6664    0.2511    1.1481 C   0  0  0  0  0  0  0  0  0  0  0  0
   -6.2951    0.4655    0.9934 C   0  0  0  0  0  0  0  0  0  0  0  0
   -3.5360    0.8657    0.6645 N   0  0  0  0  0  0  0  0  0  0  0  0
   -2.2003    0.7498    0.6317 C   0  0  0  0  0  0  0  0  0  0  0  0
   -1.3861    1.7208   -0.0892 C   0  0  0  0  0  0  0  0  0  0  0  0
   -1.5068    3.0843    0.2025 C   0  0  0  0  0  0  0  0  0  0  0  0
   -0.7047    4.0211   -0.4566 C   0  0  0  0  0  0  0  0  0  0  0  0
    0.2258    3.6048   -1.4154 C   0  0  0  0  0  0  0  0  0  0  0  0
    1.0724    4.6078   -2.1402 C   0  0  0  0  0  0  0  0  0  0  0  0
    0.3158    2.2455   -1.7320 C   0  0  0  0  0  0  0  0  0  0  0  0
   -0.4791    1.3091   -1.0701 C   0  0  0  0  0  0  0  0  0  0  0  0
    3.5494    0.2603   -2.1054 C   0  0  0  0  0  0  0  0  0  0  0  0
    3.8302   -0.0418   -3.4434 C   0  0  0  0  0  0  0  0  0  0  0  0
    5.0576   -3.3455   -5.0518 H   0  0  0  0  0  0  0  0  0  0  0  0
    3.3606   -3.4306   -5.6766 H   0  0  0  0  0  0  0  0  0  0  0  0
    4.6687   -2.8102   -6.6921 H   0  0  0  0  0  0  0  0  0  0  0  0
    3.2299   -3.3869   -3.3663 H   0  0  0  0  0  0  0  0  0  0  0  0
    2.7186   -2.8605   -1.0499 H   0  0  0  0  0  0  0  0  0  0  0  0
    2.6307   -1.3524    0.6841 H   0  0  0  0  0  0  0  0  0  0  0  0
    3.1858    1.0396    2.9582 H   0  0  0  0  0  0  0  0  0  0  0  0
    1.5059    0.9380    2.4241 H   0  0  0  0  0  0  0  0  0  0  0  0
    4.5015   -1.2932    2.3279 H   0  0  0  0  0  0  0  0  0  0  0  0
    3.7432   -2.5564    3.3154 H   0  0  0  0  0  0  0  0  0  0  0  0
    4.1418   -0.9820    4.0466 H   0  0  0  0  0  0  0  0  0  0  0  0
   -0.5697   -0.9365    3.7914 H   0  0  0  0  0  0  0  0  0  0  0  0
    0.1656   -1.0121    0.7981 H   0  0  0  0  0  0  0  0  0  0  0  0
   -3.0735   -1.7852    2.5312 H   0  0  0  0  0  0  0  0  0  0  0  0
   -5.1699   -2.2057    2.8108 H   0  0  0  0  0  0  0  0  0  0  0  0
   -7.5724   -2.5491    3.0743 H   0  0  0  0  0  0  0  0  0  0  0  0
   -9.1914   -0.9981    2.0188 H   0  0  0  0  0  0  0  0  0  0  0  0
   -8.3709    0.9316    0.6795 H   0  0  0  0  0  0  0  0  0  0  0  0
   -5.9635    1.3160    0.3981 H   0  0  0  0  0  0  0  0  0  0  0  0
   -2.2288    3.4101    0.9470 H   0  0  0  0  0  0  0  0  0  0  0  0
   -0.8002    5.0800   -0.2228 H   0  0  0  0  0  0  0  0  0  0  0  0
    2.0372    4.1758   -2.4210 H   0  0  0  0  0  0  0  0  0  0  0  0
    1.2775    5.4734   -1.5041 H   0  0  0  0  0  0  0  0  0  0  0  0
    0.5578    4.9479   -3.0441 H   0  0  0  0  0  0  0  0  0  0  0  0
    1.0093    1.9043   -2.4962 H   0  0  0  0  0  0  0  0  0  0  0  0
   -0.3892    0.2621   -1.3436 H   0  0  0  0  0  0  0  0  0  0  0  0
    3.6442    1.2940   -1.7853 H   0  0  0  0  0  0  0  0  0  0  0  0
    4.1441    0.7497   -4.1198 H   0  0  0  0  0  0  0  0  0  0  0  0
  1  2  1  0
  2  3  1  0
  3  4  2  0
  4  5  1  0
  5  6  2  0
  6  7  1  0
  7  8  1  0
  8  9  2  0
  8 10  1  0
 10 11  1  0
 11 12  1  0
 11 13  1  0
 13 14  2  0
 13 15  1  0
 15 16  2  3
 16 17  1  0
 17 18  2  0
 18 19  1  0
 19 20  1  0
 20 21  2  0
 21 22  1  0
 22 23  2  0
 23 24  1  0
 24 25  2  0
 19 26  1  0
 26 27  2  0
 27 28  1  0
 28 29  2  0
 29 30  1  0
 30 31  2  0
 31 32  1  0
 31 33  1  0
 33 34  2  0
  6 35  1  0
 35 36  2  0
 36  3  1  0
 27 17  1  0
 34 28  1  0
 25 20  1  0
  1 37  1  0
  1 38  1  0
  1 39  1  0
  4 40  1  0
  5 41  1  0
  7 42  1  0
 10 43  1  0
 10 44  1  0
 12 45  1  0
 12 46  1  0
 12 47  1  0
 15 48  1  0
 16 49  1  0
 18 50  1  0
 21 51  1  0
 22 52  1  0
 23 53  1  0
 24 54  1  0
 25 55  1  0
 29 56  1  0
 30 57  1  0
 32 58  1  0
 32 59  1  0
 32 60  1  0
 33 61  1  0
 34 62  1  0
 35 63  1  0
 36 64  1  0
M  END
$$$$
