
     RDKit          3D

 48 52  0  0  0  0  0  0  0  0999 V2000
   -4.6439    0.3549    1.7039 C   0  0  0  0  0  0  0  0  0  0  0  0
   -3.4912   -0.0327    0.9221 N   0  0  0  0  0  0  0  0  0  0  0  0
   -2.4686    0.8083    0.5759 C   0  0  0  0  0  0  0  0  0  0  0  0
   -1.5392    0.1044   -0.1758 C   0  0  0  0  0  0  0  0  0  0  0  0
   -0.2454    0.5686   -0.8174 C   0  0  0  0  0  0  0  0  0  0  0  0
   -0.0765    2.0732   -0.6314 C   0  0  0  0  0  0  0  0  0  0  0  0
    0.2739    2.6488    0.5964 C   0  0  0  0  0  0  0  0  0  0  0  0
    0.4221    4.0303    0.6911 C   0  0  0  0  0  0  0  0  0  0  0  0
    0.2187    4.8147   -0.4348 C   0  0  0  0  0  0  0  0  0  0  0  0
   -0.1265    4.1823   -1.6149 C   0  0  0  0  0  0  0  0  0  0  0  0
   -0.2775    2.8456   -1.7383 N   0  0  0  0  0  0  0  0  0  0  0  0
    1.0144   -0.0874   -0.2943 C   0  0  0  0  0  0  0  0  0  0  0  0
    1.1931   -0.7786    0.8946 C   0  0  0  0  0  0  0  0  0  0  0  0
    2.4819   -1.2311    0.9507 N   0  0  0  0  0  0  0  0  0  0  0  0
    3.0342   -2.0035    2.0408 C   0  0  0  0  0  0  0  0  0  0  0  0
    3.1728   -0.8515   -0.1783 C   0  0  0  0  0  0  0  0  0  0  0  0
    4.5027   -1.0806   -0.5659 C   0  0  0  0  0  0  0  0  0  0  0  0
    4.9293   -0.5612   -1.7914 C   0  0  0  0  0  0  0  0  0  0  0  0
    4.0613    0.1625   -2.6025 C   0  0  0  0  0  0  0  0  0  0  0  0
    2.7383    0.3840   -2.2073 C   0  0  0  0  0  0  0  0  0  0  0  0
    2.2794   -0.1315   -0.9761 C   0  0  0  0  0  0  0  0  0  0  0  0
   -2.0652   -1.2348   -0.2901 C   0  0  0  0  0  0  0  0  0  0  0  0
   -1.6062   -2.4082   -0.9307 C   0  0  0  0  0  0  0  0  0  0  0  0
   -2.3568   -3.5850   -0.8503 C   0  0  0  0  0  0  0  0  0  0  0  0
   -3.5544   -3.6117   -0.1438 C   0  0  0  0  0  0  0  0  0  0  0  0
   -4.0348   -2.4671    0.4973 C   0  0  0  0  0  0  0  0  0  0  0  0
   -3.2732   -1.2902    0.4094 C   0  0  0  0  0  0  0  0  0  0  0  0
   -4.6974   -0.2924    2.5841 H   0  0  0  0  0  0  0  0  0  0  0  0
   -4.5400    1.3960    2.0201 H   0  0  0  0  0  0  0  0  0  0  0  0
   -5.5356    0.2428    1.0822 H   0  0  0  0  0  0  0  0  0  0  0  0
   -2.4877    1.8471    0.8800 H   0  0  0  0  0  0  0  0  0  0  0  0
   -0.3223    0.3595   -1.8938 H   0  0  0  0  0  0  0  0  0  0  0  0
    0.4311    2.0284    1.4730 H   0  0  0  0  0  0  0  0  0  0  0  0
    0.6978    4.4861    1.6372 H   0  0  0  0  0  0  0  0  0  0  0  0
    0.3285    5.8920   -0.3949 H   0  0  0  0  0  0  0  0  0  0  0  0
   -0.2968    4.7506   -2.5246 H   0  0  0  0  0  0  0  0  0  0  0  0
    0.4908   -0.9910    1.6913 H   0  0  0  0  0  0  0  0  0  0  0  0
    3.8688   -1.4447    2.4720 H   0  0  0  0  0  0  0  0  0  0  0  0
    2.2669   -2.1661    2.8020 H   0  0  0  0  0  0  0  0  0  0  0  0
    3.3731   -2.9657    1.6478 H   0  0  0  0  0  0  0  0  0  0  0  0
    5.1870   -1.6423    0.0612 H   0  0  0  0  0  0  0  0  0  0  0  0
    5.9546   -0.7244   -2.1138 H   0  0  0  0  0  0  0  0  0  0  0  0
    4.4106    0.5625   -3.5511 H   0  0  0  0  0  0  0  0  0  0  0  0
    2.0710    0.9578   -2.8455 H   0  0  0  0  0  0  0  0  0  0  0  0
   -0.6688   -2.4026   -1.4805 H   0  0  0  0  0  0  0  0  0  0  0  0
   -1.9974   -4.4834   -1.3442 H   0  0  0  0  0  0  0  0  0  0  0  0
   -4.1254   -4.5359   -0.0901 H   0  0  0  0  0  0  0  0  0  0  0  0
   -4.9712   -2.4969    1.0439 H   0  0  0  0  0  0  0  0  0  0  0  0
  1  2  1  0
  2  3  1  0
  3  4  2  0
  4  5  1  0
  5  6  1  0
  6  7  2  0
  7  8  1  0
  8  9  2  0
  9 10  1  0
 10 11  2  0
  5 12  1  0
 12 13  2  0
 13 14  1  0
 14 15  1  0
 14 16  1  0
 16 17  2  0
 17 18  1  0
 18 19  2  0
 19 20  1  0
 20 21  2  0
  4 22  1  0
 22 23  2  0
 23 24  1  0
 24 25  2  0
 25 26  1  0
 26 27  2  0
 27  2  1  0
 11  6  1  0
 21 12  1  0
 27 22  1  0
 21 16  1  0
  1 28  1  0
  1 29  1  0
  1 30  1  0
  3 31  1  0
  5 32  1  0
  7 33  1  0
  8 34  1  0
  9 35  1  0
 10 36  1  0
 13 37  1  0
 15 38  1  0
 15 39  1  0
 15 40  1  0
 17 41  1  0
 18 42  1  0
 19 43  1  0
 20 44  1  0
 23 45  1  0
 24 46  1  0
 25 47  1  0
 26 48  1  0
M  END
$$$$
