
     RDKit          3D

 40 41  0  0  0  0  0  0  0  0999 V2000
    6.3826   -0.5352   -5.1039 C   0  0  0  0  0  0  0  0  0  0  0  0
    5.0276   -0.9149   -4.5295 C   0  0  0  0  0  0  0  0  0  0  0  0
    4.4928    0.1669   -3.5947 C   0  0  0  0  0  0  0  0  0  0  0  0
    3.1441   -0.1994   -2.9908 C   0  0  0  0  0  0  0  0  0  0  0  0
    2.5783   -1.2557   -3.2452 O   0  0  0  0  0  0  0  0  0  0  0  0
    2.6822    0.8010   -2.1489 N   0  0  0  0  0  0  0  0  0  0  0  0
    1.4806    0.8185   -1.4123 C   0  0  0  0  0  0  0  0  0  0  0  0
    0.5379   -0.2112   -1.4280 C   0  0  0  0  0  0  0  0  0  0  0  0
   -0.6353   -0.1207   -0.6656 C   0  0  0  0  0  0  0  0  0  0  0  0
   -0.8734    1.0044    0.1302 C   0  0  0  0  0  0  0  0  0  0  0  0
   -2.1038    1.1542    0.9550 C   0  0  0  0  0  0  0  0  0  0  0  0
   -2.4762    2.2625    1.3343 O   0  0  0  0  0  0  0  0  0  0  0  0
   -2.7720   -0.0086    1.2914 N   0  0  0  0  0  0  0  0  0  0  0  0
   -3.7915    0.1046    2.2556 N   0  0  0  0  0  0  0  0  0  0  0  0
   -3.8585   -0.8606    3.2479 C   0  0  0  0  0  0  0  0  0  0  0  0
   -3.2004   -1.8996    3.1547 O   0  0  0  0  0  0  0  0  0  0  0  0
   -4.7258   -0.5644    4.3793 C   0  0  0  0  0  0  0  0  0  0  0  0
   -4.9611   -1.3783    5.4736 C   0  0  0  0  0  0  0  0  0  0  0  0
   -5.8672   -0.7975    6.4075 C   0  0  0  0  0  0  0  0  0  0  0  0
   -6.2927    0.4466    6.0023 C   0  0  0  0  0  0  0  0  0  0  0  0
   -5.6057    0.9022    4.5050 S   0  0  0  0  0  0  0  0  0  0  0  0
    0.0622    2.0441    0.1382 C   0  0  0  0  0  0  0  0  0  0  0  0
    1.2311    1.9487   -0.6244 C   0  0  0  0  0  0  0  0  0  0  0  0
    7.1219   -0.4035   -4.3075 H   0  0  0  0  0  0  0  0  0  0  0  0
    6.7433   -1.3215   -5.7749 H   0  0  0  0  0  0  0  0  0  0  0  0
    6.3208    0.3973   -5.6740 H   0  0  0  0  0  0  0  0  0  0  0  0
    5.1175   -1.8654   -3.9903 H   0  0  0  0  0  0  0  0  0  0  0  0
    4.3200   -1.0823   -5.3504 H   0  0  0  0  0  0  0  0  0  0  0  0
    5.2014    0.3321   -2.7743 H   0  0  0  0  0  0  0  0  0  0  0  0
    4.3778    1.1083   -4.1457 H   0  0  0  0  0  0  0  0  0  0  0  0
    3.2758    1.6149   -2.0481 H   0  0  0  0  0  0  0  0  0  0  0  0
    0.6790   -1.1029   -2.0316 H   0  0  0  0  0  0  0  0  0  0  0  0
   -1.3535   -0.9331   -0.7331 H   0  0  0  0  0  0  0  0  0  0  0  0
   -2.3028   -0.9138    1.2693 H   0  0  0  0  0  0  0  0  0  0  0  0
   -4.1207    1.0513    2.4443 H   0  0  0  0  0  0  0  0  0  0  0  0
   -4.4997   -2.3530    5.5906 H   0  0  0  0  0  0  0  0  0  0  0  0
   -6.1873   -1.2682    7.3291 H   0  0  0  0  0  0  0  0  0  0  0  0
   -6.9744    1.1124    6.5138 H   0  0  0  0  0  0  0  0  0  0  0  0
   -0.1131    2.9334    0.7417 H   0  0  0  0  0  0  0  0  0  0  0  0
    1.9382    2.7738   -0.5905 H   0  0  0  0  0  0  0  0  0  0  0  0
  1  2  1  0
  2  3  1  0
  3  4  1  0
  4  5  2  0
  4  6  1  0
  6  7  1  0
  7  8  2  0
  8  9  1  0
  9 10  2  0
 10 11  1  0
 11 12  2  0
 11 13  1  0
 13 14  1  0
 14 15  1  0
 15 16  2  0
 15 17  1  0
 17 18  2  0
 18 19  1  0
 19 20  2  0
 20 21  1  0
 10 22  1  0
 22 23  2  0
 23  7  1  0
 21 17  1  0
  1 24  1  0
  1 25  1  0
  1 26  1  0
  2 27  1  0
  2 28  1  0
  3 29  1  0
  3 30  1  0
  6 31  1  0
  8 32  1  0
  9 33  1  0
 13 34  1  0
 14 35  1  0
 18 36  1  0
 19 37  1  0
 20 38  1  0
 22 39  1  0
 23 40  1  0
M  END
$$$$
