
     RDKit          3D

 56 58  0  0  0  0  0  0  0  0999 V2000
    6.0798   -4.5550   -2.5219 C   0  0  0  0  0  0  0  0  0  0  0  0
    4.8624   -4.0807   -1.9609 O   0  0  0  0  0  0  0  0  0  0  0  0
    4.7123   -2.7236   -1.8663 C   0  0  0  0  0  0  0  0  0  0  0  0
    5.5657   -1.7693   -2.4201 C   0  0  0  0  0  0  0  0  0  0  0  0
    5.3062   -0.4053   -2.2497 C   0  0  0  0  0  0  0  0  0  0  0  0
    4.1899    0.0122   -1.5219 C   0  0  0  0  0  0  0  0  0  0  0  0
    3.8494    1.3242   -1.2881 O   0  0  0  0  0  0  0  0  0  0  0  0
    4.7353    2.3196   -1.7803 C   0  0  0  0  0  0  0  0  0  0  0  0
    3.3144   -0.9485   -0.9730 C   0  0  0  0  0  0  0  0  0  0  0  0
    2.2043   -0.4561   -0.2522 N   0  0  0  0  0  0  0  0  0  0  0  0
    1.1464   -1.1567    0.2946 C   0  0  0  0  0  0  0  0  0  0  0  0
    0.9811   -2.3737    0.2488 O   0  0  0  0  0  0  0  0  0  0  0  0
    0.1625   -0.2657    1.0371 C   0  0  0  0  0  0  0  0  0  0  0  0
   -0.5481    0.9593   -0.1006 S   0  0  0  0  0  0  0  0  0  0  0  0
   -1.8968    1.5127    0.8747 C   0  0  0  0  0  0  0  0  0  0  0  0
   -1.7206    1.5314    2.1552 N   0  0  0  0  0  0  0  0  0  0  0  0
   -2.7722    1.9609    2.9670 C   0  0  0  0  0  0  0  0  0  0  0  0
   -2.6007    1.9625    4.3542 C   0  0  0  0  0  0  0  0  0  0  0  0
   -3.6288    2.3901    5.1984 C   0  0  0  0  0  0  0  0  0  0  0  0
   -4.8384    2.8225    4.6599 C   0  0  0  0  0  0  0  0  0  0  0  0
   -5.0183    2.8258    3.2786 C   0  0  0  0  0  0  0  0  0  0  0  0
   -3.9823    2.3929    2.4431 C   0  0  0  0  0  0  0  0  0  0  0  0
   -4.1361    2.3820    0.9781 C   0  0  0  0  0  0  0  0  0  0  0  0
   -5.1919    2.7760    0.4761 O   0  0  0  0  0  0  0  0  0  0  0  0
   -3.0462    1.9315    0.2328 N   0  0  0  0  0  0  0  0  0  0  0  0
   -3.2644    1.8674   -1.2200 C   0  0  0  0  0  0  0  0  0  0  0  0
   -4.0770    0.6358   -1.6603 C   0  0  0  0  0  0  0  0  0  0  0  0
   -3.3579   -0.6232   -1.5354 N   0  0  0  0  0  0  0  0  0  0  0  0
   -3.3885   -1.3797   -0.3851 C   0  0  0  0  0  0  0  0  0  0  0  0
   -2.6060   -2.6686   -0.4574 C   0  0  0  0  0  0  0  0  0  0  0  0
   -4.0017   -1.0492    0.6225 O   0  0  0  0  0  0  0  0  0  0  0  0
    3.5838   -2.3077   -1.1511 C   0  0  0  0  0  0  0  0  0  0  0  0
    6.9478   -4.1716   -1.9753 H   0  0  0  0  0  0  0  0  0  0  0  0
    6.1414   -4.3049   -3.5858 H   0  0  0  0  0  0  0  0  0  0  0  0
    6.0861   -5.6452   -2.4339 H   0  0  0  0  0  0  0  0  0  0  0  0
    6.4413   -2.0525   -2.9958 H   0  0  0  0  0  0  0  0  0  0  0  0
    5.9946    0.3014   -2.7018 H   0  0  0  0  0  0  0  0  0  0  0  0
    4.7640    2.3112   -2.8740 H   0  0  0  0  0  0  0  0  0  0  0  0
    4.3489    3.2930   -1.4643 H   0  0  0  0  0  0  0  0  0  0  0  0
    5.7372    2.2054   -1.3559 H   0  0  0  0  0  0  0  0  0  0  0  0
    2.1588    0.5604   -0.2135 H   0  0  0  0  0  0  0  0  0  0  0  0
   -0.6248   -0.8977    1.4604 H   0  0  0  0  0  0  0  0  0  0  0  0
    0.6901    0.2316    1.8593 H   0  0  0  0  0  0  0  0  0  0  0  0
   -1.6577    1.6263    4.7791 H   0  0  0  0  0  0  0  0  0  0  0  0
   -3.4844    2.3829    6.2749 H   0  0  0  0  0  0  0  0  0  0  0  0
   -5.6410    3.1523    5.3143 H   0  0  0  0  0  0  0  0  0  0  0  0
   -5.9601    3.1602    2.8547 H   0  0  0  0  0  0  0  0  0  0  0  0
   -3.8152    2.7674   -1.5205 H   0  0  0  0  0  0  0  0  0  0  0  0
   -2.3223    1.9044   -1.7675 H   0  0  0  0  0  0  0  0  0  0  0  0
   -4.3315    0.7376   -2.7221 H   0  0  0  0  0  0  0  0  0  0  0  0
   -5.0156    0.5624   -1.0991 H   0  0  0  0  0  0  0  0  0  0  0  0
   -2.7689   -0.9206   -2.3036 H   0  0  0  0  0  0  0  0  0  0  0  0
   -1.9396   -2.7338    0.4058 H   0  0  0  0  0  0  0  0  0  0  0  0
   -3.3041   -3.5138   -0.4462 H   0  0  0  0  0  0  0  0  0  0  0  0
   -1.9994   -2.7283   -1.3642 H   0  0  0  0  0  0  0  0  0  0  0  0
    2.9372   -3.0720   -0.7313 H   0  0  0  0  0  0  0  0  0  0  0  0
  1  2  1  0
  2  3  1  0
  3  4  2  0
  4  5  1  0
  5  6  2  0
  6  7  1  0
  7  8  1  0
  6  9  1  0
  9 10  1  0
 10 11  1  0
 11 12  2  0
 11 13  1  0
 13 14  1  0
 14 15  1  0
 15 16  2  0
 16 17  1  0
 17 18  2  0
 18 19  1  0
 19 20  2  0
 20 21  1  0
 21 22  2  0
 22 23  1  0
 23 24  2  0
 23 25  1  0
 25 26  1  0
 26 27  1  0
 27 28  1  0
 28 29  1  0
 29 30  1  0
 29 31  2  0
  9 32  2  0
 32  3  1  0
 25 15  1  0
 22 17  1  0
  1 33  1  0
  1 34  1  0
  1 35  1  0
  4 36  1  0
  5 37  1  0
  8 38  1  0
  8 39  1  0
  8 40  1  0
 10 41  1  0
 13 42  1  0
 13 43  1  0
 18 44  1  0
 19 45  1  0
 20 46  1  0
 21 47  1  0
 26 48  1  0
 26 49  1  0
 27 50  1  0
 27 51  1  0
 28 52  1  0
 30 53  1  0
 30 54  1  0
 30 55  1  0
 32 56  1  0
M  END
$$$$
