
     RDKit          3D

 59 62  0  0  0  0  0  0  0  0999 V2000
   -9.0671   -1.3005   -2.0794 C   0  0  0  0  0  0  0  0  0  0  0  0
   -8.6008   -0.0938   -1.4887 O   0  0  0  0  0  0  0  0  0  0  0  0
   -7.2501    0.1183   -1.4976 C   0  0  0  0  0  0  0  0  0  0  0  0
   -6.8488    1.3428   -0.9575 C   0  0  0  0  0  0  0  0  0  0  0  0
   -5.4964    1.6880   -0.9004 C   0  0  0  0  0  0  0  0  0  0  0  0
   -4.5266    0.8014   -1.3751 C   0  0  0  0  0  0  0  0  0  0  0  0
   -3.1181    1.1544   -1.3043 C   0  0  0  0  0  0  0  0  0  0  0  0
   -2.3852    2.0241   -2.0888 C   0  0  0  0  0  0  0  0  0  0  0  0
   -1.0797    2.0832   -1.6851 N   0  0  0  0  0  0  0  0  0  0  0  0
   -1.0028    1.2818   -0.6486 C   0  0  0  0  0  0  0  0  0  0  0  0
    0.4530    0.9840    0.2421 S   0  0  0  0  0  0  0  0  0  0  0  0
    1.4965    2.3292   -0.4007 C   0  0  0  0  0  0  0  0  0  0  0  0
    2.8938    2.2517    0.1946 C   0  0  0  0  0  0  0  0  0  0  0  0
    3.3662    3.2077    0.8037 O   0  0  0  0  0  0  0  0  0  0  0  0
    3.5253    1.0584   -0.0871 N   0  0  0  0  0  0  0  0  0  0  0  0
    4.7910    0.6785    0.2684 C   0  0  0  0  0  0  0  0  0  0  0  0
    5.2285   -0.5300    0.0049 N   0  0  0  0  0  0  0  0  0  0  0  0
    6.5327   -0.6857    0.4628 C   0  0  0  0  0  0  0  0  0  0  0  0
    7.2385   -2.0182    0.2531 C   0  0  0  0  0  0  0  0  0  0  0  0
    8.1274   -2.3766    1.4621 C   0  0  0  0  0  0  0  0  0  0  0  0
    6.2191   -3.1632    0.0684 C   0  0  0  0  0  0  0  0  0  0  0  0
    8.1186   -1.9385   -1.0083 C   0  0  0  0  0  0  0  0  0  0  0  0
    7.0564    0.4559    1.0472 C   0  0  0  0  0  0  0  0  0  0  0  0
    5.8940    1.7122    1.0444 S   0  0  0  0  0  0  0  0  0  0  0  0
   -2.2105    0.6913   -0.3636 N   0  0  0  0  0  0  0  0  0  0  0  0
   -2.4954   -0.2598    0.7017 C   0  0  0  0  0  0  0  0  0  0  0  0
   -3.0162    0.4248    1.9107 C   0  0  0  0  0  0  0  0  0  0  0  0
   -4.2863    0.6563    2.3994 C   0  0  0  0  0  0  0  0  0  0  0  0
   -4.1239    1.3604    3.6174 C   0  0  0  0  0  0  0  0  0  0  0  0
   -2.7691    1.5059    3.7985 C   0  0  0  0  0  0  0  0  0  0  0  0
   -2.0893    0.9345    2.7725 O   0  0  0  0  0  0  0  0  0  0  0  0
   -4.9269   -0.4200   -1.9264 C   0  0  0  0  0  0  0  0  0  0  0  0
   -6.2832   -0.7622   -1.9851 C   0  0  0  0  0  0  0  0  0  0  0  0
   -8.8001   -1.3505   -3.1407 H   0  0  0  0  0  0  0  0  0  0  0  0
  -10.1595   -1.3057   -2.0104 H   0  0  0  0  0  0  0  0  0  0  0  0
   -8.6946   -2.1756   -1.5356 H   0  0  0  0  0  0  0  0  0  0  0  0
   -7.5968    2.0367   -0.5801 H   0  0  0  0  0  0  0  0  0  0  0  0
   -5.2076    2.6474   -0.4756 H   0  0  0  0  0  0  0  0  0  0  0  0
   -2.7387    2.6059   -2.9311 H   0  0  0  0  0  0  0  0  0  0  0  0
    1.0532    3.2945   -0.1341 H   0  0  0  0  0  0  0  0  0  0  0  0
    1.5846    2.2692   -1.4910 H   0  0  0  0  0  0  0  0  0  0  0  0
    2.9943    0.3179   -0.5263 H   0  0  0  0  0  0  0  0  0  0  0  0
    8.5952   -3.3597    1.3335 H   0  0  0  0  0  0  0  0  0  0  0  0
    8.9357   -1.6495    1.6018 H   0  0  0  0  0  0  0  0  0  0  0  0
    7.5435   -2.4030    2.3895 H   0  0  0  0  0  0  0  0  0  0  0  0
    5.5532   -3.2447    0.9359 H   0  0  0  0  0  0  0  0  0  0  0  0
    6.7235   -4.1286   -0.0569 H   0  0  0  0  0  0  0  0  0  0  0  0
    5.5915   -3.0057   -0.8168 H   0  0  0  0  0  0  0  0  0  0  0  0
    8.8862   -1.1611   -0.9117 H   0  0  0  0  0  0  0  0  0  0  0  0
    8.6301   -2.8896   -1.1978 H   0  0  0  0  0  0  0  0  0  0  0  0
    7.5199   -1.6985   -1.8951 H   0  0  0  0  0  0  0  0  0  0  0  0
    8.0395    0.6143    1.4656 H   0  0  0  0  0  0  0  0  0  0  0  0
   -3.2220   -0.9867    0.3249 H   0  0  0  0  0  0  0  0  0  0  0  0
   -1.5881   -0.8285    0.9277 H   0  0  0  0  0  0  0  0  0  0  0  0
   -5.2157    0.3571    1.9328 H   0  0  0  0  0  0  0  0  0  0  0  0
   -4.8976    1.7175    4.2825 H   0  0  0  0  0  0  0  0  0  0  0  0
   -2.1591    1.9644    4.5650 H   0  0  0  0  0  0  0  0  0  0  0  0
   -4.1867   -1.1132   -2.3212 H   0  0  0  0  0  0  0  0  0  0  0  0
   -6.5484   -1.7205   -2.4197 H   0  0  0  0  0  0  0  0  0  0  0  0
  1  2  1  0
  2  3  1  0
  3  4  2  0
  4  5  1  0
  5  6  2  0
  6  7  1  0
  7  8  2  0
  8  9  1  0
  9 10  2  0
 10 11  1  0
 11 12  1  0
 12 13  1  0
 13 14  2  0
 13 15  1  0
 15 16  1  0
 16 17  2  0
 17 18  1  0
 18 19  1  0
 19 20  1  0
 19 21  1  0
 19 22  1  0
 18 23  2  0
 23 24  1  0
 10 25  1  0
 25 26  1  0
 26 27  1  0
 27 28  2  0
 28 29  1  0
 29 30  2  0
 30 31  1  0
  6 32  1  0
 32 33  2  0
 33  3  1  0
 25  7  1  0
 31 27  1  0
 24 16  1  0
  1 34  1  0
  1 35  1  0
  1 36  1  0
  4 37  1  0
  5 38  1  0
  8 39  1  0
 12 40  1  0
 12 41  1  0
 15 42  1  0
 20 43  1  0
 20 44  1  0
 20 45  1  0
 21 46  1  0
 21 47  1  0
 21 48  1  0
 22 49  1  0
 22 50  1  0
 22 51  1  0
 23 52  1  0
 26 53  1  0
 26 54  1  0
 28 55  1  0
 29 56  1  0
 30 57  1  0
 32 58  1  0
 33 59  1  0
M  END
$$$$
