
     RDKit          3D

 33 33  0  0  0  0  0  0  0  0999 V2000
   -1.3101    3.0609   -0.0248 C   0  0  0  0  0  0  0  0  0  0  0  0
   -2.0606    1.7599   -0.1639 C   0  0  0  0  0  0  0  0  0  0  0  0
   -3.0926    1.6985   -0.8245 O   0  0  0  0  0  0  0  0  0  0  0  0
   -1.4361    0.7201    0.4930 N   0  0  0  0  0  0  0  0  0  0  0  0
   -1.8458   -0.6283    0.5773 C   0  0  0  0  0  0  0  0  0  0  0  0
   -3.0292   -1.1154    0.0198 C   0  0  0  0  0  0  0  0  0  0  0  0
   -3.3799   -2.4638    0.1607 C   0  0  0  0  0  0  0  0  0  0  0  0
   -2.5561   -3.3389    0.8671 C   0  0  0  0  0  0  0  0  0  0  0  0
   -1.3716   -2.8707    1.4282 C   0  0  0  0  0  0  0  0  0  0  0  0
   -1.0145   -1.5300    1.2648 C   0  0  0  0  0  0  0  0  0  0  0  0
    0.1505   -1.0959    1.8472 O   0  0  0  0  0  0  0  0  0  0  0  0
    1.2659   -1.2978    0.9783 C   0  0  0  0  0  0  0  0  0  0  0  0
    1.8521    0.0430    0.5323 C   0  0  0  0  0  0  0  0  0  0  0  0
    1.3607    1.1291    0.8325 O   0  0  0  0  0  0  0  0  0  0  0  0
    2.9894   -0.0641   -0.2435 N   0  0  0  0  0  0  0  0  0  0  0  0
    3.5783    1.1299   -0.8575 C   0  0  0  0  0  0  0  0  0  0  0  0
    2.8959    1.6030   -2.1449 C   0  0  0  0  0  0  0  0  0  0  0  0
    3.5565    2.6570   -2.6748 F   0  0  0  0  0  0  0  0  0  0  0  0
    2.9053    0.6127   -3.0699 F   0  0  0  0  0  0  0  0  0  0  0  0
    1.6148    1.9717   -1.9499 F   0  0  0  0  0  0  0  0  0  0  0  0
   -0.8652    3.1527    0.9702 H   0  0  0  0  0  0  0  0  0  0  0  0
   -0.5264    3.1104   -0.7848 H   0  0  0  0  0  0  0  0  0  0  0  0
   -2.0033    3.8957   -0.1628 H   0  0  0  0  0  0  0  0  0  0  0  0
   -0.5517    0.9380    0.9549 H   0  0  0  0  0  0  0  0  0  0  0  0
   -3.7101   -0.4684   -0.5246 H   0  0  0  0  0  0  0  0  0  0  0  0
   -4.3090   -2.8233   -0.2756 H   0  0  0  0  0  0  0  0  0  0  0  0
   -2.8441   -4.3801    0.9861 H   0  0  0  0  0  0  0  0  0  0  0  0
   -0.7349   -3.5428    1.9954 H   0  0  0  0  0  0  0  0  0  0  0  0
    2.0338   -1.8328    1.5476 H   0  0  0  0  0  0  0  0  0  0  0  0
    1.0226   -1.8891    0.0853 H   0  0  0  0  0  0  0  0  0  0  0  0
    3.2226   -0.9656   -0.6447 H   0  0  0  0  0  0  0  0  0  0  0  0
    3.5699    1.9421   -0.1227 H   0  0  0  0  0  0  0  0  0  0  0  0
    4.6230    0.8824   -1.0718 H   0  0  0  0  0  0  0  0  0  0  0  0
  1  2  1  0
  2  3  2  0
  2  4  1  0
  4  5  1  0
  5  6  2  0
  6  7  1  0
  7  8  2  0
  8  9  1  0
  9 10  2  0
 10 11  1  0
 11 12  1  0
 12 13  1  0
 13 14  2  0
 13 15  1  0
 15 16  1  0
 16 17  1  0
 17 18  1  0
 17 19  1  0
 17 20  1  0
 10  5  1  0
  1 21  1  0
  1 22  1  0
  1 23  1  0
  4 24  1  0
  6 25  1  0
  7 26  1  0
  8 27  1  0
  9 28  1  0
 12 29  1  0
 12 30  1  0
 15 31  1  0
 16 32  1  0
 16 33  1  0
M  END
$$$$
