
     RDKit          3D

 37 39  0  0  0  0  0  0  0  0999 V2000
   -5.0311   -2.3640    0.5238 C   0  0  0  0  0  0  0  0  0  0  0  0
   -4.3116   -1.4008   -0.4037 C   0  0  0  0  0  0  0  0  0  0  0  0
   -4.0394   -0.1245    0.2342 N   0  0  0  0  0  0  0  0  0  0  0  0
   -5.0571    0.7646    0.3409 N   0  0  0  0  0  0  0  0  0  0  0  0
   -4.5065    1.8118    0.9544 C   0  0  0  0  0  0  0  0  0  0  0  0
   -3.1393    1.6188    1.1885 C   0  0  0  0  0  0  0  0  0  0  0  0
   -2.0457    2.8697    2.0566 Br  0  0  0  0  0  0  0  0  0  0  0  0
   -2.8315    0.3655    0.6966 C   0  0  0  0  0  0  0  0  0  0  0  0
   -1.5851   -0.3690    0.6660 C   0  0  0  0  0  0  0  0  0  0  0  0
   -1.5595   -1.5825    0.8557 O   0  0  0  0  0  0  0  0  0  0  0  0
   -0.5028    0.4260    0.3515 N   0  0  0  0  0  0  0  0  0  0  0  0
    0.8257    0.0464    0.2086 C   0  0  0  0  0  0  0  0  0  0  0  0
    1.3534   -1.5204    0.6534 S   0  0  0  0  0  0  0  0  0  0  0  0
    2.9218   -1.1423    0.2370 C   0  0  0  0  0  0  0  0  0  0  0  0
    3.0871    0.1275   -0.2444 C   0  0  0  0  0  0  0  0  0  0  0  0
    1.8609    0.8594   -0.2760 C   0  0  0  0  0  0  0  0  0  0  0  0
    1.6194    2.2320   -0.7206 C   0  0  0  0  0  0  0  0  0  0  0  0
    2.6335    2.8585   -1.3851 N   0  0  0  0  0  0  0  0  0  0  0  0
    0.5480    2.8105   -0.5510 O   0  0  0  0  0  0  0  0  0  0  0  0
    4.5175    0.3690   -0.5829 C   0  0  0  0  0  0  0  0  0  0  0  0
    5.2391   -0.8391    0.0920 C   0  0  0  0  0  0  0  0  0  0  0  0
    4.1633   -1.9459    0.3027 C   0  0  0  0  0  0  0  0  0  0  0  0
   -5.9832   -1.9486    0.8630 H   0  0  0  0  0  0  0  0  0  0  0  0
   -5.2417   -3.3072    0.0065 H   0  0  0  0  0  0  0  0  0  0  0  0
   -4.4274   -2.5776    1.4113 H   0  0  0  0  0  0  0  0  0  0  0  0
   -3.3760   -1.8315   -0.7632 H   0  0  0  0  0  0  0  0  0  0  0  0
   -4.9261   -1.1984   -1.2901 H   0  0  0  0  0  0  0  0  0  0  0  0
   -5.1266    2.6648    1.1956 H   0  0  0  0  0  0  0  0  0  0  0  0
   -0.6842    1.4044    0.1323 H   0  0  0  0  0  0  0  0  0  0  0  0
    3.4187    2.3572   -1.7637 H   0  0  0  0  0  0  0  0  0  0  0  0
    2.4131    3.7618   -1.7884 H   0  0  0  0  0  0  0  0  0  0  0  0
    4.8971    1.3182   -0.1892 H   0  0  0  0  0  0  0  0  0  0  0  0
    4.6645    0.3380   -1.6699 H   0  0  0  0  0  0  0  0  0  0  0  0
    5.6243   -0.5230    1.0708 H   0  0  0  0  0  0  0  0  0  0  0  0
    6.0904   -1.1957   -0.4966 H   0  0  0  0  0  0  0  0  0  0  0  0
    4.1974   -2.6785   -0.5112 H   0  0  0  0  0  0  0  0  0  0  0  0
    4.2995   -2.4552    1.2616 H   0  0  0  0  0  0  0  0  0  0  0  0
  1  2  1  0
  2  3  1  0
  3  4  1  0
  4  5  2  0
  5  6  1  0
  6  7  1  0
  6  8  2  0
  8  9  1  0
  9 10  2  0
  9 11  1  0
 11 12  1  0
 12 13  1  0
 13 14  1  0
 14 15  2  0
 15 16  1  0
 16 17  1  0
 17 18  1  0
 17 19  2  0
 15 20  1  0
 20 21  1  0
 21 22  1  0
  8  3  1  0
 16 12  2  0
 22 14  1  0
  1 23  1  0
  1 24  1  0
  1 25  1  0
  2 26  1  0
  2 27  1  0
  5 28  1  0
 11 29  1  0
 18 30  1  0
 18 31  1  0
 20 32  1  0
 20 33  1  0
 21 34  1  0
 21 35  1  0
 22 36  1  0
 22 37  1  0
M  END
$$$$
