
     RDKit          3D

 60 65  0  0  0  0  0  0  0  0999 V2000
    0.9972   -2.4661    2.2378 O   0  0  0  0  0  0  0  0  0  0  0  0
    1.5916   -1.8473    1.3629 C   0  0  0  0  0  0  0  0  0  0  0  0
    0.9800   -0.8290    0.6400 N   0  0  0  0  0  0  0  0  0  0  0  0
    1.6134   -0.0744   -0.3411 C   0  0  0  0  0  0  0  0  0  0  0  0
    0.7803    0.9993   -1.0330 C   0  0  0  0  0  0  0  0  0  0  0  0
   -0.2740    0.3735   -1.9556 C   0  0  0  0  0  0  0  0  0  0  0  0
   -1.6404    0.2159   -1.3030 C   0  0  0  0  0  0  0  0  0  0  0  0
   -2.1310    1.4742   -0.6772 N   0  0  0  0  0  0  0  0  0  0  0  0
   -3.6567    2.0318   -1.2369 S   0  0  0  0  0  6  0  0  0  0  0  0
   -3.5810    2.0816   -2.6823 O   0  0  0  0  0  0  0  0  0  0  0  0
   -4.0267    3.1948   -0.4608 O   0  0  0  0  0  0  0  0  0  0  0  0
   -4.7446    0.7128   -0.7676 C   0  0  0  0  0  0  0  0  0  0  0  0
   -5.4362   -0.0100   -1.7454 C   0  0  0  0  0  0  0  0  0  0  0  0
   -6.2859   -1.0462   -1.3565 C   0  0  0  0  0  0  0  0  0  0  0  0
   -6.4395   -1.3499   -0.0027 C   0  0  0  0  0  0  0  0  0  0  0  0
   -5.7674   -0.5990    0.9697 C   0  0  0  0  0  0  0  0  0  0  0  0
   -4.9070    0.4271    0.5910 C   0  0  0  0  0  0  0  0  0  0  0  0
   -5.9048   -0.8199    2.3165 O   0  0  0  0  0  0  0  0  0  0  0  0
   -7.0623   -1.6154    2.5970 C   0  0  0  0  0  0  0  0  0  0  0  0
   -7.1253   -2.8127    1.6618 C   0  0  0  0  0  0  0  0  0  0  0  0
   -7.2782   -2.3907    0.3009 O   0  0  0  0  0  0  0  0  0  0  0  0
   -1.1298    2.5674   -0.5661 C   0  0  0  0  0  0  0  0  0  0  0  0
    0.1836    2.0050   -0.0442 C   0  0  0  0  0  0  0  0  0  0  0  0
    2.8511   -0.2571   -0.7159 N   0  0  0  0  0  0  0  0  0  0  0  0
    3.4688   -1.2521   -0.0319 C   0  0  0  0  0  0  0  0  0  0  0  0
    2.9543   -2.0547    0.9576 C   0  0  0  0  0  0  0  0  0  0  0  0
    3.8874   -2.9463    1.3875 N   0  0  0  0  0  0  0  0  0  0  0  0
    4.9988   -2.7249    0.6853 N   0  0  0  0  0  0  0  0  0  0  0  0
    4.7559   -1.6898   -0.1579 N   0  0  0  0  0  0  0  0  0  0  0  0
    5.7772   -1.2187   -1.0700 C   0  0  0  0  0  0  0  0  0  0  0  0
    6.5317   -0.0448   -0.4948 C   0  0  0  0  0  0  0  0  0  0  0  0
    6.2338    1.2632   -0.9041 C   0  0  0  0  0  0  0  0  0  0  0  0
    6.9247    2.3479   -0.3612 C   0  0  0  0  0  0  0  0  0  0  0  0
    7.9076    2.1273    0.5933 C   0  0  0  0  0  0  0  0  0  0  0  0
    8.5656    3.1707    1.1170 F   0  0  0  0  0  0  0  0  0  0  0  0
    8.2138    0.8418    1.0173 C   0  0  0  0  0  0  0  0  0  0  0  0
    7.5267   -0.2450    0.4750 C   0  0  0  0  0  0  0  0  0  0  0  0
    0.0338   -0.6327    0.9306 H   0  0  0  0  0  0  0  0  0  0  0  0
    1.4752    1.5497   -1.6841 H   0  0  0  0  0  0  0  0  0  0  0  0
    0.0658   -0.5978   -2.3346 H   0  0  0  0  0  0  0  0  0  0  0  0
   -0.3890    1.0207   -2.8360 H   0  0  0  0  0  0  0  0  0  0  0  0
   -1.6043   -0.5469   -0.5188 H   0  0  0  0  0  0  0  0  0  0  0  0
   -2.3406   -0.1580   -2.0555 H   0  0  0  0  0  0  0  0  0  0  0  0
   -5.3251    0.2262   -2.8020 H   0  0  0  0  0  0  0  0  0  0  0  0
   -6.8265   -1.6177   -2.1071 H   0  0  0  0  0  0  0  0  0  0  0  0
   -4.3858    1.0078    1.3477 H   0  0  0  0  0  0  0  0  0  0  0  0
   -7.9532   -0.9814    2.5021 H   0  0  0  0  0  0  0  0  0  0  0  0
   -6.9912   -1.9497    3.6376 H   0  0  0  0  0  0  0  0  0  0  0  0
   -6.2188   -3.4265    1.7348 H   0  0  0  0  0  0  0  0  0  0  0  0
   -7.9853   -3.4417    1.9116 H   0  0  0  0  0  0  0  0  0  0  0  0
   -1.4902    3.3161    0.1480 H   0  0  0  0  0  0  0  0  0  0  0  0
   -0.9845    3.0579   -1.5359 H   0  0  0  0  0  0  0  0  0  0  0  0
    0.8982    2.8226    0.1130 H   0  0  0  0  0  0  0  0  0  0  0  0
    0.0170    1.5608    0.9442 H   0  0  0  0  0  0  0  0  0  0  0  0
    5.2908   -0.9545   -2.0167 H   0  0  0  0  0  0  0  0  0  0  0  0
    6.4609   -2.0490   -1.2826 H   0  0  0  0  0  0  0  0  0  0  0  0
    5.4567    1.4463   -1.6418 H   0  0  0  0  0  0  0  0  0  0  0  0
    6.7000    3.3621   -0.6718 H   0  0  0  0  0  0  0  0  0  0  0  0
    8.9793    0.6942    1.7706 H   0  0  0  0  0  0  0  0  0  0  0  0
    7.7637   -1.2485    0.8215 H   0  0  0  0  0  0  0  0  0  0  0  0
  1  2  2  0
  2  3  1  0
  3  4  1  0
  4  5  1  0
  5  6  1  0
  6  7  1  0
  7  8  1  0
  8  9  1  0
  9 10  2  0
  9 11  2  0
  9 12  1  0
 12 13  2  0
 13 14  1  0
 14 15  2  0
 15 16  1  0
 16 17  2  0
 16 18  1  0
 18 19  1  0
 19 20  1  0
 20 21  1  0
  8 22  1  0
 22 23  1  0
  4 24  2  0
 24 25  1  0
 25 26  2  0
 26 27  1  0
 27 28  2  0
 28 29  1  0
 29 30  1  0
 30 31  1  0
 31 32  2  0
 32 33  1  0
 33 34  2  0
 34 35  1  0
 34 36  1  0
 36 37  2  0
 26  2  1  0
 37 31  1  0
 23  5  1  0
 29 25  1  0
 17 12  1  0
 21 15  1  0
  3 38  1  0
  5 39  1  0
  6 40  1  0
  6 41  1  0
  7 42  1  0
  7 43  1  0
 13 44  1  0
 14 45  1  0
 17 46  1  0
 19 47  1  0
 19 48  1  0
 20 49  1  0
 20 50  1  0
 22 51  1  0
 22 52  1  0
 23 53  1  0
 23 54  1  0
 30 55  1  0
 30 56  1  0
 32 57  1  0
 33 58  1  0
 36 59  1  0
 37 60  1  0
M  END
$$$$
