
     RDKit          3D

 21 21  0  0  0  0  0  0  0  0999 V2000
    3.0881   -0.2584   -0.3071 C   0  0  0  0  0  0  0  0  0  0  0  0
    1.6084   -0.0052   -0.2088 C   0  0  0  0  0  0  0  0  0  0  0  0
    1.1113    1.2458   -0.5846 C   0  0  0  0  0  0  0  0  0  0  0  0
   -0.2476    1.4995   -0.4856 C   0  0  0  0  0  0  0  0  0  0  0  0
   -0.7143    2.7011   -0.9491 O   0  0  0  0  0  0  0  0  0  0  0  0
   -1.1526    0.5610    0.0361 C   0  0  0  0  0  0  0  0  0  0  0  0
   -2.5200    0.9246    0.1013 N   0  0  0  0  0  0  0  0  0  0  0  0
   -0.6937   -0.7430    0.3008 C   0  0  0  0  0  0  0  0  0  0  0  0
   -1.6521   -1.8241    0.7335 C   0  0  0  0  0  0  0  0  0  0  0  0
    0.7002   -0.9972    0.2223 C   0  0  0  0  0  0  0  0  0  0  0  0
    1.3254   -2.5569    0.6768 Cl  0  0  0  0  0  0  0  0  0  0  0  0
    3.2925   -1.0513   -1.0337 H   0  0  0  0  0  0  0  0  0  0  0  0
    3.6270    0.6362   -0.6379 H   0  0  0  0  0  0  0  0  0  0  0  0
    3.4952   -0.5379    0.6699 H   0  0  0  0  0  0  0  0  0  0  0  0
    1.7697    2.0202   -0.9690 H   0  0  0  0  0  0  0  0  0  0  0  0
   -1.6354    2.5141   -1.2136 H   0  0  0  0  0  0  0  0  0  0  0  0
   -3.0599    0.3146    0.7089 H   0  0  0  0  0  0  0  0  0  0  0  0
   -2.6208    1.8861    0.4265 H   0  0  0  0  0  0  0  0  0  0  0  0
   -1.7320   -1.8387    1.8247 H   0  0  0  0  0  0  0  0  0  0  0  0
   -2.6492   -1.6784    0.3065 H   0  0  0  0  0  0  0  0  0  0  0  0
   -1.3402   -2.8122    0.3820 H   0  0  0  0  0  0  0  0  0  0  0  0
  1  2  1  0
  2  3  2  0
  3  4  1  0
  4  5  1  0
  4  6  2  0
  6  7  1  0
  6  8  1  0
  8  9  1  0
  8 10  2  0
 10 11  1  0
 10  2  1  0
  1 12  1  0
  1 13  1  0
  1 14  1  0
  3 15  1  0
  5 16  1  0
  7 17  1  0
  7 18  1  0
  9 19  1  0
  9 20  1  0
  9 21  1  0
M  END
$$$$
