
     RDKit          3D

 24 24  0  0  0  0  0  0  0  0999 V2000
   -4.6728   -1.0815   -0.3860 C   0  0  0  0  0  0  0  0  0  0  0  0
   -3.4348   -0.3257   -0.4394 N   0  0  0  0  0  0  0  0  0  0  0  0
   -2.2798   -0.6264    0.2802 C   0  0  0  0  0  0  0  0  0  0  0  0
   -2.1862   -1.8542    1.4106 S   0  0  0  0  0  0  0  0  0  0  0  0
   -1.2937    0.2929   -0.0565 N   0  0  0  0  0  0  0  0  0  0  0  0
    0.1007    0.2911    0.1669 C   0  0  0  0  0  0  0  0  0  0  0  0
    0.8612   -0.8560    0.3880 C   0  0  0  0  0  0  0  0  0  0  0  0
    2.2472   -0.7692    0.5694 C   0  0  0  0  0  0  0  0  0  0  0  0
    2.8971    0.4676    0.5275 C   0  0  0  0  0  0  0  0  0  0  0  0
    4.3850    0.5521    0.6920 C   0  0  0  0  0  0  0  0  0  0  0  0
    2.1435    1.6140    0.2654 C   0  0  0  0  0  0  0  0  0  0  0  0
    0.7594    1.5246    0.0839 C   0  0  0  0  0  0  0  0  0  0  0  0
   -5.4240   -0.5468   -0.9725 H   0  0  0  0  0  0  0  0  0  0  0  0
   -5.0157   -1.1728    0.6476 H   0  0  0  0  0  0  0  0  0  0  0  0
   -4.5078   -2.0726   -0.8168 H   0  0  0  0  0  0  0  0  0  0  0  0
   -3.2678    0.1574   -1.3118 H   0  0  0  0  0  0  0  0  0  0  0  0
   -1.6735    1.1848   -0.3450 H   0  0  0  0  0  0  0  0  0  0  0  0
    0.4158   -1.8444    0.3903 H   0  0  0  0  0  0  0  0  0  0  0  0
    2.8140   -1.6826    0.7376 H   0  0  0  0  0  0  0  0  0  0  0  0
    4.7492   -0.2345    1.3613 H   0  0  0  0  0  0  0  0  0  0  0  0
    4.8759    0.4451   -0.2802 H   0  0  0  0  0  0  0  0  0  0  0  0
    4.6754    1.5121    1.1316 H   0  0  0  0  0  0  0  0  0  0  0  0
    2.6267    2.5864    0.2025 H   0  0  0  0  0  0  0  0  0  0  0  0
    0.2048    2.4388   -0.1098 H   0  0  0  0  0  0  0  0  0  0  0  0
  1  2  1  0
  2  3  1  0
  3  4  2  0
  3  5  1  0
  5  6  1  0
  6  7  2  0
  7  8  1  0
  8  9  2  0
  9 10  1  0
  9 11  1  0
 11 12  2  0
 12  6  1  0
  1 13  1  0
  1 14  1  0
  1 15  1  0
  2 16  1  0
  5 17  1  0
  7 18  1  0
  8 19  1  0
 10 20  1  0
 10 21  1  0
 10 22  1  0
 11 23  1  0
 12 24  1  0
M  END
$$$$
