
     RDKit          3D

 35 37  0  0  0  0  0  0  0  0999 V2000
   -3.2320    1.6262   -0.0452 C   0  0  0  0  0  0  0  0  0  0  0  0
   -4.0218    0.3476   -0.0272 C   0  0  0  0  0  0  0  0  0  0  0  0
   -5.4045    0.3759   -0.2543 C   0  0  0  0  0  0  0  0  0  0  0  0
   -6.1527   -0.8012   -0.2285 C   0  0  0  0  0  0  0  0  0  0  0  0
   -5.5288   -2.0177    0.0309 C   0  0  0  0  0  0  0  0  0  0  0  0
   -4.1536   -2.0596    0.2598 C   0  0  0  0  0  0  0  0  0  0  0  0
   -3.3967   -0.8848    0.2127 C   0  0  0  0  0  0  0  0  0  0  0  0
   -2.0477   -0.8571    0.4540 O   0  0  0  0  0  0  0  0  0  0  0  0
   -1.3185   -1.9427   -0.1196 C   0  0  0  0  0  0  0  0  0  0  0  0
    0.1774   -1.6154   -0.1792 C   0  0  0  0  0  0  0  0  0  0  0  0
    0.9660   -2.4036   -0.6945 O   0  0  0  0  0  0  0  0  0  0  0  0
    0.4775   -0.3996    0.3893 N   0  0  0  0  0  0  0  0  0  0  0  0
    1.7065    0.1953    0.4903 C   0  0  0  0  0  0  0  0  0  0  0  0
    1.8614    1.3922    1.0093 N   0  0  0  0  0  0  0  0  0  0  0  0
    3.1843    1.7920    1.0078 N   0  0  0  0  0  0  0  0  0  0  0  0
    3.9745    0.8729    0.4899 C   0  0  0  0  0  0  0  0  0  0  0  0
    5.3926    1.0457    0.3602 C   0  0  0  0  0  0  0  0  0  0  0  0
    6.1494    2.1634    0.6780 C   0  0  0  0  0  0  0  0  0  0  0  0
    7.4979    1.8674    0.3634 C   0  0  0  0  0  0  0  0  0  0  0  0
    7.4986    0.5865   -0.1263 C   0  0  0  0  0  0  0  0  0  0  0  0
    6.2399    0.0816   -0.1304 O   0  0  0  0  0  0  0  0  0  0  0  0
    3.1520   -0.5404   -0.0278 S   0  0  0  0  0  0  0  0  0  0  0  0
   -3.8534    2.4773   -0.3414 H   0  0  0  0  0  0  0  0  0  0  0  0
   -2.4080    1.5552   -0.7641 H   0  0  0  0  0  0  0  0  0  0  0  0
   -2.8270    1.8382    0.9501 H   0  0  0  0  0  0  0  0  0  0  0  0
   -5.9098    1.3181   -0.4606 H   0  0  0  0  0  0  0  0  0  0  0  0
   -7.2239   -0.7676   -0.4064 H   0  0  0  0  0  0  0  0  0  0  0  0
   -6.1157   -2.9310    0.0654 H   0  0  0  0  0  0  0  0  0  0  0  0
   -3.6998   -3.0157    0.4984 H   0  0  0  0  0  0  0  0  0  0  0  0
   -1.6482   -2.1272   -1.1496 H   0  0  0  0  0  0  0  0  0  0  0  0
   -1.4279   -2.8439    0.4938 H   0  0  0  0  0  0  0  0  0  0  0  0
   -0.2950    0.1514    0.7473 H   0  0  0  0  0  0  0  0  0  0  0  0
    5.7585    3.0861    1.0873 H   0  0  0  0  0  0  0  0  0  0  0  0
    8.3586    2.5096    0.4771 H   0  0  0  0  0  0  0  0  0  0  0  0
    8.2698   -0.0750   -0.4982 H   0  0  0  0  0  0  0  0  0  0  0  0
  1  2  1  0
  2  3  2  0
  3  4  1  0
  4  5  2  0
  5  6  1  0
  6  7  2  0
  7  8  1  0
  8  9  1  0
  9 10  1  0
 10 11  2  0
 10 12  1  0
 12 13  1  0
 13 14  2  0
 14 15  1  0
 15 16  2  0
 16 17  1  0
 17 18  2  0
 18 19  1  0
 19 20  2  0
 20 21  1  0
 16 22  1  0
  7  2  1  0
 22 13  1  0
 21 17  1  0
  1 23  1  0
  1 24  1  0
  1 25  1  0
  3 26  1  0
  4 27  1  0
  5 28  1  0
  6 29  1  0
  9 30  1  0
  9 31  1  0
 12 32  1  0
 18 33  1  0
 19 34  1  0
 20 35  1  0
M  END
$$$$
