
     RDKit          3D

 31 33  0  0  0  0  0  0  0  0999 V2000
   -1.0590   -2.8001   -4.5941 C   0  0  0  0  0  0  0  0  0  0  0  0
   -1.6132   -2.7468   -3.2619 N   0  0  0  0  0  0  0  0  0  0  0  0
   -2.6522   -3.4816   -2.7804 C   0  0  0  0  0  0  0  0  0  0  0  0
   -2.8092   -3.0834   -1.4779 C   0  0  0  0  0  0  0  0  0  0  0  0
   -4.0888   -3.7379   -0.2802 Br  0  0  0  0  0  0  0  0  0  0  0  0
   -1.8233   -2.0982   -1.2392 C   0  0  0  0  0  0  0  0  0  0  0  0
   -1.5323   -1.3283   -0.0118 C   0  0  0  0  0  0  0  0  0  0  0  0
   -2.1730   -1.4772    1.0202 O   0  0  0  0  0  0  0  0  0  0  0  0
   -0.4720   -0.4619   -0.2220 N   0  0  0  0  0  0  0  0  0  0  0  0
    0.1027    0.4244    0.6712 C   0  0  0  0  0  0  0  0  0  0  0  0
   -0.4811    0.5684    2.2830 S   0  0  0  0  0  0  0  0  0  0  0  0
    0.6586    1.7354    2.6311 C   0  0  0  0  0  0  0  0  0  0  0  0
    1.4805    2.0398    1.5835 C   0  0  0  0  0  0  0  0  0  0  0  0
    1.1700    1.2843    0.4300 C   0  0  0  0  0  0  0  0  0  0  0  0
    1.8551    1.3840   -0.8217 C   0  0  0  0  0  0  0  0  0  0  0  0
    2.4043    1.4573   -1.8415 N   0  0  0  0  0  0  0  0  0  0  0  0
    2.4639    3.0853    1.9629 C   0  0  0  0  0  0  0  0  0  0  0  0
    2.3309    3.1161    3.5188 C   0  0  0  0  0  0  0  0  0  0  0  0
    0.9394    2.5018    3.8667 C   0  0  0  0  0  0  0  0  0  0  0  0
   -1.0843   -1.8975   -2.3591 N   0  0  0  0  0  0  0  0  0  0  0  0
   -1.6061   -3.5374   -5.1866 H   0  0  0  0  0  0  0  0  0  0  0  0
   -1.1561   -1.8101   -5.0466 H   0  0  0  0  0  0  0  0  0  0  0  0
   -0.0074   -3.0877   -4.5176 H   0  0  0  0  0  0  0  0  0  0  0  0
   -3.1796   -4.2060   -3.3849 H   0  0  0  0  0  0  0  0  0  0  0  0
   -0.0941   -0.5141   -1.1678 H   0  0  0  0  0  0  0  0  0  0  0  0
    2.1789    4.0523    1.5354 H   0  0  0  0  0  0  0  0  0  0  0  0
    3.4850    2.8392    1.6587 H   0  0  0  0  0  0  0  0  0  0  0  0
    2.4542    4.1242    3.9265 H   0  0  0  0  0  0  0  0  0  0  0  0
    3.1174    2.4861    3.9553 H   0  0  0  0  0  0  0  0  0  0  0  0
    0.9946    1.8774    4.7625 H   0  0  0  0  0  0  0  0  0  0  0  0
    0.1963    3.2923    4.0124 H   0  0  0  0  0  0  0  0  0  0  0  0
  1  2  1  0
  2  3  1  0
  3  4  2  0
  4  5  1  0
  4  6  1  0
  6  7  1  0
  7  8  2  0
  7  9  1  0
  9 10  1  0
 10 11  1  0
 11 12  1  0
 12 13  2  0
 13 14  1  0
 14 15  1  0
 15 16  3  0
 13 17  1  0
 17 18  1  0
 18 19  1  0
  6 20  2  0
 20  2  1  0
 14 10  2  0
 19 12  1  0
  1 21  1  0
  1 22  1  0
  1 23  1  0
  3 24  1  0
  9 25  1  0
 17 26  1  0
 17 27  1  0
 18 28  1  0
 18 29  1  0
 19 30  1  0
 19 31  1  0
M  END
$$$$
