
     RDKit          3D

 33 35  0  0  0  0  0  0  0  0999 V2000
    6.0385   -0.5534    0.4534 C   0  0  0  0  0  0  0  0  0  0  0  0
    4.9744   -0.0248   -0.3284 O   0  0  0  0  0  0  0  0  0  0  0  0
    3.7030   -0.2672    0.1129 C   0  0  0  0  0  0  0  0  0  0  0  0
    3.3545   -0.9861    1.2556 C   0  0  0  0  0  0  0  0  0  0  0  0
    2.0073   -1.1652    1.5868 C   0  0  0  0  0  0  0  0  0  0  0  0
    1.0002   -0.6184    0.7824 C   0  0  0  0  0  0  0  0  0  0  0  0
    1.3403    0.1125   -0.3620 C   0  0  0  0  0  0  0  0  0  0  0  0
    2.6943    0.2724   -0.6924 C   0  0  0  0  0  0  0  0  0  0  0  0
    0.2689    0.6616   -1.2597 C   0  0  0  0  0  0  0  0  0  0  0  0
   -0.9704    1.0604   -0.4620 C   0  0  0  0  0  0  0  0  0  0  0  0
   -1.4689   -0.0654    0.4016 C   0  0  0  0  0  0  0  0  0  0  0  0
   -2.7397   -0.4621    0.6056 C   0  0  0  0  0  0  0  0  0  0  0  0
   -3.8949    0.1632    0.0572 C   0  0  0  0  0  0  0  0  0  0  0  0
   -5.1911   -0.3425    0.0057 C   0  0  0  0  0  0  0  0  0  0  0  0
   -6.0207    0.6280   -0.6031 C   0  0  0  0  0  0  0  0  0  0  0  0
   -5.2017    1.6885   -0.8887 C   0  0  0  0  0  0  0  0  0  0  0  0
   -3.9333    1.4245   -0.4949 O   0  0  0  0  0  0  0  0  0  0  0  0
   -0.4229   -0.8457    1.1483 C   0  0  0  0  0  0  0  0  0  0  0  0
   -0.7083   -1.6409    2.0386 O   0  0  0  0  0  0  0  0  0  0  0  0
    6.0401   -0.1231    1.4603 H   0  0  0  0  0  0  0  0  0  0  0  0
    5.9960   -1.6470    0.4898 H   0  0  0  0  0  0  0  0  0  0  0  0
    6.9794   -0.2729   -0.0298 H   0  0  0  0  0  0  0  0  0  0  0  0
    4.1014   -1.4261    1.9080 H   0  0  0  0  0  0  0  0  0  0  0  0
    1.7465   -1.7370    2.4757 H   0  0  0  0  0  0  0  0  0  0  0  0
    2.9763    0.8225   -1.5884 H   0  0  0  0  0  0  0  0  0  0  0  0
    0.6396    1.5433   -1.7963 H   0  0  0  0  0  0  0  0  0  0  0  0
    0.0136   -0.0984   -2.0088 H   0  0  0  0  0  0  0  0  0  0  0  0
   -0.7370    1.9168    0.1840 H   0  0  0  0  0  0  0  0  0  0  0  0
   -1.7173    1.3971   -1.1844 H   0  0  0  0  0  0  0  0  0  0  0  0
   -2.9337   -1.3201    1.2478 H   0  0  0  0  0  0  0  0  0  0  0  0
   -5.4953   -1.3138    0.3723 H   0  0  0  0  0  0  0  0  0  0  0  0
   -7.0808    0.5628   -0.8022 H   0  0  0  0  0  0  0  0  0  0  0  0
   -5.3584    2.6563   -1.3437 H   0  0  0  0  0  0  0  0  0  0  0  0
  1  2  1  0
  2  3  1  0
  3  4  2  0
  4  5  1  0
  5  6  2  0
  6  7  1  0
  7  8  2  0
  7  9  1  0
  9 10  1  0
 10 11  1  0
 11 12  2  3
 12 13  1  0
 13 14  2  0
 14 15  1  0
 15 16  2  0
 16 17  1  0
 11 18  1  0
 18 19  2  0
  8  3  1  0
 17 13  1  0
 18  6  1  0
  1 20  1  0
  1 21  1  0
  1 22  1  0
  4 23  1  0
  5 24  1  0
  8 25  1  0
  9 26  1  0
  9 27  1  0
 10 28  1  0
 10 29  1  0
 12 30  1  0
 14 31  1  0
 15 32  1  0
 16 33  1  0
M  END
$$$$
