
     RDKit          3D

 44 46  0  0  0  0  0  0  0  0999 V2000
   -6.8679    1.1927    0.3522 C   0  0  0  0  0  0  0  0  0  0  0  0
   -5.4441    0.8272    0.0501 C   0  0  0  0  0  0  0  0  0  0  0  0
   -5.0899   -0.5090   -0.1737 C   0  0  0  0  0  0  0  0  0  0  0  0
   -3.7590   -0.8715   -0.4254 C   0  0  0  0  0  0  0  0  0  0  0  0
   -3.4218   -2.3155   -0.6634 C   0  0  0  0  0  0  0  0  0  0  0  0
   -2.7865    0.1380   -0.4834 C   0  0  0  0  0  0  0  0  0  0  0  0
   -1.4817   -0.1923   -0.7515 O   0  0  0  0  0  0  0  0  0  0  0  0
   -1.2388   -0.1462   -2.1621 C   0  0  0  0  0  0  0  0  0  0  0  0
    0.2567   -0.2699   -2.4661 C   0  0  0  0  0  0  0  0  0  0  0  0
    0.6466   -0.3320   -3.6288 O   0  0  0  0  0  0  0  0  0  0  0  0
    1.0287   -0.2876   -1.3286 N   0  0  0  0  0  0  0  0  0  0  0  0
    2.3906   -0.3646   -1.2357 C   0  0  0  0  0  0  0  0  0  0  0  0
    2.9862   -0.3838   -0.0689 N   0  0  0  0  0  0  0  0  0  0  0  0
    4.3656   -0.4559   -0.2353 C   0  0  0  0  0  0  0  0  0  0  0  0
    5.2803   -0.4768    0.9064 C   0  0  0  0  0  0  0  0  0  0  0  0
    6.4999   -1.1501    0.8591 C   0  0  0  0  0  0  0  0  0  0  0  0
    7.3238   -1.1302    1.9833 C   0  0  0  0  0  0  0  0  0  0  0  0
    6.9103   -0.4451    3.1188 C   0  0  0  0  0  0  0  0  0  0  0  0
    5.6831    0.1934    3.0849 C   0  0  0  0  0  0  0  0  0  0  0  0
    4.8657    0.1931    2.0106 N   0  0  0  0  0  0  0  0  0  0  0  0
    4.7769   -0.4877   -1.5555 C   0  0  0  0  0  0  0  0  0  0  0  0
    3.4132   -0.4371   -2.5935 S   0  0  0  0  0  0  0  0  0  0  0  0
   -3.1061    1.4743   -0.1951 C   0  0  0  0  0  0  0  0  0  0  0  0
   -2.0599    2.5521   -0.1899 C   0  0  0  0  0  0  0  0  0  0  0  0
   -4.4445    1.8076    0.0552 C   0  0  0  0  0  0  0  0  0  0  0  0
   -7.5608    0.5351   -0.1834 H   0  0  0  0  0  0  0  0  0  0  0  0
   -7.0844    2.2182    0.0353 H   0  0  0  0  0  0  0  0  0  0  0  0
   -7.0562    1.1072    1.4269 H   0  0  0  0  0  0  0  0  0  0  0  0
   -5.8603   -1.2778   -0.1455 H   0  0  0  0  0  0  0  0  0  0  0  0
   -2.4277   -2.5597   -0.2752 H   0  0  0  0  0  0  0  0  0  0  0  0
   -3.4542   -2.5380   -1.7341 H   0  0  0  0  0  0  0  0  0  0  0  0
   -4.1321   -2.9727   -0.1502 H   0  0  0  0  0  0  0  0  0  0  0  0
   -1.5776    0.8038   -2.5930 H   0  0  0  0  0  0  0  0  0  0  0  0
   -1.7435   -0.9844   -2.6556 H   0  0  0  0  0  0  0  0  0  0  0  0
    0.5538   -0.2461   -0.4328 H   0  0  0  0  0  0  0  0  0  0  0  0
    6.8111   -1.6994   -0.0225 H   0  0  0  0  0  0  0  0  0  0  0  0
    8.2773   -1.6506    1.9736 H   0  0  0  0  0  0  0  0  0  0  0  0
    7.5260   -0.4130    4.0106 H   0  0  0  0  0  0  0  0  0  0  0  0
    5.3105    0.7392    3.9470 H   0  0  0  0  0  0  0  0  0  0  0  0
    5.7767   -0.5235   -1.9621 H   0  0  0  0  0  0  0  0  0  0  0  0
   -1.1311    2.1947    0.2664 H   0  0  0  0  0  0  0  0  0  0  0  0
   -2.3886    3.4184    0.3939 H   0  0  0  0  0  0  0  0  0  0  0  0
   -1.8548    2.8828   -1.2125 H   0  0  0  0  0  0  0  0  0  0  0  0
   -4.7117    2.8427    0.2610 H   0  0  0  0  0  0  0  0  0  0  0  0
  1  2  1  0
  2  3  2  0
  3  4  1  0
  4  5  1  0
  4  6  2  0
  6  7  1  0
  7  8  1  0
  8  9  1  0
  9 10  2  0
  9 11  1  0
 11 12  1  0
 12 13  2  0
 13 14  1  0
 14 15  1  0
 15 16  2  0
 16 17  1  0
 17 18  2  0
 18 19  1  0
 19 20  2  0
 14 21  2  0
 21 22  1  0
  6 23  1  0
 23 24  1  0
 23 25  2  0
 25  2  1  0
 22 12  1  0
 20 15  1  0
  1 26  1  0
  1 27  1  0
  1 28  1  0
  3 29  1  0
  5 30  1  0
  5 31  1  0
  5 32  1  0
  8 33  1  0
  8 34  1  0
 11 35  1  0
 16 36  1  0
 17 37  1  0
 18 38  1  0
 19 39  1  0
 21 40  1  0
 24 41  1  0
 24 42  1  0
 24 43  1  0
 25 44  1  0
M  END
$$$$
