
     RDKit          3D

 27 27  0  0  0  0  0  0  0  0999 V2000
    0.1541   -0.0809   -2.2187 C   0  0  0  0  0  0  0  0  0  0  0  0
   -0.9617   -0.4945   -1.2505 C   0  0  0  0  0  0  0  0  0  0  0  0
   -1.5217   -1.8525   -1.7369 C   0  0  0  0  0  0  0  0  0  0  0  0
   -2.1254    0.5067   -1.2739 C   0  0  0  0  0  0  0  0  0  0  0  0
   -0.3325   -0.7516    0.4300 S   0  0  0  0  0  6  0  0  0  0  0  0
   -1.4497   -0.7768    1.3513 O   0  0  0  0  0  0  0  0  0  0  0  0
    0.6541   -1.8137    0.3721 O   0  0  0  0  0  0  0  0  0  0  0  0
    0.6041    0.6055    0.9944 C   0  0  0  0  0  0  0  0  0  0  0  0
    0.5828    1.9351    0.4721 C   0  0  0  0  0  0  0  0  0  0  0  0
    1.4699    2.7675    1.1174 C   0  0  0  0  0  0  0  0  0  0  0  0
    2.3085    1.9647    2.3626 S   0  0  0  0  0  0  0  0  0  0  0  0
    1.4720    0.4914    2.0749 C   0  0  0  0  0  0  0  0  0  0  0  0
    1.6927   -0.6472    2.9417 C   0  0  0  0  0  0  0  0  0  0  0  0
    0.8986   -1.5181    3.2619 O   0  0  0  0  0  0  0  0  0  0  0  0
    2.9533   -0.6926    3.4314 O   0  0  0  0  0  0  0  0  0  0  0  0
   -0.2114   -0.0645   -3.2522 H   0  0  0  0  0  0  0  0  0  0  0  0
    0.5469    0.9153   -2.0092 H   0  0  0  0  0  0  0  0  0  0  0  0
    0.9971   -0.7795   -2.1779 H   0  0  0  0  0  0  0  0  0  0  0  0
   -0.7378   -2.6170   -1.7818 H   0  0  0  0  0  0  0  0  0  0  0  0
   -1.9573   -1.7671   -2.7389 H   0  0  0  0  0  0  0  0  0  0  0  0
   -2.3023   -2.2248   -1.0634 H   0  0  0  0  0  0  0  0  0  0  0  0
   -1.8472    1.4927   -0.9023 H   0  0  0  0  0  0  0  0  0  0  0  0
   -2.5063    0.6396   -2.2931 H   0  0  0  0  0  0  0  0  0  0  0  0
   -2.9615    0.1595   -0.6560 H   0  0  0  0  0  0  0  0  0  0  0  0
   -0.0258    2.3009   -0.3407 H   0  0  0  0  0  0  0  0  0  0  0  0
    1.6642    3.8131    0.9170 H   0  0  0  0  0  0  0  0  0  0  0  0
    2.9424   -1.5112    3.9687 H   0  0  0  0  0  0  0  0  0  0  0  0
  1  2  1  0
  2  3  1  0
  2  4  1  0
  2  5  1  0
  5  6  2  0
  5  7  2  0
  5  8  1  0
  8  9  1  0
  9 10  2  0
 10 11  1  0
 11 12  1  0
 12 13  1  0
 13 14  2  0
 13 15  1  0
 12  8  2  0
  1 16  1  0
  1 17  1  0
  1 18  1  0
  3 19  1  0
  3 20  1  0
  3 21  1  0
  4 22  1  0
  4 23  1  0
  4 24  1  0
  9 25  1  0
 10 26  1  0
 15 27  1  0
M  END
$$$$
