
     RDKit          3D

 54 57  0  0  0  0  0  0  0  0999 V2000
   -6.1554    2.7516   -0.9999 C   0  0  0  0  0  0  0  0  0  0  0  0
   -4.7465    2.2719   -1.1858 C   0  0  0  0  0  0  0  0  0  0  0  0
   -3.6657    3.1046   -0.8932 C   0  0  0  0  0  0  0  0  0  0  0  0
   -2.3410    2.6664   -1.0800 C   0  0  0  0  0  0  0  0  0  0  0  0
   -1.2295    3.6158   -0.6945 C   0  0  0  0  0  0  0  0  0  0  0  0
   -2.0906    1.3568   -1.5874 C   0  0  0  0  0  0  0  0  0  0  0  0
   -0.7334    0.9753   -1.7636 N   0  0  0  0  0  0  0  0  0  0  0  0
   -0.1825   -0.2764   -1.5177 C   0  0  0  0  0  0  0  0  0  0  0  0
   -0.7695   -1.2552   -1.0571 O   0  0  0  0  0  0  0  0  0  0  0  0
    1.3049   -0.3526   -1.8914 C   0  0  0  0  0  0  0  0  0  0  0  0
    2.0867   -0.8918   -0.7760 N   0  0  0  0  0  0  0  0  0  0  0  0
    2.5075    0.0370    0.1794 C   0  0  0  0  0  0  0  0  0  0  0  0
    2.2435    1.2430    0.0429 O   0  0  0  0  0  0  0  0  0  0  0  0
    3.2433   -0.4512    1.2521 N   0  0  0  0  0  0  0  0  0  0  0  0
    3.6779    0.5020    2.2711 C   0  0  0  0  0  0  0  0  0  0  0  0
    2.6802    0.5446    3.3783 C   0  0  0  0  0  0  0  0  0  0  0  0
    2.4399   -0.2772    4.4629 C   0  0  0  0  0  0  0  0  0  0  0  0
    1.3497    0.2985    5.1599 C   0  0  0  0  0  0  0  0  0  0  0  0
    0.9959    1.4335    4.4592 C   0  0  0  0  0  0  0  0  0  0  0  0
    1.7993    1.5942    3.3779 O   0  0  0  0  0  0  0  0  0  0  0  0
    3.6025   -1.7850    1.4279 C   0  0  0  0  0  0  0  0  0  0  0  0
    4.3166   -2.1894    2.3502 O   0  0  0  0  0  0  0  0  0  0  0  0
    3.0882   -2.7523    0.4369 C   0  0  0  0  0  0  0  0  0  0  0  0
    3.3746   -4.1218    0.5943 C   0  0  0  0  0  0  0  0  0  0  0  0
    2.8842   -5.0479   -0.3249 C   0  0  0  0  0  0  0  0  0  0  0  0
    2.0986   -4.6074   -1.3903 C   0  0  0  0  0  0  0  0  0  0  0  0
    1.8151   -3.2434   -1.5421 C   0  0  0  0  0  0  0  0  0  0  0  0
    2.3200   -2.2914   -0.6372 C   0  0  0  0  0  0  0  0  0  0  0  0
   -3.1821    0.5376   -1.9507 C   0  0  0  0  0  0  0  0  0  0  0  0
   -3.0628   -0.8121   -2.6122 C   0  0  0  0  0  0  0  0  0  0  0  0
   -4.4940    1.0033   -1.7166 C   0  0  0  0  0  0  0  0  0  0  0  0
   -6.5447    3.1423   -1.9453 H   0  0  0  0  0  0  0  0  0  0  0  0
   -6.2117    3.5443   -0.2376 H   0  0  0  0  0  0  0  0  0  0  0  0
   -6.7961    1.9324   -0.6601 H   0  0  0  0  0  0  0  0  0  0  0  0
   -3.8552    4.1024   -0.5072 H   0  0  0  0  0  0  0  0  0  0  0  0
   -0.5751    3.1507    0.0549 H   0  0  0  0  0  0  0  0  0  0  0  0
   -1.6183    4.5450   -0.2563 H   0  0  0  0  0  0  0  0  0  0  0  0
   -0.6465    3.8918   -1.5810 H   0  0  0  0  0  0  0  0  0  0  0  0
   -0.0625    1.7383   -1.7152 H   0  0  0  0  0  0  0  0  0  0  0  0
    1.4237   -0.9499   -2.8054 H   0  0  0  0  0  0  0  0  0  0  0  0
    1.6839    0.6472   -2.1556 H   0  0  0  0  0  0  0  0  0  0  0  0
    3.8068    1.5034    1.8363 H   0  0  0  0  0  0  0  0  0  0  0  0
    4.6551    0.2015    2.6728 H   0  0  0  0  0  0  0  0  0  0  0  0
    2.9874   -1.1827    4.7117 H   0  0  0  0  0  0  0  0  0  0  0  0
    0.8800   -0.0679    6.0616 H   0  0  0  0  0  0  0  0  0  0  0  0
    0.2355    2.1940    4.5927 H   0  0  0  0  0  0  0  0  0  0  0  0
    3.9780   -4.4655    1.4380 H   0  0  0  0  0  0  0  0  0  0  0  0
    3.1022   -6.1071   -0.2056 H   0  0  0  0  0  0  0  0  0  0  0  0
    1.6953   -5.3242   -2.1029 H   0  0  0  0  0  0  0  0  0  0  0  0
    1.1695   -2.9664   -2.3724 H   0  0  0  0  0  0  0  0  0  0  0  0
   -3.9223   -1.0038   -3.2764 H   0  0  0  0  0  0  0  0  0  0  0  0
   -3.0458   -1.6020   -1.8566 H   0  0  0  0  0  0  0  0  0  0  0  0
   -2.1769   -0.8679   -3.2502 H   0  0  0  0  0  0  0  0  0  0  0  0
   -5.3382    0.3630   -1.9791 H   0  0  0  0  0  0  0  0  0  0  0  0
  1  2  1  0
  2  3  2  0
  3  4  1  0
  4  5  1  0
  4  6  2  0
  6  7  1  0
  7  8  1  0
  8  9  2  0
  8 10  1  0
 10 11  1  0
 11 12  1  0
 12 13  2  0
 12 14  1  0
 14 15  1  0
 15 16  1  0
 16 17  2  0
 17 18  1  0
 18 19  2  0
 19 20  1  0
 14 21  1  0
 21 22  2  0
 21 23  1  0
 23 24  2  0
 24 25  1  0
 25 26  2  0
 26 27  1  0
 27 28  2  0
  6 29  1  0
 29 30  1  0
 29 31  2  0
 31  2  1  0
 28 11  1  0
 20 16  1  0
 28 23  1  0
  1 32  1  0
  1 33  1  0
  1 34  1  0
  3 35  1  0
  5 36  1  0
  5 37  1  0
  5 38  1  0
  7 39  1  0
 10 40  1  0
 10 41  1  0
 15 42  1  0
 15 43  1  0
 17 44  1  0
 18 45  1  0
 19 46  1  0
 24 47  1  0
 25 48  1  0
 26 49  1  0
 27 50  1  0
 30 51  1  0
 30 52  1  0
 30 53  1  0
 31 54  1  0
M  END
$$$$
