
     RDKit          3D

 49 51  0  0  0  0  0  0  0  0999 V2000
    5.8060    3.6589   -1.8398 C   0  0  0  0  0  0  0  0  0  0  0  0
    4.6160    3.6815   -1.0649 O   0  0  0  0  0  0  0  0  0  0  0  0
    3.5245    3.0050   -1.5513 C   0  0  0  0  0  0  0  0  0  0  0  0
    3.5301    2.2365   -2.7226 C   0  0  0  0  0  0  0  0  0  0  0  0
    2.3737    1.5737   -3.1368 C   0  0  0  0  0  0  0  0  0  0  0  0
    1.2124    1.6756   -2.3709 C   0  0  0  0  0  0  0  0  0  0  0  0
   -0.2562    0.8295   -2.9001 S   0  0  0  0  0  6  0  0  0  0  0  0
   -0.2735    0.8773   -4.3473 O   0  0  0  0  0  0  0  0  0  0  0  0
   -1.3763    1.3148   -2.1234 O   0  0  0  0  0  0  0  0  0  0  0  0
    0.0771   -0.7773   -2.4838 N   0  0  0  0  0  0  0  0  0  0  0  0
   -0.1705   -1.1778   -1.1392 C   0  0  0  0  0  0  0  0  0  0  0  0
    0.7867   -0.9483   -0.1613 C   0  0  0  0  0  0  0  0  0  0  0  0
    0.5046   -1.2798    1.1593 C   0  0  0  0  0  0  0  0  0  0  0  0
   -0.7311   -1.8567    1.5076 C   0  0  0  0  0  0  0  0  0  0  0  0
   -1.7121   -2.0987    0.5191 C   0  0  0  0  0  0  0  0  0  0  0  0
   -1.4091   -1.7315   -0.8020 C   0  0  0  0  0  0  0  0  0  0  0  0
   -2.9906   -2.6644    0.8862 N   0  0  0  0  0  0  0  0  0  0  0  0
   -3.9316   -3.0899   -0.0647 C   0  0  0  0  0  0  0  0  0  0  0  0
   -5.3540   -3.2606    0.4219 C   0  0  0  0  0  0  0  0  0  0  0  0
   -3.6850   -3.3495   -1.2437 O   0  0  0  0  0  0  0  0  0  0  0  0
   -3.2819   -2.7593    2.3221 C   0  0  0  0  0  0  0  0  0  0  0  0
   -2.0724   -3.1827    3.1347 C   0  0  0  0  0  0  0  0  0  0  0  0
   -0.9723   -2.1571    2.9631 C   0  0  0  0  0  0  0  0  0  0  0  0
    1.1828    2.4522   -1.2085 C   0  0  0  0  0  0  0  0  0  0  0  0
    2.3397    3.1152   -0.7900 C   0  0  0  0  0  0  0  0  0  0  0  0
    2.4212    3.8842    0.3448 O   0  0  0  0  0  0  0  0  0  0  0  0
    1.2265    4.0983    1.0837 C   0  0  0  0  0  0  0  0  0  0  0  0
    6.5523    4.2712   -1.3245 H   0  0  0  0  0  0  0  0  0  0  0  0
    6.2065    2.6429   -1.9171 H   0  0  0  0  0  0  0  0  0  0  0  0
    5.6428    4.0975   -2.8298 H   0  0  0  0  0  0  0  0  0  0  0  0
    4.4200    2.1334   -3.3348 H   0  0  0  0  0  0  0  0  0  0  0  0
    2.3860    0.9816   -4.0494 H   0  0  0  0  0  0  0  0  0  0  0  0
   -0.2635   -1.4040   -3.2144 H   0  0  0  0  0  0  0  0  0  0  0  0
    1.7525   -0.5202   -0.4128 H   0  0  0  0  0  0  0  0  0  0  0  0
    1.2561   -1.0887    1.9232 H   0  0  0  0  0  0  0  0  0  0  0  0
   -2.1410   -1.8310   -1.5958 H   0  0  0  0  0  0  0  0  0  0  0  0
   -5.6375   -2.4576    1.1073 H   0  0  0  0  0  0  0  0  0  0  0  0
   -5.4703   -4.2368    0.8990 H   0  0  0  0  0  0  0  0  0  0  0  0
   -6.0325   -3.2083   -0.4358 H   0  0  0  0  0  0  0  0  0  0  0  0
   -4.0716   -3.4937    2.5037 H   0  0  0  0  0  0  0  0  0  0  0  0
   -3.6595   -1.7825    2.6487 H   0  0  0  0  0  0  0  0  0  0  0  0
   -2.3368   -3.2751    4.1938 H   0  0  0  0  0  0  0  0  0  0  0  0
   -1.7252   -4.1676    2.7967 H   0  0  0  0  0  0  0  0  0  0  0  0
   -0.0565   -2.5372    3.4312 H   0  0  0  0  0  0  0  0  0  0  0  0
   -1.2446   -1.2236    3.4710 H   0  0  0  0  0  0  0  0  0  0  0  0
    0.2577    2.5142   -0.6443 H   0  0  0  0  0  0  0  0  0  0  0  0
    0.8518    3.1600    1.5057 H   0  0  0  0  0  0  0  0  0  0  0  0
    1.4645    4.7654    1.9178 H   0  0  0  0  0  0  0  0  0  0  0  0
    0.4640    4.5910    0.4714 H   0  0  0  0  0  0  0  0  0  0  0  0
  1  2  1  0
  2  3  1  0
  3  4  2  0
  4  5  1  0
  5  6  2  0
  6  7  1  0
  7  8  2  0
  7  9  2  0
  7 10  1  0
 10 11  1  0
 11 12  2  0
 12 13  1  0
 13 14  2  0
 14 15  1  0
 15 16  2  0
 15 17  1  0
 17 18  1  0
 18 19  1  0
 18 20  2  0
 17 21  1  0
 21 22  1  0
 22 23  1  0
  6 24  1  0
 24 25  2  0
 25 26  1  0
 26 27  1  0
 25  3  1  0
 16 11  1  0
 23 14  1  0
  1 28  1  0
  1 29  1  0
  1 30  1  0
  4 31  1  0
  5 32  1  0
 10 33  1  0
 12 34  1  0
 13 35  1  0
 16 36  1  0
 19 37  1  0
 19 38  1  0
 19 39  1  0
 21 40  1  0
 21 41  1  0
 22 42  1  0
 22 43  1  0
 23 44  1  0
 23 45  1  0
 24 46  1  0
 27 47  1  0
 27 48  1  0
 27 49  1  0
M  END
$$$$
