
     RDKit          3D

 60 65  0  0  0  0  0  0  0  0999 V2000
    4.1325    1.0914   -3.6752 C   0  0  0  0  0  0  0  0  0  0  0  0
    4.6279   -0.1434   -3.0244 C   0  0  0  0  0  0  0  0  0  0  0  0
    5.9337   -0.2811   -2.7616 N   0  0  0  0  0  0  0  0  0  0  0  0
    6.0755   -1.5433   -2.2116 O   0  0  0  0  0  0  0  0  0  0  0  0
    4.8583   -2.1423   -2.1289 C   0  0  0  0  0  0  0  0  0  0  0  0
    4.8285   -3.5112   -1.5820 C   0  0  0  0  0  0  0  0  0  0  0  0
    3.8943   -1.2799   -2.5996 C   0  0  0  0  0  0  0  0  0  0  0  0
    2.4803   -1.5547   -2.6810 C   0  0  0  0  0  0  0  0  0  0  0  0
    2.0455   -2.3149   -3.5416 O   0  0  0  0  0  0  0  0  0  0  0  0
    1.6566   -0.9331   -1.7381 N   0  0  0  0  0  0  0  0  0  0  0  0
    0.2316   -1.2404   -1.7446 C   0  0  0  0  0  0  0  0  0  0  0  0
   -0.2755   -1.5533   -0.3398 C   0  0  0  0  0  0  0  0  0  0  0  0
    0.0025   -0.4111    0.6786 C   0  0  0  0  0  0  0  0  0  0  0  0
    1.0353    0.5996    0.1110 C   0  0  0  0  0  0  0  0  0  0  0  0
    2.1598   -0.1143   -0.6332 C   0  0  0  0  0  0  0  0  0  0  0  0
    0.7149   -0.9952    1.8064 O   0  0  0  0  0  0  0  0  0  0  0  0
   -0.0180   -1.6072    2.7783 C   0  0  0  0  0  0  0  0  0  0  0  0
    0.7006   -2.3893    3.6850 C   0  0  0  0  0  0  0  0  0  0  0  0
    0.0325   -3.0743    4.7009 C   0  0  0  0  0  0  0  0  0  0  0  0
   -1.3502   -2.9672    4.8070 C   0  0  0  0  0  0  0  0  0  0  0  0
   -1.9887   -3.6279    5.7807 F   0  0  0  0  0  0  0  0  0  0  0  0
   -2.0768   -2.1828    3.9217 C   0  0  0  0  0  0  0  0  0  0  0  0
   -1.3978   -1.4958    2.9113 C   0  0  0  0  0  0  0  0  0  0  0  0
   -2.1317   -0.6433    1.9677 C   0  0  0  0  0  0  0  0  0  0  0  0
   -3.3523   -0.7470    1.8777 O   0  0  0  0  0  0  0  0  0  0  0  0
   -1.2911    0.3214    1.1379 C   0  0  0  0  0  0  0  0  0  0  0  0
   -2.1200    0.9365    0.0170 C   0  0  0  0  0  0  0  0  0  0  0  0
   -2.4878    2.2221    0.6757 C   0  0  0  0  0  0  0  0  0  0  0  0
   -3.5176    3.1303    0.1155 C   0  0  0  0  0  0  0  0  0  0  0  0
   -3.8172    4.3174    0.7985 C   0  0  0  0  0  0  0  0  0  0  0  0
   -4.7810    5.1974    0.2979 C   0  0  0  0  0  0  0  0  0  0  0  0
   -5.4466    4.8924   -0.8866 C   0  0  0  0  0  0  0  0  0  0  0  0
   -6.6346    5.9714   -1.5043 Cl  0  0  0  0  0  0  0  0  0  0  0  0
   -5.1550    3.7160   -1.5751 C   0  0  0  0  0  0  0  0  0  0  0  0
   -4.1901    2.8338   -1.0761 C   0  0  0  0  0  0  0  0  0  0  0  0
   -1.8128    2.4972    1.7456 N   0  0  0  0  0  0  0  0  0  0  0  0
   -0.9365    1.4202    1.9936 O   0  0  0  0  0  0  0  0  0  0  0  0
    4.1789    1.9344   -2.9778 H   0  0  0  0  0  0  0  0  0  0  0  0
    3.0947    0.9805   -4.0051 H   0  0  0  0  0  0  0  0  0  0  0  0
    4.7378    1.3360   -4.5545 H   0  0  0  0  0  0  0  0  0  0  0  0
    4.4819   -4.2186   -2.3417 H   0  0  0  0  0  0  0  0  0  0  0  0
    5.8210   -3.8312   -1.2489 H   0  0  0  0  0  0  0  0  0  0  0  0
    4.1505   -3.5666   -0.7241 H   0  0  0  0  0  0  0  0  0  0  0  0
    0.0136   -2.0866   -2.4042 H   0  0  0  0  0  0  0  0  0  0  0  0
   -0.2876   -0.3713   -2.1634 H   0  0  0  0  0  0  0  0  0  0  0  0
    0.2074   -2.4804   -0.0023 H   0  0  0  0  0  0  0  0  0  0  0  0
   -1.3467   -1.7774   -0.3988 H   0  0  0  0  0  0  0  0  0  0  0  0
    0.5658    1.3117   -0.5756 H   0  0  0  0  0  0  0  0  0  0  0  0
    1.4808    1.1865    0.9242 H   0  0  0  0  0  0  0  0  0  0  0  0
    2.8577    0.6314   -1.0238 H   0  0  0  0  0  0  0  0  0  0  0  0
    2.7207   -0.7725    0.0408 H   0  0  0  0  0  0  0  0  0  0  0  0
    1.7814   -2.4732    3.5954 H   0  0  0  0  0  0  0  0  0  0  0  0
    0.5796   -3.6905    5.4077 H   0  0  0  0  0  0  0  0  0  0  0  0
   -3.1548   -2.1063    4.0301 H   0  0  0  0  0  0  0  0  0  0  0  0
   -1.5438    1.1724   -0.8801 H   0  0  0  0  0  0  0  0  0  0  0  0
   -2.9922    0.3450   -0.2703 H   0  0  0  0  0  0  0  0  0  0  0  0
   -3.3049    4.5649    1.7265 H   0  0  0  0  0  0  0  0  0  0  0  0
   -5.0059    6.1135    0.8378 H   0  0  0  0  0  0  0  0  0  0  0  0
   -5.6772    3.4789   -2.4989 H   0  0  0  0  0  0  0  0  0  0  0  0
   -3.9878    1.9255   -1.6347 H   0  0  0  0  0  0  0  0  0  0  0  0
  1  2  1  0
  2  3  2  0
  3  4  1  0
  4  5  1  0
  5  6  1  0
  5  7  2  0
  7  8  1  0
  8  9  2  0
  8 10  1  0
 10 11  1  0
 11 12  1  0
 12 13  1  0
 13 14  1  0
 14 15  1  0
 13 16  1  0
 16 17  1  0
 17 18  2  0
 18 19  1  0
 19 20  2  0
 20 21  1  0
 20 22  1  0
 22 23  2  0
 23 24  1  0
 24 25  2  0
 24 26  1  0
 26 27  1  0
 27 28  1  0
 28 29  1  0
 29 30  2  0
 30 31  1  0
 31 32  2  0
 32 33  1  0
 32 34  1  0
 34 35  2  0
 28 36  2  0
 36 37  1  0
  7  2  1  0
 15 10  1  0
 23 17  1  0
 37 26  1  0
 26 13  1  0
 35 29  1  0
  1 38  1  0
  1 39  1  0
  1 40  1  0
  6 41  1  0
  6 42  1  0
  6 43  1  0
 11 44  1  0
 11 45  1  0
 12 46  1  0
 12 47  1  0
 14 48  1  0
 14 49  1  0
 15 50  1  0
 15 51  1  0
 18 52  1  0
 19 53  1  0
 22 54  1  0
 27 55  1  0
 27 56  1  0
 30 57  1  0
 31 58  1  0
 34 59  1  0
 35 60  1  0
M  END
$$$$
