
     RDKit          3D

 48 51  0  0  0  0  0  0  0  0999 V2000
    1.8658   -2.8093    2.2594 C   0  0  0  0  0  0  0  0  0  0  0  0
    1.8974   -1.8544    1.1101 C   0  0  0  0  0  0  0  0  0  0  0  0
    0.8916   -1.4923    0.2963 C   0  0  0  0  0  0  0  0  0  0  0  0
   -0.4150   -1.8640    0.1438 N   0  0  0  0  0  0  0  0  0  0  0  0
   -1.0897   -2.9526    0.6450 C   0  0  0  0  0  0  0  0  0  0  0  0
   -0.5920   -3.8515    1.3180 O   0  0  0  0  0  0  0  0  0  0  0  0
   -2.5503   -3.0150    0.2214 C   0  0  0  0  0  0  0  0  0  0  0  0
   -3.5533   -1.7955    1.1284 S   0  0  0  0  0  0  0  0  0  0  0  0
   -3.5214   -0.3817    0.0158 C   0  0  0  0  0  0  0  0  0  0  0  0
   -2.5268   -0.3777   -0.8972 N   0  0  0  0  0  0  0  0  0  0  0  0
   -2.4810    0.6889   -1.7060 C   0  0  0  0  0  0  0  0  0  0  0  0
   -3.3314    1.7194   -1.6976 N   0  0  0  0  0  0  0  0  0  0  0  0
   -4.3070    1.6984   -0.7846 C   0  0  0  0  0  0  0  0  0  0  0  0
   -5.1965    2.7657   -0.7498 C   0  0  0  0  0  0  0  0  0  0  0  0
   -6.2422    2.8303    0.1740 C   0  0  0  0  0  0  0  0  0  0  0  0
   -6.4116    1.8043    1.0915 C   0  0  0  0  0  0  0  0  0  0  0  0
   -5.5341    0.7221    1.0758 C   0  0  0  0  0  0  0  0  0  0  0  0
   -4.4681    0.6538    0.1356 C   0  0  0  0  0  0  0  0  0  0  0  0
    1.4525   -0.4136   -0.5834 C   0  0  0  0  0  0  0  0  0  0  0  0
    0.7724    0.1713   -1.4161 O   0  0  0  0  0  0  0  0  0  0  0  0
    2.7845   -0.2380   -0.2016 N   0  0  0  0  0  0  0  0  0  0  0  0
    3.5541    0.9382   -0.3970 C   0  0  0  0  0  0  0  0  0  0  0  0
    4.5844    1.2889    0.4895 C   0  0  0  0  0  0  0  0  0  0  0  0
    5.3425    2.4480    0.2953 C   0  0  0  0  0  0  0  0  0  0  0  0
    5.0808    3.2779   -0.7903 C   0  0  0  0  0  0  0  0  0  0  0  0
    4.0589    2.9513   -1.6766 C   0  0  0  0  0  0  0  0  0  0  0  0
    3.3007    1.7921   -1.4792 C   0  0  0  0  0  0  0  0  0  0  0  0
    3.0992   -1.1734    0.8263 N   0  0  0  0  0  0  0  0  0  0  0  0
    4.2807   -2.0024    0.5179 C   0  0  0  0  0  0  0  0  0  0  0  0
    2.6598   -2.5766    2.9782 H   0  0  0  0  0  0  0  0  0  0  0  0
    2.0159   -3.8368    1.9156 H   0  0  0  0  0  0  0  0  0  0  0  0
    0.9292   -2.7347    2.8186 H   0  0  0  0  0  0  0  0  0  0  0  0
   -0.9491   -1.2596   -0.4868 H   0  0  0  0  0  0  0  0  0  0  0  0
   -2.6447   -2.9214   -0.8649 H   0  0  0  0  0  0  0  0  0  0  0  0
   -2.9288   -4.0093    0.4833 H   0  0  0  0  0  0  0  0  0  0  0  0
   -1.6776    0.7224   -2.4358 H   0  0  0  0  0  0  0  0  0  0  0  0
   -5.0698    3.5771   -1.4639 H   0  0  0  0  0  0  0  0  0  0  0  0
   -6.9163    3.6829    0.1725 H   0  0  0  0  0  0  0  0  0  0  0  0
   -7.2200    1.8436    1.8171 H   0  0  0  0  0  0  0  0  0  0  0  0
   -5.6845   -0.0714    1.8050 H   0  0  0  0  0  0  0  0  0  0  0  0
    4.7915    0.6821    1.3666 H   0  0  0  0  0  0  0  0  0  0  0  0
    6.1298    2.7047    0.9993 H   0  0  0  0  0  0  0  0  0  0  0  0
    5.6667    4.1806   -0.9419 H   0  0  0  0  0  0  0  0  0  0  0  0
    3.8466    3.5969   -2.5250 H   0  0  0  0  0  0  0  0  0  0  0  0
    2.5212    1.5661   -2.2019 H   0  0  0  0  0  0  0  0  0  0  0  0
    4.5570   -2.6084    1.3871 H   0  0  0  0  0  0  0  0  0  0  0  0
    4.0758   -2.6738   -0.3242 H   0  0  0  0  0  0  0  0  0  0  0  0
    5.1521   -1.3935    0.2606 H   0  0  0  0  0  0  0  0  0  0  0  0
  1  2  1  0
  2  3  2  0
  3  4  1  0
  4  5  1  0
  5  6  2  0
  5  7  1  0
  7  8  1  0
  8  9  1  0
  9 10  2  0
 10 11  1  0
 11 12  2  0
 12 13  1  0
 13 14  2  0
 14 15  1  0
 15 16  2  0
 16 17  1  0
 17 18  2  0
  3 19  1  0
 19 20  2  0
 19 21  1  0
 21 22  1  0
 22 23  2  0
 23 24  1  0
 24 25  2  0
 25 26  1  0
 26 27  2  0
 21 28  1  0
 28 29  1  0
 28  2  1  0
 18  9  1  0
 27 22  1  0
 18 13  1  0
  1 30  1  0
  1 31  1  0
  1 32  1  0
  4 33  1  0
  7 34  1  0
  7 35  1  0
 11 36  1  0
 14 37  1  0
 15 38  1  0
 16 39  1  0
 17 40  1  0
 23 41  1  0
 24 42  1  0
 25 43  1  0
 26 44  1  0
 27 45  1  0
 29 46  1  0
 29 47  1  0
 29 48  1  0
M  END
$$$$
