
     RDKit          3D

 38 40  0  0  0  0  0  0  0  0999 V2000
   -4.7942    0.7410   -2.5351 C   0  0  0  0  0  0  0  0  0  0  0  0
   -4.0323    0.4599   -1.2728 C   0  0  0  0  0  0  0  0  0  0  0  0
   -4.2515    1.2358   -0.1261 C   0  0  0  0  0  0  0  0  0  0  0  0
   -3.5666    0.9579    1.0580 C   0  0  0  0  0  0  0  0  0  0  0  0
   -2.6584   -0.1035    1.0939 C   0  0  0  0  0  0  0  0  0  0  0  0
   -1.7901   -0.4615    2.6039 S   0  0  0  0  0  6  0  0  0  0  0  0
   -2.6017    0.0261    3.7001 O   0  0  0  0  0  0  0  0  0  0  0  0
   -1.3457   -1.8375    2.5564 O   0  0  0  0  0  0  0  0  0  0  0  0
   -0.4498    0.5669    2.5263 N   0  0  0  0  0  0  0  0  0  0  0  0
    0.3956    0.5284    1.3823 C   0  0  0  0  0  0  0  0  0  0  0  0
    0.4462    1.6432    0.5467 C   0  0  0  0  0  0  0  0  0  0  0  0
    1.2376    1.6122   -0.5999 C   0  0  0  0  0  0  0  0  0  0  0  0
    1.9821    0.4730   -0.9025 C   0  0  0  0  0  0  0  0  0  0  0  0
    2.7325    0.5409   -2.0440 O   0  0  0  0  0  0  0  0  0  0  0  0
    1.9406   -0.6578   -0.0743 C   0  0  0  0  0  0  0  0  0  0  0  0
    2.7723   -2.1958   -0.4418 S   0  0  0  0  0  0  0  0  0  0  0  0
    4.4488   -1.7404   -0.3732 C   0  0  0  0  0  0  0  0  0  0  0  0
    4.9771   -0.7648   -1.1813 N   0  0  0  0  0  0  0  0  0  0  0  0
    6.2450   -0.7588   -0.8391 C   0  0  0  0  0  0  0  0  0  0  0  0
    6.4620   -1.6977    0.1199 N   0  0  0  0  0  0  0  0  0  0  0  0
    5.3286   -2.3461    0.4273 N   0  0  0  0  0  0  0  0  0  0  0  0
    1.1350   -0.6157    1.0734 C   0  0  0  0  0  0  0  0  0  0  0  0
   -2.4567   -0.9076   -0.0305 C   0  0  0  0  0  0  0  0  0  0  0  0
   -3.1426   -0.6215   -1.2115 C   0  0  0  0  0  0  0  0  0  0  0  0
   -5.7323    0.1776   -2.5389 H   0  0  0  0  0  0  0  0  0  0  0  0
   -4.2076    0.4595   -3.4159 H   0  0  0  0  0  0  0  0  0  0  0  0
   -5.0214    1.8085   -2.6243 H   0  0  0  0  0  0  0  0  0  0  0  0
   -4.9629    2.0590   -0.1496 H   0  0  0  0  0  0  0  0  0  0  0  0
   -3.7525    1.5638    1.9416 H   0  0  0  0  0  0  0  0  0  0  0  0
   -0.6510    1.4755    2.9403 H   0  0  0  0  0  0  0  0  0  0  0  0
   -0.1343    2.5347    0.7649 H   0  0  0  0  0  0  0  0  0  0  0  0
    1.2772    2.4738   -1.2613 H   0  0  0  0  0  0  0  0  0  0  0  0
    3.4891   -0.0752   -1.9433 H   0  0  0  0  0  0  0  0  0  0  0  0
    7.0241   -0.1238   -1.2371 H   0  0  0  0  0  0  0  0  0  0  0  0
    7.3239   -1.9484    0.5921 H   0  0  0  0  0  0  0  0  0  0  0  0
    1.0840   -1.4815    1.7313 H   0  0  0  0  0  0  0  0  0  0  0  0
   -1.7699   -1.7507    0.0018 H   0  0  0  0  0  0  0  0  0  0  0  0
   -2.9801   -1.2497   -2.0853 H   0  0  0  0  0  0  0  0  0  0  0  0
  1  2  1  0
  2  3  2  0
  3  4  1  0
  4  5  2  0
  5  6  1  0
  6  7  2  0
  6  8  2  0
  6  9  1  0
  9 10  1  0
 10 11  2  0
 11 12  1  0
 12 13  2  0
 13 14  1  0
 13 15  1  0
 15 16  1  0
 16 17  1  0
 17 18  1  0
 18 19  2  0
 19 20  1  0
 20 21  1  0
 15 22  2  0
  5 23  1  0
 23 24  2  0
 24  2  1  0
 22 10  1  0
 21 17  2  0
  1 25  1  0
  1 26  1  0
  1 27  1  0
  3 28  1  0
  4 29  1  0
  9 30  1  0
 11 31  1  0
 12 32  1  0
 14 33  1  0
 19 34  1  0
 20 35  1  0
 22 36  1  0
 23 37  1  0
 24 38  1  0
M  END
$$$$
