
     RDKit          3D

 61 65  0  0  0  0  0  0  0  0999 V2000
    6.4185   -4.2940    2.0441 C   0  0  0  0  0  0  0  0  0  0  0  0
    5.1979   -3.5013    1.6778 C   0  0  0  0  0  0  0  0  0  0  0  0
    4.3453   -3.9388    0.6610 C   0  0  0  0  0  0  0  0  0  0  0  0
    3.2246   -3.1836    0.3001 C   0  0  0  0  0  0  0  0  0  0  0  0
    2.9337   -1.9669    0.9382 C   0  0  0  0  0  0  0  0  0  0  0  0
    1.7545   -1.1745    0.5590 C   0  0  0  0  0  0  0  0  0  0  0  0
    1.8579    0.1779    0.2422 C   0  0  0  0  0  0  0  0  0  0  0  0
    0.7296    0.9294   -0.1154 C   0  0  0  0  0  0  0  0  0  0  0  0
    0.8538    2.3594   -0.4144 C   0  0  0  0  0  0  0  0  0  0  0  0
    1.2897    2.7919   -1.6777 C   0  0  0  0  0  0  0  0  0  0  0  0
    1.4075    4.1544   -1.9645 C   0  0  0  0  0  0  0  0  0  0  0  0
    1.1128    5.1118   -0.9890 C   0  0  0  0  0  0  0  0  0  0  0  0
    1.2132    6.5783   -1.2961 C   0  0  0  0  0  0  0  0  0  0  0  0
    0.6878    4.6887    0.2745 C   0  0  0  0  0  0  0  0  0  0  0  0
    0.5691    3.3270    0.5632 C   0  0  0  0  0  0  0  0  0  0  0  0
   -0.5047    0.3409   -0.1670 N   0  0  0  0  0  4  0  0  0  0  0  0
   -1.6616    1.1164   -0.5448 C   0  0  0  0  0  0  0  0  0  0  0  0
   -2.5075    1.5962    0.4571 C   0  0  0  0  0  0  0  0  0  0  0  0
   -3.6200    2.3469    0.0841 C   0  0  0  0  0  0  0  0  0  0  0  0
   -3.8685    2.6045   -1.2677 C   0  0  0  0  0  0  0  0  0  0  0  0
   -3.0097    2.1149   -2.2568 C   0  0  0  0  0  0  0  0  0  0  0  0
   -1.8933    1.3625   -1.8996 C   0  0  0  0  0  0  0  0  0  0  0  0
   -0.6372   -0.9862    0.1382 C   0  0  0  0  0  0  0  0  0  0  0  0
   -1.9614   -1.6104    0.0621 C   0  0  0  0  0  0  0  0  0  0  0  0
   -2.7223   -1.8169    1.2249 C   0  0  0  0  0  0  0  0  0  0  0  0
   -3.9821   -2.4169    1.1559 C   0  0  0  0  0  0  0  0  0  0  0  0
   -4.5071   -2.8246   -0.0747 C   0  0  0  0  0  0  0  0  0  0  0  0
   -5.8457   -3.5020   -0.1402 C   0  0  0  0  0  0  0  0  0  0  0  0
   -3.7412   -2.6531   -1.2321 C   0  0  0  0  0  0  0  0  0  0  0  0
   -2.4810   -2.0534   -1.1655 C   0  0  0  0  0  0  0  0  0  0  0  0
    0.4847   -1.7441    0.5026 C   0  0  0  0  0  0  0  0  0  0  0  0
    3.8068   -1.5302    1.9477 C   0  0  0  0  0  0  0  0  0  0  0  0
    4.9273   -2.2849    2.3099 C   0  0  0  0  0  0  0  0  0  0  0  0
    7.2754   -3.9545    1.4542 H   0  0  0  0  0  0  0  0  0  0  0  0
    6.6520   -4.1804    3.1080 H   0  0  0  0  0  0  0  0  0  0  0  0
    6.2621   -5.3617    1.8582 H   0  0  0  0  0  0  0  0  0  0  0  0
    4.5495   -4.8729    0.1407 H   0  0  0  0  0  0  0  0  0  0  0  0
    2.5905   -3.5588   -0.5007 H   0  0  0  0  0  0  0  0  0  0  0  0
    2.8331    0.6669    0.2681 H   0  0  0  0  0  0  0  0  0  0  0  0
    1.5431    2.0763   -2.4590 H   0  0  0  0  0  0  0  0  0  0  0  0
    1.7383    4.4662   -2.9546 H   0  0  0  0  0  0  0  0  0  0  0  0
    0.2134    6.9967   -1.4511 H   0  0  0  0  0  0  0  0  0  0  0  0
    1.7013    7.1094   -0.4713 H   0  0  0  0  0  0  0  0  0  0  0  0
    1.8088    6.7565   -2.1982 H   0  0  0  0  0  0  0  0  0  0  0  0
    0.4530    5.4234    1.0442 H   0  0  0  0  0  0  0  0  0  0  0  0
    0.2532    3.0381    1.5645 H   0  0  0  0  0  0  0  0  0  0  0  0
   -2.3162    1.4029    1.5076 H   0  0  0  0  0  0  0  0  0  0  0  0
   -4.2998    2.7366    0.8403 H   0  0  0  0  0  0  0  0  0  0  0  0
   -4.7402    3.1928   -1.5533 H   0  0  0  0  0  0  0  0  0  0  0  0
   -3.2194    2.3259   -3.3043 H   0  0  0  0  0  0  0  0  0  0  0  0
   -1.2316    0.9817   -2.6709 H   0  0  0  0  0  0  0  0  0  0  0  0
   -2.3454   -1.5187    2.2027 H   0  0  0  0  0  0  0  0  0  0  0  0
   -4.5533   -2.5720    2.0709 H   0  0  0  0  0  0  0  0  0  0  0  0
   -6.3094   -3.3606   -1.1224 H   0  0  0  0  0  0  0  0  0  0  0  0
   -5.7310   -4.5748    0.0449 H   0  0  0  0  0  0  0  0  0  0  0  0
   -6.5297   -3.0824    0.6055 H   0  0  0  0  0  0  0  0  0  0  0  0
   -4.1225   -2.9935   -2.1944 H   0  0  0  0  0  0  0  0  0  0  0  0
   -1.9117   -1.9473   -2.0879 H   0  0  0  0  0  0  0  0  0  0  0  0
    0.3533   -2.7990    0.7495 H   0  0  0  0  0  0  0  0  0  0  0  0
    3.6243   -0.5978    2.4781 H   0  0  0  0  0  0  0  0  0  0  0  0
    5.5878   -1.9179    3.0937 H   0  0  0  0  0  0  0  0  0  0  0  0
  1  2  1  0
  2  3  2  0
  3  4  1  0
  4  5  2  0
  5  6  1  0
  6  7  2  0
  7  8  1  0
  8  9  1  0
  9 10  2  0
 10 11  1  0
 11 12  2  0
 12 13  1  0
 12 14  1  0
 14 15  2  0
  8 16  2  0
 16 17  1  0
 17 18  2  0
 18 19  1  0
 19 20  2  0
 20 21  1  0
 21 22  2  0
 16 23  1  0
 23 24  1  0
 24 25  2  0
 25 26  1  0
 26 27  2  0
 27 28  1  0
 27 29  1  0
 29 30  2  0
 23 31  2  0
  5 32  1  0
 32 33  2  0
 33  2  1  0
 31  6  1  0
 15  9  1  0
 22 17  1  0
 30 24  1  0
  1 34  1  0
  1 35  1  0
  1 36  1  0
  3 37  1  0
  4 38  1  0
  7 39  1  0
 10 40  1  0
 11 41  1  0
 13 42  1  0
 13 43  1  0
 13 44  1  0
 14 45  1  0
 15 46  1  0
 18 47  1  0
 19 48  1  0
 20 49  1  0
 21 50  1  0
 22 51  1  0
 25 52  1  0
 26 53  1  0
 28 54  1  0
 28 55  1  0
 28 56  1  0
 29 57  1  0
 30 58  1  0
 31 59  1  0
 32 60  1  0
 33 61  1  0
M  CHG  1  16   1
M  END
$$$$
