
     RDKit          3D

 54 57  0  0  0  0  0  0  0  0999 V2000
    0.6986   -2.3769   -2.0621 O   0  0  0  0  0  0  0  0  0  0  0  0
   -0.3034   -1.6999   -1.8531 C   0  0  0  0  0  0  0  0  0  0  0  0
   -1.7057   -2.3032   -1.9935 C   0  0  0  0  0  0  0  0  0  0  0  0
   -2.7290   -1.5776   -1.3033 O   0  0  0  0  0  0  0  0  0  0  0  0
   -2.8274   -1.8596    0.0206 C   0  0  0  0  0  0  0  0  0  0  0  0
   -2.0995   -2.6146    0.6419 O   0  0  0  0  0  0  0  0  0  0  0  0
   -3.9323   -1.0825    0.6426 C   0  0  0  0  0  0  0  0  0  0  0  0
   -4.0980   -1.1672    2.0334 C   0  0  0  0  0  0  0  0  0  0  0  0
   -5.1123   -0.4465    2.6686 C   0  0  0  0  0  0  0  0  0  0  0  0
   -5.9621    0.3619    1.9179 C   0  0  0  0  0  0  0  0  0  0  0  0
   -5.8196    0.4268    0.5281 C   0  0  0  0  0  0  0  0  0  0  0  0
   -4.8007   -0.2807   -0.1099 C   0  0  0  0  0  0  0  0  0  0  0  0
   -6.6420    1.1747   -0.2757 O   0  0  0  0  0  0  0  0  0  0  0  0
   -7.8357    1.5629    0.4160 C   0  0  0  0  0  0  0  0  0  0  0  0
   -7.5043    2.0879    1.8032 C   0  0  0  0  0  0  0  0  0  0  0  0
   -6.9201    1.0573    2.6085 O   0  0  0  0  0  0  0  0  0  0  0  0
   -0.3317   -0.3525   -1.5304 N   0  0  0  0  0  0  0  0  0  0  0  0
    0.7628    0.5148   -1.3554 C   0  0  0  0  0  0  0  0  0  0  0  0
    0.4856    1.7999   -0.8662 C   0  0  0  0  0  0  0  0  0  0  0  0
    1.5132    2.7208   -0.6435 C   0  0  0  0  0  0  0  0  0  0  0  0
    2.8321    2.3660   -0.9095 C   0  0  0  0  0  0  0  0  0  0  0  0
    3.1108    1.0881   -1.4007 C   0  0  0  0  0  0  0  0  0  0  0  0
    4.7916    0.6589   -1.7825 S   0  0  0  0  0  6  0  0  0  0  0  0
    5.4764    1.8836   -2.1430 O   0  0  0  0  0  0  0  0  0  0  0  0
    4.7942   -0.4804   -2.6739 O   0  0  0  0  0  0  0  0  0  0  0  0
    5.4054    0.1473   -0.2712 N   0  0  0  0  0  0  0  0  0  0  0  0
    4.7987   -1.1183    0.2630 C   0  0  0  0  0  0  0  0  0  0  0  0
    5.3727   -1.4158    1.6538 C   0  0  0  0  0  0  0  0  0  0  0  0
    6.8019   -1.5378    1.6161 O   0  0  0  0  0  0  0  0  0  0  0  0
    7.3938   -0.3232    1.1330 C   0  0  0  0  0  0  0  0  0  0  0  0
    6.9005    0.0136   -0.2779 C   0  0  0  0  0  0  0  0  0  0  0  0
    2.0832    0.1677   -1.6415 C   0  0  0  0  0  0  0  0  0  0  0  0
   -1.6865   -3.3512   -1.6720 H   0  0  0  0  0  0  0  0  0  0  0  0
   -1.9617   -2.2891   -3.0582 H   0  0  0  0  0  0  0  0  0  0  0  0
   -3.4351   -1.7924    2.6301 H   0  0  0  0  0  0  0  0  0  0  0  0
   -5.2324   -0.5088    3.7472 H   0  0  0  0  0  0  0  0  0  0  0  0
   -4.7108   -0.2079   -1.1902 H   0  0  0  0  0  0  0  0  0  0  0  0
   -8.3239    2.3422   -0.1775 H   0  0  0  0  0  0  0  0  0  0  0  0
   -8.5080    0.6973    0.4637 H   0  0  0  0  0  0  0  0  0  0  0  0
   -6.8045    2.9315    1.7563 H   0  0  0  0  0  0  0  0  0  0  0  0
   -8.4147    2.4270    2.3074 H   0  0  0  0  0  0  0  0  0  0  0  0
   -1.2508    0.0290   -1.3375 H   0  0  0  0  0  0  0  0  0  0  0  0
   -0.5352    2.1014   -0.6433 H   0  0  0  0  0  0  0  0  0  0  0  0
    1.2830    3.7133   -0.2636 H   0  0  0  0  0  0  0  0  0  0  0  0
    3.6331    3.0827   -0.7410 H   0  0  0  0  0  0  0  0  0  0  0  0
    5.0314   -1.9474   -0.4149 H   0  0  0  0  0  0  0  0  0  0  0  0
    3.7147   -1.0159    0.3522 H   0  0  0  0  0  0  0  0  0  0  0  0
    4.9696   -2.3625    2.0270 H   0  0  0  0  0  0  0  0  0  0  0  0
    5.1006   -0.6307    2.3693 H   0  0  0  0  0  0  0  0  0  0  0  0
    8.4790   -0.4651    1.1234 H   0  0  0  0  0  0  0  0  0  0  0  0
    7.1679    0.4879    1.8356 H   0  0  0  0  0  0  0  0  0  0  0  0
    7.3618    0.9533   -0.5970 H   0  0  0  0  0  0  0  0  0  0  0  0
    7.1876   -0.7848   -0.9725 H   0  0  0  0  0  0  0  0  0  0  0  0
    2.3372   -0.8052   -2.0517 H   0  0  0  0  0  0  0  0  0  0  0  0
  1  2  2  0
  2  3  1  0
  3  4  1  0
  4  5  1  0
  5  6  2  0
  5  7  1  0
  7  8  2  0
  8  9  1  0
  9 10  2  0
 10 11  1  0
 11 12  2  0
 11 13  1  0
 13 14  1  0
 14 15  1  0
 15 16  1  0
  2 17  1  0
 17 18  1  0
 18 19  2  0
 19 20  1  0
 20 21  2  0
 21 22  1  0
 22 23  1  0
 23 24  2  0
 23 25  2  0
 23 26  1  0
 26 27  1  0
 27 28  1  0
 28 29  1  0
 29 30  1  0
 30 31  1  0
 22 32  2  0
 12  7  1  0
 32 18  1  0
 16 10  1  0
 31 26  1  0
  3 33  1  0
  3 34  1  0
  8 35  1  0
  9 36  1  0
 12 37  1  0
 14 38  1  0
 14 39  1  0
 15 40  1  0
 15 41  1  0
 17 42  1  0
 19 43  1  0
 20 44  1  0
 21 45  1  0
 27 46  1  0
 27 47  1  0
 28 48  1  0
 28 49  1  0
 30 50  1  0
 30 51  1  0
 31 52  1  0
 31 53  1  0
 32 54  1  0
M  END
$$$$
