
     RDKit          3D

 43 45  0  0  0  0  0  0  0  0999 V2000
   -1.0697    5.1914   -1.3947 C   0  0  0  0  0  0  0  0  0  0  0  0
   -2.0075    4.1958   -0.7788 C   0  0  0  0  0  0  0  0  0  0  0  0
   -2.3673    4.2246    0.3900 O   0  0  0  0  0  0  0  0  0  0  0  0
   -2.3799    3.2776   -1.7531 O   0  0  0  0  0  0  0  0  0  0  0  0
   -3.2195    2.2720   -1.2591 C   0  0  0  0  0  0  0  0  0  0  0  0
   -4.5949    2.5168   -1.2245 C   0  0  0  0  0  0  0  0  0  0  0  0
   -5.4550    1.5201   -0.7696 C   0  0  0  0  0  0  0  0  0  0  0  0
   -4.9409    0.2862   -0.3706 C   0  0  0  0  0  0  0  0  0  0  0  0
   -3.5642    0.0432   -0.4266 C   0  0  0  0  0  0  0  0  0  0  0  0
   -2.6800    1.0364   -0.8699 C   0  0  0  0  0  0  0  0  0  0  0  0
   -1.2376    0.7707   -0.9811 C   0  0  0  0  0  0  0  0  0  0  0  0
   -0.5211    0.2061    0.0047 C   0  0  0  0  0  0  0  0  0  0  0  0
    0.9132   -0.0987   -0.0445 C   0  0  0  0  0  0  0  0  0  0  0  0
    1.8164    0.5990   -0.8333 C   0  0  0  0  0  0  0  0  0  0  0  0
    3.1611    0.2446   -0.7814 C   0  0  0  0  0  0  0  0  0  0  0  0
    3.5779   -0.7933    0.0587 C   0  0  0  0  0  0  0  0  0  0  0  0
    4.9323   -1.1727    0.1417 C   0  0  0  0  0  0  0  0  0  0  0  0
    5.3341   -2.2003    0.9954 C   0  0  0  0  0  0  0  0  0  0  0  0
    4.3866   -2.8609    1.7661 C   0  0  0  0  0  0  0  0  0  0  0  0
    3.0440   -2.4876    1.6583 C   0  0  0  0  0  0  0  0  0  0  0  0
    2.1174   -3.1594    2.4693 O   0  0  0  0  0  0  0  0  0  0  0  0
    1.4066   -4.1143    1.7555 C   0  0  0  0  0  0  0  0  0  0  0  0
    0.2833   -4.6178    2.6121 C   0  0  0  0  0  0  0  0  0  0  0  0
    1.6573   -4.5370    0.6338 O   0  0  0  0  0  0  0  0  0  0  0  0
    2.6003   -1.4496    0.8320 C   0  0  0  0  0  0  0  0  0  0  0  0
    1.2952   -1.0935    0.7880 N   0  0  0  0  0  0  0  0  0  0  0  0
   -1.5764    5.7293   -2.1997 H   0  0  0  0  0  0  0  0  0  0  0  0
   -0.1812    4.6788   -1.7720 H   0  0  0  0  0  0  0  0  0  0  0  0
   -0.7577    5.9133   -0.6345 H   0  0  0  0  0  0  0  0  0  0  0  0
   -4.9920    3.4767   -1.5397 H   0  0  0  0  0  0  0  0  0  0  0  0
   -6.5257    1.7026   -0.7271 H   0  0  0  0  0  0  0  0  0  0  0  0
   -5.6128   -0.4938   -0.0206 H   0  0  0  0  0  0  0  0  0  0  0  0
   -3.1914   -0.9354   -0.1314 H   0  0  0  0  0  0  0  0  0  0  0  0
   -0.7844    1.0656   -1.9228 H   0  0  0  0  0  0  0  0  0  0  0  0
   -0.9991   -0.0884    0.9364 H   0  0  0  0  0  0  0  0  0  0  0  0
    1.5000    1.4138   -1.4739 H   0  0  0  0  0  0  0  0  0  0  0  0
    3.8776    0.7847   -1.3949 H   0  0  0  0  0  0  0  0  0  0  0  0
    5.6835   -0.6638   -0.4589 H   0  0  0  0  0  0  0  0  0  0  0  0
    6.3819   -2.4833    1.0552 H   0  0  0  0  0  0  0  0  0  0  0  0
    4.6817   -3.6634    2.4350 H   0  0  0  0  0  0  0  0  0  0  0  0
   -0.3348   -3.7796    2.9444 H   0  0  0  0  0  0  0  0  0  0  0  0
   -0.3444   -5.2941    2.0249 H   0  0  0  0  0  0  0  0  0  0  0  0
    0.6868   -5.1625    3.4690 H   0  0  0  0  0  0  0  0  0  0  0  0
  1  2  1  0
  2  3  2  0
  2  4  1  0
  4  5  1  0
  5  6  2  0
  6  7  1  0
  7  8  2  0
  8  9  1  0
  9 10  2  0
 10 11  1  0
 11 12  2  0
 12 13  1  0
 13 14  2  0
 14 15  1  0
 15 16  2  0
 16 17  1  0
 17 18  2  0
 18 19  1  0
 19 20  2  0
 20 21  1  0
 21 22  1  0
 22 23  1  0
 22 24  2  0
 20 25  1  0
 25 26  2  0
 10  5  1  0
 26 13  1  0
 25 16  1  0
  1 27  1  0
  1 28  1  0
  1 29  1  0
  6 30  1  0
  7 31  1  0
  8 32  1  0
  9 33  1  0
 11 34  1  0
 12 35  1  0
 14 36  1  0
 15 37  1  0
 17 38  1  0
 18 39  1  0
 19 40  1  0
 23 41  1  0
 23 42  1  0
 23 43  1  0
M  END
$$$$
