
     RDKit          3D

 42 45  0  0  0  0  0  0  0  0999 V2000
    4.6307    0.6132    1.2862 C   0  0  0  0  0  0  0  0  0  0  0  0
    3.9560   -0.3011    0.3328 C   0  0  0  0  0  0  0  0  0  0  0  0
    2.6054   -0.4161    0.0366 C   0  0  0  0  0  0  0  0  0  0  0  0
    1.4992    0.4267    0.4799 C   0  0  0  0  0  0  0  0  0  0  0  0
    1.6673    1.4524    1.1330 O   0  0  0  0  0  0  0  0  0  0  0  0
    0.2663   -0.0620    0.0725 N   0  0  0  0  0  0  0  0  0  0  0  0
   -0.8815    0.5932    0.4004 N   0  0  0  0  0  0  0  0  0  0  0  0
   -1.9810    0.0450   -0.0203 C   0  0  0  0  0  0  0  0  0  0  0  0
   -3.3065    0.6510    0.2701 C   0  0  0  0  0  0  0  0  0  0  0  0
   -3.3696    1.8228    1.0473 C   0  0  0  0  0  0  0  0  0  0  0  0
   -2.2735    2.4645    1.5609 O   0  0  0  0  0  0  0  0  0  0  0  0
   -4.5900    2.4112    1.3468 C   0  0  0  0  0  0  0  0  0  0  0  0
   -5.7667    1.8402    0.8751 C   0  0  0  0  0  0  0  0  0  0  0  0
   -5.7422    0.6755    0.0946 C   0  0  0  0  0  0  0  0  0  0  0  0
   -6.9550    0.1342   -0.3634 C   0  0  0  0  0  0  0  0  0  0  0  0
   -6.9811   -1.0187   -1.1430 C   0  0  0  0  0  0  0  0  0  0  0  0
   -5.7911   -1.6470   -1.4747 C   0  0  0  0  0  0  0  0  0  0  0  0
   -4.5750   -1.1223   -1.0259 C   0  0  0  0  0  0  0  0  0  0  0  0
   -4.5060    0.0520   -0.2280 C   0  0  0  0  0  0  0  0  0  0  0  0
    2.4098   -1.5189   -0.7466 N   0  0  0  0  0  0  0  0  0  0  0  0
    3.5821   -2.0920   -0.9503 N   0  0  0  0  0  0  0  0  0  0  0  0
    4.5671   -1.3142   -0.4071 N   0  0  0  0  0  0  0  0  0  0  0  0
    5.9407   -1.5958   -0.6336 C   0  0  0  0  0  0  0  0  0  0  0  0
    6.2681   -2.8240   -1.0504 N   0  0  0  0  0  0  0  0  0  0  0  0
    7.6553   -2.8148   -1.1109 O   0  0  0  0  0  0  0  0  0  0  0  0
    8.1610   -1.5650   -0.7831 N   0  0  0  0  0  0  0  0  0  0  0  0
    7.0984   -0.8027   -0.5279 C   0  0  0  0  0  0  0  0  0  0  0  0
    7.2014    0.5244   -0.2924 N   0  0  0  0  0  0  0  0  0  0  0  0
    3.9749    0.8400    2.1329 H   0  0  0  0  0  0  0  0  0  0  0  0
    4.8859    1.5599    0.8022 H   0  0  0  0  0  0  0  0  0  0  0  0
    5.5275    0.1637    1.7200 H   0  0  0  0  0  0  0  0  0  0  0  0
    0.2371   -0.9296   -0.4570 H   0  0  0  0  0  0  0  0  0  0  0  0
   -1.9424   -0.8878   -0.6025 H   0  0  0  0  0  0  0  0  0  0  0  0
   -1.4650    1.9744    1.2872 H   0  0  0  0  0  0  0  0  0  0  0  0
   -4.6234    3.3151    1.9491 H   0  0  0  0  0  0  0  0  0  0  0  0
   -6.7114    2.3205    1.1245 H   0  0  0  0  0  0  0  0  0  0  0  0
   -7.9006    0.6124   -0.1131 H   0  0  0  0  0  0  0  0  0  0  0  0
   -7.9292   -1.4224   -1.4883 H   0  0  0  0  0  0  0  0  0  0  0  0
   -5.8035   -2.5483   -2.0829 H   0  0  0  0  0  0  0  0  0  0  0  0
   -3.6809   -1.6624   -1.3221 H   0  0  0  0  0  0  0  0  0  0  0  0
    6.5055    1.1477   -0.6922 H   0  0  0  0  0  0  0  0  0  0  0  0
    8.1357    0.9050   -0.4365 H   0  0  0  0  0  0  0  0  0  0  0  0
  1  2  1  0
  2  3  2  0
  3  4  1  0
  4  5  2  0
  4  6  1  0
  6  7  1  0
  7  8  2  3
  8  9  1  0
  9 10  2  0
 10 11  1  0
 10 12  1  0
 12 13  2  0
 13 14  1  0
 14 15  2  0
 15 16  1  0
 16 17  2  0
 17 18  1  0
 18 19  2  0
  3 20  1  0
 20 21  2  0
 21 22  1  0
 22 23  1  0
 23 24  2  0
 24 25  1  0
 25 26  1  0
 26 27  2  0
 27 28  1  0
 22  2  1  0
 27 23  1  0
 19  9  1  0
 19 14  1  0
  1 29  1  0
  1 30  1  0
  1 31  1  0
  6 32  1  0
  8 33  1  0
 11 34  1  0
 12 35  1  0
 13 36  1  0
 15 37  1  0
 16 38  1  0
 17 39  1  0
 18 40  1  0
 28 41  1  0
 28 42  1  0
M  END
$$$$
