
     RDKit          3D

 68 71  0  0  0  0  0  0  0  0999 V2000
   -2.1067   -5.3161    4.5486 C   0  0  0  0  0  0  0  0  0  0  0  0
   -1.7123   -4.3350    3.4858 C   0  0  0  0  0  0  0  0  0  0  0  0
   -0.8851   -3.2503    3.7806 C   0  0  0  0  0  0  0  0  0  0  0  0
   -0.5354   -2.3358    2.7839 C   0  0  0  0  0  0  0  0  0  0  0  0
   -1.0254   -2.4681    1.4705 C   0  0  0  0  0  0  0  0  0  0  0  0
   -0.6190   -1.4287    0.4170 C   0  0  0  0  0  0  0  0  0  0  0  0
   -0.9472   -1.8134   -1.0593 C   0  0  0  0  0  0  0  0  0  0  0  0
   -0.6060   -2.8921   -1.5438 O   0  0  0  0  0  0  0  0  0  0  0  0
   -1.6652   -0.8841   -1.7773 N   0  0  0  0  0  0  0  0  0  0  0  0
   -2.0070   -1.0401   -3.1753 C   0  0  0  0  0  0  0  0  0  0  0  0
   -1.2495   -0.0370   -4.0616 C   0  0  0  0  0  0  0  0  0  0  0  0
   -2.3129    0.7047   -4.8675 C   0  0  0  0  0  0  0  0  0  0  0  0
   -3.5266   -0.2082   -4.8379 C   0  0  0  0  0  0  0  0  0  0  0  0
   -3.4921   -0.7719   -3.4264 C   0  0  0  0  0  0  0  0  0  0  0  0
   -1.0611   -0.0590    0.8045 N   0  0  0  0  0  0  0  0  0  0  0  0
   -2.4667    0.1184    1.1955 C   0  0  0  0  0  0  0  0  0  0  0  0
   -3.0999    1.2837    0.5026 C   0  0  0  0  0  0  0  0  0  0  0  0
   -4.0836    2.1747    0.8836 C   0  0  0  0  0  0  0  0  0  0  0  0
   -4.2651    3.0645   -0.2022 C   0  0  0  0  0  0  0  0  0  0  0  0
   -3.3870    2.6616   -1.1788 C   0  0  0  0  0  0  0  0  0  0  0  0
   -2.6801    1.5783   -0.7660 O   0  0  0  0  0  0  0  0  0  0  0  0
   -0.1694    0.9490    1.1672 C   0  0  0  0  0  0  0  0  0  0  0  0
   -0.5166    1.9213    1.8371 O   0  0  0  0  0  0  0  0  0  0  0  0
    1.2684    0.8067    0.7058 C   0  0  0  0  0  0  0  0  0  0  0  0
    2.0651    2.0923    0.9251 C   0  0  0  0  0  0  0  0  0  0  0  0
    3.5286    1.9018    0.5841 C   0  0  0  0  0  0  0  0  0  0  0  0
    3.9676    0.8377    0.1598 O   0  0  0  0  0  0  0  0  0  0  0  0
    4.2648    3.0413    0.8162 N   0  0  0  0  0  0  0  0  0  0  0  0
    5.6300    3.1474    0.6676 C   0  0  0  0  0  0  0  0  0  0  0  0
    6.5705    2.1736    0.2657 C   0  0  0  0  0  0  0  0  0  0  0  0
    7.7829    2.8152    0.3297 C   0  0  0  0  0  0  0  0  0  0  0  0
    9.1771    2.4062    0.0788 C   0  0  0  0  0  0  0  0  0  0  0  0
    7.5840    4.0976    0.7329 O   0  0  0  0  0  0  0  0  0  0  0  0
    6.2322    4.3101    0.9398 N   0  0  0  0  0  0  0  0  0  0  0  0
   -1.8668   -3.5526    1.1905 C   0  0  0  0  0  0  0  0  0  0  0  0
   -2.2069   -4.4740    2.1864 C   0  0  0  0  0  0  0  0  0  0  0  0
   -2.0674   -6.3380    4.1578 H   0  0  0  0  0  0  0  0  0  0  0  0
   -3.1221   -5.1003    4.8952 H   0  0  0  0  0  0  0  0  0  0  0  0
   -1.4280   -5.2702    5.4085 H   0  0  0  0  0  0  0  0  0  0  0  0
   -0.5065   -3.1056    4.7888 H   0  0  0  0  0  0  0  0  0  0  0  0
    0.1119   -1.5026    3.0488 H   0  0  0  0  0  0  0  0  0  0  0  0
    0.4757   -1.4564    0.4174 H   0  0  0  0  0  0  0  0  0  0  0  0
   -1.8359    0.0209   -1.3431 H   0  0  0  0  0  0  0  0  0  0  0  0
   -1.7608   -2.0578   -3.5049 H   0  0  0  0  0  0  0  0  0  0  0  0
   -0.6337    0.6672   -3.4918 H   0  0  0  0  0  0  0  0  0  0  0  0
   -0.5759   -0.5810   -4.7345 H   0  0  0  0  0  0  0  0  0  0  0  0
   -2.5522    1.6567   -4.3830 H   0  0  0  0  0  0  0  0  0  0  0  0
   -1.9776    0.9224   -5.8855 H   0  0  0  0  0  0  0  0  0  0  0  0
   -4.4560    0.3274   -5.0499 H   0  0  0  0  0  0  0  0  0  0  0  0
   -3.4169   -1.0142   -5.5726 H   0  0  0  0  0  0  0  0  0  0  0  0
   -4.0935   -1.6814   -3.3272 H   0  0  0  0  0  0  0  0  0  0  0  0
   -3.8901   -0.0334   -2.7216 H   0  0  0  0  0  0  0  0  0  0  0  0
   -2.5101    0.2516    2.2831 H   0  0  0  0  0  0  0  0  0  0  0  0
   -3.0438   -0.7749    0.9329 H   0  0  0  0  0  0  0  0  0  0  0  0
   -4.5932    2.1891    1.8354 H   0  0  0  0  0  0  0  0  0  0  0  0
   -4.9541    3.8966   -0.2677 H   0  0  0  0  0  0  0  0  0  0  0  0
   -3.1601    3.0183   -2.1730 H   0  0  0  0  0  0  0  0  0  0  0  0
    1.7353   -0.0020    1.2811 H   0  0  0  0  0  0  0  0  0  0  0  0
    1.2818    0.5442   -0.3587 H   0  0  0  0  0  0  0  0  0  0  0  0
    2.0011    2.4038    1.9743 H   0  0  0  0  0  0  0  0  0  0  0  0
    1.6608    2.9000    0.3034 H   0  0  0  0  0  0  0  0  0  0  0  0
    3.8196    3.8883    1.1465 H   0  0  0  0  0  0  0  0  0  0  0  0
    6.4026    1.1447   -0.0142 H   0  0  0  0  0  0  0  0  0  0  0  0
    9.2177    1.5222   -0.5634 H   0  0  0  0  0  0  0  0  0  0  0  0
    9.7414    3.2062   -0.4126 H   0  0  0  0  0  0  0  0  0  0  0  0
    9.6755    2.1637    1.0234 H   0  0  0  0  0  0  0  0  0  0  0  0
   -2.2662   -3.7148    0.1910 H   0  0  0  0  0  0  0  0  0  0  0  0
   -2.8572   -5.3104    1.9350 H   0  0  0  0  0  0  0  0  0  0  0  0
  1  2  1  0
  2  3  2  0
  3  4  1  0
  4  5  2  0
  5  6  1  0
  6  7  1  0
  7  8  2  0
  7  9  1  0
  9 10  1  0
 10 11  1  0
 11 12  1  0
 12 13  1  0
 13 14  1  0
  6 15  1  0
 15 16  1  0
 16 17  1  0
 17 18  2  0
 18 19  1  0
 19 20  2  0
 20 21  1  0
 15 22  1  0
 22 23  2  0
 22 24  1  0
 24 25  1  0
 25 26  1  0
 26 27  2  0
 26 28  1  0
 28 29  1  0
 29 30  1  0
 30 31  2  0
 31 32  1  0
 31 33  1  0
 33 34  1  0
  5 35  1  0
 35 36  2  0
 36  2  1  0
 14 10  1  0
 21 17  1  0
 34 29  2  0
  1 37  1  0
  1 38  1  0
  1 39  1  0
  3 40  1  0
  4 41  1  0
  6 42  1  0
  9 43  1  0
 10 44  1  0
 11 45  1  0
 11 46  1  0
 12 47  1  0
 12 48  1  0
 13 49  1  0
 13 50  1  0
 14 51  1  0
 14 52  1  0
 16 53  1  0
 16 54  1  0
 18 55  1  0
 19 56  1  0
 20 57  1  0
 24 58  1  0
 24 59  1  0
 25 60  1  0
 25 61  1  0
 28 62  1  0
 30 63  1  0
 32 64  1  0
 32 65  1  0
 32 66  1  0
 35 67  1  0
 36 68  1  0
M  END
$$$$
