
     RDKit          3D

 41 42  0  0  0  0  0  0  0  0999 V2000
    6.9081    1.9358    0.2717 C   0  0  0  0  0  0  0  0  0  0  0  0
    5.5173    1.6696    0.4506 O   0  0  0  0  0  0  0  0  0  0  0  0
    5.1970    0.3443    0.4219 C   0  0  0  0  0  0  0  0  0  0  0  0
    6.0064   -0.5586    0.2549 O   0  0  0  0  0  0  0  0  0  0  0  0
    3.7661    0.1783    0.6088 C   0  0  0  0  0  0  0  0  0  0  0  0
    2.7944    1.1599    0.7321 C   0  0  0  0  0  0  0  0  0  0  0  0
    1.5395    0.5300    0.8474 C   0  0  0  0  0  0  0  0  0  0  0  0
    1.7337   -0.8414    0.7826 C   0  0  0  0  0  0  0  0  0  0  0  0
    0.5592   -2.1822    0.8178 S   0  0  0  0  0  6  0  0  0  0  0  0
    0.8964   -3.0014   -0.3224 O   0  0  0  0  0  0  0  0  0  0  0  0
    0.6241   -2.6578    2.1789 O   0  0  0  0  0  0  0  0  0  0  0  0
   -0.9588   -1.5170    0.5826 N   0  0  0  0  0  0  0  0  0  0  0  0
   -1.2647   -1.0517   -0.7732 C   0  0  0  0  0  0  0  0  0  0  0  0
   -2.5620   -0.2804   -0.7931 C   0  0  0  0  0  0  0  0  0  0  0  0
   -3.7765   -0.9346   -0.5430 C   0  0  0  0  0  0  0  0  0  0  0  0
   -4.9842   -0.2278   -0.5419 C   0  0  0  0  0  0  0  0  0  0  0  0
   -4.9927    1.1443   -0.7886 C   0  0  0  0  0  0  0  0  0  0  0  0
   -6.0962    1.9515   -0.8156 O   0  0  0  0  0  0  0  0  0  0  0  0
   -7.3534    1.3286   -0.5839 C   0  0  0  0  0  0  0  0  0  0  0  0
   -3.7842    1.8001   -1.0343 C   0  0  0  0  0  0  0  0  0  0  0  0
   -2.5763    1.0978   -1.0359 C   0  0  0  0  0  0  0  0  0  0  0  0
    3.1038   -1.0401    0.7022 N   0  0  0  0  0  0  0  0  0  0  0  0
    3.7713   -2.3301    0.7150 C   0  0  0  0  0  0  0  0  0  0  0  0
    7.4935    1.4766    1.0745 H   0  0  0  0  0  0  0  0  0  0  0  0
    7.2443    1.5798   -0.7072 H   0  0  0  0  0  0  0  0  0  0  0  0
    7.0539    3.0187    0.3140 H   0  0  0  0  0  0  0  0  0  0  0  0
    2.9797    2.2279    0.7236 H   0  0  0  0  0  0  0  0  0  0  0  0
    0.5817    1.0237    0.9487 H   0  0  0  0  0  0  0  0  0  0  0  0
   -1.2165   -0.8757    1.3309 H   0  0  0  0  0  0  0  0  0  0  0  0
   -0.4590   -0.4127   -1.1499 H   0  0  0  0  0  0  0  0  0  0  0  0
   -1.3512   -1.9076   -1.4523 H   0  0  0  0  0  0  0  0  0  0  0  0
   -3.7859   -2.0049   -0.3418 H   0  0  0  0  0  0  0  0  0  0  0  0
   -5.8966   -0.7800   -0.3428 H   0  0  0  0  0  0  0  0  0  0  0  0
   -7.3986    0.8921    0.4193 H   0  0  0  0  0  0  0  0  0  0  0  0
   -7.5706    0.5792   -1.3522 H   0  0  0  0  0  0  0  0  0  0  0  0
   -8.1257    2.1015   -0.6455 H   0  0  0  0  0  0  0  0  0  0  0  0
   -3.7854    2.8704   -1.2275 H   0  0  0  0  0  0  0  0  0  0  0  0
   -1.6535    1.6391   -1.2316 H   0  0  0  0  0  0  0  0  0  0  0  0
    4.6259   -2.2777    1.3941 H   0  0  0  0  0  0  0  0  0  0  0  0
    4.0894   -2.5587   -0.3049 H   0  0  0  0  0  0  0  0  0  0  0  0
    3.1063   -3.1088    1.0879 H   0  0  0  0  0  0  0  0  0  0  0  0
  1  2  1  0
  2  3  1  0
  3  4  2  0
  3  5  1  0
  5  6  2  0
  6  7  1  0
  7  8  2  0
  8  9  1  0
  9 10  2  0
  9 11  2  0
  9 12  1  0
 12 13  1  0
 13 14  1  0
 14 15  2  0
 15 16  1  0
 16 17  2  0
 17 18  1  0
 18 19  1  0
 17 20  1  0
 20 21  2  0
  8 22  1  0
 22 23  1  0
 22  5  1  0
 21 14  1  0
  1 24  1  0
  1 25  1  0
  1 26  1  0
  6 27  1  0
  7 28  1  0
 12 29  1  0
 13 30  1  0
 13 31  1  0
 15 32  1  0
 16 33  1  0
 19 34  1  0
 19 35  1  0
 19 36  1  0
 20 37  1  0
 21 38  1  0
 23 39  1  0
 23 40  1  0
 23 41  1  0
M  END
$$$$
