
     RDKit          3D

 52 54  0  0  0  0  0  0  0  0999 V2000
    7.1761   -0.7520   -4.6281 C   0  0  0  0  0  0  0  0  0  0  0  0
    6.5491   -1.0705   -3.3036 C   0  0  0  0  0  0  0  0  0  0  0  0
    6.8914   -0.3484   -2.1557 C   0  0  0  0  0  0  0  0  0  0  0  0
    6.2829   -0.6337   -0.9306 C   0  0  0  0  0  0  0  0  0  0  0  0
    5.3210   -1.6479   -0.8327 C   0  0  0  0  0  0  0  0  0  0  0  0
    4.6397   -1.9385    0.4789 C   0  0  0  0  0  0  0  0  0  0  0  0
    3.4489   -1.1435    0.6254 N   0  0  0  0  0  0  0  0  0  0  0  0
    2.2088   -1.6019    0.2503 C   0  0  0  0  0  0  0  0  0  0  0  0
    1.9260   -2.7406   -0.0969 O   0  0  0  0  0  0  0  0  0  0  0  0
    1.1150   -0.5097    0.2808 C   0  0  0  0  0  0  0  0  0  0  0  0
    1.3892    0.6228    0.6538 O   0  0  0  0  0  0  0  0  0  0  0  0
   -0.1149   -0.9533   -0.1511 N   0  0  0  0  0  0  0  0  0  0  0  0
   -1.3113   -0.1416   -0.0238 C   0  0  0  0  0  0  0  0  0  0  0  0
   -2.0522   -0.3424    1.3196 C   0  0  0  0  0  0  0  0  0  0  0  0
   -1.1835   -0.0375    2.4301 O   0  0  0  0  0  0  0  0  0  0  0  0
   -1.5755    1.2431    2.9245 C   0  0  0  0  0  0  0  0  0  0  0  0
   -3.0704    1.2687    2.7062 C   0  0  0  0  0  0  0  0  0  0  0  0
   -3.1997    0.5905    1.4080 N   0  0  0  0  0  0  0  0  0  0  0  0
   -4.6805   -0.1101    1.0208 S   0  0  0  0  0  6  0  0  0  0  0  0
   -5.0841   -0.9428    2.1329 O   0  0  0  0  0  0  0  0  0  0  0  0
   -4.5751   -0.6487   -0.3177 O   0  0  0  0  0  0  0  0  0  0  0  0
   -5.7588    1.2986    0.9489 C   0  0  0  0  0  0  0  0  0  0  0  0
   -6.7343    1.4873    1.9326 C   0  0  0  0  0  0  0  0  0  0  0  0
   -7.5788    2.5969    1.8569 C   0  0  0  0  0  0  0  0  0  0  0  0
   -7.4443    3.5006    0.8009 C   0  0  0  0  0  0  0  0  0  0  0  0
   -8.5910    5.0009    0.7027 Br  0  0  0  0  0  0  0  0  0  0  0  0
   -6.4759    3.3058   -0.1854 C   0  0  0  0  0  0  0  0  0  0  0  0
   -5.6297    2.1975   -0.1154 C   0  0  0  0  0  0  0  0  0  0  0  0
    4.9659   -2.3575   -1.9875 C   0  0  0  0  0  0  0  0  0  0  0  0
    5.5748   -2.0715   -3.2113 C   0  0  0  0  0  0  0  0  0  0  0  0
    6.4700   -0.1961   -5.2527 H   0  0  0  0  0  0  0  0  0  0  0  0
    8.0814   -0.1473   -4.5060 H   0  0  0  0  0  0  0  0  0  0  0  0
    7.4647   -1.6727   -5.1450 H   0  0  0  0  0  0  0  0  0  0  0  0
    7.6328    0.4460   -2.2071 H   0  0  0  0  0  0  0  0  0  0  0  0
    6.5634   -0.0548   -0.0537 H   0  0  0  0  0  0  0  0  0  0  0  0
    5.3047   -1.6948    1.3148 H   0  0  0  0  0  0  0  0  0  0  0  0
    4.3967   -3.0047    0.5566 H   0  0  0  0  0  0  0  0  0  0  0  0
    3.5305   -0.1399    0.7556 H   0  0  0  0  0  0  0  0  0  0  0  0
   -0.1855   -1.9454   -0.3656 H   0  0  0  0  0  0  0  0  0  0  0  0
   -1.0228    0.9105   -0.1349 H   0  0  0  0  0  0  0  0  0  0  0  0
   -1.9625   -0.4003   -0.8639 H   0  0  0  0  0  0  0  0  0  0  0  0
   -2.3506   -1.3898    1.4374 H   0  0  0  0  0  0  0  0  0  0  0  0
   -1.0633    2.0158    2.3402 H   0  0  0  0  0  0  0  0  0  0  0  0
   -1.2958    1.3446    3.9764 H   0  0  0  0  0  0  0  0  0  0  0  0
   -3.5720    0.6999    3.4962 H   0  0  0  0  0  0  0  0  0  0  0  0
   -3.4592    2.2892    2.6809 H   0  0  0  0  0  0  0  0  0  0  0  0
   -6.8474    0.7793    2.7511 H   0  0  0  0  0  0  0  0  0  0  0  0
   -8.3409    2.7442    2.6191 H   0  0  0  0  0  0  0  0  0  0  0  0
   -6.3769    4.0056   -1.0117 H   0  0  0  0  0  0  0  0  0  0  0  0
   -4.8794    2.0374   -0.8871 H   0  0  0  0  0  0  0  0  0  0  0  0
    4.2038   -3.1341   -1.9389 H   0  0  0  0  0  0  0  0  0  0  0  0
    5.2791   -2.6311   -4.0954 H   0  0  0  0  0  0  0  0  0  0  0  0
  1  2  1  0
  2  3  2  0
  3  4  1  0
  4  5  2  0
  5  6  1  0
  6  7  1  0
  7  8  1  0
  8  9  2  0
  8 10  1  0
 10 11  2  0
 10 12  1  0
 12 13  1  0
 13 14  1  0
 14 15  1  0
 15 16  1  0
 16 17  1  0
 17 18  1  0
 18 19  1  0
 19 20  2  0
 19 21  2  0
 19 22  1  0
 22 23  2  0
 23 24  1  0
 24 25  2  0
 25 26  1  0
 25 27  1  0
 27 28  2  0
  5 29  1  0
 29 30  2  0
 30  2  1  0
 18 14  1  0
 28 22  1  0
  1 31  1  0
  1 32  1  0
  1 33  1  0
  3 34  1  0
  4 35  1  0
  6 36  1  0
  6 37  1  0
  7 38  1  0
 12 39  1  0
 13 40  1  0
 13 41  1  0
 14 42  1  0
 16 43  1  0
 16 44  1  0
 17 45  1  0
 17 46  1  0
 23 47  1  0
 24 48  1  0
 27 49  1  0
 28 50  1  0
 29 51  1  0
 30 52  1  0
M  END
$$$$
