
     RDKit          3D

 50 53  0  0  0  0  0  0  0  0999 V2000
   -6.6131   -1.6938    4.9587 C   0  0  0  0  0  0  0  0  0  0  0  0
   -5.5934   -1.4226    3.8924 C   0  0  0  0  0  0  0  0  0  0  0  0
   -4.2719   -1.1278    4.2372 C   0  0  0  0  0  0  0  0  0  0  0  0
   -3.3268   -0.8455    3.2462 C   0  0  0  0  0  0  0  0  0  0  0  0
   -3.6849   -0.8592    1.8879 C   0  0  0  0  0  0  0  0  0  0  0  0
   -2.6848   -0.5685    0.9083 N   0  0  0  0  0  0  0  0  0  0  0  0
   -1.5405    0.0481    1.3118 N   0  0  0  0  0  0  0  0  0  0  0  0
   -0.8944    0.3560    0.1857 C   0  0  0  0  0  0  0  0  0  0  0  0
    0.3681    1.0741    0.0804 C   0  0  0  0  0  0  0  0  0  0  0  0
    0.9908    1.5219    1.0422 O   0  0  0  0  0  0  0  0  0  0  0  0
    0.8030    1.2133   -1.2518 N   0  0  0  0  0  0  0  0  0  0  0  0
    2.0979    1.8298   -1.4829 C   0  0  0  0  0  0  0  0  0  0  0  0
    3.2303    0.8315   -1.2272 C   0  0  0  0  0  0  0  0  0  0  0  0
    3.0714   -0.3820   -1.1174 O   0  0  0  0  0  0  0  0  0  0  0  0
    4.4802    1.4211   -1.1767 N   0  0  0  0  0  0  0  0  0  0  0  0
    5.6328    0.6305   -0.8114 C   0  0  0  0  0  0  0  0  0  0  0  0
    6.8598    1.4032   -1.1692 C   0  0  0  0  0  0  0  0  0  0  0  0
    7.5540    1.3955   -2.3640 C   0  0  0  0  0  0  0  0  0  0  0  0
    8.6806    2.2663   -2.3430 C   0  0  0  0  0  0  0  0  0  0  0  0
    8.8132    2.9061   -1.1309 C   0  0  0  0  0  0  0  0  0  0  0  0
    7.5785    2.4667   -0.0330 S   0  0  0  0  0  0  0  0  0  0  0  0
    0.1189    0.7519   -2.3819 N   0  0  0  0  0  0  0  0  0  0  0  0
   -1.0093    0.1089   -2.2623 C   0  0  0  0  0  0  0  0  0  0  0  0
   -1.6948   -0.3647   -3.5121 C   0  0  0  0  0  0  0  0  0  0  0  0
   -1.5589   -0.1233   -0.9482 C   0  0  0  0  0  0  0  0  0  0  0  0
   -2.6643   -0.8088   -0.4716 C   0  0  0  0  0  0  0  0  0  0  0  0
   -3.6190   -1.6905   -1.1921 C   0  0  0  0  0  0  0  0  0  0  0  0
   -5.0182   -1.1115    1.5480 C   0  0  0  0  0  0  0  0  0  0  0  0
   -5.9626   -1.3917    2.5439 C   0  0  0  0  0  0  0  0  0  0  0  0
   -7.4238   -2.3218    4.5753 H   0  0  0  0  0  0  0  0  0  0  0  0
   -6.1609   -2.2262    5.8023 H   0  0  0  0  0  0  0  0  0  0  0  0
   -7.0390   -0.7521    5.3190 H   0  0  0  0  0  0  0  0  0  0  0  0
   -3.9640   -1.1131    5.2803 H   0  0  0  0  0  0  0  0  0  0  0  0
   -2.3048   -0.6260    3.5525 H   0  0  0  0  0  0  0  0  0  0  0  0
    2.1573    2.1746   -2.5207 H   0  0  0  0  0  0  0  0  0  0  0  0
    2.2151    2.6900   -0.8152 H   0  0  0  0  0  0  0  0  0  0  0  0
    4.5335    2.4140   -0.9874 H   0  0  0  0  0  0  0  0  0  0  0  0
    5.6063   -0.3262   -1.3454 H   0  0  0  0  0  0  0  0  0  0  0  0
    5.5760    0.4161    0.2611 H   0  0  0  0  0  0  0  0  0  0  0  0
    7.2652    0.7889   -3.2143 H   0  0  0  0  0  0  0  0  0  0  0  0
    9.3633    2.4086   -3.1713 H   0  0  0  0  0  0  0  0  0  0  0  0
    9.5770    3.6124   -0.8337 H   0  0  0  0  0  0  0  0  0  0  0  0
   -2.7554   -0.1020   -3.4854 H   0  0  0  0  0  0  0  0  0  0  0  0
   -1.2439    0.1016   -4.3930 H   0  0  0  0  0  0  0  0  0  0  0  0
   -1.5843   -1.4489   -3.6003 H   0  0  0  0  0  0  0  0  0  0  0  0
   -3.1355   -2.1764   -2.0441 H   0  0  0  0  0  0  0  0  0  0  0  0
   -4.4680   -1.1146   -1.5720 H   0  0  0  0  0  0  0  0  0  0  0  0
   -3.9815   -2.5067   -0.5606 H   0  0  0  0  0  0  0  0  0  0  0  0
   -5.3787   -1.0518    0.5286 H   0  0  0  0  0  0  0  0  0  0  0  0
   -6.9964   -1.5752    2.2573 H   0  0  0  0  0  0  0  0  0  0  0  0
  1  2  1  0
  2  3  2  0
  3  4  1  0
  4  5  2  0
  5  6  1  0
  6  7  1  0
  7  8  2  0
  8  9  1  0
  9 10  2  0
  9 11  1  0
 11 12  1  0
 12 13  1  0
 13 14  2  0
 13 15  1  0
 15 16  1  0
 16 17  1  0
 17 18  2  0
 18 19  1  0
 19 20  2  0
 20 21  1  0
 11 22  1  0
 22 23  2  0
 23 24  1  0
 23 25  1  0
 25 26  2  0
 26 27  1  0
  5 28  1  0
 28 29  2  0
 29  2  1  0
 26  6  1  0
 25  8  1  0
 21 17  1  0
  1 30  1  0
  1 31  1  0
  1 32  1  0
  3 33  1  0
  4 34  1  0
 12 35  1  0
 12 36  1  0
 15 37  1  0
 16 38  1  0
 16 39  1  0
 18 40  1  0
 19 41  1  0
 20 42  1  0
 24 43  1  0
 24 44  1  0
 24 45  1  0
 27 46  1  0
 27 47  1  0
 27 48  1  0
 28 49  1  0
 29 50  1  0
M  END
$$$$
