
     RDKit          3D

 45 47  0  0  0  0  0  0  0  0999 V2000
    8.2583    0.0130    1.8707 C   0  0  0  0  0  0  0  0  0  0  0  0
    7.3261   -1.0556    1.3127 C   0  0  0  0  0  0  0  0  0  0  0  0
    6.3076   -0.5147    0.3057 C   0  0  0  0  0  0  0  0  0  0  0  0
    5.2997    0.4531    0.9285 C   0  0  0  0  0  0  0  0  0  0  0  0
    4.2620    0.8716   -0.0620 C   0  0  0  0  0  0  0  0  0  0  0  0
    4.4178    1.8274   -0.9553 N   0  0  0  0  0  0  0  0  0  0  0  0
    3.2846    2.0033   -1.7227 N   0  0  0  0  0  0  0  0  0  0  0  0
    2.3194    1.1786   -1.3797 C   0  0  0  0  0  0  0  0  0  0  0  0
    1.0953    1.2050   -1.9983 N   0  0  0  0  0  0  0  0  0  0  0  0
    0.0293    0.3595   -1.7669 C   0  0  0  0  0  0  0  0  0  0  0  0
    0.0083   -0.5848   -0.9869 O   0  0  0  0  0  0  0  0  0  0  0  0
   -1.1958    0.7549   -2.6121 C   0  0  0  0  0  0  0  0  0  0  0  0
   -2.2265   -0.2124   -2.7244 O   0  0  0  0  0  0  0  0  0  0  0  0
   -3.1952   -0.2362   -1.7592 C   0  0  0  0  0  0  0  0  0  0  0  0
   -4.3438   -0.9531   -2.1066 C   0  0  0  0  0  0  0  0  0  0  0  0
   -5.4164   -1.0765   -1.2141 C   0  0  0  0  0  0  0  0  0  0  0  0
   -5.3552   -0.4928    0.0552 C   0  0  0  0  0  0  0  0  0  0  0  0
   -6.4328   -0.5891    1.0498 C   0  0  0  0  0  0  0  0  0  0  0  0
   -7.7007   -1.3219    0.7222 C   0  0  0  0  0  0  0  0  0  0  0  0
   -6.2464   -0.0131    2.2489 C   0  0  0  0  0  0  0  0  0  0  0  0
   -5.0231    0.7157    2.6190 C   0  0  0  0  0  0  0  0  0  0  0  0
   -4.9022    1.2080    3.7360 O   0  0  0  0  0  0  0  0  0  0  0  0
   -4.0371    0.8137    1.6524 O   0  0  0  0  0  0  0  0  0  0  0  0
   -4.1937    0.2094    0.3866 C   0  0  0  0  0  0  0  0  0  0  0  0
   -3.1181    0.3472   -0.4980 C   0  0  0  0  0  0  0  0  0  0  0  0
    2.7176    0.1219   -0.1071 S   0  0  0  0  0  0  0  0  0  0  0  0
    7.7143    0.7561    2.4602 H   0  0  0  0  0  0  0  0  0  0  0  0
    9.0038   -0.4468    2.5285 H   0  0  0  0  0  0  0  0  0  0  0  0
    8.7896    0.5297    1.0634 H   0  0  0  0  0  0  0  0  0  0  0  0
    7.9321   -1.8245    0.8150 H   0  0  0  0  0  0  0  0  0  0  0  0
    6.8036   -1.5527    2.1412 H   0  0  0  0  0  0  0  0  0  0  0  0
    6.8325   -0.0280   -0.5270 H   0  0  0  0  0  0  0  0  0  0  0  0
    5.7708   -1.3684   -0.1271 H   0  0  0  0  0  0  0  0  0  0  0  0
    5.8117    1.3531    1.2875 H   0  0  0  0  0  0  0  0  0  0  0  0
    4.8283   -0.0123    1.8024 H   0  0  0  0  0  0  0  0  0  0  0  0
    1.0317    1.9223   -2.7085 H   0  0  0  0  0  0  0  0  0  0  0  0
   -1.5827    1.7208   -2.2617 H   0  0  0  0  0  0  0  0  0  0  0  0
   -0.8376    0.9234   -3.6362 H   0  0  0  0  0  0  0  0  0  0  0  0
   -4.4064   -1.4252   -3.0867 H   0  0  0  0  0  0  0  0  0  0  0  0
   -6.2852   -1.6456   -1.5357 H   0  0  0  0  0  0  0  0  0  0  0  0
   -8.4206   -1.2766    1.5470 H   0  0  0  0  0  0  0  0  0  0  0  0
   -7.4997   -2.3822    0.5253 H   0  0  0  0  0  0  0  0  0  0  0  0
   -8.1893   -0.8836   -0.1557 H   0  0  0  0  0  0  0  0  0  0  0  0
   -6.9986   -0.0577    3.0312 H   0  0  0  0  0  0  0  0  0  0  0  0
   -2.2377    0.8800   -0.1576 H   0  0  0  0  0  0  0  0  0  0  0  0
  1  2  1  0
  2  3  1  0
  3  4  1  0
  4  5  1  0
  5  6  2  0
  6  7  1  0
  7  8  2  0
  8  9  1  0
  9 10  1  0
 10 11  2  0
 10 12  1  0
 12 13  1  0
 13 14  1  0
 14 15  2  0
 15 16  1  0
 16 17  2  0
 17 18  1  0
 18 19  1  0
 18 20  2  0
 20 21  1  0
 21 22  2  0
 21 23  1  0
 23 24  1  0
 24 25  2  0
  8 26  1  0
 26  5  1  0
 25 14  1  0
 24 17  1  0
  1 27  1  0
  1 28  1  0
  1 29  1  0
  2 30  1  0
  2 31  1  0
  3 32  1  0
  3 33  1  0
  4 34  1  0
  4 35  1  0
  9 36  1  0
 12 37  1  0
 12 38  1  0
 15 39  1  0
 16 40  1  0
 19 41  1  0
 19 42  1  0
 19 43  1  0
 20 44  1  0
 25 45  1  0
M  END
$$$$
