
     RDKit          3D

 40 42  0  0  0  0  0  0  0  0999 V2000
   -2.4892   -1.3518    1.1490 C   0  0  0  0  0  0  0  0  0  0  0  0
   -2.9214   -0.4895    0.0461 N   0  0  0  0  0  0  0  0  0  0  0  0
   -2.0345   -0.2054   -1.0101 C   0  0  0  0  0  0  0  0  0  0  0  0
   -2.3464    0.0101   -2.1797 O   0  0  0  0  0  0  0  0  0  0  0  0
   -0.5797   -0.1527   -0.7099 C   0  0  0  0  0  0  0  0  0  0  0  0
   -0.0970    0.5839    0.3763 C   0  0  0  0  0  0  0  0  0  0  0  0
    1.2786    0.6398    0.6291 C   0  0  0  0  0  0  0  0  0  0  0  0
    2.1811   -0.0212   -0.2084 C   0  0  0  0  0  0  0  0  0  0  0  0
    3.5753   -0.0138   -0.0240 N   0  0  0  0  0  0  0  0  0  0  0  0
    4.3083    0.5866    0.9849 C   0  0  0  0  0  0  0  0  0  0  0  0
    3.8406    1.2230    1.9232 O   0  0  0  0  0  0  0  0  0  0  0  0
    5.7383    0.3816    0.8299 C   0  0  0  0  0  0  0  0  0  0  0  0
    6.8073    0.8052    1.5969 C   0  0  0  0  0  0  0  0  0  0  0  0
    7.9785    0.3131    0.9732 C   0  0  0  0  0  0  0  0  0  0  0  0
    7.5584   -0.3815   -0.1360 C   0  0  0  0  0  0  0  0  0  0  0  0
    6.2042   -0.3492   -0.2354 O   0  0  0  0  0  0  0  0  0  0  0  0
    1.6892   -0.7324   -1.3120 C   0  0  0  0  0  0  0  0  0  0  0  0
    0.3163   -0.7941   -1.5678 C   0  0  0  0  0  0  0  0  0  0  0  0
   -4.3106   -0.0859    0.0104 C   0  0  0  0  0  0  0  0  0  0  0  0
   -4.7973    0.8143   -0.9503 C   0  0  0  0  0  0  0  0  0  0  0  0
   -6.1380    1.2211   -0.9666 C   0  0  0  0  0  0  0  0  0  0  0  0
   -7.0261    0.7455   -0.0106 C   0  0  0  0  0  0  0  0  0  0  0  0
   -6.5699   -0.1308    0.9654 C   0  0  0  0  0  0  0  0  0  0  0  0
   -5.2283   -0.5355    0.9782 C   0  0  0  0  0  0  0  0  0  0  0  0
   -3.1123   -2.2519    1.1750 H   0  0  0  0  0  0  0  0  0  0  0  0
   -1.4631   -1.7063    1.0290 H   0  0  0  0  0  0  0  0  0  0  0  0
   -2.5655   -0.8016    2.0918 H   0  0  0  0  0  0  0  0  0  0  0  0
   -0.7811    1.1279    1.0233 H   0  0  0  0  0  0  0  0  0  0  0  0
    1.6118    1.2211    1.4835 H   0  0  0  0  0  0  0  0  0  0  0  0
    4.1356   -0.5099   -0.7095 H   0  0  0  0  0  0  0  0  0  0  0  0
    6.7345    1.3999    2.4979 H   0  0  0  0  0  0  0  0  0  0  0  0
    9.0026    0.4484    1.2924 H   0  0  0  0  0  0  0  0  0  0  0  0
    8.0727   -0.9273   -0.9153 H   0  0  0  0  0  0  0  0  0  0  0  0
    2.3663   -1.2436   -1.9923 H   0  0  0  0  0  0  0  0  0  0  0  0
   -0.0528   -1.3365   -2.4357 H   0  0  0  0  0  0  0  0  0  0  0  0
   -4.1507    1.2426   -1.7101 H   0  0  0  0  0  0  0  0  0  0  0  0
   -6.4786    1.9150   -1.7310 H   0  0  0  0  0  0  0  0  0  0  0  0
   -8.0655    1.0609   -0.0240 H   0  0  0  0  0  0  0  0  0  0  0  0
   -7.2548   -0.5034    1.7227 H   0  0  0  0  0  0  0  0  0  0  0  0
   -4.9370   -1.2155    1.7719 H   0  0  0  0  0  0  0  0  0  0  0  0
  1  2  1  0
  2  3  1  0
  3  4  2  0
  3  5  1  0
  5  6  2  0
  6  7  1  0
  7  8  2  0
  8  9  1  0
  9 10  1  0
 10 11  2  0
 10 12  1  0
 12 13  2  0
 13 14  1  0
 14 15  2  0
 15 16  1  0
  8 17  1  0
 17 18  2  0
  2 19  1  0
 19 20  2  0
 20 21  1  0
 21 22  2  0
 22 23  1  0
 23 24  2  0
 18  5  1  0
 24 19  1  0
 16 12  1  0
  1 25  1  0
  1 26  1  0
  1 27  1  0
  6 28  1  0
  7 29  1  0
  9 30  1  0
 13 31  1  0
 14 32  1  0
 15 33  1  0
 17 34  1  0
 18 35  1  0
 20 36  1  0
 21 37  1  0
 22 38  1  0
 23 39  1  0
 24 40  1  0
M  END
$$$$
