
     RDKit          3D

 37 39  0  0  0  0  0  0  0  0999 V2000
    6.0619   -0.0328   -1.4351 C   0  0  0  0  0  0  0  0  0  0  0  0
    5.5779    1.2840   -0.8429 C   0  0  0  0  0  0  0  0  0  0  0  0
    5.4041    1.2354    0.6765 C   0  0  0  0  0  0  0  0  0  0  0  0
    4.2921    0.3356    1.1081 C   0  0  0  0  0  0  0  0  0  0  0  0
    4.4426   -0.9184    1.4826 N   0  0  0  0  0  0  0  0  0  0  0  0
    3.2402   -1.5003    1.8297 N   0  0  0  0  0  0  0  0  0  0  0  0
    2.2317   -0.6657    1.7106 C   0  0  0  0  0  0  0  0  0  0  0  0
    0.9451   -1.0430    2.0039 N   0  0  0  0  0  0  0  0  0  0  0  0
   -0.1885   -0.2573    1.9257 C   0  0  0  0  0  0  0  0  0  0  0  0
   -0.2361    0.9175    1.5801 O   0  0  0  0  0  0  0  0  0  0  0  0
   -1.4466   -1.0479    2.3250 C   0  0  0  0  0  0  0  0  0  0  0  0
   -2.6715   -0.3370    2.2979 O   0  0  0  0  0  0  0  0  0  0  0  0
   -3.3478   -0.2652    1.1108 C   0  0  0  0  0  0  0  0  0  0  0  0
   -2.8118   -0.5470   -0.1598 C   0  0  0  0  0  0  0  0  0  0  0  0
   -3.6038   -0.4343   -1.3102 C   0  0  0  0  0  0  0  0  0  0  0  0
   -4.9125   -0.0345   -1.1554 C   0  0  0  0  0  0  0  0  0  0  0  0
   -5.4359    0.2528    0.0814 C   0  0  0  0  0  0  0  0  0  0  0  0
   -4.6794    0.1511    1.2292 C   0  0  0  0  0  0  0  0  0  0  0  0
   -6.7399    0.6333    0.0172 O   0  0  0  0  0  0  0  0  0  0  0  0
   -6.9724    0.5642   -1.4048 C   0  0  0  0  0  0  0  0  0  0  0  0
   -5.8190    0.1290   -2.1549 O   0  0  0  0  0  0  0  0  0  0  0  0
    2.6661    0.8868    1.1656 S   0  0  0  0  0  0  0  0  0  0  0  0
    6.2428    0.0825   -2.5086 H   0  0  0  0  0  0  0  0  0  0  0  0
    6.9980   -0.3535   -0.9670 H   0  0  0  0  0  0  0  0  0  0  0  0
    5.3207   -0.8272   -1.3062 H   0  0  0  0  0  0  0  0  0  0  0  0
    4.6396    1.5756   -1.3294 H   0  0  0  0  0  0  0  0  0  0  0  0
    6.3142    2.0605   -1.0829 H   0  0  0  0  0  0  0  0  0  0  0  0
    6.3384    0.9017    1.1447 H   0  0  0  0  0  0  0  0  0  0  0  0
    5.2215    2.2514    1.0481 H   0  0  0  0  0  0  0  0  0  0  0  0
    0.8783   -2.0017    2.3182 H   0  0  0  0  0  0  0  0  0  0  0  0
   -1.2986   -1.3539    3.3682 H   0  0  0  0  0  0  0  0  0  0  0  0
   -1.5088   -1.9747    1.7404 H   0  0  0  0  0  0  0  0  0  0  0  0
   -1.7741   -0.8336   -0.2917 H   0  0  0  0  0  0  0  0  0  0  0  0
   -3.1982   -0.6436   -2.2937 H   0  0  0  0  0  0  0  0  0  0  0  0
   -5.1069    0.3873    2.1972 H   0  0  0  0  0  0  0  0  0  0  0  0
   -7.7956   -0.1350   -1.5915 H   0  0  0  0  0  0  0  0  0  0  0  0
   -7.2678    1.5580   -1.7608 H   0  0  0  0  0  0  0  0  0  0  0  0
  1  2  1  0
  2  3  1  0
  3  4  1  0
  4  5  2  0
  5  6  1  0
  6  7  2  0
  7  8  1  0
  8  9  1  0
  9 10  2  0
  9 11  1  0
 11 12  1  0
 12 13  1  0
 13 14  2  0
 14 15  1  0
 15 16  2  0
 16 17  1  0
 17 18  2  0
 17 19  1  0
 19 20  1  0
 20 21  1  0
  7 22  1  0
 22  4  1  0
 18 13  1  0
 21 16  1  0
  1 23  1  0
  1 24  1  0
  1 25  1  0
  2 26  1  0
  2 27  1  0
  3 28  1  0
  3 29  1  0
  8 30  1  0
 11 31  1  0
 11 32  1  0
 14 33  1  0
 15 34  1  0
 18 35  1  0
 20 36  1  0
 20 37  1  0
M  END
$$$$
