
     RDKit          3D

 27 27  0  0  0  0  0  0  0  0999 V2000
    3.0732   -1.1631   -1.7352 C   0  0  0  0  0  0  0  0  0  0  0  0
    2.0357   -0.4715   -0.9356 C   0  0  0  0  0  0  0  0  0  0  0  0
    2.1645    0.6806   -0.1494 C   0  0  0  0  0  0  0  0  0  0  0  0
    0.9119    0.9285    0.3961 C   0  0  0  0  0  0  0  0  0  0  0  0
    0.5561    2.0089    1.2735 C   0  0  0  0  0  0  0  0  0  0  0  0
   -0.5188    2.2789    1.7826 O   0  0  0  0  0  0  0  0  0  0  0  0
    1.6208    2.8027    1.5284 O   0  0  0  0  0  0  0  0  0  0  0  0
    0.1049   -0.0876   -0.0935 N   0  0  0  0  0  0  0  0  0  0  0  0
   -1.3329   -0.3667    0.1295 C   0  0  0  0  0  0  0  0  0  0  0  0
   -2.2065    0.7850   -0.4027 C   0  0  0  0  0  0  0  0  0  0  0  0
   -1.7913   -1.6384   -0.6455 C   0  0  0  0  0  0  0  0  0  0  0  0
   -1.6132   -0.6588    1.6157 C   0  0  0  0  0  0  0  0  0  0  0  0
    0.7897   -0.9371   -0.9024 N   0  0  0  0  0  0  0  0  0  0  0  0
    3.2038   -2.1928   -1.3872 H   0  0  0  0  0  0  0  0  0  0  0  0
    4.0388   -0.6536   -1.6546 H   0  0  0  0  0  0  0  0  0  0  0  0
    2.7907   -1.1875   -2.7926 H   0  0  0  0  0  0  0  0  0  0  0  0
    3.0572    1.2707    0.0104 H   0  0  0  0  0  0  0  0  0  0  0  0
    1.2513    3.4849    2.1250 H   0  0  0  0  0  0  0  0  0  0  0  0
   -1.9981    0.9757   -1.4623 H   0  0  0  0  0  0  0  0  0  0  0  0
   -2.0520    1.7254    0.1265 H   0  0  0  0  0  0  0  0  0  0  0  0
   -3.2723    0.5446   -0.3116 H   0  0  0  0  0  0  0  0  0  0  0  0
   -1.2372   -2.5286   -0.3240 H   0  0  0  0  0  0  0  0  0  0  0  0
   -2.8559   -1.8413   -0.4777 H   0  0  0  0  0  0  0  0  0  0  0  0
   -1.6496   -1.5250   -1.7270 H   0  0  0  0  0  0  0  0  0  0  0  0
   -0.9874   -1.4839    1.9763 H   0  0  0  0  0  0  0  0  0  0  0  0
   -2.6606   -0.9441    1.7696 H   0  0  0  0  0  0  0  0  0  0  0  0
   -1.4227    0.1938    2.2676 H   0  0  0  0  0  0  0  0  0  0  0  0
  1  2  1  0
  2  3  1  0
  3  4  2  0
  4  5  1  0
  5  6  2  0
  5  7  1  0
  4  8  1  0
  8  9  1  0
  9 10  1  0
  9 11  1  0
  9 12  1  0
  8 13  1  0
 13  2  2  0
  1 14  1  0
  1 15  1  0
  1 16  1  0
  3 17  1  0
  7 18  1  0
 10 19  1  0
 10 20  1  0
 10 21  1  0
 11 22  1  0
 11 23  1  0
 11 24  1  0
 12 25  1  0
 12 26  1  0
 12 27  1  0
M  END
$$$$
