
     RDKit          3D

 44 46  0  0  0  0  0  0  0  0999 V2000
    5.4620    1.4071    2.9593 C   0  0  0  0  0  0  0  0  0  0  0  0
    4.8029    0.4682    1.9920 C   0  0  0  0  0  0  0  0  0  0  0  0
    5.1517    0.4893    0.6365 C   0  0  0  0  0  0  0  0  0  0  0  0
    4.5179   -0.3643   -0.2699 C   0  0  0  0  0  0  0  0  0  0  0  0
    3.5132   -1.2357    0.1654 C   0  0  0  0  0  0  0  0  0  0  0  0
    2.8635   -2.1252   -0.8375 C   0  0  0  0  0  0  0  0  0  0  0  0
    3.4402   -2.4141   -1.8798 O   0  0  0  0  0  0  0  0  0  0  0  0
    1.5832   -2.5497   -0.5438 N   0  0  0  0  0  0  0  0  0  0  0  0
    0.8056   -3.2569   -1.5531 C   0  0  0  0  0  0  0  0  0  0  0  0
    0.0148   -2.3447   -2.4894 C   0  0  0  0  0  0  0  0  0  0  0  0
   -0.6483   -2.7579   -3.4344 O   0  0  0  0  0  0  0  0  0  0  0  0
    0.0878   -1.0413   -2.1042 O   0  0  0  0  0  0  0  0  0  0  0  0
   -0.6854   -0.1249   -2.8932 C   0  0  0  0  0  0  0  0  0  0  0  0
   -2.1008   -0.0384   -2.4173 C   0  0  0  0  0  0  0  0  0  0  0  0
   -3.1954   -0.6618   -2.9811 C   0  0  0  0  0  0  0  0  0  0  0  0
   -4.6068   -0.2880   -2.0941 S   0  0  0  0  0  0  0  0  0  0  0  0
   -3.6787    0.6754   -1.0037 C   0  0  0  0  0  0  0  0  0  0  0  0
   -4.2906    1.3873    0.1391 C   0  0  0  0  0  0  0  0  0  0  0  0
   -5.6429    1.2634    0.4999 C   0  0  0  0  0  0  0  0  0  0  0  0
   -6.1647    1.9626    1.5946 C   0  0  0  0  0  0  0  0  0  0  0  0
   -5.3446    2.7972    2.3488 C   0  0  0  0  0  0  0  0  0  0  0  0
   -4.0019    2.9341    2.0115 C   0  0  0  0  0  0  0  0  0  0  0  0
   -3.4822    2.2351    0.9183 C   0  0  0  0  0  0  0  0  0  0  0  0
   -2.3888    0.7182   -1.2894 N   0  0  0  0  0  0  0  0  0  0  0  0
    3.1613   -1.2607    1.5202 C   0  0  0  0  0  0  0  0  0  0  0  0
    3.7980   -0.4058    2.4251 C   0  0  0  0  0  0  0  0  0  0  0  0
    5.5050    0.9683    3.9618 H   0  0  0  0  0  0  0  0  0  0  0  0
    6.4918    1.6222    2.6551 H   0  0  0  0  0  0  0  0  0  0  0  0
    4.9034    2.3468    3.0077 H   0  0  0  0  0  0  0  0  0  0  0  0
    5.9226    1.1672    0.2763 H   0  0  0  0  0  0  0  0  0  0  0  0
    4.8069   -0.3439   -1.3189 H   0  0  0  0  0  0  0  0  0  0  0  0
    1.0568   -2.0050    0.1275 H   0  0  0  0  0  0  0  0  0  0  0  0
    1.4680   -3.8844   -2.1567 H   0  0  0  0  0  0  0  0  0  0  0  0
    0.0893   -3.8828   -1.0129 H   0  0  0  0  0  0  0  0  0  0  0  0
   -0.2136    0.8585   -2.7859 H   0  0  0  0  0  0  0  0  0  0  0  0
   -0.6304   -0.3754   -3.9598 H   0  0  0  0  0  0  0  0  0  0  0  0
   -3.2245   -1.3101   -3.8463 H   0  0  0  0  0  0  0  0  0  0  0  0
   -6.3202    0.6214   -0.0573 H   0  0  0  0  0  0  0  0  0  0  0  0
   -7.2143    1.8528    1.8563 H   0  0  0  0  0  0  0  0  0  0  0  0
   -5.7517    3.3399    3.1980 H   0  0  0  0  0  0  0  0  0  0  0  0
   -3.3556    3.5842    2.5955 H   0  0  0  0  0  0  0  0  0  0  0  0
   -2.4283    2.3575    0.6713 H   0  0  0  0  0  0  0  0  0  0  0  0
    2.4125   -1.9526    1.8943 H   0  0  0  0  0  0  0  0  0  0  0  0
    3.5113   -0.4328    3.4745 H   0  0  0  0  0  0  0  0  0  0  0  0
  1  2  1  0
  2  3  2  0
  3  4  1  0
  4  5  2  0
  5  6  1  0
  6  7  2  0
  6  8  1  0
  8  9  1  0
  9 10  1  0
 10 11  2  0
 10 12  1  0
 12 13  1  0
 13 14  1  0
 14 15  2  0
 15 16  1  0
 16 17  1  0
 17 18  1  0
 18 19  2  0
 19 20  1  0
 20 21  2  0
 21 22  1  0
 22 23  2  0
 17 24  2  0
  5 25  1  0
 25 26  2  0
 26  2  1  0
 24 14  1  0
 23 18  1  0
  1 27  1  0
  1 28  1  0
  1 29  1  0
  3 30  1  0
  4 31  1  0
  8 32  1  0
  9 33  1  0
  9 34  1  0
 13 35  1  0
 13 36  1  0
 15 37  1  0
 19 38  1  0
 20 39  1  0
 21 40  1  0
 22 41  1  0
 23 42  1  0
 25 43  1  0
 26 44  1  0
M  END
$$$$
