
     RDKit          3D

 54 57  0  0  0  0  0  0  0  0999 V2000
    7.8322   -0.7946    2.1681 C   0  0  0  0  0  0  0  0  0  0  0  0
    6.3837   -0.5551    2.6030 C   0  0  0  0  0  0  0  0  0  0  0  0
    6.2438    0.7967    3.3101 C   0  0  0  0  0  0  0  0  0  0  0  0
    5.4000   -0.6675    1.4526 C   0  0  0  0  0  0  0  0  0  0  0  0
    4.2647   -1.4783    1.5826 C   0  0  0  0  0  0  0  0  0  0  0  0
    3.3404   -1.5856    0.5379 C   0  0  0  0  0  0  0  0  0  0  0  0
    3.5273   -0.8851   -0.6590 C   0  0  0  0  0  0  0  0  0  0  0  0
    2.5529   -1.0599   -1.6603 N   0  0  0  0  0  0  0  0  0  0  0  0
    2.4696   -0.4278   -2.8894 C   0  0  0  0  0  0  0  0  0  0  0  0
    3.2247    0.4397   -3.3221 O   0  0  0  0  0  0  0  0  0  0  0  0
    1.2896   -0.9292   -3.7327 C   0  0  0  0  0  0  0  0  0  0  0  0
    0.0300   -0.3599   -3.3691 O   0  0  0  0  0  0  0  0  0  0  0  0
   -0.5519   -0.8914   -2.2681 C   0  0  0  0  0  0  0  0  0  0  0  0
   -0.0779   -1.7783   -1.5725 O   0  0  0  0  0  0  0  0  0  0  0  0
   -1.8576   -0.2344   -1.9909 C   0  0  0  0  0  0  0  0  0  0  0  0
   -2.4276    0.7019   -2.8621 C   0  0  0  0  0  0  0  0  0  0  0  0
   -3.6623    1.2887   -2.5571 C   0  0  0  0  0  0  0  0  0  0  0  0
   -4.3503    0.9540   -1.3787 C   0  0  0  0  0  0  0  0  0  0  0  0
   -3.7725    0.0273   -0.5235 C   0  0  0  0  0  0  0  0  0  0  0  0
   -2.5368   -0.5721   -0.8155 C   0  0  0  0  0  0  0  0  0  0  0  0
   -4.5706   -0.4219    0.9668 S   0  0  0  0  0  6  0  0  0  0  0  0
   -4.9353   -1.8182    0.8276 O   0  0  0  0  0  0  0  0  0  0  0  0
   -3.7139    0.0443    2.0389 O   0  0  0  0  0  0  0  0  0  0  0  0
   -6.0664    0.4712    1.1016 C   0  0  0  0  0  0  0  0  0  0  0  0
   -6.8588    0.2616    2.2394 C   0  0  0  0  0  0  0  0  0  0  0  0
   -8.0594    0.9532    2.3794 C   0  0  0  0  0  0  0  0  0  0  0  0
   -8.4630    1.8457    1.3890 C   0  0  0  0  0  0  0  0  0  0  0  0
   -7.6653    2.0457    0.2586 C   0  0  0  0  0  0  0  0  0  0  0  0
   -6.4518    1.3555    0.1033 C   0  0  0  0  0  0  0  0  0  0  0  0
   -5.6536    1.6099   -1.1185 C   0  0  0  0  0  0  0  0  0  0  0  0
   -6.0880    2.3984   -1.9533 O   0  0  0  0  0  0  0  0  0  0  0  0
    4.6521   -0.0732   -0.7928 C   0  0  0  0  0  0  0  0  0  0  0  0
    5.5752    0.0384    0.2551 C   0  0  0  0  0  0  0  0  0  0  0  0
    7.9352   -1.7617    1.6623 H   0  0  0  0  0  0  0  0  0  0  0  0
    8.4939   -0.8004    3.0407 H   0  0  0  0  0  0  0  0  0  0  0  0
    8.1934   -0.0194    1.4859 H   0  0  0  0  0  0  0  0  0  0  0  0
    6.1475   -1.3370    3.3381 H   0  0  0  0  0  0  0  0  0  0  0  0
    6.4706    1.6358    2.6396 H   0  0  0  0  0  0  0  0  0  0  0  0
    6.9243    0.8546    4.1676 H   0  0  0  0  0  0  0  0  0  0  0  0
    5.2226    0.9371    3.6851 H   0  0  0  0  0  0  0  0  0  0  0  0
    4.0864   -2.0336    2.5008 H   0  0  0  0  0  0  0  0  0  0  0  0
    2.4723   -2.2257    0.6770 H   0  0  0  0  0  0  0  0  0  0  0  0
    1.7636   -1.6589   -1.4144 H   0  0  0  0  0  0  0  0  0  0  0  0
    1.2487   -2.0269   -3.7119 H   0  0  0  0  0  0  0  0  0  0  0  0
    1.4824   -0.6518   -4.7764 H   0  0  0  0  0  0  0  0  0  0  0  0
   -1.9270    0.9908   -3.7855 H   0  0  0  0  0  0  0  0  0  0  0  0
   -4.0838    2.0152   -3.2542 H   0  0  0  0  0  0  0  0  0  0  0  0
   -2.1080   -1.2962   -0.1217 H   0  0  0  0  0  0  0  0  0  0  0  0
   -6.5435   -0.4369    3.0131 H   0  0  0  0  0  0  0  0  0  0  0  0
   -8.6799    0.7973    3.2585 H   0  0  0  0  0  0  0  0  0  0  0  0
   -9.3998    2.3881    1.4926 H   0  0  0  0  0  0  0  0  0  0  0  0
   -8.0014    2.7485   -0.5039 H   0  0  0  0  0  0  0  0  0  0  0  0
    4.8455    0.4900   -1.7009 H   0  0  0  0  0  0  0  0  0  0  0  0
    6.4336    0.6917    0.1177 H   0  0  0  0  0  0  0  0  0  0  0  0
  1  2  1  0
  2  3  1  0
  2  4  1  0
  4  5  2  0
  5  6  1  0
  6  7  2  0
  7  8  1  0
  8  9  1  0
  9 10  2  0
  9 11  1  0
 11 12  1  0
 12 13  1  0
 13 14  2  0
 13 15  1  0
 15 16  2  0
 16 17  1  0
 17 18  2  0
 18 19  1  0
 19 20  2  0
 19 21  1  0
 21 22  2  0
 21 23  2  0
 21 24  1  0
 24 25  2  0
 25 26  1  0
 26 27  2  0
 27 28  1  0
 28 29  2  0
 29 30  1  0
 30 31  2  0
  7 32  1  0
 32 33  2  0
 33  4  1  0
 20 15  1  0
 29 24  1  0
 30 18  1  0
  1 34  1  0
  1 35  1  0
  1 36  1  0
  2 37  1  0
  3 38  1  0
  3 39  1  0
  3 40  1  0
  5 41  1  0
  6 42  1  0
  8 43  1  0
 11 44  1  0
 11 45  1  0
 16 46  1  0
 17 47  1  0
 20 48  1  0
 25 49  1  0
 26 50  1  0
 27 51  1  0
 28 52  1  0
 32 53  1  0
 33 54  1  0
M  END
$$$$
