
     RDKit          3D

 45 47  0  0  0  0  0  0  0  0999 V2000
    8.0849   -0.2846   -0.8969 C   0  0  0  0  0  0  0  0  0  0  0  0
    7.5059   -0.9821    0.3251 C   0  0  0  0  0  0  0  0  0  0  0  0
    6.1111   -0.4793    0.7048 C   0  0  0  0  0  0  0  0  0  0  0  0
    5.0314   -0.8425   -0.3179 C   0  0  0  0  0  0  0  0  0  0  0  0
    3.6947   -0.3196    0.1041 C   0  0  0  0  0  0  0  0  0  0  0  0
    3.0677   -0.6587    1.2112 N   0  0  0  0  0  0  0  0  0  0  0  0
    1.8613   -0.0003    1.3428 N   0  0  0  0  0  0  0  0  0  0  0  0
    1.6111    0.7889    0.3219 C   0  0  0  0  0  0  0  0  0  0  0  0
    0.4702    1.5439    0.2415 N   0  0  0  0  0  0  0  0  0  0  0  0
    0.0569    2.3185   -0.8171 C   0  0  0  0  0  0  0  0  0  0  0  0
    0.6309    2.4710   -1.8917 O   0  0  0  0  0  0  0  0  0  0  0  0
   -1.2575    3.0549   -0.5328 C   0  0  0  0  0  0  0  0  0  0  0  0
   -2.0049    2.5310    0.5582 O   0  0  0  0  0  0  0  0  0  0  0  0
   -2.9030    1.5354    0.2939 C   0  0  0  0  0  0  0  0  0  0  0  0
   -2.9434    0.7511   -0.8591 C   0  0  0  0  0  0  0  0  0  0  0  0
   -3.9148   -0.2532   -1.0010 C   0  0  0  0  0  0  0  0  0  0  0  0
   -4.8549   -0.4940    0.0074 C   0  0  0  0  0  0  0  0  0  0  0  0
   -5.8988   -1.5255   -0.0783 C   0  0  0  0  0  0  0  0  0  0  0  0
   -6.0029   -2.3963   -1.2966 C   0  0  0  0  0  0  0  0  0  0  0  0
   -6.7473   -1.6612    0.9525 C   0  0  0  0  0  0  0  0  0  0  0  0
   -6.6874   -0.8329    2.1681 C   0  0  0  0  0  0  0  0  0  0  0  0
   -7.4915   -0.9948    3.0792 O   0  0  0  0  0  0  0  0  0  0  0  0
   -5.6899    0.1260    2.2212 O   0  0  0  0  0  0  0  0  0  0  0  0
   -4.7857    0.2963    1.1547 C   0  0  0  0  0  0  0  0  0  0  0  0
   -3.8254    1.2968    1.3110 C   0  0  0  0  0  0  0  0  0  0  0  0
    2.8339    0.8093   -0.8633 S   0  0  0  0  0  0  0  0  0  0  0  0
    8.0527    0.8040   -0.7817 H   0  0  0  0  0  0  0  0  0  0  0  0
    9.1292   -0.5792   -1.0397 H   0  0  0  0  0  0  0  0  0  0  0  0
    7.5392   -0.5522   -1.8072 H   0  0  0  0  0  0  0  0  0  0  0  0
    8.1786   -0.8105    1.1732 H   0  0  0  0  0  0  0  0  0  0  0  0
    7.4825   -2.0627    0.1475 H   0  0  0  0  0  0  0  0  0  0  0  0
    5.8444   -0.9134    1.6777 H   0  0  0  0  0  0  0  0  0  0  0  0
    6.1404    0.6060    0.8570 H   0  0  0  0  0  0  0  0  0  0  0  0
    4.9656   -1.9326   -0.4173 H   0  0  0  0  0  0  0  0  0  0  0  0
    5.2985   -0.4523   -1.3055 H   0  0  0  0  0  0  0  0  0  0  0  0
   -0.1501    1.4495    1.0377 H   0  0  0  0  0  0  0  0  0  0  0  0
   -1.8590    3.1160   -1.4486 H   0  0  0  0  0  0  0  0  0  0  0  0
   -0.9860    4.0837   -0.2670 H   0  0  0  0  0  0  0  0  0  0  0  0
   -2.2329    0.8798   -1.6712 H   0  0  0  0  0  0  0  0  0  0  0  0
   -3.9118   -0.8383   -1.9172 H   0  0  0  0  0  0  0  0  0  0  0  0
   -5.0889   -2.9851   -1.4324 H   0  0  0  0  0  0  0  0  0  0  0  0
   -6.8384   -3.1022   -1.2246 H   0  0  0  0  0  0  0  0  0  0  0  0
   -6.1704   -1.7894   -2.1938 H   0  0  0  0  0  0  0  0  0  0  0  0
   -7.5399   -2.4012    0.9504 H   0  0  0  0  0  0  0  0  0  0  0  0
   -3.8062    1.8961    2.2199 H   0  0  0  0  0  0  0  0  0  0  0  0
  1  2  1  0
  2  3  1  0
  3  4  1  0
  4  5  1  0
  5  6  2  0
  6  7  1  0
  7  8  2  0
  8  9  1  0
  9 10  1  0
 10 11  2  0
 10 12  1  0
 12 13  1  0
 13 14  1  0
 14 15  2  0
 15 16  1  0
 16 17  2  0
 17 18  1  0
 18 19  1  0
 18 20  2  0
 20 21  1  0
 21 22  2  0
 21 23  1  0
 23 24  1  0
 24 25  2  0
  8 26  1  0
 26  5  1  0
 25 14  1  0
 24 17  1  0
  1 27  1  0
  1 28  1  0
  1 29  1  0
  2 30  1  0
  2 31  1  0
  3 32  1  0
  3 33  1  0
  4 34  1  0
  4 35  1  0
  9 36  1  0
 12 37  1  0
 12 38  1  0
 15 39  1  0
 16 40  1  0
 19 41  1  0
 19 42  1  0
 19 43  1  0
 20 44  1  0
 25 45  1  0
M  END
$$$$
