
     RDKit          3D

 62 66  0  0  0  0  0  0  0  0999 V2000
   -4.7612    6.1399   -1.8319 C   0  0  0  0  0  0  0  0  0  0  0  0
   -3.8021    5.1326   -1.5366 O   0  0  0  0  0  0  0  0  0  0  0  0
   -4.2843    3.9040   -1.1752 C   0  0  0  0  0  0  0  0  0  0  0  0
   -5.6222    3.5576   -1.0459 C   0  0  0  0  0  0  0  0  0  0  0  0
   -5.9900    2.2612   -0.6672 C   0  0  0  0  0  0  0  0  0  0  0  0
   -4.9866    1.3062   -0.4142 C   0  0  0  0  0  0  0  0  0  0  0  0
   -5.2162   -0.3287    0.0605 S   0  0  0  0  0  0  0  0  0  0  0  0
   -3.5362   -0.6398    0.1120 C   0  0  0  0  0  0  0  0  0  0  0  0
   -3.0885   -1.9799    0.5146 C   0  0  0  0  0  0  0  0  0  0  0  0
   -2.7215   -2.1906    1.8541 C   0  0  0  0  0  0  0  0  0  0  0  0
   -2.2805   -3.4421    2.2796 C   0  0  0  0  0  0  0  0  0  0  0  0
   -2.2001   -4.4920    1.3698 C   0  0  0  0  0  0  0  0  0  0  0  0
   -2.5572   -4.2950    0.0325 C   0  0  0  0  0  0  0  0  0  0  0  0
   -3.0016   -3.0427   -0.4085 C   0  0  0  0  0  0  0  0  0  0  0  0
   -3.3568   -2.7581   -1.7035 O   0  0  0  0  0  0  0  0  0  0  0  0
   -3.3009   -3.8164   -2.6493 C   0  0  0  0  0  0  0  0  0  0  0  0
   -2.7959    0.4823   -0.2223 C   0  0  0  0  0  0  0  0  0  0  0  0
   -1.3373    0.4637   -0.2292 C   0  0  0  0  0  0  0  0  0  0  0  0
   -0.6409   -0.2469   -1.2101 C   0  0  0  0  0  0  0  0  0  0  0  0
    0.7558   -0.2521   -1.2086 C   0  0  0  0  0  0  0  0  0  0  0  0
    1.4715    0.4524   -0.2370 C   0  0  0  0  0  0  0  0  0  0  0  0
    2.8305    0.3654   -0.3570 O   0  0  0  0  0  0  0  0  0  0  0  0
    3.6192    1.0559    0.6149 C   0  0  0  0  0  0  0  0  0  0  0  0
    5.1153    0.8594    0.2970 C   0  0  0  0  0  0  0  0  0  0  0  0
    5.6002   -0.5197    0.5196 N   0  0  0  0  0  0  0  0  0  0  0  0
    6.9395   -0.7184   -0.0550 C   0  0  0  0  0  0  0  0  0  0  0  0
    7.9196   -0.2264    0.9980 C   0  0  0  0  0  0  0  0  0  0  0  0
    7.1719   -0.3520    2.3176 C   0  0  0  0  0  0  0  0  0  0  0  0
    5.7785   -0.8401    1.9431 C   0  0  0  0  0  0  0  0  0  0  0  0
    0.7758    1.1663    0.7396 C   0  0  0  0  0  0  0  0  0  0  0  0
   -0.6239    1.1727    0.7430 C   0  0  0  0  0  0  0  0  0  0  0  0
   -3.6323    1.6212   -0.5315 C   0  0  0  0  0  0  0  0  0  0  0  0
   -3.2967    2.9445   -0.9220 C   0  0  0  0  0  0  0  0  0  0  0  0
   -4.2173    7.0479   -2.1102 H   0  0  0  0  0  0  0  0  0  0  0  0
   -5.3712    6.3738   -0.9531 H   0  0  0  0  0  0  0  0  0  0  0  0
   -5.3869    5.8524   -2.6834 H   0  0  0  0  0  0  0  0  0  0  0  0
   -6.4181    4.2710   -1.2330 H   0  0  0  0  0  0  0  0  0  0  0  0
   -7.0392    1.9959   -0.5703 H   0  0  0  0  0  0  0  0  0  0  0  0
   -2.7780   -1.3732    2.5694 H   0  0  0  0  0  0  0  0  0  0  0  0
   -1.9978   -3.5951    3.3177 H   0  0  0  0  0  0  0  0  0  0  0  0
   -1.8535   -5.4685    1.6991 H   0  0  0  0  0  0  0  0  0  0  0  0
   -2.4715   -5.1410   -0.6410 H   0  0  0  0  0  0  0  0  0  0  0  0
   -3.9812   -4.6294   -2.3745 H   0  0  0  0  0  0  0  0  0  0  0  0
   -2.2757   -4.1806   -2.7733 H   0  0  0  0  0  0  0  0  0  0  0  0
   -3.6310   -3.4197   -3.6144 H   0  0  0  0  0  0  0  0  0  0  0  0
   -1.1778   -0.8000   -1.9771 H   0  0  0  0  0  0  0  0  0  0  0  0
    1.2923   -0.8113   -1.9712 H   0  0  0  0  0  0  0  0  0  0  0  0
    3.3845    0.6996    1.6236 H   0  0  0  0  0  0  0  0  0  0  0  0
    3.4038    2.1301    0.5547 H   0  0  0  0  0  0  0  0  0  0  0  0
    5.2495    1.1066   -0.7641 H   0  0  0  0  0  0  0  0  0  0  0  0
    5.7019    1.5820    0.8774 H   0  0  0  0  0  0  0  0  0  0  0  0
    7.0819   -0.2274   -1.0238 H   0  0  0  0  0  0  0  0  0  0  0  0
    7.0901   -1.7925   -0.2224 H   0  0  0  0  0  0  0  0  0  0  0  0
    8.1867    0.8218    0.8200 H   0  0  0  0  0  0  0  0  0  0  0  0
    8.8435   -0.8133    0.9963 H   0  0  0  0  0  0  0  0  0  0  0  0
    7.6689   -1.0521    2.9970 H   0  0  0  0  0  0  0  0  0  0  0  0
    7.1253    0.6236    2.8147 H   0  0  0  0  0  0  0  0  0  0  0  0
    5.7331   -1.9305    2.0592 H   0  0  0  0  0  0  0  0  0  0  0  0
    5.0079   -0.4270    2.6007 H   0  0  0  0  0  0  0  0  0  0  0  0
    1.2882    1.7279    1.5126 H   0  0  0  0  0  0  0  0  0  0  0  0
   -1.1529    1.7323    1.5111 H   0  0  0  0  0  0  0  0  0  0  0  0
   -2.2503    3.2206   -1.0324 H   0  0  0  0  0  0  0  0  0  0  0  0
  1  2  1  0
  2  3  1  0
  3  4  2  0
  4  5  1  0
  5  6  2  0
  6  7  1  0
  7  8  1  0
  8  9  1  0
  9 10  2  0
 10 11  1  0
 11 12  2  0
 12 13  1  0
 13 14  2  0
 14 15  1  0
 15 16  1  0
  8 17  2  0
 17 18  1  0
 18 19  2  0
 19 20  1  0
 20 21  2  0
 21 22  1  0
 22 23  1  0
 23 24  1  0
 24 25  1  0
 25 26  1  0
 26 27  1  0
 27 28  1  0
 28 29  1  0
 21 30  1  0
 30 31  2  0
 17 32  1  0
 32 33  2  0
 33  3  1  0
 32  6  1  0
 14  9  1  0
 31 18  1  0
 29 25  1  0
  1 34  1  0
  1 35  1  0
  1 36  1  0
  4 37  1  0
  5 38  1  0
 10 39  1  0
 11 40  1  0
 12 41  1  0
 13 42  1  0
 16 43  1  0
 16 44  1  0
 16 45  1  0
 19 46  1  0
 20 47  1  0
 23 48  1  0
 23 49  1  0
 24 50  1  0
 24 51  1  0
 26 52  1  0
 26 53  1  0
 27 54  1  0
 27 55  1  0
 28 56  1  0
 28 57  1  0
 29 58  1  0
 29 59  1  0
 30 60  1  0
 31 61  1  0
 33 62  1  0
M  END
$$$$
