
     RDKit          3D

 36 38  0  0  0  0  0  0  0  0999 V2000
   -5.1401   -0.7350   -0.9415 C   0  0  0  0  0  0  0  0  0  0  0  0
   -4.0246    0.1465   -0.4550 C   0  0  0  0  0  0  0  0  0  0  0  0
   -4.3208    1.3252    0.2531 C   0  0  0  0  0  0  0  0  0  0  0  0
   -3.2999    2.1394    0.7444 C   0  0  0  0  0  0  0  0  0  0  0  0
   -1.9859    1.7559    0.5267 C   0  0  0  0  0  0  0  0  0  0  0  0
   -1.6582    0.5777   -0.1751 C   0  0  0  0  0  0  0  0  0  0  0  0
   -2.6856   -0.2325   -0.6547 C   0  0  0  0  0  0  0  0  0  0  0  0
   -0.2529    0.3268   -0.2913 N   0  0  0  0  0  0  0  0  0  0  0  0
    0.1117   -0.2007   -1.6105 C   0  0  0  0  0  0  0  0  0  0  0  0
    0.4647    1.3458    0.3567 C   0  0  0  0  0  0  0  0  0  0  0  0
    1.7815    1.4048    0.6272 C   0  0  0  0  0  0  0  0  0  0  0  0
    2.7586    0.3544    0.3483 C   0  0  0  0  0  0  0  0  0  0  0  0
    3.7914    0.6188   -0.5608 C   0  0  0  0  0  0  0  0  0  0  0  0
    4.7249   -0.3642   -0.8611 C   0  0  0  0  0  0  0  0  0  0  0  0
    4.6210   -1.6020   -0.2479 C   0  0  0  0  0  0  0  0  0  0  0  0
    3.5965   -1.8284    0.6621 C   0  0  0  0  0  0  0  0  0  0  0  0
    2.6953   -0.8615    0.9616 N   0  0  0  0  0  4  0  0  0  0  0  0
    1.6614   -1.1679    1.9753 C   0  0  0  0  0  0  0  0  0  0  0  0
   -0.5358    2.6516    1.0446 S   0  0  0  0  0  0  0  0  0  0  0  0
   -5.4052   -1.4625   -0.1683 H   0  0  0  0  0  0  0  0  0  0  0  0
   -6.0265   -0.1420   -1.1901 H   0  0  0  0  0  0  0  0  0  0  0  0
   -4.8448   -1.2728   -1.8486 H   0  0  0  0  0  0  0  0  0  0  0  0
   -5.3569    1.6144    0.4235 H   0  0  0  0  0  0  0  0  0  0  0  0
   -3.5366    3.0521    1.2826 H   0  0  0  0  0  0  0  0  0  0  0  0
   -2.4730   -1.1633   -1.1705 H   0  0  0  0  0  0  0  0  0  0  0  0
   -0.2208    0.4695   -2.4122 H   0  0  0  0  0  0  0  0  0  0  0  0
    1.1930   -0.3201   -1.7140 H   0  0  0  0  0  0  0  0  0  0  0  0
   -0.3162   -1.1957   -1.7721 H   0  0  0  0  0  0  0  0  0  0  0  0
    2.1966    2.2715    1.1403 H   0  0  0  0  0  0  0  0  0  0  0  0
    3.8635    1.5906   -1.0479 H   0  0  0  0  0  0  0  0  0  0  0  0
    5.5256   -0.1652   -1.5722 H   0  0  0  0  0  0  0  0  0  0  0  0
    5.3399   -2.3875   -0.4726 H   0  0  0  0  0  0  0  0  0  0  0  0
    3.4929   -2.7873    1.1634 H   0  0  0  0  0  0  0  0  0  0  0  0
    2.0277   -1.9646    2.6295 H   0  0  0  0  0  0  0  0  0  0  0  0
    1.4727   -0.2870    2.5922 H   0  0  0  0  0  0  0  0  0  0  0  0
    0.7649   -1.5052    1.4519 H   0  0  0  0  0  0  0  0  0  0  0  0
  1  2  1  0
  2  3  2  0
  3  4  1  0
  4  5  2  0
  5  6  1  0
  6  7  2  0
  6  8  1  0
  8  9  1  0
  8 10  1  0
 10 11  2  3
 11 12  1  0
 12 13  2  0
 13 14  1  0
 14 15  2  0
 15 16  1  0
 16 17  2  0
 17 18  1  0
 10 19  1  0
  7  2  1  0
 17 12  1  0
 19  5  1  0
  1 20  1  0
  1 21  1  0
  1 22  1  0
  3 23  1  0
  4 24  1  0
  7 25  1  0
  9 26  1  0
  9 27  1  0
  9 28  1  0
 11 29  1  0
 13 30  1  0
 14 31  1  0
 15 32  1  0
 16 33  1  0
 18 34  1  0
 18 35  1  0
 18 36  1  0
M  CHG  1  17   1
M  END
$$$$
