
     RDKit          3D

 28 29  0  0  0  0  0  0  0  0999 V2000
    5.7031   -0.5353    0.4451 C   0  0  0  0  0  0  0  0  0  0  0  0
    4.3990   -0.6803    1.2048 C   0  0  0  0  0  0  0  0  0  0  0  0
    3.3267   -0.3374    0.3210 O   0  0  0  0  0  0  0  0  0  0  0  0
    2.0910   -0.4263    0.8825 C   0  0  0  0  0  0  0  0  0  0  0  0
    1.8583   -0.7641    2.0359 O   0  0  0  0  0  0  0  0  0  0  0  0
    1.0779   -0.0643   -0.0766 C   0  0  0  0  0  0  0  0  0  0  0  0
    1.1692    0.3348   -1.3989 C   0  0  0  0  0  0  0  0  0  0  0  0
   -0.1444    0.5690   -1.8749 C   0  0  0  0  0  0  0  0  0  0  0  0
   -1.0199    0.3106   -0.8394 C   0  0  0  0  0  0  0  0  0  0  0  0
   -2.4473    0.4013   -0.8219 C   0  0  0  0  0  0  0  0  0  0  0  0
   -3.3398    0.1483    0.1996 C   0  0  0  0  0  0  0  0  0  0  0  0
   -4.6160    0.4026   -0.3502 C   0  0  0  0  0  0  0  0  0  0  0  0
   -5.9400    0.2924    0.3002 C   0  0  0  0  0  0  0  0  0  0  0  0
   -4.5235    0.7873   -1.6258 N   0  0  0  0  0  0  0  0  0  0  0  0
   -3.1728    0.7862   -1.9188 O   0  0  0  0  0  0  0  0  0  0  0  0
   -0.2641   -0.0712    0.2406 N   0  0  0  0  0  0  0  0  0  0  0  0
    5.7120   -1.1886   -0.4337 H   0  0  0  0  0  0  0  0  0  0  0  0
    6.5558   -0.7877    1.0816 H   0  0  0  0  0  0  0  0  0  0  0  0
    5.8249    0.4901    0.0807 H   0  0  0  0  0  0  0  0  0  0  0  0
    4.3973   -0.0058    2.0684 H   0  0  0  0  0  0  0  0  0  0  0  0
    4.2823   -1.7156    1.5445 H   0  0  0  0  0  0  0  0  0  0  0  0
    2.0880    0.4456   -1.9621 H   0  0  0  0  0  0  0  0  0  0  0  0
   -0.4229    0.8929   -2.8707 H   0  0  0  0  0  0  0  0  0  0  0  0
   -3.1120   -0.1746    1.2035 H   0  0  0  0  0  0  0  0  0  0  0  0
   -5.8426   -0.0330    1.3409 H   0  0  0  0  0  0  0  0  0  0  0  0
   -6.5673   -0.4357   -0.2242 H   0  0  0  0  0  0  0  0  0  0  0  0
   -6.4532    1.2594    0.2953 H   0  0  0  0  0  0  0  0  0  0  0  0
   -0.6196   -0.3268    1.1527 H   0  0  0  0  0  0  0  0  0  0  0  0
  1  2  1  0
  2  3  1  0
  3  4  1  0
  4  5  2  0
  4  6  1  0
  6  7  2  0
  7  8  1  0
  8  9  2  0
  9 10  1  0
 10 11  2  0
 11 12  1  0
 12 13  1  0
 12 14  2  0
 14 15  1  0
  9 16  1  0
 16  6  1  0
 15 10  1  0
  1 17  1  0
  1 18  1  0
  1 19  1  0
  2 20  1  0
  2 21  1  0
  7 22  1  0
  8 23  1  0
 11 24  1  0
 13 25  1  0
 13 26  1  0
 13 27  1  0
 16 28  1  0
M  END
$$$$
