
     RDKit          3D

 31 32  0  0  0  0  0  0  0  0999 V2000
    1.9890   -2.8563    3.4132 C   0  0  0  0  0  0  0  0  0  0  0  0
    0.5593   -2.2300    2.4912 S   0  0  0  0  0  0  0  0  0  0  0  0
    1.3979   -1.4055    1.1487 C   0  0  0  0  0  0  0  0  0  0  0  0
    2.2625   -2.0967    0.2935 C   0  0  0  0  0  0  0  0  0  0  0  0
    2.8886   -1.4327   -0.7630 C   0  0  0  0  0  0  0  0  0  0  0  0
    2.6478   -0.0757   -0.9730 C   0  0  0  0  0  0  0  0  0  0  0  0
    1.7823    0.6169   -0.1277 C   0  0  0  0  0  0  0  0  0  0  0  0
    1.5049    1.9994   -0.3728 N   0  0  0  0  0  0  0  0  0  0  0  0
    0.4241    2.3231   -1.6540 S   0  0  0  0  0  6  0  0  0  0  0  0
    0.7521    1.5231   -2.8153 O   0  0  0  0  0  0  0  0  0  0  0  0
    0.2719    3.7609   -1.7336 O   0  0  0  0  0  0  0  0  0  0  0  0
   -1.1539    1.7715   -1.1501 C   0  0  0  0  0  0  0  0  0  0  0  0
   -2.1582    1.2852   -1.9626 C   0  0  0  0  0  0  0  0  0  0  0  0
   -3.1764    0.9747   -1.1093 N   0  0  0  0  0  0  0  0  0  0  0  0
   -4.4569    0.4198   -1.4680 C   0  0  0  0  0  0  0  0  0  0  0  0
   -2.7741    1.2765    0.1619 C   0  0  0  0  0  0  0  0  0  0  0  0
   -1.5530    1.7638    0.1804 N   0  0  0  0  0  0  0  0  0  0  0  0
    1.1507   -0.0468    0.9259 C   0  0  0  0  0  0  0  0  0  0  0  0
    2.6761   -2.0411    3.6564 H   0  0  0  0  0  0  0  0  0  0  0  0
    1.6411   -3.3066    4.3468 H   0  0  0  0  0  0  0  0  0  0  0  0
    2.5189   -3.6214    2.8399 H   0  0  0  0  0  0  0  0  0  0  0  0
    2.4444   -3.1599    0.4285 H   0  0  0  0  0  0  0  0  0  0  0  0
    3.5546   -1.9740   -1.4301 H   0  0  0  0  0  0  0  0  0  0  0  0
    3.1301    0.4355   -1.8030 H   0  0  0  0  0  0  0  0  0  0  0  0
    1.1436    2.4936    0.4460 H   0  0  0  0  0  0  0  0  0  0  0  0
   -2.2089    1.1399   -3.0333 H   0  0  0  0  0  0  0  0  0  0  0  0
   -4.4674    0.1843   -2.5353 H   0  0  0  0  0  0  0  0  0  0  0  0
   -5.2282    1.1601   -1.2405 H   0  0  0  0  0  0  0  0  0  0  0  0
   -4.6163   -0.4916   -0.8858 H   0  0  0  0  0  0  0  0  0  0  0  0
   -3.4048    1.1216    1.0285 H   0  0  0  0  0  0  0  0  0  0  0  0
    0.4582    0.4882    1.5711 H   0  0  0  0  0  0  0  0  0  0  0  0
  1  2  1  0
  2  3  1  0
  3  4  2  0
  4  5  1  0
  5  6  2  0
  6  7  1  0
  7  8  1  0
  8  9  1  0
  9 10  2  0
  9 11  2  0
  9 12  1  0
 12 13  2  0
 13 14  1  0
 14 15  1  0
 14 16  1  0
 16 17  2  0
  7 18  2  0
 18  3  1  0
 17 12  1  0
  1 19  1  0
  1 20  1  0
  1 21  1  0
  4 22  1  0
  5 23  1  0
  6 24  1  0
  8 25  1  0
 13 26  1  0
 15 27  1  0
 15 28  1  0
 15 29  1  0
 16 30  1  0
 18 31  1  0
M  END
$$$$
