
     RDKit          3D

 54 57  0  0  0  0  0  0  0  0999 V2000
    3.9988    1.4835    4.9013 C   0  0  0  0  0  0  0  0  0  0  0  0
    3.1689    0.6529    3.9359 C   0  0  0  0  0  0  0  0  0  0  0  0
    3.8022    0.5622    2.5555 C   0  0  0  0  0  0  0  0  0  0  0  0
    4.9151    1.0334    2.3234 O   0  0  0  0  0  0  0  0  0  0  0  0
    3.0614   -0.0841    1.5773 N   0  0  0  0  0  0  0  0  0  0  0  0
    1.7409   -0.6908    1.7931 C   0  0  0  0  0  0  0  0  0  0  0  0
    1.3525   -1.6752    0.6760 C   0  0  0  0  0  0  0  0  0  0  0  0
    1.3712   -1.0070   -0.6495 N   0  0  0  0  0  0  0  0  0  0  0  0
    1.2247   -1.9568   -1.6965 C   0  0  0  0  0  0  0  0  0  0  0  0
    2.2794   -2.7768   -2.1217 C   0  0  0  0  0  0  0  0  0  0  0  0
    2.0785   -3.7147   -3.1357 C   0  0  0  0  0  0  0  0  0  0  0  0
    0.8226   -3.8396   -3.7278 C   0  0  0  0  0  0  0  0  0  0  0  0
    0.5913   -5.0009   -4.9783 Cl  0  0  0  0  0  0  0  0  0  0  0  0
   -0.2427   -3.0376   -3.3209 C   0  0  0  0  0  0  0  0  0  0  0  0
   -0.0472   -2.0984   -2.3084 C   0  0  0  0  0  0  0  0  0  0  0  0
   -1.0477   -1.2229   -1.8355 N   0  0  0  0  0  0  0  0  0  0  0  0
   -2.3783   -1.1746   -2.1845 C   0  0  0  0  0  0  0  0  0  0  0  0
   -2.9599   -1.9469   -2.9374 O   0  0  0  0  0  0  0  0  0  0  0  0
   -3.1663   -0.0898   -1.5295 C   0  0  0  0  0  0  0  0  0  0  0  0
   -4.5315   -0.3089   -1.2927 C   0  0  0  0  0  0  0  0  0  0  0  0
   -5.3104    0.6795   -0.6866 C   0  0  0  0  0  0  0  0  0  0  0  0
   -4.7304    1.8933   -0.3268 C   0  0  0  0  0  0  0  0  0  0  0  0
   -3.3668    2.1128   -0.5504 C   0  0  0  0  0  0  0  0  0  0  0  0
   -2.5880    1.1350   -1.1693 C   0  0  0  0  0  0  0  0  0  0  0  0
   -2.7257    3.2738   -0.1991 O   0  0  0  0  0  0  0  0  0  0  0  0
   -3.5175    4.0586    0.7015 C   0  0  0  0  0  0  0  0  0  0  0  0
   -4.9600    4.1289    0.2290 C   0  0  0  0  0  0  0  0  0  0  0  0
   -5.5573    2.8271    0.2424 O   0  0  0  0  0  0  0  0  0  0  0  0
    2.4797   -0.0361   -0.8534 C   0  0  0  0  0  0  0  0  0  0  0  0
    3.5874   -0.1489    0.2084 C   0  0  0  0  0  0  0  0  0  0  0  0
    4.1285    2.5060    4.5309 H   0  0  0  0  0  0  0  0  0  0  0  0
    4.9938    1.0475    5.0396 H   0  0  0  0  0  0  0  0  0  0  0  0
    3.5094    1.5329    5.8791 H   0  0  0  0  0  0  0  0  0  0  0  0
    3.0661   -0.3591    4.3414 H   0  0  0  0  0  0  0  0  0  0  0  0
    2.1750    1.1031    3.8436 H   0  0  0  0  0  0  0  0  0  0  0  0
    1.0170    0.1318    1.8380 H   0  0  0  0  0  0  0  0  0  0  0  0
    1.7265   -1.2067    2.7576 H   0  0  0  0  0  0  0  0  0  0  0  0
    0.3464   -2.0631    0.8758 H   0  0  0  0  0  0  0  0  0  0  0  0
    2.0496   -2.5236    0.6970 H   0  0  0  0  0  0  0  0  0  0  0  0
    3.2609   -2.7022   -1.6632 H   0  0  0  0  0  0  0  0  0  0  0  0
    2.9024   -4.3462   -3.4579 H   0  0  0  0  0  0  0  0  0  0  0  0
   -1.2057   -3.1538   -3.8064 H   0  0  0  0  0  0  0  0  0  0  0  0
   -0.6915   -0.6027   -1.1139 H   0  0  0  0  0  0  0  0  0  0  0  0
   -4.9918   -1.2517   -1.5841 H   0  0  0  0  0  0  0  0  0  0  0  0
   -6.3689    0.5074   -0.5113 H   0  0  0  0  0  0  0  0  0  0  0  0
   -1.5445    1.3523   -1.3759 H   0  0  0  0  0  0  0  0  0  0  0  0
   -3.0812    5.0616    0.7383 H   0  0  0  0  0  0  0  0  0  0  0  0
   -3.4447    3.6164    1.7028 H   0  0  0  0  0  0  0  0  0  0  0  0
   -5.5461    4.7697    0.8954 H   0  0  0  0  0  0  0  0  0  0  0  0
   -5.0312    4.5362   -0.7871 H   0  0  0  0  0  0  0  0  0  0  0  0
    2.0340    0.9643   -0.7827 H   0  0  0  0  0  0  0  0  0  0  0  0
    2.9161   -0.1051   -1.8575 H   0  0  0  0  0  0  0  0  0  0  0  0
    4.1050   -1.1110    0.1159 H   0  0  0  0  0  0  0  0  0  0  0  0
    4.3300    0.6390    0.0448 H   0  0  0  0  0  0  0  0  0  0  0  0
  1  2  1  0
  2  3  1  0
  3  4  2  0
  3  5  1  0
  5  6  1  0
  6  7  1  0
  7  8  1  0
  8  9  1  0
  9 10  2  0
 10 11  1  0
 11 12  2  0
 12 13  1  0
 12 14  1  0
 14 15  2  0
 15 16  1  0
 16 17  1  0
 17 18  2  0
 17 19  1  0
 19 20  2  0
 20 21  1  0
 21 22  2  0
 22 23  1  0
 23 24  2  0
 23 25  1  0
 25 26  1  0
 26 27  1  0
 27 28  1  0
  8 29  1  0
 29 30  1  0
 30  5  1  0
 15  9  1  0
 24 19  1  0
 28 22  1  0
  1 31  1  0
  1 32  1  0
  1 33  1  0
  2 34  1  0
  2 35  1  0
  6 36  1  0
  6 37  1  0
  7 38  1  0
  7 39  1  0
 10 40  1  0
 11 41  1  0
 14 42  1  0
 16 43  1  0
 20 44  1  0
 21 45  1  0
 24 46  1  0
 26 47  1  0
 26 48  1  0
 27 49  1  0
 27 50  1  0
 29 51  1  0
 29 52  1  0
 30 53  1  0
 30 54  1  0
M  END
$$$$
