
     RDKit          3D

 57 60  0  0  0  0  0  0  0  0999 V2000
   -8.0031    0.7373    3.3656 C   0  0  0  0  0  0  0  0  0  0  0  0
   -7.3782    1.9003    2.6105 C   0  0  0  0  0  0  0  0  0  0  0  0
   -6.2382    1.4516    1.7334 C   0  0  0  0  0  0  0  0  0  0  0  0
   -6.4711    1.0428    0.4180 C   0  0  0  0  0  0  0  0  0  0  0  0
   -5.4119    0.6118   -0.3887 C   0  0  0  0  0  0  0  0  0  0  0  0
   -4.0881    0.5735    0.0863 C   0  0  0  0  0  0  0  0  0  0  0  0
   -2.9860    0.1190   -0.7900 C   0  0  0  0  0  0  0  0  0  0  0  0
   -1.6796    0.5542   -0.6542 C   0  0  0  0  0  0  0  0  0  0  0  0
   -0.7142    0.0503   -1.5272 C   0  0  0  0  0  0  0  0  0  0  0  0
    0.6776    0.4965   -1.2896 C   0  0  0  0  0  0  0  0  0  0  0  0
    0.9085    1.6972   -1.3092 O   0  0  0  0  0  0  0  0  0  0  0  0
    1.5544   -0.5336   -1.0067 N   0  0  0  0  0  0  0  0  0  0  0  0
    2.9373   -0.4341   -0.7536 C   0  0  0  0  0  0  0  0  0  0  0  0
    3.6177   -1.6226   -0.4515 C   0  0  0  0  0  0  0  0  0  0  0  0
    4.9919   -1.6146   -0.1944 C   0  0  0  0  0  0  0  0  0  0  0  0
    5.6922   -0.4073   -0.2322 C   0  0  0  0  0  0  0  0  0  0  0  0
    7.4451   -0.3983    0.0415 S   0  0  0  0  0  6  0  0  0  0  0  0
    8.0294    0.7474   -0.6161 O   0  0  0  0  0  0  0  0  0  0  0  0
    7.9305   -1.7361   -0.2345 O   0  0  0  0  0  0  0  0  0  0  0  0
    7.5801   -0.2258    1.6874 N   0  0  0  0  0  0  0  0  0  0  0  0
    7.2261    0.9163    2.4133 C   0  0  0  0  0  0  0  0  0  0  0  0
    7.5623    0.8372    3.8757 C   0  0  0  0  0  0  0  0  0  0  0  0
    6.6712    1.8860    1.9203 O   0  0  0  0  0  0  0  0  0  0  0  0
    5.0313    0.7793   -0.5507 C   0  0  0  0  0  0  0  0  0  0  0  0
    3.6547    0.7637   -0.8027 C   0  0  0  0  0  0  0  0  0  0  0  0
   -1.0561   -0.8418   -2.5651 C   0  0  0  0  0  0  0  0  0  0  0  0
   -0.1575   -1.3437   -3.5426 C   0  0  0  0  0  0  0  0  0  0  0  0
   -0.5888   -2.2311   -4.5264 C   0  0  0  0  0  0  0  0  0  0  0  0
   -1.9190   -2.6228   -4.5548 C   0  0  0  0  0  0  0  0  0  0  0  0
   -2.8100   -2.1146   -3.6068 C   0  0  0  0  0  0  0  0  0  0  0  0
   -2.4067   -1.2260   -2.6189 C   0  0  0  0  0  0  0  0  0  0  0  0
   -3.3306   -0.7698   -1.7565 N   0  0  0  0  0  0  0  0  0  0  0  0
   -3.8757    0.9746    1.4176 C   0  0  0  0  0  0  0  0  0  0  0  0
   -4.9324    1.4063    2.2294 C   0  0  0  0  0  0  0  0  0  0  0  0
   -7.2703    0.2447    4.0137 H   0  0  0  0  0  0  0  0  0  0  0  0
   -8.8264    1.0925    3.9934 H   0  0  0  0  0  0  0  0  0  0  0  0
   -8.4018   -0.0154    2.6770 H   0  0  0  0  0  0  0  0  0  0  0  0
   -8.1407    2.3975    1.9985 H   0  0  0  0  0  0  0  0  0  0  0  0
   -7.0215    2.6550    3.3219 H   0  0  0  0  0  0  0  0  0  0  0  0
   -7.4780    1.0542    0.0070 H   0  0  0  0  0  0  0  0  0  0  0  0
   -5.6285    0.3029   -1.4106 H   0  0  0  0  0  0  0  0  0  0  0  0
   -1.3970    1.2781    0.1034 H   0  0  0  0  0  0  0  0  0  0  0  0
    1.1590   -1.4654   -0.9562 H   0  0  0  0  0  0  0  0  0  0  0  0
    3.0895   -2.5725   -0.4178 H   0  0  0  0  0  0  0  0  0  0  0  0
    5.5032   -2.5496    0.0230 H   0  0  0  0  0  0  0  0  0  0  0  0
    8.0113   -1.0267    2.1363 H   0  0  0  0  0  0  0  0  0  0  0  0
    7.3010    1.7791    4.3659 H   0  0  0  0  0  0  0  0  0  0  0  0
    6.9968    0.0249    4.3400 H   0  0  0  0  0  0  0  0  0  0  0  0
    8.6339    0.6599    4.0002 H   0  0  0  0  0  0  0  0  0  0  0  0
    5.5733    1.7229   -0.5977 H   0  0  0  0  0  0  0  0  0  0  0  0
    3.1749    1.7085   -1.0415 H   0  0  0  0  0  0  0  0  0  0  0  0
    0.8844   -1.0284   -3.5597 H   0  0  0  0  0  0  0  0  0  0  0  0
    0.1090   -2.6046   -5.2719 H   0  0  0  0  0  0  0  0  0  0  0  0
   -2.2731   -3.3112   -5.3180 H   0  0  0  0  0  0  0  0  0  0  0  0
   -3.8550   -2.4158   -3.6446 H   0  0  0  0  0  0  0  0  0  0  0  0
   -2.8813    0.9430    1.8564 H   0  0  0  0  0  0  0  0  0  0  0  0
   -4.7256    1.7034    3.2553 H   0  0  0  0  0  0  0  0  0  0  0  0
  1  2  1  0
  2  3  1  0
  3  4  2  0
  4  5  1  0
  5  6  2  0
  6  7  1  0
  7  8  2  0
  8  9  1  0
  9 10  1  0
 10 11  2  0
 10 12  1  0
 12 13  1  0
 13 14  2  0
 14 15  1  0
 15 16  2  0
 16 17  1  0
 17 18  2  0
 17 19  2  0
 17 20  1  0
 20 21  1  0
 21 22  1  0
 21 23  2  0
 16 24  1  0
 24 25  2  0
  9 26  2  0
 26 27  1  0
 27 28  2  0
 28 29  1  0
 29 30  2  0
 30 31  1  0
 31 32  2  0
  6 33  1  0
 33 34  2  0
 34  3  1  0
 32  7  1  0
 25 13  1  0
 31 26  1  0
  1 35  1  0
  1 36  1  0
  1 37  1  0
  2 38  1  0
  2 39  1  0
  4 40  1  0
  5 41  1  0
  8 42  1  0
 12 43  1  0
 14 44  1  0
 15 45  1  0
 20 46  1  0
 22 47  1  0
 22 48  1  0
 22 49  1  0
 24 50  1  0
 25 51  1  0
 27 52  1  0
 28 53  1  0
 29 54  1  0
 30 55  1  0
 33 56  1  0
 34 57  1  0
M  END
$$$$
