
     RDKit          3D

 74 75  0  0  0  0  0  0  0  0999 V2000
    2.0831    5.0761    3.1474 C   0  0  0  0  0  0  0  0  0  0  0  0
    1.0758    4.3610    2.4462 O   0  0  0  0  0  0  0  0  0  0  0  0
    1.4675    3.2611    1.7258 C   0  0  0  0  0  0  0  0  0  0  0  0
    2.7964    3.0075    1.3745 C   0  0  0  0  0  0  0  0  0  0  0  0
    3.1344    1.8408    0.6971 C   0  0  0  0  0  0  0  0  0  0  0  0
    2.1462    0.9186    0.3662 C   0  0  0  0  0  0  0  0  0  0  0  0
    0.7878    1.1465    0.6799 C   0  0  0  0  0  0  0  0  0  0  0  0
   -0.2095    0.0647    0.2569 C   0  0  0  0  0  0  0  0  0  0  0  0
   -1.6638    0.4677   -0.1163 C   0  0  0  0  0  0  0  0  0  0  0  0
   -1.9485    1.5241   -0.6782 O   0  0  0  0  0  0  0  0  0  0  0  0
   -2.5994   -0.5294    0.1137 N   0  0  0  0  0  0  0  0  0  0  0  0
   -4.0169   -0.4578   -0.2611 C   0  0  0  0  0  0  0  0  0  0  0  0
   -4.7069    0.7428    0.4070 C   0  0  0  0  0  0  0  0  0  0  0  0
   -4.7016   -1.7421    0.2416 C   0  0  0  0  0  0  0  0  0  0  0  0
   -4.1767   -0.3816   -1.7866 C   0  0  0  0  0  0  0  0  0  0  0  0
   -0.0166   -1.2421    0.9856 N   0  0  0  0  0  0  0  0  0  0  0  0
    0.3148   -2.3038    0.1430 C   0  0  0  0  0  0  0  0  0  0  0  0
   -0.1611   -2.3855   -0.9947 O   0  0  0  0  0  0  0  0  0  0  0  0
    1.3623   -3.2977    0.6073 C   0  0  0  0  0  0  0  0  0  0  0  0
    1.9851   -4.0527   -0.5686 C   0  0  0  0  0  0  0  0  0  0  0  0
    2.8982   -3.1205   -1.3465 C   0  0  0  0  0  0  0  0  0  0  0  0
    4.0874   -3.0406   -1.0566 O   0  0  0  0  0  0  0  0  0  0  0  0
    2.2173   -2.3768   -2.2857 N   0  0  0  0  0  0  0  0  0  0  0  0
    2.7648   -1.3549   -3.0348 C   0  0  0  0  0  0  0  0  0  0  0  0
    2.0021   -0.5370   -3.9023 C   0  0  0  0  0  0  0  0  0  0  0  0
    2.9032    0.3602   -4.4175 C   0  0  0  0  0  0  0  0  0  0  0  0
    2.8128    1.4906   -5.3564 C   0  0  0  0  0  0  0  0  0  0  0  0
    4.1320    0.0982   -3.8995 O   0  0  0  0  0  0  0  0  0  0  0  0
    4.0463   -0.9766   -3.0388 N   0  0  0  0  0  0  0  0  0  0  0  0
   -0.2564   -1.3903    2.4763 C   0  0  0  0  0  0  0  0  0  0  0  0
    1.0544   -1.6393    3.2511 C   0  0  0  0  0  0  0  0  0  0  0  0
   -1.2273   -2.5699    2.7331 C   0  0  0  0  0  0  0  0  0  0  0  0
   -0.9198   -0.1683    3.1477 C   0  0  0  0  0  0  0  0  0  0  0  0
    0.4585    2.3479    1.3377 C   0  0  0  0  0  0  0  0  0  0  0  0
   -0.8545    2.5347    1.6982 O   0  0  0  0  0  0  0  0  0  0  0  0
   -1.4019    3.7677    1.2245 C   0  0  0  0  0  0  0  0  0  0  0  0
    2.6894    4.4117    3.7738 H   0  0  0  0  0  0  0  0  0  0  0  0
    1.5840    5.7904    3.8111 H   0  0  0  0  0  0  0  0  0  0  0  0
    2.7096    5.6489    2.4546 H   0  0  0  0  0  0  0  0  0  0  0  0
    3.5952    3.6999    1.6188 H   0  0  0  0  0  0  0  0  0  0  0  0
    4.1695    1.6411    0.4275 H   0  0  0  0  0  0  0  0  0  0  0  0
    2.4508    0.0103   -0.1531 H   0  0  0  0  0  0  0  0  0  0  0  0
    0.1453   -0.1334   -0.7709 H   0  0  0  0  0  0  0  0  0  0  0  0
   -2.1949   -1.4533    0.2139 H   0  0  0  0  0  0  0  0  0  0  0  0
   -4.5592    0.7261    1.4927 H   0  0  0  0  0  0  0  0  0  0  0  0
   -4.3191    1.6976    0.0399 H   0  0  0  0  0  0  0  0  0  0  0  0
   -5.7851    0.7384    0.2121 H   0  0  0  0  0  0  0  0  0  0  0  0
   -4.2514   -2.6346   -0.2101 H   0  0  0  0  0  0  0  0  0  0  0  0
   -4.5977   -1.8449    1.3284 H   0  0  0  0  0  0  0  0  0  0  0  0
   -5.7713   -1.7477    0.0013 H   0  0  0  0  0  0  0  0  0  0  0  0
   -3.6728   -1.2221   -2.2781 H   0  0  0  0  0  0  0  0  0  0  0  0
   -5.2341   -0.4069   -2.0733 H   0  0  0  0  0  0  0  0  0  0  0  0
   -3.7487    0.5384   -2.1980 H   0  0  0  0  0  0  0  0  0  0  0  0
    0.9077   -4.0203    1.2847 H   0  0  0  0  0  0  0  0  0  0  0  0
    2.1582   -2.7550    1.1234 H   0  0  0  0  0  0  0  0  0  0  0  0
    2.5968   -4.8847   -0.1992 H   0  0  0  0  0  0  0  0  0  0  0  0
    1.2289   -4.4867   -1.2330 H   0  0  0  0  0  0  0  0  0  0  0  0
    1.2060   -2.4817   -2.3419 H   0  0  0  0  0  0  0  0  0  0  0  0
    0.9430   -0.5843   -4.1122 H   0  0  0  0  0  0  0  0  0  0  0  0
    1.8311    1.5216   -5.8396 H   0  0  0  0  0  0  0  0  0  0  0  0
    3.5705    1.4044   -6.1419 H   0  0  0  0  0  0  0  0  0  0  0  0
    2.9663    2.4376   -4.8298 H   0  0  0  0  0  0  0  0  0  0  0  0
    1.8417   -0.9499    2.9305 H   0  0  0  0  0  0  0  0  0  0  0  0
    1.4220   -2.6610    3.1369 H   0  0  0  0  0  0  0  0  0  0  0  0
    0.9111   -1.4968    4.3287 H   0  0  0  0  0  0  0  0  0  0  0  0
   -2.2039   -2.3855    2.2736 H   0  0  0  0  0  0  0  0  0  0  0  0
   -0.8626   -3.5170    2.3335 H   0  0  0  0  0  0  0  0  0  0  0  0
   -1.3939   -2.7227    3.8068 H   0  0  0  0  0  0  0  0  0  0  0  0
   -0.2174    0.6601    3.2523 H   0  0  0  0  0  0  0  0  0  0  0  0
   -1.2386   -0.4093    4.1710 H   0  0  0  0  0  0  0  0  0  0  0  0
   -1.8124    0.1733    2.6169 H   0  0  0  0  0  0  0  0  0  0  0  0
   -2.4695    3.6110    1.0428 H   0  0  0  0  0  0  0  0  0  0  0  0
   -1.3176    4.5418    1.9933 H   0  0  0  0  0  0  0  0  0  0  0  0
   -0.9468    4.1022    0.2844 H   0  0  0  0  0  0  0  0  0  0  0  0
  1  2  1  0
  2  3  1  0
  3  4  2  0
  4  5  1  0
  5  6  2  0
  6  7  1  0
  7  8  1  0
  8  9  1  0
  9 10  2  0
  9 11  1  0
 11 12  1  0
 12 13  1  0
 12 14  1  0
 12 15  1  0
  8 16  1  0
 16 17  1  0
 17 18  2  0
 17 19  1  0
 19 20  1  0
 20 21  1  0
 21 22  2  0
 21 23  1  0
 23 24  1  0
 24 25  1  0
 25 26  2  0
 26 27  1  0
 26 28  1  0
 28 29  1  0
 16 30  1  0
 30 31  1  0
 30 32  1  0
 30 33  1  0
  7 34  2  0
 34 35  1  0
 35 36  1  0
 34  3  1  0
 29 24  2  0
  1 37  1  0
  1 38  1  0
  1 39  1  0
  4 40  1  0
  5 41  1  0
  6 42  1  0
  8 43  1  0
 11 44  1  0
 13 45  1  0
 13 46  1  0
 13 47  1  0
 14 48  1  0
 14 49  1  0
 14 50  1  0
 15 51  1  0
 15 52  1  0
 15 53  1  0
 19 54  1  0
 19 55  1  0
 20 56  1  0
 20 57  1  0
 23 58  1  0
 25 59  1  0
 27 60  1  0
 27 61  1  0
 27 62  1  0
 31 63  1  0
 31 64  1  0
 31 65  1  0
 32 66  1  0
 32 67  1  0
 32 68  1  0
 33 69  1  0
 33 70  1  0
 33 71  1  0
 36 72  1  0
 36 73  1  0
 36 74  1  0
M  END
$$$$
