
     RDKit          3D

 41 43  0  0  0  0  0  0  0  0999 V2000
   -1.7608   -0.4586   -2.6860 O   0  0  0  0  0  0  0  0  0  0  0  0
   -1.5553   -0.3533   -1.4829 C   0  0  0  0  0  0  0  0  0  0  0  0
   -2.5106   -0.2321   -0.4920 N   0  0  0  0  0  0  0  0  0  0  0  0
   -3.9239   -0.2639   -0.6206 C   0  0  0  0  0  0  0  0  0  0  0  0
   -4.5547   -0.4992   -1.8486 C   0  0  0  0  0  0  0  0  0  0  0  0
   -5.9491   -0.5245   -1.9472 C   0  0  0  0  0  0  0  0  0  0  0  0
   -6.7280   -0.3172   -0.8196 C   0  0  0  0  0  0  0  0  0  0  0  0
   -8.0820   -0.3511   -0.9676 O   0  0  0  0  0  0  0  0  0  0  0  0
   -6.1372   -0.0864    0.4154 C   0  0  0  0  0  0  0  0  0  0  0  0
   -4.7346   -0.0600    0.5238 C   0  0  0  0  0  0  0  0  0  0  0  0
   -4.1105    0.1768    1.8551 C   0  0  0  0  0  0  0  0  0  0  0  0
   -2.9135    0.1699    2.0896 O   0  0  0  0  0  0  0  0  0  0  0  0
   -5.0043    0.4139    2.8320 O   0  0  0  0  0  0  0  0  0  0  0  0
   -0.1396   -0.3143   -1.0080 C   0  0  0  0  0  0  0  0  0  0  0  0
    0.2440   -0.8082    0.2435 C   0  0  0  0  0  0  0  0  0  0  0  0
    1.5862   -0.7508    0.6376 C   0  0  0  0  0  0  0  0  0  0  0  0
    2.5626   -0.2098   -0.2093 C   0  0  0  0  0  0  0  0  0  0  0  0
    3.8847   -0.1907    0.2696 N   0  0  0  0  0  0  0  0  0  0  0  0
    5.0214    0.2902   -0.3567 C   0  0  0  0  0  0  0  0  0  0  0  0
    5.0602    0.8015   -1.4706 O   0  0  0  0  0  0  0  0  0  0  0  0
    6.2135    0.1310    0.4587 C   0  0  0  0  0  0  0  0  0  0  0  0
    7.5323    0.4680    0.2184 C   0  0  0  0  0  0  0  0  0  0  0  0
    8.2684    0.0813    1.3635 C   0  0  0  0  0  0  0  0  0  0  0  0
    7.3590   -0.4682    2.2354 C   0  0  0  0  0  0  0  0  0  0  0  0
    6.1104   -0.4447    1.7014 O   0  0  0  0  0  0  0  0  0  0  0  0
    2.1776    0.2662   -1.4632 C   0  0  0  0  0  0  0  0  0  0  0  0
    0.8364    0.2095   -1.8626 C   0  0  0  0  0  0  0  0  0  0  0  0
   -2.1741   -0.0353    0.4506 H   0  0  0  0  0  0  0  0  0  0  0  0
   -3.9892   -0.6707   -2.7595 H   0  0  0  0  0  0  0  0  0  0  0  0
   -6.4202   -0.7069   -2.9099 H   0  0  0  0  0  0  0  0  0  0  0  0
   -8.5026   -0.1810   -0.1086 H   0  0  0  0  0  0  0  0  0  0  0  0
   -6.7583    0.0701    1.2921 H   0  0  0  0  0  0  0  0  0  0  0  0
   -4.4605    0.5585    3.6350 H   0  0  0  0  0  0  0  0  0  0  0  0
   -0.4771   -1.2623    0.9180 H   0  0  0  0  0  0  0  0  0  0  0  0
    1.8561   -1.1423    1.6158 H   0  0  0  0  0  0  0  0  0  0  0  0
    4.0484   -0.5740    1.1946 H   0  0  0  0  0  0  0  0  0  0  0  0
    7.9038    0.9372   -0.6831 H   0  0  0  0  0  0  0  0  0  0  0  0
    9.3309    0.1895    1.5322 H   0  0  0  0  0  0  0  0  0  0  0  0
    7.4379   -0.8991    3.2243 H   0  0  0  0  0  0  0  0  0  0  0  0
    2.8940    0.6858   -2.1630 H   0  0  0  0  0  0  0  0  0  0  0  0
    0.5583    0.5807   -2.8477 H   0  0  0  0  0  0  0  0  0  0  0  0
  1  2  2  0
  2  3  1  0
  3  4  1  0
  4  5  2  0
  5  6  1  0
  6  7  2  0
  7  8  1  0
  7  9  1  0
  9 10  2  0
 10 11  1  0
 11 12  2  0
 11 13  1  0
  2 14  1  0
 14 15  2  0
 15 16  1  0
 16 17  2  0
 17 18  1  0
 18 19  1  0
 19 20  2  0
 19 21  1  0
 21 22  2  0
 22 23  1  0
 23 24  2  0
 24 25  1  0
 17 26  1  0
 26 27  2  0
 10  4  1  0
 27 14  1  0
 25 21  1  0
  3 28  1  0
  5 29  1  0
  6 30  1  0
  8 31  1  0
  9 32  1  0
 13 33  1  0
 15 34  1  0
 16 35  1  0
 18 36  1  0
 22 37  1  0
 23 38  1  0
 24 39  1  0
 26 40  1  0
 27 41  1  0
M  END
$$$$
