
     RDKit          3D

 47 50  0  0  0  0  0  0  0  0999 V2000
   -2.3535   -3.1982    1.7979 C   0  0  0  0  0  0  0  0  0  0  0  0
   -1.4498   -2.3921    0.9091 C   0  0  0  0  0  0  0  0  0  0  0  0
   -0.2824   -2.8848    0.6006 N   0  0  0  0  0  0  0  0  0  0  0  0
    0.6119   -2.1781   -0.2128 N   0  0  0  0  0  0  0  0  0  0  0  0
    1.8751   -2.8491   -0.5082 C   0  0  0  0  0  0  0  0  0  0  0  0
    3.0151   -2.3530    0.3819 C   0  0  0  0  0  0  0  0  0  0  0  0
    3.6652   -3.1162    1.0930 O   0  0  0  0  0  0  0  0  0  0  0  0
    3.3019   -1.0110    0.2596 N   0  0  0  0  0  0  0  0  0  0  0  0
    4.4441   -0.4001    0.8962 C   0  0  0  0  0  0  0  0  0  0  0  0
    5.4596   -0.0900   -0.1585 C   0  0  0  0  0  0  0  0  0  0  0  0
    5.4536    0.9468   -1.0735 C   0  0  0  0  0  0  0  0  0  0  0  0
    6.5928    0.9233   -1.9286 C   0  0  0  0  0  0  0  0  0  0  0  0
    7.4319   -0.1287   -1.6385 C   0  0  0  0  0  0  0  0  0  0  0  0
    6.8464   -1.0798   -0.3444 S   0  0  0  0  0  0  0  0  0  0  0  0
    0.3651   -0.9092   -0.7678 C   0  0  0  0  0  0  0  0  0  0  0  0
    1.1937   -0.3026   -1.4474 O   0  0  0  0  0  0  0  0  0  0  0  0
   -0.9481   -0.3853   -0.4236 C   0  0  0  0  0  0  0  0  0  0  0  0
   -1.4676    0.7740   -0.8301 N   0  0  0  0  0  0  0  0  0  0  0  0
   -2.6683    0.8664   -0.1933 N   0  0  0  0  0  0  0  0  0  0  0  0
   -3.3831    2.1028   -0.2616 C   0  0  0  0  0  0  0  0  0  0  0  0
   -3.0250    3.0382   -1.2488 C   0  0  0  0  0  0  0  0  0  0  0  0
   -3.6938    4.2604   -1.3493 C   0  0  0  0  0  0  0  0  0  0  0  0
   -4.7159    4.5699   -0.4571 C   0  0  0  0  0  0  0  0  0  0  0  0
   -5.0612    3.6631    0.5422 C   0  0  0  0  0  0  0  0  0  0  0  0
   -4.3953    2.4365    0.6461 C   0  0  0  0  0  0  0  0  0  0  0  0
   -2.9858   -0.3375    0.4493 C   0  0  0  0  0  0  0  0  0  0  0  0
   -4.3241   -0.6763    0.9990 C   0  0  0  0  0  0  0  0  0  0  0  0
   -1.8333   -1.1032    0.3861 C   0  0  0  0  0  0  0  0  0  0  0  0
   -2.7664   -2.5687    2.5903 H   0  0  0  0  0  0  0  0  0  0  0  0
   -3.1660   -3.6227    1.2024 H   0  0  0  0  0  0  0  0  0  0  0  0
   -1.7975   -4.0190    2.2607 H   0  0  0  0  0  0  0  0  0  0  0  0
    2.1495   -2.6762   -1.5548 H   0  0  0  0  0  0  0  0  0  0  0  0
    1.7510   -3.9278   -0.3621 H   0  0  0  0  0  0  0  0  0  0  0  0
    2.8330   -0.4816   -0.4741 H   0  0  0  0  0  0  0  0  0  0  0  0
    4.8454   -1.0426    1.6863 H   0  0  0  0  0  0  0  0  0  0  0  0
    4.0958    0.5288    1.3608 H   0  0  0  0  0  0  0  0  0  0  0  0
    4.6633    1.6863   -1.1300 H   0  0  0  0  0  0  0  0  0  0  0  0
    6.7862    1.6397   -2.7177 H   0  0  0  0  0  0  0  0  0  0  0  0
    8.3624   -0.3887   -2.1240 H   0  0  0  0  0  0  0  0  0  0  0  0
   -2.2292    2.8237   -1.9612 H   0  0  0  0  0  0  0  0  0  0  0  0
   -3.4119    4.9691   -2.1240 H   0  0  0  0  0  0  0  0  0  0  0  0
   -5.2338    5.5226   -0.5327 H   0  0  0  0  0  0  0  0  0  0  0  0
   -5.8437    3.9174    1.2534 H   0  0  0  0  0  0  0  0  0  0  0  0
   -4.6660    1.7968    1.4771 H   0  0  0  0  0  0  0  0  0  0  0  0
   -4.5168   -1.7502    0.9236 H   0  0  0  0  0  0  0  0  0  0  0  0
   -5.1312   -0.1960    0.4383 H   0  0  0  0  0  0  0  0  0  0  0  0
   -4.3927   -0.3970    2.0544 H   0  0  0  0  0  0  0  0  0  0  0  0
  1  2  1  0
  2  3  2  0
  3  4  1  0
  4  5  1  0
  5  6  1  0
  6  7  2  0
  6  8  1  0
  8  9  1  0
  9 10  1  0
 10 11  2  0
 11 12  1  0
 12 13  2  0
 13 14  1  0
  4 15  1  0
 15 16  2  0
 15 17  1  0
 17 18  2  0
 18 19  1  0
 19 20  1  0
 20 21  2  0
 21 22  1  0
 22 23  2  0
 23 24  1  0
 24 25  2  0
 19 26  1  0
 26 27  1  0
 26 28  2  0
 28  2  1  0
 14 10  1  0
 28 17  1  0
 25 20  1  0
  1 29  1  0
  1 30  1  0
  1 31  1  0
  5 32  1  0
  5 33  1  0
  8 34  1  0
  9 35  1  0
  9 36  1  0
 11 37  1  0
 12 38  1  0
 13 39  1  0
 21 40  1  0
 22 41  1  0
 23 42  1  0
 24 43  1  0
 25 44  1  0
 27 45  1  0
 27 46  1  0
 27 47  1  0
M  END
$$$$
