
     RDKit          3D

 43 45  0  0  0  0  0  0  0  0999 V2000
    7.5780    1.1521    1.3134 O   0  0  0  0  0  0  0  0  0  0  0  0
    8.0794    0.3247    0.5711 C   0  0  0  0  0  0  0  0  0  0  0  0
    9.4070    0.0801    0.6415 O   0  0  0  0  0  0  0  0  0  0  0  0
    7.4169   -0.4843   -0.5184 C   0  0  0  0  0  0  0  0  0  0  0  0
    5.9078   -0.4862   -0.4599 C   0  0  0  0  0  0  0  0  0  0  0  0
    5.1774    0.6576   -0.8013 C   0  0  0  0  0  0  0  0  0  0  0  0
    3.7803    0.6523   -0.7399 C   0  0  0  0  0  0  0  0  0  0  0  0
    3.0848   -0.4964   -0.3441 C   0  0  0  0  0  0  0  0  0  0  0  0
    1.6771   -0.4155   -0.3005 N   0  0  0  0  0  0  0  0  0  0  0  0
    0.7865   -1.4378   -0.0269 C   0  0  0  0  0  0  0  0  0  0  0  0
    1.0513   -2.6218    0.1444 O   0  0  0  0  0  0  0  0  0  0  0  0
   -0.6459   -1.0262    0.0106 C   0  0  0  0  0  0  0  0  0  0  0  0
   -1.6125   -1.9215   -0.4567 C   0  0  0  0  0  0  0  0  0  0  0  0
   -2.9659   -1.5702   -0.4334 C   0  0  0  0  0  0  0  0  0  0  0  0
   -3.3728   -0.3265    0.0661 C   0  0  0  0  0  0  0  0  0  0  0  0
   -4.7521   -0.0542    0.0563 N   0  0  0  0  0  0  0  0  0  0  0  0
   -5.4093    1.0871    0.4816 C   0  0  0  0  0  0  0  0  0  0  0  0
   -4.8709    2.0888    0.9420 O   0  0  0  0  0  0  0  0  0  0  0  0
   -6.8504    0.9882    0.3271 C   0  0  0  0  0  0  0  0  0  0  0  0
   -7.8613    1.8849    0.6185 C   0  0  0  0  0  0  0  0  0  0  0  0
   -9.0793    1.2553    0.2681 C   0  0  0  0  0  0  0  0  0  0  0  0
   -8.7428    0.0138   -0.2161 C   0  0  0  0  0  0  0  0  0  0  0  0
   -7.3963   -0.1612   -0.1889 O   0  0  0  0  0  0  0  0  0  0  0  0
   -2.4046    0.5580    0.5480 C   0  0  0  0  0  0  0  0  0  0  0  0
   -1.0473    0.2108    0.5258 C   0  0  0  0  0  0  0  0  0  0  0  0
    3.8116   -1.6366   -0.0037 C   0  0  0  0  0  0  0  0  0  0  0  0
    5.2106   -1.6320   -0.0595 C   0  0  0  0  0  0  0  0  0  0  0  0
    9.7163    0.6785    1.3552 H   0  0  0  0  0  0  0  0  0  0  0  0
    7.7858   -1.5153   -0.4496 H   0  0  0  0  0  0  0  0  0  0  0  0
    7.7363   -0.0817   -1.4876 H   0  0  0  0  0  0  0  0  0  0  0  0
    5.6909    1.5671   -1.1061 H   0  0  0  0  0  0  0  0  0  0  0  0
    3.2482    1.5610   -1.0093 H   0  0  0  0  0  0  0  0  0  0  0  0
    1.2851    0.4810   -0.5556 H   0  0  0  0  0  0  0  0  0  0  0  0
   -1.3139   -2.8957   -0.8399 H   0  0  0  0  0  0  0  0  0  0  0  0
   -3.6934   -2.2862   -0.8083 H   0  0  0  0  0  0  0  0  0  0  0  0
   -5.3640   -0.7791   -0.3022 H   0  0  0  0  0  0  0  0  0  0  0  0
   -7.7212    2.8728    1.0376 H   0  0  0  0  0  0  0  0  0  0  0  0
  -10.0789    1.6568    0.3585 H   0  0  0  0  0  0  0  0  0  0  0  0
   -9.3163   -0.8183   -0.6025 H   0  0  0  0  0  0  0  0  0  0  0  0
   -2.6717    1.5252    0.9640 H   0  0  0  0  0  0  0  0  0  0  0  0
   -0.3257    0.9068    0.9458 H   0  0  0  0  0  0  0  0  0  0  0  0
    3.3203   -2.5490    0.3181 H   0  0  0  0  0  0  0  0  0  0  0  0
    5.7448   -2.5389    0.2168 H   0  0  0  0  0  0  0  0  0  0  0  0
  1  2  2  0
  2  3  1  0
  2  4  1  0
  4  5  1  0
  5  6  2  0
  6  7  1  0
  7  8  2  0
  8  9  1  0
  9 10  1  0
 10 11  2  0
 10 12  1  0
 12 13  2  0
 13 14  1  0
 14 15  2  0
 15 16  1  0
 16 17  1  0
 17 18  2  0
 17 19  1  0
 19 20  2  0
 20 21  1  0
 21 22  2  0
 22 23  1  0
 15 24  1  0
 24 25  2  0
  8 26  1  0
 26 27  2  0
 27  5  1  0
 25 12  1  0
 23 19  1  0
  3 28  1  0
  4 29  1  0
  4 30  1  0
  6 31  1  0
  7 32  1  0
  9 33  1  0
 13 34  1  0
 14 35  1  0
 16 36  1  0
 20 37  1  0
 21 38  1  0
 22 39  1  0
 24 40  1  0
 25 41  1  0
 26 42  1  0
 27 43  1  0
M  END
$$$$
