
     RDKit          3D

 45 47  0  0  0  0  0  0  0  0999 V2000
   -7.7752   -1.5697    0.8077 C   0  0  0  0  0  0  0  0  0  0  0  0
   -6.5195   -0.7171    0.7391 C   0  0  0  0  0  0  0  0  0  0  0  0
   -6.0044   -0.7951   -0.5970 O   0  0  0  0  0  0  0  0  0  0  0  0
   -4.6365   -0.6940   -0.6468 C   0  0  0  0  0  0  0  0  0  0  0  0
   -3.9869   -1.7436   -1.2977 C   0  0  0  0  0  0  0  0  0  0  0  0
   -2.5978   -1.7451   -1.4134 C   0  0  0  0  0  0  0  0  0  0  0  0
   -1.8453   -0.6891   -0.8879 C   0  0  0  0  0  0  0  0  0  0  0  0
   -0.3838   -0.7291   -1.0475 C   0  0  0  0  0  0  0  0  0  0  0  0
    0.5488   -0.5224   -0.1047 C   0  0  0  0  0  0  0  0  0  0  0  0
    0.3237   -0.1510    1.5674 S   0  0  0  0  0  0  0  0  0  0  0  0
    2.0531   -0.0897    1.8981 C   0  0  0  0  0  0  0  0  0  0  0  0
    2.6889    0.2106    3.4113 S   0  0  0  0  0  0  0  0  0  0  0  0
    2.7303   -0.3637    0.7282 N   0  0  0  0  0  0  0  0  0  0  0  0
    4.1350   -0.3450    0.6473 N   0  0  0  0  0  0  0  0  0  0  0  0
    4.7079    0.8547    0.2488 C   0  0  0  0  0  0  0  0  0  0  0  0
    4.0860    1.9081    0.1416 O   0  0  0  0  0  0  0  0  0  0  0  0
    6.1506    0.7977   -0.0954 C   0  0  0  0  0  0  0  0  0  0  0  0
    7.0191   -0.0971    0.5315 C   0  0  0  0  0  0  0  0  0  0  0  0
    8.3477   -0.0785    0.1486 C   0  0  0  0  0  0  0  0  0  0  0  0
    8.8434    0.7507   -0.7934 N   0  0  0  0  0  0  0  0  0  0  0  0
    7.9831    1.6191   -1.3682 C   0  0  0  0  0  0  0  0  0  0  0  0
    6.6398    1.6847   -1.0533 C   0  0  0  0  0  0  0  0  0  0  0  0
    2.0014   -0.6477   -0.4143 C   0  0  0  0  0  0  0  0  0  0  0  0
    2.4572   -1.0005   -1.4956 O   0  0  0  0  0  0  0  0  0  0  0  0
   -2.5104    0.3952   -0.2916 C   0  0  0  0  0  0  0  0  0  0  0  0
   -3.9065    0.4028   -0.1594 C   0  0  0  0  0  0  0  0  0  0  0  0
   -4.6267    1.4300    0.3921 O   0  0  0  0  0  0  0  0  0  0  0  0
   -3.9061    2.5221    0.9447 C   0  0  0  0  0  0  0  0  0  0  0  0
   -7.5573   -2.5959    0.4900 H   0  0  0  0  0  0  0  0  0  0  0  0
   -8.5429   -1.1776    0.1270 H   0  0  0  0  0  0  0  0  0  0  0  0
   -8.1818   -1.5844    1.8209 H   0  0  0  0  0  0  0  0  0  0  0  0
   -6.7843    0.3219    0.9725 H   0  0  0  0  0  0  0  0  0  0  0  0
   -5.7966   -1.0864    1.4780 H   0  0  0  0  0  0  0  0  0  0  0  0
   -4.5678   -2.5649   -1.7069 H   0  0  0  0  0  0  0  0  0  0  0  0
   -2.1131   -2.5791   -1.9152 H   0  0  0  0  0  0  0  0  0  0  0  0
   -0.0586   -0.9964   -2.0542 H   0  0  0  0  0  0  0  0  0  0  0  0
    4.5547   -1.2157    0.3301 H   0  0  0  0  0  0  0  0  0  0  0  0
    6.6955   -0.7699    1.3162 H   0  0  0  0  0  0  0  0  0  0  0  0
    9.0749   -0.7454    0.6050 H   0  0  0  0  0  0  0  0  0  0  0  0
    8.4180    2.2811   -2.1115 H   0  0  0  0  0  0  0  0  0  0  0  0
    5.9920    2.4048   -1.5427 H   0  0  0  0  0  0  0  0  0  0  0  0
   -1.9208    1.2400    0.0525 H   0  0  0  0  0  0  0  0  0  0  0  0
   -4.6347    3.2144    1.3785 H   0  0  0  0  0  0  0  0  0  0  0  0
   -3.2426    2.1936    1.7498 H   0  0  0  0  0  0  0  0  0  0  0  0
   -3.3515    3.0624    0.1691 H   0  0  0  0  0  0  0  0  0  0  0  0
  1  2  1  0
  2  3  1  0
  3  4  1  0
  4  5  2  0
  5  6  1  0
  6  7  2  0
  7  8  1  0
  8  9  2  3
  9 10  1  0
 10 11  1  0
 11 12  2  0
 11 13  1  0
 13 14  1  0
 14 15  1  0
 15 16  2  0
 15 17  1  0
 17 18  2  0
 18 19  1  0
 19 20  2  0
 20 21  1  0
 21 22  2  0
 13 23  1  0
 23 24  2  0
  7 25  1  0
 25 26  2  0
 26 27  1  0
 27 28  1  0
 26  4  1  0
 23  9  1  0
 22 17  1  0
  1 29  1  0
  1 30  1  0
  1 31  1  0
  2 32  1  0
  2 33  1  0
  5 34  1  0
  6 35  1  0
  8 36  1  0
 14 37  1  0
 18 38  1  0
 19 39  1  0
 21 40  1  0
 22 41  1  0
 25 42  1  0
 28 43  1  0
 28 44  1  0
 28 45  1  0
M  END
$$$$
