
     RDKit          3D

 38 38  0  0  0  0  0  0  0  0999 V2000
    5.1272    0.3931   -2.6750 C   0  0  0  0  0  0  0  0  0  0  0  0
    4.6928   -0.1204   -1.3128 C   0  0  0  0  0  0  0  0  0  0  0  0
    3.6315   -1.0781   -1.4458 O   0  0  0  0  0  0  0  0  0  0  0  0
    2.3695   -0.5650   -1.5159 C   0  0  0  0  0  0  0  0  0  0  0  0
    2.0905    0.6229   -1.4534 O   0  0  0  0  0  0  0  0  0  0  0  0
    1.3791   -1.6869   -1.6470 C   0  0  0  0  0  0  0  0  0  0  0  0
   -0.0373   -1.2060   -1.8161 C   0  0  0  0  0  0  0  0  0  0  0  0
   -0.6342   -1.3182   -2.8869 O   0  0  0  0  0  0  0  0  0  0  0  0
   -0.7354   -0.5701   -0.6635 C   0  0  0  0  0  0  0  0  0  0  0  0
   -1.5809    0.5176   -0.9280 C   0  0  0  0  0  0  0  0  0  0  0  0
   -2.2707    1.1373    0.1121 C   0  0  0  0  0  0  0  0  0  0  0  0
   -3.1110    2.2098   -0.0399 O   0  0  0  0  0  0  0  0  0  0  0  0
   -3.0497    2.9130   -1.2776 C   0  0  0  0  0  0  0  0  0  0  0  0
   -2.1324    0.6264    1.4150 C   0  0  0  0  0  0  0  0  0  0  0  0
   -2.7817    1.2510    2.4576 O   0  0  0  0  0  0  0  0  0  0  0  0
   -4.0752    0.6736    2.6356 C   0  0  0  0  0  0  0  0  0  0  0  0
   -1.2844   -0.4622    1.6917 C   0  0  0  0  0  0  0  0  0  0  0  0
   -1.2325   -0.8744    2.9986 O   0  0  0  0  0  0  0  0  0  0  0  0
   -0.2876   -1.8737    3.3447 C   0  0  0  0  0  0  0  0  0  0  0  0
   -0.5886   -1.0624    0.6401 C   0  0  0  0  0  0  0  0  0  0  0  0
    5.4221   -0.4393   -3.3196 H   0  0  0  0  0  0  0  0  0  0  0  0
    4.3129    0.9146   -3.1807 H   0  0  0  0  0  0  0  0  0  0  0  0
    5.9715    1.0885   -2.5851 H   0  0  0  0  0  0  0  0  0  0  0  0
    4.4096    0.7054   -0.6546 H   0  0  0  0  0  0  0  0  0  0  0  0
    5.5197   -0.6430   -0.8324 H   0  0  0  0  0  0  0  0  0  0  0  0
    1.6346   -2.2837   -2.5365 H   0  0  0  0  0  0  0  0  0  0  0  0
    1.4557   -2.3510   -0.7756 H   0  0  0  0  0  0  0  0  0  0  0  0
   -1.6813    0.8581   -1.9549 H   0  0  0  0  0  0  0  0  0  0  0  0
   -3.6339    3.8289   -1.1717 H   0  0  0  0  0  0  0  0  0  0  0  0
   -3.4977    2.3233   -2.0837 H   0  0  0  0  0  0  0  0  0  0  0  0
   -2.0246    3.2067   -1.5258 H   0  0  0  0  0  0  0  0  0  0  0  0
   -4.5487    1.1670    3.4907 H   0  0  0  0  0  0  0  0  0  0  0  0
   -4.0076   -0.3982    2.8590 H   0  0  0  0  0  0  0  0  0  0  0  0
   -4.7093    0.8353    1.7562 H   0  0  0  0  0  0  0  0  0  0  0  0
   -0.3288   -2.0133    4.4336 H   0  0  0  0  0  0  0  0  0  0  0  0
   -0.5460   -2.8331    2.8788 H   0  0  0  0  0  0  0  0  0  0  0  0
    0.7299   -1.5629    3.0832 H   0  0  0  0  0  0  0  0  0  0  0  0
    0.0330   -1.9307    0.8210 H   0  0  0  0  0  0  0  0  0  0  0  0
  1  2  1  0
  2  3  1  0
  3  4  1  0
  4  5  2  0
  4  6  1  0
  6  7  1  0
  7  8  2  0
  7  9  1  0
  9 10  2  0
 10 11  1  0
 11 12  1  0
 12 13  1  0
 11 14  2  0
 14 15  1  0
 15 16  1  0
 14 17  1  0
 17 18  1  0
 18 19  1  0
 17 20  2  0
 20  9  1  0
  1 21  1  0
  1 22  1  0
  1 23  1  0
  2 24  1  0
  2 25  1  0
  6 26  1  0
  6 27  1  0
 10 28  1  0
 13 29  1  0
 13 30  1  0
 13 31  1  0
 16 32  1  0
 16 33  1  0
 16 34  1  0
 19 35  1  0
 19 36  1  0
 19 37  1  0
 20 38  1  0
M  END
$$$$
