
     RDKit          3D

 53 56  0  0  0  0  0  0  0  0999 V2000
   -9.2935   -1.2625    1.0731 C   0  0  0  0  0  0  0  0  0  0  0  0
   -8.4729   -0.1017    1.0438 O   0  0  0  0  0  0  0  0  0  0  0  0
   -7.2777   -0.2018    0.3875 C   0  0  0  0  0  0  0  0  0  0  0  0
   -6.7986   -1.3317   -0.2739 C   0  0  0  0  0  0  0  0  0  0  0  0
   -5.5549   -1.2973   -0.9097 C   0  0  0  0  0  0  0  0  0  0  0  0
   -4.7812   -0.1349   -0.8869 C   0  0  0  0  0  0  0  0  0  0  0  0
   -5.2478    1.0022   -0.2200 C   0  0  0  0  0  0  0  0  0  0  0  0
   -4.4716    2.2779   -0.1656 C   0  0  0  0  0  0  0  0  0  0  0  0
   -5.0417    3.3161    0.1729 O   0  0  0  0  0  0  0  0  0  0  0  0
   -3.0081    2.2929   -0.5851 C   0  0  0  0  0  0  0  0  0  0  0  0
   -2.2748    1.2737    0.0784 O   0  0  0  0  0  0  0  0  0  0  0  0
   -0.9652    1.1180   -0.2763 C   0  0  0  0  0  0  0  0  0  0  0  0
   -0.2366    1.9540   -1.1194 C   0  0  0  0  0  0  0  0  0  0  0  0
    1.1101    1.6749   -1.4049 C   0  0  0  0  0  0  0  0  0  0  0  0
    1.7566    0.5577   -0.8566 C   0  0  0  0  0  0  0  0  0  0  0  0
    3.1712    0.2135   -1.1105 C   0  0  0  0  0  0  0  0  0  0  0  0
    3.9413    1.1395   -2.0180 C   0  0  0  0  0  0  0  0  0  0  0  0
    3.6984   -0.8822   -0.5157 C   0  0  0  0  0  0  0  0  0  0  0  0
    5.1313   -1.3577   -0.6589 C   0  0  0  0  0  0  0  0  0  0  0  0
    6.0340   -0.8850    0.4623 C   0  0  0  0  0  0  0  0  0  0  0  0
    6.2151   -1.6730    1.6083 C   0  0  0  0  0  0  0  0  0  0  0  0
    7.0330   -1.2361    2.6516 C   0  0  0  0  0  0  0  0  0  0  0  0
    7.6791   -0.0058    2.5635 C   0  0  0  0  0  0  0  0  0  0  0  0
    7.5063    0.7893    1.4329 C   0  0  0  0  0  0  0  0  0  0  0  0
    6.6882    0.3535    0.3888 C   0  0  0  0  0  0  0  0  0  0  0  0
    2.8597   -1.7840    0.3287 C   0  0  0  0  0  0  0  0  0  0  0  0
    3.2872   -2.8424    0.7794 O   0  0  0  0  0  0  0  0  0  0  0  0
    1.5558   -1.3960    0.5786 O   0  0  0  0  0  0  0  0  0  0  0  0
    1.0053   -0.2527   -0.0142 C   0  0  0  0  0  0  0  0  0  0  0  0
   -0.3339    0.0110    0.2835 C   0  0  0  0  0  0  0  0  0  0  0  0
   -6.5011    0.9607    0.4072 C   0  0  0  0  0  0  0  0  0  0  0  0
   -9.6028   -1.5522    0.0635 H   0  0  0  0  0  0  0  0  0  0  0  0
   -8.7913   -2.0896    1.5849 H   0  0  0  0  0  0  0  0  0  0  0  0
  -10.1967   -1.0195    1.6406 H   0  0  0  0  0  0  0  0  0  0  0  0
   -7.3678   -2.2544   -0.3158 H   0  0  0  0  0  0  0  0  0  0  0  0
   -5.1876   -2.1820   -1.4248 H   0  0  0  0  0  0  0  0  0  0  0  0
   -3.8230   -0.1461   -1.3975 H   0  0  0  0  0  0  0  0  0  0  0  0
   -2.9709    2.1772   -1.6751 H   0  0  0  0  0  0  0  0  0  0  0  0
   -2.6022    3.2725   -0.3045 H   0  0  0  0  0  0  0  0  0  0  0  0
   -0.6753    2.8400   -1.5679 H   0  0  0  0  0  0  0  0  0  0  0  0
    1.6340    2.3634   -2.0634 H   0  0  0  0  0  0  0  0  0  0  0  0
    4.9663    0.8219   -2.2112 H   0  0  0  0  0  0  0  0  0  0  0  0
    3.4581    1.2066   -2.9993 H   0  0  0  0  0  0  0  0  0  0  0  0
    4.0000    2.1432   -1.5824 H   0  0  0  0  0  0  0  0  0  0  0  0
    5.1707   -2.4536   -0.7184 H   0  0  0  0  0  0  0  0  0  0  0  0
    5.5647   -1.0512   -1.6170 H   0  0  0  0  0  0  0  0  0  0  0  0
    5.7158   -2.6362    1.6990 H   0  0  0  0  0  0  0  0  0  0  0  0
    7.1627   -1.8584    3.5334 H   0  0  0  0  0  0  0  0  0  0  0  0
    8.3149    0.3337    3.3764 H   0  0  0  0  0  0  0  0  0  0  0  0
    8.0087    1.7507    1.3648 H   0  0  0  0  0  0  0  0  0  0  0  0
    6.5716    0.9911   -0.4830 H   0  0  0  0  0  0  0  0  0  0  0  0
   -0.8810   -0.6508    0.9498 H   0  0  0  0  0  0  0  0  0  0  0  0
   -6.8821    1.8407    0.9233 H   0  0  0  0  0  0  0  0  0  0  0  0
  1  2  1  0
  2  3  1  0
  3  4  2  0
  4  5  1  0
  5  6  2  0
  6  7  1  0
  7  8  1  0
  8  9  2  0
  8 10  1  0
 10 11  1  0
 11 12  1  0
 12 13  2  0
 13 14  1  0
 14 15  2  0
 15 16  1  0
 16 17  1  0
 16 18  2  0
 18 19  1  0
 19 20  1  0
 20 21  2  0
 21 22  1  0
 22 23  2  0
 23 24  1  0
 24 25  2  0
 18 26  1  0
 26 27  2  0
 26 28  1  0
 28 29  1  0
 29 30  2  0
  7 31  2  0
 31  3  1  0
 30 12  1  0
 29 15  1  0
 25 20  1  0
  1 32  1  0
  1 33  1  0
  1 34  1  0
  4 35  1  0
  5 36  1  0
  6 37  1  0
 10 38  1  0
 10 39  1  0
 13 40  1  0
 14 41  1  0
 17 42  1  0
 17 43  1  0
 17 44  1  0
 19 45  1  0
 19 46  1  0
 21 47  1  0
 22 48  1  0
 23 49  1  0
 24 50  1  0
 25 51  1  0
 30 52  1  0
 31 53  1  0
M  END
$$$$
