
     RDKit          3D

 60 63  0  0  0  0  0  0  0  0999 V2000
    9.0374    0.4402   -1.5770 C   0  0  0  0  0  0  0  0  0  0  0  0
    7.7674    0.1847   -2.3703 C   0  0  0  0  0  0  0  0  0  0  0  0
    6.7343    1.0888   -1.9824 O   0  0  0  0  0  0  0  0  0  0  0  0
    5.9183    0.7517   -0.9394 C   0  0  0  0  0  0  0  0  0  0  0  0
    6.0260   -0.3802   -0.1336 C   0  0  0  0  0  0  0  0  0  0  0  0
    5.1139   -0.5941    0.9062 C   0  0  0  0  0  0  0  0  0  0  0  0
    4.0867    0.3243    1.1606 C   0  0  0  0  0  0  0  0  0  0  0  0
    3.0918    0.0669    2.2623 C   0  0  0  0  0  0  0  0  0  0  0  0
    2.0472   -0.8153    1.8031 N   0  0  0  0  0  0  0  0  0  0  0  0
    2.0431   -2.1648    2.0798 C   0  0  0  0  0  0  0  0  0  0  0  0
    2.8766   -2.7037    2.8058 O   0  0  0  0  0  0  0  0  0  0  0  0
    0.9876   -2.9757    1.3245 C   0  0  0  0  0  0  0  0  0  0  0  0
   -0.0692   -2.1407    0.7536 N   0  0  0  0  0  0  0  0  0  0  0  0
    0.2029   -1.5661   -0.4964 N   0  0  0  0  0  0  0  0  0  0  0  0
   -0.6743   -0.8079   -1.0949 C   0  0  0  0  0  0  0  0  0  0  0  0
   -0.3273   -0.2442   -2.4433 C   0  0  0  0  0  0  0  0  0  0  0  0
   -1.9282   -0.5272   -0.4406 C   0  0  0  0  0  0  0  0  0  0  0  0
   -3.0208    0.2669   -0.7484 C   0  0  0  0  0  0  0  0  0  0  0  0
   -3.2122    1.2381   -1.8568 C   0  0  0  0  0  0  0  0  0  0  0  0
   -3.9534    0.0260    0.2693 N   0  0  0  0  0  0  0  0  0  0  0  0
   -5.3299    0.3963    0.3786 C   0  0  0  0  0  0  0  0  0  0  0  0
   -5.9501    0.3341    1.6376 C   0  0  0  0  0  0  0  0  0  0  0  0
   -7.2952    0.6832    1.7897 C   0  0  0  0  0  0  0  0  0  0  0  0
   -8.0490    1.0950    0.6878 C   0  0  0  0  0  0  0  0  0  0  0  0
   -9.5014    1.4342    0.8471 C   0  0  0  0  0  0  0  0  0  0  0  0
   -7.4453    1.1175   -0.5733 C   0  0  0  0  0  0  0  0  0  0  0  0
   -6.0974    0.7700   -0.7295 C   0  0  0  0  0  0  0  0  0  0  0  0
   -3.3879   -0.6825    1.2843 N   0  0  0  0  0  0  0  0  0  0  0  0
   -2.2007   -1.0730    0.8185 C   0  0  0  0  0  0  0  0  0  0  0  0
   -1.2423   -1.9291    1.5060 C   0  0  0  0  0  0  0  0  0  0  0  0
   -1.4321   -2.4118    2.6192 O   0  0  0  0  0  0  0  0  0  0  0  0
    3.9794    1.4571    0.3463 C   0  0  0  0  0  0  0  0  0  0  0  0
    4.8921    1.6671   -0.6905 C   0  0  0  0  0  0  0  0  0  0  0  0
    9.8490   -0.2024   -1.9300 H   0  0  0  0  0  0  0  0  0  0  0  0
    8.8875    0.2560   -0.5092 H   0  0  0  0  0  0  0  0  0  0  0  0
    9.3473    1.4856   -1.6775 H   0  0  0  0  0  0  0  0  0  0  0  0
    7.9748    0.3892   -3.4269 H   0  0  0  0  0  0  0  0  0  0  0  0
    7.4487   -0.8624   -2.3265 H   0  0  0  0  0  0  0  0  0  0  0  0
    6.8071   -1.1185   -0.2772 H   0  0  0  0  0  0  0  0  0  0  0  0
    5.2061   -1.4889    1.5212 H   0  0  0  0  0  0  0  0  0  0  0  0
    2.6139    1.0035    2.5698 H   0  0  0  0  0  0  0  0  0  0  0  0
    3.5947   -0.3466    3.1435 H   0  0  0  0  0  0  0  0  0  0  0  0
    1.5012   -0.5321    0.9958 H   0  0  0  0  0  0  0  0  0  0  0  0
    1.4825   -3.5162    0.5106 H   0  0  0  0  0  0  0  0  0  0  0  0
    0.5537   -3.7020    2.0190 H   0  0  0  0  0  0  0  0  0  0  0  0
   -1.1546   -0.3949   -3.1416 H   0  0  0  0  0  0  0  0  0  0  0  0
   -0.1133    0.8236   -2.3477 H   0  0  0  0  0  0  0  0  0  0  0  0
    0.5614   -0.7405   -2.8451 H   0  0  0  0  0  0  0  0  0  0  0  0
   -2.2583    1.6795   -2.1588 H   0  0  0  0  0  0  0  0  0  0  0  0
   -3.8412    2.0820   -1.5587 H   0  0  0  0  0  0  0  0  0  0  0  0
   -3.6465    0.7471   -2.7326 H   0  0  0  0  0  0  0  0  0  0  0  0
   -5.3944    0.0214    2.5210 H   0  0  0  0  0  0  0  0  0  0  0  0
   -7.7476    0.6267    2.7775 H   0  0  0  0  0  0  0  0  0  0  0  0
   -9.6836    1.9179    1.8128 H   0  0  0  0  0  0  0  0  0  0  0  0
  -10.1075    0.5249    0.7850 H   0  0  0  0  0  0  0  0  0  0  0  0
   -9.8295    2.1305    0.0681 H   0  0  0  0  0  0  0  0  0  0  0  0
   -8.0267    1.3945   -1.4507 H   0  0  0  0  0  0  0  0  0  0  0  0
   -5.7059    0.7567   -1.7392 H   0  0  0  0  0  0  0  0  0  0  0  0
    3.1896    2.1854    0.5127 H   0  0  0  0  0  0  0  0  0  0  0  0
    4.8036    2.5542   -1.3130 H   0  0  0  0  0  0  0  0  0  0  0  0
  1  2  1  0
  2  3  1  0
  3  4  1  0
  4  5  2  0
  5  6  1  0
  6  7  2  0
  7  8  1  0
  8  9  1  0
  9 10  1  0
 10 11  2  0
 10 12  1  0
 12 13  1  0
 13 14  1  0
 14 15  2  0
 15 16  1  0
 15 17  1  0
 17 18  2  0
 18 19  1  0
 18 20  1  0
 20 21  1  0
 21 22  2  0
 22 23  1  0
 23 24  2  0
 24 25  1  0
 24 26  1  0
 26 27  2  0
 20 28  1  0
 28 29  2  0
 29 30  1  0
 30 31  2  0
  7 32  1  0
 32 33  2  0
 33  4  1  0
 30 13  1  0
 29 17  1  0
 27 21  1  0
  1 34  1  0
  1 35  1  0
  1 36  1  0
  2 37  1  0
  2 38  1  0
  5 39  1  0
  6 40  1  0
  8 41  1  0
  8 42  1  0
  9 43  1  0
 12 44  1  0
 12 45  1  0
 16 46  1  0
 16 47  1  0
 16 48  1  0
 19 49  1  0
 19 50  1  0
 19 51  1  0
 22 52  1  0
 23 53  1  0
 25 54  1  0
 25 55  1  0
 25 56  1  0
 26 57  1  0
 27 58  1  0
 32 59  1  0
 33 60  1  0
M  END
$$$$
