
     RDKit          3D

 57 60  0  0  0  0  0  0  0  0999 V2000
    7.0037    2.7501   -1.9692 C   0  0  0  0  0  0  0  0  0  0  0  0
    7.1240    2.8706   -0.4598 C   0  0  0  0  0  0  0  0  0  0  0  0
    7.0641    1.5824    0.1513 O   0  0  0  0  0  0  0  0  0  0  0  0
    5.8527    1.1000    0.5634 C   0  0  0  0  0  0  0  0  0  0  0  0
    4.6042    1.6809    0.3437 C   0  0  0  0  0  0  0  0  0  0  0  0
    3.4454    1.0740    0.8502 C   0  0  0  0  0  0  0  0  0  0  0  0
    3.5157   -0.1253    1.5690 C   0  0  0  0  0  0  0  0  0  0  0  0
    2.3081   -0.6391    2.0791 N   0  0  0  0  0  0  0  0  0  0  0  0
    2.1041   -1.8465    2.7224 C   0  0  0  0  0  0  0  0  0  0  0  0
    2.9344   -2.7484    2.8540 O   0  0  0  0  0  0  0  0  0  0  0  0
    0.7138   -1.9790    3.3236 C   0  0  0  0  0  0  0  0  0  0  0  0
   -0.5097   -2.4915    2.0879 S   0  0  0  0  0  0  0  0  0  0  0  0
   -0.9838   -0.9627    1.4184 C   0  0  0  0  0  0  0  0  0  0  0  0
   -0.2953    0.1456    1.5827 N   0  0  0  0  0  0  0  0  0  0  0  0
   -0.9984    1.1658    1.0181 N   0  0  0  0  0  0  0  0  0  0  0  0
   -2.1140    0.6717    0.5121 C   0  0  0  0  0  0  0  0  0  0  0  0
   -3.0682    1.4517   -0.3385 C   0  0  0  0  0  0  0  0  0  0  0  0
   -3.1542    0.9557   -1.7535 C   0  0  0  0  0  0  0  0  0  0  0  0
   -2.1528    0.4735   -2.5845 C   0  0  0  0  0  0  0  0  0  0  0  0
   -2.7365    0.1266   -3.8228 C   0  0  0  0  0  0  0  0  0  0  0  0
   -4.0762    0.4230   -3.7341 C   0  0  0  0  0  0  0  0  0  0  0  0
   -4.3192    0.9484   -2.4906 N   0  0  0  0  0  0  0  0  0  0  0  0
   -5.6083    1.4486   -2.0676 C   0  0  0  0  0  0  0  0  0  0  0  0
   -2.1820   -0.6948    0.7771 N   0  0  0  0  0  0  0  0  0  0  0  0
   -3.2401   -1.5860    0.4600 C   0  0  0  0  0  0  0  0  0  0  0  0
   -4.5643   -1.2222    0.7403 C   0  0  0  0  0  0  0  0  0  0  0  0
   -5.6049   -2.0917    0.4158 C   0  0  0  0  0  0  0  0  0  0  0  0
   -5.3204   -3.3096   -0.1920 C   0  0  0  0  0  0  0  0  0  0  0  0
   -6.3201   -4.1366   -0.5091 F   0  0  0  0  0  0  0  0  0  0  0  0
   -4.0126   -3.6823   -0.4727 C   0  0  0  0  0  0  0  0  0  0  0  0
   -2.9653   -2.8230   -0.1416 C   0  0  0  0  0  0  0  0  0  0  0  0
    4.7629   -0.7152    1.7686 C   0  0  0  0  0  0  0  0  0  0  0  0
    5.9202   -0.1028    1.2699 C   0  0  0  0  0  0  0  0  0  0  0  0
    7.1801    3.7168   -2.4511 H   0  0  0  0  0  0  0  0  0  0  0  0
    7.7287    2.0269   -2.3562 H   0  0  0  0  0  0  0  0  0  0  0  0
    6.0106    2.3982   -2.2577 H   0  0  0  0  0  0  0  0  0  0  0  0
    6.4042    3.5798   -0.0380 H   0  0  0  0  0  0  0  0  0  0  0  0
    8.1144    3.2764   -0.2234 H   0  0  0  0  0  0  0  0  0  0  0  0
    4.4886    2.6008   -0.2175 H   0  0  0  0  0  0  0  0  0  0  0  0
    2.4864    1.5546    0.6732 H   0  0  0  0  0  0  0  0  0  0  0  0
    1.4798   -0.0673    1.9119 H   0  0  0  0  0  0  0  0  0  0  0  0
    0.4220   -1.0511    3.8255 H   0  0  0  0  0  0  0  0  0  0  0  0
    0.7580   -2.7516    4.0989 H   0  0  0  0  0  0  0  0  0  0  0  0
   -2.7272    2.4948   -0.3759 H   0  0  0  0  0  0  0  0  0  0  0  0
   -4.0476    1.4828    0.1436 H   0  0  0  0  0  0  0  0  0  0  0  0
   -1.1057    0.3777   -2.3225 H   0  0  0  0  0  0  0  0  0  0  0  0
   -2.2361   -0.2858   -4.6890 H   0  0  0  0  0  0  0  0  0  0  0  0
   -4.8656    0.3173   -4.4669 H   0  0  0  0  0  0  0  0  0  0  0  0
   -5.9967    0.7918   -1.2889 H   0  0  0  0  0  0  0  0  0  0  0  0
   -6.2939    1.4586   -2.9185 H   0  0  0  0  0  0  0  0  0  0  0  0
   -5.4798    2.4665   -1.6901 H   0  0  0  0  0  0  0  0  0  0  0  0
   -4.8044   -0.2948    1.2526 H   0  0  0  0  0  0  0  0  0  0  0  0
   -6.6335   -1.8343    0.6388 H   0  0  0  0  0  0  0  0  0  0  0  0
   -3.8191   -4.6375   -0.9546 H   0  0  0  0  0  0  0  0  0  0  0  0
   -1.9540   -3.1198   -0.4047 H   0  0  0  0  0  0  0  0  0  0  0  0
    4.8762   -1.6407    2.3230 H   0  0  0  0  0  0  0  0  0  0  0  0
    6.8876   -0.5716    1.4444 H   0  0  0  0  0  0  0  0  0  0  0  0
  1  2  1  0
  2  3  1  0
  3  4  1  0
  4  5  2  0
  5  6  1  0
  6  7  2  0
  7  8  1  0
  8  9  1  0
  9 10  2  0
  9 11  1  0
 11 12  1  0
 12 13  1  0
 13 14  2  0
 14 15  1  0
 15 16  2  0
 16 17  1  0
 17 18  1  0
 18 19  2  0
 19 20  1  0
 20 21  2  0
 21 22  1  0
 22 23  1  0
 16 24  1  0
 24 25  1  0
 25 26  2  0
 26 27  1  0
 27 28  2  0
 28 29  1  0
 28 30  1  0
 30 31  2  0
  7 32  1  0
 32 33  2  0
 33  4  1  0
 24 13  1  0
 31 25  1  0
 22 18  1  0
  1 34  1  0
  1 35  1  0
  1 36  1  0
  2 37  1  0
  2 38  1  0
  5 39  1  0
  6 40  1  0
  8 41  1  0
 11 42  1  0
 11 43  1  0
 17 44  1  0
 17 45  1  0
 19 46  1  0
 20 47  1  0
 21 48  1  0
 23 49  1  0
 23 50  1  0
 23 51  1  0
 26 52  1  0
 27 53  1  0
 30 54  1  0
 31 55  1  0
 32 56  1  0
 33 57  1  0
M  END
$$$$
