
     RDKit          3D

 48 49  0  0  0  0  0  0  0  0999 V2000
   -7.2315   -0.4319    2.8104 C   0  0  0  0  0  0  0  0  0  0  0  0
   -6.8052   -0.2147    1.3883 C   0  0  0  0  0  0  0  0  0  0  0  0
   -7.7524   -0.1076    0.3711 C   0  0  0  0  0  0  0  0  0  0  0  0
   -7.3429    0.0649   -0.9497 C   0  0  0  0  0  0  0  0  0  0  0  0
   -5.9784    0.1228   -1.2825 C   0  0  0  0  0  0  0  0  0  0  0  0
   -5.6088    0.3111   -2.7299 C   0  0  0  0  0  0  0  0  0  0  0  0
   -5.0104   -0.0010   -0.2615 C   0  0  0  0  0  0  0  0  0  0  0  0
   -3.6403    0.0504   -0.6136 N   0  0  0  0  0  0  0  0  0  0  0  0
   -2.5370   -0.0510    0.2176 C   0  0  0  0  0  0  0  0  0  0  0  0
   -2.5361   -0.2057    1.4334 O   0  0  0  0  0  0  0  0  0  0  0  0
   -1.2443    0.0543   -0.5694 C   0  0  0  0  0  0  0  0  0  0  0  0
   -0.0247   -0.0604    0.3363 C   0  0  0  0  0  0  0  0  0  0  0  0
    1.2623    0.0463   -0.4499 C   0  0  0  0  0  0  0  0  0  0  0  0
    1.2925    0.2001   -1.6674 O   0  0  0  0  0  0  0  0  0  0  0  0
    2.3805   -0.0509    0.3670 N   0  0  0  0  0  0  0  0  0  0  0  0
    3.6194    0.0276   -0.1870 N   0  0  0  0  0  0  0  0  0  0  0  0
    4.6162   -0.0725    0.6321 C   0  0  0  0  0  0  0  0  0  0  0  0
    6.0055   -0.0005    0.1354 C   0  0  0  0  0  0  0  0  0  0  0  0
    7.0430   -0.1155    1.0667 C   0  0  0  0  0  0  0  0  0  0  0  0
    8.3730   -0.0510    0.6224 C   0  0  0  0  0  0  0  0  0  0  0  0
    9.4670   -0.1711    1.5952 N   0  0  0  0  0  4  0  0  0  0  0  0
    9.1584   -0.3232    2.7858 O   0  0  0  0  0  0  0  0  0  0  0  0
   10.6284   -0.1135    1.1698 O   0  0  0  0  0  1  0  0  0  0  0  0
    8.6692    0.1264   -0.7358 C   0  0  0  0  0  0  0  0  0  0  0  0
    7.6257    0.2402   -1.6561 C   0  0  0  0  0  0  0  0  0  0  0  0
    6.3016    0.1771   -1.2232 C   0  0  0  0  0  0  0  0  0  0  0  0
    5.3458    0.2979   -2.1934 O   0  0  0  0  0  0  0  0  0  0  0  0
   -5.4408   -0.1725    1.0609 C   0  0  0  0  0  0  0  0  0  0  0  0
   -8.2400   -0.0412    2.9831 H   0  0  0  0  0  0  0  0  0  0  0  0
   -7.2245   -1.5011    3.0438 H   0  0  0  0  0  0  0  0  0  0  0  0
   -6.5594    0.0886    3.5009 H   0  0  0  0  0  0  0  0  0  0  0  0
   -8.8147   -0.1559    0.5989 H   0  0  0  0  0  0  0  0  0  0  0  0
   -8.1028    0.1520   -1.7237 H   0  0  0  0  0  0  0  0  0  0  0  0
   -5.0266   -0.5443   -3.0876 H   0  0  0  0  0  0  0  0  0  0  0  0
   -5.0295    1.2313   -2.8577 H   0  0  0  0  0  0  0  0  0  0  0  0
   -6.4958    0.3930   -3.3673 H   0  0  0  0  0  0  0  0  0  0  0  0
   -3.4395    0.1763   -1.5966 H   0  0  0  0  0  0  0  0  0  0  0  0
   -1.2346    1.0177   -1.0938 H   0  0  0  0  0  0  0  0  0  0  0  0
   -1.2302   -0.7426   -1.3229 H   0  0  0  0  0  0  0  0  0  0  0  0
   -0.0318   -1.0241    0.8599 H   0  0  0  0  0  0  0  0  0  0  0  0
   -0.0374    0.7358    1.0904 H   0  0  0  0  0  0  0  0  0  0  0  0
    2.2771   -0.1776    1.3688 H   0  0  0  0  0  0  0  0  0  0  0  0
    4.4703   -0.2138    1.7183 H   0  0  0  0  0  0  0  0  0  0  0  0
    6.8183   -0.2534    2.1221 H   0  0  0  0  0  0  0  0  0  0  0  0
    9.6963    0.1779   -1.0925 H   0  0  0  0  0  0  0  0  0  0  0  0
    7.8406    0.3785   -2.7138 H   0  0  0  0  0  0  0  0  0  0  0  0
    4.4553    0.2367   -1.7753 H   0  0  0  0  0  0  0  0  0  0  0  0
   -4.7270   -0.2768    1.8723 H   0  0  0  0  0  0  0  0  0  0  0  0
  1  2  1  0
  2  3  2  0
  3  4  1  0
  4  5  2  0
  5  6  1  0
  5  7  1  0
  7  8  1  0
  8  9  1  0
  9 10  2  0
  9 11  1  0
 11 12  1  0
 12 13  1  0
 13 14  2  0
 13 15  1  0
 15 16  1  0
 16 17  2  3
 17 18  1  0
 18 19  2  0
 19 20  1  0
 20 21  1  0
 21 22  2  0
 21 23  1  0
 20 24  2  0
 24 25  1  0
 25 26  2  0
 26 27  1  0
  7 28  2  0
 28  2  1  0
 26 18  1  0
  1 29  1  0
  1 30  1  0
  1 31  1  0
  3 32  1  0
  4 33  1  0
  6 34  1  0
  6 35  1  0
  6 36  1  0
  8 37  1  0
 11 38  1  0
 11 39  1  0
 12 40  1  0
 12 41  1  0
 15 42  1  0
 17 43  1  0
 19 44  1  0
 24 45  1  0
 25 46  1  0
 27 47  1  0
 28 48  1  0
M  CHG  2  21   1  23  -1
M  END
$$$$
