
     RDKit          3D

 38 40  0  0  0  0  0  0  0  0999 V2000
    3.0404    0.9277    1.2003 C   0  0  0  0  0  0  0  0  0  0  0  0
    1.5724    0.8728    1.5193 C   0  0  0  0  0  0  0  0  0  0  0  0
    1.1197   -0.0303    2.4947 C   0  0  0  0  0  0  0  0  0  0  0  0
   -0.2373   -0.1055    2.8153 C   0  0  0  0  0  0  0  0  0  0  0  0
   -0.6559   -0.9940    3.7685 O   0  0  0  0  0  0  0  0  0  0  0  0
   -1.1687    0.7214    2.1783 C   0  0  0  0  0  0  0  0  0  0  0  0
   -2.9090    0.6670    2.5657 S   0  0  0  0  0  0  0  0  0  0  0  0
   -3.4747   -0.6099    1.5182 C   0  0  0  0  0  0  0  0  0  0  0  0
   -2.7307   -1.1894    0.5181 N   0  0  0  0  0  0  0  0  0  0  0  0
   -3.5620   -2.0586   -0.0055 C   0  0  0  0  0  0  0  0  0  0  0  0
   -4.7516   -1.9968    0.6456 N   0  0  0  0  0  0  0  0  0  0  0  0
   -4.7258   -1.0763    1.6182 N   0  0  0  0  0  0  0  0  0  0  0  0
   -0.7175    1.6333    1.2171 C   0  0  0  0  0  0  0  0  0  0  0  0
    0.6367    1.7004    0.8748 C   0  0  0  0  0  0  0  0  0  0  0  0
    1.0607    2.5952   -0.1511 N   0  0  0  0  0  0  0  0  0  0  0  0
    0.4903    2.4100   -1.7292 S   0  0  0  0  0  6  0  0  0  0  0  0
    1.3600    3.2194   -2.5582 O   0  0  0  0  0  0  0  0  0  0  0  0
   -0.9445    2.5879   -1.7588 O   0  0  0  0  0  0  0  0  0  0  0  0
    0.8421    0.7036   -2.0988 C   0  0  0  0  0  0  0  0  0  0  0  0
   -0.1124   -0.2777   -1.8109 C   0  0  0  0  0  0  0  0  0  0  0  0
    0.1665   -1.6152   -2.0962 C   0  0  0  0  0  0  0  0  0  0  0  0
    1.3818   -1.9596   -2.6876 C   0  0  0  0  0  0  0  0  0  0  0  0
    1.7227   -3.6093   -3.0366 Cl  0  0  0  0  0  0  0  0  0  0  0  0
    2.3225   -0.9772   -3.0016 C   0  0  0  0  0  0  0  0  0  0  0  0
    2.0528    0.3623   -2.7115 C   0  0  0  0  0  0  0  0  0  0  0  0
    3.2113    0.7287    0.1384 H   0  0  0  0  0  0  0  0  0  0  0  0
    3.4461    1.9115    1.4569 H   0  0  0  0  0  0  0  0  0  0  0  0
    3.6048    0.1794    1.7668 H   0  0  0  0  0  0  0  0  0  0  0  0
    1.8334   -0.6750    3.0009 H   0  0  0  0  0  0  0  0  0  0  0  0
    0.0994   -1.5163    4.0809 H   0  0  0  0  0  0  0  0  0  0  0  0
   -3.3679   -2.7324   -0.8272 H   0  0  0  0  0  0  0  0  0  0  0  0
   -5.5999   -2.5288    0.4873 H   0  0  0  0  0  0  0  0  0  0  0  0
   -1.4331    2.2923    0.7294 H   0  0  0  0  0  0  0  0  0  0  0  0
    2.0121    2.9548   -0.1253 H   0  0  0  0  0  0  0  0  0  0  0  0
   -1.0653   -0.0143   -1.3545 H   0  0  0  0  0  0  0  0  0  0  0  0
   -0.5676   -2.3785   -1.8523 H   0  0  0  0  0  0  0  0  0  0  0  0
    3.2633   -1.2484   -3.4743 H   0  0  0  0  0  0  0  0  0  0  0  0
    2.7850    1.1258   -2.9651 H   0  0  0  0  0  0  0  0  0  0  0  0
  1  2  1  0
  2  3  2  0
  3  4  1  0
  4  5  1  0
  4  6  2  0
  6  7  1  0
  7  8  1  0
  8  9  1  0
  9 10  2  0
 10 11  1  0
 11 12  1  0
  6 13  1  0
 13 14  2  0
 14 15  1  0
 15 16  1  0
 16 17  2  0
 16 18  2  0
 16 19  1  0
 19 20  2  0
 20 21  1  0
 21 22  2  0
 22 23  1  0
 22 24  1  0
 24 25  2  0
 14  2  1  0
 25 19  1  0
 12  8  2  0
  1 26  1  0
  1 27  1  0
  1 28  1  0
  3 29  1  0
  5 30  1  0
 10 31  1  0
 11 32  1  0
 13 33  1  0
 15 34  1  0
 20 35  1  0
 21 36  1  0
 24 37  1  0
 25 38  1  0
M  END
$$$$
