
     RDKit          3D

 19 19  0  0  0  0  0  0  0  0999 V2000
   -2.9507   -0.8252   -0.7913 C   0  0  0  0  0  0  0  0  0  0  0  0
   -2.2117    0.2816   -0.2897 O   0  0  0  0  0  0  0  0  0  0  0  0
   -0.8656    0.1147   -0.0999 C   0  0  0  0  0  0  0  0  0  0  0  0
   -0.1690   -1.0707   -0.3466 C   0  0  0  0  0  0  0  0  0  0  0  0
    1.2118   -1.1410   -0.1229 C   0  0  0  0  0  0  0  0  0  0  0  0
    1.9290   -0.0252    0.3089 C   0  0  0  0  0  0  0  0  0  0  0  0
    3.2802   -0.1419    0.6440 N   0  0  0  0  0  0  0  0  0  0  0  0
    1.2250    1.1397    0.6128 C   0  0  0  0  0  0  0  0  0  0  0  0
   -0.1595    1.2228    0.3927 C   0  0  0  0  0  0  0  0  0  0  0  0
   -0.8283    2.4570    0.6924 C   0  0  0  0  0  0  0  0  0  0  0  0
   -1.3284    3.4747    0.9444 N   0  0  0  0  0  0  0  0  0  0  0  0
   -3.9946   -0.5124   -0.8907 H   0  0  0  0  0  0  0  0  0  0  0  0
   -2.5953   -1.1199   -1.7842 H   0  0  0  0  0  0  0  0  0  0  0  0
   -2.9207   -1.6678   -0.0928 H   0  0  0  0  0  0  0  0  0  0  0  0
   -0.6677   -1.9670   -0.7009 H   0  0  0  0  0  0  0  0  0  0  0  0
    1.7239   -2.0857   -0.2918 H   0  0  0  0  0  0  0  0  0  0  0  0
    3.7897    0.7368    0.6547 H   0  0  0  0  0  0  0  0  0  0  0  0
    3.7776   -0.8670    0.1360 H   0  0  0  0  0  0  0  0  0  0  0  0
    1.7545    1.9965    1.0250 H   0  0  0  0  0  0  0  0  0  0  0  0
  1  2  1  0
  2  3  1  0
  3  4  2  0
  4  5  1  0
  5  6  2  0
  6  7  1  0
  6  8  1  0
  8  9  2  0
  9 10  1  0
 10 11  3  0
  9  3  1  0
  1 12  1  0
  1 13  1  0
  1 14  1  0
  4 15  1  0
  5 16  1  0
  7 17  1  0
  7 18  1  0
  8 19  1  0
M  END
$$$$
