
     RDKit          3D

 38 39  0  0  0  0  0  0  0  0999 V2000
   -4.8213    1.8386    2.2801 C   0  0  0  0  0  0  0  0  0  0  0  0
   -3.8711    1.4642    1.2889 O   0  0  0  0  0  0  0  0  0  0  0  0
   -4.1960    0.4344    0.4473 C   0  0  0  0  0  0  0  0  0  0  0  0
   -5.3960   -0.2861    0.5213 C   0  0  0  0  0  0  0  0  0  0  0  0
   -5.6801   -1.3008   -0.3986 C   0  0  0  0  0  0  0  0  0  0  0  0
   -4.7729   -1.6064   -1.4072 C   0  0  0  0  0  0  0  0  0  0  0  0
   -3.5743   -0.9024   -1.4916 C   0  0  0  0  0  0  0  0  0  0  0  0
   -3.2738    0.1083   -0.5628 C   0  0  0  0  0  0  0  0  0  0  0  0
   -1.9604    0.7923   -0.7277 C   0  0  0  0  0  0  0  0  0  0  0  0
   -1.5008    0.9340   -1.8625 O   0  0  0  0  0  0  0  0  0  0  0  0
   -1.2075    1.2526    0.5172 C   0  0  0  0  0  0  0  0  0  0  0  0
    0.2037    1.3291    0.2893 O   0  0  0  0  0  0  0  0  0  0  0  0
    0.8111    0.1193    0.2081 C   0  0  0  0  0  0  0  0  0  0  0  0
    0.2876   -0.9682    0.3882 O   0  0  0  0  0  0  0  0  0  0  0  0
    2.2344    0.3428   -0.1141 C   0  0  0  0  0  0  0  0  0  0  0  0
    3.0739   -0.7006   -0.1936 C   0  0  0  0  0  0  0  0  0  0  0  0
    4.5008   -0.5847   -0.5231 C   0  0  0  0  0  0  0  0  0  0  0  0
    5.2909    0.4843   -0.0798 C   0  0  0  0  0  0  0  0  0  0  0  0
    6.6519    0.5402   -0.3929 C   0  0  0  0  0  0  0  0  0  0  0  0
    7.2388   -0.4763   -1.1433 C   0  0  0  0  0  0  0  0  0  0  0  0
    6.4675   -1.5521   -1.5766 C   0  0  0  0  0  0  0  0  0  0  0  0
    5.1071   -1.6086   -1.2631 C   0  0  0  0  0  0  0  0  0  0  0  0
   -4.4028    2.6796    2.8413 H   0  0  0  0  0  0  0  0  0  0  0  0
   -5.7570    2.1766    1.8230 H   0  0  0  0  0  0  0  0  0  0  0  0
   -4.9953    1.0210    2.9872 H   0  0  0  0  0  0  0  0  0  0  0  0
   -6.1424   -0.0814    1.2824 H   0  0  0  0  0  0  0  0  0  0  0  0
   -6.6167   -1.8494   -0.3289 H   0  0  0  0  0  0  0  0  0  0  0  0
   -4.9947   -2.3911   -2.1263 H   0  0  0  0  0  0  0  0  0  0  0  0
   -2.8646   -1.1475   -2.2805 H   0  0  0  0  0  0  0  0  0  0  0  0
   -1.5373    2.2673    0.7599 H   0  0  0  0  0  0  0  0  0  0  0  0
   -1.4087    0.6011    1.3748 H   0  0  0  0  0  0  0  0  0  0  0  0
    2.5429    1.3645   -0.2953 H   0  0  0  0  0  0  0  0  0  0  0  0
    2.7038   -1.7124   -0.0341 H   0  0  0  0  0  0  0  0  0  0  0  0
    4.8628    1.2807    0.5235 H   0  0  0  0  0  0  0  0  0  0  0  0
    7.2540    1.3759   -0.0457 H   0  0  0  0  0  0  0  0  0  0  0  0
    8.2972   -0.4324   -1.3863 H   0  0  0  0  0  0  0  0  0  0  0  0
    6.9231   -2.3491   -2.1584 H   0  0  0  0  0  0  0  0  0  0  0  0
    4.5220   -2.4573   -1.6114 H   0  0  0  0  0  0  0  0  0  0  0  0
  1  2  1  0
  2  3  1  0
  3  4  2  0
  4  5  1  0
  5  6  2  0
  6  7  1  0
  7  8  2  0
  8  9  1  0
  9 10  2  0
  9 11  1  0
 11 12  1  0
 12 13  1  0
 13 14  2  0
 13 15  1  0
 15 16  2  3
 16 17  1  0
 17 18  2  0
 18 19  1  0
 19 20  2  0
 20 21  1  0
 21 22  2  0
  8  3  1  0
 22 17  1  0
  1 23  1  0
  1 24  1  0
  1 25  1  0
  4 26  1  0
  5 27  1  0
  6 28  1  0
  7 29  1  0
 11 30  1  0
 11 31  1  0
 15 32  1  0
 16 33  1  0
 18 34  1  0
 19 35  1  0
 20 36  1  0
 21 37  1  0
 22 38  1  0
M  END
$$$$
