
     RDKit          3D

 35 36  0  0  0  0  0  0  0  0999 V2000
   -6.5077   -1.1073   -2.5401 C   0  0  0  0  0  0  0  0  0  0  0  0
   -5.2336   -0.6483   -1.8955 C   0  0  0  0  0  0  0  0  0  0  0  0
   -4.0760   -1.4276   -1.9774 C   0  0  0  0  0  0  0  0  0  0  0  0
   -2.8742   -0.9913   -1.4052 C   0  0  0  0  0  0  0  0  0  0  0  0
   -2.8018    0.2383   -0.7476 C   0  0  0  0  0  0  0  0  0  0  0  0
   -1.6165    0.7304   -0.1506 N   0  0  0  0  0  0  0  0  0  0  0  0
   -0.3690    0.1257   -0.0948 C   0  0  0  0  0  0  0  0  0  0  0  0
   -0.0762   -0.9713   -0.5592 O   0  0  0  0  0  0  0  0  0  0  0  0
    0.6489    0.9968    0.6473 C   0  0  0  0  0  0  0  0  0  0  0  0
    1.9581    0.4374    0.5875 O   0  0  0  0  0  0  0  0  0  0  0  0
    2.8768    1.1269    1.2969 C   0  0  0  0  0  0  0  0  0  0  0  0
    2.6789    2.1048    1.9971 O   0  0  0  0  0  0  0  0  0  0  0  0
    4.1778    0.4513    1.1867 C   0  0  0  0  0  0  0  0  0  0  0  0
    4.7813    0.0322    2.3805 C   0  0  0  0  0  0  0  0  0  0  0  0
    6.0121   -0.6173    2.3358 C   0  0  0  0  0  0  0  0  0  0  0  0
    6.7529   -1.1450    3.7951 Cl  0  0  0  0  0  0  0  0  0  0  0  0
    6.6491   -0.8426    1.1161 C   0  0  0  0  0  0  0  0  0  0  0  0
    6.0551   -0.4052   -0.0712 C   0  0  0  0  0  0  0  0  0  0  0  0
    4.8192    0.2492   -0.0407 C   0  0  0  0  0  0  0  0  0  0  0  0
    4.1800    0.8265   -1.5369 Cl  0  0  0  0  0  0  0  0  0  0  0  0
   -3.9663    1.0256   -0.6815 C   0  0  0  0  0  0  0  0  0  0  0  0
   -3.9653    2.7219    0.1845 Br  0  0  0  0  0  0  0  0  0  0  0  0
   -5.1678    0.5912   -1.2527 C   0  0  0  0  0  0  0  0  0  0  0  0
   -6.5760   -2.2003   -2.5362 H   0  0  0  0  0  0  0  0  0  0  0  0
   -7.3791   -0.7261   -1.9975 H   0  0  0  0  0  0  0  0  0  0  0  0
   -6.5521   -0.7536   -3.5747 H   0  0  0  0  0  0  0  0  0  0  0  0
   -4.0949   -2.3883   -2.4893 H   0  0  0  0  0  0  0  0  0  0  0  0
   -2.0107   -1.6428   -1.4981 H   0  0  0  0  0  0  0  0  0  0  0  0
   -1.7138    1.6416    0.2863 H   0  0  0  0  0  0  0  0  0  0  0  0
    0.6588    1.9888    0.1803 H   0  0  0  0  0  0  0  0  0  0  0  0
    0.3216    1.0715    1.6914 H   0  0  0  0  0  0  0  0  0  0  0  0
    4.2884    0.2104    3.3338 H   0  0  0  0  0  0  0  0  0  0  0  0
    7.6107   -1.3498    1.0824 H   0  0  0  0  0  0  0  0  0  0  0  0
    6.5666   -0.5711   -1.0171 H   0  0  0  0  0  0  0  0  0  0  0  0
   -6.0556    1.2173   -1.1976 H   0  0  0  0  0  0  0  0  0  0  0  0
  1  2  1  0
  2  3  2  0
  3  4  1  0
  4  5  2  0
  5  6  1  0
  6  7  1  0
  7  8  2  0
  7  9  1  0
  9 10  1  0
 10 11  1  0
 11 12  2  0
 11 13  1  0
 13 14  2  0
 14 15  1  0
 15 16  1  0
 15 17  2  0
 17 18  1  0
 18 19  2  0
 19 20  1  0
  5 21  1  0
 21 22  1  0
 21 23  2  0
 23  2  1  0
 19 13  1  0
  1 24  1  0
  1 25  1  0
  1 26  1  0
  3 27  1  0
  4 28  1  0
  6 29  1  0
  9 30  1  0
  9 31  1  0
 14 32  1  0
 17 33  1  0
 18 34  1  0
 23 35  1  0
M  END
$$$$
