
     RDKit          3D

 53 55  0  0  0  0  0  0  0  0999 V2000
    8.0069    2.0225    3.6120 C   0  0  0  0  0  0  0  0  0  0  0  0
    7.9507    1.7993    2.2083 O   0  0  0  0  0  0  0  0  0  0  0  0
    6.7100    1.6403    1.6559 C   0  0  0  0  0  0  0  0  0  0  0  0
    6.7043    1.5360    0.2600 C   0  0  0  0  0  0  0  0  0  0  0  0
    5.5075    1.3692   -0.4392 C   0  0  0  0  0  0  0  0  0  0  0  0
    4.3093    1.2943    0.2715 C   0  0  0  0  0  0  0  0  0  0  0  0
    2.7696    1.0842   -0.5872 S   0  0  0  0  0  6  0  0  0  0  0  0
    3.0321    1.0746   -2.0105 O   0  0  0  0  0  0  0  0  0  0  0  0
    1.8199    2.0004    0.0026 O   0  0  0  0  0  0  0  0  0  0  0  0
    2.3262   -0.4855   -0.1476 N   0  0  0  0  0  0  0  0  0  0  0  0
    3.1908   -1.5895   -0.6185 C   0  0  0  0  0  0  0  0  0  0  0  0
    2.2834   -2.4072   -1.5090 C   0  0  0  0  0  0  0  0  0  0  0  0
    0.9964   -2.2375   -0.9131 O   0  0  0  0  0  0  0  0  0  0  0  0
    0.9432   -0.8402   -0.5511 C   0  0  0  0  0  0  0  0  0  0  0  0
   -0.0399   -0.6650    0.6228 C   0  0  0  0  0  0  0  0  0  0  0  0
   -1.3763   -1.1608    0.3400 N   0  0  0  0  0  0  0  0  0  0  0  0
   -2.2085   -0.5244   -0.5501 C   0  0  0  0  0  0  0  0  0  0  0  0
   -1.9937    0.5541   -1.0840 O   0  0  0  0  0  0  0  0  0  0  0  0
   -3.4976   -1.3135   -0.8753 C   0  0  0  0  0  0  0  0  0  0  0  0
   -3.6868   -2.4149   -0.3773 O   0  0  0  0  0  0  0  0  0  0  0  0
   -4.3396   -0.6533   -1.7368 N   0  0  0  0  0  0  0  0  0  0  0  0
   -5.6549   -1.1405   -2.0607 C   0  0  0  0  0  0  0  0  0  0  0  0
   -6.6956   -0.5559   -1.1409 C   0  0  0  0  0  0  0  0  0  0  0  0
   -7.0795   -1.2841    0.0001 C   0  0  0  0  0  0  0  0  0  0  0  0
   -8.0288   -0.7774    0.8892 C   0  0  0  0  0  0  0  0  0  0  0  0
   -8.6039    0.4688    0.6578 C   0  0  0  0  0  0  0  0  0  0  0  0
   -8.2229    1.2124   -0.4587 C   0  0  0  0  0  0  0  0  0  0  0  0
   -7.2719    0.7066   -1.3509 C   0  0  0  0  0  0  0  0  0  0  0  0
   -6.8321    1.6973   -2.6968 Cl  0  0  0  0  0  0  0  0  0  0  0  0
    4.2990    1.4044    1.6648 C   0  0  0  0  0  0  0  0  0  0  0  0
    5.5026    1.5751    2.3560 C   0  0  0  0  0  0  0  0  0  0  0  0
    7.4555    2.9262    3.8920 H   0  0  0  0  0  0  0  0  0  0  0  0
    9.0559    2.1749    3.8841 H   0  0  0  0  0  0  0  0  0  0  0  0
    7.6428    1.1497    4.1643 H   0  0  0  0  0  0  0  0  0  0  0  0
    7.6436    1.5940   -0.2859 H   0  0  0  0  0  0  0  0  0  0  0  0
    5.5229    1.3045   -1.5242 H   0  0  0  0  0  0  0  0  0  0  0  0
    4.0941   -1.2732   -1.1445 H   0  0  0  0  0  0  0  0  0  0  0  0
    3.4943   -2.1671    0.2619 H   0  0  0  0  0  0  0  0  0  0  0  0
    2.5539   -3.4658   -1.5355 H   0  0  0  0  0  0  0  0  0  0  0  0
    2.2538   -2.0169   -2.5326 H   0  0  0  0  0  0  0  0  0  0  0  0
    0.6137   -0.2871   -1.4386 H   0  0  0  0  0  0  0  0  0  0  0  0
    0.3116   -1.2241    1.4975 H   0  0  0  0  0  0  0  0  0  0  0  0
   -0.1182    0.3905    0.9028 H   0  0  0  0  0  0  0  0  0  0  0  0
   -1.6043   -2.1295    0.5492 H   0  0  0  0  0  0  0  0  0  0  0  0
   -4.0798    0.2965   -1.9912 H   0  0  0  0  0  0  0  0  0  0  0  0
   -5.6669   -2.2352   -1.9984 H   0  0  0  0  0  0  0  0  0  0  0  0
   -5.8626   -0.8910   -3.1065 H   0  0  0  0  0  0  0  0  0  0  0  0
   -6.6287   -2.2552    0.2045 H   0  0  0  0  0  0  0  0  0  0  0  0
   -8.3145   -1.3556    1.7645 H   0  0  0  0  0  0  0  0  0  0  0  0
   -9.3420    0.8654    1.3504 H   0  0  0  0  0  0  0  0  0  0  0  0
   -8.6681    2.1902   -0.6262 H   0  0  0  0  0  0  0  0  0  0  0  0
    3.3603    1.3633    2.2138 H   0  0  0  0  0  0  0  0  0  0  0  0
    5.4631    1.6558    3.4375 H   0  0  0  0  0  0  0  0  0  0  0  0
  1  2  1  0
  2  3  1  0
  3  4  2  0
  4  5  1  0
  5  6  2  0
  6  7  1  0
  7  8  2  0
  7  9  2  0
  7 10  1  0
 10 11  1  0
 11 12  1  0
 12 13  1  0
 13 14  1  0
 14 15  1  0
 15 16  1  0
 16 17  1  0
 17 18  2  0
 17 19  1  0
 19 20  2  0
 19 21  1  0
 21 22  1  0
 22 23  1  0
 23 24  2  0
 24 25  1  0
 25 26  2  0
 26 27  1  0
 27 28  2  0
 28 29  1  0
  6 30  1  0
 30 31  2  0
 31  3  1  0
 14 10  1  0
 28 23  1  0
  1 32  1  0
  1 33  1  0
  1 34  1  0
  4 35  1  0
  5 36  1  0
 11 37  1  0
 11 38  1  0
 12 39  1  0
 12 40  1  0
 14 41  1  0
 15 42  1  0
 15 43  1  0
 16 44  1  0
 21 45  1  0
 22 46  1  0
 22 47  1  0
 24 48  1  0
 25 49  1  0
 26 50  1  0
 27 51  1  0
 30 52  1  0
 31 53  1  0
M  END
$$$$
