
     RDKit          3D

 50 53  0  0  0  0  0  0  0  0999 V2000
    7.9392    2.8015    0.3581 C   0  0  0  0  0  0  0  0  0  0  0  0
    7.5190    1.5751    0.9425 O   0  0  0  0  0  0  0  0  0  0  0  0
    6.2786    1.1181    0.5944 C   0  0  0  0  0  0  0  0  0  0  0  0
    5.3793    1.7509   -0.2598 C   0  0  0  0  0  0  0  0  0  0  0  0
    4.1319    1.1683   -0.5312 C   0  0  0  0  0  0  0  0  0  0  0  0
    3.7490   -0.0569    0.0441 C   0  0  0  0  0  0  0  0  0  0  0  0
    2.4368   -0.6789   -0.2292 C   0  0  0  0  0  0  0  0  0  0  0  0
    1.2890    0.0562   -0.4658 C   0  0  0  0  0  0  0  0  0  0  0  0
    0.0975   -0.6281   -0.7086 C   0  0  0  0  0  0  0  0  0  0  0  0
   -1.1092    0.2110   -0.8916 C   0  0  0  0  0  0  0  0  0  0  0  0
   -1.0882    1.0608   -1.7715 O   0  0  0  0  0  0  0  0  0  0  0  0
   -2.1115   -0.0414    0.0247 N   0  0  0  0  0  0  0  0  0  0  0  0
   -3.3800    0.5712    0.0974 C   0  0  0  0  0  0  0  0  0  0  0  0
   -3.8355    1.5229   -0.8089 C   0  0  0  0  0  0  0  0  0  0  0  0
   -5.1254    2.0470   -0.6884 C   0  0  0  0  0  0  0  0  0  0  0  0
   -5.9771    1.6423    0.3509 C   0  0  0  0  0  0  0  0  0  0  0  0
   -7.3703    2.2044    0.4137 C   0  0  0  0  0  0  0  0  0  0  0  0
   -5.5021    0.7346    1.3112 C   0  0  0  0  0  0  0  0  0  0  0  0
   -6.3441    0.2123    2.3075 N   0  0  0  0  0  0  0  0  0  0  0  0
   -4.2275    0.1718    1.1401 C   0  0  0  0  0  0  0  0  0  0  0  0
    0.0586   -2.0377   -0.7608 C   0  0  0  0  0  0  0  0  0  0  0  0
   -1.0861   -2.8138   -1.0798 C   0  0  0  0  0  0  0  0  0  0  0  0
   -1.0293   -4.2059   -1.0932 C   0  0  0  0  0  0  0  0  0  0  0  0
    0.1674   -4.8420   -0.7980 C   0  0  0  0  0  0  0  0  0  0  0  0
    1.3009   -4.0808   -0.5038 C   0  0  0  0  0  0  0  0  0  0  0  0
    1.2723   -2.6927   -0.4882 C   0  0  0  0  0  0  0  0  0  0  0  0
    2.4122   -2.0353   -0.2157 N   0  0  0  0  0  0  0  0  0  0  0  0
    4.6777   -0.6816    0.8939 C   0  0  0  0  0  0  0  0  0  0  0  0
    5.9212   -0.1011    1.1677 C   0  0  0  0  0  0  0  0  0  0  0  0
    8.9450    3.0214    0.7289 H   0  0  0  0  0  0  0  0  0  0  0  0
    7.9973    2.7195   -0.7323 H   0  0  0  0  0  0  0  0  0  0  0  0
    7.2854    3.6268    0.6588 H   0  0  0  0  0  0  0  0  0  0  0  0
    5.6134    2.6958   -0.7388 H   0  0  0  0  0  0  0  0  0  0  0  0
    3.4688    1.6853   -1.2221 H   0  0  0  0  0  0  0  0  0  0  0  0
    1.2954    1.1416   -0.4425 H   0  0  0  0  0  0  0  0  0  0  0  0
   -1.9143   -0.7323    0.7392 H   0  0  0  0  0  0  0  0  0  0  0  0
   -3.2228    1.8652   -1.6368 H   0  0  0  0  0  0  0  0  0  0  0  0
   -5.4647    2.7690   -1.4284 H   0  0  0  0  0  0  0  0  0  0  0  0
   -7.4948    2.8054    1.3202 H   0  0  0  0  0  0  0  0  0  0  0  0
   -7.5839    2.8506   -0.4446 H   0  0  0  0  0  0  0  0  0  0  0  0
   -8.1091    1.3964    0.4062 H   0  0  0  0  0  0  0  0  0  0  0  0
   -7.0912    0.8408    2.5843 H   0  0  0  0  0  0  0  0  0  0  0  0
   -5.8477   -0.1589    3.1110 H   0  0  0  0  0  0  0  0  0  0  0  0
   -3.8981   -0.5914    1.8401 H   0  0  0  0  0  0  0  0  0  0  0  0
   -2.0298   -2.3383   -1.3426 H   0  0  0  0  0  0  0  0  0  0  0  0
   -1.9129   -4.7879   -1.3431 H   0  0  0  0  0  0  0  0  0  0  0  0
    0.2301   -5.9273   -0.8075 H   0  0  0  0  0  0  0  0  0  0  0  0
    2.2400   -4.5871   -0.2889 H   0  0  0  0  0  0  0  0  0  0  0  0
    4.4341   -1.6373    1.3556 H   0  0  0  0  0  0  0  0  0  0  0  0
    6.6155   -0.6098    1.8320 H   0  0  0  0  0  0  0  0  0  0  0  0
  1  2  1  0
  2  3  1  0
  3  4  2  0
  4  5  1  0
  5  6  2  0
  6  7  1  0
  7  8  2  0
  8  9  1  0
  9 10  1  0
 10 11  2  0
 10 12  1  0
 12 13  1  0
 13 14  2  0
 14 15  1  0
 15 16  2  0
 16 17  1  0
 16 18  1  0
 18 19  1  0
 18 20  2  0
  9 21  2  0
 21 22  1  0
 22 23  2  0
 23 24  1  0
 24 25  2  0
 25 26  1  0
 26 27  2  0
  6 28  1  0
 28 29  2  0
 29  3  1  0
 27  7  1  0
 20 13  1  0
 26 21  1  0
  1 30  1  0
  1 31  1  0
  1 32  1  0
  4 33  1  0
  5 34  1  0
  8 35  1  0
 12 36  1  0
 14 37  1  0
 15 38  1  0
 17 39  1  0
 17 40  1  0
 17 41  1  0
 19 42  1  0
 19 43  1  0
 20 44  1  0
 22 45  1  0
 23 46  1  0
 24 47  1  0
 25 48  1  0
 28 49  1  0
 29 50  1  0
M  END
$$$$
