
     RDKit          3D

 46 49  0  0  0  0  0  0  0  0999 V2000
    4.5666   -2.0723    0.8209 O   0  0  0  0  0  0  0  0  0  0  0  0
    3.6747   -1.2527    1.0225 C   0  0  0  0  0  0  0  0  0  0  0  0
    2.6627   -1.4648    2.1428 C   0  0  0  0  0  0  0  0  0  0  0  0
    1.0989   -2.1318    1.4984 S   0  0  0  0  0  0  0  0  0  0  0  0
    0.3646   -0.7033    0.8565 C   0  0  0  0  0  0  0  0  0  0  0  0
    0.8646    0.5071    0.9496 N   0  0  0  0  0  0  0  0  0  0  0  0
    0.0767    1.3433    0.2125 N   0  0  0  0  0  0  0  0  0  0  0  0
   -0.9196    0.6376   -0.2909 C   0  0  0  0  0  0  0  0  0  0  0  0
   -1.9962    1.1820   -1.1722 C   0  0  0  0  0  0  0  0  0  0  0  0
   -3.2678    1.5212   -0.4453 C   0  0  0  0  0  0  0  0  0  0  0  0
   -3.4665    1.8424    0.8865 C   0  0  0  0  0  0  0  0  0  0  0  0
   -4.8341    2.1123    1.1825 C   0  0  0  0  0  0  0  0  0  0  0  0
   -5.6350    2.0089    0.0676 C   0  0  0  0  0  0  0  0  0  0  0  0
   -4.7417    1.5889   -1.3278 S   0  0  0  0  0  0  0  0  0  0  0  0
   -0.7885   -0.6753    0.1192 N   0  0  0  0  0  0  0  0  0  0  0  0
   -1.6528   -1.7912   -0.2149 C   0  0  0  0  0  0  0  0  0  0  0  0
   -2.7415   -1.9469    0.7813 C   0  0  0  0  0  0  0  0  0  0  0  0
   -4.1121   -1.7977    0.7223 C   0  0  0  0  0  0  0  0  0  0  0  0
   -4.6029   -2.0694    2.0214 C   0  0  0  0  0  0  0  0  0  0  0  0
   -3.5075   -2.3967    2.7828 C   0  0  0  0  0  0  0  0  0  0  0  0
   -2.3760   -2.3381    2.0361 O   0  0  0  0  0  0  0  0  0  0  0  0
    3.4806   -0.0759    0.3182 N   0  0  0  0  0  0  0  0  0  0  0  0
    4.1985    0.4073   -0.7937 C   0  0  0  0  0  0  0  0  0  0  0  0
    3.7520    1.6095   -1.3593 C   0  0  0  0  0  0  0  0  0  0  0  0
    4.3985    2.1485   -2.4735 C   0  0  0  0  0  0  0  0  0  0  0  0
    3.8281    3.6198   -3.1631 Cl  0  0  0  0  0  0  0  0  0  0  0  0
    5.4947    1.5048   -3.0344 C   0  0  0  0  0  0  0  0  0  0  0  0
    5.9403    0.3119   -2.4706 C   0  0  0  0  0  0  0  0  0  0  0  0
    7.2944   -0.4968   -3.1651 Cl  0  0  0  0  0  0  0  0  0  0  0  0
    5.2999   -0.2399   -1.3570 C   0  0  0  0  0  0  0  0  0  0  0  0
    2.5069   -0.5372    2.7039 H   0  0  0  0  0  0  0  0  0  0  0  0
    3.0858   -2.1932    2.8456 H   0  0  0  0  0  0  0  0  0  0  0  0
   -1.6206    2.0985   -1.6481 H   0  0  0  0  0  0  0  0  0  0  0  0
   -2.1926    0.4742   -1.9853 H   0  0  0  0  0  0  0  0  0  0  0  0
   -2.6694    1.8800    1.6214 H   0  0  0  0  0  0  0  0  0  0  0  0
   -5.2062    2.3771    2.1633 H   0  0  0  0  0  0  0  0  0  0  0  0
   -6.7040    2.1680    0.0024 H   0  0  0  0  0  0  0  0  0  0  0  0
   -2.0582   -1.6215   -1.2161 H   0  0  0  0  0  0  0  0  0  0  0  0
   -1.0525   -2.7023   -0.2769 H   0  0  0  0  0  0  0  0  0  0  0  0
   -4.6907   -1.5019   -0.1439 H   0  0  0  0  0  0  0  0  0  0  0  0
   -5.6261   -2.0302    2.3639 H   0  0  0  0  0  0  0  0  0  0  0  0
   -3.3693   -2.6771    3.8209 H   0  0  0  0  0  0  0  0  0  0  0  0
    2.6791    0.4913    0.6080 H   0  0  0  0  0  0  0  0  0  0  0  0
    2.8928    2.1313   -0.9396 H   0  0  0  0  0  0  0  0  0  0  0  0
    5.9957    1.9242   -3.9023 H   0  0  0  0  0  0  0  0  0  0  0  0
    5.6756   -1.1742   -0.9527 H   0  0  0  0  0  0  0  0  0  0  0  0
  1  2  2  0
  2  3  1  0
  3  4  1  0
  4  5  1  0
  5  6  2  0
  6  7  1  0
  7  8  2  0
  8  9  1  0
  9 10  1  0
 10 11  2  0
 11 12  1  0
 12 13  2  0
 13 14  1  0
  8 15  1  0
 15 16  1  0
 16 17  1  0
 17 18  2  0
 18 19  1  0
 19 20  2  0
 20 21  1  0
  2 22  1  0
 22 23  1  0
 23 24  2  0
 24 25  1  0
 25 26  1  0
 25 27  2  0
 27 28  1  0
 28 29  1  0
 28 30  2  0
 15  5  1  0
 21 17  1  0
 30 23  1  0
 14 10  1  0
  3 31  1  0
  3 32  1  0
  9 33  1  0
  9 34  1  0
 11 35  1  0
 12 36  1  0
 13 37  1  0
 16 38  1  0
 16 39  1  0
 18 40  1  0
 19 41  1  0
 20 42  1  0
 22 43  1  0
 24 44  1  0
 27 45  1  0
 30 46  1  0
M  END
$$$$
