
     RDKit          3D

 60 65  0  0  0  0  0  0  0  0999 V2000
    4.9941   -2.3977    0.2160 C   0  0  0  0  0  0  0  0  0  0  0  0
    5.2193   -1.4509   -0.9003 C   0  0  0  0  0  0  0  0  0  0  0  0
    6.4345   -0.9131   -1.0661 N   0  0  0  0  0  0  0  0  0  0  0  0
    6.3606   -0.1650   -2.2248 O   0  0  0  0  0  0  0  0  0  0  0  0
    5.1044   -0.2415   -2.7353 C   0  0  0  0  0  0  0  0  0  0  0  0
    4.8660    0.4786   -4.0003 C   0  0  0  0  0  0  0  0  0  0  0  0
    4.3166   -1.0113   -1.9061 C   0  0  0  0  0  0  0  0  0  0  0  0
    2.9218   -1.3208   -2.1333 C   0  0  0  0  0  0  0  0  0  0  0  0
    2.5411   -1.7128   -3.2348 O   0  0  0  0  0  0  0  0  0  0  0  0
    2.0286   -1.1464   -1.0714 N   0  0  0  0  0  0  0  0  0  0  0  0
    2.2945   -0.2852    0.0831 C   0  0  0  0  0  0  0  0  0  0  0  0
    1.0482    0.4993    0.4853 C   0  0  0  0  0  0  0  0  0  0  0  0
   -0.1011   -0.4557    0.9078 C   0  0  0  0  0  0  0  0  0  0  0  0
   -0.1076   -1.7390    0.0309 C   0  0  0  0  0  0  0  0  0  0  0  0
    0.6521   -1.5760   -1.2802 C   0  0  0  0  0  0  0  0  0  0  0  0
    0.2959   -0.8560    2.2523 O   0  0  0  0  0  0  0  0  0  0  0  0
   -0.6647   -1.3445    3.0858 C   0  0  0  0  0  0  0  0  0  0  0  0
   -0.2074   -1.9544    4.2556 C   0  0  0  0  0  0  0  0  0  0  0  0
   -1.1184   -2.5027    5.1604 C   0  0  0  0  0  0  0  0  0  0  0  0
   -2.4812   -2.4351    4.8894 C   0  0  0  0  0  0  0  0  0  0  0  0
   -3.3517   -2.9662    5.7573 F   0  0  0  0  0  0  0  0  0  0  0  0
   -2.9516   -1.8222    3.7362 C   0  0  0  0  0  0  0  0  0  0  0  0
   -2.0321   -1.2667    2.8425 C   0  0  0  0  0  0  0  0  0  0  0  0
   -2.4936   -0.5879    1.6264 C   0  0  0  0  0  0  0  0  0  0  0  0
   -3.6450   -0.7587    1.2342 O   0  0  0  0  0  0  0  0  0  0  0  0
   -1.4665    0.2888    0.9169 C   0  0  0  0  0  0  0  0  0  0  0  0
   -1.9816    0.7308   -0.4466 C   0  0  0  0  0  0  0  0  0  0  0  0
   -2.5596    2.0482   -0.0530 C   0  0  0  0  0  0  0  0  0  0  0  0
   -3.4683    2.8101   -0.9417 C   0  0  0  0  0  0  0  0  0  0  0  0
   -3.7419    2.3883   -2.2480 C   0  0  0  0  0  0  0  0  0  0  0  0
   -4.6058    3.1349   -3.0581 C   0  0  0  0  0  0  0  0  0  0  0  0
   -5.1921    4.2998   -2.5654 C   0  0  0  0  0  0  0  0  0  0  0  0
   -6.2514    5.2133   -3.5669 Cl  0  0  0  0  0  0  0  0  0  0  0  0
   -4.9238    4.7278   -1.2678 C   0  0  0  0  0  0  0  0  0  0  0  0
   -4.0612    3.9842   -0.4567 C   0  0  0  0  0  0  0  0  0  0  0  0
   -2.1778    2.4831    1.1058 N   0  0  0  0  0  0  0  0  0  0  0  0
   -1.3415    1.5020    1.6774 O   0  0  0  0  0  0  0  0  0  0  0  0
    4.8615   -1.8550    1.1572 H   0  0  0  0  0  0  0  0  0  0  0  0
    5.8496   -3.0718    0.3314 H   0  0  0  0  0  0  0  0  0  0  0  0
    4.1100   -3.0180    0.0429 H   0  0  0  0  0  0  0  0  0  0  0  0
    4.9641   -0.2052   -4.8486 H   0  0  0  0  0  0  0  0  0  0  0  0
    5.5843    1.2931   -4.1328 H   0  0  0  0  0  0  0  0  0  0  0  0
    3.8606    0.9112   -4.0209 H   0  0  0  0  0  0  0  0  0  0  0  0
    3.1018    0.4170   -0.1424 H   0  0  0  0  0  0  0  0  0  0  0  0
    2.6206   -0.9285    0.9062 H   0  0  0  0  0  0  0  0  0  0  0  0
    1.3115    1.1669    1.3156 H   0  0  0  0  0  0  0  0  0  0  0  0
    0.7570    1.1355   -0.3569 H   0  0  0  0  0  0  0  0  0  0  0  0
   -1.1320   -2.0584   -0.1947 H   0  0  0  0  0  0  0  0  0  0  0  0
    0.3475   -2.5710    0.5862 H   0  0  0  0  0  0  0  0  0  0  0  0
    0.6516   -2.5266   -1.8263 H   0  0  0  0  0  0  0  0  0  0  0  0
    0.1659   -0.8367   -1.9265 H   0  0  0  0  0  0  0  0  0  0  0  0
    0.8588   -2.0080    4.4628 H   0  0  0  0  0  0  0  0  0  0  0  0
   -0.7754   -2.9818    6.0725 H   0  0  0  0  0  0  0  0  0  0  0  0
   -4.0206   -1.7715    3.5505 H   0  0  0  0  0  0  0  0  0  0  0  0
   -2.7205    0.0575   -0.8869 H   0  0  0  0  0  0  0  0  0  0  0  0
   -1.1925    0.9196   -1.1774 H   0  0  0  0  0  0  0  0  0  0  0  0
   -3.2986    1.4876   -2.6614 H   0  0  0  0  0  0  0  0  0  0  0  0
   -4.8167    2.8031   -4.0716 H   0  0  0  0  0  0  0  0  0  0  0  0
   -5.3795    5.6348   -0.8796 H   0  0  0  0  0  0  0  0  0  0  0  0
   -3.8606    4.3267    0.5571 H   0  0  0  0  0  0  0  0  0  0  0  0
  1  2  1  0
  2  3  2  0
  3  4  1  0
  4  5  1  0
  5  6  1  0
  5  7  2  0
  7  8  1  0
  8  9  2  0
  8 10  1  0
 10 11  1  0
 11 12  1  0
 12 13  1  0
 13 14  1  0
 14 15  1  0
 13 16  1  0
 16 17  1  0
 17 18  2  0
 18 19  1  0
 19 20  2  0
 20 21  1  0
 20 22  1  0
 22 23  2  0
 23 24  1  0
 24 25  2  0
 24 26  1  0
 26 27  1  0
 27 28  1  0
 28 29  1  0
 29 30  2  0
 30 31  1  0
 31 32  2  0
 32 33  1  0
 32 34  1  0
 34 35  2  0
 28 36  2  0
 36 37  1  0
  7  2  1  0
 15 10  1  0
 23 17  1  0
 37 26  1  0
 26 13  1  0
 35 29  1  0
  1 38  1  0
  1 39  1  0
  1 40  1  0
  6 41  1  0
  6 42  1  0
  6 43  1  0
 11 44  1  0
 11 45  1  0
 12 46  1  0
 12 47  1  0
 14 48  1  0
 14 49  1  0
 15 50  1  0
 15 51  1  0
 18 52  1  0
 19 53  1  0
 22 54  1  0
 27 55  1  0
 27 56  1  0
 30 57  1  0
 31 58  1  0
 34 59  1  0
 35 60  1  0
M  END
$$$$
