
     RDKit          3D

 41 42  0  0  0  0  0  0  0  0999 V2000
    6.5804    1.2600   -1.3694 C   0  0  0  0  0  0  0  0  0  0  0  0
    5.5386    1.1659   -0.3983 O   0  0  0  0  0  0  0  0  0  0  0  0
    4.7047    0.1021   -0.5771 C   0  0  0  0  0  0  0  0  0  0  0  0
    4.8083   -0.7113   -1.4859 O   0  0  0  0  0  0  0  0  0  0  0  0
    3.6910    0.0875    0.4642 C   0  0  0  0  0  0  0  0  0  0  0  0
    3.5646    0.9446    1.5468 C   0  0  0  0  0  0  0  0  0  0  0  0
    2.4758    0.5136    2.3261 C   0  0  0  0  0  0  0  0  0  0  0  0
    1.9190   -0.6051    1.7242 C   0  0  0  0  0  0  0  0  0  0  0  0
    0.5461   -1.6069    2.2751 S   0  0  0  0  0  6  0  0  0  0  0  0
    0.2691   -1.1514    3.6171 O   0  0  0  0  0  0  0  0  0  0  0  0
    0.9304   -2.9658    1.9754 O   0  0  0  0  0  0  0  0  0  0  0  0
   -0.7542   -1.2150    1.2979 N   0  0  0  0  0  0  0  0  0  0  0  0
   -1.2686    0.1520    1.4014 C   0  0  0  0  0  0  0  0  0  0  0  0
   -2.4324    0.3528    0.4613 C   0  0  0  0  0  0  0  0  0  0  0  0
   -2.3091    1.1589   -0.6760 C   0  0  0  0  0  0  0  0  0  0  0  0
   -3.3914    1.3200   -1.5448 C   0  0  0  0  0  0  0  0  0  0  0  0
   -4.6083    0.6801   -1.2982 C   0  0  0  0  0  0  0  0  0  0  0  0
   -5.5805    0.9239   -2.2285 O   0  0  0  0  0  0  0  0  0  0  0  0
   -6.8430    0.3050   -2.0151 C   0  0  0  0  0  0  0  0  0  0  0  0
   -4.7351   -0.1288   -0.1698 C   0  0  0  0  0  0  0  0  0  0  0  0
   -3.6534   -0.2923    0.7028 C   0  0  0  0  0  0  0  0  0  0  0  0
    2.6474   -0.8286    0.5646 N   0  0  0  0  0  0  0  0  0  0  0  0
    2.3962   -1.8723   -0.4124 C   0  0  0  0  0  0  0  0  0  0  0  0
    6.1601    1.3929   -2.3712 H   0  0  0  0  0  0  0  0  0  0  0  0
    7.1879    2.1373   -1.1305 H   0  0  0  0  0  0  0  0  0  0  0  0
    7.2222    0.3742   -1.3313 H   0  0  0  0  0  0  0  0  0  0  0  0
    4.2192    1.7806    1.7651 H   0  0  0  0  0  0  0  0  0  0  0  0
    2.1295    0.9472    3.2573 H   0  0  0  0  0  0  0  0  0  0  0  0
   -0.6795   -1.5804    0.3519 H   0  0  0  0  0  0  0  0  0  0  0  0
   -1.6009    0.3628    2.4240 H   0  0  0  0  0  0  0  0  0  0  0  0
   -0.4779    0.8679    1.1523 H   0  0  0  0  0  0  0  0  0  0  0  0
   -1.3756    1.6709   -0.8980 H   0  0  0  0  0  0  0  0  0  0  0  0
   -3.2870    1.9515   -2.4242 H   0  0  0  0  0  0  0  0  0  0  0  0
   -6.7563   -0.7864   -2.0378 H   0  0  0  0  0  0  0  0  0  0  0  0
   -7.5041    0.6032   -2.8346 H   0  0  0  0  0  0  0  0  0  0  0  0
   -7.2976    0.6470   -1.0794 H   0  0  0  0  0  0  0  0  0  0  0  0
   -5.6584   -0.6494    0.0615 H   0  0  0  0  0  0  0  0  0  0  0  0
   -3.7657   -0.9338    1.5758 H   0  0  0  0  0  0  0  0  0  0  0  0
    1.3745   -2.2397   -0.3333 H   0  0  0  0  0  0  0  0  0  0  0  0
    2.5031   -1.4541   -1.4159 H   0  0  0  0  0  0  0  0  0  0  0  0
    3.1108   -2.6806   -0.2412 H   0  0  0  0  0  0  0  0  0  0  0  0
  1  2  1  0
  2  3  1  0
  3  4  2  0
  3  5  1  0
  5  6  2  0
  6  7  1  0
  7  8  2  0
  8  9  1  0
  9 10  2  0
  9 11  2  0
  9 12  1  0
 12 13  1  0
 13 14  1  0
 14 15  2  0
 15 16  1  0
 16 17  2  0
 17 18  1  0
 18 19  1  0
 17 20  1  0
 20 21  2  0
  8 22  1  0
 22 23  1  0
 22  5  1  0
 21 14  1  0
  1 24  1  0
  1 25  1  0
  1 26  1  0
  6 27  1  0
  7 28  1  0
 12 29  1  0
 13 30  1  0
 13 31  1  0
 15 32  1  0
 16 33  1  0
 19 34  1  0
 19 35  1  0
 19 36  1  0
 20 37  1  0
 21 38  1  0
 23 39  1  0
 23 40  1  0
 23 41  1  0
M  END
$$$$
