
     RDKit          3D

 50 53  0  0  0  0  0  0  0  0999 V2000
   -0.6064    0.9681    4.5388 C   0  0  0  0  0  0  0  0  0  0  0  0
   -0.4756    0.2402    3.2116 C   0  0  0  0  0  0  0  0  0  0  0  0
   -1.0282    1.0518    2.0465 C   0  0  0  0  0  0  0  0  0  0  0  0
   -1.5336    2.1604    2.2403 O   0  0  0  0  0  0  0  0  0  0  0  0
   -0.9540    0.4856    0.7762 N   0  0  0  0  0  0  0  0  0  0  0  0
   -1.6601    1.1691   -0.3148 C   0  0  0  0  0  0  0  0  0  0  0  0
   -3.0468    0.6047   -0.5380 C   0  0  0  0  0  0  0  0  0  0  0  0
   -3.3126   -0.2400   -1.6278 C   0  0  0  0  0  0  0  0  0  0  0  0
   -4.5887   -0.7752   -1.8191 C   0  0  0  0  0  0  0  0  0  0  0  0
   -5.6274   -0.4723   -0.9317 C   0  0  0  0  0  0  0  0  0  0  0  0
   -6.9867   -1.0746   -1.1275 C   0  0  0  0  0  0  0  0  0  0  0  0
   -5.3635    0.3592    0.1654 C   0  0  0  0  0  0  0  0  0  0  0  0
   -4.0875    0.8978    0.3551 C   0  0  0  0  0  0  0  0  0  0  0  0
   -0.3413   -0.8129    0.4632 C   0  0  0  0  0  0  0  0  0  0  0  0
    0.9667   -0.6260   -0.2603 C   0  0  0  0  0  0  0  0  0  0  0  0
    2.1213   -0.3166    0.3594 C   0  0  0  0  0  0  0  0  0  0  0  0
    3.3783   -0.2046   -0.3805 C   0  0  0  0  0  0  0  0  0  0  0  0
    4.5826    0.0740    0.2744 C   0  0  0  0  0  0  0  0  0  0  0  0
    5.7281    0.1359   -0.4926 C   0  0  0  0  0  0  0  0  0  0  0  0
    5.7035   -0.0562   -1.8558 C   0  0  0  0  0  0  0  0  0  0  0  0
    4.5325   -0.3208   -2.5374 C   0  0  0  0  0  0  0  0  0  0  0  0
    3.3628   -0.4043   -1.7793 C   0  0  0  0  0  0  0  0  0  0  0  0
    2.1529   -0.7213   -2.4032 N   0  0  0  0  0  0  0  0  0  0  0  0
    0.9684   -0.8824   -1.7364 C   0  0  0  0  0  0  0  0  0  0  0  0
   -0.0478   -1.2225   -2.3370 O   0  0  0  0  0  0  0  0  0  0  0  0
    6.9409    0.0326   -2.4139 O   0  0  0  0  0  0  0  0  0  0  0  0
    7.7496    0.2880   -1.2458 C   0  0  0  0  0  0  0  0  0  0  0  0
    6.9830    0.3705   -0.0260 O   0  0  0  0  0  0  0  0  0  0  0  0
   -0.0889    1.9331    4.5077 H   0  0  0  0  0  0  0  0  0  0  0  0
   -0.1718    0.3681    5.3488 H   0  0  0  0  0  0  0  0  0  0  0  0
   -1.6597    1.1583    4.7784 H   0  0  0  0  0  0  0  0  0  0  0  0
   -1.0262   -0.7029    3.2759 H   0  0  0  0  0  0  0  0  0  0  0  0
    0.5829    0.0280    3.0373 H   0  0  0  0  0  0  0  0  0  0  0  0
   -1.0610    1.1020   -1.2303 H   0  0  0  0  0  0  0  0  0  0  0  0
   -1.7501    2.2419   -0.1045 H   0  0  0  0  0  0  0  0  0  0  0  0
   -2.5235   -0.4941   -2.3334 H   0  0  0  0  0  0  0  0  0  0  0  0
   -4.7633   -1.4374   -2.6653 H   0  0  0  0  0  0  0  0  0  0  0  0
   -7.7571   -0.4933   -0.6088 H   0  0  0  0  0  0  0  0  0  0  0  0
   -7.2490   -1.0886   -2.1901 H   0  0  0  0  0  0  0  0  0  0  0  0
   -7.0017   -2.0980   -0.7415 H   0  0  0  0  0  0  0  0  0  0  0  0
   -6.1497    0.5972    0.8783 H   0  0  0  0  0  0  0  0  0  0  0  0
   -3.9085    1.5516    1.2074 H   0  0  0  0  0  0  0  0  0  0  0  0
   -1.0558   -1.4151   -0.1074 H   0  0  0  0  0  0  0  0  0  0  0  0
   -0.1562   -1.3826    1.3774 H   0  0  0  0  0  0  0  0  0  0  0  0
    2.1611   -0.1502    1.4335 H   0  0  0  0  0  0  0  0  0  0  0  0
    4.6338    0.2221    1.3493 H   0  0  0  0  0  0  0  0  0  0  0  0
    4.5406   -0.4686   -3.6109 H   0  0  0  0  0  0  0  0  0  0  0  0
    2.1246   -0.8942   -3.3984 H   0  0  0  0  0  0  0  0  0  0  0  0
    8.2865    1.2353   -1.3880 H   0  0  0  0  0  0  0  0  0  0  0  0
    8.4825   -0.5209   -1.1440 H   0  0  0  0  0  0  0  0  0  0  0  0
  1  2  1  0
  2  3  1  0
  3  4  2  0
  3  5  1  0
  5  6  1  0
  6  7  1  0
  7  8  2  0
  8  9  1  0
  9 10  2  0
 10 11  1  0
 10 12  1  0
 12 13  2  0
  5 14  1  0
 14 15  1  0
 15 16  2  0
 16 17  1  0
 17 18  2  0
 18 19  1  0
 19 20  2  0
 20 21  1  0
 21 22  2  0
 22 23  1  0
 23 24  1  0
 24 25  2  0
 20 26  1  0
 26 27  1  0
 27 28  1  0
 13  7  1  0
 24 15  1  0
 22 17  1  0
 28 19  1  0
  1 29  1  0
  1 30  1  0
  1 31  1  0
  2 32  1  0
  2 33  1  0
  6 34  1  0
  6 35  1  0
  8 36  1  0
  9 37  1  0
 11 38  1  0
 11 39  1  0
 11 40  1  0
 12 41  1  0
 13 42  1  0
 14 43  1  0
 14 44  1  0
 16 45  1  0
 18 46  1  0
 21 47  1  0
 23 48  1  0
 27 49  1  0
 27 50  1  0
M  END
$$$$
