
     RDKit          3D

 61 66  0  0  0  0  0  0  0  0999 V2000
   -4.2398    1.9629   -0.3935 C   0  0  0  0  0  0  0  0  0  0  0  0
   -3.3775    0.8910    0.2775 C   0  0  0  0  0  0  0  0  0  0  0  0
   -2.0968    1.5018    0.8474 C   0  0  0  0  0  0  0  0  0  0  0  0
   -3.2342   -0.3591   -0.5879 C   0  0  0  0  0  0  0  0  0  0  0  0
   -4.2970   -1.2871   -0.4894 C   0  0  0  0  0  0  0  0  0  0  0  0
   -4.2743   -2.5223   -1.1433 C   0  0  0  0  0  0  0  0  0  0  0  0
   -3.1785   -2.8768   -1.9181 C   0  0  0  0  0  0  0  0  0  0  0  0
   -2.1194   -1.9861   -2.0558 C   0  0  0  0  0  0  0  0  0  0  0  0
   -2.1561   -0.7279   -1.4172 C   0  0  0  0  0  0  0  0  0  0  0  0
   -1.0726    0.1304   -1.6990 N   0  0  0  0  0  0  0  0  0  0  0  0
    0.2407   -0.0326   -1.2979 C   0  0  0  0  0  0  0  0  0  0  0  0
    0.7857   -1.2863   -0.2328 S   0  0  0  0  0  0  0  0  0  0  0  0
    2.5898   -1.0811   -0.3650 C   0  0  0  0  0  0  0  0  0  0  0  0
    3.2860   -2.0468    0.5623 C   0  0  0  0  0  0  0  0  0  0  0  0
    3.4682   -3.2991    0.1032 C   0  0  0  0  0  0  0  0  0  0  0  0
    4.2387   -4.3316    0.7938 C   0  0  0  0  0  0  0  0  0  0  0  0
    4.2703   -5.4853    0.3795 O   0  0  0  0  0  0  0  0  0  0  0  0
    4.9565   -3.9073    1.8865 O   0  0  0  0  0  0  0  0  0  0  0  0
    4.7845   -2.6111    2.4205 C   0  0  0  0  0  0  0  0  0  0  0  0
    5.5560   -2.3736    3.5553 C   0  0  0  0  0  0  0  0  0  0  0  0
    5.4535   -1.1555    4.1989 C   0  0  0  0  0  0  0  0  0  0  0  0
    4.5429   -0.1939    3.7548 C   0  0  0  0  0  0  0  0  0  0  0  0
    4.4584    1.0052    4.4828 C   0  0  0  0  0  0  0  0  0  0  0  0
    3.5453    1.9940    4.1408 C   0  0  0  0  0  0  0  0  0  0  0  0
    2.6901    1.7801    3.0757 C   0  0  0  0  0  0  0  0  0  0  0  0
    2.7712    0.5909    2.3391 C   0  0  0  0  0  0  0  0  0  0  0  0
    3.7192   -0.4336    2.6097 C   0  0  0  0  0  0  0  0  0  0  0  0
    3.8963   -1.6633    1.8726 C   0  0  0  0  0  0  0  0  0  0  0  0
    0.9848    0.9437   -1.7640 N   0  0  0  0  0  0  0  0  0  0  0  0
    0.1819    1.7424   -2.5305 N   0  0  0  0  0  0  0  0  0  0  0  0
   -1.0461    1.2331   -2.5532 C   0  0  0  0  0  0  0  0  0  0  0  0
   -2.1351    1.7885   -3.3631 C   0  0  0  0  0  0  0  0  0  0  0  0
   -2.1477    3.1613   -3.6445 C   0  0  0  0  0  0  0  0  0  0  0  0
   -3.1684    3.7167   -4.4156 C   0  0  0  0  0  0  0  0  0  0  0  0
   -4.1564    2.8773   -4.8968 C   0  0  0  0  0  0  0  0  0  0  0  0
   -4.1762    1.5481   -4.6727 N   0  0  0  0  0  0  0  0  0  0  0  0
   -3.1640    1.0362   -3.9242 C   0  0  0  0  0  0  0  0  0  0  0  0
   -3.7006    2.4774   -1.1898 H   0  0  0  0  0  0  0  0  0  0  0  0
   -5.1524    1.5385   -0.8261 H   0  0  0  0  0  0  0  0  0  0  0  0
   -4.5428    2.7218    0.3366 H   0  0  0  0  0  0  0  0  0  0  0  0
   -3.9330    0.5679    1.1702 H   0  0  0  0  0  0  0  0  0  0  0  0
   -2.3436    2.2174    1.6395 H   0  0  0  0  0  0  0  0  0  0  0  0
   -1.5273    2.0548    0.0990 H   0  0  0  0  0  0  0  0  0  0  0  0
   -1.4517    0.7356    1.2888 H   0  0  0  0  0  0  0  0  0  0  0  0
   -5.1664   -1.0563    0.1268 H   0  0  0  0  0  0  0  0  0  0  0  0
   -5.1117   -3.2085   -1.0323 H   0  0  0  0  0  0  0  0  0  0  0  0
   -3.1548   -3.8403   -2.4209 H   0  0  0  0  0  0  0  0  0  0  0  0
   -1.2784   -2.2720   -2.6880 H   0  0  0  0  0  0  0  0  0  0  0  0
    2.8691   -1.3037   -1.4022 H   0  0  0  0  0  0  0  0  0  0  0  0
    2.9150   -0.0514   -0.2121 H   0  0  0  0  0  0  0  0  0  0  0  0
    3.0602   -3.6267   -0.8488 H   0  0  0  0  0  0  0  0  0  0  0  0
    6.2358   -3.1343    3.9297 H   0  0  0  0  0  0  0  0  0  0  0  0
    6.0735   -0.9756    5.0755 H   0  0  0  0  0  0  0  0  0  0  0  0
    5.1065    1.1780    5.3407 H   0  0  0  0  0  0  0  0  0  0  0  0
    3.4895    2.9128    4.7152 H   0  0  0  0  0  0  0  0  0  0  0  0
    1.9495    2.5310    2.8106 H   0  0  0  0  0  0  0  0  0  0  0  0
    2.0277    0.4862    1.5608 H   0  0  0  0  0  0  0  0  0  0  0  0
   -1.3584    3.8077   -3.2608 H   0  0  0  0  0  0  0  0  0  0  0  0
   -3.1892    4.7788   -4.6323 H   0  0  0  0  0  0  0  0  0  0  0  0
   -4.9772    3.2600   -5.4986 H   0  0  0  0  0  0  0  0  0  0  0  0
   -3.2198   -0.0424   -3.8176 H   0  0  0  0  0  0  0  0  0  0  0  0
  1  2  1  0
  2  3  1  0
  2  4  1  0
  4  5  2  0
  5  6  1  0
  6  7  2  0
  7  8  1  0
  8  9  2  0
  9 10  1  0
 10 11  1  0
 11 12  1  0
 12 13  1  0
 13 14  1  0
 14 15  2  0
 15 16  1  0
 16 17  2  0
 16 18  1  0
 18 19  1  0
 19 20  2  0
 20 21  1  0
 21 22  2  0
 22 23  1  0
 23 24  2  0
 24 25  1  0
 25 26  2  0
 26 27  1  0
 27 28  2  0
 11 29  2  0
 29 30  1  0
 30 31  2  0
 31 32  1  0
 32 33  2  0
 33 34  1  0
 34 35  2  0
 35 36  1  0
 36 37  2  0
  9  4  1  0
 31 10  1  0
 37 32  1  0
 28 14  1  0
 28 19  1  0
 27 22  1  0
  1 38  1  0
  1 39  1  0
  1 40  1  0
  2 41  1  0
  3 42  1  0
  3 43  1  0
  3 44  1  0
  5 45  1  0
  6 46  1  0
  7 47  1  0
  8 48  1  0
 13 49  1  0
 13 50  1  0
 15 51  1  0
 20 52  1  0
 21 53  1  0
 23 54  1  0
 24 55  1  0
 25 56  1  0
 26 57  1  0
 33 58  1  0
 34 59  1  0
 35 60  1  0
 37 61  1  0
M  END
$$$$
