
     RDKit          3D

 44 46  0  0  0  0  0  0  0  0999 V2000
   -6.4138    0.8654   -2.5400 C   0  0  0  0  0  0  0  0  0  0  0  0
   -5.5060    1.6140   -1.7433 O   0  0  0  0  0  0  0  0  0  0  0  0
   -4.3840    0.9723   -1.2925 C   0  0  0  0  0  0  0  0  0  0  0  0
   -4.0702   -0.3659   -1.5407 C   0  0  0  0  0  0  0  0  0  0  0  0
   -2.8807   -0.9202   -1.0486 C   0  0  0  0  0  0  0  0  0  0  0  0
   -1.9877   -0.1458   -0.3005 C   0  0  0  0  0  0  0  0  0  0  0  0
   -0.7374   -0.7485    0.1759 C   0  0  0  0  0  0  0  0  0  0  0  0
   -0.3632   -0.8509    1.4666 C   0  0  0  0  0  0  0  0  0  0  0  0
   -1.1651   -0.4400    2.5672 C   0  0  0  0  0  0  0  0  0  0  0  0
   -1.8245   -0.0584    3.4432 N   0  0  0  0  0  0  0  0  0  0  0  0
    0.9324   -1.5235    1.7743 C   0  0  0  0  0  0  0  0  0  0  0  0
    0.9541   -2.4521    2.5710 O   0  0  0  0  0  0  0  0  0  0  0  0
    2.0078   -0.9638    1.1041 N   0  0  0  0  0  0  0  0  0  0  0  0
    3.3692   -1.3746    1.1377 C   0  0  0  0  0  0  0  0  0  0  0  0
    3.7693   -2.5098    1.8504 C   0  0  0  0  0  0  0  0  0  0  0  0
    5.1024   -2.9048    1.8638 C   0  0  0  0  0  0  0  0  0  0  0  0
    6.0496   -2.1684    1.1610 C   0  0  0  0  0  0  0  0  0  0  0  0
    5.7044   -1.0392    0.4403 C   0  0  0  0  0  0  0  0  0  0  0  0
    6.6949   -0.3985   -0.2046 N   0  0  0  0  0  0  0  0  0  0  0  0
    6.3930    0.7070   -0.9114 C   0  0  0  0  0  0  0  0  0  0  0  0
    5.1193    1.2187   -1.0110 C   0  0  0  0  0  0  0  0  0  0  0  0
    4.0950    0.5518   -0.3443 C   0  0  0  0  0  0  0  0  0  0  0  0
    4.3516   -0.6179    0.4155 C   0  0  0  0  0  0  0  0  0  0  0  0
   -2.2899    1.1959   -0.0586 C   0  0  0  0  0  0  0  0  0  0  0  0
   -3.4888    1.7378   -0.5305 C   0  0  0  0  0  0  0  0  0  0  0  0
   -3.7111    3.0691   -0.2748 O   0  0  0  0  0  0  0  0  0  0  0  0
   -4.6262    3.2130    0.8129 C   0  0  0  0  0  0  0  0  0  0  0  0
   -7.2391    1.5278   -2.8186 H   0  0  0  0  0  0  0  0  0  0  0  0
   -5.9377    0.5205   -3.4638 H   0  0  0  0  0  0  0  0  0  0  0  0
   -6.8363    0.0279   -1.9750 H   0  0  0  0  0  0  0  0  0  0  0  0
   -4.7271   -1.0091   -2.1175 H   0  0  0  0  0  0  0  0  0  0  0  0
   -2.6652   -1.9668   -1.2570 H   0  0  0  0  0  0  0  0  0  0  0  0
   -0.1162   -1.1674   -0.6145 H   0  0  0  0  0  0  0  0  0  0  0  0
    1.8088   -0.1436    0.5514 H   0  0  0  0  0  0  0  0  0  0  0  0
    3.0688   -3.1206    2.4106 H   0  0  0  0  0  0  0  0  0  0  0  0
    5.4036   -3.7872    2.4227 H   0  0  0  0  0  0  0  0  0  0  0  0
    7.0904   -2.4851    1.1770 H   0  0  0  0  0  0  0  0  0  0  0  0
    7.2328    1.1833   -1.4090 H   0  0  0  0  0  0  0  0  0  0  0  0
    4.9254    2.1146   -1.5900 H   0  0  0  0  0  0  0  0  0  0  0  0
    3.0999    0.9727   -0.4312 H   0  0  0  0  0  0  0  0  0  0  0  0
   -1.6114    1.8380    0.4969 H   0  0  0  0  0  0  0  0  0  0  0  0
   -5.6285    2.8623    0.5457 H   0  0  0  0  0  0  0  0  0  0  0  0
   -4.6960    4.2790    1.0502 H   0  0  0  0  0  0  0  0  0  0  0  0
   -4.2662    2.6910    1.7071 H   0  0  0  0  0  0  0  0  0  0  0  0
  1  2  1  0
  2  3  1  0
  3  4  2  0
  4  5  1  0
  5  6  2  0
  6  7  1  0
  7  8  2  3
  8  9  1  0
  9 10  3  0
  8 11  1  0
 11 12  2  0
 11 13  1  0
 13 14  1  0
 14 15  2  0
 15 16  1  0
 16 17  2  0
 17 18  1  0
 18 19  2  0
 19 20  1  0
 20 21  2  0
 21 22  1  0
 22 23  2  0
  6 24  1  0
 24 25  2  0
 25 26  1  0
 26 27  1  0
 25  3  1  0
 23 14  1  0
 23 18  1  0
  1 28  1  0
  1 29  1  0
  1 30  1  0
  4 31  1  0
  5 32  1  0
  7 33  1  0
 13 34  1  0
 15 35  1  0
 16 36  1  0
 17 37  1  0
 20 38  1  0
 21 39  1  0
 22 40  1  0
 24 41  1  0
 27 42  1  0
 27 43  1  0
 27 44  1  0
M  END
$$$$
