
     RDKit          3D

 40 42  0  0  0  0  0  0  0  0999 V2000
    2.4563    5.2355   -0.4502 C   0  0  0  0  0  0  0  0  0  0  0  0
    2.0994    3.7635   -0.3347 C   0  0  0  0  0  0  0  0  0  0  0  0
    0.7236    3.3713   -1.4640 S   0  0  0  0  0  0  0  0  0  0  0  0
    0.3554    1.6978   -0.9548 C   0  0  0  0  0  0  0  0  0  0  0  0
   -0.8329    1.1313   -1.3557 C   0  0  0  0  0  0  0  0  0  0  0  0
   -1.0996   -0.1558   -0.9329 C   0  0  0  0  0  0  0  0  0  0  0  0
   -2.2961   -0.7821   -1.2990 N   0  0  0  0  0  0  0  0  0  0  0  0
   -3.5475   -0.0382   -1.0287 C   0  0  0  0  0  0  0  0  0  0  0  0
   -4.4601   -0.8295   -0.0747 C   0  0  0  0  0  0  0  0  0  0  0  0
   -4.8261   -2.1213   -0.5823 O   0  0  0  0  0  0  0  0  0  0  0  0
   -3.7767   -2.7471   -1.3426 C   0  0  0  0  0  0  0  0  0  0  0  0
   -2.3703   -2.2267   -1.0013 C   0  0  0  0  0  0  0  0  0  0  0  0
   -0.2003   -0.8319   -0.2025 N   0  0  0  0  0  0  0  0  0  0  0  0
    0.9413   -0.2083    0.1435 C   0  0  0  0  0  0  0  0  0  0  0  0
    1.9140   -0.9565    0.9670 C   0  0  0  0  0  0  0  0  0  0  0  0
    3.1869   -0.4292    1.2630 C   0  0  0  0  0  0  0  0  0  0  0  0
    4.1060   -1.1305    2.0497 C   0  0  0  0  0  0  0  0  0  0  0  0
    3.7742   -2.3827    2.5580 C   0  0  0  0  0  0  0  0  0  0  0  0
    2.5290   -2.9344    2.2779 C   0  0  0  0  0  0  0  0  0  0  0  0
    1.6121   -2.2287    1.4922 C   0  0  0  0  0  0  0  0  0  0  0  0
    1.2503    1.0523   -0.1963 N   0  0  0  0  0  0  0  0  0  0  0  0
    3.2413    5.4852    0.2745 H   0  0  0  0  0  0  0  0  0  0  0  0
    1.5942    5.8745   -0.2209 H   0  0  0  0  0  0  0  0  0  0  0  0
    2.8349    5.4868   -1.4496 H   0  0  0  0  0  0  0  0  0  0  0  0
    1.8060    3.5444    0.6980 H   0  0  0  0  0  0  0  0  0  0  0  0
    2.9708    3.1512   -0.5924 H   0  0  0  0  0  0  0  0  0  0  0  0
   -1.5205    1.6662   -1.9951 H   0  0  0  0  0  0  0  0  0  0  0  0
   -4.0624    0.1056   -1.9868 H   0  0  0  0  0  0  0  0  0  0  0  0
   -3.3669    0.9521   -0.5944 H   0  0  0  0  0  0  0  0  0  0  0  0
   -3.9684   -0.9744    0.8971 H   0  0  0  0  0  0  0  0  0  0  0  0
   -5.3869   -0.2742    0.1090 H   0  0  0  0  0  0  0  0  0  0  0  0
   -3.8372   -3.8240   -1.1565 H   0  0  0  0  0  0  0  0  0  0  0  0
   -3.9976   -2.5820   -2.4044 H   0  0  0  0  0  0  0  0  0  0  0  0
   -1.6267   -2.7702   -1.5984 H   0  0  0  0  0  0  0  0  0  0  0  0
   -2.1742   -2.4151    0.0642 H   0  0  0  0  0  0  0  0  0  0  0  0
    3.4762    0.5459    0.8763 H   0  0  0  0  0  0  0  0  0  0  0  0
    5.0822   -0.6965    2.2608 H   0  0  0  0  0  0  0  0  0  0  0  0
    4.4845   -2.9258    3.1746 H   0  0  0  0  0  0  0  0  0  0  0  0
    2.2668   -3.9149    2.6703 H   0  0  0  0  0  0  0  0  0  0  0  0
    0.6448   -2.6836    1.2902 H   0  0  0  0  0  0  0  0  0  0  0  0
  1  2  1  0
  2  3  1  0
  3  4  1  0
  4  5  2  0
  5  6  1  0
  6  7  1  0
  7  8  1  0
  8  9  1  0
  9 10  1  0
 10 11  1  0
 11 12  1  0
  6 13  2  0
 13 14  1  0
 14 15  1  0
 15 16  2  0
 16 17  1  0
 17 18  2  0
 18 19  1  0
 19 20  2  0
 14 21  2  0
 21  4  1  0
 12  7  1  0
 20 15  1  0
  1 22  1  0
  1 23  1  0
  1 24  1  0
  2 25  1  0
  2 26  1  0
  5 27  1  0
  8 28  1  0
  8 29  1  0
  9 30  1  0
  9 31  1  0
 11 32  1  0
 11 33  1  0
 12 34  1  0
 12 35  1  0
 16 36  1  0
 17 37  1  0
 18 38  1  0
 19 39  1  0
 20 40  1  0
M  END
$$$$
