
     RDKit          3D

 53 58  0  0  0  0  0  0  0  0999 V2000
    0.6995    1.6861    0.4299 O   0  0  0  0  0  0  0  0  0  0  0  0
    1.1327    0.6460    0.9373 C   0  0  0  0  0  0  0  0  0  0  0  0
    0.1118   -0.4545    1.3014 C   0  0  0  0  0  0  0  0  0  0  0  0
   -1.0563   -0.3900    0.4003 N   0  0  0  0  0  4  0  0  0  0  0  0
   -2.3568   -0.0130    0.7334 C   0  0  0  0  0  0  0  0  0  0  0  0
   -3.1334   -0.0039   -0.4207 C   0  0  0  0  0  0  0  0  0  0  0  0
   -4.6689    0.3319   -0.5108 C   0  0  0  0  0  0  0  0  0  0  0  0
   -5.3656    0.7373    0.6400 C   0  0  0  0  0  0  0  0  0  0  0  0
   -6.7306    1.0335    0.5675 C   0  0  0  0  0  0  0  0  0  0  0  0
   -7.3937    0.9248   -0.6484 C   0  0  0  0  0  0  0  0  0  0  0  0
   -8.6999    1.2085   -0.7178 F   0  0  0  0  0  0  0  0  0  0  0  0
   -6.7175    0.5212   -1.7945 C   0  0  0  0  0  0  0  0  0  0  0  0
   -5.3522    0.2222   -1.7270 C   0  0  0  0  0  0  0  0  0  0  0  0
   -2.2324   -0.3507   -1.4138 N   0  0  0  0  0  0  0  0  0  0  0  0
   -1.0165   -0.5601   -0.9174 C   0  0  0  0  0  0  0  0  0  0  0  0
   -0.0125   -0.9103   -1.9483 C   0  0  0  0  0  0  0  0  0  0  0  0
   -0.7553   -0.5631   -3.2537 C   0  0  0  0  0  0  0  0  0  0  0  0
   -2.2577   -0.4961   -2.8625 C   0  0  0  0  0  0  0  0  0  0  0  0
    2.4941    0.3069    1.0516 N   0  0  0  0  0  0  0  0  0  0  0  0
    2.9709   -0.7450    1.9092 C   0  0  0  0  0  0  0  0  0  0  0  0
    2.4181   -0.9015    3.1954 C   0  0  0  0  0  0  0  0  0  0  0  0
    2.8513   -1.9202    4.0493 C   0  0  0  0  0  0  0  0  0  0  0  0
    3.8521   -2.7928    3.6374 C   0  0  0  0  0  0  0  0  0  0  0  0
    4.4371   -2.6314    2.3832 C   0  0  0  0  0  0  0  0  0  0  0  0
    4.0158   -1.6033    1.5281 C   0  0  0  0  0  0  0  0  0  0  0  0
    4.8148   -1.4417   -0.0476 S   0  0  0  0  0  0  0  0  0  0  0  0
    4.6183    0.3150   -0.2482 C   0  0  0  0  0  0  0  0  0  0  0  0
    5.5850    0.9958   -1.0035 C   0  0  0  0  0  0  0  0  0  0  0  0
    5.4575    2.3601   -1.2478 C   0  0  0  0  0  0  0  0  0  0  0  0
    4.3578    3.0463   -0.7478 C   0  0  0  0  0  0  0  0  0  0  0  0
    3.3870    2.3702   -0.0011 C   0  0  0  0  0  0  0  0  0  0  0  0
    3.4975    0.9946    0.2702 C   0  0  0  0  0  0  0  0  0  0  0  0
   -0.2339   -0.3039    2.3278 H   0  0  0  0  0  0  0  0  0  0  0  0
    0.5318   -1.4571    1.1826 H   0  0  0  0  0  0  0  0  0  0  0  0
   -2.5704    0.2012    1.7675 H   0  0  0  0  0  0  0  0  0  0  0  0
   -4.8781    0.8421    1.6054 H   0  0  0  0  0  0  0  0  0  0  0  0
   -7.2826    1.3528    1.4482 H   0  0  0  0  0  0  0  0  0  0  0  0
   -7.2616    0.4376   -2.7322 H   0  0  0  0  0  0  0  0  0  0  0  0
   -4.8634   -0.1028   -2.6385 H   0  0  0  0  0  0  0  0  0  0  0  0
    0.8911   -0.3180   -1.7973 H   0  0  0  0  0  0  0  0  0  0  0  0
    0.1799   -1.9804   -1.8462 H   0  0  0  0  0  0  0  0  0  0  0  0
   -0.5605   -1.2814   -4.0569 H   0  0  0  0  0  0  0  0  0  0  0  0
   -0.4297    0.4254   -3.6026 H   0  0  0  0  0  0  0  0  0  0  0  0
   -2.7715   -1.4297   -3.1123 H   0  0  0  0  0  0  0  0  0  0  0  0
   -2.7480    0.3580   -3.3347 H   0  0  0  0  0  0  0  0  0  0  0  0
    1.6886   -0.1963    3.5892 H   0  0  0  0  0  0  0  0  0  0  0  0
    2.4261   -2.0176    5.0468 H   0  0  0  0  0  0  0  0  0  0  0  0
    4.1993   -3.5827    4.3024 H   0  0  0  0  0  0  0  0  0  0  0  0
    5.2381   -3.3069    2.0833 H   0  0  0  0  0  0  0  0  0  0  0  0
    6.4517    0.4690   -1.4034 H   0  0  0  0  0  0  0  0  0  0  0  0
    6.2163    2.8852   -1.8236 H   0  0  0  0  0  0  0  0  0  0  0  0
    4.2550    4.1159   -0.9280 H   0  0  0  0  0  0  0  0  0  0  0  0
    2.5697    2.9668    0.3991 H   0  0  0  0  0  0  0  0  0  0  0  0
  1  2  2  0
  2  3  1  0
  3  4  1  0
  4  5  1  0
  5  6  2  0
  6  7  1  0
  7  8  2  0
  8  9  1  0
  9 10  2  0
 10 11  1  0
 10 12  1  0
 12 13  2  0
  6 14  1  0
 14 15  1  0
 15 16  1  0
 16 17  1  0
 17 18  1  0
  2 19  1  0
 19 20  1  0
 20 21  2  0
 21 22  1  0
 22 23  2  0
 23 24  1  0
 24 25  2  0
 25 26  1  0
 26 27  1  0
 27 28  2  0
 28 29  1  0
 29 30  2  0
 30 31  1  0
 31 32  2  0
 15  4  2  0
 32 19  1  0
 13  7  1  0
 18 14  1  0
 25 20  1  0
 32 27  1  0
  3 33  1  0
  3 34  1  0
  5 35  1  0
  8 36  1  0
  9 37  1  0
 12 38  1  0
 13 39  1  0
 16 40  1  0
 16 41  1  0
 17 42  1  0
 17 43  1  0
 18 44  1  0
 18 45  1  0
 21 46  1  0
 22 47  1  0
 23 48  1  0
 24 49  1  0
 28 50  1  0
 29 51  1  0
 30 52  1  0
 31 53  1  0
M  CHG  1   4   1
M  END
$$$$
