
     RDKit          3D

 49 50  0  0  0  0  0  0  0  0999 V2000
    6.0948   -0.6193    1.2277 C   0  0  0  0  0  0  0  0  0  0  0  0
    5.7624   -1.1686   -0.1467 C   0  0  0  0  0  0  0  0  0  0  0  0
    4.5992   -0.5153   -0.6716 O   0  0  0  0  0  0  0  0  0  0  0  0
    3.3959   -1.0586   -0.3220 C   0  0  0  0  0  0  0  0  0  0  0  0
    3.2856   -2.0446    0.3994 O   0  0  0  0  0  0  0  0  0  0  0  0
    2.2496   -0.3355   -0.8979 C   0  0  0  0  0  0  0  0  0  0  0  0
    2.2388    0.8676   -1.6917 C   0  0  0  0  0  0  0  0  0  0  0  0
    3.4381    1.6485   -2.1188 C   0  0  0  0  0  0  0  0  0  0  0  0
    0.9132    1.1677   -1.9799 C   0  0  0  0  0  0  0  0  0  0  0  0
    0.3388    2.3043   -2.7612 C   0  0  0  0  0  0  0  0  0  0  0  0
    0.1205    0.1963   -1.3964 N   0  0  0  0  0  0  0  0  0  0  0  0
   -1.3465    0.1383   -1.4823 C   0  0  0  0  0  0  0  0  0  0  0  0
   -2.0476    0.4985   -0.1891 C   0  0  0  0  0  0  0  0  0  0  0  0
   -1.5515    1.4983    0.6622 C   0  0  0  0  0  0  0  0  0  0  0  0
   -2.2341    1.8472    1.8260 C   0  0  0  0  0  0  0  0  0  0  0  0
   -3.4408    1.2258    2.1486 C   0  0  0  0  0  0  0  0  0  0  0  0
   -3.9781    0.2459    1.3100 C   0  0  0  0  0  0  0  0  0  0  0  0
   -5.1789   -0.3787    1.5264 O   0  0  0  0  0  0  0  0  0  0  0  0
   -5.9687    0.0707    2.6191 C   0  0  0  0  0  0  0  0  0  0  0  0
   -3.2637   -0.1273    0.1526 C   0  0  0  0  0  0  0  0  0  0  0  0
   -3.7454   -1.0576   -0.7410 O   0  0  0  0  0  0  0  0  0  0  0  0
   -3.9661   -2.3362   -0.1447 C   0  0  0  0  0  0  0  0  0  0  0  0
    0.9193   -0.7288   -0.7521 C   0  0  0  0  0  0  0  0  0  0  0  0
    0.3792   -1.9169   -0.0202 C   0  0  0  0  0  0  0  0  0  0  0  0
    7.0125   -1.0710    1.6146 H   0  0  0  0  0  0  0  0  0  0  0  0
    5.2835   -0.8128    1.9368 H   0  0  0  0  0  0  0  0  0  0  0  0
    6.2268    0.4669    1.1850 H   0  0  0  0  0  0  0  0  0  0  0  0
    6.5862   -0.9555   -0.8357 H   0  0  0  0  0  0  0  0  0  0  0  0
    5.6366   -2.2572   -0.1248 H   0  0  0  0  0  0  0  0  0  0  0  0
    4.0928    1.0309   -2.7424 H   0  0  0  0  0  0  0  0  0  0  0  0
    3.1748    2.5327   -2.7045 H   0  0  0  0  0  0  0  0  0  0  0  0
    4.0000    1.9935   -1.2448 H   0  0  0  0  0  0  0  0  0  0  0  0
    1.0963    3.0453   -3.0278 H   0  0  0  0  0  0  0  0  0  0  0  0
   -0.4287    2.8273   -2.1814 H   0  0  0  0  0  0  0  0  0  0  0  0
   -0.1085    1.9388   -3.6912 H   0  0  0  0  0  0  0  0  0  0  0  0
   -1.6849    0.8141   -2.2730 H   0  0  0  0  0  0  0  0  0  0  0  0
   -1.5784   -0.8783   -1.8183 H   0  0  0  0  0  0  0  0  0  0  0  0
   -0.6213    2.0147    0.4317 H   0  0  0  0  0  0  0  0  0  0  0  0
   -1.8275    2.6152    2.4798 H   0  0  0  0  0  0  0  0  0  0  0  0
   -3.9404    1.5393    3.0588 H   0  0  0  0  0  0  0  0  0  0  0  0
   -6.9037   -0.4978    2.6110 H   0  0  0  0  0  0  0  0  0  0  0  0
   -5.4691   -0.1267    3.5729 H   0  0  0  0  0  0  0  0  0  0  0  0
   -6.2237    1.1304    2.5154 H   0  0  0  0  0  0  0  0  0  0  0  0
   -3.7315   -3.0963   -0.8963 H   0  0  0  0  0  0  0  0  0  0  0  0
   -3.3248   -2.5191    0.7255 H   0  0  0  0  0  0  0  0  0  0  0  0
   -5.0205   -2.4497    0.1228 H   0  0  0  0  0  0  0  0  0  0  0  0
   -0.6794   -2.1025   -0.2115 H   0  0  0  0  0  0  0  0  0  0  0  0
    0.5054   -1.7803    1.0588 H   0  0  0  0  0  0  0  0  0  0  0  0
    0.9133   -2.8240   -0.3213 H   0  0  0  0  0  0  0  0  0  0  0  0
  1  2  1  0
  2  3  1  0
  3  4  1  0
  4  5  2  0
  4  6  1  0
  6  7  1  0
  7  8  1  0
  7  9  2  0
  9 10  1  0
  9 11  1  0
 11 12  1  0
 12 13  1  0
 13 14  2  0
 14 15  1  0
 15 16  2  0
 16 17  1  0
 17 18  1  0
 18 19  1  0
 17 20  2  0
 20 21  1  0
 21 22  1  0
 11 23  1  0
 23 24  1  0
 23  6  2  0
 20 13  1  0
  1 25  1  0
  1 26  1  0
  1 27  1  0
  2 28  1  0
  2 29  1  0
  8 30  1  0
  8 31  1  0
  8 32  1  0
 10 33  1  0
 10 34  1  0
 10 35  1  0
 12 36  1  0
 12 37  1  0
 14 38  1  0
 15 39  1  0
 16 40  1  0
 19 41  1  0
 19 42  1  0
 19 43  1  0
 22 44  1  0
 22 45  1  0
 22 46  1  0
 24 47  1  0
 24 48  1  0
 24 49  1  0
M  END
$$$$
