
     RDKit          3D

 54 57  0  0  0  0  0  0  0  0999 V2000
   -2.1526    4.0075   -2.8463 C   0  0  0  0  0  0  0  0  0  0  0  0
   -2.4698    4.0121   -1.4506 O   0  0  0  0  0  0  0  0  0  0  0  0
   -2.8269    2.7485   -1.0534 C   0  0  0  0  0  0  0  0  0  0  0  0
   -1.8308    1.8673   -0.6329 C   0  0  0  0  0  0  0  0  0  0  0  0
   -2.1565    0.5728   -0.1956 C   0  0  0  0  0  0  0  0  0  0  0  0
   -1.1189   -0.3849    0.2365 C   0  0  0  0  0  0  0  0  0  0  0  0
    0.1320   -0.4532   -0.3493 C   0  0  0  0  0  0  0  0  0  0  0  0
    1.0427   -1.3910    0.1365 C   0  0  0  0  0  0  0  0  0  0  0  0
    2.3788   -1.3907   -0.4989 C   0  0  0  0  0  0  0  0  0  0  0  0
    2.4398   -1.6095   -1.7000 O   0  0  0  0  0  0  0  0  0  0  0  0
    3.4089   -1.0766    0.3652 N   0  0  0  0  0  0  0  0  0  0  0  0
    4.7826   -0.9879    0.0595 C   0  0  0  0  0  0  0  0  0  0  0  0
    5.6461   -0.6053    1.0964 C   0  0  0  0  0  0  0  0  0  0  0  0
    7.0233   -0.4956    0.8778 C   0  0  0  0  0  0  0  0  0  0  0  0
    7.5369   -0.7712   -0.3831 C   0  0  0  0  0  0  0  0  0  0  0  0
    8.8708   -0.6797   -0.6453 O   0  0  0  0  0  0  0  0  0  0  0  0
    6.6963   -1.1511   -1.4201 C   0  0  0  0  0  0  0  0  0  0  0  0
    5.3196   -1.2609   -1.1996 C   0  0  0  0  0  0  0  0  0  0  0  0
    0.6973   -2.2815    1.1735 C   0  0  0  0  0  0  0  0  0  0  0  0
    1.5376   -3.3031    1.6858 C   0  0  0  0  0  0  0  0  0  0  0  0
    1.1103   -4.1312    2.7212 C   0  0  0  0  0  0  0  0  0  0  0  0
   -0.1588   -3.9583    3.2531 C   0  0  0  0  0  0  0  0  0  0  0  0
   -0.9954   -2.9663    2.7373 C   0  0  0  0  0  0  0  0  0  0  0  0
   -0.5960   -2.1299    1.7039 C   0  0  0  0  0  0  0  0  0  0  0  0
   -1.4681   -1.2114    1.2531 N   0  0  0  0  0  0  0  0  0  0  0  0
   -3.5216    0.2061   -0.1792 C   0  0  0  0  0  0  0  0  0  0  0  0
   -4.5308    1.0876   -0.5898 C   0  0  0  0  0  0  0  0  0  0  0  0
   -5.8687    0.7937   -0.6036 O   0  0  0  0  0  0  0  0  0  0  0  0
   -6.2318   -0.5717   -0.4468 C   0  0  0  0  0  0  0  0  0  0  0  0
   -4.1718    2.3760   -1.0055 C   0  0  0  0  0  0  0  0  0  0  0  0
   -5.1267    3.2604   -1.4480 O   0  0  0  0  0  0  0  0  0  0  0  0
   -5.6344    4.0095   -0.3456 C   0  0  0  0  0  0  0  0  0  0  0  0
   -2.0735    5.0448   -3.1764 H   0  0  0  0  0  0  0  0  0  0  0  0
   -1.1817    3.5249   -3.0181 H   0  0  0  0  0  0  0  0  0  0  0  0
   -2.9312    3.5202   -3.4448 H   0  0  0  0  0  0  0  0  0  0  0  0
   -0.7986    2.2121   -0.6426 H   0  0  0  0  0  0  0  0  0  0  0  0
    0.4077    0.1930   -1.1759 H   0  0  0  0  0  0  0  0  0  0  0  0
    3.1526   -0.8605    1.3199 H   0  0  0  0  0  0  0  0  0  0  0  0
    5.2601   -0.3825    2.0883 H   0  0  0  0  0  0  0  0  0  0  0  0
    7.6701   -0.1945    1.6957 H   0  0  0  0  0  0  0  0  0  0  0  0
    9.3343   -0.4321    0.1721 H   0  0  0  0  0  0  0  0  0  0  0  0
    7.1065   -1.3641   -2.4029 H   0  0  0  0  0  0  0  0  0  0  0  0
    4.6964   -1.5632   -2.0350 H   0  0  0  0  0  0  0  0  0  0  0  0
    2.5277   -3.4756    1.2677 H   0  0  0  0  0  0  0  0  0  0  0  0
    1.7628   -4.9125    3.1030 H   0  0  0  0  0  0  0  0  0  0  0  0
   -0.5084   -4.5977    4.0594 H   0  0  0  0  0  0  0  0  0  0  0  0
   -1.9939   -2.8453    3.1526 H   0  0  0  0  0  0  0  0  0  0  0  0
   -3.7691   -0.7917    0.1688 H   0  0  0  0  0  0  0  0  0  0  0  0
   -7.3132   -0.6485   -0.5999 H   0  0  0  0  0  0  0  0  0  0  0  0
   -6.0183   -0.9207    0.5685 H   0  0  0  0  0  0  0  0  0  0  0  0
   -5.7424   -1.2048   -1.1957 H   0  0  0  0  0  0  0  0  0  0  0  0
   -6.2600    4.8140   -0.7490 H   0  0  0  0  0  0  0  0  0  0  0  0
   -4.8293    4.4717    0.2409 H   0  0  0  0  0  0  0  0  0  0  0  0
   -6.2621    3.3815    0.2973 H   0  0  0  0  0  0  0  0  0  0  0  0
  1  2  1  0
  2  3  1  0
  3  4  2  0
  4  5  1  0
  5  6  1  0
  6  7  2  0
  7  8  1  0
  8  9  1  0
  9 10  2  0
  9 11  1  0
 11 12  1  0
 12 13  2  0
 13 14  1  0
 14 15  2  0
 15 16  1  0
 15 17  1  0
 17 18  2  0
  8 19  2  0
 19 20  1  0
 20 21  2  0
 21 22  1  0
 22 23  2  0
 23 24  1  0
 24 25  2  0
  5 26  2  0
 26 27  1  0
 27 28  1  0
 28 29  1  0
 27 30  2  0
 30 31  1  0
 31 32  1  0
 30  3  1  0
 25  6  1  0
 18 12  1  0
 24 19  1  0
  1 33  1  0
  1 34  1  0
  1 35  1  0
  4 36  1  0
  7 37  1  0
 11 38  1  0
 13 39  1  0
 14 40  1  0
 16 41  1  0
 17 42  1  0
 18 43  1  0
 20 44  1  0
 21 45  1  0
 22 46  1  0
 23 47  1  0
 26 48  1  0
 29 49  1  0
 29 50  1  0
 29 51  1  0
 32 52  1  0
 32 53  1  0
 32 54  1  0
M  END
$$$$
