
     RDKit          3D

 53 58  0  0  0  0  0  0  0  0999 V2000
   -1.0304   -1.4352   -1.6210 O   0  0  0  0  0  0  0  0  0  0  0  0
   -1.4856   -0.3816   -1.1679 C   0  0  0  0  0  0  0  0  0  0  0  0
   -0.6529    0.9057   -1.3543 C   0  0  0  0  0  0  0  0  0  0  0  0
    0.7557    0.6411   -1.0031 N   0  0  0  0  0  4  0  0  0  0  0  0
    1.3764    0.9273    0.2117 C   0  0  0  0  0  0  0  0  0  0  0  0
    2.6697    0.4170    0.1885 C   0  0  0  0  0  0  0  0  0  0  0  0
    3.7110    0.4655    1.3651 C   0  0  0  0  0  0  0  0  0  0  0  0
    3.3952    1.1392    2.5502 C   0  0  0  0  0  0  0  0  0  0  0  0
    4.3137    1.1779    3.6048 C   0  0  0  0  0  0  0  0  0  0  0  0
    5.5512    0.5420    3.4876 C   0  0  0  0  0  0  0  0  0  0  0  0
    6.6316    0.6251    4.8276 Cl  0  0  0  0  0  0  0  0  0  0  0  0
    5.8666   -0.1340    2.3067 C   0  0  0  0  0  0  0  0  0  0  0  0
    7.3692   -0.9541    2.0818 Cl  0  0  0  0  0  0  0  0  0  0  0  0
    4.9474   -0.1712    1.2483 C   0  0  0  0  0  0  0  0  0  0  0  0
    2.7740   -0.1276   -1.0787 N   0  0  0  0  0  0  0  0  0  0  0  0
    1.6280   -0.0296   -1.7502 C   0  0  0  0  0  0  0  0  0  0  0  0
    1.6830   -0.6480   -3.0966 C   0  0  0  0  0  0  0  0  0  0  0  0
    3.1980   -0.8536   -3.2903 C   0  0  0  0  0  0  0  0  0  0  0  0
    3.7935   -0.8213   -1.8557 C   0  0  0  0  0  0  0  0  0  0  0  0
   -2.6255   -0.2423   -0.3596 N   0  0  0  0  0  0  0  0  0  0  0  0
   -3.4557    0.9319   -0.4397 C   0  0  0  0  0  0  0  0  0  0  0  0
   -3.6180    1.5759   -1.6838 C   0  0  0  0  0  0  0  0  0  0  0  0
   -4.4065    2.7218   -1.8117 C   0  0  0  0  0  0  0  0  0  0  0  0
   -5.0561    3.2407   -0.7008 C   0  0  0  0  0  0  0  0  0  0  0  0
   -4.9333    2.6024    0.5306 C   0  0  0  0  0  0  0  0  0  0  0  0
   -4.1530    1.4446    0.6631 C   0  0  0  0  0  0  0  0  0  0  0  0
   -4.0395    0.6997    2.2628 S   0  0  0  0  0  0  0  0  0  0  0  0
   -3.7059   -0.9733    1.7612 C   0  0  0  0  0  0  0  0  0  0  0  0
   -4.0703   -1.9885    2.6612 C   0  0  0  0  0  0  0  0  0  0  0  0
   -3.7769   -3.3200    2.3854 C   0  0  0  0  0  0  0  0  0  0  0  0
   -3.1143   -3.6419    1.2107 C   0  0  0  0  0  0  0  0  0  0  0  0
   -2.7445   -2.6336    0.3131 C   0  0  0  0  0  0  0  0  0  0  0  0
   -3.0322   -1.2785    0.5614 C   0  0  0  0  0  0  0  0  0  0  0  0
   -0.6997    1.2242   -2.4009 H   0  0  0  0  0  0  0  0  0  0  0  0
   -0.9945    1.7222   -0.7111 H   0  0  0  0  0  0  0  0  0  0  0  0
    0.8000    1.4405    0.9635 H   0  0  0  0  0  0  0  0  0  0  0  0
    2.4464    1.6498    2.6894 H   0  0  0  0  0  0  0  0  0  0  0  0
    4.0575    1.7061    4.5215 H   0  0  0  0  0  0  0  0  0  0  0  0
    5.2207   -0.7194    0.3557 H   0  0  0  0  0  0  0  0  0  0  0  0
    1.2389    0.0333   -3.8236 H   0  0  0  0  0  0  0  0  0  0  0  0
    1.1452   -1.5959   -3.0387 H   0  0  0  0  0  0  0  0  0  0  0  0
    3.4401   -1.7737   -3.8287 H   0  0  0  0  0  0  0  0  0  0  0  0
    3.6033   -0.0107   -3.8619 H   0  0  0  0  0  0  0  0  0  0  0  0
    3.9139   -1.8324   -1.4556 H   0  0  0  0  0  0  0  0  0  0  0  0
    4.7399   -0.2767   -1.8345 H   0  0  0  0  0  0  0  0  0  0  0  0
   -3.1891    1.1644   -2.5947 H   0  0  0  0  0  0  0  0  0  0  0  0
   -4.5357    3.1951   -2.7824 H   0  0  0  0  0  0  0  0  0  0  0  0
   -5.6788    4.1289   -0.7950 H   0  0  0  0  0  0  0  0  0  0  0  0
   -5.4630    3.0110    1.3900 H   0  0  0  0  0  0  0  0  0  0  0  0
   -4.5811   -1.7458    3.5921 H   0  0  0  0  0  0  0  0  0  0  0  0
   -4.0663   -4.1007    3.0845 H   0  0  0  0  0  0  0  0  0  0  0  0
   -2.8904   -4.6818    0.9818 H   0  0  0  0  0  0  0  0  0  0  0  0
   -2.2708   -2.9616   -0.6064 H   0  0  0  0  0  0  0  0  0  0  0  0
  1  2  2  0
  2  3  1  0
  3  4  1  0
  4  5  1  0
  5  6  2  0
  6  7  1  0
  7  8  2  0
  8  9  1  0
  9 10  2  0
 10 11  1  0
 10 12  1  0
 12 13  1  0
 12 14  2  0
  6 15  1  0
 15 16  1  0
 16 17  1  0
 17 18  1  0
 18 19  1  0
  2 20  1  0
 20 21  1  0
 21 22  2  0
 22 23  1  0
 23 24  2  0
 24 25  1  0
 25 26  2  0
 26 27  1  0
 27 28  1  0
 28 29  2  0
 29 30  1  0
 30 31  2  0
 31 32  1  0
 32 33  2  0
 16  4  2  0
 33 20  1  0
 14  7  1  0
 19 15  1  0
 26 21  1  0
 33 28  1  0
  3 34  1  0
  3 35  1  0
  5 36  1  0
  8 37  1  0
  9 38  1  0
 14 39  1  0
 17 40  1  0
 17 41  1  0
 18 42  1  0
 18 43  1  0
 19 44  1  0
 19 45  1  0
 22 46  1  0
 23 47  1  0
 24 48  1  0
 25 49  1  0
 29 50  1  0
 30 51  1  0
 31 52  1  0
 32 53  1  0
M  CHG  1   4   1
M  END
$$$$
