
     RDKit          3D

 60 63  0  0  0  0  0  0  0  0999 V2000
   -6.4137    4.9296   -0.1393 C   0  0  0  0  0  0  0  0  0  0  0  0
   -5.6981    4.4520    0.9917 O   0  0  0  0  0  0  0  0  0  0  0  0
   -4.7133    3.5323    0.7561 C   0  0  0  0  0  0  0  0  0  0  0  0
   -4.3405    3.0290   -0.4902 C   0  0  0  0  0  0  0  0  0  0  0  0
   -3.3110    2.0846   -0.5924 C   0  0  0  0  0  0  0  0  0  0  0  0
   -2.6470    1.6362    0.5565 C   0  0  0  0  0  0  0  0  0  0  0  0
   -1.6118    0.6737    0.4527 N   0  0  0  0  0  0  0  0  0  0  0  0
   -1.4508   -0.4860    1.2078 C   0  0  0  0  0  0  0  0  0  0  0  0
   -2.4357   -1.0479    2.1816 C   0  0  0  0  0  0  0  0  0  0  0  0
   -3.5743   -1.7425    1.4949 C   0  0  0  0  0  0  0  0  0  0  0  0
   -4.8305   -1.2563    1.1671 C   0  0  0  0  0  0  0  0  0  0  0  0
   -5.5453   -2.2907    0.5220 C   0  0  0  0  0  0  0  0  0  0  0  0
   -4.7167   -3.3885    0.4757 C   0  0  0  0  0  0  0  0  0  0  0  0
   -3.5253   -3.0537    1.0670 N   0  0  0  0  0  0  0  0  0  0  0  0
   -2.4048   -3.9609    1.2000 C   0  0  0  0  0  0  0  0  0  0  0  0
   -0.3525   -1.1131    0.8228 N   0  0  0  0  0  0  0  0  0  0  0  0
    0.1918   -0.4213   -0.2174 N   0  0  0  0  0  0  0  0  0  0  0  0
   -0.5535    0.6368   -0.4388 C   0  0  0  0  0  0  0  0  0  0  0  0
   -0.1480    1.8937   -1.5652 S   0  0  0  0  0  0  0  0  0  0  0  0
    1.0924    1.0704   -2.5932 C   0  0  0  0  0  0  0  0  0  0  0  0
    2.4443    1.0293   -1.9028 C   0  0  0  0  0  0  0  0  0  0  0  0
    3.1890    2.0051   -1.8456 O   0  0  0  0  0  0  0  0  0  0  0  0
    2.7683   -0.2079   -1.3773 N   0  0  0  0  0  0  0  0  0  0  0  0
    4.0126   -0.4386   -0.6562 C   0  0  0  0  0  0  0  0  0  0  0  0
    5.2703   -0.1821   -1.4967 C   0  0  0  0  0  0  0  0  0  0  0  0
    6.5017   -0.8238   -0.9014 C   0  0  0  0  0  0  0  0  0  0  0  0
    7.0129   -0.3900    0.3296 C   0  0  0  0  0  0  0  0  0  0  0  0
    8.1471   -0.9927    0.8770 C   0  0  0  0  0  0  0  0  0  0  0  0
    8.7852   -2.0279    0.1964 C   0  0  0  0  0  0  0  0  0  0  0  0
    8.2925   -2.4589   -1.0326 C   0  0  0  0  0  0  0  0  0  0  0  0
    7.1557   -1.8611   -1.5800 C   0  0  0  0  0  0  0  0  0  0  0  0
   -3.0140    2.1438    1.8067 C   0  0  0  0  0  0  0  0  0  0  0  0
   -4.0430    3.0864    1.8987 C   0  0  0  0  0  0  0  0  0  0  0  0
   -5.7484    5.4507   -0.8361 H   0  0  0  0  0  0  0  0  0  0  0  0
   -6.9515    4.1149   -0.6368 H   0  0  0  0  0  0  0  0  0  0  0  0
   -7.1571    5.6516    0.2146 H   0  0  0  0  0  0  0  0  0  0  0  0
   -4.8330    3.3455   -1.4045 H   0  0  0  0  0  0  0  0  0  0  0  0
   -3.0760    1.6878   -1.5787 H   0  0  0  0  0  0  0  0  0  0  0  0
   -2.8267   -0.2844    2.8570 H   0  0  0  0  0  0  0  0  0  0  0  0
   -1.9155   -1.7572    2.8362 H   0  0  0  0  0  0  0  0  0  0  0  0
   -5.1948   -0.2570    1.3692 H   0  0  0  0  0  0  0  0  0  0  0  0
   -6.5549   -2.2430    0.1355 H   0  0  0  0  0  0  0  0  0  0  0  0
   -4.8842   -4.3791    0.0694 H   0  0  0  0  0  0  0  0  0  0  0  0
   -2.6296   -4.8941    0.6780 H   0  0  0  0  0  0  0  0  0  0  0  0
   -2.2469   -4.1613    2.2603 H   0  0  0  0  0  0  0  0  0  0  0  0
   -1.5236   -3.5030    0.7486 H   0  0  0  0  0  0  0  0  0  0  0  0
    0.7653    0.0636   -2.8755 H   0  0  0  0  0  0  0  0  0  0  0  0
    1.2112    1.6355   -3.5243 H   0  0  0  0  0  0  0  0  0  0  0  0
    1.9695   -0.7165   -1.0033 H   0  0  0  0  0  0  0  0  0  0  0  0
    4.0064    0.1823    0.2486 H   0  0  0  0  0  0  0  0  0  0  0  0
    3.9811   -1.4895   -0.3413 H   0  0  0  0  0  0  0  0  0  0  0  0
    5.4576    0.8951   -1.5933 H   0  0  0  0  0  0  0  0  0  0  0  0
    5.1144   -0.5544   -2.5171 H   0  0  0  0  0  0  0  0  0  0  0  0
    6.5311    0.4230    0.8699 H   0  0  0  0  0  0  0  0  0  0  0  0
    8.5336   -0.6568    1.8366 H   0  0  0  0  0  0  0  0  0  0  0  0
    9.6693   -2.4948    0.6215 H   0  0  0  0  0  0  0  0  0  0  0  0
    8.7930   -3.2629   -1.5656 H   0  0  0  0  0  0  0  0  0  0  0  0
    6.7847   -2.2104   -2.5426 H   0  0  0  0  0  0  0  0  0  0  0  0
   -2.4885    1.8656    2.7161 H   0  0  0  0  0  0  0  0  0  0  0  0
   -4.3202    3.4899    2.8718 H   0  0  0  0  0  0  0  0  0  0  0  0
  1  2  1  0
  2  3  1  0
  3  4  2  0
  4  5  1  0
  5  6  2  0
  6  7  1  0
  7  8  1  0
  8  9  1  0
  9 10  1  0
 10 11  2  0
 11 12  1  0
 12 13  2  0
 13 14  1  0
 14 15  1  0
  8 16  2  0
 16 17  1  0
 17 18  2  0
 18 19  1  0
 19 20  1  0
 20 21  1  0
 21 22  2  0
 21 23  1  0
 23 24  1  0
 24 25  1  0
 25 26  1  0
 26 27  2  0
 27 28  1  0
 28 29  2  0
 29 30  1  0
 30 31  2  0
  6 32  1  0
 32 33  2  0
 33  3  1  0
 18  7  1  0
 31 26  1  0
 14 10  1  0
  1 34  1  0
  1 35  1  0
  1 36  1  0
  4 37  1  0
  5 38  1  0
  9 39  1  0
  9 40  1  0
 11 41  1  0
 12 42  1  0
 13 43  1  0
 15 44  1  0
 15 45  1  0
 15 46  1  0
 20 47  1  0
 20 48  1  0
 23 49  1  0
 24 50  1  0
 24 51  1  0
 25 52  1  0
 25 53  1  0
 27 54  1  0
 28 55  1  0
 29 56  1  0
 30 57  1  0
 31 58  1  0
 32 59  1  0
 33 60  1  0
M  END
$$$$
