
     RDKit          3D

 43 46  0  0  0  0  0  0  0  0999 V2000
    6.3940    1.9639   -1.2394 C   0  0  0  0  0  0  0  0  0  0  0  0
    5.0297    1.4921   -0.8272 C   0  0  0  0  0  0  0  0  0  0  0  0
    4.5816    0.2174   -1.1862 C   0  0  0  0  0  0  0  0  0  0  0  0
    3.2997   -0.2144   -0.8301 C   0  0  0  0  0  0  0  0  0  0  0  0
    2.4475    0.6293   -0.1173 C   0  0  0  0  0  0  0  0  0  0  0  0
    1.0052    0.1577    0.2883 C   0  0  0  0  0  0  0  0  0  0  0  0
    0.0363    0.9234    0.9268 C   0  0  0  0  0  0  0  0  0  0  0  0
   -1.1217    0.1593    1.0784 N   0  0  0  0  0  4  0  0  0  0  0  0
   -2.3735    0.5838    1.6997 C   0  0  0  0  0  0  0  0  0  0  0  0
   -3.4914    0.4761    0.6958 C   0  0  0  0  0  0  0  0  0  0  0  0
   -3.4578    1.2115   -0.5004 C   0  0  0  0  0  0  0  0  0  0  0  0
   -4.4930    1.1028   -1.4317 C   0  0  0  0  0  0  0  0  0  0  0  0
   -5.5749    0.2606   -1.1792 C   0  0  0  0  0  0  0  0  0  0  0  0
   -5.6208   -0.4658    0.0070 C   0  0  0  0  0  0  0  0  0  0  0  0
   -6.9484   -1.5115    0.3216 Cl  0  0  0  0  0  0  0  0  0  0  0  0
   -4.5915   -0.3598    0.9441 C   0  0  0  0  0  0  0  0  0  0  0  0
   -0.8695   -1.0429    0.5700 C   0  0  0  0  0  0  0  0  0  0  0  0
    0.3810   -1.0649    0.1180 N   0  0  0  0  0  0  0  0  0  0  0  0
    0.7370   -2.3659   -0.4306 C   0  0  0  0  0  0  0  0  0  0  0  0
   -0.4188   -3.2885    0.0453 C   0  0  0  0  0  0  0  0  0  0  0  0
   -1.5772   -2.3323    0.3912 C   0  0  0  0  0  0  0  0  0  0  0  0
    2.8837    1.9140    0.2267 C   0  0  0  0  0  0  0  0  0  0  0  0
    4.1661    2.3417   -0.1303 C   0  0  0  0  0  0  0  0  0  0  0  0
    6.7936    2.6823   -0.5159 H   0  0  0  0  0  0  0  0  0  0  0  0
    7.0982    1.1267   -1.2883 H   0  0  0  0  0  0  0  0  0  0  0  0
    6.3430    2.4420   -2.2224 H   0  0  0  0  0  0  0  0  0  0  0  0
    5.2328   -0.4488   -1.7504 H   0  0  0  0  0  0  0  0  0  0  0  0
    3.0016   -1.2066   -1.1420 H   0  0  0  0  0  0  0  0  0  0  0  0
    0.0183    1.9387    1.2851 H   0  0  0  0  0  0  0  0  0  0  0  0
   -2.5471   -0.0568    2.5715 H   0  0  0  0  0  0  0  0  0  0  0  0
   -2.2862    1.6173    2.0522 H   0  0  0  0  0  0  0  0  0  0  0  0
   -2.6261    1.8793   -0.7187 H   0  0  0  0  0  0  0  0  0  0  0  0
   -4.4616    1.6789   -2.3548 H   0  0  0  0  0  0  0  0  0  0  0  0
   -6.3799    0.1812   -1.9065 H   0  0  0  0  0  0  0  0  0  0  0  0
   -4.6584   -0.9325    1.8674 H   0  0  0  0  0  0  0  0  0  0  0  0
    1.6975   -2.7082   -0.0391 H   0  0  0  0  0  0  0  0  0  0  0  0
    0.7612   -2.2937   -1.5218 H   0  0  0  0  0  0  0  0  0  0  0  0
   -0.1032   -3.8127    0.9553 H   0  0  0  0  0  0  0  0  0  0  0  0
   -0.6942   -4.0415   -0.6979 H   0  0  0  0  0  0  0  0  0  0  0  0
   -2.0917   -2.5895    1.3176 H   0  0  0  0  0  0  0  0  0  0  0  0
   -2.2688   -2.1995   -0.4432 H   0  0  0  0  0  0  0  0  0  0  0  0
    2.2568    2.6105    0.7751 H   0  0  0  0  0  0  0  0  0  0  0  0
    4.4909    3.3454    0.1405 H   0  0  0  0  0  0  0  0  0  0  0  0
  1  2  1  0
  2  3  2  0
  3  4  1  0
  4  5  2  0
  5  6  1  0
  6  7  2  0
  7  8  1  0
  8  9  1  0
  9 10  1  0
 10 11  2  0
 11 12  1  0
 12 13  2  0
 13 14  1  0
 14 15  1  0
 14 16  2  0
  8 17  2  0
 17 18  1  0
 18 19  1  0
 19 20  1  0
 20 21  1  0
  5 22  1  0
 22 23  2  0
 23  2  1  0
 18  6  1  0
 16 10  1  0
 21 17  1  0
  1 24  1  0
  1 25  1  0
  1 26  1  0
  3 27  1  0
  4 28  1  0
  7 29  1  0
  9 30  1  0
  9 31  1  0
 11 32  1  0
 12 33  1  0
 13 34  1  0
 16 35  1  0
 19 36  1  0
 19 37  1  0
 20 38  1  0
 20 39  1  0
 21 40  1  0
 21 41  1  0
 22 42  1  0
 23 43  1  0
M  CHG  1   8   1
M  END
$$$$
