
     RDKit          3D

 46 48  0  0  0  0  0  0  0  0999 V2000
    8.6160   -0.4695    1.8000 C   0  0  0  0  0  0  0  0  0  0  0  0
    7.9990   -1.4674    0.8384 C   0  0  0  0  0  0  0  0  0  0  0  0
    6.9950   -0.8245    0.0391 O   0  0  0  0  0  0  0  0  0  0  0  0
    5.7439   -0.8057    0.5660 C   0  0  0  0  0  0  0  0  0  0  0  0
    5.4168   -1.2690    1.6463 O   0  0  0  0  0  0  0  0  0  0  0  0
    4.7991   -0.1395   -0.3722 C   0  0  0  0  0  0  0  0  0  0  0  0
    5.2484    0.6088   -1.4682 C   0  0  0  0  0  0  0  0  0  0  0  0
    4.3290    1.2298   -2.3107 C   0  0  0  0  0  0  0  0  0  0  0  0
    2.9607    1.1016   -2.0647 C   0  0  0  0  0  0  0  0  0  0  0  0
    2.4938    0.3520   -0.9762 C   0  0  0  0  0  0  0  0  0  0  0  0
    1.0949    0.2797   -0.8047 N   0  0  0  0  0  0  0  0  0  0  0  0
    0.4020   -0.4749    0.1248 C   0  0  0  0  0  0  0  0  0  0  0  0
    0.8759   -1.2796    0.9168 O   0  0  0  0  0  0  0  0  0  0  0  0
   -1.0784   -0.3012    0.0984 C   0  0  0  0  0  0  0  0  0  0  0  0
   -1.6753    0.9330   -0.1794 C   0  0  0  0  0  0  0  0  0  0  0  0
   -3.0711    1.0536   -0.1913 C   0  0  0  0  0  0  0  0  0  0  0  0
   -3.8828   -0.0496    0.0834 C   0  0  0  0  0  0  0  0  0  0  0  0
   -5.2882   -0.0091    0.0950 N   0  0  0  0  0  0  0  0  0  0  0  0
   -6.1219    1.0643   -0.1686 C   0  0  0  0  0  0  0  0  0  0  0  0
   -5.7533    2.1922   -0.4811 O   0  0  0  0  0  0  0  0  0  0  0  0
   -7.5277    0.7189   -0.0455 C   0  0  0  0  0  0  0  0  0  0  0  0
   -8.6704    1.4738   -0.2298 C   0  0  0  0  0  0  0  0  0  0  0  0
   -9.7702    0.6200    0.0248 C   0  0  0  0  0  0  0  0  0  0  0  0
   -9.2368   -0.6043    0.3502 C   0  0  0  0  0  0  0  0  0  0  0  0
   -7.8799   -0.5597    0.3102 O   0  0  0  0  0  0  0  0  0  0  0  0
   -3.2787   -1.2779    0.3794 C   0  0  0  0  0  0  0  0  0  0  0  0
   -1.8863   -1.4036    0.3923 C   0  0  0  0  0  0  0  0  0  0  0  0
    3.4207   -0.2595   -0.1279 C   0  0  0  0  0  0  0  0  0  0  0  0
    7.8629   -0.0681    2.4862 H   0  0  0  0  0  0  0  0  0  0  0  0
    9.4112   -0.9382    2.3863 H   0  0  0  0  0  0  0  0  0  0  0  0
    9.0348    0.3825    1.2536 H   0  0  0  0  0  0  0  0  0  0  0  0
    8.7651   -1.8384    0.1497 H   0  0  0  0  0  0  0  0  0  0  0  0
    7.5929   -2.3366    1.3682 H   0  0  0  0  0  0  0  0  0  0  0  0
    6.3108    0.7220   -1.6708 H   0  0  0  0  0  0  0  0  0  0  0  0
    4.6770    1.8129   -3.1593 H   0  0  0  0  0  0  0  0  0  0  0  0
    2.2655    1.5942   -2.7401 H   0  0  0  0  0  0  0  0  0  0  0  0
    0.5432    0.7835   -1.4862 H   0  0  0  0  0  0  0  0  0  0  0  0
   -1.0762    1.8227   -0.3554 H   0  0  0  0  0  0  0  0  0  0  0  0
   -3.4915    2.0319   -0.4048 H   0  0  0  0  0  0  0  0  0  0  0  0
   -5.7748   -0.8695    0.3271 H   0  0  0  0  0  0  0  0  0  0  0  0
   -8.6925    2.5172   -0.5148 H   0  0  0  0  0  0  0  0  0  0  0  0
  -10.8216    0.8664   -0.0227 H   0  0  0  0  0  0  0  0  0  0  0  0
   -9.6666   -1.5590    0.6215 H   0  0  0  0  0  0  0  0  0  0  0  0
   -3.8803   -2.1545    0.6092 H   0  0  0  0  0  0  0  0  0  0  0  0
   -1.4332   -2.3642    0.6324 H   0  0  0  0  0  0  0  0  0  0  0  0
    3.0990   -0.8377    0.7338 H   0  0  0  0  0  0  0  0  0  0  0  0
  1  2  1  0
  2  3  1  0
  3  4  1  0
  4  5  2  0
  4  6  1  0
  6  7  2  0
  7  8  1  0
  8  9  2  0
  9 10  1  0
 10 11  1  0
 11 12  1  0
 12 13  2  0
 12 14  1  0
 14 15  2  0
 15 16  1  0
 16 17  2  0
 17 18  1  0
 18 19  1  0
 19 20  2  0
 19 21  1  0
 21 22  2  0
 22 23  1  0
 23 24  2  0
 24 25  1  0
 17 26  1  0
 26 27  2  0
 10 28  2  0
 28  6  1  0
 27 14  1  0
 25 21  1  0
  1 29  1  0
  1 30  1  0
  1 31  1  0
  2 32  1  0
  2 33  1  0
  7 34  1  0
  8 35  1  0
  9 36  1  0
 11 37  1  0
 15 38  1  0
 16 39  1  0
 18 40  1  0
 22 41  1  0
 23 42  1  0
 24 43  1  0
 26 44  1  0
 27 45  1  0
 28 46  1  0
M  END
$$$$
