
     RDKit          3D

 53 56  0  0  0  0  0  0  0  0999 V2000
   -8.7622    1.1937   -1.6677 C   0  0  0  0  0  0  0  0  0  0  0  0
   -7.3458    0.9591   -1.2340 C   0  0  0  0  0  0  0  0  0  0  0  0
   -7.0682    0.3650    0.0014 C   0  0  0  0  0  0  0  0  0  0  0  0
   -5.7479    0.1156    0.3965 C   0  0  0  0  0  0  0  0  0  0  0  0
   -4.6816    0.4602   -0.4407 C   0  0  0  0  0  0  0  0  0  0  0  0
   -3.3181    0.2187   -0.0849 N   0  0  0  0  0  0  0  0  0  0  0  0
   -2.3834    0.1965   -1.0735 N   0  0  0  0  0  0  0  0  0  0  0  0
   -1.2689   -0.2475   -0.4887 C   0  0  0  0  0  0  0  0  0  0  0  0
    0.0071   -0.5079   -1.1416 C   0  0  0  0  0  0  0  0  0  0  0  0
    0.2033   -0.3678   -2.3475 O   0  0  0  0  0  0  0  0  0  0  0  0
    0.9927   -0.9602   -0.2429 N   0  0  0  0  0  0  0  0  0  0  0  0
    2.3366   -1.1725   -0.7520 C   0  0  0  0  0  0  0  0  0  0  0  0
    3.1269    0.1374   -0.7961 C   0  0  0  0  0  0  0  0  0  0  0  0
    2.7220    1.2094   -0.3543 O   0  0  0  0  0  0  0  0  0  0  0  0
    4.3772   -0.0002   -1.3761 N   0  0  0  0  0  0  0  0  0  0  0  0
    5.3261    1.0988   -1.3822 C   0  0  0  0  0  0  0  0  0  0  0  0
    6.0646    1.2595   -0.0483 C   0  0  0  0  0  0  0  0  0  0  0  0
    6.9806    0.0988    0.2338 C   0  0  0  0  0  0  0  0  0  0  0  0
    8.2683   -0.1015   -0.2235 C   0  0  0  0  0  0  0  0  0  0  0  0
    8.8276   -1.3228    0.2510 C   0  0  0  0  0  0  0  0  0  0  0  0
    7.9510   -2.0120    1.0576 C   0  0  0  0  0  0  0  0  0  0  0  0
    6.4645   -1.1892    1.2402 S   0  0  0  0  0  0  0  0  0  0  0  0
    0.8103   -1.1554    1.1314 N   0  0  0  0  0  0  0  0  0  0  0  0
   -0.3387   -0.9050    1.6946 C   0  0  0  0  0  0  0  0  0  0  0  0
   -0.4707   -1.1289    3.1741 C   0  0  0  0  0  0  0  0  0  0  0  0
   -1.4366   -0.4297    0.8881 C   0  0  0  0  0  0  0  0  0  0  0  0
   -2.7322   -0.0251    1.1635 C   0  0  0  0  0  0  0  0  0  0  0  0
   -3.4021    0.1970    2.4705 C   0  0  0  0  0  0  0  0  0  0  0  0
   -4.9651    1.0173   -1.6987 C   0  0  0  0  0  0  0  0  0  0  0  0
   -6.2843    1.2669   -2.0886 C   0  0  0  0  0  0  0  0  0  0  0  0
   -9.1318    0.3271   -2.2238 H   0  0  0  0  0  0  0  0  0  0  0  0
   -8.8326    2.0809   -2.3051 H   0  0  0  0  0  0  0  0  0  0  0  0
   -9.4133    1.3627   -0.8039 H   0  0  0  0  0  0  0  0  0  0  0  0
   -7.8829    0.0783    0.6635 H   0  0  0  0  0  0  0  0  0  0  0  0
   -5.6031   -0.3949    1.3409 H   0  0  0  0  0  0  0  0  0  0  0  0
    2.8586   -1.8823   -0.1013 H   0  0  0  0  0  0  0  0  0  0  0  0
    2.2869   -1.5909   -1.7628 H   0  0  0  0  0  0  0  0  0  0  0  0
    4.7440   -0.9323   -1.5238 H   0  0  0  0  0  0  0  0  0  0  0  0
    6.0290    0.9100   -2.2012 H   0  0  0  0  0  0  0  0  0  0  0  0
    4.7844    2.0236   -1.6104 H   0  0  0  0  0  0  0  0  0  0  0  0
    5.3496    1.3940    0.7724 H   0  0  0  0  0  0  0  0  0  0  0  0
    6.6674    2.1754   -0.0883 H   0  0  0  0  0  0  0  0  0  0  0  0
    8.7886    0.5966   -0.8685 H   0  0  0  0  0  0  0  0  0  0  0  0
    9.8244   -1.6755    0.0163 H   0  0  0  0  0  0  0  0  0  0  0  0
    8.1124   -2.9589    1.5543 H   0  0  0  0  0  0  0  0  0  0  0  0
    0.3891   -1.6905    3.5518 H   0  0  0  0  0  0  0  0  0  0  0  0
   -1.3787   -1.6968    3.3922 H   0  0  0  0  0  0  0  0  0  0  0  0
   -0.5060   -0.1641    3.6870 H   0  0  0  0  0  0  0  0  0  0  0  0
   -2.6799    0.5051    3.2317 H   0  0  0  0  0  0  0  0  0  0  0  0
   -3.8868   -0.7193    2.8194 H   0  0  0  0  0  0  0  0  0  0  0  0
   -4.1368    1.0058    2.4230 H   0  0  0  0  0  0  0  0  0  0  0  0
   -4.1630    1.2754   -2.3896 H   0  0  0  0  0  0  0  0  0  0  0  0
   -6.4723    1.7025   -3.0678 H   0  0  0  0  0  0  0  0  0  0  0  0
  1  2  1  0
  2  3  2  0
  3  4  1  0
  4  5  2  0
  5  6  1  0
  6  7  1  0
  7  8  2  0
  8  9  1  0
  9 10  2  0
  9 11  1  0
 11 12  1  0
 12 13  1  0
 13 14  2  0
 13 15  1  0
 15 16  1  0
 16 17  1  0
 17 18  1  0
 18 19  2  0
 19 20  1  0
 20 21  2  0
 21 22  1  0
 11 23  1  0
 23 24  2  0
 24 25  1  0
 24 26  1  0
 26 27  2  0
 27 28  1  0
  5 29  1  0
 29 30  2  0
 30  2  1  0
 27  6  1  0
 26  8  1  0
 22 18  1  0
  1 31  1  0
  1 32  1  0
  1 33  1  0
  3 34  1  0
  4 35  1  0
 12 36  1  0
 12 37  1  0
 15 38  1  0
 16 39  1  0
 16 40  1  0
 17 41  1  0
 17 42  1  0
 19 43  1  0
 20 44  1  0
 21 45  1  0
 25 46  1  0
 25 47  1  0
 25 48  1  0
 28 49  1  0
 28 50  1  0
 28 51  1  0
 29 52  1  0
 30 53  1  0
M  END
$$$$
