
     RDKit          3D

 41 42  0  0  0  0  0  0  0  0999 V2000
    3.0762    4.1833   -1.2649 C   0  0  0  0  0  0  0  0  0  0  0  0
    2.6636    3.8042    0.1450 C   0  0  0  0  0  0  0  0  0  0  0  0
    2.3142    2.4114    0.1996 O   0  0  0  0  0  0  0  0  0  0  0  0
    1.0192    2.1054   -0.1491 C   0  0  0  0  0  0  0  0  0  0  0  0
    0.1747    2.9480   -0.4277 O   0  0  0  0  0  0  0  0  0  0  0  0
    0.7999    0.5677   -0.0582 C   0  0  0  0  0  0  0  0  0  0  0  0
   -0.6249    0.2649   -0.0262 N   0  0  0  0  0  0  0  0  0  0  0  0
   -1.3976    0.2898   -1.1549 C   0  0  0  0  0  0  0  0  0  0  0  0
   -0.9743    0.6725   -2.2368 O   0  0  0  0  0  0  0  0  0  0  0  0
   -2.8044   -0.1624   -1.0085 C   0  0  0  0  0  0  0  0  0  0  0  0
   -3.7760    0.4206   -1.8330 C   0  0  0  0  0  0  0  0  0  0  0  0
   -5.1109    0.0261   -1.7326 C   0  0  0  0  0  0  0  0  0  0  0  0
   -5.4760   -0.9585   -0.8146 C   0  0  0  0  0  0  0  0  0  0  0  0
   -4.5038   -1.5507   -0.0079 C   0  0  0  0  0  0  0  0  0  0  0  0
   -4.9605   -2.7765    1.1110 Cl  0  0  0  0  0  0  0  0  0  0  0  0
   -3.1673   -1.1639   -0.1003 C   0  0  0  0  0  0  0  0  0  0  0  0
    1.2853    0.1370    1.2967 N   0  0  0  0  0  0  0  0  0  0  0  0
    1.2987   -1.1871    1.5960 C   0  0  0  0  0  0  0  0  0  0  0  0
    0.4368   -2.0832    1.1695 N   0  0  0  0  0  0  0  0  0  0  0  0
    0.6890   -3.3460    1.6591 N   0  0  0  0  0  0  0  0  0  0  0  0
    1.7405   -3.3675    2.4483 C   0  0  0  0  0  0  0  0  0  0  0  0
    2.2714   -4.5756    3.1269 C   0  0  0  0  0  0  0  0  0  0  0  0
    2.4902   -1.8373    2.6554 S   0  0  0  0  0  0  0  0  0  0  0  0
    1.6535   -0.0112   -1.2399 C   0  0  0  0  0  0  0  0  0  0  0  0
    1.6690    0.7632   -2.3468 F   0  0  0  0  0  0  0  0  0  0  0  0
    2.9590   -0.1324   -0.8533 F   0  0  0  0  0  0  0  0  0  0  0  0
    1.2593   -1.2540   -1.6075 F   0  0  0  0  0  0  0  0  0  0  0  0
    2.2473    4.0490   -1.9670 H   0  0  0  0  0  0  0  0  0  0  0  0
    3.4033    5.2260   -1.3061 H   0  0  0  0  0  0  0  0  0  0  0  0
    3.8934    3.5421   -1.6114 H   0  0  0  0  0  0  0  0  0  0  0  0
    3.5085    3.9471    0.8265 H   0  0  0  0  0  0  0  0  0  0  0  0
    1.8456    4.4351    0.5104 H   0  0  0  0  0  0  0  0  0  0  0  0
   -0.9879   -0.0560    0.8576 H   0  0  0  0  0  0  0  0  0  0  0  0
   -3.4919    1.1864   -2.5533 H   0  0  0  0  0  0  0  0  0  0  0  0
   -5.8626    0.4838   -2.3712 H   0  0  0  0  0  0  0  0  0  0  0  0
   -6.5159   -1.2661   -0.7392 H   0  0  0  0  0  0  0  0  0  0  0  0
   -2.4223   -1.6671    0.5104 H   0  0  0  0  0  0  0  0  0  0  0  0
    2.1588    0.6142    1.5230 H   0  0  0  0  0  0  0  0  0  0  0  0
    3.3014   -4.7764    2.8157 H   0  0  0  0  0  0  0  0  0  0  0  0
    2.2504   -4.4527    4.2143 H   0  0  0  0  0  0  0  0  0  0  0  0
    1.6669   -5.4530    2.8757 H   0  0  0  0  0  0  0  0  0  0  0  0
  1  2  1  0
  2  3  1  0
  3  4  1  0
  4  5  2  0
  4  6  1  0
  6  7  1  0
  7  8  1  0
  8  9  2  0
  8 10  1  0
 10 11  2  0
 11 12  1  0
 12 13  2  0
 13 14  1  0
 14 15  1  0
 14 16  2  0
  6 17  1  0
 17 18  1  0
 18 19  2  0
 19 20  1  0
 20 21  2  0
 21 22  1  0
 21 23  1  0
  6 24  1  0
 24 25  1  0
 24 26  1  0
 24 27  1  0
 16 10  1  0
 23 18  1  0
  1 28  1  0
  1 29  1  0
  1 30  1  0
  2 31  1  0
  2 32  1  0
  7 33  1  0
 11 34  1  0
 12 35  1  0
 13 36  1  0
 16 37  1  0
 17 38  1  0
 22 39  1  0
 22 40  1  0
 22 41  1  0
M  END
$$$$
