
     RDKit          3D

 38 38  0  0  0  0  0  0  0  0999 V2000
    4.5408   -0.5795    3.1755 C   0  0  0  0  0  0  0  0  0  0  0  0
    4.1819    0.2356    2.0664 O   0  0  0  0  0  0  0  0  0  0  0  0
    3.9381    1.5894    2.4692 C   0  0  0  0  0  0  0  0  0  0  0  0
    3.6037    2.4178    1.2310 C   0  0  0  0  0  0  0  0  0  0  0  0
    2.4573    1.8665    0.5273 N   0  0  0  0  0  0  0  0  0  0  0  0
    1.7439    2.6229   -0.3748 C   0  0  0  0  0  0  0  0  0  0  0  0
    1.9206    3.8246   -0.5375 O   0  0  0  0  0  0  0  0  0  0  0  0
    0.7533    1.8628   -1.1949 C   0  0  0  0  0  0  0  0  0  0  0  0
    0.7156    2.1825   -2.5784 C   0  0  0  0  0  0  0  0  0  0  0  0
    0.6855    2.4103   -3.7170 N   0  0  0  0  0  0  0  0  0  0  0  0
   -0.0681    1.0016   -0.5577 C   0  0  0  0  0  0  0  0  0  0  0  0
   -1.1378    0.1256   -1.0544 C   0  0  0  0  0  0  0  0  0  0  0  0
   -1.3606   -0.0207   -2.5402 C   0  0  0  0  0  0  0  0  0  0  0  0
   -1.8746   -0.5467   -0.1428 C   0  0  0  0  0  0  0  0  0  0  0  0
   -2.9838   -1.4568   -0.4435 C   0  0  0  0  0  0  0  0  0  0  0  0
   -2.7781   -2.8400   -0.4184 C   0  0  0  0  0  0  0  0  0  0  0  0
   -3.8319   -3.7106   -0.7029 C   0  0  0  0  0  0  0  0  0  0  0  0
   -5.0934   -3.2026   -1.0114 C   0  0  0  0  0  0  0  0  0  0  0  0
   -5.3038   -1.8244   -1.0362 C   0  0  0  0  0  0  0  0  0  0  0  0
   -4.2516   -0.9519   -0.7522 C   0  0  0  0  0  0  0  0  0  0  0  0
    5.4635   -0.2140    3.6363 H   0  0  0  0  0  0  0  0  0  0  0  0
    3.7325   -0.5996    3.9129 H   0  0  0  0  0  0  0  0  0  0  0  0
    4.7098   -1.5973    2.8139 H   0  0  0  0  0  0  0  0  0  0  0  0
    4.8302    1.9970    2.9574 H   0  0  0  0  0  0  0  0  0  0  0  0
    3.0989    1.6078    3.1741 H   0  0  0  0  0  0  0  0  0  0  0  0
    4.4400    2.3994    0.5234 H   0  0  0  0  0  0  0  0  0  0  0  0
    3.4033    3.4584    1.5055 H   0  0  0  0  0  0  0  0  0  0  0  0
    2.4512    0.8551    0.4432 H   0  0  0  0  0  0  0  0  0  0  0  0
    0.0521    0.9418    0.5273 H   0  0  0  0  0  0  0  0  0  0  0  0
   -2.0868   -0.7984   -2.7944 H   0  0  0  0  0  0  0  0  0  0  0  0
   -0.4311   -0.3053   -3.0445 H   0  0  0  0  0  0  0  0  0  0  0  0
   -1.7395    0.9136   -2.9663 H   0  0  0  0  0  0  0  0  0  0  0  0
   -1.6888   -0.4441    0.9249 H   0  0  0  0  0  0  0  0  0  0  0  0
   -1.7980   -3.2473   -0.1832 H   0  0  0  0  0  0  0  0  0  0  0  0
   -3.6682   -4.7850   -0.6859 H   0  0  0  0  0  0  0  0  0  0  0  0
   -5.9130   -3.8812   -1.2340 H   0  0  0  0  0  0  0  0  0  0  0  0
   -6.2868   -1.4284   -1.2778 H   0  0  0  0  0  0  0  0  0  0  0  0
   -4.4260    0.1212   -0.7758 H   0  0  0  0  0  0  0  0  0  0  0  0
  1  2  1  0
  2  3  1  0
  3  4  1  0
  4  5  1  0
  5  6  1  0
  6  7  2  0
  6  8  1  0
  8  9  1  0
  9 10  3  0
  8 11  2  3
 11 12  1  0
 12 13  1  0
 12 14  2  3
 14 15  1  0
 15 16  2  0
 16 17  1  0
 17 18  2  0
 18 19  1  0
 19 20  2  0
 20 15  1  0
  1 21  1  0
  1 22  1  0
  1 23  1  0
  3 24  1  0
  3 25  1  0
  4 26  1  0
  4 27  1  0
  5 28  1  0
 11 29  1  0
 13 30  1  0
 13 31  1  0
 13 32  1  0
 14 33  1  0
 16 34  1  0
 17 35  1  0
 18 36  1  0
 19 37  1  0
 20 38  1  0
M  END
$$$$
