
     RDKit          3D

 34 35  0  0  0  0  0  0  0  0999 V2000
   -2.9665   -0.9371    1.8327 C   0  0  0  0  0  0  0  0  0  0  0  0
   -3.4527   -0.2468    0.5862 C   0  0  0  0  0  0  0  0  0  0  0  0
   -4.8122    0.1075    0.5107 C   0  0  0  0  0  0  0  0  0  0  0  0
   -5.3231    0.7460   -0.6166 C   0  0  0  0  0  0  0  0  0  0  0  0
   -4.4788    1.0496   -1.6766 C   0  0  0  0  0  0  0  0  0  0  0  0
   -3.1257    0.7066   -1.6149 C   0  0  0  0  0  0  0  0  0  0  0  0
   -2.5990    0.0398   -0.5026 C   0  0  0  0  0  0  0  0  0  0  0  0
   -1.2235   -0.2840   -0.3987 N   0  0  0  0  0  0  0  0  0  0  0  0
   -0.2761   -0.5103   -1.3671 C   0  0  0  0  0  0  0  0  0  0  0  0
   -0.4945   -0.8803   -2.9808 S   0  0  0  0  0  0  0  0  0  0  0  0
    1.0196   -0.4636   -0.9231 N   0  0  0  0  0  0  0  0  0  0  0  0
    1.4999    0.1406    0.3050 C   0  0  0  0  0  0  0  0  0  0  0  0
    3.0023    0.1161    0.3662 C   0  0  0  0  0  0  0  0  0  0  0  0
    3.6784   -1.0485    0.7577 C   0  0  0  0  0  0  0  0  0  0  0  0
    5.0733   -1.0795    0.7915 C   0  0  0  0  0  0  0  0  0  0  0  0
    5.8052    0.0490    0.4271 C   0  0  0  0  0  0  0  0  0  0  0  0
    5.1441    1.2079    0.0245 C   0  0  0  0  0  0  0  0  0  0  0  0
    3.7491    1.2411   -0.0102 C   0  0  0  0  0  0  0  0  0  0  0  0
   -3.7861   -1.1349    2.5319 H   0  0  0  0  0  0  0  0  0  0  0  0
   -2.5138   -1.9020    1.5823 H   0  0  0  0  0  0  0  0  0  0  0  0
   -2.2346   -0.3102    2.3521 H   0  0  0  0  0  0  0  0  0  0  0  0
   -5.4861   -0.1155    1.3354 H   0  0  0  0  0  0  0  0  0  0  0  0
   -6.3755    1.0130   -0.6634 H   0  0  0  0  0  0  0  0  0  0  0  0
   -4.8656    1.5635   -2.5528 H   0  0  0  0  0  0  0  0  0  0  0  0
   -2.4958    1.0107   -2.4441 H   0  0  0  0  0  0  0  0  0  0  0  0
   -0.9308   -0.5949    0.5145 H   0  0  0  0  0  0  0  0  0  0  0  0
    1.7031   -0.5798   -1.6644 H   0  0  0  0  0  0  0  0  0  0  0  0
    1.1186    1.1669    0.3595 H   0  0  0  0  0  0  0  0  0  0  0  0
    1.0816   -0.4040    1.1590 H   0  0  0  0  0  0  0  0  0  0  0  0
    3.1198   -1.9406    1.0332 H   0  0  0  0  0  0  0  0  0  0  0  0
    5.5894   -1.9859    1.0973 H   0  0  0  0  0  0  0  0  0  0  0  0
    6.8916    0.0236    0.4514 H   0  0  0  0  0  0  0  0  0  0  0  0
    5.7157    2.0854   -0.2669 H   0  0  0  0  0  0  0  0  0  0  0  0
    3.2485    2.1506   -0.3362 H   0  0  0  0  0  0  0  0  0  0  0  0
  1  2  1  0
  2  3  2  0
  3  4  1  0
  4  5  2  0
  5  6  1  0
  6  7  2  0
  7  8  1  0
  8  9  1  0
  9 10  2  0
  9 11  1  0
 11 12  1  0
 12 13  1  0
 13 14  2  0
 14 15  1  0
 15 16  2  0
 16 17  1  0
 17 18  2  0
  7  2  1  0
 18 13  1  0
  1 19  1  0
  1 20  1  0
  1 21  1  0
  3 22  1  0
  4 23  1  0
  5 24  1  0
  6 25  1  0
  8 26  1  0
 11 27  1  0
 12 28  1  0
 12 29  1  0
 14 30  1  0
 15 31  1  0
 16 32  1  0
 17 33  1  0
 18 34  1  0
M  END
$$$$
