
     RDKit          3D

 56 61  0  0  0  0  0  0  0  0999 V2000
    5.5181   -0.5316   -1.7184 C   0  0  0  0  0  0  0  0  0  0  0  0
    4.5484   -0.5198   -0.5748 C   0  0  0  0  0  0  0  0  0  0  0  0
    4.9871   -0.4745    0.7629 C   0  0  0  0  0  0  0  0  0  0  0  0
    6.6726   -0.4196    1.1514 Cl  0  0  0  0  0  0  0  0  0  0  0  0
    4.0780   -0.4760    1.8396 C   0  0  0  0  0  0  0  0  0  0  0  0
    2.7023   -0.5248    1.6144 C   0  0  0  0  0  0  0  0  0  0  0  0
    2.2591   -0.5668    0.3030 C   0  0  0  0  0  0  0  0  0  0  0  0
    3.1726   -0.5722   -0.7628 C   0  0  0  0  0  0  0  0  0  0  0  0
    2.4789   -0.6471   -1.9698 N   0  0  0  0  0  0  0  0  0  0  0  0
    1.0997   -0.7227   -1.7719 C   0  0  0  0  0  0  0  0  0  0  0  0
    0.2722   -0.8744   -2.6577 O   0  0  0  0  0  0  0  0  0  0  0  0
    0.8622   -0.6256   -0.2427 C   0  0  0  0  0  0  0  0  0  0  0  0
    0.0362   -1.7539    0.2776 N   0  0  0  0  0  0  0  0  0  0  0  0
   -1.3451   -1.2496    0.5901 C   0  0  2  0  0  0  0  0  0  0  0  0
   -2.4017   -1.6260   -0.4709 C   0  0  0  0  0  0  0  0  0  0  0  0
   -2.5648   -3.1139   -0.6758 C   0  0  0  0  0  0  0  0  0  0  0  0
   -3.1223   -3.9203    0.3254 C   0  0  0  0  0  0  0  0  0  0  0  0
   -3.2585   -5.2957    0.1298 C   0  0  0  0  0  0  0  0  0  0  0  0
   -2.8417   -5.8764   -1.0666 C   0  0  0  0  0  0  0  0  0  0  0  0
   -2.2897   -5.0829   -2.0700 C   0  0  0  0  0  0  0  0  0  0  0  0
   -2.1523   -3.7079   -1.8772 C   0  0  0  0  0  0  0  0  0  0  0  0
   -1.1329    0.2163    0.6650 C   0  0  0  0  0  0  0  0  0  0  0  0
    0.1199    0.5761    0.1753 C   0  0  0  0  0  0  0  0  0  0  0  0
    0.2486    1.9395    0.2564 C   0  0  0  0  0  0  0  0  0  0  0  0
    1.2931    2.7126   -0.0330 O   0  0  0  0  0  0  0  0  0  0  0  0
   -0.9548    2.4488    0.7969 N   0  0  0  0  0  0  0  0  0  0  0  0
   -1.2591    3.8344    1.0412 C   0  0  0  0  0  0  0  0  0  0  0  0
   -2.2091    4.2031    2.0083 C   0  0  0  0  0  0  0  0  0  0  0  0
   -2.5027    5.5505    2.2435 C   0  0  0  0  0  0  0  0  0  0  0  0
   -1.8511    6.5338    1.5136 C   0  0  0  0  0  0  0  0  0  0  0  0
   -2.1338    7.8233    1.7397 F   0  0  0  0  0  0  0  0  0  0  0  0
   -0.9103    6.1960    0.5520 C   0  0  0  0  0  0  0  0  0  0  0  0
   -0.6134    4.8496    0.3155 C   0  0  0  0  0  0  0  0  0  0  0  0
   -1.7997    1.3464    1.0574 C   0  0  0  0  0  0  0  0  0  0  0  0
   -3.0331    1.4741    1.5398 O   0  0  0  0  0  0  0  0  0  0  0  0
    6.1811    0.3384   -1.6670 H   0  0  0  0  0  0  0  0  0  0  0  0
    5.0190   -0.4893   -2.6904 H   0  0  0  0  0  0  0  0  0  0  0  0
    6.1170   -1.4478   -1.6971 H   0  0  0  0  0  0  0  0  0  0  0  0
    4.4467   -0.4436    2.8631 H   0  0  0  0  0  0  0  0  0  0  0  0
    1.9997   -0.5331    2.4431 H   0  0  0  0  0  0  0  0  0  0  0  0
    2.8886   -0.7112   -2.8900 H   0  0  0  0  0  0  0  0  0  0  0  0
   -0.0243   -2.4790   -0.4364 H   0  0  0  0  0  0  0  0  0  0  0  0
   -1.6316   -1.6431    1.5719 H   0  0  0  0  0  0  0  0  0  0  0  0
   -3.3774   -1.2131   -0.1800 H   0  0  0  0  0  0  0  0  0  0  0  0
   -2.1660   -1.1459   -1.4301 H   0  0  0  0  0  0  0  0  0  0  0  0
   -3.4558   -3.4862    1.2648 H   0  0  0  0  0  0  0  0  0  0  0  0
   -3.6912   -5.9153    0.9110 H   0  0  0  0  0  0  0  0  0  0  0  0
   -2.9495   -6.9472   -1.2180 H   0  0  0  0  0  0  0  0  0  0  0  0
   -1.9678   -5.5341   -3.0050 H   0  0  0  0  0  0  0  0  0  0  0  0
   -1.7201   -3.1019   -2.6725 H   0  0  0  0  0  0  0  0  0  0  0  0
    2.0469    2.1402   -0.2584 H   0  0  0  0  0  0  0  0  0  0  0  0
   -2.7150    3.4659    2.6240 H   0  0  0  0  0  0  0  0  0  0  0  0
   -3.2314    5.8331    2.9962 H   0  0  0  0  0  0  0  0  0  0  0  0
   -0.4157    6.9779   -0.0151 H   0  0  0  0  0  0  0  0  0  0  0  0
    0.1016    4.6248   -0.4701 H   0  0  0  0  0  0  0  0  0  0  0  0
   -3.4273    0.5876    1.6039 H   0  0  0  0  0  0  0  0  0  0  0  0
  1  2  1  0
  2  3  2  0
  3  4  1  0
  3  5  1  0
  5  6  2  0
  6  7  1  0
  7  8  2  0
  8  9  1  0
  9 10  1  0
 10 11  2  0
 10 12  1  0
 12 13  1  0
 13 14  1  0
 14 15  1  0
 15 16  1  0
 16 17  2  0
 17 18  1  0
 18 19  2  0
 19 20  1  0
 20 21  2  0
 14 22  1  0
 22 23  1  0
 23 24  2  0
 24 25  1  0
 24 26  1  0
 26 27  1  0
 27 28  2  0
 28 29  1  0
 29 30  2  0
 30 31  1  0
 30 32  1  0
 32 33  2  0
 26 34  1  0
 34 35  1  0
  8  2  1  0
 23 12  1  0
 33 27  1  0
 12  7  1  0
 21 16  1  0
 34 22  2  0
  1 36  1  0
  1 37  1  0
  1 38  1  0
  5 39  1  0
  6 40  1  0
  9 41  1  0
 13 42  1  0
 14 43  1  1
 15 44  1  0
 15 45  1  0
 17 46  1  0
 18 47  1  0
 19 48  1  0
 20 49  1  0
 21 50  1  0
 25 51  1  0
 28 52  1  0
 29 53  1  0
 32 54  1  0
 33 55  1  0
 35 56  1  0
M  END
$$$$
