
     RDKit          3D

 28 28  0  0  0  0  0  0  0  0999 V2000
   -1.2146   -2.2241   -0.1061 C   0  0  0  0  0  0  0  0  0  0  0  0
   -2.1632   -1.1348    0.4098 C   0  0  0  0  0  0  0  0  0  0  0  0
   -2.2021   -1.1470    1.9439 C   0  0  0  0  0  0  0  0  0  0  0  0
   -3.5769   -1.4357   -0.1219 C   0  0  0  0  0  0  0  0  0  0  0  0
   -1.7247    0.2679   -0.0672 C   0  0  0  0  0  0  0  0  0  0  0  0
   -2.5306    1.0466   -0.5883 O   0  0  0  0  0  0  0  0  0  0  0  0
   -0.2865    0.7004    0.1539 C   0  0  0  0  0  0  0  0  0  0  0  0
    0.6345    0.5718   -1.4026 S   0  0  0  0  0  0  0  0  0  0  0  0
    2.1971    1.2273   -0.8794 C   0  0  0  0  0  0  0  0  0  0  0  0
    2.4298    1.3863    0.4358 N   0  0  0  0  0  0  0  0  0  0  0  0
    3.6371    1.8781    0.7735 C   0  0  0  0  0  0  0  0  0  0  0  0
    4.6074    2.2066   -0.1420 C   0  0  0  0  0  0  0  0  0  0  0  0
    4.2709    1.9996   -1.4573 C   0  0  0  0  0  0  0  0  0  0  0  0
    3.0807    1.5113   -1.8505 N   0  0  0  0  0  0  0  0  0  0  0  0
   -0.2055   -2.1183    0.3055 H   0  0  0  0  0  0  0  0  0  0  0  0
   -1.5720   -3.2226    0.1709 H   0  0  0  0  0  0  0  0  0  0  0  0
   -1.1317   -2.1905   -1.1982 H   0  0  0  0  0  0  0  0  0  0  0  0
   -2.8407   -0.3433    2.3282 H   0  0  0  0  0  0  0  0  0  0  0  0
   -1.2067   -1.0045    2.3775 H   0  0  0  0  0  0  0  0  0  0  0  0
   -2.5924   -2.0982    2.3230 H   0  0  0  0  0  0  0  0  0  0  0  0
   -3.6017   -1.4051   -1.2174 H   0  0  0  0  0  0  0  0  0  0  0  0
   -3.9187   -2.4279    0.1937 H   0  0  0  0  0  0  0  0  0  0  0  0
   -4.3061   -0.7031    0.2433 H   0  0  0  0  0  0  0  0  0  0  0  0
    0.1770    0.0909    0.9330 H   0  0  0  0  0  0  0  0  0  0  0  0
   -0.3036    1.7377    0.5062 H   0  0  0  0  0  0  0  0  0  0  0  0
    3.8062    2.0040    1.8391 H   0  0  0  0  0  0  0  0  0  0  0  0
    5.5700    2.6006    0.1519 H   0  0  0  0  0  0  0  0  0  0  0  0
    4.9668    2.2258   -2.2600 H   0  0  0  0  0  0  0  0  0  0  0  0
  1  2  1  0
  2  3  1  0
  2  4  1  0
  2  5  1  0
  5  6  2  0
  5  7  1  0
  7  8  1  0
  8  9  1  0
  9 10  2  0
 10 11  1  0
 11 12  2  0
 12 13  1  0
 13 14  2  0
 14  9  1  0
  1 15  1  0
  1 16  1  0
  1 17  1  0
  3 18  1  0
  3 19  1  0
  3 20  1  0
  4 21  1  0
  4 22  1  0
  4 23  1  0
  7 24  1  0
  7 25  1  0
 11 26  1  0
 12 27  1  0
 13 28  1  0
M  END
$$$$
