
     RDKit          3D

 52 54  0  0  0  0  0  0  0  0999 V2000
    7.5360   -0.5622   -0.0913 C   0  0  0  0  0  0  0  0  0  0  0  0
    6.3667   -1.1263   -0.8415 C   0  0  0  0  0  0  0  0  0  0  0  0
    6.3590   -1.1444   -2.2411 C   0  0  0  0  0  0  0  0  0  0  0  0
    5.2733   -1.6841   -2.9380 C   0  0  0  0  0  0  0  0  0  0  0  0
    4.1855   -2.2338   -2.2455 C   0  0  0  0  0  0  0  0  0  0  0  0
    2.9972   -2.7888   -2.9878 C   0  0  0  0  0  0  0  0  0  0  0  0
    1.9584   -1.7995   -3.1157 N   0  0  0  0  0  0  0  0  0  0  0  0
    0.9448   -1.6719   -2.1960 C   0  0  0  0  0  0  0  0  0  0  0  0
    0.7149   -2.4294   -1.2576 O   0  0  0  0  0  0  0  0  0  0  0  0
    0.0595   -0.4247   -2.4262 C   0  0  0  0  0  0  0  0  0  0  0  0
    0.2682    0.3121   -3.3793 O   0  0  0  0  0  0  0  0  0  0  0  0
   -0.9180   -0.2625   -1.4782 N   0  0  0  0  0  0  0  0  0  0  0  0
   -1.8008    0.8929   -1.4532 C   0  0  0  0  0  0  0  0  0  0  0  0
   -2.8701    0.8074   -0.3445 C   0  0  0  0  0  0  0  0  0  0  0  0
   -3.7734   -0.2823   -0.6229 O   0  0  0  0  0  0  0  0  0  0  0  0
   -4.1773   -0.7983    0.6502 C   0  0  0  0  0  0  0  0  0  0  0  0
   -2.9327   -0.6860    1.5070 C   0  0  0  0  0  0  0  0  0  0  0  0
   -2.2635    0.4984    0.9622 N   0  0  0  0  0  0  0  0  0  0  0  0
   -1.8286    1.7704    1.9580 S   0  0  0  0  0  6  0  0  0  0  0  0
   -1.2282    2.7938    1.1261 O   0  0  0  0  0  0  0  0  0  0  0  0
   -1.1352    1.2232    3.1056 O   0  0  0  0  0  0  0  0  0  0  0  0
   -3.3865    2.4140    2.5434 C   0  0  0  0  0  0  0  0  0  0  0  0
   -3.9493    1.8987    3.7177 C   0  0  0  0  0  0  0  0  0  0  0  0
   -5.1479    2.4277    4.2010 C   0  0  0  0  0  0  0  0  0  0  0  0
   -5.7633    3.4805    3.5222 C   0  0  0  0  0  0  0  0  0  0  0  0
   -7.3796    4.2043    4.1851 Br  0  0  0  0  0  0  0  0  0  0  0  0
   -5.1881    4.0150    2.3681 C   0  0  0  0  0  0  0  0  0  0  0  0
   -3.9904    3.4874    1.8794 C   0  0  0  0  0  0  0  0  0  0  0  0
    4.2018   -2.2252   -0.8436 C   0  0  0  0  0  0  0  0  0  0  0  0
    5.2855   -1.6835   -0.1483 C   0  0  0  0  0  0  0  0  0  0  0  0
    8.2496   -1.3559    0.1469 H   0  0  0  0  0  0  0  0  0  0  0  0
    8.0466    0.2183   -0.6756 H   0  0  0  0  0  0  0  0  0  0  0  0
    7.2036   -0.0903    0.8394 H   0  0  0  0  0  0  0  0  0  0  0  0
    7.1959   -0.7273   -2.7997 H   0  0  0  0  0  0  0  0  0  0  0  0
    5.2843   -1.6697   -4.0259 H   0  0  0  0  0  0  0  0  0  0  0  0
    3.2839   -3.0944   -4.0005 H   0  0  0  0  0  0  0  0  0  0  0  0
    2.6115   -3.6789   -2.4753 H   0  0  0  0  0  0  0  0  0  0  0  0
    2.0860   -1.0159   -3.7521 H   0  0  0  0  0  0  0  0  0  0  0  0
   -0.8970   -0.8873   -0.6747 H   0  0  0  0  0  0  0  0  0  0  0  0
   -2.2807    0.9586   -2.4375 H   0  0  0  0  0  0  0  0  0  0  0  0
   -1.1707    1.7806   -1.3249 H   0  0  0  0  0  0  0  0  0  0  0  0
   -3.4697    1.7220   -0.3247 H   0  0  0  0  0  0  0  0  0  0  0  0
   -4.5314   -1.8288    0.5491 H   0  0  0  0  0  0  0  0  0  0  0  0
   -4.9936   -0.1742    1.0334 H   0  0  0  0  0  0  0  0  0  0  0  0
   -2.2735   -1.5480    1.3490 H   0  0  0  0  0  0  0  0  0  0  0  0
   -3.1707   -0.6324    2.5709 H   0  0  0  0  0  0  0  0  0  0  0  0
   -3.4553    1.1012    4.2697 H   0  0  0  0  0  0  0  0  0  0  0  0
   -5.5846    2.0264    5.1134 H   0  0  0  0  0  0  0  0  0  0  0  0
   -5.6556    4.8513    1.8538 H   0  0  0  0  0  0  0  0  0  0  0  0
   -3.5323    3.9281    0.9955 H   0  0  0  0  0  0  0  0  0  0  0  0
    3.3624   -2.6371   -0.2843 H   0  0  0  0  0  0  0  0  0  0  0  0
    5.2732   -1.6873    0.9385 H   0  0  0  0  0  0  0  0  0  0  0  0
  1  2  1  0
  2  3  2  0
  3  4  1  0
  4  5  2  0
  5  6  1  0
  6  7  1  0
  7  8  1  0
  8  9  2  0
  8 10  1  0
 10 11  2  0
 10 12  1  0
 12 13  1  0
 13 14  1  0
 14 15  1  0
 15 16  1  0
 16 17  1  0
 17 18  1  0
 18 19  1  0
 19 20  2  0
 19 21  2  0
 19 22  1  0
 22 23  2  0
 23 24  1  0
 24 25  2  0
 25 26  1  0
 25 27  1  0
 27 28  2  0
  5 29  1  0
 29 30  2  0
 30  2  1  0
 18 14  1  0
 28 22  1  0
  1 31  1  0
  1 32  1  0
  1 33  1  0
  3 34  1  0
  4 35  1  0
  6 36  1  0
  6 37  1  0
  7 38  1  0
 12 39  1  0
 13 40  1  0
 13 41  1  0
 14 42  1  0
 16 43  1  0
 16 44  1  0
 17 45  1  0
 17 46  1  0
 23 47  1  0
 24 48  1  0
 27 49  1  0
 28 50  1  0
 29 51  1  0
 30 52  1  0
M  END
$$$$
