
     RDKit          3D

 58 62  0  0  0  0  0  0  0  0999 V2000
    8.6809    2.3081    0.5880 C   0  0  0  0  0  0  0  0  0  0  0  0
    8.0102    1.1183    0.9764 O   0  0  0  0  0  0  0  0  0  0  0  0
    6.6430    1.1379    0.9331 C   0  0  0  0  0  0  0  0  0  0  0  0
    6.0302   -0.0562    1.3190 C   0  0  0  0  0  0  0  0  0  0  0  0
    4.6392   -0.1763    1.3221 C   0  0  0  0  0  0  0  0  0  0  0  0
    3.8377    0.9063    0.9464 C   0  0  0  0  0  0  0  0  0  0  0  0
    2.3342    0.7769    0.9306 C   0  0  0  0  0  0  0  0  0  0  0  0
    1.8146    0.3612   -0.4481 C   0  0  0  0  0  0  0  0  0  0  0  0
    0.3589    0.1157   -0.4066 N   0  0  0  0  0  0  0  0  0  0  0  0
   -0.5122    1.1932   -0.6233 C   0  0  0  0  0  0  0  0  0  0  0  0
   -0.0215    2.3871   -0.8117 N   0  0  0  0  0  0  0  0  0  0  0  0
   -2.0138    0.9598   -0.6406 C   0  0  0  0  0  0  0  0  0  0  0  0
   -2.9786    2.0716   -0.9276 C   0  0  0  0  0  0  0  0  0  0  0  0
   -2.5679    3.2100   -1.1528 O   0  0  0  0  0  0  0  0  0  0  0  0
   -4.3184    1.7792   -0.9059 N   0  0  0  0  0  0  0  0  0  0  0  0
   -5.3073    2.8206   -1.0824 C   0  0  0  0  0  0  0  0  0  0  0  0
   -6.5930    2.1751   -1.4357 C   0  0  0  0  0  0  0  0  0  0  0  0
   -7.2950    2.0477   -2.6170 C   0  0  0  0  0  0  0  0  0  0  0  0
   -8.4493    1.2825   -2.3134 C   0  0  0  0  0  0  0  0  0  0  0  0
   -8.3826    1.0008   -0.9687 C   0  0  0  0  0  0  0  0  0  0  0  0
   -7.2566    1.5332   -0.4293 O   0  0  0  0  0  0  0  0  0  0  0  0
   -2.3888   -0.3104   -0.4035 C   0  0  0  0  0  0  0  0  0  0  0  0
   -1.4509   -1.3838   -0.0997 C   0  0  0  0  0  0  0  0  0  0  0  0
   -1.9722   -2.7422    0.2270 C   0  0  0  0  0  0  0  0  0  0  0  0
   -3.1892   -2.9442    0.2286 O   0  0  0  0  0  0  0  0  0  0  0  0
   -1.0235   -3.7051    0.5184 N   0  0  0  0  0  0  0  0  0  0  0  0
   -1.4310   -4.9959    0.8406 C   0  0  0  0  0  0  0  0  0  0  0  0
   -0.5502   -5.9601    1.1351 C   0  0  0  0  0  0  0  0  0  0  0  0
    0.8589   -5.6712    1.1205 C   0  0  0  0  0  0  0  0  0  0  0  0
    1.2950   -4.4436    0.8131 C   0  0  0  0  0  0  0  0  0  0  0  0
    0.3165   -3.3676    0.4879 C   0  0  0  0  0  0  0  0  0  0  0  0
    0.7666   -2.1903    0.1998 N   0  0  0  0  0  0  0  0  0  0  0  0
   -0.1160   -1.1777   -0.0998 C   0  0  0  0  0  0  0  0  0  0  0  0
    4.4529    2.1005    0.5544 C   0  0  0  0  0  0  0  0  0  0  0  0
    5.8479    2.2168    0.5482 C   0  0  0  0  0  0  0  0  0  0  0  0
    9.7566    2.1326    0.6866 H   0  0  0  0  0  0  0  0  0  0  0  0
    8.4187    3.1402    1.2484 H   0  0  0  0  0  0  0  0  0  0  0  0
    8.4756    2.5532   -0.4594 H   0  0  0  0  0  0  0  0  0  0  0  0
    6.6440   -0.9015    1.6192 H   0  0  0  0  0  0  0  0  0  0  0  0
    4.1874   -1.1191    1.6193 H   0  0  0  0  0  0  0  0  0  0  0  0
    1.8837    1.7282    1.2417 H   0  0  0  0  0  0  0  0  0  0  0  0
    2.0275    0.0483    1.6922 H   0  0  0  0  0  0  0  0  0  0  0  0
    2.0592    1.1255   -1.1967 H   0  0  0  0  0  0  0  0  0  0  0  0
    2.3425   -0.5347   -0.7993 H   0  0  0  0  0  0  0  0  0  0  0  0
   -0.7874    3.0678   -0.9703 H   0  0  0  0  0  0  0  0  0  0  0  0
   -4.6640    0.9189   -0.5152 H   0  0  0  0  0  0  0  0  0  0  0  0
   -5.3905    3.3772   -0.1435 H   0  0  0  0  0  0  0  0  0  0  0  0
   -4.9846    3.5119   -1.8675 H   0  0  0  0  0  0  0  0  0  0  0  0
   -7.0012    2.4455   -3.5786 H   0  0  0  0  0  0  0  0  0  0  0  0
   -9.2343    0.9758   -2.9894 H   0  0  0  0  0  0  0  0  0  0  0  0
   -9.0217    0.4595   -0.2838 H   0  0  0  0  0  0  0  0  0  0  0  0
   -3.4292   -0.6131   -0.4200 H   0  0  0  0  0  0  0  0  0  0  0  0
   -2.5006   -5.1911    0.8456 H   0  0  0  0  0  0  0  0  0  0  0  0
   -0.8762   -6.9644    1.3866 H   0  0  0  0  0  0  0  0  0  0  0  0
    1.5556   -6.4675    1.3631 H   0  0  0  0  0  0  0  0  0  0  0  0
    2.3464   -4.1847    0.7902 H   0  0  0  0  0  0  0  0  0  0  0  0
    3.8457    2.9506    0.2499 H   0  0  0  0  0  0  0  0  0  0  0  0
    6.2777    3.1628    0.2371 H   0  0  0  0  0  0  0  0  0  0  0  0
  1  2  1  0
  2  3  1  0
  3  4  2  0
  4  5  1  0
  5  6  2  0
  6  7  1  0
  7  8  1  0
  8  9  1  0
  9 10  1  0
 10 11  2  3
 10 12  1  0
 12 13  1  0
 13 14  2  0
 13 15  1  0
 15 16  1  0
 16 17  1  0
 17 18  2  0
 18 19  1  0
 19 20  2  0
 20 21  1  0
 12 22  2  0
 22 23  1  0
 23 24  1  0
 24 25  2  0
 24 26  1  0
 26 27  1  0
 27 28  2  0
 28 29  1  0
 29 30  2  0
 30 31  1  0
 31 32  2  0
 32 33  1  0
  6 34  1  0
 34 35  2  0
 35  3  1  0
 33  9  1  0
 21 17  1  0
 33 23  2  0
 31 26  1  0
  1 36  1  0
  1 37  1  0
  1 38  1  0
  4 39  1  0
  5 40  1  0
  7 41  1  0
  7 42  1  0
  8 43  1  0
  8 44  1  0
 11 45  1  0
 15 46  1  0
 16 47  1  0
 16 48  1  0
 18 49  1  0
 19 50  1  0
 20 51  1  0
 22 52  1  0
 27 53  1  0
 28 54  1  0
 29 55  1  0
 30 56  1  0
 34 57  1  0
 35 58  1  0
M  END
$$$$
