
     RDKit          3D

 53 55  0  0  0  0  0  0  0  0999 V2000
    9.1209   -0.4916    0.6895 C   0  0  0  0  0  0  0  0  0  0  0  0
    8.1094   -0.4761   -0.3086 O   0  0  0  0  0  0  0  0  0  0  0  0
    6.8800   -0.0037    0.0612 C   0  0  0  0  0  0  0  0  0  0  0  0
    5.9397    0.0435   -0.9757 C   0  0  0  0  0  0  0  0  0  0  0  0
    4.6440    0.5052   -0.7415 C   0  0  0  0  0  0  0  0  0  0  0  0
    4.2865    0.9118    0.5459 C   0  0  0  0  0  0  0  0  0  0  0  0
    2.6385    1.5029    0.8358 S   0  0  0  0  0  6  0  0  0  0  0  0
    2.2857    2.3608   -0.2722 O   0  0  0  0  0  0  0  0  0  0  0  0
    2.5550    1.9682    2.2031 O   0  0  0  0  0  0  0  0  0  0  0  0
    1.7259    0.1029    0.7251 N   0  0  0  0  0  0  0  0  0  0  0  0
    1.9614   -0.9732    1.6901 C   0  0  0  0  0  0  0  0  0  0  0  0
    0.7843   -1.8781    1.4144 C   0  0  0  0  0  0  0  0  0  0  0  0
   -0.3018   -0.9798    1.1812 O   0  0  0  0  0  0  0  0  0  0  0  0
    0.2540    0.2256    0.5915 C   0  0  0  0  0  0  0  0  0  0  0  0
   -0.3984    1.4313    1.3094 C   0  0  0  0  0  0  0  0  0  0  0  0
   -1.8527    1.4136    1.2737 N   0  0  0  0  0  0  0  0  0  0  0  0
   -2.5513    1.5755    0.1009 C   0  0  0  0  0  0  0  0  0  0  0  0
   -2.0673    1.8445   -0.9897 O   0  0  0  0  0  0  0  0  0  0  0  0
   -4.0744    1.3525    0.2444 C   0  0  0  0  0  0  0  0  0  0  0  0
   -4.5499    1.0246    1.3227 O   0  0  0  0  0  0  0  0  0  0  0  0
   -4.7658    1.5450   -0.9280 N   0  0  0  0  0  0  0  0  0  0  0  0
   -6.1709    1.2587   -1.0537 C   0  0  0  0  0  0  0  0  0  0  0  0
   -6.4089   -0.1741   -1.4564 C   0  0  0  0  0  0  0  0  0  0  0  0
   -6.6727   -1.1258   -0.4543 C   0  0  0  0  0  0  0  0  0  0  0  0
   -6.8847   -2.4672   -0.7757 C   0  0  0  0  0  0  0  0  0  0  0  0
   -6.8289   -2.8817   -2.1033 C   0  0  0  0  0  0  0  0  0  0  0  0
   -6.5546   -1.9548   -3.1086 C   0  0  0  0  0  0  0  0  0  0  0  0
   -6.3406   -0.6103   -2.7886 C   0  0  0  0  0  0  0  0  0  0  0  0
   -5.9807    0.4733   -4.0843 Cl  0  0  0  0  0  0  0  0  0  0  0  0
    5.2147    0.8725    1.5893 C   0  0  0  0  0  0  0  0  0  0  0  0
    6.5124    0.4122    1.3437 C   0  0  0  0  0  0  0  0  0  0  0  0
    9.3204    0.5197    1.0663 H   0  0  0  0  0  0  0  0  0  0  0  0
   10.0415   -0.8616    0.2263 H   0  0  0  0  0  0  0  0  0  0  0  0
    8.8593   -1.1745    1.5025 H   0  0  0  0  0  0  0  0  0  0  0  0
    6.2228   -0.2805   -1.9746 H   0  0  0  0  0  0  0  0  0  0  0  0
    3.9250    0.5458   -1.5579 H   0  0  0  0  0  0  0  0  0  0  0  0
    2.9094   -1.4905    1.5250 H   0  0  0  0  0  0  0  0  0  0  0  0
    1.9146   -0.5893    2.7153 H   0  0  0  0  0  0  0  0  0  0  0  0
    0.9365   -2.4757    0.5071 H   0  0  0  0  0  0  0  0  0  0  0  0
    0.5522   -2.5467    2.2482 H   0  0  0  0  0  0  0  0  0  0  0  0
   -0.0050    0.2133   -0.4717 H   0  0  0  0  0  0  0  0  0  0  0  0
   -0.0764    2.3753    0.8616 H   0  0  0  0  0  0  0  0  0  0  0  0
   -0.1269    1.4360    2.3701 H   0  0  0  0  0  0  0  0  0  0  0  0
   -2.3712    1.0191    2.0539 H   0  0  0  0  0  0  0  0  0  0  0  0
   -4.2096    1.7116   -1.7639 H   0  0  0  0  0  0  0  0  0  0  0  0
   -6.5960    1.9526   -1.7871 H   0  0  0  0  0  0  0  0  0  0  0  0
   -6.6708    1.4748   -0.1020 H   0  0  0  0  0  0  0  0  0  0  0  0
   -6.7054   -0.8190    0.5905 H   0  0  0  0  0  0  0  0  0  0  0  0
   -7.0882   -3.1881    0.0136 H   0  0  0  0  0  0  0  0  0  0  0  0
   -6.9908   -3.9253   -2.3561 H   0  0  0  0  0  0  0  0  0  0  0  0
   -6.5026   -2.2884   -4.1413 H   0  0  0  0  0  0  0  0  0  0  0  0
    4.9405    1.1936    2.5924 H   0  0  0  0  0  0  0  0  0  0  0  0
    7.2116    0.3897    2.1724 H   0  0  0  0  0  0  0  0  0  0  0  0
  1  2  1  0
  2  3  1  0
  3  4  2  0
  4  5  1  0
  5  6  2  0
  6  7  1  0
  7  8  2  0
  7  9  2  0
  7 10  1  0
 10 11  1  0
 11 12  1  0
 12 13  1  0
 13 14  1  0
 14 15  1  0
 15 16  1  0
 16 17  1  0
 17 18  2  0
 17 19  1  0
 19 20  2  0
 19 21  1  0
 21 22  1  0
 22 23  1  0
 23 24  2  0
 24 25  1  0
 25 26  2  0
 26 27  1  0
 27 28  2  0
 28 29  1  0
  6 30  1  0
 30 31  2  0
 31  3  1  0
 14 10  1  0
 28 23  1  0
  1 32  1  0
  1 33  1  0
  1 34  1  0
  4 35  1  0
  5 36  1  0
 11 37  1  0
 11 38  1  0
 12 39  1  0
 12 40  1  0
 14 41  1  0
 15 42  1  0
 15 43  1  0
 16 44  1  0
 21 45  1  0
 22 46  1  0
 22 47  1  0
 24 48  1  0
 25 49  1  0
 26 50  1  0
 27 51  1  0
 30 52  1  0
 31 53  1  0
M  END
$$$$
