
     RDKit          3D

 39 41  0  0  0  0  0  0  0  0999 V2000
   -1.7405    2.4773    3.8435 C   0  0  0  0  0  0  0  0  0  0  0  0
   -1.0107    1.3270    3.4339 O   0  0  0  0  0  0  0  0  0  0  0  0
   -1.4780    0.6574    2.3362 C   0  0  0  0  0  0  0  0  0  0  0  0
   -2.5922    1.0117    1.5695 C   0  0  0  0  0  0  0  0  0  0  0  0
   -2.9592    0.2409    0.4604 C   0  0  0  0  0  0  0  0  0  0  0  0
   -2.2002   -0.8808    0.1167 C   0  0  0  0  0  0  0  0  0  0  0  0
   -2.6661   -1.8559   -1.2976 S   0  0  0  0  0  6  0  0  0  0  0  0
   -1.9784   -3.1264   -1.2201 O   0  0  0  0  0  0  0  0  0  0  0  0
   -4.1087   -1.7923   -1.4109 O   0  0  0  0  0  0  0  0  0  0  0  0
   -2.0601   -0.9686   -2.5996 N   0  0  0  0  0  0  0  0  0  0  0  0
   -0.7224   -0.4808   -2.5894 C   0  0  0  0  0  0  0  0  0  0  0  0
   -0.5125    0.8661   -2.8878 C   0  0  0  0  0  0  0  0  0  0  0  0
    0.7763    1.3966   -2.8501 C   0  0  0  0  0  0  0  0  0  0  0  0
    1.8520    0.5821   -2.5060 C   0  0  0  0  0  0  0  0  0  0  0  0
    3.0731    1.1959   -2.4503 O   0  0  0  0  0  0  0  0  0  0  0  0
    1.6637   -0.7803   -2.2361 C   0  0  0  0  0  0  0  0  0  0  0  0
    2.9958   -1.8993   -1.8313 S   0  0  0  0  0  0  0  0  0  0  0  0
    3.4936   -1.2689   -0.2879 C   0  0  0  0  0  0  0  0  0  0  0  0
    4.1136   -0.0503   -0.1707 N   0  0  0  0  0  0  0  0  0  0  0  0
    4.3042    0.0535    1.1240 C   0  0  0  0  0  0  0  0  0  0  0  0
    3.8256   -1.0579    1.7464 N   0  0  0  0  0  0  0  0  0  0  0  0
    3.2945   -1.9171    0.8619 N   0  0  0  0  0  0  0  0  0  0  0  0
    0.3665   -1.3079   -2.3072 C   0  0  0  0  0  0  0  0  0  0  0  0
   -1.0996   -1.2570    0.8902 C   0  0  0  0  0  0  0  0  0  0  0  0
   -0.7396   -0.4795    1.9920 C   0  0  0  0  0  0  0  0  0  0  0  0
   -1.7286    3.2501    3.0678 H   0  0  0  0  0  0  0  0  0  0  0  0
   -1.2458    2.8886    4.7287 H   0  0  0  0  0  0  0  0  0  0  0  0
   -2.7657    2.2140    4.1254 H   0  0  0  0  0  0  0  0  0  0  0  0
   -3.1980    1.8797    1.8091 H   0  0  0  0  0  0  0  0  0  0  0  0
   -3.8332    0.5198   -0.1246 H   0  0  0  0  0  0  0  0  0  0  0  0
   -2.7797   -0.3942   -3.0345 H   0  0  0  0  0  0  0  0  0  0  0  0
   -1.3430    1.5210   -3.1349 H   0  0  0  0  0  0  0  0  0  0  0  0
    0.9433    2.4480   -3.0684 H   0  0  0  0  0  0  0  0  0  0  0  0
    3.6475    0.6779   -1.8472 H   0  0  0  0  0  0  0  0  0  0  0  0
    4.7667    0.8768    1.6498 H   0  0  0  0  0  0  0  0  0  0  0  0
    3.8226   -1.2917    2.7336 H   0  0  0  0  0  0  0  0  0  0  0  0
    0.2130   -2.3703   -2.1320 H   0  0  0  0  0  0  0  0  0  0  0  0
   -0.5133   -2.1400    0.6434 H   0  0  0  0  0  0  0  0  0  0  0  0
    0.1232   -0.7653    2.5894 H   0  0  0  0  0  0  0  0  0  0  0  0
  1  2  1  0
  2  3  1  0
  3  4  2  0
  4  5  1  0
  5  6  2  0
  6  7  1  0
  7  8  2  0
  7  9  2  0
  7 10  1  0
 10 11  1  0
 11 12  2  0
 12 13  1  0
 13 14  2  0
 14 15  1  0
 14 16  1  0
 16 17  1  0
 17 18  1  0
 18 19  1  0
 19 20  2  0
 20 21  1  0
 21 22  1  0
 16 23  2  0
  6 24  1  0
 24 25  2  0
 25  3  1  0
 23 11  1  0
 22 18  2  0
  1 26  1  0
  1 27  1  0
  1 28  1  0
  4 29  1  0
  5 30  1  0
 10 31  1  0
 12 32  1  0
 13 33  1  0
 15 34  1  0
 20 35  1  0
 21 36  1  0
 23 37  1  0
 24 38  1  0
 25 39  1  0
M  END
$$$$
