
     RDKit          3D

 37 39  0  0  0  0  0  0  0  0999 V2000
   -7.5644    2.4784   -0.6312 C   0  0  0  0  0  0  0  0  0  0  0  0
   -7.1662    1.0914   -1.1104 C   0  0  0  0  0  0  0  0  0  0  0  0
   -5.9802    0.5747   -0.3667 C   0  0  0  0  0  0  0  0  0  0  0  0
   -6.0344   -0.0570    0.7880 N   0  0  0  0  0  0  0  0  0  0  0  0
   -4.7796   -0.4158    1.2377 N   0  0  0  0  0  0  0  0  0  0  0  0
   -3.8295   -0.0441    0.4084 C   0  0  0  0  0  0  0  0  0  0  0  0
   -2.5065   -0.3026    0.6660 N   0  0  0  0  0  0  0  0  0  0  0  0
   -1.4241    0.0362   -0.1243 C   0  0  0  0  0  0  0  0  0  0  0  0
   -1.4673    0.6281   -1.1970 O   0  0  0  0  0  0  0  0  0  0  0  0
   -0.1044   -0.4269    0.5103 C   0  0  0  0  0  0  0  0  0  0  0  0
    1.0100   -0.0777   -0.2945 O   0  0  0  0  0  0  0  0  0  0  0  0
    2.2499   -0.4281    0.1625 C   0  0  0  0  0  0  0  0  0  0  0  0
    2.5280   -1.1063    1.3472 C   0  0  0  0  0  0  0  0  0  0  0  0
    3.8519   -1.4008    1.6926 C   0  0  0  0  0  0  0  0  0  0  0  0
    4.9166   -1.0227    0.8603 C   0  0  0  0  0  0  0  0  0  0  0  0
    6.2499   -1.3114    1.1947 C   0  0  0  0  0  0  0  0  0  0  0  0
    7.2951   -0.9264    0.3535 C   0  0  0  0  0  0  0  0  0  0  0  0
    7.0211   -0.2491   -0.8311 C   0  0  0  0  0  0  0  0  0  0  0  0
    5.7013    0.0448   -1.1771 C   0  0  0  0  0  0  0  0  0  0  0  0
    4.6386   -0.3355   -0.3413 C   0  0  0  0  0  0  0  0  0  0  0  0
    3.3044   -0.0479   -0.6729 C   0  0  0  0  0  0  0  0  0  0  0  0
   -4.3875    0.7678   -0.9792 S   0  0  0  0  0  0  0  0  0  0  0  0
   -7.8023    2.4751    0.4381 H   0  0  0  0  0  0  0  0  0  0  0  0
   -8.4479    2.8280   -1.1746 H   0  0  0  0  0  0  0  0  0  0  0  0
   -6.7580    3.2018   -0.7931 H   0  0  0  0  0  0  0  0  0  0  0  0
   -6.9702    1.1166   -2.1887 H   0  0  0  0  0  0  0  0  0  0  0  0
   -8.0067    0.4034   -0.9606 H   0  0  0  0  0  0  0  0  0  0  0  0
   -2.3648   -0.7938    1.5379 H   0  0  0  0  0  0  0  0  0  0  0  0
   -0.0262    0.0582    1.4911 H   0  0  0  0  0  0  0  0  0  0  0  0
   -0.1604   -1.5168    0.6211 H   0  0  0  0  0  0  0  0  0  0  0  0
    1.7462   -1.4230    2.0281 H   0  0  0  0  0  0  0  0  0  0  0  0
    4.0472   -1.9310    2.6224 H   0  0  0  0  0  0  0  0  0  0  0  0
    6.4844   -1.8397    2.1159 H   0  0  0  0  0  0  0  0  0  0  0  0
    8.3225   -1.1557    0.6238 H   0  0  0  0  0  0  0  0  0  0  0  0
    7.8336    0.0516   -1.4873 H   0  0  0  0  0  0  0  0  0  0  0  0
    5.5058    0.5750   -2.1067 H   0  0  0  0  0  0  0  0  0  0  0  0
    3.0741    0.4811   -1.5959 H   0  0  0  0  0  0  0  0  0  0  0  0
  1  2  1  0
  2  3  1  0
  3  4  2  0
  4  5  1  0
  5  6  2  0
  6  7  1  0
  7  8  1  0
  8  9  2  0
  8 10  1  0
 10 11  1  0
 11 12  1  0
 12 13  2  0
 13 14  1  0
 14 15  2  0
 15 16  1  0
 16 17  2  0
 17 18  1  0
 18 19  2  0
 19 20  1  0
 20 21  2  0
  6 22  1  0
 22  3  1  0
 21 12  1  0
 20 15  1  0
  1 23  1  0
  1 24  1  0
  1 25  1  0
  2 26  1  0
  2 27  1  0
  7 28  1  0
 10 29  1  0
 10 30  1  0
 13 31  1  0
 14 32  1  0
 16 33  1  0
 17 34  1  0
 18 35  1  0
 19 36  1  0
 21 37  1  0
M  END
$$$$
