
     RDKit          3D

 59 63  0  0  0  0  0  0  0  0999 V2000
   -4.0908   -3.7016    0.0809 C   0  0  0  0  0  0  0  0  0  0  0  0
   -3.6032   -2.6382    1.0565 C   0  0  0  0  0  0  0  0  0  0  0  0
   -4.0879   -1.2277    0.6836 C   0  0  0  0  0  0  0  0  0  0  0  0
   -3.8703   -0.2931    1.7882 N   0  0  0  0  0  0  0  0  0  0  0  0
   -2.5393    0.0780    1.9722 C   0  0  0  0  0  0  0  0  0  0  0  0
   -2.2020    0.3680    3.2369 N   0  0  0  0  0  0  0  0  0  0  0  0
   -0.9414    0.7600    3.4239 C   0  0  0  0  0  0  0  0  0  0  0  0
    0.0121    0.8170    2.4879 N   0  0  0  0  0  0  0  0  0  0  0  0
   -0.3266    0.4694    1.2281 C   0  0  0  0  0  0  0  0  0  0  0  0
    0.7319    0.2990    0.3106 N   0  0  0  0  0  0  0  0  0  0  0  0
    1.9506    1.0780    0.6336 C   0  0  0  0  0  0  0  0  0  0  0  0
    3.0903    0.7495   -0.3598 C   0  0  0  0  0  0  0  0  0  0  0  0
    3.4040   -0.6997   -0.3900 N   0  0  0  0  0  0  0  0  0  0  0  0
    4.7510   -1.0205   -0.1788 C   0  0  0  0  0  0  0  0  0  0  0  0
    5.7327   -0.4705   -1.0061 C   0  0  0  0  0  0  0  0  0  0  0  0
    7.0721   -0.7974   -0.8101 C   0  0  0  0  0  0  0  0  0  0  0  0
    7.4111   -1.6727    0.2088 C   0  0  0  0  0  0  0  0  0  0  0  0
    6.3905   -2.1875    0.9789 C   0  0  0  0  0  0  0  0  0  0  0  0
    5.0852   -1.8893    0.7985 N   0  0  0  0  0  0  0  0  0  0  0  0
    2.4560   -1.5565    0.3495 C   0  0  0  0  0  0  0  0  0  0  0  0
    0.9975   -1.1467    0.0444 C   0  0  0  0  0  0  0  0  0  0  0  0
   -1.6543    0.1582    0.8895 C   0  0  0  0  0  0  0  0  0  0  0  0
   -2.1557   -0.1018   -0.4375 N   0  0  0  0  0  0  0  0  0  0  0  0
   -1.5879    0.5814   -1.6001 C   0  0  0  0  0  0  0  0  0  0  0  0
   -2.0519    2.0224   -1.7122 C   0  0  0  0  0  0  0  0  0  0  0  0
   -3.2630    2.3350   -2.3489 C   0  0  0  0  0  0  0  0  0  0  0  0
   -3.7021    3.6585   -2.4375 C   0  0  0  0  0  0  0  0  0  0  0  0
   -2.9325    4.6788   -1.8853 C   0  0  0  0  0  0  0  0  0  0  0  0
   -3.5231    6.4707   -2.0013 Br  0  0  0  0  0  0  0  0  0  0  0  0
   -1.7295    4.3878   -1.2461 C   0  0  0  0  0  0  0  0  0  0  0  0
   -1.2923    3.0640   -1.1600 C   0  0  0  0  0  0  0  0  0  0  0  0
   -3.4123   -0.7021   -0.5997 C   0  0  0  0  0  0  0  0  0  0  0  0
   -3.9451   -0.8713   -1.7017 O   0  0  0  0  0  0  0  0  0  0  0  0
   -3.6977   -3.5304   -0.9252 H   0  0  0  0  0  0  0  0  0  0  0  0
   -5.1836   -3.7157    0.0269 H   0  0  0  0  0  0  0  0  0  0  0  0
   -3.7565   -4.6914    0.4056 H   0  0  0  0  0  0  0  0  0  0  0  0
   -2.5069   -2.6810    1.0955 H   0  0  0  0  0  0  0  0  0  0  0  0
   -3.9629   -2.8969    2.0599 H   0  0  0  0  0  0  0  0  0  0  0  0
   -5.1686   -1.2463    0.4956 H   0  0  0  0  0  0  0  0  0  0  0  0
   -4.2975   -0.5055    2.6840 H   0  0  0  0  0  0  0  0  0  0  0  0
   -0.6555    1.0389    4.4328 H   0  0  0  0  0  0  0  0  0  0  0  0
    2.3078    0.8714    1.6522 H   0  0  0  0  0  0  0  0  0  0  0  0
    1.7255    2.1498    0.5685 H   0  0  0  0  0  0  0  0  0  0  0  0
    2.7859    1.0467   -1.3710 H   0  0  0  0  0  0  0  0  0  0  0  0
    3.9597    1.3614   -0.0882 H   0  0  0  0  0  0  0  0  0  0  0  0
    5.4536    0.1912   -1.8188 H   0  0  0  0  0  0  0  0  0  0  0  0
    7.8380   -0.3794   -1.4565 H   0  0  0  0  0  0  0  0  0  0  0  0
    8.4422   -1.9481    0.3941 H   0  0  0  0  0  0  0  0  0  0  0  0
    6.5967   -2.8776    1.7907 H   0  0  0  0  0  0  0  0  0  0  0  0
    2.6264   -1.4888    1.4329 H   0  0  0  0  0  0  0  0  0  0  0  0
    2.5885   -2.6027    0.0490 H   0  0  0  0  0  0  0  0  0  0  0  0
    0.7981   -1.3287   -1.0186 H   0  0  0  0  0  0  0  0  0  0  0  0
    0.3275   -1.8062    0.6121 H   0  0  0  0  0  0  0  0  0  0  0  0
   -0.4999    0.5373   -1.6269 H   0  0  0  0  0  0  0  0  0  0  0  0
   -1.8925    0.0505   -2.5121 H   0  0  0  0  0  0  0  0  0  0  0  0
   -3.8762    1.5448   -2.7800 H   0  0  0  0  0  0  0  0  0  0  0  0
   -4.6434    3.8771   -2.9347 H   0  0  0  0  0  0  0  0  0  0  0  0
   -1.1280    5.1806   -0.8099 H   0  0  0  0  0  0  0  0  0  0  0  0
   -0.3542    2.8500   -0.6549 H   0  0  0  0  0  0  0  0  0  0  0  0
  1  2  1  0
  2  3  1  0
  3  4  1  0
  4  5  1  0
  5  6  2  0
  6  7  1  0
  7  8  2  0
  8  9  1  0
  9 10  1  0
 10 11  1  0
 11 12  1  0
 12 13  1  0
 13 14  1  0
 14 15  2  0
 15 16  1  0
 16 17  2  0
 17 18  1  0
 18 19  2  0
 13 20  1  0
 20 21  1  0
  9 22  2  0
 22 23  1  0
 23 24  1  0
 24 25  1  0
 25 26  2  0
 26 27  1  0
 27 28  2  0
 28 29  1  0
 28 30  1  0
 30 31  2  0
 23 32  1  0
 32 33  2  0
 32  3  1  0
 22  5  1  0
 31 25  1  0
 21 10  1  0
 19 14  1  0
  1 34  1  0
  1 35  1  0
  1 36  1  0
  2 37  1  0
  2 38  1  0
  3 39  1  0
  4 40  1  0
  7 41  1  0
 11 42  1  0
 11 43  1  0
 12 44  1  0
 12 45  1  0
 15 46  1  0
 16 47  1  0
 17 48  1  0
 18 49  1  0
 20 50  1  0
 20 51  1  0
 21 52  1  0
 21 53  1  0
 24 54  1  0
 24 55  1  0
 26 56  1  0
 27 57  1  0
 30 58  1  0
 31 59  1  0
M  END
$$$$
