
     RDKit          3D

 61 65  0  0  0  0  0  0  0  0999 V2000
   -8.9957    2.2980    0.2146 C   0  0  0  0  0  0  0  0  0  0  0  0
   -8.2794    1.2499    0.8515 O   0  0  0  0  0  0  0  0  0  0  0  0
   -6.9095    1.2754    0.7620 C   0  0  0  0  0  0  0  0  0  0  0  0
   -6.1813    2.2565    0.0814 C   0  0  0  0  0  0  0  0  0  0  0  0
   -4.7842    2.2149    0.0646 C   0  0  0  0  0  0  0  0  0  0  0  0
   -4.0867    1.1887    0.7159 C   0  0  0  0  0  0  0  0  0  0  0  0
   -2.6262    1.1993    0.7065 C   0  0  0  0  0  0  0  0  0  0  0  0
   -1.8068    2.1452    0.2906 N   0  0  0  0  0  0  0  0  0  0  0  0
   -0.5454    1.6569    0.5656 C   0  0  0  0  0  0  0  0  0  0  0  0
    0.6564    2.4866    0.2904 C   0  0  0  0  0  0  0  0  0  0  0  0
    1.4765    1.9209   -0.7721 N   0  0  0  0  0  0  0  0  0  0  0  0
    2.7427    1.4027   -0.6698 C   0  0  0  0  0  0  0  0  0  0  0  0
    3.5966    1.2722    0.8329 S   0  0  0  0  0  0  0  0  0  0  0  0
    5.3133    1.0813    0.2745 C   0  0  0  0  0  0  0  0  0  0  0  0
    5.7689   -0.3553    0.2613 C   0  0  0  0  0  0  0  0  0  0  0  0
    5.7193   -1.1073   -0.9198 C   0  0  0  0  0  0  0  0  0  0  0  0
    6.1634   -2.4304   -0.9388 C   0  0  0  0  0  0  0  0  0  0  0  0
    6.6448   -3.0361    0.2275 C   0  0  0  0  0  0  0  0  0  0  0  0
    7.1613   -4.4468    0.1999 C   0  0  0  0  0  0  0  0  0  0  0  0
    6.6900   -2.2923    1.4093 C   0  0  0  0  0  0  0  0  0  0  0  0
    6.2504   -0.9640    1.4294 C   0  0  0  0  0  0  0  0  0  0  0  0
    3.2182    1.0411   -1.8389 N   0  0  0  0  0  0  0  0  0  0  0  0
    2.2289    1.3282   -2.7429 C   0  0  0  0  0  0  0  0  0  0  0  0
    2.2092    1.1410   -4.1248 C   0  0  0  0  0  0  0  0  0  0  0  0
    1.0498    1.5476   -4.7675 C   0  0  0  0  0  0  0  0  0  0  0  0
   -0.0242    2.0996   -4.1545 N   0  0  0  0  0  0  0  0  0  0  0  0
   -0.0043    2.2758   -2.8124 C   0  0  0  0  0  0  0  0  0  0  0  0
    1.1275    1.8884   -2.1076 C   0  0  0  0  0  0  0  0  0  0  0  0
   -0.6576    0.4006    1.1256 C   0  0  0  0  0  0  0  0  0  0  0  0
    0.2902   -0.6086    1.6270 C   0  0  0  0  0  0  0  0  0  0  0  0
   -1.9881    0.1008    1.2203 O   0  0  0  0  0  0  0  0  0  0  0  0
   -4.8212    0.1946    1.3848 C   0  0  0  0  0  0  0  0  0  0  0  0
   -6.2232    0.2321    1.4162 C   0  0  0  0  0  0  0  0  0  0  0  0
   -7.0095   -0.6921    2.0657 O   0  0  0  0  0  0  0  0  0  0  0  0
   -6.3623   -1.7931    2.6865 C   0  0  0  0  0  0  0  0  0  0  0  0
  -10.0596    2.1459    0.4113 H   0  0  0  0  0  0  0  0  0  0  0  0
   -8.8525    2.2644   -0.8698 H   0  0  0  0  0  0  0  0  0  0  0  0
   -8.7189    3.2784    0.6243 H   0  0  0  0  0  0  0  0  0  0  0  0
   -6.6649    3.0698   -0.4432 H   0  0  0  0  0  0  0  0  0  0  0  0
   -4.2374    2.9997   -0.4618 H   0  0  0  0  0  0  0  0  0  0  0  0
    1.2445    2.6121    1.2031 H   0  0  0  0  0  0  0  0  0  0  0  0
    0.3688    3.4937   -0.0361 H   0  0  0  0  0  0  0  0  0  0  0  0
    5.9468    1.6444    0.9703 H   0  0  0  0  0  0  0  0  0  0  0  0
    5.4769    1.5503   -0.7053 H   0  0  0  0  0  0  0  0  0  0  0  0
    5.3365   -0.6616   -1.8353 H   0  0  0  0  0  0  0  0  0  0  0  0
    6.1279   -2.9891   -1.8745 H   0  0  0  0  0  0  0  0  0  0  0  0
    6.7240   -5.0106   -0.6290 H   0  0  0  0  0  0  0  0  0  0  0  0
    8.2536   -4.4467    0.0855 H   0  0  0  0  0  0  0  0  0  0  0  0
    6.8992   -4.9750    1.1261 H   0  0  0  0  0  0  0  0  0  0  0  0
    7.0710   -2.7404    2.3249 H   0  0  0  0  0  0  0  0  0  0  0  0
    6.2912   -0.4077    2.3628 H   0  0  0  0  0  0  0  0  0  0  0  0
    3.0450    0.7078   -4.6574 H   0  0  0  0  0  0  0  0  0  0  0  0
    0.9495    1.4361   -5.8438 H   0  0  0  0  0  0  0  0  0  0  0  0
   -0.8876    2.7140   -2.3586 H   0  0  0  0  0  0  0  0  0  0  0  0
   -0.2326   -1.4315    2.1255 H   0  0  0  0  0  0  0  0  0  0  0  0
    0.9780   -0.1615    2.3517 H   0  0  0  0  0  0  0  0  0  0  0  0
    0.8731   -1.0309    0.8037 H   0  0  0  0  0  0  0  0  0  0  0  0
   -4.2774   -0.5978    1.8914 H   0  0  0  0  0  0  0  0  0  0  0  0
   -7.1363   -2.4282    3.1296 H   0  0  0  0  0  0  0  0  0  0  0  0
   -5.8140   -2.3948    1.9535 H   0  0  0  0  0  0  0  0  0  0  0  0
   -5.7069   -1.4587    3.4962 H   0  0  0  0  0  0  0  0  0  0  0  0
  1  2  1  0
  2  3  1  0
  3  4  2  0
  4  5  1  0
  5  6  2  0
  6  7  1  0
  7  8  2  0
  8  9  1  0
  9 10  1  0
 10 11  1  0
 11 12  1  0
 12 13  1  0
 13 14  1  0
 14 15  1  0
 15 16  2  0
 16 17  1  0
 17 18  2  0
 18 19  1  0
 18 20  1  0
 20 21  2  0
 12 22  2  0
 22 23  1  0
 23 24  2  0
 24 25  1  0
 25 26  2  0
 26 27  1  0
 27 28  2  0
  9 29  2  0
 29 30  1  0
 29 31  1  0
  6 32  1  0
 32 33  2  0
 33 34  1  0
 34 35  1  0
 33  3  1  0
 31  7  1  0
 28 11  1  0
 21 15  1  0
 28 23  1  0
  1 36  1  0
  1 37  1  0
  1 38  1  0
  4 39  1  0
  5 40  1  0
 10 41  1  0
 10 42  1  0
 14 43  1  0
 14 44  1  0
 16 45  1  0
 17 46  1  0
 19 47  1  0
 19 48  1  0
 19 49  1  0
 20 50  1  0
 21 51  1  0
 24 52  1  0
 25 53  1  0
 27 54  1  0
 30 55  1  0
 30 56  1  0
 30 57  1  0
 32 58  1  0
 35 59  1  0
 35 60  1  0
 35 61  1  0
M  END
$$$$
