
     RDKit          3D

 46 49  0  0  0  0  0  0  0  0999 V2000
   -2.7876   -3.5140    1.5891 C   0  0  0  0  0  0  0  0  0  0  0  0
   -3.3406   -3.2812    0.3012 O   0  0  0  0  0  0  0  0  0  0  0  0
   -3.0270   -2.0928   -0.3033 C   0  0  0  0  0  0  0  0  0  0  0  0
   -3.4811   -1.9721   -1.6199 C   0  0  0  0  0  0  0  0  0  0  0  0
   -3.2285   -0.8155   -2.3573 C   0  0  0  0  0  0  0  0  0  0  0  0
   -2.5230    0.2361   -1.7768 C   0  0  0  0  0  0  0  0  0  0  0  0
   -2.0793    0.1387   -0.4522 C   0  0  0  0  0  0  0  0  0  0  0  0
   -1.3460    1.2445    0.1554 C   0  0  0  0  0  0  0  0  0  0  0  0
    0.0217    1.4382    0.2919 C   0  0  0  0  0  0  0  0  0  0  0  0
    1.1135    0.5670   -0.1311 C   0  0  0  0  0  0  0  0  0  0  0  0
    0.9358   -0.4837   -0.7423 O   0  0  0  0  0  0  0  0  0  0  0  0
    2.3691    1.0625    0.2335 N   0  0  0  0  0  0  0  0  0  0  0  0
    3.5029    0.6236   -0.4023 N   0  0  0  0  0  0  0  0  0  0  0  0
    3.8901   -0.6141   -0.2505 C   0  0  0  0  0  0  0  0  0  0  0  0
    3.3012   -1.5853    0.7598 C   0  0  0  0  0  0  0  0  0  0  0  0
    5.0038   -1.0527   -1.0907 C   0  0  0  0  0  0  0  0  0  0  0  0
    5.6709   -0.3137   -2.0610 C   0  0  0  0  0  0  0  0  0  0  0  0
    6.6935   -1.0589   -2.7175 C   0  0  0  0  0  0  0  0  0  0  0  0
    6.7816   -2.3267   -2.2060 C   0  0  0  0  0  0  0  0  0  0  0  0
    7.8756   -3.5601   -2.6910 Cl  0  0  0  0  0  0  0  0  0  0  0  0
    5.6555   -2.6401   -0.9878 S   0  0  0  0  0  0  0  0  0  0  0  0
    0.2522    2.6436    0.9016 N   0  0  0  0  0  0  0  0  0  0  0  0
   -0.9128    3.2104    1.1532 N   0  0  0  0  0  0  0  0  0  0  0  0
   -1.9167    2.3782    0.7425 N   0  0  0  0  0  0  0  0  0  0  0  0
   -3.2809    2.7133    0.9368 C   0  0  0  0  0  0  0  0  0  0  0  0
   -4.2577    1.8885    0.5623 N   0  0  0  0  0  0  0  0  0  0  0  0
   -5.4264    2.5541    0.9234 O   0  0  0  0  0  0  0  0  0  0  0  0
   -5.1465    3.7818    1.5109 N   0  0  0  0  0  0  0  0  0  0  0  0
   -3.8169    3.8739    1.5269 C   0  0  0  0  0  0  0  0  0  0  0  0
   -3.1381    4.9179    2.0348 N   0  0  0  0  0  0  0  0  0  0  0  0
   -2.3270   -1.0334    0.2802 C   0  0  0  0  0  0  0  0  0  0  0  0
   -3.1852   -2.8011    2.3209 H   0  0  0  0  0  0  0  0  0  0  0  0
   -3.0900   -4.5202    1.9081 H   0  0  0  0  0  0  0  0  0  0  0  0
   -1.6927   -3.4889    1.5632 H   0  0  0  0  0  0  0  0  0  0  0  0
   -4.0318   -2.7912   -2.0751 H   0  0  0  0  0  0  0  0  0  0  0  0
   -3.5786   -0.7393   -3.3840 H   0  0  0  0  0  0  0  0  0  0  0  0
   -2.3252    1.1278   -2.3660 H   0  0  0  0  0  0  0  0  0  0  0  0
    2.3767    2.0609    0.4429 H   0  0  0  0  0  0  0  0  0  0  0  0
    2.9012   -2.4655    0.2442 H   0  0  0  0  0  0  0  0  0  0  0  0
    2.5021   -1.1451    1.3622 H   0  0  0  0  0  0  0  0  0  0  0  0
    4.0878   -1.8961    1.4610 H   0  0  0  0  0  0  0  0  0  0  0  0
    5.4235    0.7160   -2.2908 H   0  0  0  0  0  0  0  0  0  0  0  0
    7.3266   -0.6791   -3.5133 H   0  0  0  0  0  0  0  0  0  0  0  0
   -2.1366    5.0384    1.8938 H   0  0  0  0  0  0  0  0  0  0  0  0
   -3.6386    5.7530    2.3207 H   0  0  0  0  0  0  0  0  0  0  0  0
   -1.9704   -1.0975    1.3032 H   0  0  0  0  0  0  0  0  0  0  0  0
  1  2  1  0
  2  3  1  0
  3  4  2  0
  4  5  1  0
  5  6  2  0
  6  7  1  0
  7  8  1  0
  8  9  2  0
  9 10  1  0
 10 11  2  0
 10 12  1  0
 12 13  1  0
 13 14  2  3
 14 15  1  0
 14 16  1  0
 16 17  2  0
 17 18  1  0
 18 19  2  0
 19 20  1  0
 19 21  1  0
  9 22  1  0
 22 23  2  0
 23 24  1  0
 24 25  1  0
 25 26  2  0
 26 27  1  0
 27 28  1  0
 28 29  2  0
 29 30  1  0
  7 31  2  0
 31  3  1  0
 24  8  1  0
 29 25  1  0
 21 16  1  0
  1 32  1  0
  1 33  1  0
  1 34  1  0
  4 35  1  0
  5 36  1  0
  6 37  1  0
 12 38  1  0
 15 39  1  0
 15 40  1  0
 15 41  1  0
 17 42  1  0
 18 43  1  0
 30 44  1  0
 30 45  1  0
 31 46  1  0
M  END
$$$$
