
     RDKit          3D

 32 32  0  0  0  0  0  0  0  0999 V2000
   -2.6389   -2.4361    1.7947 C   0  0  0  0  0  0  0  0  0  0  0  0
   -2.3849   -1.9707    0.7166 C   0  0  0  0  0  0  0  0  0  0  0  0
   -2.0694   -1.4035   -0.6054 C   0  0  0  0  0  0  0  0  0  0  0  0
   -2.2916    0.0536   -0.6293 N   0  0  0  0  0  0  0  0  0  0  0  0
   -3.7303    0.3485   -0.6619 C   0  0  0  0  0  0  0  0  0  0  0  0
   -1.6285    0.6815   -1.7853 C   0  0  0  0  0  0  0  0  0  0  0  0
   -0.1185    0.8449   -1.5861 C   0  0  0  0  0  0  0  0  0  0  0  0
    0.2224    1.7445   -0.3979 C   0  0  0  0  0  0  0  0  0  0  0  0
    1.6392    1.8308   -0.2307 O   0  0  0  0  0  0  0  0  0  0  0  0
    2.2833    0.8943    0.5342 C   0  0  0  0  0  0  0  0  0  0  0  0
    1.6646   -0.1988    1.1511 C   0  0  0  0  0  0  0  0  0  0  0  0
    2.4149   -1.1043    1.9094 C   0  0  0  0  0  0  0  0  0  0  0  0
    3.7876   -0.9225    2.0553 C   0  0  0  0  0  0  0  0  0  0  0  0
    4.7022   -2.0415    2.9877 Cl  0  0  0  0  0  0  0  0  0  0  0  0
    4.4226    0.1558    1.4499 C   0  0  0  0  0  0  0  0  0  0  0  0
    3.6717    1.0583    0.6920 C   0  0  0  0  0  0  0  0  0  0  0  0
    4.5105    2.3804   -0.0460 Cl  0  0  0  0  0  0  0  0  0  0  0  0
   -2.8687   -2.8434    2.7524 H   0  0  0  0  0  0  0  0  0  0  0  0
   -1.0175   -1.6371   -0.8026 H   0  0  0  0  0  0  0  0  0  0  0  0
   -2.6504   -1.9062   -1.3888 H   0  0  0  0  0  0  0  0  0  0  0  0
   -4.2112   -0.0441   -1.5654 H   0  0  0  0  0  0  0  0  0  0  0  0
   -3.8979    1.4311   -0.6263 H   0  0  0  0  0  0  0  0  0  0  0  0
   -4.2440   -0.0651    0.2122 H   0  0  0  0  0  0  0  0  0  0  0  0
   -2.0389    1.6871   -1.9498 H   0  0  0  0  0  0  0  0  0  0  0  0
   -1.8248    0.1136   -2.7039 H   0  0  0  0  0  0  0  0  0  0  0  0
    0.3146    1.2871   -2.4931 H   0  0  0  0  0  0  0  0  0  0  0  0
    0.3755   -0.1274   -1.4884 H   0  0  0  0  0  0  0  0  0  0  0  0
   -0.1219    2.7616   -0.6209 H   0  0  0  0  0  0  0  0  0  0  0  0
   -0.2817    1.4641    0.5328 H   0  0  0  0  0  0  0  0  0  0  0  0
    0.5983   -0.3834    1.0630 H   0  0  0  0  0  0  0  0  0  0  0  0
    1.9177   -1.9483    2.3820 H   0  0  0  0  0  0  0  0  0  0  0  0
    5.4940    0.2950    1.5640 H   0  0  0  0  0  0  0  0  0  0  0  0
  1  2  3  0
  2  3  1  0
  3  4  1  0
  4  5  1  0
  4  6  1  0
  6  7  1  0
  7  8  1  0
  8  9  1  0
  9 10  1  0
 10 11  2  0
 11 12  1  0
 12 13  2  0
 13 14  1  0
 13 15  1  0
 15 16  2  0
 16 17  1  0
 16 10  1  0
  1 18  1  0
  3 19  1  0
  3 20  1  0
  5 21  1  0
  5 22  1  0
  5 23  1  0
  6 24  1  0
  6 25  1  0
  7 26  1  0
  7 27  1  0
  8 28  1  0
  8 29  1  0
 11 30  1  0
 12 31  1  0
 15 32  1  0
M  END
$$$$
