
     RDKit          3D

 39 41  0  0  0  0  0  0  0  0999 V2000
   -5.4562   -0.8089   -0.3461 C   0  0  0  0  0  0  0  0  0  0  0  0
   -4.6771    0.3754   -0.4580 O   0  0  0  0  0  0  0  0  0  0  0  0
   -3.6470    0.5265    0.4285 C   0  0  0  0  0  0  0  0  0  0  0  0
   -2.8871    1.6867    0.2442 C   0  0  0  0  0  0  0  0  0  0  0  0
   -1.8033    1.9702    1.0767 C   0  0  0  0  0  0  0  0  0  0  0  0
   -1.4720    1.0746    2.0944 C   0  0  0  0  0  0  0  0  0  0  0  0
   -0.0941    1.4188    3.1654 S   0  0  0  0  0  6  0  0  0  0  0  0
   -0.3753    0.8030    4.4456 O   0  0  0  0  0  0  0  0  0  0  0  0
    0.2172    2.8285    3.0642 O   0  0  0  0  0  0  0  0  0  0  0  0
    1.1574    0.5159    2.4759 N   0  0  0  0  0  0  0  0  0  0  0  0
    1.4736    0.7044    1.1015 C   0  0  0  0  0  0  0  0  0  0  0  0
    1.9962    1.9161    0.6519 C   0  0  0  0  0  0  0  0  0  0  0  0
    2.2682    2.0997   -0.7044 C   0  0  0  0  0  0  0  0  0  0  0  0
    2.0139    1.0660   -1.6066 C   0  0  0  0  0  0  0  0  0  0  0  0
    2.2750    1.2542   -2.9366 O   0  0  0  0  0  0  0  0  0  0  0  0
    1.4917   -0.1581   -1.1646 C   0  0  0  0  0  0  0  0  0  0  0  0
    1.1311   -1.5004   -2.2867 S   0  0  0  0  0  0  0  0  0  0  0  0
    2.6898   -2.2721   -2.4436 C   0  0  0  0  0  0  0  0  0  0  0  0
    3.0361   -2.9942   -3.5575 N   0  0  0  0  0  0  0  0  0  0  0  0
    4.2431   -3.4215   -3.2751 C   0  0  0  0  0  0  0  0  0  0  0  0
    4.5958   -2.9912   -2.0373 N   0  0  0  0  0  0  0  0  0  0  0  0
    3.6130   -2.2748   -1.4719 N   0  0  0  0  0  0  0  0  0  0  0  0
    1.2184   -0.3288    0.1990 C   0  0  0  0  0  0  0  0  0  0  0  0
   -2.2342   -0.0784    2.3027 C   0  0  0  0  0  0  0  0  0  0  0  0
   -3.3196   -0.3525    1.4639 C   0  0  0  0  0  0  0  0  0  0  0  0
   -4.8419   -1.7024   -0.4990 H   0  0  0  0  0  0  0  0  0  0  0  0
   -6.2137   -0.7867   -1.1355 H   0  0  0  0  0  0  0  0  0  0  0  0
   -5.9785   -0.8472    0.6155 H   0  0  0  0  0  0  0  0  0  0  0  0
   -3.1451    2.3757   -0.5572 H   0  0  0  0  0  0  0  0  0  0  0  0
   -1.2269    2.8788    0.9195 H   0  0  0  0  0  0  0  0  0  0  0  0
    1.1863   -0.4343    2.8424 H   0  0  0  0  0  0  0  0  0  0  0  0
    2.2020    2.7222    1.3527 H   0  0  0  0  0  0  0  0  0  0  0  0
    2.6752    3.0503   -1.0355 H   0  0  0  0  0  0  0  0  0  0  0  0
    2.6315    2.1463   -3.0728 H   0  0  0  0  0  0  0  0  0  0  0  0
    4.8823   -4.0242   -3.9041 H   0  0  0  0  0  0  0  0  0  0  0  0
    5.4569   -3.1468   -1.5255 H   0  0  0  0  0  0  0  0  0  0  0  0
    0.8058   -1.2711    0.5485 H   0  0  0  0  0  0  0  0  0  0  0  0
   -1.9958   -0.7641    3.1127 H   0  0  0  0  0  0  0  0  0  0  0  0
   -3.8924   -1.2557    1.6483 H   0  0  0  0  0  0  0  0  0  0  0  0
  1  2  1  0
  2  3  1  0
  3  4  2  0
  4  5  1  0
  5  6  2  0
  6  7  1  0
  7  8  2  0
  7  9  2  0
  7 10  1  0
 10 11  1  0
 11 12  2  0
 12 13  1  0
 13 14  2  0
 14 15  1  0
 14 16  1  0
 16 17  1  0
 17 18  1  0
 18 19  1  0
 19 20  2  0
 20 21  1  0
 21 22  1  0
 16 23  2  0
  6 24  1  0
 24 25  2  0
 25  3  1  0
 23 11  1  0
 22 18  2  0
  1 26  1  0
  1 27  1  0
  1 28  1  0
  4 29  1  0
  5 30  1  0
 10 31  1  0
 12 32  1  0
 13 33  1  0
 15 34  1  0
 20 35  1  0
 21 36  1  0
 23 37  1  0
 24 38  1  0
 25 39  1  0
M  END
$$$$
