
     RDKit          3D

 48 52  0  0  0  0  0  0  0  0999 V2000
   -2.7017    0.5353    3.3697 C   0  0  0  0  0  0  0  0  0  0  0  0
   -2.3964    0.2098    1.9947 N   0  0  0  0  0  0  0  0  0  0  0  0
   -1.1832   -0.2403    1.5544 C   0  0  0  0  0  0  0  0  0  0  0  0
   -1.2351   -0.4178    0.1801 C   0  0  0  0  0  0  0  0  0  0  0  0
   -0.1375   -0.9270   -0.7282 C   0  0  0  0  0  0  0  0  0  0  0  0
   -0.0123   -0.0528   -1.9733 C   0  0  0  0  0  0  0  0  0  0  0  0
   -0.0343    1.3444   -1.9376 C   0  0  0  0  0  0  0  0  0  0  0  0
    0.0975    2.0680   -3.1214 C   0  0  0  0  0  0  0  0  0  0  0  0
    0.2501    1.3896   -4.3214 C   0  0  0  0  0  0  0  0  0  0  0  0
    0.2581    0.0082   -4.2886 C   0  0  0  0  0  0  0  0  0  0  0  0
    0.1244   -0.7194   -3.1584 N   0  0  0  0  0  0  0  0  0  0  0  0
    1.2613   -1.0580   -0.1585 C   0  0  0  0  0  0  0  0  0  0  0  0
    2.0385   -2.1998   -0.3004 C   0  0  0  0  0  0  0  0  0  0  0  0
    3.2492   -1.9939    0.2936 N   0  0  0  0  0  0  0  0  0  0  0  0
    4.3237   -2.9605    0.3230 C   0  0  0  0  0  0  0  0  0  0  0  0
    3.2993   -0.7380    0.8529 C   0  0  0  0  0  0  0  0  0  0  0  0
    4.3267   -0.0962    1.5659 C   0  0  0  0  0  0  0  0  0  0  0  0
    4.1028    1.2023    2.0259 C   0  0  0  0  0  0  0  0  0  0  0  0
    2.8925    1.8395    1.7873 C   0  0  0  0  0  0  0  0  0  0  0  0
    1.8765    1.1903    1.0768 C   0  0  0  0  0  0  0  0  0  0  0  0
    2.0687   -0.1229    0.5888 C   0  0  0  0  0  0  0  0  0  0  0  0
   -2.5991   -0.1300   -0.1968 C   0  0  0  0  0  0  0  0  0  0  0  0
   -3.3093   -0.1835   -1.4175 C   0  0  0  0  0  0  0  0  0  0  0  0
   -4.6582    0.1848   -1.4591 C   0  0  0  0  0  0  0  0  0  0  0  0
   -5.3128    0.5990   -0.3048 C   0  0  0  0  0  0  0  0  0  0  0  0
   -4.6423    0.6490    0.9198 C   0  0  0  0  0  0  0  0  0  0  0  0
   -3.2884    0.2771    0.9496 C   0  0  0  0  0  0  0  0  0  0  0  0
   -1.7987    0.4415    3.9786 H   0  0  0  0  0  0  0  0  0  0  0  0
   -3.4654   -0.1604    3.7274 H   0  0  0  0  0  0  0  0  0  0  0  0
   -3.0664    1.5651    3.4091 H   0  0  0  0  0  0  0  0  0  0  0  0
   -0.3697   -0.4026    2.2508 H   0  0  0  0  0  0  0  0  0  0  0  0
   -0.4627   -1.9260   -1.0565 H   0  0  0  0  0  0  0  0  0  0  0  0
   -0.1710    1.8774   -1.0045 H   0  0  0  0  0  0  0  0  0  0  0  0
    0.0799    3.1535   -3.1012 H   0  0  0  0  0  0  0  0  0  0  0  0
    0.3601    1.9237   -5.2576 H   0  0  0  0  0  0  0  0  0  0  0  0
    0.3783   -0.5711   -5.1988 H   0  0  0  0  0  0  0  0  0  0  0  0
    1.8123   -3.1321   -0.8025 H   0  0  0  0  0  0  0  0  0  0  0  0
    5.2260   -2.4933   -0.0798 H   0  0  0  0  0  0  0  0  0  0  0  0
    4.4772   -3.2721    1.3593 H   0  0  0  0  0  0  0  0  0  0  0  0
    4.0558   -3.8254   -0.2889 H   0  0  0  0  0  0  0  0  0  0  0  0
    5.2737   -0.5899    1.7581 H   0  0  0  0  0  0  0  0  0  0  0  0
    4.8843    1.7184    2.5781 H   0  0  0  0  0  0  0  0  0  0  0  0
    2.7284    2.8489    2.1554 H   0  0  0  0  0  0  0  0  0  0  0  0
    0.9352    1.7055    0.9213 H   0  0  0  0  0  0  0  0  0  0  0  0
   -2.8160   -0.5080   -2.3304 H   0  0  0  0  0  0  0  0  0  0  0  0
   -5.1946    0.1453   -2.4036 H   0  0  0  0  0  0  0  0  0  0  0  0
   -6.3618    0.8812   -0.3536 H   0  0  0  0  0  0  0  0  0  0  0  0
   -5.1634    0.9634    1.8182 H   0  0  0  0  0  0  0  0  0  0  0  0
  1  2  1  0
  2  3  1  0
  3  4  2  0
  4  5  1  0
  5  6  1  0
  6  7  2  0
  7  8  1  0
  8  9  2  0
  9 10  1  0
 10 11  2  0
  5 12  1  0
 12 13  2  0
 13 14  1  0
 14 15  1  0
 14 16  1  0
 16 17  2  0
 17 18  1  0
 18 19  2  0
 19 20  1  0
 20 21  2  0
  4 22  1  0
 22 23  2  0
 23 24  1  0
 24 25  2  0
 25 26  1  0
 26 27  2  0
 27  2  1  0
 11  6  1  0
 21 12  1  0
 27 22  1  0
 21 16  1  0
  1 28  1  0
  1 29  1  0
  1 30  1  0
  3 31  1  0
  5 32  1  0
  7 33  1  0
  8 34  1  0
  9 35  1  0
 10 36  1  0
 13 37  1  0
 15 38  1  0
 15 39  1  0
 15 40  1  0
 17 41  1  0
 18 42  1  0
 19 43  1  0
 20 44  1  0
 23 45  1  0
 24 46  1  0
 25 47  1  0
 26 48  1  0
M  END
$$$$
