
     RDKit          3D

 49 52  0  0  0  0  0  0  0  0999 V2000
   -3.2884   -0.2686    2.2804 C   0  0  0  0  0  0  0  0  0  0  0  0
   -3.8130   -0.0371    0.8757 C   0  0  0  0  0  0  0  0  0  0  0  0
   -3.3528   -0.6283   -0.1923 N   0  0  0  0  0  0  0  0  0  0  0  0
   -2.2320   -1.4101   -0.0871 N   0  0  0  0  0  0  0  0  0  0  0  0
   -0.9806   -0.8479    0.1749 C   0  0  0  0  0  0  0  0  0  0  0  0
   -0.7946    0.2688    0.6496 O   0  0  0  0  0  0  0  0  0  0  0  0
    0.1198   -1.7436   -0.1752 C   0  0  0  0  0  0  0  0  0  0  0  0
   -0.0978   -3.0021   -0.6678 N   0  0  0  0  0  0  0  0  0  0  0  0
    1.0735   -3.5645   -0.9015 N   0  0  0  0  0  0  0  0  0  0  0  0
    2.0696   -2.6931   -0.5599 N   0  0  0  0  0  0  0  0  0  0  0  0
    3.4360   -3.0505   -0.6959 C   0  0  0  0  0  0  0  0  0  0  0  0
    4.4114   -2.2120   -0.3455 N   0  0  0  0  0  0  0  0  0  0  0  0
    5.5823   -2.9089   -0.6372 O   0  0  0  0  0  0  0  0  0  0  0  0
    5.3038   -4.1718   -1.1478 N   0  0  0  0  0  0  0  0  0  0  0  0
    3.9747   -4.2602   -1.1759 C   0  0  0  0  0  0  0  0  0  0  0  0
    3.2964   -5.3442   -1.5973 N   0  0  0  0  0  0  0  0  0  0  0  0
    1.4854   -1.5143   -0.1022 C   0  0  0  0  0  0  0  0  0  0  0  0
    2.2390   -0.3046    0.3110 C   0  0  0  0  0  0  0  0  0  0  0  0
    2.6905    0.2936   -0.9000 O   0  0  0  0  0  0  0  0  0  0  0  0
    3.4696    1.4121   -0.7927 C   0  0  0  0  0  0  0  0  0  0  0  0
    3.9596    1.8967   -2.0112 C   0  0  0  0  0  0  0  0  0  0  0  0
    4.7684    3.0332   -2.0499 C   0  0  0  0  0  0  0  0  0  0  0  0
    5.0831    3.6842   -0.8650 C   0  0  0  0  0  0  0  0  0  0  0  0
    5.8586    4.7756   -0.8955 F   0  0  0  0  0  0  0  0  0  0  0  0
    4.6026    3.2189    0.3533 C   0  0  0  0  0  0  0  0  0  0  0  0
    3.7922    2.0799    0.3917 C   0  0  0  0  0  0  0  0  0  0  0  0
   -4.9637    0.9102    0.7172 C   0  0  0  0  0  0  0  0  0  0  0  0
   -5.7951    0.7972   -0.4067 C   0  0  0  0  0  0  0  0  0  0  0  0
   -6.8723    1.6709   -0.5804 C   0  0  0  0  0  0  0  0  0  0  0  0
   -7.1167    2.6636    0.3655 C   0  0  0  0  0  0  0  0  0  0  0  0
   -8.4416    3.7399    0.1536 Cl  0  0  0  0  0  0  0  0  0  0  0  0
   -6.2911    2.7929    1.4809 C   0  0  0  0  0  0  0  0  0  0  0  0
   -5.2127    1.9192    1.6567 C   0  0  0  0  0  0  0  0  0  0  0  0
   -2.8262   -1.2546    2.3738 H   0  0  0  0  0  0  0  0  0  0  0  0
   -2.5570    0.5024    2.5356 H   0  0  0  0  0  0  0  0  0  0  0  0
   -4.1075   -0.2362    3.0052 H   0  0  0  0  0  0  0  0  0  0  0  0
   -2.2057   -2.1782   -0.7560 H   0  0  0  0  0  0  0  0  0  0  0  0
    3.7913   -6.0695   -2.1058 H   0  0  0  0  0  0  0  0  0  0  0  0
    2.2950   -5.3053   -1.7793 H   0  0  0  0  0  0  0  0  0  0  0  0
    3.0715   -0.5661    0.9729 H   0  0  0  0  0  0  0  0  0  0  0  0
    1.5924    0.3932    0.8509 H   0  0  0  0  0  0  0  0  0  0  0  0
    3.7094    1.3827   -2.9362 H   0  0  0  0  0  0  0  0  0  0  0  0
    5.1509    3.4108   -2.9922 H   0  0  0  0  0  0  0  0  0  0  0  0
    4.8597    3.7466    1.2663 H   0  0  0  0  0  0  0  0  0  0  0  0
    3.4291    1.7479    1.3585 H   0  0  0  0  0  0  0  0  0  0  0  0
   -5.6111    0.0275   -1.1534 H   0  0  0  0  0  0  0  0  0  0  0  0
   -7.5101    1.5720   -1.4548 H   0  0  0  0  0  0  0  0  0  0  0  0
   -6.4758    3.5752    2.2130 H   0  0  0  0  0  0  0  0  0  0  0  0
   -4.5697    2.0566    2.5218 H   0  0  0  0  0  0  0  0  0  0  0  0
  1  2  1  0
  2  3  2  3
  3  4  1  0
  4  5  1  0
  5  6  2  0
  5  7  1  0
  7  8  1  0
  8  9  2  0
  9 10  1  0
 10 11  1  0
 11 12  2  0
 12 13  1  0
 13 14  1  0
 14 15  2  0
 15 16  1  0
 10 17  1  0
 17 18  1  0
 18 19  1  0
 19 20  1  0
 20 21  2  0
 21 22  1  0
 22 23  2  0
 23 24  1  0
 23 25  1  0
 25 26  2  0
  2 27  1  0
 27 28  2  0
 28 29  1  0
 29 30  2  0
 30 31  1  0
 30 32  1  0
 32 33  2  0
 17  7  2  0
 26 20  1  0
 33 27  1  0
 15 11  1  0
  1 34  1  0
  1 35  1  0
  1 36  1  0
  4 37  1  0
 16 38  1  0
 16 39  1  0
 18 40  1  0
 18 41  1  0
 21 42  1  0
 22 43  1  0
 25 44  1  0
 26 45  1  0
 28 46  1  0
 29 47  1  0
 32 48  1  0
 33 49  1  0
M  END
$$$$
