
     RDKit          3D

 62 67  0  0  0  0  0  0  0  0999 V2000
   -3.2250   -4.0539    1.2190 C   0  0  0  0  0  0  0  0  0  0  0  0
   -3.1427   -2.6405    1.3412 O   0  0  0  0  0  0  0  0  0  0  0  0
   -2.7481   -2.1328    2.5541 C   0  0  0  0  0  0  0  0  0  0  0  0
   -2.2342   -2.9057    3.6023 C   0  0  0  0  0  0  0  0  0  0  0  0
   -1.8330   -2.3031    4.7985 C   0  0  0  0  0  0  0  0  0  0  0  0
   -1.9363   -0.9247    4.9589 C   0  0  0  0  0  0  0  0  0  0  0  0
   -2.4432   -0.1437    3.9223 C   0  0  0  0  0  0  0  0  0  0  0  0
   -2.8550   -0.7360    2.7169 C   0  0  0  0  0  0  0  0  0  0  0  0
   -3.3696    0.1308    1.6477 C   0  0  0  0  0  0  0  0  0  0  0  0
   -5.0615    0.2728    1.4616 S   0  0  0  0  0  0  0  0  0  0  0  0
   -4.9157    1.3713    0.1462 C   0  0  0  0  0  0  0  0  0  0  0  0
   -5.9797    1.9558   -0.5760 C   0  0  0  0  0  0  0  0  0  0  0  0
   -5.6339    2.8131   -1.6000 C   0  0  0  0  0  0  0  0  0  0  0  0
   -4.3316    3.0920   -1.9113 C   0  0  0  0  0  0  0  0  0  0  0  0
   -3.2759    2.5327   -1.2184 C   0  0  0  0  0  0  0  0  0  0  0  0
   -3.5695    1.6412   -0.1489 C   0  0  0  0  0  0  0  0  0  0  0  0
   -2.6837    0.9160    0.7361 C   0  0  0  0  0  0  0  0  0  0  0  0
   -1.2262    0.9696    0.7203 C   0  0  0  0  0  0  0  0  0  0  0  0
   -0.5638    2.1269    1.1361 C   0  0  0  0  0  0  0  0  0  0  0  0
    0.8322    2.1742    1.1202 C   0  0  0  0  0  0  0  0  0  0  0  0
    1.5810    1.0738    0.6918 C   0  0  0  0  0  0  0  0  0  0  0  0
    2.9340    1.2644    0.7274 O   0  0  0  0  0  0  0  0  0  0  0  0
    3.7912    0.1605    0.4203 C   0  0  0  0  0  0  0  0  0  0  0  0
    4.0885    0.1087   -1.0886 C   0  0  0  0  0  0  0  0  0  0  0  0
    4.9102   -1.0464   -1.4861 N   0  0  0  0  0  0  0  0  0  0  0  0
    6.3268   -0.9286   -1.0745 C   0  0  0  0  0  0  0  0  0  0  0  0
    7.2724   -0.5213   -2.2168 C   0  0  0  0  0  0  0  0  0  0  0  0
    7.2525   -1.4367   -3.3195 O   0  0  0  0  0  0  0  0  0  0  0  0
    5.9895   -2.0974   -3.4787 C   0  0  0  0  0  0  0  0  0  0  0  0
    4.8140   -1.2647   -2.9481 C   0  0  0  0  0  0  0  0  0  0  0  0
    0.9172   -0.0773    0.2670 C   0  0  0  0  0  0  0  0  0  0  0  0
   -0.4813   -0.1291    0.2806 C   0  0  0  0  0  0  0  0  0  0  0  0
   -4.2182    3.9589   -2.9540 O   0  0  0  0  0  0  0  0  0  0  0  0
   -5.6070    4.1907   -3.2654 C   0  0  0  0  0  0  0  0  0  0  0  0
   -6.5131    3.4690   -2.4063 O   0  0  0  0  0  0  0  0  0  0  0  0
   -3.6517   -4.2802    0.2369 H   0  0  0  0  0  0  0  0  0  0  0  0
   -2.2298   -4.5084    1.2616 H   0  0  0  0  0  0  0  0  0  0  0  0
   -3.8900   -4.4812    1.9763 H   0  0  0  0  0  0  0  0  0  0  0  0
   -2.1227   -3.9812    3.5175 H   0  0  0  0  0  0  0  0  0  0  0  0
   -1.4333   -2.9134    5.6047 H   0  0  0  0  0  0  0  0  0  0  0  0
   -1.6188   -0.4568    5.8873 H   0  0  0  0  0  0  0  0  0  0  0  0
   -2.5156    0.9338    4.0532 H   0  0  0  0  0  0  0  0  0  0  0  0
   -7.0147    1.7399   -0.3389 H   0  0  0  0  0  0  0  0  0  0  0  0
   -2.2516    2.7667   -1.4898 H   0  0  0  0  0  0  0  0  0  0  0  0
   -1.1246    2.9926    1.4794 H   0  0  0  0  0  0  0  0  0  0  0  0
    1.3419    3.0765    1.4492 H   0  0  0  0  0  0  0  0  0  0  0  0
    3.4011   -0.7881    0.8079 H   0  0  0  0  0  0  0  0  0  0  0  0
    4.7186    0.3450    0.9729 H   0  0  0  0  0  0  0  0  0  0  0  0
    4.5496    1.0533   -1.4082 H   0  0  0  0  0  0  0  0  0  0  0  0
    3.1269    0.0632   -1.6158 H   0  0  0  0  0  0  0  0  0  0  0  0
    6.6326   -1.9195   -0.7155 H   0  0  0  0  0  0  0  0  0  0  0  0
    6.4591   -0.2431   -0.2314 H   0  0  0  0  0  0  0  0  0  0  0  0
    8.3031   -0.4742   -1.8507 H   0  0  0  0  0  0  0  0  0  0  0  0
    7.0169    0.4758   -2.5941 H   0  0  0  0  0  0  0  0  0  0  0  0
    5.8581   -2.2970   -4.5469 H   0  0  0  0  0  0  0  0  0  0  0  0
    6.0433   -3.0671   -2.9706 H   0  0  0  0  0  0  0  0  0  0  0  0
    3.8712   -1.7765   -3.1708 H   0  0  0  0  0  0  0  0  0  0  0  0
    4.8092   -0.3021   -3.4772 H   0  0  0  0  0  0  0  0  0  0  0  0
    1.4491   -0.9538   -0.0870 H   0  0  0  0  0  0  0  0  0  0  0  0
   -0.9856   -1.0344   -0.0518 H   0  0  0  0  0  0  0  0  0  0  0  0
   -5.8135    5.2630   -3.1717 H   0  0  0  0  0  0  0  0  0  0  0  0
   -5.7898    3.8865   -4.3025 H   0  0  0  0  0  0  0  0  0  0  0  0
  1  2  1  0
  2  3  1  0
  3  4  2  0
  4  5  1  0
  5  6  2  0
  6  7  1  0
  7  8  2  0
  8  9  1  0
  9 10  1  0
 10 11  1  0
 11 12  2  0
 12 13  1  0
 13 14  2  0
 14 15  1  0
 15 16  2  0
 16 17  1  0
 17 18  1  0
 18 19  2  0
 19 20  1  0
 20 21  2  0
 21 22  1  0
 22 23  1  0
 23 24  1  0
 24 25  1  0
 25 26  1  0
 26 27  1  0
 27 28  1  0
 28 29  1  0
 29 30  1  0
 21 31  1  0
 31 32  2  0
 14 33  1  0
 33 34  1  0
 34 35  1  0
  8  3  1  0
 17  9  2  0
 32 18  1  0
 16 11  1  0
 30 25  1  0
 35 13  1  0
  1 36  1  0
  1 37  1  0
  1 38  1  0
  4 39  1  0
  5 40  1  0
  6 41  1  0
  7 42  1  0
 12 43  1  0
 15 44  1  0
 19 45  1  0
 20 46  1  0
 23 47  1  0
 23 48  1  0
 24 49  1  0
 24 50  1  0
 26 51  1  0
 26 52  1  0
 27 53  1  0
 27 54  1  0
 29 55  1  0
 29 56  1  0
 30 57  1  0
 30 58  1  0
 31 59  1  0
 32 60  1  0
 34 61  1  0
 34 62  1  0
M  END
$$$$
