
     RDKit          3D

 58 60  0  0  0  0  0  0  0  0999 V2000
    7.6738    4.2412    1.8997 C   0  0  0  0  0  0  0  0  0  0  0  0
    6.6759    3.7825    0.9176 C   0  0  0  0  0  0  0  0  0  0  0  0
    5.6211    2.9054    0.9658 C   0  0  0  0  0  0  0  0  0  0  0  0
    5.0747    2.9350   -0.3358 C   0  0  0  0  0  0  0  0  0  0  0  0
    3.9994    2.2474   -0.8524 N   0  0  0  0  0  0  0  0  0  0  0  0
    3.2095    1.3641   -0.1524 C   0  0  0  0  0  0  0  0  0  0  0  0
    3.3447    1.0560    1.0276 O   0  0  0  0  0  0  0  0  0  0  0  0
    2.1085    0.7868   -1.0183 C   0  0  0  0  0  0  0  0  0  0  0  0
    1.2172   -0.1728   -0.2349 C   0  0  0  0  0  0  0  0  0  0  0  0
    0.0958   -0.7207   -1.0979 C   0  0  0  0  0  0  0  0  0  0  0  0
    0.0232   -0.4332   -2.2927 O   0  0  0  0  0  0  0  0  0  0  0  0
   -0.8423   -1.5396   -0.4835 N   0  0  0  0  0  0  0  0  0  0  0  0
   -0.8428   -1.8743    0.9521 C   0  0  0  0  0  0  0  0  0  0  0  0
   -1.7915   -1.0000    1.7855 C   0  0  0  0  0  0  0  0  0  0  0  0
   -2.1129   -1.3082    2.9303 O   0  0  0  0  0  0  0  0  0  0  0  0
   -2.1733    0.1830    1.1863 N   0  0  0  0  0  0  0  0  0  0  0  0
   -3.1159    1.0819    1.8145 C   0  0  0  0  0  0  0  0  0  0  0  0
   -4.5700    0.6245    1.6570 C   0  0  0  0  0  0  0  0  0  0  0  0
   -5.3976    1.8996    1.4824 C   0  0  0  0  0  0  0  0  0  0  0  0
   -4.4215    3.0596    1.6325 C   0  0  0  0  0  0  0  0  0  0  0  0
   -3.0896    2.4748    1.1963 C   0  0  0  0  0  0  0  0  0  0  0  0
   -1.9113   -2.1257   -1.2961 C   0  0  0  0  0  0  0  0  0  0  0  0
   -1.6181   -3.5592   -1.6759 C   0  0  0  0  0  0  0  0  0  0  0  0
   -2.2909   -4.6195   -1.0475 C   0  0  0  0  0  0  0  0  0  0  0  0
   -2.0041   -5.9412   -1.3939 C   0  0  0  0  0  0  0  0  0  0  0  0
   -1.0476   -6.2043   -2.3668 C   0  0  0  0  0  0  0  0  0  0  0  0
   -0.7728   -7.4735   -2.6956 F   0  0  0  0  0  0  0  0  0  0  0  0
   -0.3712   -5.1707   -3.0017 C   0  0  0  0  0  0  0  0  0  0  0  0
   -0.6553   -3.8486   -2.6569 C   0  0  0  0  0  0  0  0  0  0  0  0
    5.7564    3.7757   -1.1214 N   0  0  0  0  0  0  0  0  0  0  0  0
    6.7585    4.3095   -0.3325 O   0  0  0  0  0  0  0  0  0  0  0  0
    8.0227    3.4051    2.5150 H   0  0  0  0  0  0  0  0  0  0  0  0
    8.5449    4.6817    1.4046 H   0  0  0  0  0  0  0  0  0  0  0  0
    7.2375    4.9965    2.5616 H   0  0  0  0  0  0  0  0  0  0  0  0
    5.2985    2.3299    1.8201 H   0  0  0  0  0  0  0  0  0  0  0  0
    3.8147    2.4481   -1.8263 H   0  0  0  0  0  0  0  0  0  0  0  0
    2.5713    0.2664   -1.8656 H   0  0  0  0  0  0  0  0  0  0  0  0
    1.5104    1.6163   -1.4150 H   0  0  0  0  0  0  0  0  0  0  0  0
    1.8201   -1.0126    0.1286 H   0  0  0  0  0  0  0  0  0  0  0  0
    0.7841    0.3517    0.6237 H   0  0  0  0  0  0  0  0  0  0  0  0
   -1.1466   -2.9190    1.0705 H   0  0  0  0  0  0  0  0  0  0  0  0
    0.1577   -1.7692    1.3770 H   0  0  0  0  0  0  0  0  0  0  0  0
   -2.0256    0.2580    0.1866 H   0  0  0  0  0  0  0  0  0  0  0  0
   -2.8754    1.1498    2.8835 H   0  0  0  0  0  0  0  0  0  0  0  0
   -4.8960    0.0553    2.5347 H   0  0  0  0  0  0  0  0  0  0  0  0
   -4.7021   -0.0270    0.7844 H   0  0  0  0  0  0  0  0  0  0  0  0
   -5.8473    1.9117    0.4821 H   0  0  0  0  0  0  0  0  0  0  0  0
   -6.2135    1.9621    2.2102 H   0  0  0  0  0  0  0  0  0  0  0  0
   -4.7134    3.9274    1.0342 H   0  0  0  0  0  0  0  0  0  0  0  0
   -4.3700    3.3728    2.6821 H   0  0  0  0  0  0  0  0  0  0  0  0
   -3.0367    2.4231    0.1019 H   0  0  0  0  0  0  0  0  0  0  0  0
   -2.2391    3.0677    1.5459 H   0  0  0  0  0  0  0  0  0  0  0  0
   -2.0655   -1.5435   -2.2122 H   0  0  0  0  0  0  0  0  0  0  0  0
   -2.8511   -2.0568   -0.7348 H   0  0  0  0  0  0  0  0  0  0  0  0
   -3.0397   -4.4249   -0.2828 H   0  0  0  0  0  0  0  0  0  0  0  0
   -2.5181   -6.7662   -0.9113 H   0  0  0  0  0  0  0  0  0  0  0  0
    0.3717   -5.3990   -3.7590 H   0  0  0  0  0  0  0  0  0  0  0  0
   -0.1235   -3.0410   -3.1574 H   0  0  0  0  0  0  0  0  0  0  0  0
  1  2  1  0
  2  3  2  0
  3  4  1  0
  4  5  1  0
  5  6  1  0
  6  7  2  0
  6  8  1  0
  8  9  1  0
  9 10  1  0
 10 11  2  0
 10 12  1  0
 12 13  1  0
 13 14  1  0
 14 15  2  0
 14 16  1  0
 16 17  1  0
 17 18  1  0
 18 19  1  0
 19 20  1  0
 20 21  1  0
 12 22  1  0
 22 23  1  0
 23 24  2  0
 24 25  1  0
 25 26  2  0
 26 27  1  0
 26 28  1  0
 28 29  2  0
  4 30  2  0
 30 31  1  0
 31  2  1  0
 21 17  1  0
 29 23  1  0
  1 32  1  0
  1 33  1  0
  1 34  1  0
  3 35  1  0
  5 36  1  0
  8 37  1  0
  8 38  1  0
  9 39  1  0
  9 40  1  0
 13 41  1  0
 13 42  1  0
 16 43  1  0
 17 44  1  0
 18 45  1  0
 18 46  1  0
 19 47  1  0
 19 48  1  0
 20 49  1  0
 20 50  1  0
 21 51  1  0
 21 52  1  0
 22 53  1  0
 22 54  1  0
 24 55  1  0
 25 56  1  0
 28 57  1  0
 29 58  1  0
M  END
$$$$
