
     RDKit          3D

 62 66  0  0  0  0  0  0  0  0999 V2000
   -5.0520    6.2786   -1.1465 C   0  0  0  0  0  0  0  0  0  0  0  0
   -4.0301    5.3038   -0.9808 O   0  0  0  0  0  0  0  0  0  0  0  0
   -4.4249    3.9949   -0.9228 C   0  0  0  0  0  0  0  0  0  0  0  0
   -5.7251    3.5272   -1.0569 C   0  0  0  0  0  0  0  0  0  0  0  0
   -6.0023    2.1571   -0.9783 C   0  0  0  0  0  0  0  0  0  0  0  0
   -4.9458    1.2514   -0.7619 C   0  0  0  0  0  0  0  0  0  0  0  0
   -5.0621   -0.4582   -0.6331 S   0  0  0  0  0  0  0  0  0  0  0  0
   -3.3802   -0.6400   -0.3904 C   0  0  0  0  0  0  0  0  0  0  0  0
   -2.8408   -1.9954   -0.2207 C   0  0  0  0  0  0  0  0  0  0  0  0
   -2.3718   -2.6793   -1.3548 C   0  0  0  0  0  0  0  0  0  0  0  0
   -1.8348   -3.9599   -1.2381 C   0  0  0  0  0  0  0  0  0  0  0  0
   -1.7601   -4.5659    0.0124 C   0  0  0  0  0  0  0  0  0  0  0  0
   -2.2203   -3.8953    1.1498 C   0  0  0  0  0  0  0  0  0  0  0  0
   -2.7606   -2.6079    1.0470 C   0  0  0  0  0  0  0  0  0  0  0  0
   -3.2285   -1.8762    2.1103 O   0  0  0  0  0  0  0  0  0  0  0  0
   -3.0920   -2.4393    3.4072 C   0  0  0  0  0  0  0  0  0  0  0  0
   -2.7248    0.5798   -0.4105 C   0  0  0  0  0  0  0  0  0  0  0  0
   -1.2807    0.6739   -0.2376 C   0  0  0  0  0  0  0  0  0  0  0  0
   -0.7094    0.5226    1.0283 C   0  0  0  0  0  0  0  0  0  0  0  0
    0.6749    0.6192    1.1834 C   0  0  0  0  0  0  0  0  0  0  0  0
    1.5005    0.8680    0.0836 C   0  0  0  0  0  0  0  0  0  0  0  0
    2.8332    0.9389    0.3786 O   0  0  0  0  0  0  0  0  0  0  0  0
    3.7387    1.0706   -0.7186 C   0  0  0  0  0  0  0  0  0  0  0  0
    5.1882    1.0535   -0.1965 C   0  0  0  0  0  0  0  0  0  0  0  0
    5.6096   -0.2211    0.4021 N   0  0  0  0  0  0  0  0  0  0  0  0
    6.9620   -0.1499    0.9554 C   0  0  0  0  0  0  0  0  0  0  0  0
    7.3015   -1.6099    1.2047 C   0  0  0  0  0  0  0  0  0  0  0  0
    6.4828   -2.3864    0.1798 C   0  0  0  0  0  0  0  0  0  0  0  0
    5.6384   -1.3410   -0.5374 C   0  0  0  0  0  0  0  0  0  0  0  0
    0.9280    1.0284   -1.1794 C   0  0  0  0  0  0  0  0  0  0  0  0
   -0.4590    0.9325   -1.3396 C   0  0  0  0  0  0  0  0  0  0  0  0
   -3.6274    1.6877   -0.6257 C   0  0  0  0  0  0  0  0  0  0  0  0
   -3.3835    3.0838   -0.7096 C   0  0  0  0  0  0  0  0  0  0  0  0
   -5.5667    6.1517   -2.1048 H   0  0  0  0  0  0  0  0  0  0  0  0
   -5.7597    6.2561   -0.3107 H   0  0  0  0  0  0  0  0  0  0  0  0
   -4.5758    7.2640   -1.1535 H   0  0  0  0  0  0  0  0  0  0  0  0
   -6.5600    4.1999   -1.2244 H   0  0  0  0  0  0  0  0  0  0  0  0
   -7.0225    1.7980   -1.0818 H   0  0  0  0  0  0  0  0  0  0  0  0
   -2.4227   -2.2089   -2.3340 H   0  0  0  0  0  0  0  0  0  0  0  0
   -1.4737   -4.4808   -2.1207 H   0  0  0  0  0  0  0  0  0  0  0  0
   -1.3404   -5.5644    0.1062 H   0  0  0  0  0  0  0  0  0  0  0  0
   -2.1402   -4.4074    2.1027 H   0  0  0  0  0  0  0  0  0  0  0  0
   -3.4879   -1.7175    4.1281 H   0  0  0  0  0  0  0  0  0  0  0  0
   -3.6791   -3.3586    3.5025 H   0  0  0  0  0  0  0  0  0  0  0  0
   -2.0395   -2.6119    3.6542 H   0  0  0  0  0  0  0  0  0  0  0  0
   -1.3347    0.3270    1.8963 H   0  0  0  0  0  0  0  0  0  0  0  0
    1.1161    0.4964    2.1697 H   0  0  0  0  0  0  0  0  0  0  0  0
    3.5878    0.2668   -1.4483 H   0  0  0  0  0  0  0  0  0  0  0  0
    3.5692    2.0367   -1.2100 H   0  0  0  0  0  0  0  0  0  0  0  0
    5.2722    1.8324    0.5717 H   0  0  0  0  0  0  0  0  0  0  0  0
    5.8607    1.3281   -1.0188 H   0  0  0  0  0  0  0  0  0  0  0  0
    7.6716    0.2802    0.2372 H   0  0  0  0  0  0  0  0  0  0  0  0
    7.0010    0.4347    1.8798 H   0  0  0  0  0  0  0  0  0  0  0  0
    8.3742   -1.8012    1.1002 H   0  0  0  0  0  0  0  0  0  0  0  0
    7.0049   -1.9079    2.2177 H   0  0  0  0  0  0  0  0  0  0  0  0
    7.1260   -2.9258   -0.5236 H   0  0  0  0  0  0  0  0  0  0  0  0
    5.8493   -3.1224    0.6886 H   0  0  0  0  0  0  0  0  0  0  0  0
    4.6389   -1.7290   -0.7569 H   0  0  0  0  0  0  0  0  0  0  0  0
    6.1209   -1.0630   -1.4832 H   0  0  0  0  0  0  0  0  0  0  0  0
    1.5287    1.2326   -2.0587 H   0  0  0  0  0  0  0  0  0  0  0  0
   -0.8929    1.0593   -2.3289 H   0  0  0  0  0  0  0  0  0  0  0  0
   -2.3673    3.4569   -0.6001 H   0  0  0  0  0  0  0  0  0  0  0  0
  1  2  1  0
  2  3  1  0
  3  4  2  0
  4  5  1  0
  5  6  2  0
  6  7  1  0
  7  8  1  0
  8  9  1  0
  9 10  2  0
 10 11  1  0
 11 12  2  0
 12 13  1  0
 13 14  2  0
 14 15  1  0
 15 16  1  0
  8 17  2  0
 17 18  1  0
 18 19  2  0
 19 20  1  0
 20 21  2  0
 21 22  1  0
 22 23  1  0
 23 24  1  0
 24 25  1  0
 25 26  1  0
 26 27  1  0
 27 28  1  0
 28 29  1  0
 21 30  1  0
 30 31  2  0
 17 32  1  0
 32 33  2  0
 33  3  1  0
 32  6  1  0
 14  9  1  0
 31 18  1  0
 29 25  1  0
  1 34  1  0
  1 35  1  0
  1 36  1  0
  4 37  1  0
  5 38  1  0
 10 39  1  0
 11 40  1  0
 12 41  1  0
 13 42  1  0
 16 43  1  0
 16 44  1  0
 16 45  1  0
 19 46  1  0
 20 47  1  0
 23 48  1  0
 23 49  1  0
 24 50  1  0
 24 51  1  0
 26 52  1  0
 26 53  1  0
 27 54  1  0
 27 55  1  0
 28 56  1  0
 28 57  1  0
 29 58  1  0
 29 59  1  0
 30 60  1  0
 31 61  1  0
 33 62  1  0
M  END
$$$$
