
     RDKit          3D

 65 69  0  0  0  0  0  0  0  0999 V2000
    6.4258    1.0425    1.3685 O   0  0  0  0  0  0  0  0  0  0  0  0
    6.6163    0.5176    0.2646 C   0  0  0  0  0  0  0  0  0  0  0  0
    7.9485    0.7288   -0.5127 C   0  0  0  0  0  0  0  0  0  0  0  0
    9.0092    1.6778    0.1221 C   0  0  0  0  0  0  0  0  0  0  0  0
   10.0919    0.7299   -0.4228 C   0  0  0  0  0  0  0  0  0  0  0  0
    9.0294   -0.3834   -0.3980 C   0  0  0  0  0  0  0  0  0  0  0  0
    5.6699   -0.2851   -0.3661 N   0  0  0  0  0  0  0  0  0  0  0  0
    5.8346   -0.9294   -1.6791 C   0  0  0  0  0  0  0  0  0  0  0  0
    4.5433   -1.6956   -1.9913 C   0  0  0  0  0  0  0  0  0  0  0  0
    3.7325   -1.4588   -0.7595 C   0  0  0  0  0  0  0  0  0  0  0  0
    2.4644   -1.9516   -0.4856 C   0  0  0  0  0  0  0  0  0  0  0  0
    1.8772   -1.6046    0.7351 C   0  0  0  0  0  0  0  0  0  0  0  0
    0.2698   -2.2433    1.1382 S   0  0  0  0  0  6  0  0  0  0  0  0
    0.0591   -2.1132    2.5628 O   0  0  0  0  0  0  0  0  0  0  0  0
    0.1217   -3.5130    0.4611 O   0  0  0  0  0  0  0  0  0  0  0  0
   -0.7337   -1.1630    0.3507 N   0  0  0  0  0  0  0  0  0  0  0  0
   -1.1104    0.0847    1.0311 C   0  0  0  0  0  0  0  0  0  0  0  0
   -2.1298    0.8414    0.1525 C   0  0  0  0  0  0  0  0  0  0  0  0
   -3.2717    0.0000   -0.2731 N   0  0  0  0  0  0  0  0  0  0  0  0
   -4.0883   -0.4368    0.8886 C   0  0  0  0  0  0  0  0  0  0  0  0
   -5.5907   -0.6514    0.5841 C   0  0  0  0  0  0  0  0  0  0  0  0
   -6.1932    0.6048    0.1083 N   0  0  0  0  0  0  0  0  0  0  0  0
   -7.5721    0.7958    0.1256 C   0  0  0  0  0  0  0  0  0  0  0  0
   -8.1178    2.0821   -0.0497 C   0  0  0  0  0  0  0  0  0  0  0  0
   -9.4995    2.3187   -0.0250 C   0  0  0  0  0  0  0  0  0  0  0  0
  -10.3856    1.2684    0.1829 C   0  0  0  0  0  0  0  0  0  0  0  0
   -9.8856   -0.0143    0.3686 C   0  0  0  0  0  0  0  0  0  0  0  0
   -8.5062   -0.2393    0.3421 C   0  0  0  0  0  0  0  0  0  0  0  0
   -8.1002   -1.5094    0.5065 F   0  0  0  0  0  0  0  0  0  0  0  0
   -5.3289    1.4725   -0.7106 C   0  0  0  0  0  0  0  0  0  0  0  0
   -4.1132    0.6967   -1.2719 C   0  0  0  0  0  0  0  0  0  0  0  0
    2.5562   -0.7973    1.6629 C   0  0  0  0  0  0  0  0  0  0  0  0
    3.8322   -0.3059    1.3650 C   0  0  0  0  0  0  0  0  0  0  0  0
    4.4099   -0.6428    0.1502 C   0  0  0  0  0  0  0  0  0  0  0  0
    7.7670    1.0229   -1.5567 H   0  0  0  0  0  0  0  0  0  0  0  0
    8.9857    1.7282    1.2169 H   0  0  0  0  0  0  0  0  0  0  0  0
    9.0326    2.6952   -0.2776 H   0  0  0  0  0  0  0  0  0  0  0  0
   10.9586    0.5734    0.2247 H   0  0  0  0  0  0  0  0  0  0  0  0
   10.4386    0.9886   -1.4301 H   0  0  0  0  0  0  0  0  0  0  0  0
    8.9972   -0.9451    0.5430 H   0  0  0  0  0  0  0  0  0  0  0  0
    9.0786   -1.0900   -1.2303 H   0  0  0  0  0  0  0  0  0  0  0  0
    6.0349   -0.1656   -2.4379 H   0  0  0  0  0  0  0  0  0  0  0  0
    6.6944   -1.6064   -1.6378 H   0  0  0  0  0  0  0  0  0  0  0  0
    4.7428   -2.7608   -2.1423 H   0  0  0  0  0  0  0  0  0  0  0  0
    4.0458   -1.2856   -2.8755 H   0  0  0  0  0  0  0  0  0  0  0  0
    1.9458   -2.5894   -1.1958 H   0  0  0  0  0  0  0  0  0  0  0  0
   -1.4861   -1.6096   -0.1815 H   0  0  0  0  0  0  0  0  0  0  0  0
   -1.5613   -0.1378    2.0032 H   0  0  0  0  0  0  0  0  0  0  0  0
   -0.2253    0.7087    1.1889 H   0  0  0  0  0  0  0  0  0  0  0  0
   -1.5921    1.1758   -0.7444 H   0  0  0  0  0  0  0  0  0  0  0  0
   -2.4730    1.7425    0.6762 H   0  0  0  0  0  0  0  0  0  0  0  0
   -3.6704   -1.3724    1.2772 H   0  0  0  0  0  0  0  0  0  0  0  0
   -4.0266    0.3064    1.6953 H   0  0  0  0  0  0  0  0  0  0  0  0
   -6.0663   -0.9778    1.5164 H   0  0  0  0  0  0  0  0  0  0  0  0
   -5.7134   -1.4411   -0.1670 H   0  0  0  0  0  0  0  0  0  0  0  0
   -7.4647    2.9406   -0.1841 H   0  0  0  0  0  0  0  0  0  0  0  0
   -9.8761    3.3297   -0.1609 H   0  0  0  0  0  0  0  0  0  0  0  0
  -11.4567    1.4484    0.2039 H   0  0  0  0  0  0  0  0  0  0  0  0
  -10.5563   -0.8521    0.5326 H   0  0  0  0  0  0  0  0  0  0  0  0
   -4.9823    2.3138   -0.0988 H   0  0  0  0  0  0  0  0  0  0  0  0
   -5.8771    1.8800   -1.5687 H   0  0  0  0  0  0  0  0  0  0  0  0
   -4.4943   -0.0745   -1.9553 H   0  0  0  0  0  0  0  0  0  0  0  0
   -3.5110    1.3638   -1.9015 H   0  0  0  0  0  0  0  0  0  0  0  0
    2.1013   -0.5501    2.6198 H   0  0  0  0  0  0  0  0  0  0  0  0
    4.3446    0.3166    2.0907 H   0  0  0  0  0  0  0  0  0  0  0  0
  1  2  2  0
  2  3  1  0
  3  4  1  0
  4  5  1  0
  5  6  1  0
  2  7  1  0
  7  8  1  0
  8  9  1  0
  9 10  1  0
 10 11  2  0
 11 12  1  0
 12 13  1  0
 13 14  2  0
 13 15  2  0
 13 16  1  0
 16 17  1  0
 17 18  1  0
 18 19  1  0
 19 20  1  0
 20 21  1  0
 21 22  1  0
 22 23  1  0
 23 24  2  0
 24 25  1  0
 25 26  2  0
 26 27  1  0
 27 28  2  0
 28 29  1  0
 22 30  1  0
 30 31  1  0
 12 32  2  0
 32 33  1  0
 33 34  2  0
  6  3  1  0
 34  7  1  0
 34 10  1  0
 31 19  1  0
 28 23  1  0
  3 35  1  0
  4 36  1  0
  4 37  1  0
  5 38  1  0
  5 39  1  0
  6 40  1  0
  6 41  1  0
  8 42  1  0
  8 43  1  0
  9 44  1  0
  9 45  1  0
 11 46  1  0
 16 47  1  0
 17 48  1  0
 17 49  1  0
 18 50  1  0
 18 51  1  0
 20 52  1  0
 20 53  1  0
 21 54  1  0
 21 55  1  0
 24 56  1  0
 25 57  1  0
 26 58  1  0
 27 59  1  0
 30 60  1  0
 30 61  1  0
 31 62  1  0
 31 63  1  0
 32 64  1  0
 33 65  1  0
M  END
$$$$
