
     RDKit          3D

 35 36  0  0  0  0  0  0  0  0999 V2000
    5.5030    0.4571    2.4045 C   0  0  0  0  0  0  0  0  0  0  0  0
    4.6909   -0.0612    1.2543 C   0  0  0  0  0  0  0  0  0  0  0  0
    5.2316   -1.0070    0.3917 C   0  0  0  0  0  0  0  0  0  0  0  0
    4.4476   -1.4743   -0.6556 C   0  0  0  0  0  0  0  0  0  0  0  0
    3.1516   -0.9900   -0.8104 C   0  0  0  0  0  0  0  0  0  0  0  0
    2.6838   -0.0440    0.0881 C   0  0  0  0  0  0  0  0  0  0  0  0
    1.4129    0.5284    0.0424 N   0  0  0  0  0  0  0  0  0  0  0  0
    0.3902    0.2785   -0.8507 C   0  0  0  0  0  0  0  0  0  0  0  0
    0.4328   -0.5237   -1.7781 O   0  0  0  0  0  0  0  0  0  0  0  0
   -0.8493    1.1357   -0.5532 C   0  0  0  0  0  0  0  0  0  0  0  0
   -1.9762    0.8698   -1.3812 O   0  0  0  0  0  0  0  0  0  0  0  0
   -2.9297    0.1168   -0.7469 C   0  0  0  0  0  0  0  0  0  0  0  0
   -2.6560   -1.1880   -0.3277 C   0  0  0  0  0  0  0  0  0  0  0  0
   -3.6492   -1.9402    0.2997 C   0  0  0  0  0  0  0  0  0  0  0  0
   -4.9175   -1.3959    0.4921 C   0  0  0  0  0  0  0  0  0  0  0  0
   -5.1989   -0.1025    0.0471 C   0  0  0  0  0  0  0  0  0  0  0  0
   -4.2110    0.6645   -0.5871 C   0  0  0  0  0  0  0  0  0  0  0  0
   -4.5247    2.0496   -1.0730 C   0  0  0  0  0  0  0  0  0  0  0  0
    3.4333    0.4229    1.1111 N   0  0  0  0  0  0  0  0  0  0  0  0
    4.9406    1.2047    2.9741 H   0  0  0  0  0  0  0  0  0  0  0  0
    6.4207    0.9278    2.0390 H   0  0  0  0  0  0  0  0  0  0  0  0
    5.7611   -0.3642    3.0819 H   0  0  0  0  0  0  0  0  0  0  0  0
    6.2426   -1.3761    0.5286 H   0  0  0  0  0  0  0  0  0  0  0  0
    4.8384   -2.2119   -1.3521 H   0  0  0  0  0  0  0  0  0  0  0  0
    2.5480   -1.3632   -1.6281 H   0  0  0  0  0  0  0  0  0  0  0  0
    1.2802    1.2002    0.7867 H   0  0  0  0  0  0  0  0  0  0  0  0
   -1.0938    1.0667    0.5165 H   0  0  0  0  0  0  0  0  0  0  0  0
   -0.5636    2.1778   -0.7457 H   0  0  0  0  0  0  0  0  0  0  0  0
   -1.6835   -1.6372   -0.5081 H   0  0  0  0  0  0  0  0  0  0  0  0
   -3.4367   -2.9558    0.6243 H   0  0  0  0  0  0  0  0  0  0  0  0
   -5.6940   -1.9835    0.9758 H   0  0  0  0  0  0  0  0  0  0  0  0
   -6.1987    0.3000    0.1914 H   0  0  0  0  0  0  0  0  0  0  0  0
   -3.9204    2.7870   -0.5327 H   0  0  0  0  0  0  0  0  0  0  0  0
   -5.5806    2.2996   -0.9148 H   0  0  0  0  0  0  0  0  0  0  0  0
   -4.3253    2.1317   -2.1466 H   0  0  0  0  0  0  0  0  0  0  0  0
  1  2  1  0
  2  3  2  0
  3  4  1  0
  4  5  2  0
  5  6  1  0
  6  7  1  0
  7  8  1  0
  8  9  2  0
  8 10  1  0
 10 11  1  0
 11 12  1  0
 12 13  2  0
 13 14  1  0
 14 15  2  0
 15 16  1  0
 16 17  2  0
 17 18  1  0
  6 19  2  0
 19  2  1  0
 17 12  1  0
  1 20  1  0
  1 21  1  0
  1 22  1  0
  3 23  1  0
  4 24  1  0
  5 25  1  0
  7 26  1  0
 10 27  1  0
 10 28  1  0
 13 29  1  0
 14 30  1  0
 15 31  1  0
 16 32  1  0
 18 33  1  0
 18 34  1  0
 18 35  1  0
M  END
$$$$
