
     RDKit          3D

 52 56  0  0  0  0  0  0  0  0999 V2000
    3.0566   -2.3586    0.1388 O   0  0  0  0  0  0  0  0  0  0  0  0
    2.6092   -1.3197   -0.3389 C   0  0  0  0  0  0  0  0  0  0  0  0
    1.4373   -1.3453   -1.3066 C   0  0  0  0  0  0  0  0  0  0  0  0
   -0.1045   -1.0919   -0.3806 S   0  0  0  0  0  0  0  0  0  0  0  0
   -1.2400   -1.0201   -1.6899 C   0  0  0  0  0  0  0  0  0  0  0  0
   -0.9066   -0.7492   -2.9303 N   0  0  0  0  0  0  0  0  0  0  0  0
   -2.0243   -0.8754   -3.7028 N   0  0  0  0  0  0  0  0  0  0  0  0
   -3.0342   -1.2132   -2.9220 C   0  0  0  0  0  0  0  0  0  0  0  0
   -4.4590   -1.2645   -3.3748 C   0  0  0  0  0  0  0  0  0  0  0  0
   -5.2834   -0.1313   -2.8275 C   0  0  0  0  0  0  0  0  0  0  0  0
   -5.0463    1.2276   -2.9267 C   0  0  0  0  0  0  0  0  0  0  0  0
   -6.0468    2.0027   -2.2733 C   0  0  0  0  0  0  0  0  0  0  0  0
   -7.0227    1.2130   -1.7089 C   0  0  0  0  0  0  0  0  0  0  0  0
   -6.7351   -0.4504   -1.9731 S   0  0  0  0  0  0  0  0  0  0  0  0
   -2.5816   -1.3572   -1.6130 N   0  0  0  0  0  0  0  0  0  0  0  0
   -3.3331   -1.7565   -0.4785 C   0  0  0  0  0  0  0  0  0  0  0  0
   -3.2336   -1.0426    0.7222 C   0  0  0  0  0  0  0  0  0  0  0  0
   -3.9848   -1.4376    1.8310 C   0  0  0  0  0  0  0  0  0  0  0  0
   -4.8283   -2.5447    1.7481 C   0  0  0  0  0  0  0  0  0  0  0  0
   -4.9242   -3.2608    0.5561 C   0  0  0  0  0  0  0  0  0  0  0  0
   -4.1791   -2.8705   -0.5584 C   0  0  0  0  0  0  0  0  0  0  0  0
    3.0678   -0.0335   -0.0901 N   0  0  0  0  0  0  0  0  0  0  0  0
    4.1342    0.3558    0.7464 C   0  0  0  0  0  0  0  0  0  0  0  0
    4.9208   -0.5373    1.4790 C   0  0  0  0  0  0  0  0  0  0  0  0
    5.9669   -0.0690    2.2828 C   0  0  0  0  0  0  0  0  0  0  0  0
    6.2360    1.2938    2.3549 C   0  0  0  0  0  0  0  0  0  0  0  0
    5.4391    2.1951    1.6469 C   0  0  0  0  0  0  0  0  0  0  0  0
    4.4031    1.7281    0.8370 C   0  0  0  0  0  0  0  0  0  0  0  0
    5.6203    3.5546    1.6909 O   0  0  0  0  0  0  0  0  0  0  0  0
    6.4588    3.9326    2.7892 C   0  0  0  0  0  0  0  0  0  0  0  0
    7.6779    3.0287    2.8714 C   0  0  0  0  0  0  0  0  0  0  0  0
    7.2889    1.6779    3.1434 O   0  0  0  0  0  0  0  0  0  0  0  0
    1.5751   -0.5667   -2.0649 H   0  0  0  0  0  0  0  0  0  0  0  0
    1.4209   -2.3151   -1.8153 H   0  0  0  0  0  0  0  0  0  0  0  0
   -4.4741   -1.1841   -4.4704 H   0  0  0  0  0  0  0  0  0  0  0  0
   -4.9028   -2.2396   -3.1553 H   0  0  0  0  0  0  0  0  0  0  0  0
   -4.1866    1.6462   -3.4390 H   0  0  0  0  0  0  0  0  0  0  0  0
   -6.0495    3.0842   -2.2206 H   0  0  0  0  0  0  0  0  0  0  0  0
   -7.8959    1.5318   -1.1557 H   0  0  0  0  0  0  0  0  0  0  0  0
   -2.6129   -0.1543    0.8106 H   0  0  0  0  0  0  0  0  0  0  0  0
   -3.9156   -0.8774    2.7606 H   0  0  0  0  0  0  0  0  0  0  0  0
   -5.4105   -2.8498    2.6140 H   0  0  0  0  0  0  0  0  0  0  0  0
   -5.5755   -4.1290    0.4983 H   0  0  0  0  0  0  0  0  0  0  0  0
   -4.2429   -3.4781   -1.4570 H   0  0  0  0  0  0  0  0  0  0  0  0
    2.5643    0.7214   -0.5415 H   0  0  0  0  0  0  0  0  0  0  0  0
    4.7507   -1.6090    1.4474 H   0  0  0  0  0  0  0  0  0  0  0  0
    6.5752   -0.7748    2.8424 H   0  0  0  0  0  0  0  0  0  0  0  0
    3.8084    2.4526    0.2880 H   0  0  0  0  0  0  0  0  0  0  0  0
    6.7678    4.9701    2.6278 H   0  0  0  0  0  0  0  0  0  0  0  0
    5.8653    3.8916    3.7110 H   0  0  0  0  0  0  0  0  0  0  0  0
    8.3359    3.3543    3.6830 H   0  0  0  0  0  0  0  0  0  0  0  0
    8.2533    3.0453    1.9375 H   0  0  0  0  0  0  0  0  0  0  0  0
  1  2  2  0
  2  3  1  0
  3  4  1  0
  4  5  1  0
  5  6  2  0
  6  7  1  0
  7  8  2  0
  8  9  1  0
  9 10  1  0
 10 11  2  0
 11 12  1  0
 12 13  2  0
 13 14  1  0
  8 15  1  0
 15 16  1  0
 16 17  2  0
 17 18  1  0
 18 19  2  0
 19 20  1  0
 20 21  2  0
  2 22  1  0
 22 23  1  0
 23 24  2  0
 24 25  1  0
 25 26  2  0
 26 27  1  0
 27 28  2  0
 27 29  1  0
 29 30  1  0
 30 31  1  0
 31 32  1  0
 15  5  1  0
 21 16  1  0
 28 23  1  0
 14 10  1  0
 32 26  1  0
  3 33  1  0
  3 34  1  0
  9 35  1  0
  9 36  1  0
 11 37  1  0
 12 38  1  0
 13 39  1  0
 17 40  1  0
 18 41  1  0
 19 42  1  0
 20 43  1  0
 21 44  1  0
 22 45  1  0
 24 46  1  0
 25 47  1  0
 28 48  1  0
 30 49  1  0
 30 50  1  0
 31 51  1  0
 31 52  1  0
M  END
$$$$
