
     RDKit          3D

 47 49  0  0  0  0  0  0  0  0999 V2000
   -0.8101    1.2237   -0.2539 C   0  0  0  0  0  0  0  0  0  0  0  0
   -1.8849    0.5545   -1.0978 C   0  0  0  0  0  0  0  0  0  0  0  0
   -2.8191   -0.2535   -0.2953 N   0  0  0  0  0  4  0  0  0  0  0  0
   -2.8061   -1.5832   -0.2617 C   0  0  0  0  0  0  0  0  0  0  0  0
   -1.9303   -2.4873   -0.9172 C   0  0  0  0  0  0  0  0  0  0  0  0
   -0.6001   -2.4041   -0.7783 C   0  0  0  0  0  0  0  0  0  0  0  0
    0.3364   -3.3015   -1.4231 C   0  0  0  0  0  0  0  0  0  0  0  0
    1.6613   -3.0899   -1.5065 C   0  0  0  0  0  0  0  0  0  0  0  0
    2.3337   -1.8874   -1.0094 C   0  0  0  0  0  0  0  0  0  0  0  0
    2.7287   -1.7876    0.3214 C   0  0  0  0  0  0  0  0  0  0  0  0
    3.2806   -0.5926    0.8063 C   0  0  0  0  0  0  0  0  0  0  0  0
    3.4742    0.5348   -0.0132 C   0  0  0  0  0  0  0  0  0  0  0  0
    3.9859    1.7431    0.4809 N   0  0  0  0  0  0  0  0  0  0  0  0
    4.6198    2.6609   -0.4716 C   0  0  0  0  0  0  0  0  0  0  0  0
    4.5674    1.7657    1.8256 C   0  0  0  0  0  0  0  0  0  0  0  0
    3.0702    0.3955   -1.3538 C   0  0  0  0  0  0  0  0  0  0  0  0
    2.5132   -0.7918   -1.8497 C   0  0  0  0  0  0  0  0  0  0  0  0
   -4.0992   -2.1854    0.6959 S   0  0  0  0  0  0  0  0  0  0  0  0
   -4.6558   -0.6051    1.0711 C   0  0  0  0  0  0  0  0  0  0  0  0
   -5.7483   -0.2287    1.8681 C   0  0  0  0  0  0  0  0  0  0  0  0
   -6.0223    1.1333    2.0104 C   0  0  0  0  0  0  0  0  0  0  0  0
   -5.2362    2.0890    1.3764 C   0  0  0  0  0  0  0  0  0  0  0  0
   -4.1472    1.7070    0.5833 C   0  0  0  0  0  0  0  0  0  0  0  0
   -3.8488    0.3356    0.4366 C   0  0  0  0  0  0  0  0  0  0  0  0
   -1.2416    1.9462    0.4446 H   0  0  0  0  0  0  0  0  0  0  0  0
   -0.1041    1.7591   -0.8961 H   0  0  0  0  0  0  0  0  0  0  0  0
   -0.2513    0.4973    0.3407 H   0  0  0  0  0  0  0  0  0  0  0  0
   -1.4203   -0.0566   -1.8779 H   0  0  0  0  0  0  0  0  0  0  0  0
   -2.4610    1.3153   -1.6388 H   0  0  0  0  0  0  0  0  0  0  0  0
   -2.3710   -3.2909   -1.5052 H   0  0  0  0  0  0  0  0  0  0  0  0
   -0.1591   -1.6434   -0.1405 H   0  0  0  0  0  0  0  0  0  0  0  0
   -0.0620   -4.2108   -1.8722 H   0  0  0  0  0  0  0  0  0  0  0  0
    2.3039   -3.8131   -2.0046 H   0  0  0  0  0  0  0  0  0  0  0  0
    2.6023   -2.6276    1.0008 H   0  0  0  0  0  0  0  0  0  0  0  0
    3.5595   -0.5768    1.8558 H   0  0  0  0  0  0  0  0  0  0  0  0
    5.0451    3.5314    0.0405 H   0  0  0  0  0  0  0  0  0  0  0  0
    5.4331    2.1670   -1.0154 H   0  0  0  0  0  0  0  0  0  0  0  0
    3.8893    3.0614   -1.1825 H   0  0  0  0  0  0  0  0  0  0  0  0
    3.8290    1.4776    2.5816 H   0  0  0  0  0  0  0  0  0  0  0  0
    4.8914    2.7772    2.0962 H   0  0  0  0  0  0  0  0  0  0  0  0
    5.4406    1.1070    1.8899 H   0  0  0  0  0  0  0  0  0  0  0  0
    3.1719    1.2191   -2.0546 H   0  0  0  0  0  0  0  0  0  0  0  0
    2.2173   -0.8423   -2.8950 H   0  0  0  0  0  0  0  0  0  0  0  0
   -6.3726   -0.9716    2.3604 H   0  0  0  0  0  0  0  0  0  0  0  0
   -6.8672    1.4490    2.6232 H   0  0  0  0  0  0  0  0  0  0  0  0
   -5.4741    3.1458    1.5000 H   0  0  0  0  0  0  0  0  0  0  0  0
   -3.5622    2.4871    0.1048 H   0  0  0  0  0  0  0  0  0  0  0  0
  1  2  1  0
  2  3  1  0
  3  4  2  0
  4  5  1  0
  5  6  2  3
  6  7  1  0
  7  8  2  3
  8  9  1  0
  9 10  2  0
 10 11  1  0
 11 12  2  0
 12 13  1  0
 13 14  1  0
 13 15  1  0
 12 16  1  0
 16 17  2  0
  4 18  1  0
 18 19  1  0
 19 20  2  0
 20 21  1  0
 21 22  2  0
 22 23  1  0
 23 24  2  0
 24  3  1  0
 17  9  1  0
 24 19  1  0
  1 25  1  0
  1 26  1  0
  1 27  1  0
  2 28  1  0
  2 29  1  0
  5 30  1  0
  6 31  1  0
  7 32  1  0
  8 33  1  0
 10 34  1  0
 11 35  1  0
 14 36  1  0
 14 37  1  0
 14 38  1  0
 15 39  1  0
 15 40  1  0
 15 41  1  0
 16 42  1  0
 17 43  1  0
 20 44  1  0
 21 45  1  0
 22 46  1  0
 23 47  1  0
M  CHG  1   3   1
M  END
$$$$
