
     RDKit          3D

 61 65  0  0  0  0  0  0  0  0999 V2000
   -8.8735    2.7598    0.7470 C   0  0  0  0  0  0  0  0  0  0  0  0
   -8.0724    1.9055    1.5419 O   0  0  0  0  0  0  0  0  0  0  0  0
   -6.8057    1.6231    1.1015 C   0  0  0  0  0  0  0  0  0  0  0  0
   -6.2204    2.1996   -0.0259 C   0  0  0  0  0  0  0  0  0  0  0  0
   -4.9273    1.8369   -0.4150 C   0  0  0  0  0  0  0  0  0  0  0  0
   -4.1909    0.8997    0.3180 C   0  0  0  0  0  0  0  0  0  0  0  0
   -2.8594    0.5142   -0.1443 C   0  0  0  0  0  0  0  0  0  0  0  0
   -2.2528    0.8090   -1.2818 N   0  0  0  0  0  0  0  0  0  0  0  0
   -1.0477    0.1379   -1.2148 C   0  0  0  0  0  0  0  0  0  0  0  0
   -0.0982    0.1786   -2.3553 C   0  0  0  0  0  0  0  0  0  0  0  0
    1.1382    0.8496   -2.0031 N   0  0  0  0  0  0  0  0  0  0  0  0
    2.3932    0.3004   -1.8898 C   0  0  0  0  0  0  0  0  0  0  0  0
    2.7119   -1.3885   -2.1087 S   0  0  0  0  0  0  0  0  0  0  0  0
    4.5006   -1.3934   -2.4273 C   0  0  0  0  0  0  0  0  0  0  0  0
    5.3134   -1.7436   -1.2033 C   0  0  0  0  0  0  0  0  0  0  0  0
    5.5320   -3.0853   -0.8543 C   0  0  0  0  0  0  0  0  0  0  0  0
    6.2974   -3.4139    0.2639 C   0  0  0  0  0  0  0  0  0  0  0  0
    6.8590   -2.4088    1.0579 C   0  0  0  0  0  0  0  0  0  0  0  0
    7.6574   -2.7474    2.2834 C   0  0  0  0  0  0  0  0  0  0  0  0
    6.6193   -1.0699    0.7284 C   0  0  0  0  0  0  0  0  0  0  0  0
    5.8539   -0.7402   -0.3919 C   0  0  0  0  0  0  0  0  0  0  0  0
    3.2987    1.2057   -1.6142 N   0  0  0  0  0  0  0  0  0  0  0  0
    2.6185    2.3951   -1.5384 C   0  0  0  0  0  0  0  0  0  0  0  0
    3.0997    3.6766   -1.2646 C   0  0  0  0  0  0  0  0  0  0  0  0
    2.1548    4.6881   -1.2745 C   0  0  0  0  0  0  0  0  0  0  0  0
    0.8352    4.5108   -1.5250 N   0  0  0  0  0  0  0  0  0  0  0  0
    0.3654    3.2648   -1.7803 C   0  0  0  0  0  0  0  0  0  0  0  0
    1.2647    2.2071   -1.7876 C   0  0  0  0  0  0  0  0  0  0  0  0
   -0.9639   -0.5227   -0.0054 C   0  0  0  0  0  0  0  0  0  0  0  0
    0.0422   -1.3818    0.6506 C   0  0  0  0  0  0  0  0  0  0  0  0
   -2.1241   -0.2914    0.6813 O   0  0  0  0  0  0  0  0  0  0  0  0
   -4.7742    0.3368    1.4666 C   0  0  0  0  0  0  0  0  0  0  0  0
   -6.0727    0.6878    1.8620 C   0  0  0  0  0  0  0  0  0  0  0  0
   -6.7147    0.1697    2.9587 O   0  0  0  0  0  0  0  0  0  0  0  0
   -6.0086   -0.7652    3.7567 C   0  0  0  0  0  0  0  0  0  0  0  0
   -8.4672    3.7747    0.7251 H   0  0  0  0  0  0  0  0  0  0  0  0
   -9.8643    2.8057    1.2084 H   0  0  0  0  0  0  0  0  0  0  0  0
   -8.9998    2.3674   -0.2667 H   0  0  0  0  0  0  0  0  0  0  0  0
   -6.7442    2.9358   -0.6294 H   0  0  0  0  0  0  0  0  0  0  0  0
   -4.4946    2.2945   -1.3016 H   0  0  0  0  0  0  0  0  0  0  0  0
    0.1083   -0.8305   -2.7194 H   0  0  0  0  0  0  0  0  0  0  0  0
   -0.5306    0.7319   -3.1957 H   0  0  0  0  0  0  0  0  0  0  0  0
    4.8381   -0.4510   -2.8750 H   0  0  0  0  0  0  0  0  0  0  0  0
    4.6872   -2.1532   -3.1987 H   0  0  0  0  0  0  0  0  0  0  0  0
    5.1053   -3.8891   -1.4566 H   0  0  0  0  0  0  0  0  0  0  0  0
    6.4472   -4.4620    0.5153 H   0  0  0  0  0  0  0  0  0  0  0  0
    7.0179   -2.6740    3.1753 H   0  0  0  0  0  0  0  0  0  0  0  0
    8.5093   -2.0679    2.3901 H   0  0  0  0  0  0  0  0  0  0  0  0
    8.0597   -3.7623    2.2221 H   0  0  0  0  0  0  0  0  0  0  0  0
    7.0249   -0.2704    1.3496 H   0  0  0  0  0  0  0  0  0  0  0  0
    5.6795    0.3101   -0.6223 H   0  0  0  0  0  0  0  0  0  0  0  0
    4.1440    3.8619   -1.0553 H   0  0  0  0  0  0  0  0  0  0  0  0
    2.4464    5.7182   -1.0702 H   0  0  0  0  0  0  0  0  0  0  0  0
   -0.6979    3.1643   -1.9669 H   0  0  0  0  0  0  0  0  0  0  0  0
    0.3341   -2.1980   -0.0118 H   0  0  0  0  0  0  0  0  0  0  0  0
    0.9387   -0.8030    0.9021 H   0  0  0  0  0  0  0  0  0  0  0  0
   -0.3526   -1.8215    1.5745 H   0  0  0  0  0  0  0  0  0  0  0  0
   -4.1982   -0.3878    2.0371 H   0  0  0  0  0  0  0  0  0  0  0  0
   -5.1177   -0.3116    4.1972 H   0  0  0  0  0  0  0  0  0  0  0  0
   -6.6662   -1.0657    4.5728 H   0  0  0  0  0  0  0  0  0  0  0  0
   -5.7565   -1.6671    3.1875 H   0  0  0  0  0  0  0  0  0  0  0  0
  1  2  1  0
  2  3  1  0
  3  4  2  0
  4  5  1  0
  5  6  2  0
  6  7  1  0
  7  8  2  0
  8  9  1  0
  9 10  1  0
 10 11  1  0
 11 12  1  0
 12 13  1  0
 13 14  1  0
 14 15  1  0
 15 16  2  0
 16 17  1  0
 17 18  2  0
 18 19  1  0
 18 20  1  0
 20 21  2  0
 12 22  2  0
 22 23  1  0
 23 24  2  0
 24 25  1  0
 25 26  2  0
 26 27  1  0
 27 28  2  0
  9 29  2  0
 29 30  1  0
 29 31  1  0
  6 32  1  0
 32 33  2  0
 33 34  1  0
 34 35  1  0
 33  3  1  0
 31  7  1  0
 28 11  1  0
 21 15  1  0
 28 23  1  0
  1 36  1  0
  1 37  1  0
  1 38  1  0
  4 39  1  0
  5 40  1  0
 10 41  1  0
 10 42  1  0
 14 43  1  0
 14 44  1  0
 16 45  1  0
 17 46  1  0
 19 47  1  0
 19 48  1  0
 19 49  1  0
 20 50  1  0
 21 51  1  0
 24 52  1  0
 25 53  1  0
 27 54  1  0
 30 55  1  0
 30 56  1  0
 30 57  1  0
 32 58  1  0
 35 59  1  0
 35 60  1  0
 35 61  1  0
M  END
$$$$
