
     RDKit          3D

 48 51  0  0  0  0  0  0  0  0999 V2000
    1.7435   -0.3587    3.4176 C   0  0  0  0  0  0  0  0  0  0  0  0
    2.1787   -0.1043    2.0101 C   0  0  0  0  0  0  0  0  0  0  0  0
    1.4288    0.2548    0.9549 C   0  0  0  0  0  0  0  0  0  0  0  0
    0.0925    0.4510    0.7314 N   0  0  0  0  0  0  0  0  0  0  0  0
   -0.9833    0.0392    1.4909 C   0  0  0  0  0  0  0  0  0  0  0  0
   -0.9233   -0.6573    2.5000 O   0  0  0  0  0  0  0  0  0  0  0  0
   -2.3159    0.5122    0.9363 C   0  0  0  0  0  0  0  0  0  0  0  0
   -2.8595   -0.6384   -0.3649 S   0  0  0  0  0  0  0  0  0  0  0  0
   -4.4663    0.0679   -0.7358 C   0  0  0  0  0  0  0  0  0  0  0  0
   -4.5386    1.4088   -0.6109 N   0  0  0  0  0  0  0  0  0  0  0  0
   -5.7167    1.9593   -0.9117 C   0  0  0  0  0  0  0  0  0  0  0  0
   -6.8115    1.3074   -1.3142 N   0  0  0  0  0  0  0  0  0  0  0  0
   -6.7202   -0.0226   -1.4323 C   0  0  0  0  0  0  0  0  0  0  0  0
   -7.8464   -0.7264   -1.8412 C   0  0  0  0  0  0  0  0  0  0  0  0
   -7.8406   -2.1162   -1.9841 C   0  0  0  0  0  0  0  0  0  0  0  0
   -6.6814   -2.8295   -1.7172 C   0  0  0  0  0  0  0  0  0  0  0  0
   -5.5378   -2.1462   -1.3068 C   0  0  0  0  0  0  0  0  0  0  0  0
   -5.5438   -0.7325   -1.1567 C   0  0  0  0  0  0  0  0  0  0  0  0
    2.3959    0.4955   -0.1654 C   0  0  0  0  0  0  0  0  0  0  0  0
    2.0275    0.9055   -1.2580 O   0  0  0  0  0  0  0  0  0  0  0  0
    3.6696    0.2294    0.3394 N   0  0  0  0  0  0  0  0  0  0  0  0
    4.8891    0.7396   -0.1767 C   0  0  0  0  0  0  0  0  0  0  0  0
    5.0219    1.0448   -1.5388 C   0  0  0  0  0  0  0  0  0  0  0  0
    6.2254    1.5409   -2.0525 C   0  0  0  0  0  0  0  0  0  0  0  0
    7.3148    1.7439   -1.2106 C   0  0  0  0  0  0  0  0  0  0  0  0
    7.1993    1.4580    0.1461 C   0  0  0  0  0  0  0  0  0  0  0  0
    5.9955    0.9616    0.6577 C   0  0  0  0  0  0  0  0  0  0  0  0
    3.5506   -0.1976    1.6946 N   0  0  0  0  0  0  0  0  0  0  0  0
    4.2099   -1.4917    1.9582 C   0  0  0  0  0  0  0  0  0  0  0  0
    1.4358   -1.4015    3.5439 H   0  0  0  0  0  0  0  0  0  0  0  0
    2.5641   -0.1628    4.1182 H   0  0  0  0  0  0  0  0  0  0  0  0
    0.9303    0.3083    3.7168 H   0  0  0  0  0  0  0  0  0  0  0  0
   -0.1131    0.8004   -0.2040 H   0  0  0  0  0  0  0  0  0  0  0  0
   -3.0433    0.5386    1.7546 H   0  0  0  0  0  0  0  0  0  0  0  0
   -2.2019    1.5277    0.5422 H   0  0  0  0  0  0  0  0  0  0  0  0
   -5.7946    3.0380   -0.8222 H   0  0  0  0  0  0  0  0  0  0  0  0
   -8.7611   -0.1761   -2.0523 H   0  0  0  0  0  0  0  0  0  0  0  0
   -8.7438   -2.6332   -2.2991 H   0  0  0  0  0  0  0  0  0  0  0  0
   -6.6650   -3.9109   -1.8228 H   0  0  0  0  0  0  0  0  0  0  0  0
   -4.6394   -2.7237   -1.0983 H   0  0  0  0  0  0  0  0  0  0  0  0
    4.1990    0.8899   -2.2314 H   0  0  0  0  0  0  0  0  0  0  0  0
    6.3060    1.7675   -3.1129 H   0  0  0  0  0  0  0  0  0  0  0  0
    8.2481    2.1321   -1.6104 H   0  0  0  0  0  0  0  0  0  0  0  0
    8.0410    1.6286    0.8126 H   0  0  0  0  0  0  0  0  0  0  0  0
    5.9278    0.7842    1.7282 H   0  0  0  0  0  0  0  0  0  0  0  0
    5.2551   -1.4924    1.6359 H   0  0  0  0  0  0  0  0  0  0  0  0
    4.2036   -1.7083    3.0310 H   0  0  0  0  0  0  0  0  0  0  0  0
    3.6936   -2.3050    1.4352 H   0  0  0  0  0  0  0  0  0  0  0  0
  1  2  1  0
  2  3  2  0
  3  4  1  0
  4  5  1  0
  5  6  2  0
  5  7  1  0
  7  8  1  0
  8  9  1  0
  9 10  2  0
 10 11  1  0
 11 12  2  0
 12 13  1  0
 13 14  2  0
 14 15  1  0
 15 16  2  0
 16 17  1  0
 17 18  2  0
  3 19  1  0
 19 20  2  0
 19 21  1  0
 21 22  1  0
 22 23  2  0
 23 24  1  0
 24 25  2  0
 25 26  1  0
 26 27  2  0
 21 28  1  0
 28 29  1  0
 28  2  1  0
 18  9  1  0
 27 22  1  0
 18 13  1  0
  1 30  1  0
  1 31  1  0
  1 32  1  0
  4 33  1  0
  7 34  1  0
  7 35  1  0
 11 36  1  0
 14 37  1  0
 15 38  1  0
 16 39  1  0
 17 40  1  0
 23 41  1  0
 24 42  1  0
 25 43  1  0
 26 44  1  0
 27 45  1  0
 29 46  1  0
 29 47  1  0
 29 48  1  0
M  END
$$$$
