
     RDKit          3D

 42 44  0  0  0  0  0  0  0  0999 V2000
    0.4748   -2.5990    0.2798 C   0  0  0  0  0  0  0  0  0  0  0  0
   -0.2668   -1.3122    0.4708 C   0  0  0  0  0  0  0  0  0  0  0  0
    0.2630   -0.0966    0.6991 C   0  0  0  0  0  0  0  0  0  0  0  0
    1.5930    0.2165    0.7762 N   0  0  0  0  0  0  0  0  0  0  0  0
    2.1510    1.3570    1.3205 C   0  0  0  0  0  0  0  0  0  0  0  0
    1.5588    2.1549    2.0436 O   0  0  0  0  0  0  0  0  0  0  0  0
    3.6437    1.5130    1.1005 C   0  0  0  0  0  0  0  0  0  0  0  0
    4.0970    1.0253   -0.1921 N   0  0  0  0  0  0  0  0  0  0  0  0
    4.6039    1.7651   -1.2234 C   0  0  0  0  0  0  0  0  0  0  0  0
    4.9089    0.8730   -2.2270 C   0  0  0  0  0  0  0  0  0  0  0  0
    4.5486   -0.3885   -1.7060 C   0  0  0  0  0  0  0  0  0  0  0  0
    4.6375   -1.6905   -2.3429 N   0  0  0  0  0  4  0  0  0  0  0  0
    5.2060   -1.7243   -3.4443 O   0  0  0  0  0  0  0  0  0  0  0  0
    4.1361   -2.6643   -1.7609 O   0  0  0  0  0  1  0  0  0  0  0  0
    4.0624   -0.3036   -0.4522 N   0  0  0  0  0  0  0  0  0  0  0  0
   -0.9023    0.8517    0.7515 C   0  0  0  0  0  0  0  0  0  0  0  0
   -0.8130    2.0693    0.7464 O   0  0  0  0  0  0  0  0  0  0  0  0
   -2.0566    0.0530    0.6344 N   0  0  0  0  0  0  0  0  0  0  0  0
   -3.3150    0.5181    0.1628 C   0  0  0  0  0  0  0  0  0  0  0  0
   -4.1663   -0.3092   -0.5866 C   0  0  0  0  0  0  0  0  0  0  0  0
   -5.4068    0.1512   -1.0400 C   0  0  0  0  0  0  0  0  0  0  0  0
   -5.8167    1.4490   -0.7507 C   0  0  0  0  0  0  0  0  0  0  0  0
   -4.9851    2.2859   -0.0126 C   0  0  0  0  0  0  0  0  0  0  0  0
   -3.7443    1.8237    0.4386 C   0  0  0  0  0  0  0  0  0  0  0  0
   -1.6702   -1.3103    0.4717 N   0  0  0  0  0  0  0  0  0  0  0  0
   -2.3611   -2.2273    1.3964 C   0  0  0  0  0  0  0  0  0  0  0  0
    0.3308   -3.2586    1.1413 H   0  0  0  0  0  0  0  0  0  0  0  0
    1.5505   -2.4524    0.1519 H   0  0  0  0  0  0  0  0  0  0  0  0
    0.1099   -3.1142   -0.6151 H   0  0  0  0  0  0  0  0  0  0  0  0
    2.2524   -0.4935    0.4579 H   0  0  0  0  0  0  0  0  0  0  0  0
    4.1873    0.9599    1.8730 H   0  0  0  0  0  0  0  0  0  0  0  0
    3.9063    2.5741    1.1643 H   0  0  0  0  0  0  0  0  0  0  0  0
    4.6990    2.8418   -1.1635 H   0  0  0  0  0  0  0  0  0  0  0  0
    5.3243    1.0965   -3.2004 H   0  0  0  0  0  0  0  0  0  0  0  0
   -3.8625   -1.3160   -0.8586 H   0  0  0  0  0  0  0  0  0  0  0  0
   -6.0461   -0.5031   -1.6268 H   0  0  0  0  0  0  0  0  0  0  0  0
   -6.7787    1.8103   -1.1041 H   0  0  0  0  0  0  0  0  0  0  0  0
   -5.2965    3.3021    0.2158 H   0  0  0  0  0  0  0  0  0  0  0  0
   -3.1289    2.5019    1.0253 H   0  0  0  0  0  0  0  0  0  0  0  0
   -2.0236   -2.0681    2.4271 H   0  0  0  0  0  0  0  0  0  0  0  0
   -3.4465   -2.0951    1.3725 H   0  0  0  0  0  0  0  0  0  0  0  0
   -2.1582   -3.2669    1.1182 H   0  0  0  0  0  0  0  0  0  0  0  0
  1  2  1  0
  2  3  2  0
  3  4  1  0
  4  5  1  0
  5  6  2  0
  5  7  1  0
  7  8  1  0
  8  9  1  0
  9 10  2  0
 10 11  1  0
 11 12  1  0
 12 13  2  0
 12 14  1  0
 11 15  2  0
  3 16  1  0
 16 17  2  0
 16 18  1  0
 18 19  1  0
 19 20  2  0
 20 21  1  0
 21 22  2  0
 22 23  1  0
 23 24  2  0
 18 25  1  0
 25 26  1  0
 25  2  1  0
 15  8  1  0
 24 19  1  0
  1 27  1  0
  1 28  1  0
  1 29  1  0
  4 30  1  0
  7 31  1  0
  7 32  1  0
  9 33  1  0
 10 34  1  0
 20 35  1  0
 21 36  1  0
 22 37  1  0
 23 38  1  0
 24 39  1  0
 26 40  1  0
 26 41  1  0
 26 42  1  0
M  CHG  2  12   1  14  -1
M  END
$$$$
