
     RDKit          3D

 33 35  0  0  0  0  0  0  0  0999 V2000
   -0.0514    1.7957   -1.5452 O   0  0  0  0  0  0  0  0  0  0  0  0
   -0.0360    0.9126   -0.6890 C   0  0  0  0  0  0  0  0  0  0  0  0
   -1.3140    0.3860   -0.0957 C   0  0  0  0  0  0  0  0  0  0  0  0
   -2.4485    0.8574   -0.6501 C   0  0  0  0  0  0  0  0  0  0  0  0
   -3.7607    0.4882   -0.2504 C   0  0  0  0  0  0  0  0  0  0  0  0
   -4.3579   -0.7630   -0.1341 C   0  0  0  0  0  0  0  0  0  0  0  0
   -5.7012   -0.5720    0.2677 C   0  0  0  0  0  0  0  0  0  0  0  0
   -5.8728    0.7846    0.3585 C   0  0  0  0  0  0  0  0  0  0  0  0
   -4.7252    1.4282    0.0381 O   0  0  0  0  0  0  0  0  0  0  0  0
   -1.2006   -0.5772    1.0481 C   0  0  0  0  0  0  0  0  0  0  0  0
   -0.1014   -1.5873    0.7763 C   0  0  0  0  0  0  0  0  0  0  0  0
    1.2449   -0.8817    0.6967 C   0  0  0  0  0  0  0  0  0  0  0  0
    1.2610    0.3167   -0.2120 C   0  0  0  0  0  0  0  0  0  0  0  0
    2.3716    0.9282   -0.6747 C   0  0  0  0  0  0  0  0  0  0  0  0
    3.7057    0.5642   -0.3310 C   0  0  0  0  0  0  0  0  0  0  0  0
    4.8880    1.0318   -0.8979 C   0  0  0  0  0  0  0  0  0  0  0  0
    5.9722    0.4102   -0.2352 C   0  0  0  0  0  0  0  0  0  0  0  0
    5.4097   -0.4047    0.7116 C   0  0  0  0  0  0  0  0  0  0  0  0
    4.0592   -0.3187    0.6663 O   0  0  0  0  0  0  0  0  0  0  0  0
   -2.4064    1.6124   -1.4332 H   0  0  0  0  0  0  0  0  0  0  0  0
   -3.8729   -1.7090   -0.3317 H   0  0  0  0  0  0  0  0  0  0  0  0
   -6.4514   -1.3272    0.4537 H   0  0  0  0  0  0  0  0  0  0  0  0
   -6.7083    1.4204    0.6160 H   0  0  0  0  0  0  0  0  0  0  0  0
   -2.1278   -1.1225    1.2359 H   0  0  0  0  0  0  0  0  0  0  0  0
   -0.9797   -0.0180    1.9663 H   0  0  0  0  0  0  0  0  0  0  0  0
   -0.0733   -2.3332    1.5792 H   0  0  0  0  0  0  0  0  0  0  0  0
   -0.3018   -2.1299   -0.1567 H   0  0  0  0  0  0  0  0  0  0  0  0
    1.9792   -1.6252    0.3658 H   0  0  0  0  0  0  0  0  0  0  0  0
    1.5308   -0.5582    1.7058 H   0  0  0  0  0  0  0  0  0  0  0  0
    2.2797    1.7753   -1.3528 H   0  0  0  0  0  0  0  0  0  0  0  0
    4.9503    1.7471   -1.7072 H   0  0  0  0  0  0  0  0  0  0  0  0
    7.0279    0.5431   -0.4236 H   0  0  0  0  0  0  0  0  0  0  0  0
    5.8111   -1.0745    1.4590 H   0  0  0  0  0  0  0  0  0  0  0  0
  1  2  2  0
  2  3  1  0
  3  4  2  3
  4  5  1  0
  5  6  2  0
  6  7  1  0
  7  8  2  0
  8  9  1  0
  3 10  1  0
 10 11  1  0
 11 12  1  0
 12 13  1  0
 13 14  2  3
 14 15  1  0
 15 16  2  0
 16 17  1  0
 17 18  2  0
 18 19  1  0
 13  2  1  0
 19 15  1  0
  9  5  1  0
  4 20  1  0
  6 21  1  0
  7 22  1  0
  8 23  1  0
 10 24  1  0
 10 25  1  0
 11 26  1  0
 11 27  1  0
 12 28  1  0
 12 29  1  0
 14 30  1  0
 16 31  1  0
 17 32  1  0
 18 33  1  0
M  END
$$$$
