
     RDKit          3D

 60 65  0  0  0  0  0  0  0  0999 V2000
    1.4375   -4.0343   -1.3915 O   0  0  0  0  0  0  0  0  0  0  0  0
    1.9783   -2.9456   -1.2330 C   0  0  0  0  0  0  0  0  0  0  0  0
    1.2532   -1.7595   -1.2449 N   0  0  0  0  0  0  0  0  0  0  0  0
    1.8142   -0.4968   -1.0824 C   0  0  0  0  0  0  0  0  0  0  0  0
    0.8540    0.6832   -1.1246 C   0  0  0  0  0  0  0  0  0  0  0  0
    0.1597    0.8024   -2.4916 C   0  0  0  0  0  0  0  0  0  0  0  0
   -1.3589    0.9171   -2.3780 C   0  0  0  0  0  0  0  0  0  0  0  0
   -1.6852    1.9558   -1.3875 N   0  0  0  0  0  0  0  0  0  0  0  0
   -3.1861    2.7442   -1.5216 S   0  0  0  0  0  6  0  0  0  0  0  0
   -3.4100    3.0546   -2.9175 O   0  0  0  0  0  0  0  0  0  0  0  0
   -3.2413    3.7720   -0.5037 O   0  0  0  0  0  0  0  0  0  0  0  0
   -4.3456    1.4690   -1.0717 C   0  0  0  0  0  0  0  0  0  0  0  0
   -4.8490    0.6146   -2.0606 C   0  0  0  0  0  0  0  0  0  0  0  0
   -5.7794   -0.3657   -1.7153 C   0  0  0  0  0  0  0  0  0  0  0  0
   -6.2140   -0.4750   -0.3946 C   0  0  0  0  0  0  0  0  0  0  0  0
   -5.7034    0.3786    0.5902 C   0  0  0  0  0  0  0  0  0  0  0  0
   -4.7861    1.3693    0.2513 C   0  0  0  0  0  0  0  0  0  0  0  0
   -6.0687    0.3070    1.9099 O   0  0  0  0  0  0  0  0  0  0  0  0
   -6.7592   -0.9144    2.2021 C   0  0  0  0  0  0  0  0  0  0  0  0
   -7.7886   -1.2226    1.1282 C   0  0  0  0  0  0  0  0  0  0  0  0
   -7.1471   -1.4439   -0.1340 O   0  0  0  0  0  0  0  0  0  0  0  0
   -1.1460    1.7592   -0.0227 C   0  0  0  0  0  0  0  0  0  0  0  0
   -0.1450    0.6094    0.0338 C   0  0  0  0  0  0  0  0  0  0  0  0
    3.0878   -0.2814   -0.8966 N   0  0  0  0  0  0  0  0  0  0  0  0
    3.8170   -1.4245   -0.8713 C   0  0  0  0  0  0  0  0  0  0  0  0
    3.3815   -2.7190   -1.0226 C   0  0  0  0  0  0  0  0  0  0  0  0
    4.4241   -3.5891   -0.9455 N   0  0  0  0  0  0  0  0  0  0  0  0
    5.5273   -2.8676   -0.7436 N   0  0  0  0  0  0  0  0  0  0  0  0
    5.1623   -1.5626   -0.6814 N   0  0  0  0  0  0  0  0  0  0  0  0
    6.1518   -0.5219   -0.4980 C   0  0  0  0  0  0  0  0  0  0  0  0
    6.2815   -0.1308    0.9527 C   0  0  0  0  0  0  0  0  0  0  0  0
    5.5409    0.9441    1.4726 C   0  0  0  0  0  0  0  0  0  0  0  0
    5.6543    1.3026    2.8186 C   0  0  0  0  0  0  0  0  0  0  0  0
    6.5050    0.5877    3.6594 C   0  0  0  0  0  0  0  0  0  0  0  0
    7.2305   -0.4825    3.1499 C   0  0  0  0  0  0  0  0  0  0  0  0
    8.0455   -1.1708    3.9602 F   0  0  0  0  0  0  0  0  0  0  0  0
    7.1254   -0.8498    1.8119 C   0  0  0  0  0  0  0  0  0  0  0  0
    0.2631   -1.8826   -1.3918 H   0  0  0  0  0  0  0  0  0  0  0  0
    1.4604    1.5894   -0.9823 H   0  0  0  0  0  0  0  0  0  0  0  0
    0.5424    1.7043   -2.9888 H   0  0  0  0  0  0  0  0  0  0  0  0
    0.4111   -0.0309   -3.1583 H   0  0  0  0  0  0  0  0  0  0  0  0
   -1.7578    1.1733   -3.3645 H   0  0  0  0  0  0  0  0  0  0  0  0
   -1.7979   -0.0418   -2.0804 H   0  0  0  0  0  0  0  0  0  0  0  0
   -4.5355    0.7163   -3.0975 H   0  0  0  0  0  0  0  0  0  0  0  0
   -6.1835   -1.0286   -2.4761 H   0  0  0  0  0  0  0  0  0  0  0  0
   -4.4217    2.0502    1.0166 H   0  0  0  0  0  0  0  0  0  0  0  0
   -6.0185   -1.7188    2.2896 H   0  0  0  0  0  0  0  0  0  0  0  0
   -7.2492   -0.7942    3.1737 H   0  0  0  0  0  0  0  0  0  0  0  0
   -8.5097   -0.4037    1.0151 H   0  0  0  0  0  0  0  0  0  0  0  0
   -8.3423   -2.1316    1.3838 H   0  0  0  0  0  0  0  0  0  0  0  0
   -0.6492    2.6891    0.2783 H   0  0  0  0  0  0  0  0  0  0  0  0
   -1.9444    1.5595    0.6971 H   0  0  0  0  0  0  0  0  0  0  0  0
    0.3856    0.6286    0.9937 H   0  0  0  0  0  0  0  0  0  0  0  0
   -0.6906   -0.3426    0.0137 H   0  0  0  0  0  0  0  0  0  0  0  0
    5.8606    0.3372   -1.1138 H   0  0  0  0  0  0  0  0  0  0  0  0
    7.1093   -0.8844   -0.8910 H   0  0  0  0  0  0  0  0  0  0  0  0
    4.8646    1.5074    0.8307 H   0  0  0  0  0  0  0  0  0  0  0  0
    5.0781    2.1373    3.2101 H   0  0  0  0  0  0  0  0  0  0  0  0
    6.6051    0.8534    4.7069 H   0  0  0  0  0  0  0  0  0  0  0  0
    7.7015   -1.6997    1.4542 H   0  0  0  0  0  0  0  0  0  0  0  0
  1  2  2  0
  2  3  1  0
  3  4  1  0
  4  5  1  0
  5  6  1  0
  6  7  1  0
  7  8  1  0
  8  9  1  0
  9 10  2  0
  9 11  2  0
  9 12  1  0
 12 13  2  0
 13 14  1  0
 14 15  2  0
 15 16  1  0
 16 17  2  0
 16 18  1  0
 18 19  1  0
 19 20  1  0
 20 21  1  0
  8 22  1  0
 22 23  1  0
  4 24  2  0
 24 25  1  0
 25 26  2  0
 26 27  1  0
 27 28  2  0
 28 29  1  0
 29 30  1  0
 30 31  1  0
 31 32  2  0
 32 33  1  0
 33 34  2  0
 34 35  1  0
 35 36  1  0
 35 37  2  0
 26  2  1  0
 37 31  1  0
 23  5  1  0
 29 25  1  0
 17 12  1  0
 21 15  1  0
  3 38  1  0
  5 39  1  0
  6 40  1  0
  6 41  1  0
  7 42  1  0
  7 43  1  0
 13 44  1  0
 14 45  1  0
 17 46  1  0
 19 47  1  0
 19 48  1  0
 20 49  1  0
 20 50  1  0
 22 51  1  0
 22 52  1  0
 23 53  1  0
 23 54  1  0
 30 55  1  0
 30 56  1  0
 32 57  1  0
 33 58  1  0
 34 59  1  0
 37 60  1  0
M  END
$$$$
