
     RDKit          3D

 39 40  0  0  0  0  0  0  0  0999 V2000
    6.4332   -0.1163    1.0013 C   0  0  0  0  0  0  0  0  0  0  0  0
    5.1380   -0.2942    0.2222 C   0  0  0  0  0  0  0  0  0  0  0  0
    4.7993    0.9003   -0.6877 C   0  0  0  0  0  0  0  0  0  0  0  0
    5.8501    1.1107   -1.7793 C   0  0  0  0  0  0  0  0  0  0  0  0
    3.4119    0.6994   -1.3118 C   0  0  0  0  0  0  0  0  0  0  0  0
    3.2702    0.4334   -2.4996 O   0  0  0  0  0  0  0  0  0  0  0  0
    2.3999    0.8415   -0.3862 N   0  0  0  0  0  0  0  0  0  0  0  0
    1.0822    0.6907   -0.7193 C   0  0  0  0  0  0  0  0  0  0  0  0
    0.5165    0.3973   -1.8630 N   0  0  0  0  0  0  0  0  0  0  0  0
   -0.8615    0.3441   -1.7568 N   0  0  0  0  0  0  0  0  0  0  0  0
   -1.2740    0.5983   -0.5326 C   0  0  0  0  0  0  0  0  0  0  0  0
   -2.7042    0.6088   -0.1058 C   0  0  0  0  0  0  0  0  0  0  0  0
   -3.2223   -0.8147    0.1047 C   0  0  0  0  0  0  0  0  0  0  0  0
   -4.6642   -0.8183    0.5482 C   0  0  0  0  0  0  0  0  0  0  0  0
   -4.9901   -0.8131    1.9111 C   0  0  0  0  0  0  0  0  0  0  0  0
   -6.3252   -0.7942    2.3176 C   0  0  0  0  0  0  0  0  0  0  0  0
   -7.3445   -0.7763    1.3674 C   0  0  0  0  0  0  0  0  0  0  0  0
   -7.0304   -0.7767    0.0098 C   0  0  0  0  0  0  0  0  0  0  0  0
   -5.6963   -0.7958   -0.3993 C   0  0  0  0  0  0  0  0  0  0  0  0
   -0.0022    0.9218    0.5806 S   0  0  0  0  0  0  0  0  0  0  0  0
    6.5683   -0.9495    1.6987 H   0  0  0  0  0  0  0  0  0  0  0  0
    6.4183    0.8116    1.5816 H   0  0  0  0  0  0  0  0  0  0  0  0
    7.3028   -0.0985    0.3381 H   0  0  0  0  0  0  0  0  0  0  0  0
    5.1981   -1.2127   -0.3750 H   0  0  0  0  0  0  0  0  0  0  0  0
    4.3290   -0.4559    0.9448 H   0  0  0  0  0  0  0  0  0  0  0  0
    4.7551    1.8172   -0.0847 H   0  0  0  0  0  0  0  0  0  0  0  0
    6.8131    1.4078   -1.3531 H   0  0  0  0  0  0  0  0  0  0  0  0
    5.5406    1.9031   -2.4701 H   0  0  0  0  0  0  0  0  0  0  0  0
    6.0024    0.1992   -2.3678 H   0  0  0  0  0  0  0  0  0  0  0  0
    2.6027    1.0792    0.5720 H   0  0  0  0  0  0  0  0  0  0  0  0
   -2.8307    1.2002    0.8099 H   0  0  0  0  0  0  0  0  0  0  0  0
   -3.2966    1.1138   -0.8796 H   0  0  0  0  0  0  0  0  0  0  0  0
   -3.1247   -1.4007   -0.8190 H   0  0  0  0  0  0  0  0  0  0  0  0
   -2.6108   -1.3394    0.8509 H   0  0  0  0  0  0  0  0  0  0  0  0
   -4.2072   -0.8264    2.6658 H   0  0  0  0  0  0  0  0  0  0  0  0
   -6.5708   -0.7945    3.3763 H   0  0  0  0  0  0  0  0  0  0  0  0
   -8.3839   -0.7629    1.6846 H   0  0  0  0  0  0  0  0  0  0  0  0
   -7.8250   -0.7629   -0.7319 H   0  0  0  0  0  0  0  0  0  0  0  0
   -5.4673   -0.7950   -1.4631 H   0  0  0  0  0  0  0  0  0  0  0  0
  1  2  1  0
  2  3  1  0
  3  4  1  0
  3  5  1  0
  5  6  2  0
  5  7  1  0
  7  8  1  0
  8  9  2  0
  9 10  1  0
 10 11  2  0
 11 12  1  0
 12 13  1  0
 13 14  1  0
 14 15  2  0
 15 16  1  0
 16 17  2  0
 17 18  1  0
 18 19  2  0
 11 20  1  0
 20  8  1  0
 19 14  1  0
  1 21  1  0
  1 22  1  0
  1 23  1  0
  2 24  1  0
  2 25  1  0
  3 26  1  0
  4 27  1  0
  4 28  1  0
  4 29  1  0
  7 30  1  0
 12 31  1  0
 12 32  1  0
 13 33  1  0
 13 34  1  0
 15 35  1  0
 16 36  1  0
 17 37  1  0
 18 38  1  0
 19 39  1  0
M  END
$$$$
