
     RDKit          3D

 58 60  0  0  0  0  0  0  0  0999 V2000
   10.3096   -0.8580   -0.0924 C   0  0  0  0  0  0  0  0  0  0  0  0
    8.8659   -0.6404   -0.4364 C   0  0  0  0  0  0  0  0  0  0  0  0
    8.2967   -1.2811   -1.5422 C   0  0  0  0  0  0  0  0  0  0  0  0
    6.9443   -1.1051   -1.8456 C   0  0  0  0  0  0  0  0  0  0  0  0
    6.1367   -0.2899   -1.0435 C   0  0  0  0  0  0  0  0  0  0  0  0
    4.6728   -0.1166   -1.3553 C   0  0  0  0  0  0  0  0  0  0  0  0
    3.8038   -1.1180   -0.5955 C   0  0  0  0  0  0  0  0  0  0  0  0
    2.3964   -0.9667   -0.9275 N   0  0  0  0  0  0  0  0  0  0  0  0
    1.4173   -1.4656   -0.0915 C   0  0  0  0  0  0  0  0  0  0  0  0
    1.6471   -1.9368    1.0173 O   0  0  0  0  0  0  0  0  0  0  0  0
    0.0210   -1.3270   -0.6629 C   0  0  0  0  0  0  0  0  0  0  0  0
   -1.0236   -2.0564    0.1740 C   0  0  0  0  0  0  0  0  0  0  0  0
   -1.1845   -1.3957    1.4807 N   0  0  0  0  0  0  0  0  0  0  0  0
   -2.5644   -1.7403    2.3763 S   0  0  0  0  0  6  0  0  0  0  0  0
   -2.2235   -1.5163    3.7633 O   0  0  0  0  0  0  0  0  0  0  0  0
   -3.1289   -2.9885    1.9172 O   0  0  0  0  0  0  0  0  0  0  0  0
   -3.6413   -0.4192    1.8756 C   0  0  0  0  0  0  0  0  0  0  0  0
   -3.7058    0.7503    2.6320 C   0  0  0  0  0  0  0  0  0  0  0  0
   -4.5727    1.7791    2.2464 C   0  0  0  0  0  0  0  0  0  0  0  0
   -5.3847    1.6517    1.1065 C   0  0  0  0  0  0  0  0  0  0  0  0
   -5.3066    0.4698    0.3695 C   0  0  0  0  0  0  0  0  0  0  0  0
   -4.4492   -0.5735    0.7509 C   0  0  0  0  0  0  0  0  0  0  0  0
   -6.1325    0.3191   -0.8377 C   0  0  0  0  0  0  0  0  0  0  0  0
   -5.9781   -0.6746   -1.5442 O   0  0  0  0  0  0  0  0  0  0  0  0
   -7.0285    1.3394   -1.1110 N   0  0  0  0  0  0  0  0  0  0  0  0
   -7.8763    1.2010   -2.2810 C   0  0  0  0  0  0  0  0  0  0  0  0
   -7.0893    2.5492   -0.4294 C   0  0  0  0  0  0  0  0  0  0  0  0
   -7.8314    3.4600   -0.8049 O   0  0  0  0  0  0  0  0  0  0  0  0
   -6.2663    2.6825    0.6858 N   0  0  0  0  0  0  0  0  0  0  0  0
   -6.3261    3.9303    1.4374 C   0  0  0  0  0  0  0  0  0  0  0  0
    6.7025    0.3353    0.0743 C   0  0  0  0  0  0  0  0  0  0  0  0
    8.0548    0.1584    0.3767 C   0  0  0  0  0  0  0  0  0  0  0  0
   10.7202    0.0069    0.4394 H   0  0  0  0  0  0  0  0  0  0  0  0
   10.9091   -0.9963   -0.9983 H   0  0  0  0  0  0  0  0  0  0  0  0
   10.4142   -1.7442    0.5412 H   0  0  0  0  0  0  0  0  0  0  0  0
    8.9043   -1.9239   -2.1756 H   0  0  0  0  0  0  0  0  0  0  0  0
    6.5277   -1.6138   -2.7119 H   0  0  0  0  0  0  0  0  0  0  0  0
    4.3648    0.9088   -1.1132 H   0  0  0  0  0  0  0  0  0  0  0  0
    4.5116   -0.2218   -2.4361 H   0  0  0  0  0  0  0  0  0  0  0  0
    4.0844   -2.1480   -0.8456 H   0  0  0  0  0  0  0  0  0  0  0  0
    3.9307   -0.9992    0.4870 H   0  0  0  0  0  0  0  0  0  0  0  0
    2.1559   -0.8244   -1.9004 H   0  0  0  0  0  0  0  0  0  0  0  0
    0.0215   -1.7471   -1.6754 H   0  0  0  0  0  0  0  0  0  0  0  0
   -0.2182   -0.2595   -0.7314 H   0  0  0  0  0  0  0  0  0  0  0  0
   -1.9720   -2.0404   -0.3720 H   0  0  0  0  0  0  0  0  0  0  0  0
   -0.7273   -3.0990    0.3334 H   0  0  0  0  0  0  0  0  0  0  0  0
   -0.3437   -1.4142    2.0715 H   0  0  0  0  0  0  0  0  0  0  0  0
   -3.0886    0.8707    3.5209 H   0  0  0  0  0  0  0  0  0  0  0  0
   -4.5908    2.6725    2.8647 H   0  0  0  0  0  0  0  0  0  0  0  0
   -4.4168   -1.4948    0.1718 H   0  0  0  0  0  0  0  0  0  0  0  0
   -8.8799    1.5814   -2.0650 H   0  0  0  0  0  0  0  0  0  0  0  0
   -7.4445    1.7944   -3.0936 H   0  0  0  0  0  0  0  0  0  0  0  0
   -7.9597    0.1597   -2.6041 H   0  0  0  0  0  0  0  0  0  0  0  0
   -6.6519    3.7213    2.4615 H   0  0  0  0  0  0  0  0  0  0  0  0
   -5.3377    4.4011    1.4395 H   0  0  0  0  0  0  0  0  0  0  0  0
   -7.0326    4.6433    1.0037 H   0  0  0  0  0  0  0  0  0  0  0  0
    6.0934    0.9617    0.7226 H   0  0  0  0  0  0  0  0  0  0  0  0
    8.4708    0.6484    1.2543 H   0  0  0  0  0  0  0  0  0  0  0  0
  1  2  1  0
  2  3  2  0
  3  4  1  0
  4  5  2  0
  5  6  1  0
  6  7  1  0
  7  8  1  0
  8  9  1  0
  9 10  2  0
  9 11  1  0
 11 12  1  0
 12 13  1  0
 13 14  1  0
 14 15  2  0
 14 16  2  0
 14 17  1  0
 17 18  2  0
 18 19  1  0
 19 20  2  0
 20 21  1  0
 21 22  2  0
 21 23  1  0
 23 24  2  0
 23 25  1  0
 25 26  1  0
 25 27  1  0
 27 28  2  0
 27 29  1  0
 29 30  1  0
  5 31  1  0
 31 32  2  0
 32  2  1  0
 22 17  1  0
 29 20  1  0
  1 33  1  0
  1 34  1  0
  1 35  1  0
  3 36  1  0
  4 37  1  0
  6 38  1  0
  6 39  1  0
  7 40  1  0
  7 41  1  0
  8 42  1  0
 11 43  1  0
 11 44  1  0
 12 45  1  0
 12 46  1  0
 13 47  1  0
 18 48  1  0
 19 49  1  0
 22 50  1  0
 26 51  1  0
 26 52  1  0
 26 53  1  0
 30 54  1  0
 30 55  1  0
 30 56  1  0
 31 57  1  0
 32 58  1  0
M  END
$$$$
