
     RDKit          3D

 39 40  0  0  0  0  0  0  0  0999 V2000
    0.1063   -1.1942    0.7097 O   0  0  0  0  0  0  0  0  0  0  0  0
   -0.4838   -0.1814    0.3357 C   0  0  0  0  0  0  0  0  0  0  0  0
   -1.9295   -0.3114   -0.0056 C   0  0  0  0  0  0  0  0  0  0  0  0
   -2.7163    0.7025   -0.3955 C   0  0  0  0  0  0  0  0  0  0  0  0
   -4.1423    0.5377   -0.7146 C   0  0  0  0  0  0  0  0  0  0  0  0
   -5.0385    1.5511   -0.3485 C   0  0  0  0  0  0  0  0  0  0  0  0
   -6.3964    1.4437   -0.6583 C   0  0  0  0  0  0  0  0  0  0  0  0
   -6.8602    0.3295   -1.3453 C   0  0  0  0  0  0  0  0  0  0  0  0
   -8.1919    0.2664   -1.6275 O   0  0  0  0  0  0  0  0  0  0  0  0
   -5.9872   -0.6805   -1.7330 C   0  0  0  0  0  0  0  0  0  0  0  0
   -4.6281   -0.5722   -1.4216 C   0  0  0  0  0  0  0  0  0  0  0  0
    0.1842    1.1665    0.2334 C   0  0  0  0  0  0  0  0  0  0  0  0
    1.6710    1.1430    0.4826 C   0  0  0  0  0  0  0  0  0  0  0  0
    2.4640    1.4543   -0.4033 O   0  0  0  0  0  0  0  0  0  0  0  0
    2.1263    0.8145    1.8666 C   0  0  0  0  0  0  0  0  0  0  0  0
    3.2762    0.2024    2.1880 C   0  0  0  0  0  0  0  0  0  0  0  0
    4.2889   -0.3212    1.2667 C   0  0  0  0  0  0  0  0  0  0  0  0
    3.9690   -1.3022    0.3186 C   0  0  0  0  0  0  0  0  0  0  0  0
    4.9552   -1.8197   -0.5254 C   0  0  0  0  0  0  0  0  0  0  0  0
    6.2635   -1.3617   -0.4089 C   0  0  0  0  0  0  0  0  0  0  0  0
    7.2569   -1.8401   -1.2116 O   0  0  0  0  0  0  0  0  0  0  0  0
    6.6002   -0.4003    0.5363 C   0  0  0  0  0  0  0  0  0  0  0  0
    5.6134    0.1183    1.3774 C   0  0  0  0  0  0  0  0  0  0  0  0
   -2.3115   -1.3226    0.1039 H   0  0  0  0  0  0  0  0  0  0  0  0
   -2.3445    1.7198   -0.4795 H   0  0  0  0  0  0  0  0  0  0  0  0
   -4.6934    2.4314    0.1890 H   0  0  0  0  0  0  0  0  0  0  0  0
   -7.0887    2.2282   -0.3656 H   0  0  0  0  0  0  0  0  0  0  0  0
   -8.3704   -0.5594   -2.1066 H   0  0  0  0  0  0  0  0  0  0  0  0
   -6.3388   -1.5503   -2.2788 H   0  0  0  0  0  0  0  0  0  0  0  0
   -3.9548   -1.3610   -1.7494 H   0  0  0  0  0  0  0  0  0  0  0  0
   -0.2742    1.8608    0.9459 H   0  0  0  0  0  0  0  0  0  0  0  0
    0.0310    1.5566   -0.7796 H   0  0  0  0  0  0  0  0  0  0  0  0
    1.4376    1.0909    2.6578 H   0  0  0  0  0  0  0  0  0  0  0  0
    3.5036    0.0376    3.2392 H   0  0  0  0  0  0  0  0  0  0  0  0
    2.9482   -1.6686    0.2299 H   0  0  0  0  0  0  0  0  0  0  0  0
    4.6820   -2.5721   -1.2576 H   0  0  0  0  0  0  0  0  0  0  0  0
    6.8621   -2.4576   -1.8486 H   0  0  0  0  0  0  0  0  0  0  0  0
    7.6256   -0.0520    0.6160 H   0  0  0  0  0  0  0  0  0  0  0  0
    5.8854    0.8734    2.1103 H   0  0  0  0  0  0  0  0  0  0  0  0
  1  2  2  0
  2  3  1  0
  3  4  2  3
  4  5  1  0
  5  6  2  0
  6  7  1  0
  7  8  2  0
  8  9  1  0
  8 10  1  0
 10 11  2  0
  2 12  1  0
 12 13  1  0
 13 14  2  0
 13 15  1  0
 15 16  2  3
 16 17  1  0
 17 18  2  0
 18 19  1  0
 19 20  2  0
 20 21  1  0
 20 22  1  0
 22 23  2  0
 11  5  1  0
 23 17  1  0
  3 24  1  0
  4 25  1  0
  6 26  1  0
  7 27  1  0
  9 28  1  0
 10 29  1  0
 11 30  1  0
 12 31  1  0
 12 32  1  0
 15 33  1  0
 16 34  1  0
 18 35  1  0
 19 36  1  0
 21 37  1  0
 22 38  1  0
 23 39  1  0
M  END
$$$$
