
     RDKit          3D

 58 63  0  0  0  0  0  0  0  0999 V2000
    8.0089    2.1207    0.1419 C   0  0  0  0  0  0  0  0  0  0  0  0
    6.7981    1.3218   -0.1987 C   0  0  0  0  0  0  0  0  0  0  0  0
    6.5144    0.0116    0.1234 C   0  0  0  0  0  0  0  0  0  0  0  0
    5.2537   -0.4088   -0.3930 C   0  0  0  0  0  0  0  0  0  0  0  0
    4.6019    0.5991   -1.0795 C   0  0  0  0  0  0  0  0  0  0  0  0
    3.3151    0.5792   -1.7609 C   0  0  0  0  0  0  0  0  0  0  0  0
    3.1549    1.0735   -2.8785 O   0  0  0  0  0  0  0  0  0  0  0  0
    2.2371   -0.0488   -1.1128 N   0  0  0  0  0  0  0  0  0  0  0  0
    1.0026   -0.2128   -1.8678 C   0  0  0  0  0  0  0  0  0  0  0  0
    0.1051   -1.2884   -1.2688 C   0  0  0  0  0  0  0  0  0  0  0  0
   -0.2467   -1.0315    0.2228 C   0  0  0  0  0  0  0  0  0  0  0  0
    0.7641   -0.0469    0.8701 C   0  0  0  0  0  0  0  0  0  0  0  0
    2.1762   -0.2672    0.3335 C   0  0  0  0  0  0  0  0  0  0  0  0
    0.0071   -2.2716    0.9457 O   0  0  0  0  0  0  0  0  0  0  0  0
   -0.9634   -3.2273    0.9363 C   0  0  0  0  0  0  0  0  0  0  0  0
   -0.5841   -4.4887    1.3966 C   0  0  0  0  0  0  0  0  0  0  0  0
   -1.5051   -5.5392    1.4049 C   0  0  0  0  0  0  0  0  0  0  0  0
   -2.8071   -5.3238    0.9545 C   0  0  0  0  0  0  0  0  0  0  0  0
   -3.9366   -6.6206    0.9598 Cl  0  0  0  0  0  0  0  0  0  0  0  0
   -3.1982   -4.0658    0.5045 C   0  0  0  0  0  0  0  0  0  0  0  0
   -2.2697   -3.0192    0.5100 C   0  0  0  0  0  0  0  0  0  0  0  0
   -2.6595   -1.6763    0.0627 C   0  0  0  0  0  0  0  0  0  0  0  0
   -3.6955   -1.5271   -0.5803 O   0  0  0  0  0  0  0  0  0  0  0  0
   -1.7083   -0.5421    0.4314 C   0  0  0  0  0  0  0  0  0  0  0  0
   -2.0789    0.7381   -0.3055 C   0  0  0  0  0  0  0  0  0  0  0  0
   -2.9221    1.3728    0.7481 C   0  0  0  0  0  0  0  0  0  0  0  0
   -3.7853    2.5443    0.4671 C   0  0  0  0  0  0  0  0  0  0  0  0
   -3.7692    3.1855   -0.7775 C   0  0  0  0  0  0  0  0  0  0  0  0
   -4.5928    4.2934   -1.0050 C   0  0  0  0  0  0  0  0  0  0  0  0
   -5.4294    4.7598    0.0080 C   0  0  0  0  0  0  0  0  0  0  0  0
   -6.4383    6.1229   -0.2776 Cl  0  0  0  0  0  0  0  0  0  0  0  0
   -5.4511    4.1291    1.2496 C   0  0  0  0  0  0  0  0  0  0  0  0
   -4.6288    3.0226    1.4795 C   0  0  0  0  0  0  0  0  0  0  0  0
   -2.8105    0.8434    1.9247 N   0  0  0  0  0  0  0  0  0  0  0  0
   -1.9198   -0.2465    1.8221 O   0  0  0  0  0  0  0  0  0  0  0  0
    5.5458    2.0274   -1.1264 S   0  0  0  0  0  0  0  0  0  0  0  0
    8.6734    1.5591    0.8073 H   0  0  0  0  0  0  0  0  0  0  0  0
    8.5723    2.3715   -0.7629 H   0  0  0  0  0  0  0  0  0  0  0  0
    7.7340    3.0506    0.6516 H   0  0  0  0  0  0  0  0  0  0  0  0
    7.1839   -0.6227    0.6923 H   0  0  0  0  0  0  0  0  0  0  0  0
    4.8529   -1.4084   -0.2755 H   0  0  0  0  0  0  0  0  0  0  0  0
    0.4953    0.7577   -1.8928 H   0  0  0  0  0  0  0  0  0  0  0  0
    1.2442   -0.4744   -2.9047 H   0  0  0  0  0  0  0  0  0  0  0  0
    0.6200   -2.2539   -1.3670 H   0  0  0  0  0  0  0  0  0  0  0  0
   -0.8004   -1.3720   -1.8806 H   0  0  0  0  0  0  0  0  0  0  0  0
    0.4880    0.9960    0.6830 H   0  0  0  0  0  0  0  0  0  0  0  0
    0.7818   -0.1820    1.9591 H   0  0  0  0  0  0  0  0  0  0  0  0
    2.8600    0.4149    0.8479 H   0  0  0  0  0  0  0  0  0  0  0  0
    2.5063   -1.2938    0.5267 H   0  0  0  0  0  0  0  0  0  0  0  0
    0.4321   -4.6588    1.7446 H   0  0  0  0  0  0  0  0  0  0  0  0
   -1.2010   -6.5203    1.7618 H   0  0  0  0  0  0  0  0  0  0  0  0
   -4.2167   -3.8955    0.1628 H   0  0  0  0  0  0  0  0  0  0  0  0
   -1.2322    1.4008   -0.4951 H   0  0  0  0  0  0  0  0  0  0  0  0
   -2.6197    0.5765   -1.2406 H   0  0  0  0  0  0  0  0  0  0  0  0
   -3.1254    2.8489   -1.5846 H   0  0  0  0  0  0  0  0  0  0  0  0
   -4.5764    4.7878   -1.9734 H   0  0  0  0  0  0  0  0  0  0  0  0
   -6.1023    4.4897    2.0418 H   0  0  0  0  0  0  0  0  0  0  0  0
   -4.6543    2.5360    2.4531 H   0  0  0  0  0  0  0  0  0  0  0  0
  1  2  1  0
  2  3  2  0
  3  4  1  0
  4  5  2  0
  5  6  1  0
  6  7  2  0
  6  8  1  0
  8  9  1  0
  9 10  1  0
 10 11  1  0
 11 12  1  0
 12 13  1  0
 11 14  1  0
 14 15  1  0
 15 16  2  0
 16 17  1  0
 17 18  2  0
 18 19  1  0
 18 20  1  0
 20 21  2  0
 21 22  1  0
 22 23  2  0
 22 24  1  0
 24 25  1  0
 25 26  1  0
 26 27  1  0
 27 28  2  0
 28 29  1  0
 29 30  2  0
 30 31  1  0
 30 32  1  0
 32 33  2  0
 26 34  2  0
 34 35  1  0
  5 36  1  0
 36  2  1  0
 13  8  1  0
 21 15  1  0
 35 24  1  0
 24 11  1  0
 33 27  1  0
  1 37  1  0
  1 38  1  0
  1 39  1  0
  3 40  1  0
  4 41  1  0
  9 42  1  0
  9 43  1  0
 10 44  1  0
 10 45  1  0
 12 46  1  0
 12 47  1  0
 13 48  1  0
 13 49  1  0
 16 50  1  0
 17 51  1  0
 20 52  1  0
 25 53  1  0
 25 54  1  0
 28 55  1  0
 29 56  1  0
 32 57  1  0
 33 58  1  0
M  END
$$$$
