
     RDKit          3D

 61 65  0  0  0  0  0  0  0  0999 V2000
   -8.5780   -0.9244   -0.4265 C   0  0  0  0  0  0  0  0  0  0  0  0
   -7.6177   -0.6979    0.5974 O   0  0  0  0  0  0  0  0  0  0  0  0
   -6.3952   -0.2016    0.2192 C   0  0  0  0  0  0  0  0  0  0  0  0
   -5.9578   -0.1090   -1.1049 C   0  0  0  0  0  0  0  0  0  0  0  0
   -4.6892    0.4034   -1.3960 C   0  0  0  0  0  0  0  0  0  0  0  0
   -3.8359    0.8331   -0.3722 C   0  0  0  0  0  0  0  0  0  0  0  0
   -2.5157    1.3906   -0.6538 C   0  0  0  0  0  0  0  0  0  0  0  0
   -1.6560    1.9602    0.1692 N   0  0  0  0  0  0  0  0  0  0  0  0
   -0.5875    2.3171   -0.6322 C   0  0  0  0  0  0  0  0  0  0  0  0
    0.5596    3.0590   -0.0442 C   0  0  0  0  0  0  0  0  0  0  0  0
    1.8520    2.5332   -0.4528 N   0  0  0  0  0  0  0  0  0  0  0  0
    2.5131    1.4493    0.0699 C   0  0  0  0  0  0  0  0  0  0  0  0
    1.8448    0.4342    1.3038 S   0  0  0  0  0  0  0  0  0  0  0  0
    3.3364   -0.0626    2.2064 C   0  0  0  0  0  0  0  0  0  0  0  0
    3.8200   -1.4466    1.8502 C   0  0  0  0  0  0  0  0  0  0  0  0
    4.7896   -1.6304    0.8551 C   0  0  0  0  0  0  0  0  0  0  0  0
    5.2678   -2.9077    0.5529 C   0  0  0  0  0  0  0  0  0  0  0  0
    4.7748   -4.0277    1.2314 C   0  0  0  0  0  0  0  0  0  0  0  0
    5.3246   -5.3937    0.9508 C   0  0  0  0  0  0  0  0  0  0  0  0
    3.8006   -3.8486    2.2216 C   0  0  0  0  0  0  0  0  0  0  0  0
    3.3192   -2.5730    2.5187 C   0  0  0  0  0  0  0  0  0  0  0  0
    3.6927    1.2893   -0.4777 N   0  0  0  0  0  0  0  0  0  0  0  0
    3.8153    2.2991   -1.3938 C   0  0  0  0  0  0  0  0  0  0  0  0
    4.8710    2.5813   -2.2608 C   0  0  0  0  0  0  0  0  0  0  0  0
    4.7026    3.6898   -3.0678 C   0  0  0  0  0  0  0  0  0  0  0  0
    3.6129    4.4955   -3.0567 N   0  0  0  0  0  0  0  0  0  0  0  0
    2.5944    4.2253   -2.2082 C   0  0  0  0  0  0  0  0  0  0  0  0
    2.6898    3.1127   -1.3857 C   0  0  0  0  0  0  0  0  0  0  0  0
   -0.8617    1.9499   -1.9353 C   0  0  0  0  0  0  0  0  0  0  0  0
   -0.1725    2.0710   -3.2335 C   0  0  0  0  0  0  0  0  0  0  0  0
   -2.0889    1.3485   -1.9527 O   0  0  0  0  0  0  0  0  0  0  0  0
   -4.2783    0.7352    0.9572 C   0  0  0  0  0  0  0  0  0  0  0  0
   -5.5445    0.2184    1.2623 C   0  0  0  0  0  0  0  0  0  0  0  0
   -6.0457    0.0981    2.5361 O   0  0  0  0  0  0  0  0  0  0  0  0
   -5.1747    0.4003    3.6203 C   0  0  0  0  0  0  0  0  0  0  0  0
   -9.5080   -1.2438    0.0561 H   0  0  0  0  0  0  0  0  0  0  0  0
   -8.2587   -1.7300   -1.1007 H   0  0  0  0  0  0  0  0  0  0  0  0
   -8.7908   -0.0018   -0.9832 H   0  0  0  0  0  0  0  0  0  0  0  0
   -6.5772   -0.4335   -1.9371 H   0  0  0  0  0  0  0  0  0  0  0  0
   -4.3772    0.4654   -2.4372 H   0  0  0  0  0  0  0  0  0  0  0  0
    0.5035    4.1128   -0.3408 H   0  0  0  0  0  0  0  0  0  0  0  0
    0.5229    3.0441    1.0510 H   0  0  0  0  0  0  0  0  0  0  0  0
    4.1420    0.6707    2.0865 H   0  0  0  0  0  0  0  0  0  0  0  0
    3.0871   -0.0417    3.2756 H   0  0  0  0  0  0  0  0  0  0  0  0
    5.1842   -0.7745    0.3095 H   0  0  0  0  0  0  0  0  0  0  0  0
    6.0284   -3.0212   -0.2190 H   0  0  0  0  0  0  0  0  0  0  0  0
    4.5363   -6.1501    1.0016 H   0  0  0  0  0  0  0  0  0  0  0  0
    6.0973   -5.6408    1.6821 H   0  0  0  0  0  0  0  0  0  0  0  0
    5.7606   -5.4426   -0.0498 H   0  0  0  0  0  0  0  0  0  0  0  0
    3.4109   -4.7035    2.7712 H   0  0  0  0  0  0  0  0  0  0  0  0
    2.5570   -2.4626    3.2861 H   0  0  0  0  0  0  0  0  0  0  0  0
    5.7624    1.9667   -2.2976 H   0  0  0  0  0  0  0  0  0  0  0  0
    5.4766    3.9742   -3.7778 H   0  0  0  0  0  0  0  0  0  0  0  0
    1.7493    4.8983   -2.2322 H   0  0  0  0  0  0  0  0  0  0  0  0
    0.1501    3.0994   -3.4017 H   0  0  0  0  0  0  0  0  0  0  0  0
   -0.8342    1.7941   -4.0614 H   0  0  0  0  0  0  0  0  0  0  0  0
    0.7057    1.4150   -3.2697 H   0  0  0  0  0  0  0  0  0  0  0  0
   -3.6082    1.0733    1.7416 H   0  0  0  0  0  0  0  0  0  0  0  0
   -4.2888   -0.2418    3.6073 H   0  0  0  0  0  0  0  0  0  0  0  0
   -5.7152    0.1953    4.5484 H   0  0  0  0  0  0  0  0  0  0  0  0
   -4.8981    1.4613    3.6237 H   0  0  0  0  0  0  0  0  0  0  0  0
  1  2  1  0
  2  3  1  0
  3  4  2  0
  4  5  1  0
  5  6  2  0
  6  7  1  0
  7  8  2  0
  8  9  1  0
  9 10  1  0
 10 11  1  0
 11 12  1  0
 12 13  1  0
 13 14  1  0
 14 15  1  0
 15 16  2  0
 16 17  1  0
 17 18  2  0
 18 19  1  0
 18 20  1  0
 20 21  2  0
 12 22  2  0
 22 23  1  0
 23 24  2  0
 24 25  1  0
 25 26  2  0
 26 27  1  0
 27 28  2  0
  9 29  2  0
 29 30  1  0
 29 31  1  0
  6 32  1  0
 32 33  2  0
 33 34  1  0
 34 35  1  0
 33  3  1  0
 31  7  1  0
 28 11  1  0
 21 15  1  0
 28 23  1  0
  1 36  1  0
  1 37  1  0
  1 38  1  0
  4 39  1  0
  5 40  1  0
 10 41  1  0
 10 42  1  0
 14 43  1  0
 14 44  1  0
 16 45  1  0
 17 46  1  0
 19 47  1  0
 19 48  1  0
 19 49  1  0
 20 50  1  0
 21 51  1  0
 24 52  1  0
 25 53  1  0
 27 54  1  0
 30 55  1  0
 30 56  1  0
 30 57  1  0
 32 58  1  0
 35 59  1  0
 35 60  1  0
 35 61  1  0
M  END
$$$$
