
     RDKit          3D

 57 60  0  0  0  0  0  0  0  0999 V2000
   -1.3335    4.4876   -0.2924 C   0  0  0  0  0  0  0  0  0  0  0  0
   -0.8627    3.1927   -0.9465 C   0  0  0  0  0  0  0  0  0  0  0  0
   -0.4816    2.1281    0.0929 C   0  0  0  0  0  0  0  0  0  0  0  0
   -0.2650    0.4973   -0.7377 S   0  0  0  0  0  0  0  0  0  0  0  0
   -1.9422    0.0953   -1.0809 C   0  0  0  0  0  0  0  0  0  0  0  0
   -2.7814    0.3498   -0.1220 N   0  0  0  0  0  0  0  0  0  0  0  0
   -4.1071    0.0347   -0.4063 C   0  0  0  0  0  0  0  0  0  0  0  0
   -5.1752    0.2270    0.4967 C   0  0  0  0  0  0  0  0  0  0  0  0
   -6.3721   -0.1712   -0.0671 C   0  0  0  0  0  0  0  0  0  0  0  0
   -6.1661   -0.7631   -1.6704 S   0  0  0  0  0  0  0  0  0  0  0  0
   -4.4943   -0.4883   -1.6019 C   0  0  0  0  0  0  0  0  0  0  0  0
   -3.5714   -0.7656   -2.6615 C   0  0  0  0  0  0  0  0  0  0  0  0
   -3.9028   -1.2206   -3.7544 O   0  0  0  0  0  0  0  0  0  0  0  0
   -2.2434   -0.4604   -2.3273 N   0  0  0  0  0  0  0  0  0  0  0  0
   -1.2404   -0.7522   -3.3585 C   0  0  0  0  0  0  0  0  0  0  0  0
   -0.5513   -2.0889   -3.1552 C   0  0  0  0  0  0  0  0  0  0  0  0
    0.8279   -2.1489   -2.9018 C   0  0  0  0  0  0  0  0  0  0  0  0
    1.4690   -3.3777   -2.7153 C   0  0  0  0  0  0  0  0  0  0  0  0
    0.7398   -4.5686   -2.7890 C   0  0  0  0  0  0  0  0  0  0  0  0
    1.3741   -5.8952   -2.5983 C   0  0  0  0  0  0  0  0  0  0  0  0
    0.8045   -6.9701   -2.6337 O   0  0  0  0  0  0  0  0  0  0  0  0
    2.6972   -5.8140   -2.3722 O   0  0  0  0  0  0  0  0  0  0  0  0
   -0.6322   -4.5202   -3.0559 C   0  0  0  0  0  0  0  0  0  0  0  0
   -1.2711   -3.2906   -3.2415 C   0  0  0  0  0  0  0  0  0  0  0  0
    0.8431    2.4468    0.8114 C   0  0  0  0  0  0  0  0  0  0  0  0
    1.5863    3.3506    0.4413 O   0  0  0  0  0  0  0  0  0  0  0  0
    1.0635    1.6076    1.8978 N   0  0  0  0  0  0  0  0  0  0  0  0
    2.1423    1.6334    2.8049 C   0  0  0  0  0  0  0  0  0  0  0  0
    3.1500    2.5964    2.7930 C   0  0  0  0  0  0  0  0  0  0  0  0
    4.1867    2.5547    3.7334 C   0  0  0  0  0  0  0  0  0  0  0  0
    4.2366    1.5491    4.7075 C   0  0  0  0  0  0  0  0  0  0  0  0
    5.3622    1.5337    5.7020 C   0  0  0  0  0  0  0  0  0  0  0  0
    3.2198    0.5858    4.7177 C   0  0  0  0  0  0  0  0  0  0  0  0
    3.1968   -0.6895    5.8842 Cl  0  0  0  0  0  0  0  0  0  0  0  0
    2.1839    0.6283    3.7770 C   0  0  0  0  0  0  0  0  0  0  0  0
   -2.2042    4.3073    0.3466 H   0  0  0  0  0  0  0  0  0  0  0  0
   -1.6232    5.2120   -1.0605 H   0  0  0  0  0  0  0  0  0  0  0  0
   -0.5481    4.9425    0.3178 H   0  0  0  0  0  0  0  0  0  0  0  0
   -0.0169    3.4160   -1.6085 H   0  0  0  0  0  0  0  0  0  0  0  0
   -1.6816    2.8364   -1.5831 H   0  0  0  0  0  0  0  0  0  0  0  0
   -1.2579    2.0583    0.8633 H   0  0  0  0  0  0  0  0  0  0  0  0
   -5.0843    0.6297    1.4971 H   0  0  0  0  0  0  0  0  0  0  0  0
   -7.3579   -0.1460    0.3775 H   0  0  0  0  0  0  0  0  0  0  0  0
   -0.5054    0.0594   -3.3944 H   0  0  0  0  0  0  0  0  0  0  0  0
   -1.6997   -0.7575   -4.3546 H   0  0  0  0  0  0  0  0  0  0  0  0
    1.4220   -1.2382   -2.8443 H   0  0  0  0  0  0  0  0  0  0  0  0
    2.5378   -3.3930   -2.5143 H   0  0  0  0  0  0  0  0  0  0  0  0
    2.9745   -6.7486   -2.2695 H   0  0  0  0  0  0  0  0  0  0  0  0
   -1.2104   -5.4401   -3.1262 H   0  0  0  0  0  0  0  0  0  0  0  0
   -2.3365   -3.2872   -3.4658 H   0  0  0  0  0  0  0  0  0  0  0  0
    0.4046    0.8442    2.0077 H   0  0  0  0  0  0  0  0  0  0  0  0
    3.1632    3.4020    2.0651 H   0  0  0  0  0  0  0  0  0  0  0  0
    4.9572    3.3227    3.6934 H   0  0  0  0  0  0  0  0  0  0  0  0
    6.0623    2.3581    5.5280 H   0  0  0  0  0  0  0  0  0  0  0  0
    5.9296    0.6009    5.6229 H   0  0  0  0  0  0  0  0  0  0  0  0
    4.9738    1.6424    6.7197 H   0  0  0  0  0  0  0  0  0  0  0  0
    1.4109   -0.1349    3.8122 H   0  0  0  0  0  0  0  0  0  0  0  0
  1  2  1  0
  2  3  1  0
  3  4  1  0
  4  5  1  0
  5  6  2  0
  6  7  1  0
  7  8  1  0
  8  9  2  0
  9 10  1  0
 10 11  1  0
 11 12  1  0
 12 13  2  0
 12 14  1  0
 14 15  1  0
 15 16  1  0
 16 17  2  0
 17 18  1  0
 18 19  2  0
 19 20  1  0
 20 21  2  0
 20 22  1  0
 19 23  1  0
 23 24  2  0
  3 25  1  0
 25 26  2  0
 25 27  1  0
 27 28  1  0
 28 29  2  0
 29 30  1  0
 30 31  2  0
 31 32  1  0
 31 33  1  0
 33 34  1  0
 33 35  2  0
 14  5  1  0
 24 16  1  0
 35 28  1  0
 11  7  2  0
  1 36  1  0
  1 37  1  0
  1 38  1  0
  2 39  1  0
  2 40  1  0
  3 41  1  0
  8 42  1  0
  9 43  1  0
 15 44  1  0
 15 45  1  0
 17 46  1  0
 18 47  1  0
 22 48  1  0
 23 49  1  0
 24 50  1  0
 27 51  1  0
 29 52  1  0
 30 53  1  0
 32 54  1  0
 32 55  1  0
 32 56  1  0
 35 57  1  0
M  END
$$$$
