
     RDKit          3D

 37 39  0  0  0  0  0  0  0  0999 V2000
    6.2936   -0.9981   -0.1547 C   0  0  0  0  0  0  0  0  0  0  0  0
    5.9369    0.0557    0.8852 C   0  0  0  0  0  0  0  0  0  0  0  0
    4.7180   -0.3187    1.7310 C   0  0  0  0  0  0  0  0  0  0  0  0
    3.4472   -0.3365    0.9454 C   0  0  0  0  0  0  0  0  0  0  0  0
    2.9198   -1.4108    0.3956 N   0  0  0  0  0  0  0  0  0  0  0  0
    1.7433   -1.1252   -0.2672 N   0  0  0  0  0  0  0  0  0  0  0  0
    1.4237    0.1475   -0.1879 C   0  0  0  0  0  0  0  0  0  0  0  0
    0.2944    0.6540   -0.7751 N   0  0  0  0  0  0  0  0  0  0  0  0
   -0.1667    1.9493   -0.7213 C   0  0  0  0  0  0  0  0  0  0  0  0
    0.3603    2.9027   -0.1568 O   0  0  0  0  0  0  0  0  0  0  0  0
   -1.4670    2.1378   -1.5117 C   0  0  0  0  0  0  0  0  0  0  0  0
   -2.2482    0.9581   -1.6534 O   0  0  0  0  0  0  0  0  0  0  0  0
   -3.0372    0.5760   -0.6012 C   0  0  0  0  0  0  0  0  0  0  0  0
   -3.0756    1.1850    0.6676 C   0  0  0  0  0  0  0  0  0  0  0  0
   -3.9149    0.6859    1.6729 C   0  0  0  0  0  0  0  0  0  0  0  0
   -4.6914   -0.4129    1.3801 C   0  0  0  0  0  0  0  0  0  0  0  0
   -4.6548   -1.0103    0.1444 C   0  0  0  0  0  0  0  0  0  0  0  0
   -3.8398   -0.5408   -0.8635 C   0  0  0  0  0  0  0  0  0  0  0  0
   -5.4921   -2.0782    0.0592 O   0  0  0  0  0  0  0  0  0  0  0  0
   -6.0569   -2.0868    1.3873 C   0  0  0  0  0  0  0  0  0  0  0  0
   -5.5559   -1.0275    2.2296 O   0  0  0  0  0  0  0  0  0  0  0  0
    2.5305    1.0944    0.6939 S   0  0  0  0  0  0  0  0  0  0  0  0
    5.5038   -1.1055   -0.9044 H   0  0  0  0  0  0  0  0  0  0  0  0
    7.2125   -0.7136   -0.6774 H   0  0  0  0  0  0  0  0  0  0  0  0
    6.4595   -1.9728    0.3149 H   0  0  0  0  0  0  0  0  0  0  0  0
    6.7966    0.1844    1.5539 H   0  0  0  0  0  0  0  0  0  0  0  0
    5.7777    1.0180    0.3842 H   0  0  0  0  0  0  0  0  0  0  0  0
    4.8726   -1.3046    2.1866 H   0  0  0  0  0  0  0  0  0  0  0  0
    4.6280    0.3916    2.5623 H   0  0  0  0  0  0  0  0  0  0  0  0
   -0.2777   -0.0401   -1.2430 H   0  0  0  0  0  0  0  0  0  0  0  0
   -1.1728    2.4473   -2.5213 H   0  0  0  0  0  0  0  0  0  0  0  0
   -2.0547    2.9617   -1.0905 H   0  0  0  0  0  0  0  0  0  0  0  0
   -2.4634    2.0474    0.9148 H   0  0  0  0  0  0  0  0  0  0  0  0
   -3.9509    1.1469    2.6542 H   0  0  0  0  0  0  0  0  0  0  0  0
   -3.8257   -1.0273   -1.8329 H   0  0  0  0  0  0  0  0  0  0  0  0
   -5.8277   -3.0491    1.8595 H   0  0  0  0  0  0  0  0  0  0  0  0
   -7.1452   -1.9850    1.3059 H   0  0  0  0  0  0  0  0  0  0  0  0
  1  2  1  0
  2  3  1  0
  3  4  1  0
  4  5  2  0
  5  6  1  0
  6  7  2  0
  7  8  1  0
  8  9  1  0
  9 10  2  0
  9 11  1  0
 11 12  1  0
 12 13  1  0
 13 14  2  0
 14 15  1  0
 15 16  2  0
 16 17  1  0
 17 18  2  0
 17 19  1  0
 19 20  1  0
 20 21  1  0
  7 22  1  0
 22  4  1  0
 18 13  1  0
 21 16  1  0
  1 23  1  0
  1 24  1  0
  1 25  1  0
  2 26  1  0
  2 27  1  0
  3 28  1  0
  3 29  1  0
  8 30  1  0
 11 31  1  0
 11 32  1  0
 14 33  1  0
 15 34  1  0
 18 35  1  0
 20 36  1  0
 20 37  1  0
M  END
$$$$
