
     RDKit          3D

 49 52  0  0  0  0  0  0  0  0999 V2000
   -0.1300    3.9773   -1.1143 O   0  0  0  0  0  0  0  0  0  0  0  0
   -1.1044    3.2616   -1.2482 C   0  0  0  0  0  0  0  0  0  0  0  0
   -1.7667    3.1471   -2.4093 O   0  0  0  0  0  0  0  0  0  0  0  0
   -1.7460    2.4831   -0.1766 C   0  0  0  0  0  0  0  0  0  0  0  0
   -2.1475    3.2390    0.9408 C   0  0  0  0  0  0  0  0  0  0  0  0
   -2.8689    2.6446    1.9697 C   0  0  0  0  0  0  0  0  0  0  0  0
   -3.2097    1.3011    1.8723 C   0  0  0  0  0  0  0  0  0  0  0  0
   -2.7949    0.5447    0.7633 C   0  0  0  0  0  0  0  0  0  0  0  0
   -3.2113   -0.8732    0.6845 C   0  0  0  0  0  0  0  0  0  0  0  0
   -3.8207   -1.3965    1.6125 O   0  0  0  0  0  0  0  0  0  0  0  0
   -2.9111   -1.6298   -0.5453 C   0  0  0  0  0  0  0  0  0  0  0  0
   -3.4568   -2.9092   -0.7196 C   0  0  0  0  0  0  0  0  0  0  0  0
   -3.1967   -3.6197   -1.8879 C   0  0  0  0  0  0  0  0  0  0  0  0
   -2.4028   -3.0482   -2.8781 C   0  0  0  0  0  0  0  0  0  0  0  0
   -1.8555   -1.7730   -2.6947 C   0  0  0  0  0  0  0  0  0  0  0  0
   -2.0796   -1.0473   -1.5130 C   0  0  0  0  0  0  0  0  0  0  0  0
   -1.5321    0.2520   -1.3122 N   0  0  0  0  0  0  0  0  0  0  0  0
   -0.0489    0.2986   -1.5317 C   0  0  0  0  0  0  0  0  0  0  0  0
    0.7656   -0.2943   -0.3574 C   0  0  0  0  0  0  0  0  0  0  0  0
    0.7975   -1.7268   -0.4416 O   0  0  0  0  0  0  0  0  0  0  0  0
    2.2221    0.2209   -0.3948 C   0  0  0  0  0  0  0  0  0  0  0  0
    3.0567   -0.4525    0.6176 N   0  0  0  0  0  0  0  0  0  0  0  0
    4.4744   -0.1106    0.4611 C   0  0  0  0  0  0  0  0  0  0  0  0
    5.0852   -0.5873    1.7684 C   0  0  0  0  0  0  0  0  0  0  0  0
    3.9542   -0.5013    2.7863 C   0  0  0  0  0  0  0  0  0  0  0  0
    2.7334   -0.0558    1.9931 C   0  0  0  0  0  0  0  0  0  0  0  0
   -2.0044    1.0976   -0.2653 C   0  0  0  0  0  0  0  0  0  0  0  0
   -1.2973    3.7351   -3.0353 H   0  0  0  0  0  0  0  0  0  0  0  0
   -1.9172    4.3020    0.9934 H   0  0  0  0  0  0  0  0  0  0  0  0
   -3.1899    3.2297    2.8280 H   0  0  0  0  0  0  0  0  0  0  0  0
   -3.8045    0.8376    2.6579 H   0  0  0  0  0  0  0  0  0  0  0  0
   -4.0854   -3.3464    0.0527 H   0  0  0  0  0  0  0  0  0  0  0  0
   -3.6183   -4.6114   -2.0279 H   0  0  0  0  0  0  0  0  0  0  0  0
   -2.2081   -3.5923   -3.7990 H   0  0  0  0  0  0  0  0  0  0  0  0
   -1.2669   -1.3486   -3.5027 H   0  0  0  0  0  0  0  0  0  0  0  0
    0.2242   -0.2196   -2.4580 H   0  0  0  0  0  0  0  0  0  0  0  0
    0.2686    1.3290   -1.7016 H   0  0  0  0  0  0  0  0  0  0  0  0
    0.3090   -0.0340    0.6028 H   0  0  0  0  0  0  0  0  0  0  0  0
    1.5718   -1.9903    0.0980 H   0  0  0  0  0  0  0  0  0  0  0  0
    2.6379   -0.0159   -1.3831 H   0  0  0  0  0  0  0  0  0  0  0  0
    2.2465    1.3115   -0.2771 H   0  0  0  0  0  0  0  0  0  0  0  0
    4.9266   -0.6119   -0.4004 H   0  0  0  0  0  0  0  0  0  0  0  0
    4.6201    0.9721    0.3539 H   0  0  0  0  0  0  0  0  0  0  0  0
    5.9448    0.0240    2.0608 H   0  0  0  0  0  0  0  0  0  0  0  0
    5.4256   -1.6259    1.6805 H   0  0  0  0  0  0  0  0  0  0  0  0
    3.7884   -1.4842    3.2423 H   0  0  0  0  0  0  0  0  0  0  0  0
    4.1865    0.2064    3.5887 H   0  0  0  0  0  0  0  0  0  0  0  0
    2.6114    1.0312    2.0822 H   0  0  0  0  0  0  0  0  0  0  0  0
    1.8251   -0.5404    2.3643 H   0  0  0  0  0  0  0  0  0  0  0  0
  1  2  2  0
  2  3  1  0
  2  4  1  0
  4  5  2  0
  5  6  1  0
  6  7  2  0
  7  8  1  0
  8  9  1  0
  9 10  2  0
  9 11  1  0
 11 12  2  0
 12 13  1  0
 13 14  2  0
 14 15  1  0
 15 16  2  0
 16 17  1  0
 17 18  1  0
 18 19  1  0
 19 20  1  0
 19 21  1  0
 21 22  1  0
 22 23  1  0
 23 24  1  0
 24 25  1  0
 25 26  1  0
 17 27  1  0
 27  4  1  0
 27  8  2  0
 16 11  1  0
 26 22  1  0
  3 28  1  0
  5 29  1  0
  6 30  1  0
  7 31  1  0
 12 32  1  0
 13 33  1  0
 14 34  1  0
 15 35  1  0
 18 36  1  0
 18 37  1  0
 19 38  1  0
 20 39  1  0
 21 40  1  0
 21 41  1  0
 23 42  1  0
 23 43  1  0
 24 44  1  0
 24 45  1  0
 25 46  1  0
 25 47  1  0
 26 48  1  0
 26 49  1  0
M  END
$$$$
