
     RDKit          3D

 60 65  0  0  0  0  0  0  0  0999 V2000
   -1.7421   -3.6438    1.8597 O   0  0  0  0  0  0  0  0  0  0  0  0
   -2.0955   -2.4764    1.7479 C   0  0  0  0  0  0  0  0  0  0  0  0
   -1.2073   -1.4518    1.4436 N   0  0  0  0  0  0  0  0  0  0  0  0
   -1.5592   -0.1125    1.3332 C   0  0  0  0  0  0  0  0  0  0  0  0
   -0.4406    0.8706    0.9937 C   0  0  0  0  0  0  0  0  0  0  0  0
    0.7537    0.7447    1.9531 C   0  0  0  0  0  0  0  0  0  0  0  0
    1.9728    0.0875    1.3083 C   0  0  0  0  0  0  0  0  0  0  0  0
    1.5068   -1.0018    0.4227 N   0  0  0  0  0  0  0  0  0  0  0  0
    2.5962   -2.3017    0.1679 S   0  0  0  0  0  6  0  0  0  0  0  0
    3.1005   -2.7058    1.4616 O   0  0  0  0  0  0  0  0  0  0  0  0
    1.9351   -3.2412   -0.7110 O   0  0  0  0  0  0  0  0  0  0  0  0
    3.9379   -1.5603   -0.7326 C   0  0  0  0  0  0  0  0  0  0  0  0
    3.9782   -1.6595   -2.1284 C   0  0  0  0  0  0  0  0  0  0  0  0
    5.0418   -1.0885   -2.8291 C   0  0  0  0  0  0  0  0  0  0  0  0
    6.0609   -0.4366   -2.1357 C   0  0  0  0  0  0  0  0  0  0  0  0
    6.0401   -0.3868   -0.7370 C   0  0  0  0  0  0  0  0  0  0  0  0
    4.9777   -0.9440   -0.0303 C   0  0  0  0  0  0  0  0  0  0  0  0
    7.0301    0.2019    0.0068 O   0  0  0  0  0  0  0  0  0  0  0  0
    8.2161    0.4015   -0.7725 C   0  0  0  0  0  0  0  0  0  0  0  0
    7.8716    1.0127   -2.1206 C   0  0  0  0  0  0  0  0  0  0  0  0
    7.0600    0.1191   -2.8922 O   0  0  0  0  0  0  0  0  0  0  0  0
    0.7885   -0.5145   -0.7860 C   0  0  0  0  0  0  0  0  0  0  0  0
   -0.0237    0.7451   -0.4750 C   0  0  0  0  0  0  0  0  0  0  0  0
   -2.7757    0.3389    1.4811 N   0  0  0  0  0  0  0  0  0  0  0  0
   -3.6683   -0.6419    1.7659 C   0  0  0  0  0  0  0  0  0  0  0  0
   -3.4383   -1.9887    1.9125 C   0  0  0  0  0  0  0  0  0  0  0  0
   -4.5936   -2.6424    2.2095 N   0  0  0  0  0  0  0  0  0  0  0  0
   -5.5649   -1.7303    2.2541 N   0  0  0  0  0  0  0  0  0  0  0  0
   -5.0142   -0.5245    1.9710 N   0  0  0  0  0  0  0  0  0  0  0  0
   -5.8153    0.6822    1.9772 C   0  0  0  0  0  0  0  0  0  0  0  0
   -6.3695    0.9858    0.6123 C   0  0  0  0  0  0  0  0  0  0  0  0
   -5.5877    1.6193   -0.3661 C   0  0  0  0  0  0  0  0  0  0  0  0
   -6.1136    1.8759   -1.6350 C   0  0  0  0  0  0  0  0  0  0  0  0
   -7.4222    1.5020   -1.9409 C   0  0  0  0  0  0  0  0  0  0  0  0
   -8.2064    0.8714   -0.9771 C   0  0  0  0  0  0  0  0  0  0  0  0
   -7.6770    0.6187    0.2851 C   0  0  0  0  0  0  0  0  0  0  0  0
   -8.4524    0.0226    1.2012 F   0  0  0  0  0  0  0  0  0  0  0  0
   -0.2433   -1.7429    1.3150 H   0  0  0  0  0  0  0  0  0  0  0  0
   -0.8702    1.8726    1.1343 H   0  0  0  0  0  0  0  0  0  0  0  0
    0.4682    0.1867    2.8536 H   0  0  0  0  0  0  0  0  0  0  0  0
    1.0502    1.7417    2.3025 H   0  0  0  0  0  0  0  0  0  0  0  0
    2.5409    0.8232    0.7270 H   0  0  0  0  0  0  0  0  0  0  0  0
    2.6263   -0.2854    2.1025 H   0  0  0  0  0  0  0  0  0  0  0  0
    3.1928   -2.1779   -2.6748 H   0  0  0  0  0  0  0  0  0  0  0  0
    5.0775   -1.1506   -3.9140 H   0  0  0  0  0  0  0  0  0  0  0  0
    4.9783   -0.9108    1.0563 H   0  0  0  0  0  0  0  0  0  0  0  0
    8.7265   -0.5631   -0.8859 H   0  0  0  0  0  0  0  0  0  0  0  0
    8.8735    1.0716   -0.2097 H   0  0  0  0  0  0  0  0  0  0  0  0
    8.7843    1.2088   -2.6920 H   0  0  0  0  0  0  0  0  0  0  0  0
    7.3304    1.9599   -2.0045 H   0  0  0  0  0  0  0  0  0  0  0  0
    1.4840   -0.2963   -1.6015 H   0  0  0  0  0  0  0  0  0  0  0  0
    0.1070   -1.3031   -1.1249 H   0  0  0  0  0  0  0  0  0  0  0  0
    0.5872    1.6213   -0.7312 H   0  0  0  0  0  0  0  0  0  0  0  0
   -0.8988    0.7841   -1.1351 H   0  0  0  0  0  0  0  0  0  0  0  0
   -6.6113    0.5556    2.7200 H   0  0  0  0  0  0  0  0  0  0  0  0
   -5.1864    1.5086    2.3285 H   0  0  0  0  0  0  0  0  0  0  0  0
   -4.5620    1.9115   -0.1476 H   0  0  0  0  0  0  0  0  0  0  0  0
   -5.5000    2.3649   -2.3881 H   0  0  0  0  0  0  0  0  0  0  0  0
   -7.8292    1.6993   -2.9294 H   0  0  0  0  0  0  0  0  0  0  0  0
   -9.2260    0.5727   -1.1995 H   0  0  0  0  0  0  0  0  0  0  0  0
  1  2  2  0
  2  3  1  0
  3  4  1  0
  4  5  1  0
  5  6  1  0
  6  7  1  0
  7  8  1  0
  8  9  1  0
  9 10  2  0
  9 11  2  0
  9 12  1  0
 12 13  2  0
 13 14  1  0
 14 15  2  0
 15 16  1  0
 16 17  2  0
 16 18  1  0
 18 19  1  0
 19 20  1  0
 20 21  1  0
  8 22  1  0
 22 23  1  0
  4 24  2  0
 24 25  1  0
 25 26  2  0
 26 27  1  0
 27 28  2  0
 28 29  1  0
 29 30  1  0
 30 31  1  0
 31 32  2  0
 32 33  1  0
 33 34  2  0
 34 35  1  0
 35 36  2  0
 36 37  1  0
 26  2  1  0
 36 31  1  0
 23  5  1  0
 29 25  1  0
 17 12  1  0
 21 15  1  0
  3 38  1  0
  5 39  1  0
  6 40  1  0
  6 41  1  0
  7 42  1  0
  7 43  1  0
 13 44  1  0
 14 45  1  0
 17 46  1  0
 19 47  1  0
 19 48  1  0
 20 49  1  0
 20 50  1  0
 22 51  1  0
 22 52  1  0
 23 53  1  0
 23 54  1  0
 30 55  1  0
 30 56  1  0
 32 57  1  0
 33 58  1  0
 34 59  1  0
 35 60  1  0
M  END
$$$$
