
     RDKit          3D

 53 54  0  0  0  0  0  0  0  0999 V2000
   -4.7354    0.5922    1.4361 C   0  0  0  0  0  0  0  0  0  0  0  0
   -5.9156    0.0762    0.6328 C   0  0  0  0  0  0  0  0  0  0  0  0
   -5.5776   -1.0821   -0.2136 N   0  0  0  0  0  0  0  0  0  0  0  0
   -5.3454   -2.3692    0.4635 C   0  0  0  0  0  0  0  0  0  0  0  0
   -6.6195   -3.1960    0.4360 C   0  0  0  0  0  0  0  0  0  0  0  0
   -5.0866   -0.8743   -1.8139 S   0  0  0  0  0  6  0  0  0  0  0  0
   -5.1487   -2.1573   -2.4826 O   0  0  0  0  0  0  0  0  0  0  0  0
   -5.7716    0.2812   -2.3548 O   0  0  0  0  0  0  0  0  0  0  0  0
   -3.3611   -0.4493   -1.6759 C   0  0  0  0  0  0  0  0  0  0  0  0
   -2.9633    0.8865   -1.7956 C   0  0  0  0  0  0  0  0  0  0  0  0
   -1.6066    1.2159   -1.7184 C   0  0  0  0  0  0  0  0  0  0  0  0
   -0.6443    0.2104   -1.5431 C   0  0  0  0  0  0  0  0  0  0  0  0
    0.8113    0.5067   -1.4482 C   0  0  0  0  0  0  0  0  0  0  0  0
    1.6575   -0.3432   -1.2188 O   0  0  0  0  0  0  0  0  0  0  0  0
    1.0459    1.8245   -1.6651 O   0  0  0  0  0  0  0  0  0  0  0  0
    2.4095    2.2063   -1.4904 C   0  0  0  0  0  0  0  0  0  0  0  0
    2.8413    2.2321   -0.0202 C   0  0  0  0  0  0  0  0  0  0  0  0
    2.0485    2.1763    0.9171 O   0  0  0  0  0  0  0  0  0  0  0  0
    4.2081    2.3487    0.1559 N   0  0  0  0  0  0  0  0  0  0  0  0
    4.7996    2.1355    1.4667 C   0  0  0  0  0  0  0  0  0  0  0  0
    5.0433    0.6449    1.7588 C   0  0  0  0  0  0  0  0  0  0  0  0
    6.2891    0.1391    1.1813 N   0  0  0  0  0  0  0  0  0  0  0  0
    7.2868   -0.4420    1.9301 C   0  0  0  0  0  0  0  0  0  0  0  0
    7.1552   -0.5031    3.2851 O   0  0  0  0  0  0  0  0  0  0  0  0
    8.3247   -0.9006    1.2211 C   0  0  0  0  0  0  0  0  0  0  0  0
    8.0996   -0.6260   -0.4770 S   0  0  0  0  0  0  0  0  0  0  0  0
    6.5276    0.1436   -0.1865 C   0  0  0  0  0  0  0  0  0  0  0  0
    5.8361    0.6096   -1.0791 O   0  0  0  0  0  0  0  0  0  0  0  0
   -1.0535   -1.1289   -1.4534 C   0  0  0  0  0  0  0  0  0  0  0  0
   -2.4085   -1.4618   -1.5301 C   0  0  0  0  0  0  0  0  0  0  0  0
   -4.3008   -0.1833    2.0737 H   0  0  0  0  0  0  0  0  0  0  0  0
   -5.0584    1.4129    2.0852 H   0  0  0  0  0  0  0  0  0  0  0  0
   -3.9434    0.9777    0.7920 H   0  0  0  0  0  0  0  0  0  0  0  0
   -6.7202   -0.2173    1.3177 H   0  0  0  0  0  0  0  0  0  0  0  0
   -6.3301    0.8869    0.0250 H   0  0  0  0  0  0  0  0  0  0  0  0
   -4.5355   -2.9263   -0.0153 H   0  0  0  0  0  0  0  0  0  0  0  0
   -5.0344   -2.2150    1.5011 H   0  0  0  0  0  0  0  0  0  0  0  0
   -6.4592   -4.1582    0.9324 H   0  0  0  0  0  0  0  0  0  0  0  0
   -6.9428   -3.3921   -0.5914 H   0  0  0  0  0  0  0  0  0  0  0  0
   -7.4365   -2.6792    0.9499 H   0  0  0  0  0  0  0  0  0  0  0  0
   -3.6989    1.6751   -1.9425 H   0  0  0  0  0  0  0  0  0  0  0  0
   -1.3148    2.2610   -1.7961 H   0  0  0  0  0  0  0  0  0  0  0  0
    3.0686    1.5550   -2.0766 H   0  0  0  0  0  0  0  0  0  0  0  0
    2.5144    3.2236   -1.8823 H   0  0  0  0  0  0  0  0  0  0  0  0
    4.7858    2.0645   -0.6370 H   0  0  0  0  0  0  0  0  0  0  0  0
    5.7364    2.7015    1.5010 H   0  0  0  0  0  0  0  0  0  0  0  0
    4.1224    2.5481    2.2226 H   0  0  0  0  0  0  0  0  0  0  0  0
    5.0576    0.5044    2.8445 H   0  0  0  0  0  0  0  0  0  0  0  0
    4.2254    0.0338    1.3581 H   0  0  0  0  0  0  0  0  0  0  0  0
    7.9344   -0.9562    3.6508 H   0  0  0  0  0  0  0  0  0  0  0  0
    9.2046   -1.3867    1.6163 H   0  0  0  0  0  0  0  0  0  0  0  0
   -0.3142   -1.9194   -1.3313 H   0  0  0  0  0  0  0  0  0  0  0  0
   -2.7072   -2.5065   -1.4866 H   0  0  0  0  0  0  0  0  0  0  0  0
  1  2  1  0
  2  3  1  0
  3  4  1  0
  4  5  1  0
  3  6  1  0
  6  7  2  0
  6  8  2  0
  6  9  1  0
  9 10  2  0
 10 11  1  0
 11 12  2  0
 12 13  1  0
 13 14  2  0
 13 15  1  0
 15 16  1  0
 16 17  1  0
 17 18  2  0
 17 19  1  0
 19 20  1  0
 20 21  1  0
 21 22  1  0
 22 23  1  0
 23 24  1  0
 23 25  2  0
 25 26  1  0
 26 27  1  0
 27 28  2  0
 12 29  1  0
 29 30  2  0
 30  9  1  0
 27 22  1  0
  1 31  1  0
  1 32  1  0
  1 33  1  0
  2 34  1  0
  2 35  1  0
  4 36  1  0
  4 37  1  0
  5 38  1  0
  5 39  1  0
  5 40  1  0
 10 41  1  0
 11 42  1  0
 16 43  1  0
 16 44  1  0
 19 45  1  0
 20 46  1  0
 20 47  1  0
 21 48  1  0
 21 49  1  0
 24 50  1  0
 25 51  1  0
 29 52  1  0
 30 53  1  0
M  END
$$$$
