
     RDKit          3D

 58 61  0  0  0  0  0  0  0  0999 V2000
   -3.2262    6.4343    0.2264 C   0  0  0  0  0  0  0  0  0  0  0  0
   -2.4593    5.2372    0.2018 O   0  0  0  0  0  0  0  0  0  0  0  0
   -3.1140    4.0744    0.5041 C   0  0  0  0  0  0  0  0  0  0  0  0
   -4.4584    3.9547    0.8281 C   0  0  0  0  0  0  0  0  0  0  0  0
   -5.0124    2.7032    1.1212 C   0  0  0  0  0  0  0  0  0  0  0  0
   -4.1916    1.5596    1.0823 C   0  0  0  0  0  0  0  0  0  0  0  0
   -4.6638   -0.0584    1.4099 S   0  0  0  0  0  0  0  0  0  0  0  0
   -3.0925   -0.6695    1.1212 C   0  0  0  0  0  0  0  0  0  0  0  0
   -2.8746   -2.1186    1.2477 C   0  0  0  0  0  0  0  0  0  0  0  0
   -2.8578   -2.6954    2.5295 C   0  0  0  0  0  0  0  0  0  0  0  0
   -2.6292   -4.0611    2.6924 C   0  0  0  0  0  0  0  0  0  0  0  0
   -2.4180   -4.8648    1.5762 C   0  0  0  0  0  0  0  0  0  0  0  0
   -2.4312   -4.3063    0.2955 C   0  0  0  0  0  0  0  0  0  0  0  0
   -2.6481   -2.9339    0.1207 C   0  0  0  0  0  0  0  0  0  0  0  0
   -2.7010   -2.3262   -1.1094 O   0  0  0  0  0  0  0  0  0  0  0  0
   -1.9855   -2.9656   -2.1586 C   0  0  0  0  0  0  0  0  0  0  0  0
   -2.2065    0.3408    0.7792 C   0  0  0  0  0  0  0  0  0  0  0  0
   -0.8063    0.0650    0.4721 C   0  0  0  0  0  0  0  0  0  0  0  0
    0.0737   -0.3576    1.4715 C   0  0  0  0  0  0  0  0  0  0  0  0
    1.4109   -0.6156    1.1602 C   0  0  0  0  0  0  0  0  0  0  0  0
    1.8854   -0.4509   -0.1440 C   0  0  0  0  0  0  0  0  0  0  0  0
    3.2119   -0.7388   -0.3076 O   0  0  0  0  0  0  0  0  0  0  0  0
    3.7608   -0.5661   -1.6172 C   0  0  0  0  0  0  0  0  0  0  0  0
    5.2606   -0.9198   -1.5936 C   0  0  0  0  0  0  0  0  0  0  0  0
    6.1568    0.1960   -1.2156 N   0  0  0  0  0  0  0  0  0  0  0  0
    7.5547   -0.2264   -1.3344 C   0  0  0  0  0  0  0  0  0  0  0  0
    5.8963    0.6691    0.1462 C   0  0  0  0  0  0  0  0  0  0  0  0
    1.0083   -0.0239   -1.1411 C   0  0  0  0  0  0  0  0  0  0  0  0
   -0.3322    0.2344   -0.8334 C   0  0  0  0  0  0  0  0  0  0  0  0
   -2.8379    1.6427    0.7554 C   0  0  0  0  0  0  0  0  0  0  0  0
   -2.3093    2.9293    0.4692 C   0  0  0  0  0  0  0  0  0  0  0  0
   -2.5606    7.2631   -0.0333 H   0  0  0  0  0  0  0  0  0  0  0  0
   -4.0277    6.4050   -0.5190 H   0  0  0  0  0  0  0  0  0  0  0  0
   -3.6238    6.6280    1.2282 H   0  0  0  0  0  0  0  0  0  0  0  0
   -5.1163    4.8167    0.8657 H   0  0  0  0  0  0  0  0  0  0  0  0
   -6.0652    2.6168    1.3757 H   0  0  0  0  0  0  0  0  0  0  0  0
   -3.0196   -2.0758    3.4090 H   0  0  0  0  0  0  0  0  0  0  0  0
   -2.6197   -4.4959    3.6884 H   0  0  0  0  0  0  0  0  0  0  0  0
   -2.2487   -5.9316    1.7001 H   0  0  0  0  0  0  0  0  0  0  0  0
   -2.2852   -4.9691   -0.5509 H   0  0  0  0  0  0  0  0  0  0  0  0
   -2.5289   -3.8446   -2.5191 H   0  0  0  0  0  0  0  0  0  0  0  0
   -1.9101   -2.2581   -2.9900 H   0  0  0  0  0  0  0  0  0  0  0  0
   -0.9670   -3.2288   -1.8525 H   0  0  0  0  0  0  0  0  0  0  0  0
   -0.2717   -0.4888    2.4936 H   0  0  0  0  0  0  0  0  0  0  0  0
    2.0892   -0.9469    1.9424 H   0  0  0  0  0  0  0  0  0  0  0  0
    3.2592   -1.2580   -2.3053 H   0  0  0  0  0  0  0  0  0  0  0  0
    3.6217    0.4627   -1.9716 H   0  0  0  0  0  0  0  0  0  0  0  0
    5.4278   -1.7839   -0.9373 H   0  0  0  0  0  0  0  0  0  0  0  0
    5.5275   -1.2210   -2.6147 H   0  0  0  0  0  0  0  0  0  0  0  0
    7.7776   -0.5392   -2.3606 H   0  0  0  0  0  0  0  0  0  0  0  0
    7.7950   -1.0564   -0.6600 H   0  0  0  0  0  0  0  0  0  0  0  0
    8.2296    0.6073   -1.1102 H   0  0  0  0  0  0  0  0  0  0  0  0
    5.9647   -0.1372    0.8851 H   0  0  0  0  0  0  0  0  0  0  0  0
    6.6138    1.4496    0.4257 H   0  0  0  0  0  0  0  0  0  0  0  0
    4.9086    1.1343    0.2200 H   0  0  0  0  0  0  0  0  0  0  0  0
    1.3303    0.1190   -2.1667 H   0  0  0  0  0  0  0  0  0  0  0  0
   -1.0086    0.5595   -1.6211 H   0  0  0  0  0  0  0  0  0  0  0  0
   -1.2554    3.0317    0.2196 H   0  0  0  0  0  0  0  0  0  0  0  0
  1  2  1  0
  2  3  1  0
  3  4  2  0
  4  5  1  0
  5  6  2  0
  6  7  1  0
  7  8  1  0
  8  9  1  0
  9 10  2  0
 10 11  1  0
 11 12  2  0
 12 13  1  0
 13 14  2  0
 14 15  1  0
 15 16  1  0
  8 17  2  0
 17 18  1  0
 18 19  2  0
 19 20  1  0
 20 21  2  0
 21 22  1  0
 22 23  1  0
 23 24  1  0
 24 25  1  0
 25 26  1  0
 25 27  1  0
 21 28  1  0
 28 29  2  0
 17 30  1  0
 30 31  2  0
 31  3  1  0
 30  6  1  0
 14  9  1  0
 29 18  1  0
  1 32  1  0
  1 33  1  0
  1 34  1  0
  4 35  1  0
  5 36  1  0
 10 37  1  0
 11 38  1  0
 12 39  1  0
 13 40  1  0
 16 41  1  0
 16 42  1  0
 16 43  1  0
 19 44  1  0
 20 45  1  0
 23 46  1  0
 23 47  1  0
 24 48  1  0
 24 49  1  0
 26 50  1  0
 26 51  1  0
 26 52  1  0
 27 53  1  0
 27 54  1  0
 27 55  1  0
 28 56  1  0
 29 57  1  0
 31 58  1  0
M  END
$$$$
