
     RDKit          3D

114117  0  0  0  0  0  0  0  0999 V2000
   -0.5411   -4.1244    2.6696 C   0  0  0  0  0  0  0  0  0  0  0  0
    0.7730   -3.7729    1.9644 C   0  0  0  0  0  0  0  0  0  0  0  0
    1.6711   -5.0157    1.9058 C   0  0  0  0  0  0  0  0  0  0  0  0
    0.6027   -3.1508    0.5437 C   0  0  0  0  0  0  0  0  0  0  0  0
   -0.5427   -2.2781    0.4932 O   0  0  0  0  0  0  0  0  0  0  0  0
   -1.6923   -2.8645    0.0458 C   0  0  0  0  0  0  0  0  0  0  0  0
   -1.7675   -4.0450   -0.2708 O   0  0  0  0  0  0  0  0  0  0  0  0
   -2.9029   -1.9128    0.0260 C   0  0  0  0  0  0  0  0  0  0  0  0
   -3.9762   -2.3926    1.0333 C   0  0  0  0  0  0  0  0  0  0  0  0
   -4.8862   -3.4909    0.5138 C   0  0  0  0  0  0  0  0  0  0  0  0
   -4.7755   -4.7987    1.0078 C   0  0  0  0  0  0  0  0  0  0  0  0
   -5.6276   -5.8072    0.5488 C   0  0  0  0  0  0  0  0  0  0  0  0
   -6.5932   -5.5192   -0.4142 C   0  0  0  0  0  0  0  0  0  0  0  0
   -6.7167   -4.2241   -0.9099 C   0  0  0  0  0  0  0  0  0  0  0  0
   -5.8664   -3.2170   -0.4530 C   0  0  0  0  0  0  0  0  0  0  0  0
   -2.6159   -0.4638    0.2028 N   0  0  0  0  0  0  0  0  0  0  0  0
   -2.1995    0.0257    1.5135 C   0  0  0  0  0  0  0  0  0  0  0  0
   -2.3848    0.2857   -0.9576 C   0  0  0  0  0  0  0  0  0  0  0  0
   -2.2004   -0.2708   -2.0428 O   0  0  0  0  0  0  0  0  0  0  0  0
   -2.4507    1.8323   -0.8151 C   0  0  0  0  0  0  0  0  0  0  0  0
   -2.6822    2.5819   -2.1581 C   0  0  0  0  0  0  0  0  0  0  0  0
   -1.4957    2.5197   -3.1241 C   0  0  0  0  0  0  0  0  0  0  0  0
   -3.9845    2.1702   -2.8452 C   0  0  0  0  0  0  0  0  0  0  0  0
   -1.2449    2.3231   -0.2048 O   0  0  0  0  0  0  0  0  0  0  0  0
   -1.3773    3.4939    0.4874 C   0  0  0  0  0  0  0  0  0  0  0  0
   -2.4474    4.0719    0.6525 O   0  0  0  0  0  0  0  0  0  0  0  0
   -0.0314    4.0398    1.0033 C   0  0  0  0  0  0  0  0  0  0  0  0
    0.1784    5.4817    0.4887 C   0  0  0  0  0  0  0  0  0  0  0  0
   -0.3597    6.5451    1.4157 C   0  0  0  0  0  0  0  0  0  0  0  0
   -1.4636    7.3225    1.0522 C   0  0  0  0  0  0  0  0  0  0  0  0
   -1.9428    8.3116    1.9125 C   0  0  0  0  0  0  0  0  0  0  0  0
   -1.3304    8.5297    3.1432 C   0  0  0  0  0  0  0  0  0  0  0  0
   -0.2327    7.7595    3.5183 C   0  0  0  0  0  0  0  0  0  0  0  0
    0.2550    6.7760    2.6555 C   0  0  0  0  0  0  0  0  0  0  0  0
    1.1467    3.1803    0.7106 N   0  0  0  0  0  0  0  0  0  0  0  0
    1.6235    3.0950   -0.6646 C   0  0  0  0  0  0  0  0  0  0  0  0
    1.5671    2.3048    1.7153 C   0  0  0  0  0  0  0  0  0  0  0  0
    0.9238    2.1861    2.7617 O   0  0  0  0  0  0  0  0  0  0  0  0
    2.9024    1.5583    1.4978 C   0  0  0  0  0  0  0  0  0  0  0  0
    3.4815    1.0286    2.8376 C   0  0  0  0  0  0  0  0  0  0  0  0
    4.6891    0.1071    2.6279 C   0  0  0  0  0  0  0  0  0  0  0  0
    3.9245    2.2023    3.7303 C   0  0  0  0  0  0  0  0  0  0  0  0
    2.6120    0.4852    0.5868 O   0  0  0  0  0  0  0  0  0  0  0  0
    3.4967    0.2902   -0.4278 C   0  0  0  0  0  0  0  0  0  0  0  0
    4.4767    1.0059   -0.6240 O   0  0  0  0  0  0  0  0  0  0  0  0
    3.1219   -0.8643   -1.3773 C   0  0  0  0  0  0  0  0  0  0  0  0
    4.3753   -1.7328   -1.6350 C   0  0  0  0  0  0  0  0  0  0  0  0
    4.1940   -2.7454   -2.7432 C   0  0  0  0  0  0  0  0  0  0  0  0
    4.2625   -2.3545   -4.0867 C   0  0  0  0  0  0  0  0  0  0  0  0
    4.0654   -3.2893   -5.1055 C   0  0  0  0  0  0  0  0  0  0  0  0
    3.8097   -4.6219   -4.7899 C   0  0  0  0  0  0  0  0  0  0  0  0
    3.7479   -5.0230   -3.4577 C   0  0  0  0  0  0  0  0  0  0  0  0
    3.9392   -4.0877   -2.4408 C   0  0  0  0  0  0  0  0  0  0  0  0
    1.9059   -1.6385   -1.0266 N   0  0  0  0  0  0  0  0  0  0  0  0
    0.8721   -1.7073   -2.0487 C   0  0  0  0  0  0  0  0  0  0  0  0
    1.8800   -2.3515    0.1623 C   0  0  0  0  0  0  0  0  0  0  0  0
    2.8716   -2.3531    0.8982 O   0  0  0  0  0  0  0  0  0  0  0  0
   -0.3470   -4.5493    3.6618 H   0  0  0  0  0  0  0  0  0  0  0  0
   -1.1243   -4.8613    2.1123 H   0  0  0  0  0  0  0  0  0  0  0  0
   -1.1656   -3.2377    2.8256 H   0  0  0  0  0  0  0  0  0  0  0  0
    1.2602   -3.0350    2.6140 H   0  0  0  0  0  0  0  0  0  0  0  0
    2.6462   -4.7758    1.4831 H   0  0  0  0  0  0  0  0  0  0  0  0
    1.8383   -5.4273    2.9075 H   0  0  0  0  0  0  0  0  0  0  0  0
    1.2354   -5.8041    1.2924 H   0  0  0  0  0  0  0  0  0  0  0  0
    0.5272   -3.9518   -0.2017 H   0  0  0  0  0  0  0  0  0  0  0  0
   -3.3132   -2.0207   -0.9868 H   0  0  0  0  0  0  0  0  0  0  0  0
   -3.5071   -2.7266    1.9719 H   0  0  0  0  0  0  0  0  0  0  0  0
   -4.6345   -1.5532    1.3184 H   0  0  0  0  0  0  0  0  0  0  0  0
   -4.0231   -5.0461    1.7588 H   0  0  0  0  0  0  0  0  0  0  0  0
   -5.5315   -6.8170    0.9413 H   0  0  0  0  0  0  0  0  0  0  0  0
   -7.2508   -6.3057   -0.7691 H   0  0  0  0  0  0  0  0  0  0  0  0
   -7.4738   -4.0027   -1.6571 H   0  0  0  0  0  0  0  0  0  0  0  0
   -5.9815   -2.2117   -0.8492 H   0  0  0  0  0  0  0  0  0  0  0  0
   -2.3969   -0.7152    2.2880 H   0  0  0  0  0  0  0  0  0  0  0  0
   -1.1269    0.2411    1.4940 H   0  0  0  0  0  0  0  0  0  0  0  0
   -2.7420    0.9453    1.7464 H   0  0  0  0  0  0  0  0  0  0  0  0
   -3.3114    2.0368   -0.1642 H   0  0  0  0  0  0  0  0  0  0  0  0
   -2.7937    3.6495   -1.9144 H   0  0  0  0  0  0  0  0  0  0  0  0
   -0.5998    2.9605   -2.6842 H   0  0  0  0  0  0  0  0  0  0  0  0
   -1.7098    3.0852   -4.0405 H   0  0  0  0  0  0  0  0  0  0  0  0
   -1.2571    1.4942   -3.4176 H   0  0  0  0  0  0  0  0  0  0  0  0
   -4.1940    2.8326   -3.6906 H   0  0  0  0  0  0  0  0  0  0  0  0
   -3.9597    1.1501   -3.2337 H   0  0  0  0  0  0  0  0  0  0  0  0
   -4.8318    2.2525   -2.1553 H   0  0  0  0  0  0  0  0  0  0  0  0
   -0.1525    4.0645    2.0914 H   0  0  0  0  0  0  0  0  0  0  0  0
    1.2489    5.6941    0.3543 H   0  0  0  0  0  0  0  0  0  0  0  0
   -0.2599    5.6011   -0.5079 H   0  0  0  0  0  0  0  0  0  0  0  0
   -1.9658    7.1679    0.0999 H   0  0  0  0  0  0  0  0  0  0  0  0
   -2.8020    8.9123    1.6229 H   0  0  0  0  0  0  0  0  0  0  0  0
   -1.7040    9.3053    3.8085 H   0  0  0  0  0  0  0  0  0  0  0  0
    0.2502    7.9279    4.4778 H   0  0  0  0  0  0  0  0  0  0  0  0
    1.1148    6.1876    2.9658 H   0  0  0  0  0  0  0  0  0  0  0  0
    2.7093    3.2269   -0.6860 H   0  0  0  0  0  0  0  0  0  0  0  0
    1.3582    2.1205   -1.0829 H   0  0  0  0  0  0  0  0  0  0  0  0
    1.1782    3.8792   -1.2806 H   0  0  0  0  0  0  0  0  0  0  0  0
    3.6196    2.2779    1.0816 H   0  0  0  0  0  0  0  0  0  0  0  0
    2.7160    0.4537    3.3688 H   0  0  0  0  0  0  0  0  0  0  0  0
    5.5100    0.6397    2.1319 H   0  0  0  0  0  0  0  0  0  0  0  0
    4.4335   -0.7708    2.0303 H   0  0  0  0  0  0  0  0  0  0  0  0
    5.0552   -0.2609    3.5899 H   0  0  0  0  0  0  0  0  0  0  0  0
    4.6892    2.8003    3.2341 H   0  0  0  0  0  0  0  0  0  0  0  0
    3.0775    2.8520    3.9825 H   0  0  0  0  0  0  0  0  0  0  0  0
    4.3504    1.8206    4.6718 H   0  0  0  0  0  0  0  0  0  0  0  0
    2.8658   -0.3294   -2.3065 H   0  0  0  0  0  0  0  0  0  0  0  0
    4.6912   -2.2429   -0.7176 H   0  0  0  0  0  0  0  0  0  0  0  0
    5.2252   -1.0847   -1.9039 H   0  0  0  0  0  0  0  0  0  0  0  0
    4.4742   -1.3248   -4.3548 H   0  0  0  0  0  0  0  0  0  0  0  0
    4.1159   -2.9800   -6.1464 H   0  0  0  0  0  0  0  0  0  0  0  0
    3.6647   -5.3491   -5.5855 H   0  0  0  0  0  0  0  0  0  0  0  0
    3.5538   -6.0632   -3.2132 H   0  0  0  0  0  0  0  0  0  0  0  0
    3.8808   -4.4127   -1.4042 H   0  0  0  0  0  0  0  0  0  0  0  0
    0.1931   -2.5498   -1.9271 H   0  0  0  0  0  0  0  0  0  0  0  0
    1.3249   -1.8009   -3.0423 H   0  0  0  0  0  0  0  0  0  0  0  0
    0.3137   -0.7655   -2.0138 H   0  0  0  0  0  0  0  0  0  0  0  0
  1  2  1  0
  2  3  1  0
  2  4  1  0
  4  5  1  0
  5  6  1  0
  6  7  2  0
  6  8  1  0
  8  9  1  0
  9 10  1  0
 10 11  2  0
 11 12  1  0
 12 13  2  0
 13 14  1  0
 14 15  2  0
  8 16  1  0
 16 17  1  0
 16 18  1  0
 18 19  2  0
 18 20  1  0
 20 21  1  0
 21 22  1  0
 21 23  1  0
 20 24  1  0
 24 25  1  0
 25 26  2  0
 25 27  1  0
 27 28  1  0
 28 29  1  0
 29 30  2  0
 30 31  1  0
 31 32  2  0
 32 33  1  0
 33 34  2  0
 27 35  1  0
 35 36  1  0
 35 37  1  0
 37 38  2  0
 37 39  1  0
 39 40  1  0
 40 41  1  0
 40 42  1  0
 39 43  1  0
 43 44  1  0
 44 45  2  0
 44 46  1  0
 46 47  1  0
 47 48  1  0
 48 49  2  0
 49 50  1  0
 50 51  2  0
 51 52  1  0
 52 53  2  0
 46 54  1  0
 54 55  1  0
 54 56  1  0
 56 57  2  0
 56  4  1  0
 15 10  1  0
 34 29  1  0
 53 48  1  0
  1 58  1  0
  1 59  1  0
  1 60  1  0
  2 61  1  0
  3 62  1  0
  3 63  1  0
  3 64  1  0
  4 65  1  0
  8 66  1  0
  9 67  1  0
  9 68  1  0
 11 69  1  0
 12 70  1  0
 13 71  1  0
 14 72  1  0
 15 73  1  0
 17 74  1  0
 17 75  1  0
 17 76  1  0
 20 77  1  0
 21 78  1  0
 22 79  1  0
 22 80  1  0
 22 81  1  0
 23 82  1  0
 23 83  1  0
 23 84  1  0
 27 85  1  0
 28 86  1  0
 28 87  1  0
 30 88  1  0
 31 89  1  0
 32 90  1  0
 33 91  1  0
 34 92  1  0
 36 93  1  0
 36 94  1  0
 36 95  1  0
 39 96  1  0
 40 97  1  0
 41 98  1  0
 41 99  1  0
 41100  1  0
 42101  1  0
 42102  1  0
 42103  1  0
 46104  1  0
 47105  1  0
 47106  1  0
 49107  1  0
 50108  1  0
 51109  1  0
 52110  1  0
 53111  1  0
 55112  1  0
 55113  1  0
 55114  1  0
M  END
$$$$
