
     RDKit          3D

 60 65  0  0  0  0  0  0  0  0999 V2000
   -1.9239   -1.0964   -2.8868 O   0  0  0  0  0  0  0  0  0  0  0  0
   -2.2007   -0.4854   -1.8609 C   0  0  0  0  0  0  0  0  0  0  0  0
   -1.2812   -0.3191   -0.8320 N   0  0  0  0  0  0  0  0  0  0  0  0
   -1.5501    0.3501    0.3561 C   0  0  0  0  0  0  0  0  0  0  0  0
   -0.4127    0.4577    1.3649 C   0  0  0  0  0  0  0  0  0  0  0  0
    0.6860    1.4031    0.8613 C   0  0  0  0  0  0  0  0  0  0  0  0
    1.8484    0.6819    0.1928 C   0  0  0  0  0  0  0  0  0  0  0  0
    2.4165   -0.4047    1.0379 N   0  0  0  0  0  0  0  0  0  0  0  0
    4.0793   -0.2430    1.4352 S   0  0  0  0  0  6  0  0  0  0  0  0
    4.2566    1.0876    1.9796 O   0  0  0  0  0  0  0  0  0  0  0  0
    4.4850   -1.4198    2.1740 O   0  0  0  0  0  0  0  0  0  0  0  0
    4.8629   -0.3190   -0.1537 C   0  0  0  0  0  0  0  0  0  0  0  0
    5.5005    0.8106   -0.6787 C   0  0  0  0  0  0  0  0  0  0  0  0
    6.1238    0.7277   -1.9248 C   0  0  0  0  0  0  0  0  0  0  0  0
    6.1177   -0.4777   -2.6266 C   0  0  0  0  0  0  0  0  0  0  0  0
    5.4623   -1.5975   -2.1003 C   0  0  0  0  0  0  0  0  0  0  0  0
    4.8479   -1.5276   -0.8531 C   0  0  0  0  0  0  0  0  0  0  0  0
    5.3973   -2.8023   -2.7495 O   0  0  0  0  0  0  0  0  0  0  0  0
    5.7635   -2.6761   -4.1289 C   0  0  0  0  0  0  0  0  0  0  0  0
    7.0140   -1.8270   -4.2804 C   0  0  0  0  0  0  0  0  0  0  0  0
    6.7745   -0.4898   -3.8304 O   0  0  0  0  0  0  0  0  0  0  0  0
    1.5868   -0.8054    2.2059 C   0  0  0  0  0  0  0  0  0  0  0  0
    0.1291   -0.9104    1.7854 C   0  0  0  0  0  0  0  0  0  0  0  0
   -2.6948    0.9114    0.6326 N   0  0  0  0  0  0  0  0  0  0  0  0
   -3.6092    0.7680   -0.3554 C   0  0  0  0  0  0  0  0  0  0  0  0
   -3.4630    0.1329   -1.5642 C   0  0  0  0  0  0  0  0  0  0  0  0
   -4.6058    0.2241   -2.2964 N   0  0  0  0  0  0  0  0  0  0  0  0
   -5.4867    0.9135   -1.5703 N   0  0  0  0  0  0  0  0  0  0  0  0
   -4.8956    1.2247   -0.3878 N   0  0  0  0  0  0  0  0  0  0  0  0
   -5.6033    1.9919    0.6176 C   0  0  0  0  0  0  0  0  0  0  0  0
   -6.3513    1.0982    1.5684 C   0  0  0  0  0  0  0  0  0  0  0  0
   -7.5158    0.4253    1.1688 C   0  0  0  0  0  0  0  0  0  0  0  0
   -8.1939   -0.4080    2.0616 C   0  0  0  0  0  0  0  0  0  0  0  0
   -7.7178   -0.5796    3.3602 C   0  0  0  0  0  0  0  0  0  0  0  0
   -6.5630    0.0848    3.7678 C   0  0  0  0  0  0  0  0  0  0  0  0
   -5.8920    0.9137    2.8737 C   0  0  0  0  0  0  0  0  0  0  0  0
   -4.7882    1.5498    3.2902 F   0  0  0  0  0  0  0  0  0  0  0  0
   -0.3952   -0.7726   -0.9948 H   0  0  0  0  0  0  0  0  0  0  0  0
   -0.8439    0.9294    2.2591 H   0  0  0  0  0  0  0  0  0  0  0  0
    1.0816    1.9624    1.7189 H   0  0  0  0  0  0  0  0  0  0  0  0
    0.2740    2.1519    0.1742 H   0  0  0  0  0  0  0  0  0  0  0  0
    2.6080    1.4257   -0.0695 H   0  0  0  0  0  0  0  0  0  0  0  0
    1.5290    0.2302   -0.7536 H   0  0  0  0  0  0  0  0  0  0  0  0
    5.5259    1.7473   -0.1258 H   0  0  0  0  0  0  0  0  0  0  0  0
    6.6314    1.5933   -2.3411 H   0  0  0  0  0  0  0  0  0  0  0  0
    4.3602   -2.4055   -0.4366 H   0  0  0  0  0  0  0  0  0  0  0  0
    5.9421   -3.6829   -4.5165 H   0  0  0  0  0  0  0  0  0  0  0  0
    4.9161   -2.2436   -4.6752 H   0  0  0  0  0  0  0  0  0  0  0  0
    7.8539   -2.2429   -3.7104 H   0  0  0  0  0  0  0  0  0  0  0  0
    7.3098   -1.7736   -5.3334 H   0  0  0  0  0  0  0  0  0  0  0  0
    1.7022   -0.0848    3.0245 H   0  0  0  0  0  0  0  0  0  0  0  0
    1.9170   -1.7873    2.5624 H   0  0  0  0  0  0  0  0  0  0  0  0
   -0.4707   -1.2935    2.6196 H   0  0  0  0  0  0  0  0  0  0  0  0
    0.0371   -1.6520    0.9839 H   0  0  0  0  0  0  0  0  0  0  0  0
   -6.2964    2.6688    0.1046 H   0  0  0  0  0  0  0  0  0  0  0  0
   -4.8719    2.6219    1.1360 H   0  0  0  0  0  0  0  0  0  0  0  0
   -7.8963    0.5381    0.1541 H   0  0  0  0  0  0  0  0  0  0  0  0
   -9.0920   -0.9291    1.7396 H   0  0  0  0  0  0  0  0  0  0  0  0
   -8.2459   -1.2312    4.0516 H   0  0  0  0  0  0  0  0  0  0  0  0
   -6.1793   -0.0388    4.7748 H   0  0  0  0  0  0  0  0  0  0  0  0
  1  2  2  0
  2  3  1  0
  3  4  1  0
  4  5  1  0
  5  6  1  0
  6  7  1  0
  7  8  1  0
  8  9  1  0
  9 10  2  0
  9 11  2  0
  9 12  1  0
 12 13  2  0
 13 14  1  0
 14 15  2  0
 15 16  1  0
 16 17  2  0
 16 18  1  0
 18 19  1  0
 19 20  1  0
 20 21  1  0
  8 22  1  0
 22 23  1  0
  4 24  2  0
 24 25  1  0
 25 26  2  0
 26 27  1  0
 27 28  2  0
 28 29  1  0
 29 30  1  0
 30 31  1  0
 31 32  2  0
 32 33  1  0
 33 34  2  0
 34 35  1  0
 35 36  2  0
 36 37  1  0
 26  2  1  0
 36 31  1  0
 23  5  1  0
 29 25  1  0
 17 12  1  0
 21 15  1  0
  3 38  1  0
  5 39  1  0
  6 40  1  0
  6 41  1  0
  7 42  1  0
  7 43  1  0
 13 44  1  0
 14 45  1  0
 17 46  1  0
 19 47  1  0
 19 48  1  0
 20 49  1  0
 20 50  1  0
 22 51  1  0
 22 52  1  0
 23 53  1  0
 23 54  1  0
 30 55  1  0
 30 56  1  0
 32 57  1  0
 33 58  1  0
 34 59  1  0
 35 60  1  0
M  END
$$$$
