
     RDKit          3D

 36 37  0  0  0  0  0  0  0  0999 V2000
   -2.1073   -2.3990    1.2887 O   0  0  0  0  0  0  0  0  0  0  0  0
   -0.9912   -2.2333    0.8007 C   0  0  0  0  0  0  0  0  0  0  0  0
    0.2999   -2.3464    1.6148 C   0  0  0  0  0  0  0  0  0  0  0  0
    1.3422   -1.5000    1.1181 O   0  0  0  0  0  0  0  0  0  0  0  0
    1.1932   -0.1900    1.4429 C   0  0  0  0  0  0  0  0  0  0  0  0
    0.2904    0.2756    2.1172 O   0  0  0  0  0  0  0  0  0  0  0  0
    2.2655    0.6315    0.8239 C   0  0  0  0  0  0  0  0  0  0  0  0
    2.1420    2.0275    0.8786 C   0  0  0  0  0  0  0  0  0  0  0  0
    3.1156    2.8450    0.3020 C   0  0  0  0  0  0  0  0  0  0  0  0
    4.2195    2.2718   -0.3281 C   0  0  0  0  0  0  0  0  0  0  0  0
    4.3456    0.8842   -0.3778 C   0  0  0  0  0  0  0  0  0  0  0  0
    5.7113    0.1804   -1.1535 Cl  0  0  0  0  0  0  0  0  0  0  0  0
    3.3774    0.0590    0.1937 C   0  0  0  0  0  0  0  0  0  0  0  0
   -0.7926   -1.9490   -0.5314 N   0  0  0  0  0  0  0  0  0  0  0  0
   -1.8633   -1.8721   -1.5110 C   0  0  0  0  0  0  0  0  0  0  0  0
   -3.0338   -0.9416   -1.1497 C   0  0  0  0  0  0  0  0  0  0  0  0
   -2.6140    0.3455   -0.6268 N   0  0  0  0  0  0  0  0  0  0  0  0
   -2.8425    0.7902    0.6538 C   0  0  0  0  0  0  0  0  0  0  0  0
   -3.4399   -0.0030    1.5874 O   0  0  0  0  0  0  0  0  0  0  0  0
   -2.4256    2.0363    0.8935 C   0  0  0  0  0  0  0  0  0  0  0  0
   -1.6816    2.7385   -0.5090 S   0  0  0  0  0  0  0  0  0  0  0  0
   -1.9763    1.2642   -1.4473 C   0  0  0  0  0  0  0  0  0  0  0  0
   -1.6481    1.1244   -2.6148 O   0  0  0  0  0  0  0  0  0  0  0  0
    0.0947   -2.1343    2.6703 H   0  0  0  0  0  0  0  0  0  0  0  0
    0.6502   -3.3811    1.5429 H   0  0  0  0  0  0  0  0  0  0  0  0
    1.2824    2.4854    1.3665 H   0  0  0  0  0  0  0  0  0  0  0  0
    3.0106    3.9270    0.3425 H   0  0  0  0  0  0  0  0  0  0  0  0
    4.9758    2.9108   -0.7774 H   0  0  0  0  0  0  0  0  0  0  0  0
    3.5008   -1.0193    0.1465 H   0  0  0  0  0  0  0  0  0  0  0  0
    0.1618   -1.8444   -0.8580 H   0  0  0  0  0  0  0  0  0  0  0  0
   -2.2401   -2.8875   -1.6753 H   0  0  0  0  0  0  0  0  0  0  0  0
   -1.3969   -1.5412   -2.4452 H   0  0  0  0  0  0  0  0  0  0  0  0
   -3.7146   -1.4350   -0.4491 H   0  0  0  0  0  0  0  0  0  0  0  0
   -3.6187   -0.7577   -2.0599 H   0  0  0  0  0  0  0  0  0  0  0  0
   -3.0795   -0.9091    1.4795 H   0  0  0  0  0  0  0  0  0  0  0  0
   -2.5130    2.5470    1.8417 H   0  0  0  0  0  0  0  0  0  0  0  0
  1  2  2  0
  2  3  1  0
  3  4  1  0
  4  5  1  0
  5  6  2  0
  5  7  1  0
  7  8  2  0
  8  9  1  0
  9 10  2  0
 10 11  1  0
 11 12  1  0
 11 13  2  0
  2 14  1  0
 14 15  1  0
 15 16  1  0
 16 17  1  0
 17 18  1  0
 18 19  1  0
 18 20  2  0
 20 21  1  0
 21 22  1  0
 22 23  2  0
 13  7  1  0
 22 17  1  0
  3 24  1  0
  3 25  1  0
  8 26  1  0
  9 27  1  0
 10 28  1  0
 13 29  1  0
 14 30  1  0
 15 31  1  0
 15 32  1  0
 16 33  1  0
 16 34  1  0
 19 35  1  0
 20 36  1  0
M  END
$$$$
