
     RDKit          3D

 58 62  0  0  0  0  0  0  0  0999 V2000
    7.3116    2.8519    1.4252 C   0  0  0  0  0  0  0  0  0  0  0  0
    6.0278    3.4614    1.3694 O   0  0  0  0  0  0  0  0  0  0  0  0
    4.9475    2.6241    1.3145 C   0  0  0  0  0  0  0  0  0  0  0  0
    3.7105    3.2711    1.2717 C   0  0  0  0  0  0  0  0  0  0  0  0
    2.5224    2.5391    1.2118 C   0  0  0  0  0  0  0  0  0  0  0  0
    2.5573    1.1408    1.1961 C   0  0  0  0  0  0  0  0  0  0  0  0
    1.2815    0.3424    1.1046 C   0  0  0  0  0  0  0  0  0  0  0  0
    0.9129    0.0301   -0.3500 C   0  0  0  0  0  0  0  0  0  0  0  0
   -0.3641   -0.7078   -0.4134 N   0  0  0  0  0  0  0  0  0  0  0  0
   -1.5943   -0.0282   -0.4502 C   0  0  0  0  0  0  0  0  0  0  0  0
   -1.7136    1.2690   -0.3646 N   0  0  0  0  0  0  0  0  0  0  0  0
   -2.8785   -0.8116   -0.5830 C   0  0  0  0  0  0  0  0  0  0  0  0
   -4.2542   -0.2375   -0.7163 C   0  0  0  0  0  0  0  0  0  0  0  0
   -5.2614   -0.9408   -0.6782 O   0  0  0  0  0  0  0  0  0  0  0  0
   -4.3062    1.1196   -0.8689 N   0  0  0  0  0  0  0  0  0  0  0  0
   -5.5566    1.8336   -0.8942 C   0  0  0  0  0  0  0  0  0  0  0  0
   -5.2955    3.2656   -1.1748 C   0  0  0  0  0  0  0  0  0  0  0  0
   -4.7202    4.2859   -0.4436 C   0  0  0  0  0  0  0  0  0  0  0  0
   -4.7518    5.4368   -1.2673 C   0  0  0  0  0  0  0  0  0  0  0  0
   -5.3418    5.0471   -2.4468 C   0  0  0  0  0  0  0  0  0  0  0  0
   -5.6785    3.7335   -2.3984 O   0  0  0  0  0  0  0  0  0  0  0  0
   -2.7532   -2.1498   -0.5777 C   0  0  0  0  0  0  0  0  0  0  0  0
   -1.4719   -2.8240   -0.4519 C   0  0  0  0  0  0  0  0  0  0  0  0
   -1.4292   -4.3141   -0.4119 C   0  0  0  0  0  0  0  0  0  0  0  0
   -2.4746   -4.9639   -0.4793 O   0  0  0  0  0  0  0  0  0  0  0  0
   -0.1724   -4.8823   -0.2956 N   0  0  0  0  0  0  0  0  0  0  0  0
   -0.0480   -6.2671   -0.2535 C   0  0  0  0  0  0  0  0  0  0  0  0
    1.1447   -6.8647   -0.1403 C   0  0  0  0  0  0  0  0  0  0  0  0
    2.3391   -6.0682   -0.0593 C   0  0  0  0  0  0  0  0  0  0  0  0
    2.2652   -4.7325   -0.0938 C   0  0  0  0  0  0  0  0  0  0  0  0
    0.9382   -4.0643   -0.2190 C   0  0  0  0  0  0  0  0  0  0  0  0
    0.8985   -2.7710   -0.2492 N   0  0  0  0  0  0  0  0  0  0  0  0
   -0.3143   -2.1287   -0.3736 C   0  0  0  0  0  0  0  0  0  0  0  0
    3.7985    0.4931    1.2354 C   0  0  0  0  0  0  0  0  0  0  0  0
    4.9869    1.2303    1.2970 C   0  0  0  0  0  0  0  0  0  0  0  0
    8.0580    3.6512    1.4611 H   0  0  0  0  0  0  0  0  0  0  0  0
    7.4238    2.2495    2.3325 H   0  0  0  0  0  0  0  0  0  0  0  0
    7.5060    2.2558    0.5275 H   0  0  0  0  0  0  0  0  0  0  0  0
    3.6734    4.3582    1.2871 H   0  0  0  0  0  0  0  0  0  0  0  0
    1.5754    3.0732    1.1825 H   0  0  0  0  0  0  0  0  0  0  0  0
    0.4714    0.8945    1.5979 H   0  0  0  0  0  0  0  0  0  0  0  0
    1.3909   -0.5863    1.6795 H   0  0  0  0  0  0  0  0  0  0  0  0
    1.7192   -0.5394   -0.8306 H   0  0  0  0  0  0  0  0  0  0  0  0
    0.8570    0.9484   -0.9478 H   0  0  0  0  0  0  0  0  0  0  0  0
   -0.8065    1.7221   -0.2631 H   0  0  0  0  0  0  0  0  0  0  0  0
   -3.4295    1.6315   -0.7475 H   0  0  0  0  0  0  0  0  0  0  0  0
   -6.0415    1.7129    0.0803 H   0  0  0  0  0  0  0  0  0  0  0  0
   -6.2068    1.3843   -1.6520 H   0  0  0  0  0  0  0  0  0  0  0  0
   -4.3242    4.2005    0.5594 H   0  0  0  0  0  0  0  0  0  0  0  0
   -4.3864    6.4265   -1.0356 H   0  0  0  0  0  0  0  0  0  0  0  0
   -5.5837    5.5561   -3.3695 H   0  0  0  0  0  0  0  0  0  0  0  0
   -3.6353   -2.7828   -0.6680 H   0  0  0  0  0  0  0  0  0  0  0  0
   -0.9645   -6.8486   -0.3172 H   0  0  0  0  0  0  0  0  0  0  0  0
    1.2315   -7.9457   -0.1085 H   0  0  0  0  0  0  0  0  0  0  0  0
    3.2952   -6.5748    0.0286 H   0  0  0  0  0  0  0  0  0  0  0  0
    3.1402   -4.0976   -0.0377 H   0  0  0  0  0  0  0  0  0  0  0  0
    3.8500   -0.5936    1.2194 H   0  0  0  0  0  0  0  0  0  0  0  0
    5.9240    0.6850    1.3300 H   0  0  0  0  0  0  0  0  0  0  0  0
  1  2  1  0
  2  3  1  0
  3  4  2  0
  4  5  1  0
  5  6  2  0
  6  7  1  0
  7  8  1  0
  8  9  1  0
  9 10  1  0
 10 11  2  3
 10 12  1  0
 12 13  1  0
 13 14  2  0
 13 15  1  0
 15 16  1  0
 16 17  1  0
 17 18  2  0
 18 19  1  0
 19 20  2  0
 20 21  1  0
 12 22  2  0
 22 23  1  0
 23 24  1  0
 24 25  2  0
 24 26  1  0
 26 27  1  0
 27 28  2  0
 28 29  1  0
 29 30  2  0
 30 31  1  0
 31 32  2  0
 32 33  1  0
  6 34  1  0
 34 35  2  0
 35  3  1  0
 33  9  1  0
 21 17  1  0
 33 23  2  0
 31 26  1  0
  1 36  1  0
  1 37  1  0
  1 38  1  0
  4 39  1  0
  5 40  1  0
  7 41  1  0
  7 42  1  0
  8 43  1  0
  8 44  1  0
 11 45  1  0
 15 46  1  0
 16 47  1  0
 16 48  1  0
 18 49  1  0
 19 50  1  0
 20 51  1  0
 22 52  1  0
 27 53  1  0
 28 54  1  0
 29 55  1  0
 30 56  1  0
 34 57  1  0
 35 58  1  0
M  END
$$$$
