
     RDKit          3D

 36 37  0  0  0  0  0  0  0  0999 V2000
    7.5510   -0.7057    0.6558 C   0  0  0  0  0  0  0  0  0  0  0  0
    6.0654   -0.7302    0.9172 C   0  0  0  0  0  0  0  0  0  0  0  0
    5.5898   -1.4823    1.7603 O   0  0  0  0  0  0  0  0  0  0  0  0
    5.3726    0.1375    0.0921 N   0  0  0  0  0  0  0  0  0  0  0  0
    3.9833    0.3757    0.0714 C   0  0  0  0  0  0  0  0  0  0  0  0
    3.5023    1.2711   -0.8921 C   0  0  0  0  0  0  0  0  0  0  0  0
    2.1366    1.5598   -0.9790 C   0  0  0  0  0  0  0  0  0  0  0  0
    1.2301    0.9502   -0.1059 C   0  0  0  0  0  0  0  0  0  0  0  0
   -0.2155    1.2848   -0.2375 C   0  0  0  0  0  0  0  0  0  0  0  0
   -0.5343    2.3900   -0.6655 O   0  0  0  0  0  0  0  0  0  0  0  0
   -1.0943    0.2701    0.1132 N   0  0  0  0  0  0  0  0  0  0  0  0
   -2.4375    0.4762    0.0071 N   0  0  0  0  0  0  0  0  0  0  0  0
   -3.1873   -0.5381    0.2950 C   0  0  0  0  0  0  0  0  0  0  0  0
   -4.6599   -0.4552    0.2210 C   0  0  0  0  0  0  0  0  0  0  0  0
   -5.4184   -1.5857    0.5469 C   0  0  0  0  0  0  0  0  0  0  0  0
   -6.8119   -1.5229    0.4816 C   0  0  0  0  0  0  0  0  0  0  0  0
   -7.4307   -0.3379    0.0933 C   0  0  0  0  0  0  0  0  0  0  0  0
   -8.7674   -0.2839    0.0325 F   0  0  0  0  0  0  0  0  0  0  0  0
   -6.6837    0.7893   -0.2319 C   0  0  0  0  0  0  0  0  0  0  0  0
   -5.2906    0.7330   -0.1686 C   0  0  0  0  0  0  0  0  0  0  0  0
    1.7077    0.0731    0.8734 C   0  0  0  0  0  0  0  0  0  0  0  0
    3.0768   -0.2142    0.9552 C   0  0  0  0  0  0  0  0  0  0  0  0
    7.8881    0.3024    0.3978 H   0  0  0  0  0  0  0  0  0  0  0  0
    7.7856   -1.3920   -0.1620 H   0  0  0  0  0  0  0  0  0  0  0  0
    8.0830   -1.0191    1.5587 H   0  0  0  0  0  0  0  0  0  0  0  0
    5.9192    0.6499   -0.5890 H   0  0  0  0  0  0  0  0  0  0  0  0
    4.1780    1.7599   -1.5894 H   0  0  0  0  0  0  0  0  0  0  0  0
    1.7799    2.2614   -1.7315 H   0  0  0  0  0  0  0  0  0  0  0  0
   -0.7546   -0.6574    0.3350 H   0  0  0  0  0  0  0  0  0  0  0  0
   -2.7595   -1.5073    0.6085 H   0  0  0  0  0  0  0  0  0  0  0  0
   -4.9407   -2.5131    0.8507 H   0  0  0  0  0  0  0  0  0  0  0  0
   -7.4203   -2.3871    0.7299 H   0  0  0  0  0  0  0  0  0  0  0  0
   -7.1872    1.7030   -0.5321 H   0  0  0  0  0  0  0  0  0  0  0  0
   -4.7027    1.6135   -0.4226 H   0  0  0  0  0  0  0  0  0  0  0  0
    1.0424   -0.3744    1.6063 H   0  0  0  0  0  0  0  0  0  0  0  0
    3.4046   -0.8946    1.7356 H   0  0  0  0  0  0  0  0  0  0  0  0
  1  2  1  0
  2  3  2  0
  2  4  1  0
  4  5  1  0
  5  6  2  0
  6  7  1  0
  7  8  2  0
  8  9  1  0
  9 10  2  0
  9 11  1  0
 11 12  1  0
 12 13  2  3
 13 14  1  0
 14 15  2  0
 15 16  1  0
 16 17  2  0
 17 18  1  0
 17 19  1  0
 19 20  2  0
  8 21  1  0
 21 22  2  0
 22  5  1  0
 20 14  1  0
  1 23  1  0
  1 24  1  0
  1 25  1  0
  4 26  1  0
  6 27  1  0
  7 28  1  0
 11 29  1  0
 13 30  1  0
 15 31  1  0
 16 32  1  0
 19 33  1  0
 20 34  1  0
 21 35  1  0
 22 36  1  0
M  END
$$$$
