
     RDKit          3D

 48 52  0  0  0  0  0  0  0  0999 V2000
   -2.9619   -0.5689    3.2051 C   0  0  0  0  0  0  0  0  0  0  0  0
   -2.5202   -0.3947    1.8402 N   0  0  0  0  0  0  0  0  0  0  0  0
   -1.2238   -0.1769    1.4668 C   0  0  0  0  0  0  0  0  0  0  0  0
   -1.1725   -0.0386    0.0889 C   0  0  0  0  0  0  0  0  0  0  0  0
    0.0362    0.1950   -0.7814 C   0  0  0  0  0  0  0  0  0  0  0  0
    0.0798    1.6743   -1.1741 C   0  0  0  0  0  0  0  0  0  0  0  0
    0.4867    2.0087   -2.4712 C   0  0  0  0  0  0  0  0  0  0  0  0
    0.5440    3.3481   -2.8489 C   0  0  0  0  0  0  0  0  0  0  0  0
    0.2002    4.3294   -1.9297 C   0  0  0  0  0  0  0  0  0  0  0  0
   -0.1812    3.9294   -0.6621 C   0  0  0  0  0  0  0  0  0  0  0  0
   -0.2395    2.6405   -0.2656 N   0  0  0  0  0  0  0  0  0  0  0  0
    1.3703   -0.1629   -0.1690 C   0  0  0  0  0  0  0  0  0  0  0  0
    2.1527    0.5799    0.7021 C   0  0  0  0  0  0  0  0  0  0  0  0
    3.2836   -0.1276    0.9954 N   0  0  0  0  0  0  0  0  0  0  0  0
    4.3377    0.3355    1.8690 C   0  0  0  0  0  0  0  0  0  0  0  0
    3.2696   -1.3420    0.3469 C   0  0  0  0  0  0  0  0  0  0  0  0
    4.1984   -2.3955    0.3447 C   0  0  0  0  0  0  0  0  0  0  0  0
    3.9035   -3.5317   -0.4134 C   0  0  0  0  0  0  0  0  0  0  0  0
    2.7221   -3.6167   -1.1423 C   0  0  0  0  0  0  0  0  0  0  0  0
    1.8044   -2.5608   -1.1345 C   0  0  0  0  0  0  0  0  0  0  0  0
    2.0781   -1.3971   -0.3826 C   0  0  0  0  0  0  0  0  0  0  0  0
   -2.5242   -0.2006   -0.3785 C   0  0  0  0  0  0  0  0  0  0  0  0
   -3.1240   -0.1745   -1.6569 C   0  0  0  0  0  0  0  0  0  0  0  0
   -4.5027   -0.3759   -1.7833 C   0  0  0  0  0  0  0  0  0  0  0  0
   -5.2899   -0.6014   -0.6590 C   0  0  0  0  0  0  0  0  0  0  0  0
   -4.7245   -0.6296    0.6187 C   0  0  0  0  0  0  0  0  0  0  0  0
   -3.3397   -0.4262    0.7341 C   0  0  0  0  0  0  0  0  0  0  0  0
   -2.1069   -0.4896    3.8815 H   0  0  0  0  0  0  0  0  0  0  0  0
   -3.6888    0.2138    3.4364 H   0  0  0  0  0  0  0  0  0  0  0  0
   -3.4155   -1.5590    3.2982 H   0  0  0  0  0  0  0  0  0  0  0  0
   -0.4304   -0.1260    2.2013 H   0  0  0  0  0  0  0  0  0  0  0  0
   -0.0992   -0.3984   -1.6960 H   0  0  0  0  0  0  0  0  0  0  0  0
    0.7633    1.2352   -3.1812 H   0  0  0  0  0  0  0  0  0  0  0  0
    0.8567    3.6209   -3.8525 H   0  0  0  0  0  0  0  0  0  0  0  0
    0.2310    5.3802   -2.1924 H   0  0  0  0  0  0  0  0  0  0  0  0
   -0.4591    4.6561    0.0953 H   0  0  0  0  0  0  0  0  0  0  0  0
    1.9764    1.5613    1.1263 H   0  0  0  0  0  0  0  0  0  0  0  0
    4.4271   -0.3637    2.7043 H   0  0  0  0  0  0  0  0  0  0  0  0
    4.0917    1.3316    2.2461 H   0  0  0  0  0  0  0  0  0  0  0  0
    5.2681    0.3771    1.2969 H   0  0  0  0  0  0  0  0  0  0  0  0
    5.1195   -2.3395    0.9153 H   0  0  0  0  0  0  0  0  0  0  0  0
    4.6058   -4.3617   -0.4287 H   0  0  0  0  0  0  0  0  0  0  0  0
    2.5056   -4.5113   -1.7205 H   0  0  0  0  0  0  0  0  0  0  0  0
    0.8819   -2.6469   -1.7011 H   0  0  0  0  0  0  0  0  0  0  0  0
   -2.5238    0.0086   -2.5426 H   0  0  0  0  0  0  0  0  0  0  0  0
   -4.9605   -0.3518   -2.7686 H   0  0  0  0  0  0  0  0  0  0  0  0
   -6.3602   -0.7541   -0.7734 H   0  0  0  0  0  0  0  0  0  0  0  0
   -5.3457   -0.8020    1.4912 H   0  0  0  0  0  0  0  0  0  0  0  0
  1  2  1  0
  2  3  1  0
  3  4  2  0
  4  5  1  0
  5  6  1  0
  6  7  2  0
  7  8  1  0
  8  9  2  0
  9 10  1  0
 10 11  2  0
  5 12  1  0
 12 13  2  0
 13 14  1  0
 14 15  1  0
 14 16  1  0
 16 17  2  0
 17 18  1  0
 18 19  2  0
 19 20  1  0
 20 21  2  0
  4 22  1  0
 22 23  2  0
 23 24  1  0
 24 25  2  0
 25 26  1  0
 26 27  2  0
 27  2  1  0
 11  6  1  0
 21 12  1  0
 27 22  1  0
 21 16  1  0
  1 28  1  0
  1 29  1  0
  1 30  1  0
  3 31  1  0
  5 32  1  0
  7 33  1  0
  8 34  1  0
  9 35  1  0
 10 36  1  0
 13 37  1  0
 15 38  1  0
 15 39  1  0
 15 40  1  0
 17 41  1  0
 18 42  1  0
 19 43  1  0
 20 44  1  0
 23 45  1  0
 24 46  1  0
 25 47  1  0
 26 48  1  0
M  END
$$$$
