
     RDKit          3D

 36 36  0  0  0  0  0  0  0  0999 V2000
    2.6311   -4.7859    3.4043 C   0  0  0  0  0  0  0  0  0  0  0  0
    1.9095   -4.3535    2.1428 C   0  0  0  0  0  0  0  0  0  0  0  0
    0.5272   -4.1869    2.4536 O   0  0  0  0  0  0  0  0  0  0  0  0
   -0.2690   -3.8401    1.3218 C   0  0  0  0  0  0  0  0  0  0  0  0
   -0.1580   -2.3538    0.9993 C   0  0  0  0  0  0  0  0  0  0  0  0
   -1.1522   -1.9494   -0.0827 C   0  0  0  0  0  0  0  0  0  0  0  0
   -1.0292   -0.5445   -0.4242 N   0  0  0  0  0  0  0  0  0  0  0  0
   -0.0651   -0.1096   -1.3103 C   0  0  0  0  0  0  0  0  0  0  0  0
    0.6903   -0.8586   -1.9169 O   0  0  0  0  0  0  0  0  0  0  0  0
    0.0182    1.3664   -1.4625 C   0  0  0  0  0  0  0  0  0  0  0  0
    1.3059    1.9570   -1.3433 C   0  0  0  0  0  0  0  0  0  0  0  0
    2.3553    2.4432   -1.2422 N   0  0  0  0  0  0  0  0  0  0  0  0
   -1.1104    2.0117   -1.8110 C   0  0  0  0  0  0  0  0  0  0  0  0
   -1.1936    3.4180   -2.0102 C   0  0  0  0  0  0  0  0  0  0  0  0
   -2.1001    4.1256   -2.7985 C   0  0  0  0  0  0  0  0  0  0  0  0
   -1.8086    5.5081   -2.6791 C   0  0  0  0  0  0  0  0  0  0  0  0
   -0.7547    5.5733   -1.8057 C   0  0  0  0  0  0  0  0  0  0  0  0
   -0.0288    6.6824   -1.2724 N   0  0  0  0  0  4  0  0  0  0  0  0
   -0.3161    7.7946   -1.7362 O   0  0  0  0  0  0  0  0  0  0  0  0
    0.8035    6.4588   -0.3858 O   0  0  0  0  0  1  0  0  0  0  0  0
   -0.3736    4.3387   -1.3931 O   0  0  0  0  0  0  0  0  0  0  0  0
    3.6984   -4.9291    3.2137 H   0  0  0  0  0  0  0  0  0  0  0  0
    2.5104   -4.0364    4.1935 H   0  0  0  0  0  0  0  0  0  0  0  0
    2.2115   -5.7221    3.7870 H   0  0  0  0  0  0  0  0  0  0  0  0
    2.3341   -3.4113    1.7837 H   0  0  0  0  0  0  0  0  0  0  0  0
    2.0263   -5.1199    1.3689 H   0  0  0  0  0  0  0  0  0  0  0  0
   -0.0038   -4.4625    0.4591 H   0  0  0  0  0  0  0  0  0  0  0  0
   -1.3052   -4.0775    1.5866 H   0  0  0  0  0  0  0  0  0  0  0  0
   -0.3271   -1.7636    1.9089 H   0  0  0  0  0  0  0  0  0  0  0  0
    0.8630   -2.1141    0.6808 H   0  0  0  0  0  0  0  0  0  0  0  0
   -0.9993   -2.5485   -0.9874 H   0  0  0  0  0  0  0  0  0  0  0  0
   -2.1802   -2.1060    0.2608 H   0  0  0  0  0  0  0  0  0  0  0  0
   -1.5008    0.1256    0.1711 H   0  0  0  0  0  0  0  0  0  0  0  0
   -2.0224    1.4441   -1.9838 H   0  0  0  0  0  0  0  0  0  0  0  0
   -2.8810    3.6838   -3.4049 H   0  0  0  0  0  0  0  0  0  0  0  0
   -2.3053    6.3417   -3.1570 H   0  0  0  0  0  0  0  0  0  0  0  0
  1  2  1  0
  2  3  1  0
  3  4  1  0
  4  5  1  0
  5  6  1  0
  6  7  1  0
  7  8  1  0
  8  9  2  0
  8 10  1  0
 10 11  1  0
 11 12  3  0
 10 13  2  3
 13 14  1  0
 14 15  2  0
 15 16  1  0
 16 17  2  0
 17 18  1  0
 18 19  2  0
 18 20  1  0
 17 21  1  0
 21 14  1  0
  1 22  1  0
  1 23  1  0
  1 24  1  0
  2 25  1  0
  2 26  1  0
  4 27  1  0
  4 28  1  0
  5 29  1  0
  5 30  1  0
  6 31  1  0
  6 32  1  0
  7 33  1  0
 13 34  1  0
 15 35  1  0
 16 36  1  0
M  CHG  2  18   1  20  -1
M  END
$$$$
