
     RDKit          3D

 62 65  0  0  0  0  0  0  0  0999 V2000
   -3.7740   -2.4748    2.6290 C   0  0  0  0  0  0  0  0  0  0  0  0
   -3.8983   -2.4222    1.1145 C   0  0  0  0  0  0  0  0  0  0  0  0
   -3.6642   -1.0697    0.6184 N   0  0  0  0  0  0  0  0  0  0  0  0
   -2.4385   -0.4478    0.3080 C   0  0  0  0  0  0  0  0  0  0  0  0
   -1.2414   -1.0716    0.3181 C   0  0  0  0  0  0  0  0  0  0  0  0
    0.0610   -0.5235    0.0033 C   0  0  0  0  0  0  0  0  0  0  0  0
    1.1668   -1.2814   -0.0285 C   0  0  0  0  0  0  0  0  0  0  0  0
    2.5214   -0.7440   -0.3033 C   0  0  0  0  0  0  0  0  0  0  0  0
    2.8800    0.1161   -1.2144 N   0  0  0  0  0  4  0  0  0  0  0  0
    2.1008    0.7517   -2.2986 C   0  0  0  0  0  0  0  0  0  0  0  0
    1.7945    2.2006   -1.9592 C   0  0  0  0  0  0  0  0  0  0  0  0
    4.3377    0.3432   -1.1273 C   0  0  0  0  0  0  0  0  0  0  0  0
    5.1403    1.1588   -1.9063 C   0  0  0  0  0  0  0  0  0  0  0  0
    6.5062    1.1958   -1.6112 C   0  0  0  0  0  0  0  0  0  0  0  0
    7.0341    0.4256   -0.5619 C   0  0  0  0  0  0  0  0  0  0  0  0
    6.2082   -0.3951    0.2090 C   0  0  0  0  0  0  0  0  0  0  0  0
    4.8552   -0.4250   -0.0902 C   0  0  0  0  0  0  0  0  0  0  0  0
    3.7411   -1.2114    0.5407 C   0  0  0  0  0  0  0  0  0  0  0  0
    3.5527   -0.8291    2.0124 C   0  0  0  0  0  0  0  0  0  0  0  0
    3.9811   -2.7167    0.3845 C   0  0  0  0  0  0  0  0  0  0  0  0
   -2.7373    1.0478   -0.0597 C   0  0  0  0  0  0  0  0  0  0  0  0
   -2.3804    1.3764   -1.5175 C   0  0  0  0  0  0  0  0  0  0  0  0
   -2.0956    2.0400    0.9234 C   0  0  0  0  0  0  0  0  0  0  0  0
   -4.2513    1.1030    0.1111 C   0  0  0  0  0  0  0  0  0  0  0  0
   -5.1122    2.1804   -0.0697 C   0  0  0  0  0  0  0  0  0  0  0  0
   -6.4715    1.9907    0.1717 C   0  0  0  0  0  0  0  0  0  0  0  0
   -6.9480    0.7419    0.5895 C   0  0  0  0  0  0  0  0  0  0  0  0
   -6.0720   -0.3355    0.7670 C   0  0  0  0  0  0  0  0  0  0  0  0
   -4.7194   -0.1547    0.5227 C   0  0  0  0  0  0  0  0  0  0  0  0
   -3.9637   -3.4915    2.9886 H   0  0  0  0  0  0  0  0  0  0  0  0
   -2.7706   -2.1828    2.9532 H   0  0  0  0  0  0  0  0  0  0  0  0
   -4.4905   -1.8037    3.1124 H   0  0  0  0  0  0  0  0  0  0  0  0
   -4.8799   -2.7988    0.8063 H   0  0  0  0  0  0  0  0  0  0  0  0
   -3.1823   -3.1211    0.6677 H   0  0  0  0  0  0  0  0  0  0  0  0
   -1.2335   -2.1248    0.5932 H   0  0  0  0  0  0  0  0  0  0  0  0
    0.1119    0.5385   -0.1883 H   0  0  0  0  0  0  0  0  0  0  0  0
    1.1168   -2.3365    0.2322 H   0  0  0  0  0  0  0  0  0  0  0  0
    1.1750    0.1868   -2.4414 H   0  0  0  0  0  0  0  0  0  0  0  0
    2.6683    0.6709   -3.2319 H   0  0  0  0  0  0  0  0  0  0  0  0
    1.2750    2.2985   -1.0009 H   0  0  0  0  0  0  0  0  0  0  0  0
    1.1561    2.6365   -2.7348 H   0  0  0  0  0  0  0  0  0  0  0  0
    2.7023    2.8084   -1.8983 H   0  0  0  0  0  0  0  0  0  0  0  0
    4.7595    1.7620   -2.7240 H   0  0  0  0  0  0  0  0  0  0  0  0
    7.1751    1.8250   -2.1979 H   0  0  0  0  0  0  0  0  0  0  0  0
    8.1026    0.4674   -0.3504 H   0  0  0  0  0  0  0  0  0  0  0  0
    6.6298   -0.9911    1.0150 H   0  0  0  0  0  0  0  0  0  0  0  0
    3.3372    0.2416    2.1260 H   0  0  0  0  0  0  0  0  0  0  0  0
    2.7150   -1.3760    2.4595 H   0  0  0  0  0  0  0  0  0  0  0  0
    4.4492   -1.0518    2.6040 H   0  0  0  0  0  0  0  0  0  0  0  0
    4.9122   -3.0274    0.8720 H   0  0  0  0  0  0  0  0  0  0  0  0
    4.0486   -3.0045   -0.6716 H   0  0  0  0  0  0  0  0  0  0  0  0
    3.1689   -3.3014    0.8292 H   0  0  0  0  0  0  0  0  0  0  0  0
   -2.8038    0.6407   -2.2114 H   0  0  0  0  0  0  0  0  0  0  0  0
   -1.3001    1.3993   -1.6827 H   0  0  0  0  0  0  0  0  0  0  0  0
   -2.7663    2.3592   -1.8116 H   0  0  0  0  0  0  0  0  0  0  0  0
   -2.4328    3.0661    0.7320 H   0  0  0  0  0  0  0  0  0  0  0  0
   -1.0042    2.0511    0.8535 H   0  0  0  0  0  0  0  0  0  0  0  0
   -2.3563    1.8015    1.9623 H   0  0  0  0  0  0  0  0  0  0  0  0
   -4.7454    3.1512   -0.3865 H   0  0  0  0  0  0  0  0  0  0  0  0
   -7.1672    2.8162    0.0396 H   0  0  0  0  0  0  0  0  0  0  0  0
   -8.0108    0.6087    0.7785 H   0  0  0  0  0  0  0  0  0  0  0  0
   -6.4728   -1.2880    1.0944 H   0  0  0  0  0  0  0  0  0  0  0  0
  1  2  1  0
  2  3  1  0
  3  4  1  0
  4  5  2  3
  5  6  1  0
  6  7  2  3
  7  8  1  0
  8  9  2  0
  9 10  1  0
 10 11  1  0
  9 12  1  0
 12 13  2  0
 13 14  1  0
 14 15  2  0
 15 16  1  0
 16 17  2  0
 17 18  1  0
 18 19  1  0
 18 20  1  0
  4 21  1  0
 21 22  1  0
 21 23  1  0
 21 24  1  0
 24 25  2  0
 25 26  1  0
 26 27  2  0
 27 28  1  0
 28 29  2  0
 29  3  1  0
 18  8  1  0
 29 24  1  0
 17 12  1  0
  1 30  1  0
  1 31  1  0
  1 32  1  0
  2 33  1  0
  2 34  1  0
  5 35  1  0
  6 36  1  0
  7 37  1  0
 10 38  1  0
 10 39  1  0
 11 40  1  0
 11 41  1  0
 11 42  1  0
 13 43  1  0
 14 44  1  0
 15 45  1  0
 16 46  1  0
 19 47  1  0
 19 48  1  0
 19 49  1  0
 20 50  1  0
 20 51  1  0
 20 52  1  0
 22 53  1  0
 22 54  1  0
 22 55  1  0
 23 56  1  0
 23 57  1  0
 23 58  1  0
 25 59  1  0
 26 60  1  0
 27 61  1  0
 28 62  1  0
M  CHG  1   9   1
M  END
$$$$
