
     RDKit          3D

 57 62  0  0  0  0  0  0  0  0999 V2000
    6.4949   -0.7725   -2.3187 C   0  0  0  0  0  0  0  0  0  0  0  0
    5.2855   -0.8601   -1.5764 O   0  0  0  0  0  0  0  0  0  0  0  0
    4.1242   -0.9780   -2.2922 C   0  0  0  0  0  0  0  0  0  0  0  0
    4.0270   -1.0302   -3.6958 C   0  0  0  0  0  0  0  0  0  0  0  0
    2.7827   -1.1526   -4.3267 C   0  0  0  0  0  0  0  0  0  0  0  0
    1.6634   -1.2205   -3.5252 C   0  0  0  0  0  0  0  0  0  0  0  0
    1.7357   -1.1691   -2.1325 C   0  0  0  0  0  0  0  0  0  0  0  0
    2.9679   -1.0494   -1.5047 C   0  0  0  0  0  0  0  0  0  0  0  0
    0.3462   -1.2792   -1.5707 C   0  0  0  0  0  0  0  0  0  0  0  0
    0.1470   -2.4645   -0.6562 N   0  0  0  0  0  0  0  0  0  0  0  0
   -0.6768   -2.0098    0.5345 C   0  0  2  0  0  0  0  0  0  0  0  0
   -2.1313   -2.4867    0.3635 C   0  0  0  0  0  0  0  0  0  0  0  0
   -3.0061   -2.2573    1.5767 C   0  0  0  0  0  0  0  0  0  0  0  0
   -4.0221   -1.2919    1.5442 C   0  0  0  0  0  0  0  0  0  0  0  0
   -4.8330   -1.0786    2.6599 C   0  0  0  0  0  0  0  0  0  0  0  0
   -4.6374   -1.8285    3.8180 C   0  0  0  0  0  0  0  0  0  0  0  0
   -3.6322   -2.7930    3.8606 C   0  0  0  0  0  0  0  0  0  0  0  0
   -2.8208   -3.0084    2.7453 C   0  0  0  0  0  0  0  0  0  0  0  0
   -0.4983   -0.5413    0.4920 C   0  0  0  0  0  0  0  0  0  0  0  0
    0.0519   -0.1220   -0.7163 C   0  0  0  0  0  0  0  0  0  0  0  0
    0.1655    1.2426   -0.7021 C   0  0  0  0  0  0  0  0  0  0  0  0
    0.7086    2.0328   -1.6270 O   0  0  0  0  0  0  0  0  0  0  0  0
   -0.3326    1.6821    0.5396 N   0  0  0  0  0  0  0  0  0  0  0  0
   -0.4276    3.0387    0.9684 C   0  0  0  0  0  0  0  0  0  0  0  0
   -0.8139    4.0349    0.0614 C   0  0  0  0  0  0  0  0  0  0  0  0
   -0.9099    5.3621    0.4833 C   0  0  0  0  0  0  0  0  0  0  0  0
   -0.6198    5.6990    1.8048 C   0  0  0  0  0  0  0  0  0  0  0  0
   -0.2352    4.7104    2.7097 C   0  0  0  0  0  0  0  0  0  0  0  0
   -0.1402    3.3802    2.2965 C   0  0  0  0  0  0  0  0  0  0  0  0
   -0.7133    0.5519    1.2855 C   0  0  0  0  0  0  0  0  0  0  0  0
   -1.2482    0.5905    2.5034 O   0  0  0  0  0  0  0  0  0  0  0  0
   -0.5322   -1.3706   -2.8524 C   0  0  0  0  0  0  0  0  0  0  0  0
   -1.7481   -1.4543   -2.9498 O   0  0  0  0  0  0  0  0  0  0  0  0
    0.3454   -1.3442   -3.9411 N   0  0  0  0  0  0  0  0  0  0  0  0
    6.5038    0.1180   -2.9557 H   0  0  0  0  0  0  0  0  0  0  0  0
    6.6646   -1.6814   -2.9053 H   0  0  0  0  0  0  0  0  0  0  0  0
    7.3191   -0.6789   -1.6049 H   0  0  0  0  0  0  0  0  0  0  0  0
    4.9090   -0.9767   -4.3261 H   0  0  0  0  0  0  0  0  0  0  0  0
    2.7109   -1.1918   -5.4075 H   0  0  0  0  0  0  0  0  0  0  0  0
    3.0398   -1.0006   -0.4224 H   0  0  0  0  0  0  0  0  0  0  0  0
    1.0694   -2.6786   -0.2807 H   0  0  0  0  0  0  0  0  0  0  0  0
   -0.2302   -2.4309    1.4426 H   0  0  0  0  0  0  0  0  0  0  0  0
   -2.1421   -3.5650    0.1521 H   0  0  0  0  0  0  0  0  0  0  0  0
   -2.5955   -2.0102   -0.5091 H   0  0  0  0  0  0  0  0  0  0  0  0
   -4.1835   -0.6982    0.6468 H   0  0  0  0  0  0  0  0  0  0  0  0
   -5.6178   -0.3282    2.6232 H   0  0  0  0  0  0  0  0  0  0  0  0
   -5.2690   -1.6629    4.6863 H   0  0  0  0  0  0  0  0  0  0  0  0
   -3.4800   -3.3793    4.7626 H   0  0  0  0  0  0  0  0  0  0  0  0
   -2.0443   -3.7680    2.7928 H   0  0  0  0  0  0  0  0  0  0  0  0
    1.0010    2.8601   -1.2048 H   0  0  0  0  0  0  0  0  0  0  0  0
   -1.0910    3.7926   -0.9634 H   0  0  0  0  0  0  0  0  0  0  0  0
   -1.2229    6.1334   -0.2167 H   0  0  0  0  0  0  0  0  0  0  0  0
   -0.6951    6.7338    2.1306 H   0  0  0  0  0  0  0  0  0  0  0  0
   -0.0001    4.9777    3.7373 H   0  0  0  0  0  0  0  0  0  0  0  0
    0.2030    2.6359    3.0128 H   0  0  0  0  0  0  0  0  0  0  0  0
   -1.7401    1.4245    2.6045 H   0  0  0  0  0  0  0  0  0  0  0  0
    0.0241   -1.3880   -4.8953 H   0  0  0  0  0  0  0  0  0  0  0  0
  1  2  1  0
  2  3  1  0
  3  4  2  0
  4  5  1  0
  5  6  2  0
  6  7  1  0
  7  8  2  0
  7  9  1  0
  9 10  1  0
 10 11  1  0
 11 12  1  0
 12 13  1  0
 13 14  2  0
 14 15  1  0
 15 16  2  0
 16 17  1  0
 17 18  2  0
 11 19  1  0
 19 20  1  0
 20 21  2  0
 21 22  1  0
 21 23  1  0
 23 24  1  0
 24 25  2  0
 25 26  1  0
 26 27  2  0
 27 28  1  0
 28 29  2  0
 23 30  1  0
 30 31  1  0
  9 32  1  0
 32 33  2  0
 32 34  1  0
  8  3  1  0
 20  9  1  0
 29 24  1  0
 34  6  1  0
 18 13  1  0
 30 19  2  0
  1 35  1  0
  1 36  1  0
  1 37  1  0
  4 38  1  0
  5 39  1  0
  8 40  1  0
 10 41  1  0
 11 42  1  1
 12 43  1  0
 12 44  1  0
 14 45  1  0
 15 46  1  0
 16 47  1  0
 17 48  1  0
 18 49  1  0
 22 50  1  0
 25 51  1  0
 26 52  1  0
 27 53  1  0
 28 54  1  0
 29 55  1  0
 31 56  1  0
 34 57  1  0
M  END
$$$$
