
     RDKit          3D

 46 49  0  0  0  0  0  0  0  0999 V2000
    2.5255    3.1069   -1.3563 O   0  0  0  0  0  0  0  0  0  0  0  0
    2.0611    2.1387   -1.9591 C   0  0  0  0  0  0  0  0  0  0  0  0
    0.9900    2.3248   -3.0223 C   0  0  0  0  0  0  0  0  0  0  0  0
   -0.3091    1.0496   -2.9467 S   0  0  0  0  0  0  0  0  0  0  0  0
   -1.2378    1.6095   -1.5996 C   0  0  0  0  0  0  0  0  0  0  0  0
   -1.1329    2.7895   -1.0403 N   0  0  0  0  0  0  0  0  0  0  0  0
   -2.0653    2.8650   -0.0414 N   0  0  0  0  0  0  0  0  0  0  0  0
   -2.7232    1.7245   -0.0033 C   0  0  0  0  0  0  0  0  0  0  0  0
   -3.8321    1.4046    0.9475 C   0  0  0  0  0  0  0  0  0  0  0  0
   -3.4180    0.5177    2.0913 C   0  0  0  0  0  0  0  0  0  0  0  0
   -2.1734    0.3508    2.6680 C   0  0  0  0  0  0  0  0  0  0  0  0
   -2.1886   -0.5922    3.7373 C   0  0  0  0  0  0  0  0  0  0  0  0
   -3.4496   -1.0999    3.9551 C   0  0  0  0  0  0  0  0  0  0  0  0
   -4.6029   -0.4406    2.8832 S   0  0  0  0  0  0  0  0  0  0  0  0
   -2.2306    0.8917   -0.9871 N   0  0  0  0  0  0  0  0  0  0  0  0
   -2.7204   -0.4260   -1.3451 C   0  0  0  0  0  0  0  0  0  0  0  0
   -2.0449   -1.4989   -0.5720 C   0  0  0  0  0  0  0  0  0  0  0  0
   -2.5083   -2.4827    0.2794 C   0  0  0  0  0  0  0  0  0  0  0  0
   -1.3710   -3.2093    0.7080 C   0  0  0  0  0  0  0  0  0  0  0  0
   -0.2900   -2.6394    0.0767 C   0  0  0  0  0  0  0  0  0  0  0  0
   -0.6889   -1.6083   -0.7105 O   0  0  0  0  0  0  0  0  0  0  0  0
    2.5128    0.8318   -1.8494 N   0  0  0  0  0  0  0  0  0  0  0  0
    3.5594    0.3295   -1.0435 C   0  0  0  0  0  0  0  0  0  0  0  0
    4.3592    1.1380   -0.2321 C   0  0  0  0  0  0  0  0  0  0  0  0
    5.3858    0.5799    0.5353 C   0  0  0  0  0  0  0  0  0  0  0  0
    5.6208   -0.7884    0.4970 C   0  0  0  0  0  0  0  0  0  0  0  0
    6.9084   -1.4579    1.4221 Cl  0  0  0  0  0  0  0  0  0  0  0  0
    4.8326   -1.6152   -0.2931 C   0  0  0  0  0  0  0  0  0  0  0  0
    3.8126   -1.0535   -1.0650 C   0  0  0  0  0  0  0  0  0  0  0  0
    2.8829   -2.1127   -2.0733 Cl  0  0  0  0  0  0  0  0  0  0  0  0
    0.5553    3.3248   -2.9389 H   0  0  0  0  0  0  0  0  0  0  0  0
    1.4818    2.2583   -3.9978 H   0  0  0  0  0  0  0  0  0  0  0  0
   -4.6668    0.9578    0.3933 H   0  0  0  0  0  0  0  0  0  0  0  0
   -4.2153    2.3437    1.3666 H   0  0  0  0  0  0  0  0  0  0  0  0
   -1.2827    0.8758    2.3365 H   0  0  0  0  0  0  0  0  0  0  0  0
   -1.3185   -0.8753    4.3183 H   0  0  0  0  0  0  0  0  0  0  0  0
   -3.7497   -1.8245    4.7026 H   0  0  0  0  0  0  0  0  0  0  0  0
   -2.5808   -0.5805   -2.4181 H   0  0  0  0  0  0  0  0  0  0  0  0
   -3.8009   -0.4454   -1.1699 H   0  0  0  0  0  0  0  0  0  0  0  0
   -3.5365   -2.6476    0.5707 H   0  0  0  0  0  0  0  0  0  0  0  0
   -1.3377   -4.0476    1.3919 H   0  0  0  0  0  0  0  0  0  0  0  0
    0.7708   -2.8465    0.0842 H   0  0  0  0  0  0  0  0  0  0  0  0
    1.9868    0.1282   -2.3633 H   0  0  0  0  0  0  0  0  0  0  0  0
    4.2148    2.2104   -0.1707 H   0  0  0  0  0  0  0  0  0  0  0  0
    6.0027    1.2267    1.1566 H   0  0  0  0  0  0  0  0  0  0  0  0
    5.0126   -2.6858   -0.3132 H   0  0  0  0  0  0  0  0  0  0  0  0
  1  2  2  0
  2  3  1  0
  3  4  1  0
  4  5  1  0
  5  6  2  0
  6  7  1  0
  7  8  2  0
  8  9  1  0
  9 10  1  0
 10 11  2  0
 11 12  1  0
 12 13  2  0
 13 14  1  0
  8 15  1  0
 15 16  1  0
 16 17  1  0
 17 18  2  0
 18 19  1  0
 19 20  2  0
 20 21  1  0
  2 22  1  0
 22 23  1  0
 23 24  2  0
 24 25  1  0
 25 26  2  0
 26 27  1  0
 26 28  1  0
 28 29  2  0
 29 30  1  0
 15  5  1  0
 21 17  1  0
 29 23  1  0
 14 10  1  0
  3 31  1  0
  3 32  1  0
  9 33  1  0
  9 34  1  0
 11 35  1  0
 12 36  1  0
 13 37  1  0
 16 38  1  0
 16 39  1  0
 18 40  1  0
 19 41  1  0
 20 42  1  0
 22 43  1  0
 24 44  1  0
 25 45  1  0
 28 46  1  0
M  END
$$$$
