
     RDKit          3D

 39 40  0  0  0  0  0  0  0  0999 V2000
   -1.5443    1.4072   -1.9555 C   0  0  0  0  0  0  0  0  0  0  0  0
   -2.4253    0.5548   -1.0645 C   0  0  0  0  0  0  0  0  0  0  0  0
   -1.9221   -0.3173   -0.1725 C   0  0  0  0  0  0  0  0  0  0  0  0
   -0.4603   -0.4969   -0.0447 C   0  0  0  0  0  0  0  0  0  0  0  0
    0.1931   -0.0941    0.9986 N   0  0  0  0  0  0  0  0  0  0  0  0
    1.5539   -0.2600    0.9875 N   0  0  0  0  0  0  0  0  0  0  0  0
    2.3797   -0.0259   -0.1033 C   0  0  0  0  0  0  0  0  0  0  0  0
    1.9838    0.2304   -1.2377 O   0  0  0  0  0  0  0  0  0  0  0  0
    3.8561   -0.0896    0.1544 C   0  0  0  0  0  0  0  0  0  0  0  0
    4.7028   -0.0343   -0.9667 C   0  0  0  0  0  0  0  0  0  0  0  0
    6.0871   -0.0999   -0.8114 C   0  0  0  0  0  0  0  0  0  0  0  0
    7.2077   -0.0492   -2.3332 Br  0  0  0  0  0  0  0  0  0  0  0  0
    6.6515   -0.2160    0.4565 C   0  0  0  0  0  0  0  0  0  0  0  0
    5.8250   -0.2631    1.5803 C   0  0  0  0  0  0  0  0  0  0  0  0
    4.4357   -0.2017    1.4298 C   0  0  0  0  0  0  0  0  0  0  0  0
    3.6512   -0.2495    2.5527 O   0  0  0  0  0  0  0  0  0  0  0  0
   -2.8302   -1.1253    0.6644 C   0  0  0  0  0  0  0  0  0  0  0  0
   -2.3941   -2.0654    1.3280 O   0  0  0  0  0  0  0  0  0  0  0  0
   -4.1682   -0.7862    0.6176 N   0  0  0  0  0  0  0  0  0  0  0  0
   -5.0687   -1.5297    1.4777 C   0  0  0  0  0  0  0  0  0  0  0  0
   -4.7204    0.0540   -0.3382 C   0  0  0  0  0  0  0  0  0  0  0  0
   -5.9395    0.2045   -0.4432 O   0  0  0  0  0  0  0  0  0  0  0  0
   -3.8113    0.7056   -1.1816 N   0  0  0  0  0  0  0  0  0  0  0  0
   -4.3722    1.6122   -2.1835 C   0  0  0  0  0  0  0  0  0  0  0  0
   -0.4782    1.3213   -1.7299 H   0  0  0  0  0  0  0  0  0  0  0  0
   -1.6726    1.1223   -3.0045 H   0  0  0  0  0  0  0  0  0  0  0  0
   -1.7916    2.4681   -1.8396 H   0  0  0  0  0  0  0  0  0  0  0  0
    0.0137   -1.0033   -0.9047 H   0  0  0  0  0  0  0  0  0  0  0  0
    1.9875   -0.2320    1.9101 H   0  0  0  0  0  0  0  0  0  0  0  0
    4.2768    0.0515   -1.9652 H   0  0  0  0  0  0  0  0  0  0  0  0
    7.7313   -0.2710    0.5775 H   0  0  0  0  0  0  0  0  0  0  0  0
    6.2837   -0.3574    2.5623 H   0  0  0  0  0  0  0  0  0  0  0  0
    4.2202   -0.3091    3.3434 H   0  0  0  0  0  0  0  0  0  0  0  0
   -5.2527   -2.5080    1.0204 H   0  0  0  0  0  0  0  0  0  0  0  0
   -4.6132   -1.6827    2.4620 H   0  0  0  0  0  0  0  0  0  0  0  0
   -6.0240   -1.0142    1.6089 H   0  0  0  0  0  0  0  0  0  0  0  0
   -5.4593    1.5211   -2.2599 H   0  0  0  0  0  0  0  0  0  0  0  0
   -3.9539    1.3845   -3.1694 H   0  0  0  0  0  0  0  0  0  0  0  0
   -4.1387    2.6441   -1.9025 H   0  0  0  0  0  0  0  0  0  0  0  0
  1  2  1  0
  2  3  2  0
  3  4  1  0
  4  5  2  3
  5  6  1  0
  6  7  1  0
  7  8  2  0
  7  9  1  0
  9 10  2  0
 10 11  1  0
 11 12  1  0
 11 13  2  0
 13 14  1  0
 14 15  2  0
 15 16  1  0
  3 17  1  0
 17 18  2  0
 17 19  1  0
 19 20  1  0
 19 21  1  0
 21 22  2  0
 21 23  1  0
 23 24  1  0
 23  2  1  0
 15  9  1  0
  1 25  1  0
  1 26  1  0
  1 27  1  0
  4 28  1  0
  6 29  1  0
 10 30  1  0
 13 31  1  0
 14 32  1  0
 16 33  1  0
 20 34  1  0
 20 35  1  0
 20 36  1  0
 24 37  1  0
 24 38  1  0
 24 39  1  0
M  END
$$$$
