
     RDKit          3D

 27 27  0  0  0  0  0  0  0  0999 V2000
   -0.8936    1.6209   -0.6195 C   0  0  0  0  0  0  0  0  0  0  0  0
   -1.2752    0.1549   -0.8403 C   0  0  0  0  0  0  0  0  0  0  0  0
   -2.8095    0.0426   -0.8763 C   0  0  0  0  0  0  0  0  0  0  0  0
   -0.7085   -0.3325   -2.1816 C   0  0  0  0  0  0  0  0  0  0  0  0
   -0.6843   -0.8940    0.5267 S   0  0  0  0  0  6  0  0  0  0  0  0
   -1.1296   -0.3759    1.8031 O   0  0  0  0  0  0  0  0  0  0  0  0
   -0.9010   -2.2869    0.1805 O   0  0  0  0  0  0  0  0  0  0  0  0
    1.0498   -0.7667    0.5774 C   0  0  0  0  0  0  0  0  0  0  0  0
    1.9069   -1.6067   -0.2103 C   0  0  0  0  0  0  0  0  0  0  0  0
    3.2388   -1.3702    0.0392 C   0  0  0  0  0  0  0  0  0  0  0  0
    3.4626   -0.1730    1.2357 S   0  0  0  0  0  0  0  0  0  0  0  0
    1.7678    0.0567    1.4266 C   0  0  0  0  0  0  0  0  0  0  0  0
    1.2987    1.0491    2.3565 C   0  0  0  0  0  0  0  0  0  0  0  0
    0.5684    2.0001    2.1212 O   0  0  0  0  0  0  0  0  0  0  0  0
    1.7868    0.8462    3.5993 O   0  0  0  0  0  0  0  0  0  0  0  0
   -1.2938    1.9940    0.3282 H   0  0  0  0  0  0  0  0  0  0  0  0
   -1.2944    2.2650   -1.4089 H   0  0  0  0  0  0  0  0  0  0  0  0
    0.1932    1.7610   -0.6067 H   0  0  0  0  0  0  0  0  0  0  0  0
   -3.2347    0.6206   -1.7030 H   0  0  0  0  0  0  0  0  0  0  0  0
   -3.2576    0.4134    0.0515 H   0  0  0  0  0  0  0  0  0  0  0  0
   -3.1245   -0.9979   -0.9981 H   0  0  0  0  0  0  0  0  0  0  0  0
   -0.9611   -1.3815   -2.3680 H   0  0  0  0  0  0  0  0  0  0  0  0
   -1.1083    0.2612   -3.0107 H   0  0  0  0  0  0  0  0  0  0  0  0
    0.3813   -0.2427   -2.2213 H   0  0  0  0  0  0  0  0  0  0  0  0
    1.5605   -2.3588   -0.9124 H   0  0  0  0  0  0  0  0  0  0  0  0
    4.0966   -1.8560   -0.4129 H   0  0  0  0  0  0  0  0  0  0  0  0
    1.3651    1.5573    4.1240 H   0  0  0  0  0  0  0  0  0  0  0  0
  1  2  1  0
  2  3  1  0
  2  4  1  0
  2  5  1  0
  5  6  2  0
  5  7  2  0
  5  8  1  0
  8  9  1  0
  9 10  2  0
 10 11  1  0
 11 12  1  0
 12 13  1  0
 13 14  2  0
 13 15  1  0
 12  8  2  0
  1 16  1  0
  1 17  1  0
  1 18  1  0
  3 19  1  0
  3 20  1  0
  3 21  1  0
  4 22  1  0
  4 23  1  0
  4 24  1  0
  9 25  1  0
 10 26  1  0
 15 27  1  0
M  END
$$$$
