
     RDKit          3D

 57 60  0  0  0  0  0  0  0  0999 V2000
   -0.6690    4.0516   -2.4452 C   0  0  0  0  0  0  0  0  0  0  0  0
    0.4404    3.8937   -1.4138 C   0  0  0  0  0  0  0  0  0  0  0  0
    0.8222    2.4347   -1.1264 C   0  0  0  0  0  0  0  0  0  0  0  0
   -0.5497    1.5744   -0.2520 S   0  0  0  0  0  0  0  0  0  0  0  0
   -0.7035    0.1596   -1.2837 C   0  0  0  0  0  0  0  0  0  0  0  0
    0.4075   -0.4851   -1.5155 N   0  0  0  0  0  0  0  0  0  0  0  0
    0.2637   -1.5841   -2.3705 C   0  0  0  0  0  0  0  0  0  0  0  0
    1.3138   -2.4638   -2.7101 C   0  0  0  0  0  0  0  0  0  0  0  0
    0.8688   -3.4429   -3.5833 C   0  0  0  0  0  0  0  0  0  0  0  0
   -0.8007   -3.2666   -3.9673 S   0  0  0  0  0  0  0  0  0  0  0  0
   -0.9258   -1.9043   -2.9611 C   0  0  0  0  0  0  0  0  0  0  0  0
   -2.1332   -1.1690   -2.7316 C   0  0  0  0  0  0  0  0  0  0  0  0
   -3.2044   -1.3956   -3.2986 O   0  0  0  0  0  0  0  0  0  0  0  0
   -1.9732   -0.1436   -1.7851 N   0  0  0  0  0  0  0  0  0  0  0  0
   -3.2120    0.5304   -1.3688 C   0  0  0  0  0  0  0  0  0  0  0  0
   -3.8661   -0.1644   -0.1870 C   0  0  0  0  0  0  0  0  0  0  0  0
   -3.7356    0.3491    1.1132 C   0  0  0  0  0  0  0  0  0  0  0  0
   -4.3151   -0.3133    2.2012 C   0  0  0  0  0  0  0  0  0  0  0  0
   -5.0319   -1.5014    2.0091 C   0  0  0  0  0  0  0  0  0  0  0  0
   -5.5782   -2.1999    3.1974 C   0  0  0  0  0  0  0  0  0  0  0  0
   -5.4816   -1.8280    4.3551 O   0  0  0  0  0  0  0  0  0  0  0  0
   -6.1616   -3.3711    2.8910 O   0  0  0  0  0  0  0  0  0  0  0  0
   -5.1710   -2.0159    0.7197 C   0  0  0  0  0  0  0  0  0  0  0  0
   -4.5983   -1.3499   -0.3683 C   0  0  0  0  0  0  0  0  0  0  0  0
    2.0814    2.3544   -0.2432 C   0  0  0  0  0  0  0  0  0  0  0  0
    2.6466    3.3690    0.1600 O   0  0  0  0  0  0  0  0  0  0  0  0
    2.4828    1.0502    0.0128 N   0  0  0  0  0  0  0  0  0  0  0  0
    3.5182    0.6287    0.8731 C   0  0  0  0  0  0  0  0  0  0  0  0
    4.3004    1.4993    1.6309 C   0  0  0  0  0  0  0  0  0  0  0  0
    5.3003    1.0141    2.4815 C   0  0  0  0  0  0  0  0  0  0  0  0
    5.5435   -0.3601    2.5903 C   0  0  0  0  0  0  0  0  0  0  0  0
    6.6204   -0.8470    3.5191 C   0  0  0  0  0  0  0  0  0  0  0  0
    4.7535   -1.2352    1.8304 C   0  0  0  0  0  0  0  0  0  0  0  0
    4.9850   -2.9489    1.9088 Cl  0  0  0  0  0  0  0  0  0  0  0  0
    3.7489   -0.7456    0.9831 C   0  0  0  0  0  0  0  0  0  0  0  0
   -0.4130    3.5397   -3.3750 H   0  0  0  0  0  0  0  0  0  0  0  0
   -1.6298    3.6664   -2.0902 H   0  0  0  0  0  0  0  0  0  0  0  0
   -0.8055    5.1126   -2.6780 H   0  0  0  0  0  0  0  0  0  0  0  0
    1.3227    4.4209   -1.7983 H   0  0  0  0  0  0  0  0  0  0  0  0
    0.1569    4.4288   -0.4948 H   0  0  0  0  0  0  0  0  0  0  0  0
    1.0518    1.9436   -2.0807 H   0  0  0  0  0  0  0  0  0  0  0  0
    2.3393   -2.4015   -2.3571 H   0  0  0  0  0  0  0  0  0  0  0  0
    1.4371   -4.2561   -4.0174 H   0  0  0  0  0  0  0  0  0  0  0  0
   -3.9316    0.5604   -2.2004 H   0  0  0  0  0  0  0  0  0  0  0  0
   -3.0298    1.5835   -1.1282 H   0  0  0  0  0  0  0  0  0  0  0  0
   -3.1800    1.2696    1.2963 H   0  0  0  0  0  0  0  0  0  0  0  0
   -4.2113    0.1080    3.1967 H   0  0  0  0  0  0  0  0  0  0  0  0
   -6.4421   -3.7254    3.7580 H   0  0  0  0  0  0  0  0  0  0  0  0
   -5.7277   -2.9353    0.5468 H   0  0  0  0  0  0  0  0  0  0  0  0
   -4.7209   -1.7803   -1.3594 H   0  0  0  0  0  0  0  0  0  0  0  0
    1.9357    0.3214   -0.4411 H   0  0  0  0  0  0  0  0  0  0  0  0
    4.1501    2.5755    1.5969 H   0  0  0  0  0  0  0  0  0  0  0  0
    5.8751    1.7364    3.0643 H   0  0  0  0  0  0  0  0  0  0  0  0
    7.1327   -0.0087    4.0036 H   0  0  0  0  0  0  0  0  0  0  0  0
    7.3708   -1.4181    2.9680 H   0  0  0  0  0  0  0  0  0  0  0  0
    6.1887   -1.4690    4.3096 H   0  0  0  0  0  0  0  0  0  0  0  0
    3.1441   -1.4462    0.4155 H   0  0  0  0  0  0  0  0  0  0  0  0
  1  2  1  0
  2  3  1  0
  3  4  1  0
  4  5  1  0
  5  6  2  0
  6  7  1  0
  7  8  1  0
  8  9  2  0
  9 10  1  0
 10 11  1  0
 11 12  1  0
 12 13  2  0
 12 14  1  0
 14 15  1  0
 15 16  1  0
 16 17  2  0
 17 18  1  0
 18 19  2  0
 19 20  1  0
 20 21  2  0
 20 22  1  0
 19 23  1  0
 23 24  2  0
  3 25  1  0
 25 26  2  0
 25 27  1  0
 27 28  1  0
 28 29  2  0
 29 30  1  0
 30 31  2  0
 31 32  1  0
 31 33  1  0
 33 34  1  0
 33 35  2  0
 14  5  1  0
 24 16  1  0
 35 28  1  0
 11  7  2  0
  1 36  1  0
  1 37  1  0
  1 38  1  0
  2 39  1  0
  2 40  1  0
  3 41  1  0
  8 42  1  0
  9 43  1  0
 15 44  1  0
 15 45  1  0
 17 46  1  0
 18 47  1  0
 22 48  1  0
 23 49  1  0
 24 50  1  0
 27 51  1  0
 29 52  1  0
 30 53  1  0
 32 54  1  0
 32 55  1  0
 32 56  1  0
 35 57  1  0
M  END
$$$$
