
     RDKit          3D

 44 46  0  0  0  0  0  0  0  0999 V2000
   -1.4334   -1.3750    4.1081 C   0  0  0  0  0  0  0  0  0  0  0  0
   -1.4808   -1.3274    2.6096 C   0  0  0  0  0  0  0  0  0  0  0  0
   -1.4568   -2.5042    1.8614 C   0  0  0  0  0  0  0  0  0  0  0  0
   -1.5152   -2.4828    0.4555 C   0  0  0  0  0  0  0  0  0  0  0  0
   -1.4723   -3.8149   -0.2475 C   0  0  0  0  0  0  0  0  0  0  0  0
   -1.6333   -1.2349   -0.2114 C   0  0  0  0  0  0  0  0  0  0  0  0
   -1.6999   -1.2054   -2.0117 S   0  0  0  0  0  6  0  0  0  0  0  0
   -1.9924    0.1201   -2.5118 O   0  0  0  0  0  0  0  0  0  0  0  0
   -2.5165   -2.3183   -2.4523 O   0  0  0  0  0  0  0  0  0  0  0  0
   -0.1058   -1.5936   -2.4485 N   0  0  0  0  0  0  0  0  0  0  0  0
    0.8787   -0.5767   -2.3118 C   0  0  0  0  0  0  0  0  0  0  0  0
    1.1108    0.3135   -3.3588 C   0  0  0  0  0  0  0  0  0  0  0  0
    2.0397    1.3430   -3.2016 C   0  0  0  0  0  0  0  0  0  0  0  0
    2.7233    1.4807   -1.9917 C   0  0  0  0  0  0  0  0  0  0  0  0
    3.6391    2.4879   -1.8481 O   0  0  0  0  0  0  0  0  0  0  0  0
    2.4837    0.5987   -0.9277 C   0  0  0  0  0  0  0  0  0  0  0  0
    3.3291    0.7325    0.6385 S   0  0  0  0  0  0  0  0  0  0  0  0
    2.4857    2.0607    1.3945 C   0  0  0  0  0  0  0  0  0  0  0  0
    1.2809    2.5628    0.9682 N   0  0  0  0  0  0  0  0  0  0  0  0
    1.0357    3.5225    1.8272 C   0  0  0  0  0  0  0  0  0  0  0  0
    2.0404    3.5812    2.7376 N   0  0  0  0  0  0  0  0  0  0  0  0
    2.9707    2.6476    2.4964 N   0  0  0  0  0  0  0  0  0  0  0  0
    1.5582   -0.4374   -1.1017 C   0  0  0  0  0  0  0  0  0  0  0  0
   -1.6825   -0.0348    0.5393 C   0  0  0  0  0  0  0  0  0  0  0  0
   -1.8056    1.3406   -0.0601 C   0  0  0  0  0  0  0  0  0  0  0  0
   -1.6055   -0.1076    1.9435 C   0  0  0  0  0  0  0  0  0  0  0  0
   -0.8556   -2.2385    4.4541 H   0  0  0  0  0  0  0  0  0  0  0  0
   -0.9499   -0.4793    4.5123 H   0  0  0  0  0  0  0  0  0  0  0  0
   -2.4480   -1.4430    4.5126 H   0  0  0  0  0  0  0  0  0  0  0  0
   -1.3841   -3.4579    2.3833 H   0  0  0  0  0  0  0  0  0  0  0  0
   -1.1539   -4.6129    0.4332 H   0  0  0  0  0  0  0  0  0  0  0  0
   -2.4665   -4.0828   -0.6167 H   0  0  0  0  0  0  0  0  0  0  0  0
   -0.7491   -3.8140   -1.0667 H   0  0  0  0  0  0  0  0  0  0  0  0
   -0.1002   -2.1451   -3.3052 H   0  0  0  0  0  0  0  0  0  0  0  0
    0.5593    0.2264   -4.2911 H   0  0  0  0  0  0  0  0  0  0  0  0
    2.2107    2.0292   -4.0254 H   0  0  0  0  0  0  0  0  0  0  0  0
    3.6126    3.0583   -2.6325 H   0  0  0  0  0  0  0  0  0  0  0  0
    0.1794    4.1811    1.8384 H   0  0  0  0  0  0  0  0  0  0  0  0
    2.1566    4.2060    3.5272 H   0  0  0  0  0  0  0  0  0  0  0  0
    1.3655   -1.1329   -0.2890 H   0  0  0  0  0  0  0  0  0  0  0  0
   -0.9735    1.5479   -0.7383 H   0  0  0  0  0  0  0  0  0  0  0  0
   -1.7764    2.1194    0.7105 H   0  0  0  0  0  0  0  0  0  0  0  0
   -2.7657    1.4500   -0.5728 H   0  0  0  0  0  0  0  0  0  0  0  0
   -1.6372    0.8096    2.5305 H   0  0  0  0  0  0  0  0  0  0  0  0
  1  2  1  0
  2  3  2  0
  3  4  1  0
  4  5  1  0
  4  6  2  0
  6  7  1  0
  7  8  2  0
  7  9  2  0
  7 10  1  0
 10 11  1  0
 11 12  2  0
 12 13  1  0
 13 14  2  0
 14 15  1  0
 14 16  1  0
 16 17  1  0
 17 18  1  0
 18 19  1  0
 19 20  2  0
 20 21  1  0
 21 22  1  0
 16 23  2  0
  6 24  1  0
 24 25  1  0
 24 26  2  0
 26  2  1  0
 23 11  1  0
 22 18  2  0
  1 27  1  0
  1 28  1  0
  1 29  1  0
  3 30  1  0
  5 31  1  0
  5 32  1  0
  5 33  1  0
 10 34  1  0
 12 35  1  0
 13 36  1  0
 15 37  1  0
 20 38  1  0
 21 39  1  0
 23 40  1  0
 25 41  1  0
 25 42  1  0
 25 43  1  0
 26 44  1  0
M  END
$$$$
