
     RDKit          3D

 44 46  0  0  0  0  0  0  0  0999 V2000
    4.3187   -3.3780   -2.3213 C   0  0  0  0  0  0  0  0  0  0  0  0
    3.9375   -2.2872   -1.3623 C   0  0  0  0  0  0  0  0  0  0  0  0
    3.0670   -1.2619   -1.7543 C   0  0  0  0  0  0  0  0  0  0  0  0
    2.7400   -0.2336   -0.8669 C   0  0  0  0  0  0  0  0  0  0  0  0
    3.2770   -0.2238    0.4244 C   0  0  0  0  0  0  0  0  0  0  0  0
    2.8905    0.8784    1.3444 C   0  0  0  0  0  0  0  0  0  0  0  0
    2.5970    1.9853    0.9068 O   0  0  0  0  0  0  0  0  0  0  0  0
    2.8180    0.5528    2.6843 N   0  0  0  0  0  0  0  0  0  0  0  0
    2.2617    1.5161    3.6241 C   0  0  0  0  0  0  0  0  0  0  0  0
    0.7342    1.6007    3.6306 C   0  0  0  0  0  0  0  0  0  0  0  0
    0.1146    2.4193    4.2994 O   0  0  0  0  0  0  0  0  0  0  0  0
    0.1699    0.6477    2.8410 O   0  0  0  0  0  0  0  0  0  0  0  0
   -1.2534    0.7318    2.6560 C   0  0  0  0  0  0  0  0  0  0  0  0
   -1.6082    1.1441    1.2598 C   0  0  0  0  0  0  0  0  0  0  0  0
   -0.9284    2.0418    0.4605 C   0  0  0  0  0  0  0  0  0  0  0  0
   -1.7160    2.2037   -1.0481 S   0  0  0  0  0  0  0  0  0  0  0  0
   -2.9203    1.0727   -0.5529 C   0  0  0  0  0  0  0  0  0  0  0  0
   -4.0490    0.6861   -1.4291 C   0  0  0  0  0  0  0  0  0  0  0  0
   -4.2768    1.2425   -2.6992 C   0  0  0  0  0  0  0  0  0  0  0  0
   -5.3706    0.8463   -3.4779 C   0  0  0  0  0  0  0  0  0  0  0  0
   -6.2584   -0.1152   -3.0024 C   0  0  0  0  0  0  0  0  0  0  0  0
   -6.0512   -0.6832   -1.7495 C   0  0  0  0  0  0  0  0  0  0  0  0
   -4.9573   -0.2856   -0.9731 C   0  0  0  0  0  0  0  0  0  0  0  0
   -2.7404    0.5957    0.6672 N   0  0  0  0  0  0  0  0  0  0  0  0
    4.1657   -1.2314    0.8160 C   0  0  0  0  0  0  0  0  0  0  0  0
    4.4938   -2.2574   -0.0767 C   0  0  0  0  0  0  0  0  0  0  0  0
    5.3281   -3.2026   -2.7078 H   0  0  0  0  0  0  0  0  0  0  0  0
    3.6262   -3.4219   -3.1681 H   0  0  0  0  0  0  0  0  0  0  0  0
    4.2889   -4.3523   -1.8247 H   0  0  0  0  0  0  0  0  0  0  0  0
    2.6383   -1.2535   -2.7540 H   0  0  0  0  0  0  0  0  0  0  0  0
    2.0595    0.5561   -1.1835 H   0  0  0  0  0  0  0  0  0  0  0  0
    2.7572   -0.4277    2.9284 H   0  0  0  0  0  0  0  0  0  0  0  0
    2.6591    2.5091    3.3911 H   0  0  0  0  0  0  0  0  0  0  0  0
    2.5887    1.2086    4.6217 H   0  0  0  0  0  0  0  0  0  0  0  0
   -1.7430    1.4010    3.3734 H   0  0  0  0  0  0  0  0  0  0  0  0
   -1.6481   -0.2741    2.8434 H   0  0  0  0  0  0  0  0  0  0  0  0
   -0.0286    2.5976    0.6863 H   0  0  0  0  0  0  0  0  0  0  0  0
   -3.6127    1.9988   -3.1114 H   0  0  0  0  0  0  0  0  0  0  0  0
   -5.5287    1.2932   -4.4567 H   0  0  0  0  0  0  0  0  0  0  0  0
   -7.1088   -0.4187   -3.6066 H   0  0  0  0  0  0  0  0  0  0  0  0
   -6.7407   -1.4334   -1.3709 H   0  0  0  0  0  0  0  0  0  0  0  0
   -4.8154   -0.7409    0.0063 H   0  0  0  0  0  0  0  0  0  0  0  0
    4.6299   -1.2176    1.7987 H   0  0  0  0  0  0  0  0  0  0  0  0
    5.1949   -3.0297    0.2337 H   0  0  0  0  0  0  0  0  0  0  0  0
  1  2  1  0
  2  3  2  0
  3  4  1  0
  4  5  2  0
  5  6  1  0
  6  7  2  0
  6  8  1  0
  8  9  1  0
  9 10  1  0
 10 11  2  0
 10 12  1  0
 12 13  1  0
 13 14  1  0
 14 15  2  0
 15 16  1  0
 16 17  1  0
 17 18  1  0
 18 19  2  0
 19 20  1  0
 20 21  2  0
 21 22  1  0
 22 23  2  0
 17 24  2  0
  5 25  1  0
 25 26  2  0
 26  2  1  0
 24 14  1  0
 23 18  1  0
  1 27  1  0
  1 28  1  0
  1 29  1  0
  3 30  1  0
  4 31  1  0
  8 32  1  0
  9 33  1  0
  9 34  1  0
 13 35  1  0
 13 36  1  0
 15 37  1  0
 19 38  1  0
 20 39  1  0
 21 40  1  0
 22 41  1  0
 23 42  1  0
 25 43  1  0
 26 44  1  0
M  END
$$$$
