
     RDKit          3D

 74 75  0  0  0  0  0  0  0  0999 V2000
   -2.7346    5.2201    3.7594 C   0  0  0  0  0  0  0  0  0  0  0  0
   -1.6268    4.4631    3.2869 O   0  0  0  0  0  0  0  0  0  0  0  0
   -1.7901    3.1042    3.2075 C   0  0  0  0  0  0  0  0  0  0  0  0
   -2.7355    2.4055    3.9640 C   0  0  0  0  0  0  0  0  0  0  0  0
   -2.8770    1.0270    3.8212 C   0  0  0  0  0  0  0  0  0  0  0  0
   -2.0832    0.3317    2.9122 C   0  0  0  0  0  0  0  0  0  0  0  0
   -1.1212    1.0002    2.1316 C   0  0  0  0  0  0  0  0  0  0  0  0
   -0.2354    0.2490    1.1309 C   0  0  0  0  0  0  0  0  0  0  0  0
   -0.1527   -1.2944    1.3271 C   0  0  0  0  0  0  0  0  0  0  0  0
   -0.5586   -2.1048    0.4988 O   0  0  0  0  0  0  0  0  0  0  0  0
    0.4414   -1.6751    2.5243 N   0  0  0  0  0  0  0  0  0  0  0  0
    0.6229   -3.0663    2.9681 C   0  0  0  0  0  0  0  0  0  0  0  0
   -0.7360   -3.7519    3.1748 C   0  0  0  0  0  0  0  0  0  0  0  0
    1.4753   -3.8632    1.9679 C   0  0  0  0  0  0  0  0  0  0  0  0
    1.3663   -3.0409    4.3167 C   0  0  0  0  0  0  0  0  0  0  0  0
   -0.3835    0.6411   -0.3097 N   0  0  0  0  0  0  0  0  0  0  0  0
    0.7548    0.9808   -1.0643 C   0  0  0  0  0  0  0  0  0  0  0  0
    0.6967    1.3473   -2.2438 O   0  0  0  0  0  0  0  0  0  0  0  0
    2.1330    0.8554   -0.4185 C   0  0  0  0  0  0  0  0  0  0  0  0
    3.2725    1.1497   -1.3943 C   0  0  0  0  0  0  0  0  0  0  0  0
    3.5487   -0.0350   -2.3041 C   0  0  0  0  0  0  0  0  0  0  0  0
    4.4882   -0.7862   -2.0647 O   0  0  0  0  0  0  0  0  0  0  0  0
    2.6390   -0.1328   -3.3328 N   0  0  0  0  0  0  0  0  0  0  0  0
    2.6323   -1.1125   -4.3035 C   0  0  0  0  0  0  0  0  0  0  0  0
    1.6205   -1.2170   -5.2886 C   0  0  0  0  0  0  0  0  0  0  0  0
    1.9822   -2.3025   -6.0457 C   0  0  0  0  0  0  0  0  0  0  0  0
    1.4054   -2.9824   -7.2172 C   0  0  0  0  0  0  0  0  0  0  0  0
    3.1361   -2.8208   -5.5528 O   0  0  0  0  0  0  0  0  0  0  0  0
    3.5449   -2.0751   -4.4645 N   0  0  0  0  0  0  0  0  0  0  0  0
   -1.7150    0.5593   -1.0360 C   0  0  0  0  0  0  0  0  0  0  0  0
   -1.6356   -0.4424   -2.2186 C   0  0  0  0  0  0  0  0  0  0  0  0
   -2.1085    1.9574   -1.5730 C   0  0  0  0  0  0  0  0  0  0  0  0
   -2.9223    0.0923   -0.1912 C   0  0  0  0  0  0  0  0  0  0  0  0
   -0.9496    2.3915    2.3263 C   0  0  0  0  0  0  0  0  0  0  0  0
    0.0345    2.9800    1.5662 O   0  0  0  0  0  0  0  0  0  0  0  0
    0.8627    3.9133    2.2560 C   0  0  0  0  0  0  0  0  0  0  0  0
   -2.5233    6.2752    3.5675 H   0  0  0  0  0  0  0  0  0  0  0  0
   -3.6532    4.9634    3.2247 H   0  0  0  0  0  0  0  0  0  0  0  0
   -2.8583    5.0994    4.8392 H   0  0  0  0  0  0  0  0  0  0  0  0
   -3.3799    2.9093    4.6771 H   0  0  0  0  0  0  0  0  0  0  0  0
   -3.6217    0.4952    4.4089 H   0  0  0  0  0  0  0  0  0  0  0  0
   -2.2514   -0.7390    2.8055 H   0  0  0  0  0  0  0  0  0  0  0  0
    0.7649    0.5553    1.4514 H   0  0  0  0  0  0  0  0  0  0  0  0
    0.6165   -0.9478    3.2074 H   0  0  0  0  0  0  0  0  0  0  0  0
   -0.6129   -4.7634    3.5761 H   0  0  0  0  0  0  0  0  0  0  0  0
   -1.3580   -3.1853    3.8776 H   0  0  0  0  0  0  0  0  0  0  0  0
   -1.2988   -3.8382    2.2397 H   0  0  0  0  0  0  0  0  0  0  0  0
    2.4263   -3.3549    1.7706 H   0  0  0  0  0  0  0  0  0  0  0  0
    0.9702   -3.9948    1.0065 H   0  0  0  0  0  0  0  0  0  0  0  0
    1.7013   -4.8644    2.3523 H   0  0  0  0  0  0  0  0  0  0  0  0
    0.8011   -2.4800    5.0699 H   0  0  0  0  0  0  0  0  0  0  0  0
    2.3438   -2.5557    4.2189 H   0  0  0  0  0  0  0  0  0  0  0  0
    1.5295   -4.0527    4.7035 H   0  0  0  0  0  0  0  0  0  0  0  0
    2.1986    1.5934    0.3871 H   0  0  0  0  0  0  0  0  0  0  0  0
    2.2513   -0.1538   -0.0116 H   0  0  0  0  0  0  0  0  0  0  0  0
    3.0820    2.0440   -1.9997 H   0  0  0  0  0  0  0  0  0  0  0  0
    4.1925    1.3473   -0.8299 H   0  0  0  0  0  0  0  0  0  0  0  0
    1.8503    0.5117   -3.3352 H   0  0  0  0  0  0  0  0  0  0  0  0
    0.7521   -0.5903   -5.4212 H   0  0  0  0  0  0  0  0  0  0  0  0
    2.1659   -3.1323   -7.9895 H   0  0  0  0  0  0  0  0  0  0  0  0
    0.5928   -2.3922   -7.6524 H   0  0  0  0  0  0  0  0  0  0  0  0
    1.0031   -3.9601   -6.9334 H   0  0  0  0  0  0  0  0  0  0  0  0
   -2.5947   -0.5041   -2.7460 H   0  0  0  0  0  0  0  0  0  0  0  0
   -0.8927   -0.1671   -2.9708 H   0  0  0  0  0  0  0  0  0  0  0  0
   -1.3852   -1.4481   -1.8661 H   0  0  0  0  0  0  0  0  0  0  0  0
   -3.1052    1.9380   -2.0318 H   0  0  0  0  0  0  0  0  0  0  0  0
   -1.4229    2.3343   -2.3363 H   0  0  0  0  0  0  0  0  0  0  0  0
   -2.1290    2.6938   -0.7607 H   0  0  0  0  0  0  0  0  0  0  0  0
   -2.7398   -0.8592    0.3133 H   0  0  0  0  0  0  0  0  0  0  0  0
   -3.8066   -0.0600   -0.8240 H   0  0  0  0  0  0  0  0  0  0  0  0
   -3.2206    0.8439    0.5439 H   0  0  0  0  0  0  0  0  0  0  0  0
    0.4875    4.9315    2.1179 H   0  0  0  0  0  0  0  0  0  0  0  0
    0.9759    3.6749    3.3194 H   0  0  0  0  0  0  0  0  0  0  0  0
    1.8572    3.8674    1.8031 H   0  0  0  0  0  0  0  0  0  0  0  0
  1  2  1  0
  2  3  1  0
  3  4  2  0
  4  5  1  0
  5  6  2  0
  6  7  1  0
  7  8  1  0
  8  9  1  0
  9 10  2  0
  9 11  1  0
 11 12  1  0
 12 13  1  0
 12 14  1  0
 12 15  1  0
  8 16  1  0
 16 17  1  0
 17 18  2  0
 17 19  1  0
 19 20  1  0
 20 21  1  0
 21 22  2  0
 21 23  1  0
 23 24  1  0
 24 25  1  0
 25 26  2  0
 26 27  1  0
 26 28  1  0
 28 29  1  0
 16 30  1  0
 30 31  1  0
 30 32  1  0
 30 33  1  0
  7 34  2  0
 34 35  1  0
 35 36  1  0
 34  3  1  0
 29 24  2  0
  1 37  1  0
  1 38  1  0
  1 39  1  0
  4 40  1  0
  5 41  1  0
  6 42  1  0
  8 43  1  0
 11 44  1  0
 13 45  1  0
 13 46  1  0
 13 47  1  0
 14 48  1  0
 14 49  1  0
 14 50  1  0
 15 51  1  0
 15 52  1  0
 15 53  1  0
 19 54  1  0
 19 55  1  0
 20 56  1  0
 20 57  1  0
 23 58  1  0
 25 59  1  0
 27 60  1  0
 27 61  1  0
 27 62  1  0
 31 63  1  0
 31 64  1  0
 31 65  1  0
 32 66  1  0
 32 67  1  0
 32 68  1  0
 33 69  1  0
 33 70  1  0
 33 71  1  0
 36 72  1  0
 36 73  1  0
 36 74  1  0
M  END
$$$$
