
     RDKit          3D

 42 43  0  0  0  0  0  0  0  0999 V2000
   -4.3246    1.9305   -1.1653 C   0  0  0  0  0  0  0  0  0  0  0  0
   -4.6528    0.4708   -1.1570 C   0  0  0  0  0  0  0  0  0  0  0  0
   -4.1972   -0.4569   -0.2899 C   0  0  0  0  0  0  0  0  0  0  0  0
   -4.6367   -1.8926   -0.4075 C   0  0  0  0  0  0  0  0  0  0  0  0
   -3.2624   -0.1624    0.8664 C   0  0  0  0  0  0  0  0  0  0  0  0
   -1.8973    0.1824    0.4459 N   0  0  0  0  0  0  0  0  0  0  0  0
   -1.1902   -0.9725   -0.1519 C   0  0  0  0  0  0  0  0  0  0  0  0
    0.2775   -0.6601   -0.5330 C   0  0  0  0  0  0  0  0  0  0  0  0
    1.0226   -0.1335    0.6363 N   0  0  0  0  0  0  0  0  0  0  0  0
    2.4089   -0.0484    0.4256 C   0  0  0  0  0  0  0  0  0  0  0  0
    3.1412   -1.2193    0.1692 C   0  0  0  0  0  0  0  0  0  0  0  0
    4.5253   -1.1967   -0.0395 C   0  0  0  0  0  0  0  0  0  0  0  0
    5.2248    0.0096   -0.0009 C   0  0  0  0  0  0  0  0  0  0  0  0
    6.7113    0.0395   -0.1892 C   0  0  0  0  0  0  0  0  0  0  0  0
    4.5197    1.1812    0.2807 C   0  0  0  0  0  0  0  0  0  0  0  0
    3.1341    1.1491    0.4909 C   0  0  0  0  0  0  0  0  0  0  0  0
    0.3404    1.0283    1.2406 C   0  0  0  0  0  0  0  0  0  0  0  0
   -1.1168    0.6670    1.6076 C   0  0  0  0  0  0  0  0  0  0  0  0
   -5.2498    2.5133   -1.1144 H   0  0  0  0  0  0  0  0  0  0  0  0
   -3.6918    2.2406   -0.3309 H   0  0  0  0  0  0  0  0  0  0  0  0
   -3.8105    2.1884   -2.0964 H   0  0  0  0  0  0  0  0  0  0  0  0
   -5.3274    0.1600   -1.9531 H   0  0  0  0  0  0  0  0  0  0  0  0
   -3.7722   -2.5515   -0.5337 H   0  0  0  0  0  0  0  0  0  0  0  0
   -5.3026   -2.0545   -1.2617 H   0  0  0  0  0  0  0  0  0  0  0  0
   -5.1757   -2.1977    0.4955 H   0  0  0  0  0  0  0  0  0  0  0  0
   -3.2509   -1.0077    1.5680 H   0  0  0  0  0  0  0  0  0  0  0  0
   -3.6969    0.6737    1.4315 H   0  0  0  0  0  0  0  0  0  0  0  0
   -1.7011   -1.2921   -1.0670 H   0  0  0  0  0  0  0  0  0  0  0  0
   -1.1984   -1.8216    0.5449 H   0  0  0  0  0  0  0  0  0  0  0  0
    0.2979    0.0770   -1.3471 H   0  0  0  0  0  0  0  0  0  0  0  0
    0.7226   -1.5863   -0.9141 H   0  0  0  0  0  0  0  0  0  0  0  0
    2.6338   -2.1807    0.1593 H   0  0  0  0  0  0  0  0  0  0  0  0
    5.0476   -2.1319   -0.2244 H   0  0  0  0  0  0  0  0  0  0  0  0
    7.0249    0.9748   -0.6650 H   0  0  0  0  0  0  0  0  0  0  0  0
    7.0411   -0.7801   -0.8365 H   0  0  0  0  0  0  0  0  0  0  0  0
    7.2133   -0.0518    0.7790 H   0  0  0  0  0  0  0  0  0  0  0  0
    5.0403    2.1343    0.3391 H   0  0  0  0  0  0  0  0  0  0  0  0
    2.6385    2.0933    0.6919 H   0  0  0  0  0  0  0  0  0  0  0  0
    0.3354    1.8774    0.5447 H   0  0  0  0  0  0  0  0  0  0  0  0
    0.8542    1.3348    2.1600 H   0  0  0  0  0  0  0  0  0  0  0  0
   -1.1064   -0.0928    2.4009 H   0  0  0  0  0  0  0  0  0  0  0  0
   -1.5935    1.5651    2.0187 H   0  0  0  0  0  0  0  0  0  0  0  0
  1  2  1  0
  2  3  2  3
  3  4  1  0
  3  5  1  0
  5  6  1  0
  6  7  1  0
  7  8  1  0
  8  9  1  0
  9 10  1  0
 10 11  2  0
 11 12  1  0
 12 13  2  0
 13 14  1  0
 13 15  1  0
 15 16  2  0
  9 17  1  0
 17 18  1  0
 18  6  1  0
 16 10  1  0
  1 19  1  0
  1 20  1  0
  1 21  1  0
  2 22  1  0
  4 23  1  0
  4 24  1  0
  4 25  1  0
  5 26  1  0
  5 27  1  0
  7 28  1  0
  7 29  1  0
  8 30  1  0
  8 31  1  0
 11 32  1  0
 12 33  1  0
 14 34  1  0
 14 35  1  0
 14 36  1  0
 15 37  1  0
 16 38  1  0
 17 39  1  0
 17 40  1  0
 18 41  1  0
 18 42  1  0
M  END
$$$$
