
     RDKit          3D

 36 38  0  0  0  0  0  0  0  0999 V2000
   -2.1313    2.2960    0.9366 C   0  0  0  0  0  0  0  0  0  0  0  0
   -1.6878    0.8855    0.7046 C   0  0  0  0  0  0  0  0  0  0  0  0
   -0.7358    0.3856    1.5221 N   0  0  0  0  0  0  0  0  0  0  0  0
   -0.3766   -0.9064    1.2913 C   0  0  0  0  0  0  0  0  0  0  0  0
    0.8931   -1.5500    2.3713 S   0  0  0  0  0  6  0  0  0  0  0  0
    1.4844   -2.7422    1.7784 O   0  0  0  0  0  0  0  0  0  0  0  0
    0.3326   -1.6283    3.7140 O   0  0  0  0  0  0  0  0  0  0  0  0
    2.1377   -0.2724    2.3872 C   0  0  0  0  0  0  0  0  0  0  0  0
    2.6150    0.0729    0.9973 C   0  0  0  0  0  0  0  0  0  0  0  0
    3.4403   -0.8036    0.2767 C   0  0  0  0  0  0  0  0  0  0  0  0
    3.8722   -0.4769   -1.0112 C   0  0  0  0  0  0  0  0  0  0  0  0
    3.4900    0.7327   -1.5845 C   0  0  0  0  0  0  0  0  0  0  0  0
    4.0184    1.1344   -3.1715 Cl  0  0  0  0  0  0  0  0  0  0  0  0
    2.6824    1.6207   -0.8791 C   0  0  0  0  0  0  0  0  0  0  0  0
    2.2496    1.2938    0.4081 C   0  0  0  0  0  0  0  0  0  0  0  0
   -0.8441   -1.7466    0.3465 N   0  0  0  0  0  0  0  0  0  0  0  0
   -1.7667   -1.1829   -0.4340 C   0  0  0  0  0  0  0  0  0  0  0  0
   -2.2208    0.1192   -0.3052 C   0  0  0  0  0  0  0  0  0  0  0  0
   -3.2829    0.4219   -1.3062 C   0  0  0  0  0  0  0  0  0  0  0  0
   -3.0634   -0.7088   -2.3241 C   0  0  0  0  0  0  0  0  0  0  0  0
   -2.4884   -1.8972   -1.5416 C   0  0  0  0  0  0  0  0  0  0  0  0
   -1.6134    2.7292    1.7985 H   0  0  0  0  0  0  0  0  0  0  0  0
   -3.2069    2.3292    1.1359 H   0  0  0  0  0  0  0  0  0  0  0  0
   -1.9068    2.9130    0.0611 H   0  0  0  0  0  0  0  0  0  0  0  0
    1.7169    0.6003    2.8975 H   0  0  0  0  0  0  0  0  0  0  0  0
    2.9740   -0.6359    2.9941 H   0  0  0  0  0  0  0  0  0  0  0  0
    3.7473   -1.7572    0.7060 H   0  0  0  0  0  0  0  0  0  0  0  0
    4.5025   -1.1726   -1.5593 H   0  0  0  0  0  0  0  0  0  0  0  0
    2.3869    2.5672   -1.3238 H   0  0  0  0  0  0  0  0  0  0  0  0
    1.6182    2.0008    0.9443 H   0  0  0  0  0  0  0  0  0  0  0  0
   -3.1585    1.4028   -1.7730 H   0  0  0  0  0  0  0  0  0  0  0  0
   -4.2722    0.3493   -0.8428 H   0  0  0  0  0  0  0  0  0  0  0  0
   -2.3275   -0.3811   -3.0718 H   0  0  0  0  0  0  0  0  0  0  0  0
   -3.9787   -0.9676   -2.8655 H   0  0  0  0  0  0  0  0  0  0  0  0
   -3.2846   -2.5217   -1.1244 H   0  0  0  0  0  0  0  0  0  0  0  0
   -1.8150   -2.5031   -2.1532 H   0  0  0  0  0  0  0  0  0  0  0  0
  1  2  1  0
  2  3  2  0
  3  4  1  0
  4  5  1  0
  5  6  2  0
  5  7  2  0
  5  8  1  0
  8  9  1  0
  9 10  2  0
 10 11  1  0
 11 12  2  0
 12 13  1  0
 12 14  1  0
 14 15  2  0
  4 16  2  0
 16 17  1  0
 17 18  2  0
 18 19  1  0
 19 20  1  0
 20 21  1  0
 18  2  1  0
 15  9  1  0
 21 17  1  0
  1 22  1  0
  1 23  1  0
  1 24  1  0
  8 25  1  0
  8 26  1  0
 10 27  1  0
 11 28  1  0
 14 29  1  0
 15 30  1  0
 19 31  1  0
 19 32  1  0
 20 33  1  0
 20 34  1  0
 21 35  1  0
 21 36  1  0
M  END
$$$$
