
     RDKit          3D

 57 60  0  0  0  0  0  0  0  0999 V2000
   -7.0732    0.7224    3.4449 C   0  0  0  0  0  0  0  0  0  0  0  0
   -6.6089   -0.5613    3.0475 O   0  0  0  0  0  0  0  0  0  0  0  0
   -5.4714   -0.6072    2.2888 C   0  0  0  0  0  0  0  0  0  0  0  0
   -5.0973   -1.8903    1.8846 C   0  0  0  0  0  0  0  0  0  0  0  0
   -3.9602   -2.0937    1.0981 C   0  0  0  0  0  0  0  0  0  0  0  0
   -3.1808   -1.0066    0.7118 C   0  0  0  0  0  0  0  0  0  0  0  0
   -2.0139   -1.1089   -0.0772 N   0  0  0  0  0  0  0  0  0  0  0  0
   -1.4131   -2.2400   -0.5874 C   0  0  0  0  0  0  0  0  0  0  0  0
   -1.8461   -3.3868   -0.4749 O   0  0  0  0  0  0  0  0  0  0  0  0
   -0.1649   -1.9972   -1.4219 C   0  0  0  0  0  0  0  0  0  0  0  0
    0.6530   -0.8752   -0.9786 N   0  0  0  0  0  0  0  0  0  0  0  0
    1.5841   -0.9557    0.0212 C   0  0  0  0  0  0  0  0  0  0  0  0
    2.1528    0.2921    0.1693 C   0  0  0  0  0  0  0  0  0  0  0  0
    3.4289    0.6975    1.2621 S   0  0  0  0  0  6  0  0  0  0  0  0
    3.5903   -0.4669    2.1123 O   0  0  0  0  0  0  0  0  0  0  0  0
    3.0347    1.9798    1.8163 O   0  0  0  0  0  0  0  0  0  0  0  0
    4.8783    0.9304    0.2458 C   0  0  0  0  0  0  0  0  0  0  0  0
    5.1048   -0.2405   -0.6744 C   0  0  0  0  0  0  0  0  0  0  0  0
    5.6326   -1.4450   -0.1879 C   0  0  0  0  0  0  0  0  0  0  0  0
    5.8269   -2.5303   -1.0434 C   0  0  0  0  0  0  0  0  0  0  0  0
    5.5011   -2.4234   -2.3935 C   0  0  0  0  0  0  0  0  0  0  0  0
    4.9818   -1.2305   -2.8908 C   0  0  0  0  0  0  0  0  0  0  0  0
    4.7867   -0.1434   -2.0379 C   0  0  0  0  0  0  0  0  0  0  0  0
    1.5395    1.1717   -0.7675 C   0  0  0  0  0  0  0  0  0  0  0  0
    1.6785    2.5410   -1.0838 C   0  0  0  0  0  0  0  0  0  0  0  0
    0.9061    3.1018   -2.1051 C   0  0  0  0  0  0  0  0  0  0  0  0
   -0.0001    2.3223   -2.8136 C   0  0  0  0  0  0  0  0  0  0  0  0
   -0.1637    0.9660   -2.5211 C   0  0  0  0  0  0  0  0  0  0  0  0
    0.6158    0.4079   -1.4939 C   0  0  0  0  0  0  0  0  0  0  0  0
   -3.5466    0.2920    1.1272 C   0  0  0  0  0  0  0  0  0  0  0  0
   -2.7154    1.2988    0.6881 O   0  0  0  0  0  0  0  0  0  0  0  0
   -2.8373    2.5627    1.3288 C   0  0  0  0  0  0  0  0  0  0  0  0
   -4.6931    0.4873    1.9072 C   0  0  0  0  0  0  0  0  0  0  0  0
   -7.3233    1.3378    2.5736 H   0  0  0  0  0  0  0  0  0  0  0  0
   -7.9893    0.5812    4.0266 H   0  0  0  0  0  0  0  0  0  0  0  0
   -6.3438    1.2256    4.0890 H   0  0  0  0  0  0  0  0  0  0  0  0
   -5.6992   -2.7460    2.1823 H   0  0  0  0  0  0  0  0  0  0  0  0
   -3.7150   -3.1092    0.8079 H   0  0  0  0  0  0  0  0  0  0  0  0
   -1.5737   -0.2042   -0.2328 H   0  0  0  0  0  0  0  0  0  0  0  0
   -0.4526   -1.8384   -2.4650 H   0  0  0  0  0  0  0  0  0  0  0  0
    0.4712   -2.8887   -1.3765 H   0  0  0  0  0  0  0  0  0  0  0  0
    1.7811   -1.8843    0.5447 H   0  0  0  0  0  0  0  0  0  0  0  0
    5.7330    1.0648    0.9170 H   0  0  0  0  0  0  0  0  0  0  0  0
    4.7486    1.8612   -0.3159 H   0  0  0  0  0  0  0  0  0  0  0  0
    5.8861   -1.5543    0.8659 H   0  0  0  0  0  0  0  0  0  0  0  0
    6.2302   -3.4619   -0.6538 H   0  0  0  0  0  0  0  0  0  0  0  0
    5.6522   -3.2703   -3.0578 H   0  0  0  0  0  0  0  0  0  0  0  0
    4.7271   -1.1467   -3.9444 H   0  0  0  0  0  0  0  0  0  0  0  0
    4.3750    0.7764   -2.4497 H   0  0  0  0  0  0  0  0  0  0  0  0
    2.3678    3.1731   -0.5296 H   0  0  0  0  0  0  0  0  0  0  0  0
    1.0117    4.1585   -2.3405 H   0  0  0  0  0  0  0  0  0  0  0  0
   -0.5967    2.7751   -3.6029 H   0  0  0  0  0  0  0  0  0  0  0  0
   -0.8843    0.3761   -3.0796 H   0  0  0  0  0  0  0  0  0  0  0  0
   -3.7716    3.0563    1.0424 H   0  0  0  0  0  0  0  0  0  0  0  0
   -2.0098    3.1913    0.9856 H   0  0  0  0  0  0  0  0  0  0  0  0
   -2.7554    2.4695    2.4168 H   0  0  0  0  0  0  0  0  0  0  0  0
   -4.9790    1.4862    2.2070 H   0  0  0  0  0  0  0  0  0  0  0  0
  1  2  1  0
  2  3  1  0
  3  4  2  0
  4  5  1  0
  5  6  2  0
  6  7  1  0
  7  8  1  0
  8  9  2  0
  8 10  1  0
 10 11  1  0
 11 12  1  0
 12 13  2  0
 13 14  1  0
 14 15  2  0
 14 16  2  0
 14 17  1  0
 17 18  1  0
 18 19  2  0
 19 20  1  0
 20 21  2  0
 21 22  1  0
 22 23  2  0
 13 24  1  0
 24 25  2  0
 25 26  1  0
 26 27  2  0
 27 28  1  0
 28 29  2  0
  6 30  1  0
 30 31  1  0
 31 32  1  0
 30 33  2  0
 33  3  1  0
 29 11  1  0
 23 18  1  0
 29 24  1  0
  1 34  1  0
  1 35  1  0
  1 36  1  0
  4 37  1  0
  5 38  1  0
  7 39  1  0
 10 40  1  0
 10 41  1  0
 12 42  1  0
 17 43  1  0
 17 44  1  0
 19 45  1  0
 20 46  1  0
 21 47  1  0
 22 48  1  0
 23 49  1  0
 25 50  1  0
 26 51  1  0
 27 52  1  0
 28 53  1  0
 32 54  1  0
 32 55  1  0
 32 56  1  0
 33 57  1  0
M  END
$$$$
