
     RDKit          3D

 44 46  0  0  0  0  0  0  0  0999 V2000
   -5.5380   -1.9109    1.6276 C   0  0  0  0  0  0  0  0  0  0  0  0
   -4.5714   -1.5775    0.5288 C   0  0  0  0  0  0  0  0  0  0  0  0
   -3.2354   -1.9940    0.6108 C   0  0  0  0  0  0  0  0  0  0  0  0
   -2.3273   -1.6611   -0.3955 C   0  0  0  0  0  0  0  0  0  0  0  0
   -2.7543   -0.8890   -1.4785 C   0  0  0  0  0  0  0  0  0  0  0  0
   -1.6105   -0.4627   -2.7655 S   0  0  0  0  0  6  0  0  0  0  0  0
   -2.3407   -0.4860   -4.0163 O   0  0  0  0  0  0  0  0  0  0  0  0
   -0.4002   -1.2376   -2.5966 O   0  0  0  0  0  0  0  0  0  0  0  0
   -1.2842    1.1683   -2.4488 N   0  0  0  0  0  0  0  0  0  0  0  0
   -0.3155    1.4686   -1.4517 C   0  0  0  0  0  0  0  0  0  0  0  0
   -0.7006    1.5370   -0.1140 C   0  0  0  0  0  0  0  0  0  0  0  0
    0.2509    1.7812    0.8836 C   0  0  0  0  0  0  0  0  0  0  0  0
   -0.1659    1.8488    2.3248 C   0  0  0  0  0  0  0  0  0  0  0  0
    1.5953    1.9361    0.5136 C   0  0  0  0  0  0  0  0  0  0  0  0
    2.4957    2.1466    1.5259 O   0  0  0  0  0  0  0  0  0  0  0  0
    1.9933    1.8751   -0.8333 C   0  0  0  0  0  0  0  0  0  0  0  0
    3.6661    2.1729   -1.3924 S   0  0  0  0  0  0  0  0  0  0  0  0
    4.5220    0.8143   -0.7254 C   0  0  0  0  0  0  0  0  0  0  0  0
    5.2747    0.0019   -1.4688 N   0  0  0  0  0  0  0  0  0  0  0  0
    5.7292   -0.8603   -0.5476 N   0  0  0  0  0  0  0  0  0  0  0  0
    5.2759   -0.5390    0.7013 C   0  0  0  0  0  0  0  0  0  0  0  0
    5.6272   -1.3146    1.9085 C   0  0  0  0  0  0  0  0  0  0  0  0
    4.5148    0.5319    0.6170 N   0  0  0  0  0  0  0  0  0  0  0  0
    1.0207    1.6358   -1.8131 C   0  0  0  0  0  0  0  0  0  0  0  0
   -4.0821   -0.4656   -1.5739 C   0  0  0  0  0  0  0  0  0  0  0  0
   -4.9849   -0.8036   -0.5647 C   0  0  0  0  0  0  0  0  0  0  0  0
   -5.5411   -1.1135    2.3770 H   0  0  0  0  0  0  0  0  0  0  0  0
   -5.2670   -2.8533    2.1149 H   0  0  0  0  0  0  0  0  0  0  0  0
   -6.5518   -2.0303    1.2315 H   0  0  0  0  0  0  0  0  0  0  0  0
   -2.8953   -2.5850    1.4589 H   0  0  0  0  0  0  0  0  0  0  0  0
   -1.2951   -1.9971   -0.3230 H   0  0  0  0  0  0  0  0  0  0  0  0
   -1.2452    1.6984   -3.3190 H   0  0  0  0  0  0  0  0  0  0  0  0
   -1.7465    1.4126    0.1557 H   0  0  0  0  0  0  0  0  0  0  0  0
   -1.2539    1.7848    2.4311 H   0  0  0  0  0  0  0  0  0  0  0  0
    0.2751    1.0178    2.8845 H   0  0  0  0  0  0  0  0  0  0  0  0
    0.1521    2.7969    2.7702 H   0  0  0  0  0  0  0  0  0  0  0  0
    3.3526    1.7618    1.2422 H   0  0  0  0  0  0  0  0  0  0  0  0
    6.3327   -1.6233   -0.8343 H   0  0  0  0  0  0  0  0  0  0  0  0
    5.1158   -0.9104    2.7876 H   0  0  0  0  0  0  0  0  0  0  0  0
    6.7052   -1.2737    2.0926 H   0  0  0  0  0  0  0  0  0  0  0  0
    5.3322   -2.3623    1.7951 H   0  0  0  0  0  0  0  0  0  0  0  0
    1.3082    1.5684   -2.8595 H   0  0  0  0  0  0  0  0  0  0  0  0
   -4.4164    0.1253   -2.4236 H   0  0  0  0  0  0  0  0  0  0  0  0
   -6.0162   -0.4640   -0.6377 H   0  0  0  0  0  0  0  0  0  0  0  0
  1  2  1  0
  2  3  2  0
  3  4  1  0
  4  5  2  0
  5  6  1  0
  6  7  2  0
  6  8  2  0
  6  9  1  0
  9 10  1  0
 10 11  2  0
 11 12  1  0
 12 13  1  0
 12 14  2  0
 14 15  1  0
 14 16  1  0
 16 17  1  0
 17 18  1  0
 18 19  2  0
 19 20  1  0
 20 21  1  0
 21 22  1  0
 21 23  2  0
 16 24  2  0
  5 25  1  0
 25 26  2  0
 26  2  1  0
 24 10  1  0
 23 18  1  0
  1 27  1  0
  1 28  1  0
  1 29  1  0
  3 30  1  0
  4 31  1  0
  9 32  1  0
 11 33  1  0
 13 34  1  0
 13 35  1  0
 13 36  1  0
 15 37  1  0
 20 38  1  0
 22 39  1  0
 22 40  1  0
 22 41  1  0
 24 42  1  0
 25 43  1  0
 26 44  1  0
M  END
$$$$
