
     RDKit          3D

 48 51  0  0  0  0  0  0  0  0999 V2000
   -0.3259    0.2829    2.2799 C   0  0  0  0  0  0  0  0  0  0  0  0
   -0.0437   -0.6018    1.0752 C   0  0  0  0  0  0  0  0  0  0  0  0
   -0.5419   -0.0871   -0.1828 N   0  0  0  0  0  0  0  0  0  0  0  0
   -1.8492   -0.1481   -0.6087 C   0  0  0  0  0  0  0  0  0  0  0  0
   -3.1912   -0.5646    0.3988 S   0  0  0  0  0  0  0  0  0  0  0  0
   -4.5591   -0.3980   -0.7886 C   0  0  0  0  0  0  0  0  0  0  0  0
   -5.8867   -0.7025   -0.1359 C   0  0  0  0  0  0  0  0  0  0  0  0
   -6.3903   -2.0139   -0.1247 C   0  0  0  0  0  0  0  0  0  0  0  0
   -7.6102   -2.2964    0.4919 C   0  0  0  0  0  0  0  0  0  0  0  0
   -8.3240   -1.2717    1.1012 C   0  0  0  0  0  0  0  0  0  0  0  0
   -9.4939   -1.5446    1.6940 F   0  0  0  0  0  0  0  0  0  0  0  0
   -7.8409    0.0311    1.1083 C   0  0  0  0  0  0  0  0  0  0  0  0
   -6.6215    0.3169    0.4924 C   0  0  0  0  0  0  0  0  0  0  0  0
   -1.9164    0.1001   -1.8923 N   0  0  0  0  0  0  0  0  0  0  0  0
   -0.6417    0.3018   -2.3377 N   0  0  0  0  0  0  0  0  0  0  0  0
    0.1874    0.2386   -1.3104 C   0  0  0  0  0  0  0  0  0  0  0  0
    1.7175    0.4535   -1.5524 C   0  0  0  0  0  0  0  0  0  0  0  0
    2.2835    0.4667   -2.8392 C   0  0  0  0  0  0  0  0  0  0  0  0
    3.6004    0.6439   -2.8140 N   0  0  0  0  0  0  0  0  0  0  0  0
    3.9219    0.6600   -1.4926 N   0  0  0  0  0  0  0  0  0  0  0  0
    5.3001    0.5552   -1.1268 C   0  0  0  0  0  0  0  0  0  0  0  0
    5.7080    0.1522    0.1509 C   0  0  0  0  0  0  0  0  0  0  0  0
    7.0699    0.0500    0.4567 C   0  0  0  0  0  0  0  0  0  0  0  0
    8.0327    0.3333   -0.5091 C   0  0  0  0  0  0  0  0  0  0  0  0
    7.6386    0.7087   -1.7898 C   0  0  0  0  0  0  0  0  0  0  0  0
    6.2809    0.8122   -2.1010 C   0  0  0  0  0  0  0  0  0  0  0  0
    2.7764    0.7613   -0.7169 C   0  0  0  0  0  0  0  0  0  0  0  0
    2.8093    1.3082    0.6395 C   0  0  0  0  0  0  0  0  0  0  0  0
    1.6747    1.9995    0.9122 F   0  0  0  0  0  0  0  0  0  0  0  0
    3.8269    2.1747    0.8548 F   0  0  0  0  0  0  0  0  0  0  0  0
    2.9021    0.3372    1.5811 F   0  0  0  0  0  0  0  0  0  0  0  0
   -1.3735    0.2184    2.5876 H   0  0  0  0  0  0  0  0  0  0  0  0
   -0.1158    1.3361    2.0819 H   0  0  0  0  0  0  0  0  0  0  0  0
    0.2810   -0.0390    3.1322 H   0  0  0  0  0  0  0  0  0  0  0  0
    1.0262   -0.7799    0.9677 H   0  0  0  0  0  0  0  0  0  0  0  0
   -0.4875   -1.5931    1.2279 H   0  0  0  0  0  0  0  0  0  0  0  0
   -4.4020   -1.0786   -1.6337 H   0  0  0  0  0  0  0  0  0  0  0  0
   -4.5759    0.6203   -1.1943 H   0  0  0  0  0  0  0  0  0  0  0  0
   -5.8325   -2.8214   -0.5948 H   0  0  0  0  0  0  0  0  0  0  0  0
   -8.0059   -3.3068    0.5029 H   0  0  0  0  0  0  0  0  0  0  0  0
   -8.4144    0.8141    1.5938 H   0  0  0  0  0  0  0  0  0  0  0  0
   -6.2451    1.3378    0.5061 H   0  0  0  0  0  0  0  0  0  0  0  0
    1.7839    0.3470   -3.7939 H   0  0  0  0  0  0  0  0  0  0  0  0
    5.0094   -0.1316    0.9287 H   0  0  0  0  0  0  0  0  0  0  0  0
    7.3801   -0.2626    1.4513 H   0  0  0  0  0  0  0  0  0  0  0  0
    9.0892    0.2511   -0.2669 H   0  0  0  0  0  0  0  0  0  0  0  0
    8.3860    0.9207   -2.5505 H   0  0  0  0  0  0  0  0  0  0  0  0
    6.0032    1.1081   -3.1121 H   0  0  0  0  0  0  0  0  0  0  0  0
  1  2  1  0
  2  3  1  0
  3  4  1  0
  4  5  1  0
  5  6  1  0
  6  7  1  0
  7  8  2  0
  8  9  1  0
  9 10  2  0
 10 11  1  0
 10 12  1  0
 12 13  2  0
  4 14  2  0
 14 15  1  0
 15 16  2  0
 16 17  1  0
 17 18  1  0
 18 19  2  0
 19 20  1  0
 20 21  1  0
 21 22  2  0
 22 23  1  0
 23 24  2  0
 24 25  1  0
 25 26  2  0
 20 27  1  0
 27 28  1  0
 28 29  1  0
 28 30  1  0
 28 31  1  0
 16  3  1  0
 27 17  2  0
 13  7  1  0
 26 21  1  0
  1 32  1  0
  1 33  1  0
  1 34  1  0
  2 35  1  0
  2 36  1  0
  6 37  1  0
  6 38  1  0
  8 39  1  0
  9 40  1  0
 12 41  1  0
 13 42  1  0
 18 43  1  0
 22 44  1  0
 23 45  1  0
 24 46  1  0
 25 47  1  0
 26 48  1  0
M  END
$$$$
