
     RDKit          3D

 40 42  0  0  0  0  0  0  0  0999 V2000
    4.9257   -1.3489    0.7361 N   0  0  0  0  0  0  0  0  0  0  0  0
    3.4927   -1.2444    0.4954 C   0  0  0  0  0  0  0  0  0  0  0  0
    3.1996   -0.0378   -0.3959 C   0  0  0  0  0  0  0  0  0  0  0  0
    1.7125    0.1172   -0.7272 C   0  0  0  0  0  0  0  0  0  0  0  0
    0.8629    0.5114    0.4922 C   0  0  0  0  0  0  0  0  0  0  0  0
   -0.5510    0.7458    0.1147 N   0  0  0  0  0  0  0  0  0  0  0  0
   -0.9216    2.0855   -0.2083 C   0  0  0  0  0  0  0  0  0  0  0  0
    0.0359    3.0828   -0.5068 C   0  0  0  0  0  0  0  0  0  0  0  0
   -0.3182    4.3973   -0.8361 C   0  0  0  0  0  0  0  0  0  0  0  0
   -1.6519    4.7634   -0.8830 C   0  0  0  0  0  0  0  0  0  0  0  0
   -2.6237    3.8104   -0.6033 C   0  0  0  0  0  0  0  0  0  0  0  0
   -2.2719    2.4857   -0.2737 C   0  0  0  0  0  0  0  0  0  0  0  0
   -3.6361    1.4042    0.0794 S   0  0  0  0  0  0  0  0  0  0  0  0
   -2.8453   -0.1826    0.1797 C   0  0  0  0  0  0  0  0  0  0  0  0
   -3.7185   -1.2849    0.2645 C   0  0  0  0  0  0  0  0  0  0  0  0
   -3.2320   -2.5836    0.3692 C   0  0  0  0  0  0  0  0  0  0  0  0
   -1.8573   -2.8030    0.3842 C   0  0  0  0  0  0  0  0  0  0  0  0
   -1.3002   -4.1989    0.5126 C   0  0  0  0  0  0  0  0  0  0  0  0
   -0.0902   -4.3472   -0.0974 F   0  0  0  0  0  0  0  0  0  0  0  0
   -2.1078   -5.1525   -0.0286 F   0  0  0  0  0  0  0  0  0  0  0  0
   -1.1083   -4.5610    1.8107 F   0  0  0  0  0  0  0  0  0  0  0  0
   -0.9909   -1.6933    0.3115 C   0  0  0  0  0  0  0  0  0  0  0  0
   -1.4477   -0.3581    0.2089 C   0  0  0  0  0  0  0  0  0  0  0  0
    5.1175   -2.1804    1.2946 H   0  0  0  0  0  0  0  0  0  0  0  0
    5.4168   -1.4843   -0.1474 H   0  0  0  0  0  0  0  0  0  0  0  0
    3.1331   -2.1637    0.0205 H   0  0  0  0  0  0  0  0  0  0  0  0
    2.9871   -1.1459    1.4603 H   0  0  0  0  0  0  0  0  0  0  0  0
    3.5669    0.8812    0.0780 H   0  0  0  0  0  0  0  0  0  0  0  0
    3.7488   -0.1458   -1.3404 H   0  0  0  0  0  0  0  0  0  0  0  0
    1.6170    0.8796   -1.5090 H   0  0  0  0  0  0  0  0  0  0  0  0
    1.3417   -0.8096   -1.1787 H   0  0  0  0  0  0  0  0  0  0  0  0
    1.2921    1.3923    0.9866 H   0  0  0  0  0  0  0  0  0  0  0  0
    0.9296   -0.2486    1.2794 H   0  0  0  0  0  0  0  0  0  0  0  0
    1.0996    2.8686   -0.5111 H   0  0  0  0  0  0  0  0  0  0  0  0
    0.4559    5.1273   -1.0590 H   0  0  0  0  0  0  0  0  0  0  0  0
   -1.9373    5.7802   -1.1370 H   0  0  0  0  0  0  0  0  0  0  0  0
   -3.6705    4.1060   -0.6419 H   0  0  0  0  0  0  0  0  0  0  0  0
   -4.7965   -1.1307    0.2515 H   0  0  0  0  0  0  0  0  0  0  0  0
   -3.9302   -3.4160    0.4350 H   0  0  0  0  0  0  0  0  0  0  0  0
    0.0720   -1.9180    0.3198 H   0  0  0  0  0  0  0  0  0  0  0  0
  1  2  1  0
  2  3  1  0
  3  4  1  0
  4  5  1  0
  5  6  1  0
  6  7  1  0
  7  8  2  0
  8  9  1  0
  9 10  2  0
 10 11  1  0
 11 12  2  0
 12 13  1  0
 13 14  1  0
 14 15  2  0
 15 16  1  0
 16 17  2  0
 17 18  1  0
 18 19  1  0
 18 20  1  0
 18 21  1  0
 17 22  1  0
 22 23  2  0
 23  6  1  0
 12  7  1  0
 23 14  1  0
  1 24  1  0
  1 25  1  0
  2 26  1  0
  2 27  1  0
  3 28  1  0
  3 29  1  0
  4 30  1  0
  4 31  1  0
  5 32  1  0
  5 33  1  0
  8 34  1  0
  9 35  1  0
 10 36  1  0
 11 37  1  0
 15 38  1  0
 16 39  1  0
 22 40  1  0
M  END
$$$$
