
     RDKit          3D

 57 60  0  0  0  0  0  0  0  0999 V2000
   -8.7710   -0.3735   -0.3986 C   0  0  0  0  0  0  0  0  0  0  0  0
   -7.8922   -0.5718    0.7007 O   0  0  0  0  0  0  0  0  0  0  0  0
   -6.6343   -0.0436    0.6026 C   0  0  0  0  0  0  0  0  0  0  0  0
   -5.8011   -0.3293    1.6853 C   0  0  0  0  0  0  0  0  0  0  0  0
   -4.4873    0.1438    1.7244 C   0  0  0  0  0  0  0  0  0  0  0  0
   -3.9935    0.9120    0.6729 C   0  0  0  0  0  0  0  0  0  0  0  0
   -2.6795    1.4284    0.6239 N   0  0  0  0  0  0  0  0  0  0  0  0
   -1.6615    1.2792    1.5468 C   0  0  0  0  0  0  0  0  0  0  0  0
   -1.7358    0.6723    2.6122 O   0  0  0  0  0  0  0  0  0  0  0  0
   -0.3750    1.9683    1.1338 C   0  0  0  0  0  0  0  0  0  0  0  0
    0.6002    1.0241    0.6098 N   0  0  0  0  0  0  0  0  0  0  0  0
    1.5590    0.4113    1.3731 C   0  0  0  0  0  0  0  0  0  0  0  0
    2.3066   -0.3991    0.5449 C   0  0  0  0  0  0  0  0  0  0  0  0
    3.6721   -1.3549    1.0203 S   0  0  0  0  0  6  0  0  0  0  0  0
    3.7055   -1.2353    2.4654 O   0  0  0  0  0  0  0  0  0  0  0  0
    3.4762   -2.6214    0.3429 O   0  0  0  0  0  0  0  0  0  0  0  0
    5.0393   -0.4549    0.2964 C   0  0  0  0  0  0  0  0  0  0  0  0
    6.3309   -1.1437    0.6499 C   0  0  0  0  0  0  0  0  0  0  0  0
    6.8300   -2.1798   -0.1534 C   0  0  0  0  0  0  0  0  0  0  0  0
    8.0233   -2.8221    0.1813 C   0  0  0  0  0  0  0  0  0  0  0  0
    8.7282   -2.4386    1.3204 C   0  0  0  0  0  0  0  0  0  0  0  0
    8.2385   -1.4155    2.1300 C   0  0  0  0  0  0  0  0  0  0  0  0
    7.0454   -0.7713    1.7982 C   0  0  0  0  0  0  0  0  0  0  0  0
    1.7883   -0.2758   -0.7758 C   0  0  0  0  0  0  0  0  0  0  0  0
    2.1106   -0.8495   -2.0258 C   0  0  0  0  0  0  0  0  0  0  0  0
    1.3945   -0.4808   -3.1686 C   0  0  0  0  0  0  0  0  0  0  0  0
    0.3662    0.4498   -3.0857 C   0  0  0  0  0  0  0  0  0  0  0  0
    0.0174    1.0286   -1.8621 C   0  0  0  0  0  0  0  0  0  0  0  0
    0.7345    0.6484   -0.7144 C   0  0  0  0  0  0  0  0  0  0  0  0
   -4.8303    1.2060   -0.4262 C   0  0  0  0  0  0  0  0  0  0  0  0
   -4.2472    1.9720   -1.4142 O   0  0  0  0  0  0  0  0  0  0  0  0
   -5.0408    2.2670   -2.5577 C   0  0  0  0  0  0  0  0  0  0  0  0
   -6.1474    0.7281   -0.4544 C   0  0  0  0  0  0  0  0  0  0  0  0
   -9.0007    0.6883   -0.5308 H   0  0  0  0  0  0  0  0  0  0  0  0
   -8.3616   -0.8067   -1.3176 H   0  0  0  0  0  0  0  0  0  0  0  0
   -9.7079   -0.8928   -0.1748 H   0  0  0  0  0  0  0  0  0  0  0  0
   -6.1754   -0.9322    2.5098 H   0  0  0  0  0  0  0  0  0  0  0  0
   -3.8791   -0.1097    2.5869 H   0  0  0  0  0  0  0  0  0  0  0  0
   -2.4963    1.9489   -0.2277 H   0  0  0  0  0  0  0  0  0  0  0  0
    0.0596    2.4630    2.0096 H   0  0  0  0  0  0  0  0  0  0  0  0
   -0.5496    2.7444    0.3819 H   0  0  0  0  0  0  0  0  0  0  0  0
    1.6277    0.5804    2.4419 H   0  0  0  0  0  0  0  0  0  0  0  0
    4.9048   -0.4198   -0.7883 H   0  0  0  0  0  0  0  0  0  0  0  0
    5.0221    0.5678    0.6863 H   0  0  0  0  0  0  0  0  0  0  0  0
    6.2868   -2.5052   -1.0389 H   0  0  0  0  0  0  0  0  0  0  0  0
    8.3981   -3.6295   -0.4426 H   0  0  0  0  0  0  0  0  0  0  0  0
    9.6537   -2.9448    1.5843 H   0  0  0  0  0  0  0  0  0  0  0  0
    8.7822   -1.1251    3.0255 H   0  0  0  0  0  0  0  0  0  0  0  0
    6.6716    0.0146    2.4528 H   0  0  0  0  0  0  0  0  0  0  0  0
    2.8990   -1.5939   -2.1093 H   0  0  0  0  0  0  0  0  0  0  0  0
    1.6408   -0.9337   -4.1263 H   0  0  0  0  0  0  0  0  0  0  0  0
   -0.1830    0.7236   -3.9842 H   0  0  0  0  0  0  0  0  0  0  0  0
   -0.7940    1.7466   -1.8213 H   0  0  0  0  0  0  0  0  0  0  0  0
   -5.3310    1.3520   -3.0840 H   0  0  0  0  0  0  0  0  0  0  0  0
   -4.4298    2.8645   -3.2406 H   0  0  0  0  0  0  0  0  0  0  0  0
   -5.9165    2.8656   -2.2863 H   0  0  0  0  0  0  0  0  0  0  0  0
   -6.7911    0.9553   -1.2930 H   0  0  0  0  0  0  0  0  0  0  0  0
  1  2  1  0
  2  3  1  0
  3  4  2  0
  4  5  1  0
  5  6  2  0
  6  7  1  0
  7  8  1  0
  8  9  2  0
  8 10  1  0
 10 11  1  0
 11 12  1  0
 12 13  2  0
 13 14  1  0
 14 15  2  0
 14 16  2  0
 14 17  1  0
 17 18  1  0
 18 19  2  0
 19 20  1  0
 20 21  2  0
 21 22  1  0
 22 23  2  0
 13 24  1  0
 24 25  2  0
 25 26  1  0
 26 27  2  0
 27 28  1  0
 28 29  2  0
  6 30  1  0
 30 31  1  0
 31 32  1  0
 30 33  2  0
 33  3  1  0
 29 11  1  0
 23 18  1  0
 29 24  1  0
  1 34  1  0
  1 35  1  0
  1 36  1  0
  4 37  1  0
  5 38  1  0
  7 39  1  0
 10 40  1  0
 10 41  1  0
 12 42  1  0
 17 43  1  0
 17 44  1  0
 19 45  1  0
 20 46  1  0
 21 47  1  0
 22 48  1  0
 23 49  1  0
 25 50  1  0
 26 51  1  0
 27 52  1  0
 28 53  1  0
 32 54  1  0
 32 55  1  0
 32 56  1  0
 33 57  1  0
M  END
$$$$
