
     RDKit          3D

 48 52  0  0  0  0  0  0  0  0999 V2000
   -3.3770   -1.8567   -2.8845 C   0  0  0  0  0  0  0  0  0  0  0  0
   -2.7863   -1.1669   -1.7603 N   0  0  0  0  0  0  0  0  0  0  0  0
   -1.5425   -0.6025   -1.7634 C   0  0  0  0  0  0  0  0  0  0  0  0
   -1.3076   -0.0237   -0.5255 C   0  0  0  0  0  0  0  0  0  0  0  0
   -0.0840    0.7225   -0.0472 C   0  0  0  0  0  0  0  0  0  0  0  0
    0.4022    1.6139   -1.1933 C   0  0  0  0  0  0  0  0  0  0  0  0
   -0.0665    2.9315   -1.2586 C   0  0  0  0  0  0  0  0  0  0  0  0
    0.3529    3.7587   -2.2978 C   0  0  0  0  0  0  0  0  0  0  0  0
    1.2258    3.2594   -3.2544 C   0  0  0  0  0  0  0  0  0  0  0  0
    1.6401    1.9455   -3.1358 C   0  0  0  0  0  0  0  0  0  0  0  0
    1.2458    1.1191   -2.1441 N   0  0  0  0  0  0  0  0  0  0  0  0
    1.0667   -0.1305    0.4229 C   0  0  0  0  0  0  0  0  0  0  0  0
    1.3194   -1.4630    0.1387 C   0  0  0  0  0  0  0  0  0  0  0  0
    2.4602   -1.8438    0.7876 N   0  0  0  0  0  0  0  0  0  0  0  0
    3.0444   -3.1633    0.7127 C   0  0  0  0  0  0  0  0  0  0  0  0
    2.9683   -0.7949    1.5210 C   0  0  0  0  0  0  0  0  0  0  0  0
    4.1008   -0.7116    2.3477 C   0  0  0  0  0  0  0  0  0  0  0  0
    4.3734    0.5097    2.9697 C   0  0  0  0  0  0  0  0  0  0  0  0
    3.5473    1.6112    2.7731 C   0  0  0  0  0  0  0  0  0  0  0  0
    2.4218    1.5173    1.9474 C   0  0  0  0  0  0  0  0  0  0  0  0
    2.1193    0.2948    1.3079 C   0  0  0  0  0  0  0  0  0  0  0  0
   -2.4822   -0.2852    0.2631 C   0  0  0  0  0  0  0  0  0  0  0  0
   -2.8512    0.0158    1.5927 C   0  0  0  0  0  0  0  0  0  0  0  0
   -4.1032   -0.3810    2.0747 C   0  0  0  0  0  0  0  0  0  0  0  0
   -4.9892   -1.0722    1.2555 C   0  0  0  0  0  0  0  0  0  0  0  0
   -4.6490   -1.3899   -0.0620 C   0  0  0  0  0  0  0  0  0  0  0  0
   -3.3891   -0.9887   -0.5354 C   0  0  0  0  0  0  0  0  0  0  0  0
   -4.2803   -1.3190   -3.1836 H   0  0  0  0  0  0  0  0  0  0  0  0
   -3.6171   -2.8780   -2.5779 H   0  0  0  0  0  0  0  0  0  0  0  0
   -2.6677   -1.8794   -3.7158 H   0  0  0  0  0  0  0  0  0  0  0  0
   -0.9069   -0.6452   -2.6401 H   0  0  0  0  0  0  0  0  0  0  0  0
   -0.3753    1.3704    0.7909 H   0  0  0  0  0  0  0  0  0  0  0  0
   -0.7572    3.3110   -0.5118 H   0  0  0  0  0  0  0  0  0  0  0  0
   -0.0022    4.7831   -2.3592 H   0  0  0  0  0  0  0  0  0  0  0  0
    1.5733    3.8770   -4.0741 H   0  0  0  0  0  0  0  0  0  0  0  0
    2.3214    1.5050   -3.8574 H   0  0  0  0  0  0  0  0  0  0  0  0
    0.7716   -2.1574   -0.4850 H   0  0  0  0  0  0  0  0  0  0  0  0
    2.4503   -3.7915    0.0439 H   0  0  0  0  0  0  0  0  0  0  0  0
    3.0514   -3.5957    1.7165 H   0  0  0  0  0  0  0  0  0  0  0  0
    4.0617   -3.0706    0.3236 H   0  0  0  0  0  0  0  0  0  0  0  0
    4.7520   -1.5653    2.5027 H   0  0  0  0  0  0  0  0  0  0  0  0
    5.2458    0.5992    3.6125 H   0  0  0  0  0  0  0  0  0  0  0  0
    3.7779    2.5547    3.2606 H   0  0  0  0  0  0  0  0  0  0  0  0
    1.7910    2.3877    1.7970 H   0  0  0  0  0  0  0  0  0  0  0  0
   -2.1670    0.5465    2.2482 H   0  0  0  0  0  0  0  0  0  0  0  0
   -4.3816   -0.1488    3.0995 H   0  0  0  0  0  0  0  0  0  0  0  0
   -5.9581   -1.3745    1.6455 H   0  0  0  0  0  0  0  0  0  0  0  0
   -5.3437   -1.9346   -0.6929 H   0  0  0  0  0  0  0  0  0  0  0  0
  1  2  1  0
  2  3  1  0
  3  4  2  0
  4  5  1  0
  5  6  1  0
  6  7  2  0
  7  8  1  0
  8  9  2  0
  9 10  1  0
 10 11  2  0
  5 12  1  0
 12 13  2  0
 13 14  1  0
 14 15  1  0
 14 16  1  0
 16 17  2  0
 17 18  1  0
 18 19  2  0
 19 20  1  0
 20 21  2  0
  4 22  1  0
 22 23  2  0
 23 24  1  0
 24 25  2  0
 25 26  1  0
 26 27  2  0
 27  2  1  0
 11  6  1  0
 21 12  1  0
 27 22  1  0
 21 16  1  0
  1 28  1  0
  1 29  1  0
  1 30  1  0
  3 31  1  0
  5 32  1  0
  7 33  1  0
  8 34  1  0
  9 35  1  0
 10 36  1  0
 13 37  1  0
 15 38  1  0
 15 39  1  0
 15 40  1  0
 17 41  1  0
 18 42  1  0
 19 43  1  0
 20 44  1  0
 23 45  1  0
 24 46  1  0
 25 47  1  0
 26 48  1  0
M  END
$$$$
