
     RDKit          3D

 53 55  0  0  0  0  0  0  0  0999 V2000
    8.8838    1.6989    0.6585 C   0  0  0  0  0  0  0  0  0  0  0  0
    7.9933    1.1978    1.6473 O   0  0  0  0  0  0  0  0  0  0  0  0
    7.0799    0.2644    1.2411 C   0  0  0  0  0  0  0  0  0  0  0  0
    6.9533   -0.2557   -0.0468 C   0  0  0  0  0  0  0  0  0  0  0  0
    5.9714   -1.2137   -0.3268 C   0  0  0  0  0  0  0  0  0  0  0  0
    5.1086   -1.6691    0.6791 C   0  0  0  0  0  0  0  0  0  0  0  0
    4.0341   -2.6797    0.3745 C   0  0  0  0  0  0  0  0  0  0  0  0
    2.8162   -2.0269   -0.0272 N   0  0  0  0  0  0  0  0  0  0  0  0
    1.8051   -1.7447    0.8596 C   0  0  0  0  0  0  0  0  0  0  0  0
    1.7307   -2.1177    2.0217 O   0  0  0  0  0  0  0  0  0  0  0  0
    0.6922   -0.8578    0.2555 C   0  0  0  0  0  0  0  0  0  0  0  0
    0.7293   -0.5417   -0.9252 O   0  0  0  0  0  0  0  0  0  0  0  0
   -0.2899   -0.5091    1.1515 N   0  0  0  0  0  0  0  0  0  0  0  0
   -1.4977    0.1816    0.7326 C   0  0  0  0  0  0  0  0  0  0  0  0
   -2.4626   -0.7034   -0.0799 C   0  0  0  0  0  0  0  0  0  0  0  0
   -2.8165   -1.8594    0.7102 O   0  0  0  0  0  0  0  0  0  0  0  0
   -4.0970   -2.2571    0.2176 C   0  0  0  0  0  0  0  0  0  0  0  0
   -4.8185   -0.9437    0.0199 C   0  0  0  0  0  0  0  0  0  0  0  0
   -3.7410    0.0023   -0.3412 N   0  0  0  0  0  0  0  0  0  0  0  0
   -3.8141    0.7079   -1.8745 S   0  0  0  0  0  6  0  0  0  0  0  0
   -2.6992    1.6188   -2.0032 O   0  0  0  0  0  0  0  0  0  0  0  0
   -4.0349   -0.3606   -2.8263 O   0  0  0  0  0  0  0  0  0  0  0  0
   -5.2902    1.6882   -1.7708 C   0  0  0  0  0  0  0  0  0  0  0  0
   -5.3103    2.7910   -0.9107 C   0  0  0  0  0  0  0  0  0  0  0  0
   -6.4629    3.5708   -0.8237 C   0  0  0  0  0  0  0  0  0  0  0  0
   -7.5821    3.2503   -1.5954 C   0  0  0  0  0  0  0  0  0  0  0  0
   -7.5526    2.1536   -2.4600 C   0  0  0  0  0  0  0  0  0  0  0  0
   -6.4031    1.3690   -2.5540 C   0  0  0  0  0  0  0  0  0  0  0  0
    5.2336   -1.1350    1.9673 C   0  0  0  0  0  0  0  0  0  0  0  0
    6.2145   -0.1798    2.2430 C   0  0  0  0  0  0  0  0  0  0  0  0
    8.3388    2.2221   -0.1345 H   0  0  0  0  0  0  0  0  0  0  0  0
    9.5102    0.8994    0.2477 H   0  0  0  0  0  0  0  0  0  0  0  0
    9.5456    2.4244    1.1423 H   0  0  0  0  0  0  0  0  0  0  0  0
    7.5992    0.0631   -0.8577 H   0  0  0  0  0  0  0  0  0  0  0  0
    5.8858   -1.6016   -1.3395 H   0  0  0  0  0  0  0  0  0  0  0  0
    4.3473   -3.3319   -0.4481 H   0  0  0  0  0  0  0  0  0  0  0  0
    3.8541   -3.3193    1.2460 H   0  0  0  0  0  0  0  0  0  0  0  0
    2.7766   -1.5417   -0.9194 H   0  0  0  0  0  0  0  0  0  0  0  0
   -0.2727   -0.9909    2.0467 H   0  0  0  0  0  0  0  0  0  0  0  0
   -1.2045    1.0621    0.1520 H   0  0  0  0  0  0  0  0  0  0  0  0
   -1.9841    0.5267    1.6519 H   0  0  0  0  0  0  0  0  0  0  0  0
   -1.9940   -1.0708   -1.0004 H   0  0  0  0  0  0  0  0  0  0  0  0
   -4.5947   -2.9117    0.9377 H   0  0  0  0  0  0  0  0  0  0  0  0
   -3.9609   -2.7961   -0.7267 H   0  0  0  0  0  0  0  0  0  0  0  0
   -5.6204   -1.0294   -0.7171 H   0  0  0  0  0  0  0  0  0  0  0  0
   -5.2587   -0.5969    0.9613 H   0  0  0  0  0  0  0  0  0  0  0  0
   -4.4343    3.0467   -0.3183 H   0  0  0  0  0  0  0  0  0  0  0  0
   -6.4878    4.4344   -0.1625 H   0  0  0  0  0  0  0  0  0  0  0  0
   -8.4777    3.8642   -1.5298 H   0  0  0  0  0  0  0  0  0  0  0  0
   -8.4234    1.9178   -3.0666 H   0  0  0  0  0  0  0  0  0  0  0  0
   -6.3830    0.5220   -3.2362 H   0  0  0  0  0  0  0  0  0  0  0  0
    4.5630   -1.4563    2.7627 H   0  0  0  0  0  0  0  0  0  0  0  0
    6.3020    0.2242    3.2488 H   0  0  0  0  0  0  0  0  0  0  0  0
  1  2  1  0
  2  3  1  0
  3  4  2  0
  4  5  1  0
  5  6  2  0
  6  7  1  0
  7  8  1  0
  8  9  1  0
  9 10  2  0
  9 11  1  0
 11 12  2  0
 11 13  1  0
 13 14  1  0
 14 15  1  0
 15 16  1  0
 16 17  1  0
 17 18  1  0
 18 19  1  0
 19 20  1  0
 20 21  2  0
 20 22  2  0
 20 23  1  0
 23 24  2  0
 24 25  1  0
 25 26  2  0
 26 27  1  0
 27 28  2  0
  6 29  1  0
 29 30  2  0
 30  3  1  0
 19 15  1  0
 28 23  1  0
  1 31  1  0
  1 32  1  0
  1 33  1  0
  4 34  1  0
  5 35  1  0
  7 36  1  0
  7 37  1  0
  8 38  1  0
 13 39  1  0
 14 40  1  0
 14 41  1  0
 15 42  1  0
 17 43  1  0
 17 44  1  0
 18 45  1  0
 18 46  1  0
 24 47  1  0
 25 48  1  0
 26 49  1  0
 27 50  1  0
 28 51  1  0
 29 52  1  0
 30 53  1  0
M  END
$$$$
