
     RDKit          3D

 37 39  0  0  0  0  0  0  0  0999 V2000
   -7.2593   -0.8938   -1.6045 C   0  0  0  0  0  0  0  0  0  0  0  0
   -7.0184    0.0492   -0.4361 C   0  0  0  0  0  0  0  0  0  0  0  0
   -5.5701    0.3770   -0.2828 C   0  0  0  0  0  0  0  0  0  0  0  0
   -4.8445    1.0132   -1.1799 N   0  0  0  0  0  0  0  0  0  0  0  0
   -3.5366    1.1872   -0.7661 N   0  0  0  0  0  0  0  0  0  0  0  0
   -3.3335    0.6862    0.4264 C   0  0  0  0  0  0  0  0  0  0  0  0
   -2.2018    0.6437    1.1952 N   0  0  0  0  0  0  0  0  0  0  0  0
   -1.0180    1.2291    0.7839 C   0  0  0  0  0  0  0  0  0  0  0  0
   -0.8530    1.8750   -0.2440 O   0  0  0  0  0  0  0  0  0  0  0  0
    0.1151    0.9758    1.7913 C   0  0  0  0  0  0  0  0  0  0  0  0
    1.3748    1.5484    1.4785 O   0  0  0  0  0  0  0  0  0  0  0  0
    2.2539    0.7380    0.8142 C   0  0  0  0  0  0  0  0  0  0  0  0
    1.8969   -0.2099   -0.1419 C   0  0  0  0  0  0  0  0  0  0  0  0
    2.8815   -0.9911   -0.7549 C   0  0  0  0  0  0  0  0  0  0  0  0
    4.2370   -0.8248   -0.4310 C   0  0  0  0  0  0  0  0  0  0  0  0
    5.2365   -1.6055   -1.0343 C   0  0  0  0  0  0  0  0  0  0  0  0
    6.5808   -1.4203   -0.7072 C   0  0  0  0  0  0  0  0  0  0  0  0
    6.9429   -0.4500    0.2234 C   0  0  0  0  0  0  0  0  0  0  0  0
    5.9614    0.3359    0.8296 C   0  0  0  0  0  0  0  0  0  0  0  0
    4.6042    0.1579    0.5155 C   0  0  0  0  0  0  0  0  0  0  0  0
    3.6025    0.9356    1.1200 C   0  0  0  0  0  0  0  0  0  0  0  0
   -4.6979   -0.0559    1.1377 S   0  0  0  0  0  0  0  0  0  0  0  0
   -6.7023   -1.8289   -1.4828 H   0  0  0  0  0  0  0  0  0  0  0  0
   -8.3234   -1.1388   -1.6792 H   0  0  0  0  0  0  0  0  0  0  0  0
   -6.9494   -0.4378   -2.5512 H   0  0  0  0  0  0  0  0  0  0  0  0
   -7.4189   -0.4058    0.4767 H   0  0  0  0  0  0  0  0  0  0  0  0
   -7.5765    0.9787   -0.5963 H   0  0  0  0  0  0  0  0  0  0  0  0
   -2.2714    0.1671    2.0814 H   0  0  0  0  0  0  0  0  0  0  0  0
   -0.2005    1.4352    2.7358 H   0  0  0  0  0  0  0  0  0  0  0  0
    0.1987   -0.1014    1.9862 H   0  0  0  0  0  0  0  0  0  0  0  0
    0.8672   -0.3431   -0.4557 H   0  0  0  0  0  0  0  0  0  0  0  0
    2.5809   -1.7231   -1.5022 H   0  0  0  0  0  0  0  0  0  0  0  0
    4.9736   -2.3639   -1.7682 H   0  0  0  0  0  0  0  0  0  0  0  0
    7.3443   -2.0312   -1.1821 H   0  0  0  0  0  0  0  0  0  0  0  0
    7.9893   -0.3012    0.4755 H   0  0  0  0  0  0  0  0  0  0  0  0
    6.2647    1.0927    1.5496 H   0  0  0  0  0  0  0  0  0  0  0  0
    3.8690    1.7007    1.8463 H   0  0  0  0  0  0  0  0  0  0  0  0
  1  2  1  0
  2  3  1  0
  3  4  2  0
  4  5  1  0
  5  6  2  0
  6  7  1  0
  7  8  1  0
  8  9  2  0
  8 10  1  0
 10 11  1  0
 11 12  1  0
 12 13  2  0
 13 14  1  0
 14 15  2  0
 15 16  1  0
 16 17  2  0
 17 18  1  0
 18 19  2  0
 19 20  1  0
 20 21  2  0
  6 22  1  0
 22  3  1  0
 21 12  1  0
 20 15  1  0
  1 23  1  0
  1 24  1  0
  1 25  1  0
  2 26  1  0
  2 27  1  0
  7 28  1  0
 10 29  1  0
 10 30  1  0
 13 31  1  0
 14 32  1  0
 16 33  1  0
 17 34  1  0
 18 35  1  0
 19 36  1  0
 21 37  1  0
M  END
$$$$
