
     RDKit          3D

 37 37  0  0  0  0  0  0  0  0999 V2000
   -0.4204   -2.8399   -0.7162 C   0  0  0  0  0  0  0  0  0  0  0  0
   -0.3328   -1.5430   -0.1256 O   0  0  0  0  0  0  0  0  0  0  0  0
   -1.3234   -0.6850   -0.5124 C   0  0  0  0  0  0  0  0  0  0  0  0
   -2.2658   -0.9972   -1.2315 O   0  0  0  0  0  0  0  0  0  0  0  0
   -1.1665    0.7005    0.1449 C   0  0  0  0  0  0  0  0  0  0  0  0
   -2.2230    0.8926    1.2412 C   0  0  0  0  0  0  0  0  0  0  0  0
   -3.6281    1.0915    0.6720 C   0  0  0  0  0  0  0  0  0  0  0  0
   -4.7940    1.4454    2.0281 S   0  0  0  0  0  0  0  0  0  0  0  0
   -6.3045    1.6102    1.0459 C   0  0  0  0  0  0  0  0  0  0  0  0
    0.1699    0.8616    0.7354 N   0  0  0  0  0  0  0  0  0  0  0  0
    1.2150    1.2206   -0.0784 C   0  0  0  0  0  0  0  0  0  0  0  0
    1.0844    1.5359   -1.2530 O   0  0  0  0  0  0  0  0  0  0  0  0
    2.4062    1.2006    0.5883 N   0  0  0  0  0  0  0  0  0  0  0  0
    3.6624    1.3907   -0.0981 C   0  0  0  0  0  0  0  0  0  0  0  0
    4.2138    0.0430   -0.4435 C   0  0  0  0  0  0  0  0  0  0  0  0
    3.9064   -0.7474   -1.5348 C   0  0  0  0  0  0  0  0  0  0  0  0
    4.6266   -1.9758   -1.5359 C   0  0  0  0  0  0  0  0  0  0  0  0
    5.4592   -2.0847   -0.4450 C   0  0  0  0  0  0  0  0  0  0  0  0
    5.3675   -0.7136    0.5730 S   0  0  0  0  0  0  0  0  0  0  0  0
    0.4417   -3.4231   -0.3811 H   0  0  0  0  0  0  0  0  0  0  0  0
   -1.3322   -3.3478   -0.3872 H   0  0  0  0  0  0  0  0  0  0  0  0
   -0.3864   -2.7694   -1.8080 H   0  0  0  0  0  0  0  0  0  0  0  0
   -1.2833    1.4548   -0.6421 H   0  0  0  0  0  0  0  0  0  0  0  0
   -1.9491    1.7721    1.8402 H   0  0  0  0  0  0  0  0  0  0  0  0
   -2.2111    0.0301    1.9213 H   0  0  0  0  0  0  0  0  0  0  0  0
   -3.6385    1.9309   -0.0305 H   0  0  0  0  0  0  0  0  0  0  0  0
   -3.9741    0.1930    0.1555 H   0  0  0  0  0  0  0  0  0  0  0  0
   -7.1434    1.8335    1.7103 H   0  0  0  0  0  0  0  0  0  0  0  0
   -6.2035    2.4271    0.3267 H   0  0  0  0  0  0  0  0  0  0  0  0
   -6.5185    0.6777    0.5172 H   0  0  0  0  0  0  0  0  0  0  0  0
    0.4140    0.1621    1.4217 H   0  0  0  0  0  0  0  0  0  0  0  0
    2.4375    0.8142    1.5175 H   0  0  0  0  0  0  0  0  0  0  0  0
    3.5197    1.9914   -1.0029 H   0  0  0  0  0  0  0  0  0  0  0  0
    4.3263    1.9429    0.5749 H   0  0  0  0  0  0  0  0  0  0  0  0
    3.1907   -0.4518   -2.2946 H   0  0  0  0  0  0  0  0  0  0  0  0
    4.5384   -2.7396   -2.2988 H   0  0  0  0  0  0  0  0  0  0  0  0
    6.1189   -2.9042   -0.1947 H   0  0  0  0  0  0  0  0  0  0  0  0
  1  2  1  0
  2  3  1  0
  3  4  2  0
  3  5  1  0
  5  6  1  0
  6  7  1  0
  7  8  1  0
  8  9  1  0
  5 10  1  0
 10 11  1  0
 11 12  2  0
 11 13  1  0
 13 14  1  0
 14 15  1  0
 15 16  2  0
 16 17  1  0
 17 18  2  0
 18 19  1  0
 19 15  1  0
  1 20  1  0
  1 21  1  0
  1 22  1  0
  5 23  1  0
  6 24  1  0
  6 25  1  0
  7 26  1  0
  7 27  1  0
  9 28  1  0
  9 29  1  0
  9 30  1  0
 10 31  1  0
 13 32  1  0
 14 33  1  0
 14 34  1  0
 16 35  1  0
 17 36  1  0
 18 37  1  0
M  END
$$$$
