
     RDKit          3D

 45 47  0  0  0  0  0  0  0  0999 V2000
   -2.9304    1.8296    0.2339 O   0  0  0  0  0  0  0  0  0  0  0  0
   -3.0238    0.6044    0.1832 C   0  0  0  0  0  0  0  0  0  0  0  0
   -4.3172   -0.1034   -0.2036 C   0  0  0  0  0  0  0  0  0  0  0  0
   -5.4766    0.8212   -0.4979 C   0  0  0  0  0  0  0  0  0  0  0  0
   -5.6917    1.2997   -1.7988 C   0  0  0  0  0  0  0  0  0  0  0  0
   -6.7572    2.1620   -2.0679 C   0  0  0  0  0  0  0  0  0  0  0  0
   -7.6080    2.5545   -1.0373 C   0  0  0  0  0  0  0  0  0  0  0  0
   -8.9219    3.6147   -1.3701 Cl  0  0  0  0  0  0  0  0  0  0  0  0
   -7.4008    2.0955    0.2614 C   0  0  0  0  0  0  0  0  0  0  0  0
   -6.3357    1.2332    0.5317 C   0  0  0  0  0  0  0  0  0  0  0  0
   -1.8603   -0.2343    0.4988 C   0  0  0  0  0  0  0  0  0  0  0  0
   -1.7829   -1.6146    0.4736 C   0  0  0  0  0  0  0  0  0  0  0  0
   -0.5164   -1.9870    0.8485 N   0  0  0  0  0  0  0  0  0  0  0  0
    0.2566   -0.8751    1.0961 C   0  0  0  0  0  0  0  0  0  0  0  0
    1.6402   -0.8703    1.5206 C   0  0  0  0  0  0  0  0  0  0  0  0
    2.1647    0.0774    2.0959 O   0  0  0  0  0  0  0  0  0  0  0  0
    2.3531   -2.0054    1.1919 N   0  0  0  0  0  0  0  0  0  0  0  0
    3.7553   -2.1502    1.5298 C   0  0  0  0  0  0  0  0  0  0  0  0
    4.6898   -1.6703    0.4226 C   0  0  0  0  0  0  0  0  0  0  0  0
    4.7121   -0.1498    0.2691 C   0  0  0  0  0  0  0  0  0  0  0  0
    5.7033    0.2701   -0.7041 N   0  0  0  0  0  0  0  0  0  0  0  0
    7.0112    0.5719   -0.4501 C   0  0  0  0  0  0  0  0  0  0  0  0
    7.5425    0.8948   -1.6772 C   0  0  0  0  0  0  0  0  0  0  0  0
    6.5915    0.7981   -2.6607 N   0  0  0  0  0  0  0  0  0  0  0  0
    5.4909    0.4325   -2.0427 C   0  0  0  0  0  0  0  0  0  0  0  0
   -0.5720    0.2193    0.9068 C   0  0  0  0  0  0  0  0  0  0  0  0
   -4.1249   -0.7240   -1.0875 H   0  0  0  0  0  0  0  0  0  0  0  0
   -4.6029   -0.7804    0.6111 H   0  0  0  0  0  0  0  0  0  0  0  0
   -5.0269    1.0125   -2.6106 H   0  0  0  0  0  0  0  0  0  0  0  0
   -6.9125    2.5282   -3.0790 H   0  0  0  0  0  0  0  0  0  0  0  0
   -8.0582    2.4097    1.0674 H   0  0  0  0  0  0  0  0  0  0  0  0
   -6.1773    0.8935    1.5530 H   0  0  0  0  0  0  0  0  0  0  0  0
   -2.5189   -2.3720    0.2364 H   0  0  0  0  0  0  0  0  0  0  0  0
   -0.2080   -2.9428    0.9681 H   0  0  0  0  0  0  0  0  0  0  0  0
    1.9594   -2.6617    0.5346 H   0  0  0  0  0  0  0  0  0  0  0  0
    3.9177   -3.2203    1.6981 H   0  0  0  0  0  0  0  0  0  0  0  0
    3.9677   -1.6302    2.4704 H   0  0  0  0  0  0  0  0  0  0  0  0
    4.4098   -2.1361   -0.5309 H   0  0  0  0  0  0  0  0  0  0  0  0
    5.7035   -2.0215    0.6546 H   0  0  0  0  0  0  0  0  0  0  0  0
    3.7457    0.2331   -0.0748 H   0  0  0  0  0  0  0  0  0  0  0  0
    4.9565    0.3413    1.2177 H   0  0  0  0  0  0  0  0  0  0  0  0
    7.4422    0.5352    0.5403 H   0  0  0  0  0  0  0  0  0  0  0  0
    8.5578    1.1924   -1.9049 H   0  0  0  0  0  0  0  0  0  0  0  0
    4.5295    0.2704   -2.5123 H   0  0  0  0  0  0  0  0  0  0  0  0
   -0.2763    1.2545    1.0443 H   0  0  0  0  0  0  0  0  0  0  0  0
  1  2  2  0
  2  3  1  0
  3  4  1  0
  4  5  2  0
  5  6  1  0
  6  7  2  0
  7  8  1  0
  7  9  1  0
  9 10  2  0
  2 11  1  0
 11 12  2  0
 12 13  1  0
 13 14  1  0
 14 15  1  0
 15 16  2  0
 15 17  1  0
 17 18  1  0
 18 19  1  0
 19 20  1  0
 20 21  1  0
 21 22  1  0
 22 23  2  0
 23 24  1  0
 24 25  2  0
 14 26  2  0
 10  4  1  0
 26 11  1  0
 25 21  1  0
  3 27  1  0
  3 28  1  0
  5 29  1  0
  6 30  1  0
  9 31  1  0
 10 32  1  0
 12 33  1  0
 13 34  1  0
 17 35  1  0
 18 36  1  0
 18 37  1  0
 19 38  1  0
 19 39  1  0
 20 40  1  0
 20 41  1  0
 22 42  1  0
 23 43  1  0
 25 44  1  0
 26 45  1  0
M  END
$$$$
