
     RDKit          3D

 54 58  0  0  0  0  0  0  0  0999 V2000
    1.0469   -0.8188    0.8774 O   0  0  0  0  0  0  0  0  0  0  0  0
    1.9537   -0.7318    0.0534 C   0  0  0  0  0  0  0  0  0  0  0  0
    1.7534   -0.5260   -1.4432 C   0  0  0  0  0  0  0  0  0  0  0  0
    0.0314   -0.7706   -1.9605 S   0  0  0  0  0  0  0  0  0  0  0  0
   -0.7141    0.5253   -1.0275 C   0  0  0  0  0  0  0  0  0  0  0  0
   -0.1823    1.7004   -1.1850 N   0  0  0  0  0  0  0  0  0  0  0  0
   -0.7937    2.7234   -0.4533 C   0  0  0  0  0  0  0  0  0  0  0  0
   -1.8888    2.5041    0.3234 C   0  0  0  0  0  0  0  0  0  0  0  0
   -2.4315    3.9125    1.0839 S   0  0  0  0  0  0  0  0  0  0  0  0
   -1.1709    4.8580    0.3680 C   0  0  0  0  0  0  0  0  0  0  0  0
   -0.9424    6.2369    0.5412 C   0  0  0  0  0  0  0  0  0  0  0  0
    0.1314    6.8321   -0.1250 C   0  0  0  0  0  0  0  0  0  0  0  0
    0.9609    6.0792   -0.9453 C   0  0  0  0  0  0  0  0  0  0  0  0
    0.7319    4.7109   -1.1153 C   0  0  0  0  0  0  0  0  0  0  0  0
   -0.3470    4.0771   -0.4533 C   0  0  0  0  0  0  0  0  0  0  0  0
   -2.4973    1.2151    0.4639 C   0  0  0  0  0  0  0  0  0  0  0  0
   -3.5242    1.0060    1.1079 O   0  0  0  0  0  0  0  0  0  0  0  0
   -1.8161    0.2084   -0.2324 N   0  0  0  0  0  0  0  0  0  0  0  0
   -2.3570   -1.1491   -0.0869 C   0  0  0  0  0  0  0  0  0  0  0  0
   -3.4382   -1.4437   -1.1333 C   0  0  0  0  0  0  0  0  0  0  0  0
   -3.9722   -2.8477   -1.0016 C   0  0  0  0  0  0  0  0  0  0  0  0
   -3.3476   -3.9106   -1.6684 C   0  0  0  0  0  0  0  0  0  0  0  0
   -3.8306   -5.2126   -1.5282 C   0  0  0  0  0  0  0  0  0  0  0  0
   -4.9378   -5.4638   -0.7187 C   0  0  0  0  0  0  0  0  0  0  0  0
   -5.5618   -4.4139   -0.0468 C   0  0  0  0  0  0  0  0  0  0  0  0
   -5.0803   -3.1111   -0.1848 C   0  0  0  0  0  0  0  0  0  0  0  0
    3.2840   -0.7970    0.4144 N   0  0  0  0  0  0  0  0  0  0  0  0
    3.6598   -1.1078    1.7748 C   0  0  0  0  0  0  0  0  0  0  0  0
    5.1339   -1.0013    1.8969 C   0  0  0  0  0  0  0  0  0  0  0  0
    5.9691   -0.3022    2.7435 C   0  0  0  0  0  0  0  0  0  0  0  0
    7.2929   -0.6246    2.3556 C   0  0  0  0  0  0  0  0  0  0  0  0
    7.1828   -1.4941    1.2962 C   0  0  0  0  0  0  0  0  0  0  0  0
    5.8771   -1.7281    1.0072 O   0  0  0  0  0  0  0  0  0  0  0  0
    2.3643   -1.2583   -1.9812 H   0  0  0  0  0  0  0  0  0  0  0  0
    2.1012    0.4743   -1.7191 H   0  0  0  0  0  0  0  0  0  0  0  0
   -1.5903    6.8294    1.1810 H   0  0  0  0  0  0  0  0  0  0  0  0
    0.3166    7.8963    0.0011 H   0  0  0  0  0  0  0  0  0  0  0  0
    1.7928    6.5534   -1.4599 H   0  0  0  0  0  0  0  0  0  0  0  0
    1.3830    4.1255   -1.7600 H   0  0  0  0  0  0  0  0  0  0  0  0
   -1.5510   -1.8880   -0.1382 H   0  0  0  0  0  0  0  0  0  0  0  0
   -2.7815   -1.2588    0.9195 H   0  0  0  0  0  0  0  0  0  0  0  0
   -4.2645   -0.7272   -1.0385 H   0  0  0  0  0  0  0  0  0  0  0  0
   -3.0469   -1.2987   -2.1478 H   0  0  0  0  0  0  0  0  0  0  0  0
   -2.4805   -3.7307   -2.3012 H   0  0  0  0  0  0  0  0  0  0  0  0
   -3.3424   -6.0317   -2.0501 H   0  0  0  0  0  0  0  0  0  0  0  0
   -5.3137   -6.4778   -0.6101 H   0  0  0  0  0  0  0  0  0  0  0  0
   -6.4238   -4.6091    0.5867 H   0  0  0  0  0  0  0  0  0  0  0  0
   -5.5749   -2.3021    0.3498 H   0  0  0  0  0  0  0  0  0  0  0  0
    3.9866   -0.9660   -0.2957 H   0  0  0  0  0  0  0  0  0  0  0  0
    3.1486   -0.4163    2.4534 H   0  0  0  0  0  0  0  0  0  0  0  0
    3.3264   -2.1264    2.0021 H   0  0  0  0  0  0  0  0  0  0  0  0
    5.6596    0.3559    3.5446 H   0  0  0  0  0  0  0  0  0  0  0  0
    8.2147   -0.2679    2.7936 H   0  0  0  0  0  0  0  0  0  0  0  0
    7.9006   -2.0103    0.6720 H   0  0  0  0  0  0  0  0  0  0  0  0
  1  2  2  0
  2  3  1  0
  3  4  1  0
  4  5  1  0
  5  6  2  0
  6  7  1  0
  7  8  2  0
  8  9  1  0
  9 10  1  0
 10 11  2  0
 11 12  1  0
 12 13  2  0
 13 14  1  0
 14 15  2  0
  8 16  1  0
 16 17  2  0
 16 18  1  0
 18 19  1  0
 19 20  1  0
 20 21  1  0
 21 22  2  0
 22 23  1  0
 23 24  2  0
 24 25  1  0
 25 26  2  0
  2 27  1  0
 27 28  1  0
 28 29  1  0
 29 30  2  0
 30 31  1  0
 31 32  2  0
 32 33  1  0
 18  5  1  0
 26 21  1  0
 33 29  1  0
 15  7  1  0
 15 10  1  0
  3 34  1  0
  3 35  1  0
 11 36  1  0
 12 37  1  0
 13 38  1  0
 14 39  1  0
 19 40  1  0
 19 41  1  0
 20 42  1  0
 20 43  1  0
 22 44  1  0
 23 45  1  0
 24 46  1  0
 25 47  1  0
 26 48  1  0
 27 49  1  0
 28 50  1  0
 28 51  1  0
 30 52  1  0
 31 53  1  0
 32 54  1  0
M  END
$$$$
