
     RDKit          3D

 57 62  0  0  0  0  0  0  0  0999 V2000
    6.4946   -0.7751   -2.3170 C   0  0  0  0  0  0  0  0  0  0  0  0
    5.2847   -0.8605   -1.5752 O   0  0  0  0  0  0  0  0  0  0  0  0
    4.1236   -0.9780   -2.2915 C   0  0  0  0  0  0  0  0  0  0  0  0
    4.0270   -1.0308   -3.6951 C   0  0  0  0  0  0  0  0  0  0  0  0
    2.7828   -1.1528   -4.3263 C   0  0  0  0  0  0  0  0  0  0  0  0
    1.6632   -1.2198   -3.5253 C   0  0  0  0  0  0  0  0  0  0  0  0
    1.7350   -1.1679   -2.1326 C   0  0  0  0  0  0  0  0  0  0  0  0
    2.9670   -1.0485   -1.5044 C   0  0  0  0  0  0  0  0  0  0  0  0
    0.3452   -1.2773   -1.5712 C   0  0  0  0  0  0  0  0  0  0  0  0
    0.1455   -2.4623   -0.6566 N   0  0  0  0  0  0  0  0  0  0  0  0
   -0.6786   -2.0074    0.5337 C   0  0  2  0  0  0  0  0  0  0  0  0
   -2.1331   -2.4839    0.3622 C   0  0  0  0  0  0  0  0  0  0  0  0
   -3.0070   -2.2585    1.5769 C   0  0  0  0  0  0  0  0  0  0  0  0
   -2.8213   -3.0143    2.7424 C   0  0  0  0  0  0  0  0  0  0  0  0
   -3.6320   -2.8030    3.8590 C   0  0  0  0  0  0  0  0  0  0  0  0
   -4.6368   -1.8379    3.8207 C   0  0  0  0  0  0  0  0  0  0  0  0
   -4.8327   -1.0833    2.6658 C   0  0  0  0  0  0  0  0  0  0  0  0
   -4.0225   -1.2925    1.5488 C   0  0  0  0  0  0  0  0  0  0  0  0
   -0.4998   -0.5388    0.4911 C   0  0  0  0  0  0  0  0  0  0  0  0
    0.0510   -0.1199   -0.7171 C   0  0  0  0  0  0  0  0  0  0  0  0
    0.1649    1.2447   -0.7031 C   0  0  0  0  0  0  0  0  0  0  0  0
    0.7084    2.0345   -1.6282 O   0  0  0  0  0  0  0  0  0  0  0  0
   -0.3330    1.6844    0.5385 N   0  0  0  0  0  0  0  0  0  0  0  0
   -0.4267    3.0411    0.9674 C   0  0  0  0  0  0  0  0  0  0  0  0
   -0.1384    3.3823    2.2954 C   0  0  0  0  0  0  0  0  0  0  0  0
   -0.2320    4.7125    2.7086 C   0  0  0  0  0  0  0  0  0  0  0  0
   -0.6162    5.7015    1.8040 C   0  0  0  0  0  0  0  0  0  0  0  0
   -0.9074    5.3649    0.4827 C   0  0  0  0  0  0  0  0  0  0  0  0
   -0.8127    4.0377    0.0606 C   0  0  0  0  0  0  0  0  0  0  0  0
   -0.7147    0.5545    1.2842 C   0  0  0  0  0  0  0  0  0  0  0  0
   -1.2503    0.5936    2.5018 O   0  0  0  0  0  0  0  0  0  0  0  0
   -0.5327   -1.3688   -2.8533 C   0  0  0  0  0  0  0  0  0  0  0  0
   -1.7486   -1.4522   -2.9510 O   0  0  0  0  0  0  0  0  0  0  0  0
    0.3453   -1.3432   -3.9417 N   0  0  0  0  0  0  0  0  0  0  0  0
    7.3185   -0.6820   -1.6029 H   0  0  0  0  0  0  0  0  0  0  0  0
    6.6633   -1.6847   -2.9028 H   0  0  0  0  0  0  0  0  0  0  0  0
    6.5049    0.1150   -2.9547 H   0  0  0  0  0  0  0  0  0  0  0  0
    4.9092   -0.9780   -4.3250 H   0  0  0  0  0  0  0  0  0  0  0  0
    2.7115   -1.1925   -5.4072 H   0  0  0  0  0  0  0  0  0  0  0  0
    3.0385   -0.9992   -0.4221 H   0  0  0  0  0  0  0  0  0  0  0  0
    1.0676   -2.6766   -0.2808 H   0  0  0  0  0  0  0  0  0  0  0  0
   -0.2323   -2.4284    1.4420 H   0  0  0  0  0  0  0  0  0  0  0  0
   -2.1440   -3.5615    0.1477 H   0  0  0  0  0  0  0  0  0  0  0  0
   -2.5980   -2.0049   -0.5086 H   0  0  0  0  0  0  0  0  0  0  0  0
   -2.0452   -3.7746    2.7864 H   0  0  0  0  0  0  0  0  0  0  0  0
   -3.4795   -3.3931    4.7585 H   0  0  0  0  0  0  0  0  0  0  0  0
   -5.2678   -1.6756    4.6900 H   0  0  0  0  0  0  0  0  0  0  0  0
   -5.6171   -0.3325    2.6326 H   0  0  0  0  0  0  0  0  0  0  0  0
   -4.1841   -0.6952    0.6539 H   0  0  0  0  0  0  0  0  0  0  0  0
    1.0009    2.8619   -1.2061 H   0  0  0  0  0  0  0  0  0  0  0  0
    0.2046    2.6375    3.0114 H   0  0  0  0  0  0  0  0  0  0  0  0
    0.0040    4.9795    3.7362 H   0  0  0  0  0  0  0  0  0  0  0  0
   -0.6903    6.7363    2.1299 H   0  0  0  0  0  0  0  0  0  0  0  0
   -1.2201    6.1365   -0.2170 H   0  0  0  0  0  0  0  0  0  0  0  0
   -1.0905    3.7957   -0.9640 H   0  0  0  0  0  0  0  0  0  0  0  0
   -1.7402    1.4288    2.6034 H   0  0  0  0  0  0  0  0  0  0  0  0
    0.0243   -1.3873   -4.8959 H   0  0  0  0  0  0  0  0  0  0  0  0
  1  2  1  0
  2  3  1  0
  3  4  2  0
  4  5  1  0
  5  6  2  0
  6  7  1  0
  7  8  2  0
  7  9  1  0
  9 10  1  0
 10 11  1  0
 11 12  1  0
 12 13  1  0
 13 14  2  0
 14 15  1  0
 15 16  2  0
 16 17  1  0
 17 18  2  0
 11 19  1  0
 19 20  1  0
 20 21  2  0
 21 22  1  0
 21 23  1  0
 23 24  1  0
 24 25  2  0
 25 26  1  0
 26 27  2  0
 27 28  1  0
 28 29  2  0
 23 30  1  0
 30 31  1  0
  9 32  1  0
 32 33  2  0
 32 34  1  0
  8  3  1  0
 20  9  1  0
 29 24  1  0
 34  6  1  0
 18 13  1  0
 30 19  2  0
  1 35  1  0
  1 36  1  0
  1 37  1  0
  4 38  1  0
  5 39  1  0
  8 40  1  0
 10 41  1  0
 11 42  1  1
 12 43  1  0
 12 44  1  0
 14 45  1  0
 15 46  1  0
 16 47  1  0
 17 48  1  0
 18 49  1  0
 22 50  1  0
 25 51  1  0
 26 52  1  0
 27 53  1  0
 28 54  1  0
 29 55  1  0
 31 56  1  0
 34 57  1  0
M  END
$$$$
