
     RDKit          3D

 56 61  0  0  0  0  0  0  0  0999 V2000
    9.6479    2.4943   -0.2950 C   0  0  0  0  0  0  0  0  0  0  0  0
    8.2286    2.4913   -0.3846 O   0  0  0  0  0  0  0  0  0  0  0  0
    7.5966    1.2913   -0.2088 C   0  0  0  0  0  0  0  0  0  0  0  0
    8.2137    0.0744    0.0598 C   0  0  0  0  0  0  0  0  0  0  0  0
    7.4377   -1.0749    0.2164 C   0  0  0  0  0  0  0  0  0  0  0  0
    6.0399   -1.0137    0.1055 C   0  0  0  0  0  0  0  0  0  0  0  0
    5.2550   -2.1671    0.2630 C   0  0  0  0  0  0  0  0  0  0  0  0
    3.8670   -2.0298    0.1403 C   0  0  0  0  0  0  0  0  0  0  0  0
    2.7408   -2.8843    0.2156 C   0  0  0  0  0  0  0  0  0  0  0  0
    1.6219   -2.0955    0.0073 C   0  0  0  0  0  0  0  0  0  0  0  0
    0.2211   -2.4721   -0.0731 C   0  0  0  0  0  0  0  0  0  0  0  0
   -0.0973   -3.6359   -0.3265 O   0  0  0  0  0  0  0  0  0  0  0  0
   -0.7611   -1.4888    0.1137 N   0  0  0  0  0  0  0  0  0  0  0  0
   -0.6076   -0.3966    1.0821 C   0  0  0  0  0  0  0  0  0  0  0  0
   -1.5514    0.7801    0.7767 C   0  0  0  0  0  0  0  0  0  0  0  0
   -2.9633    0.3506    0.6803 N   0  0  0  0  0  0  0  0  0  0  0  0
   -3.8220    1.5075    0.3756 C   0  0  0  0  0  0  0  0  0  0  0  0
   -5.3005    1.2022    0.5056 C   0  0  0  0  0  0  0  0  0  0  0  0
   -5.8270    0.7427    1.7369 C   0  0  0  0  0  0  0  0  0  0  0  0
   -7.1894    0.4631    1.8810 C   0  0  0  0  0  0  0  0  0  0  0  0
   -7.9999    0.6534    0.7841 C   0  0  0  0  0  0  0  0  0  0  0  0
   -7.5007    1.1018   -0.4158 C   0  0  0  0  0  0  0  0  0  0  0  0
   -6.1621    1.3861   -0.5884 C   0  0  0  0  0  0  0  0  0  0  0  0
   -8.4654    1.2213   -1.3673 O   0  0  0  0  0  0  0  0  0  0  0  0
   -9.6287    0.7961   -0.6273 C   0  0  0  0  0  0  0  0  0  0  0  0
   -9.3413    0.4342    0.7390 O   0  0  0  0  0  0  0  0  0  0  0  0
   -3.0804   -0.6988   -0.3578 C   0  0  0  0  0  0  0  0  0  0  0  0
   -2.1517   -1.8971   -0.0876 C   0  0  0  0  0  0  0  0  0  0  0  0
    2.0150   -0.8067   -0.2328 O   0  0  0  0  0  0  0  0  0  0  0  0
    3.3709   -0.7623   -0.1348 C   0  0  0  0  0  0  0  0  0  0  0  0
    4.0757    0.3683   -0.2909 N   0  0  0  0  0  0  0  0  0  0  0  0
    5.4018    0.2200   -0.1681 C   0  0  0  0  0  0  0  0  0  0  0  0
    6.2021    1.3432   -0.3179 C   0  0  0  0  0  0  0  0  0  0  0  0
    9.9915    3.5195   -0.4631 H   0  0  0  0  0  0  0  0  0  0  0  0
    9.9806    2.1907    0.7031 H   0  0  0  0  0  0  0  0  0  0  0  0
   10.0935    1.8621   -1.0702 H   0  0  0  0  0  0  0  0  0  0  0  0
    9.2908   -0.0163    0.1534 H   0  0  0  0  0  0  0  0  0  0  0  0
    7.9343   -2.0201    0.4259 H   0  0  0  0  0  0  0  0  0  0  0  0
    5.6987   -3.1350    0.4724 H   0  0  0  0  0  0  0  0  0  0  0  0
    2.7263   -3.9507    0.3957 H   0  0  0  0  0  0  0  0  0  0  0  0
   -0.8377   -0.8152    2.0706 H   0  0  0  0  0  0  0  0  0  0  0  0
    0.4160   -0.0290    1.1388 H   0  0  0  0  0  0  0  0  0  0  0  0
   -1.2342    1.2602   -0.1588 H   0  0  0  0  0  0  0  0  0  0  0  0
   -1.4456    1.5189    1.5801 H   0  0  0  0  0  0  0  0  0  0  0  0
   -3.6127    2.3219    1.0825 H   0  0  0  0  0  0  0  0  0  0  0  0
   -3.5992    1.9045   -0.6238 H   0  0  0  0  0  0  0  0  0  0  0  0
   -5.1592    0.5955    2.5843 H   0  0  0  0  0  0  0  0  0  0  0  0
   -7.5935    0.1071    2.8214 H   0  0  0  0  0  0  0  0  0  0  0  0
   -5.7982    1.7382   -1.5475 H   0  0  0  0  0  0  0  0  0  0  0  0
  -10.0689   -0.0703   -1.1343 H   0  0  0  0  0  0  0  0  0  0  0  0
  -10.3609    1.6119   -0.6270 H   0  0  0  0  0  0  0  0  0  0  0  0
   -2.8393   -0.2804   -1.3444 H   0  0  0  0  0  0  0  0  0  0  0  0
   -4.1071   -1.0791   -0.4042 H   0  0  0  0  0  0  0  0  0  0  0  0
   -2.4735   -2.4354    0.8129 H   0  0  0  0  0  0  0  0  0  0  0  0
   -2.2132   -2.5958   -0.9299 H   0  0  0  0  0  0  0  0  0  0  0  0
    5.7257    2.2987   -0.5290 H   0  0  0  0  0  0  0  0  0  0  0  0
  1  2  1  0
  2  3  1  0
  3  4  2  0
  4  5  1  0
  5  6  2  0
  6  7  1  0
  7  8  2  0
  8  9  1  0
  9 10  2  0
 10 11  1  0
 11 12  2  0
 11 13  1  0
 13 14  1  0
 14 15  1  0
 15 16  1  0
 16 17  1  0
 17 18  1  0
 18 19  2  0
 19 20  1  0
 20 21  2  0
 21 22  1  0
 22 23  2  0
 22 24  1  0
 24 25  1  0
 25 26  1  0
 16 27  1  0
 27 28  1  0
 10 29  1  0
 29 30  1  0
 30 31  2  0
 31 32  1  0
 32 33  2  0
 33  3  1  0
 32  6  1  0
 30  8  1  0
 28 13  1  0
 23 18  1  0
 26 21  1  0
  1 34  1  0
  1 35  1  0
  1 36  1  0
  4 37  1  0
  5 38  1  0
  7 39  1  0
  9 40  1  0
 14 41  1  0
 14 42  1  0
 15 43  1  0
 15 44  1  0
 17 45  1  0
 17 46  1  0
 19 47  1  0
 20 48  1  0
 23 49  1  0
 25 50  1  0
 25 51  1  0
 27 52  1  0
 27 53  1  0
 28 54  1  0
 28 55  1  0
 33 56  1  0
M  END
$$$$
