
     RDKit          3D

 30 31  0  0  0  0  0  0  0  0999 V2000
    4.0416   -0.6967   -2.5386 C   0  0  0  0  0  0  0  0  0  0  0  0
    3.7364   -1.1590   -1.2292 O   0  0  0  0  0  0  0  0  0  0  0  0
    2.4135   -1.2131   -0.8861 C   0  0  0  0  0  0  0  0  0  0  0  0
    2.1646   -1.6802    0.4067 C   0  0  0  0  0  0  0  0  0  0  0  0
    0.8572   -1.7865    0.8889 C   0  0  0  0  0  0  0  0  0  0  0  0
   -0.2237   -1.4219    0.0781 C   0  0  0  0  0  0  0  0  0  0  0  0
   -1.6062   -1.5540    0.5728 C   0  0  0  0  0  0  0  0  0  0  0  0
   -2.1565   -2.8752    0.6231 C   0  0  0  0  0  0  0  0  0  0  0  0
   -2.6313   -3.9334    0.6728 N   0  0  0  0  0  0  0  0  0  0  0  0
   -2.3871   -0.5212    0.9579 C   0  0  0  0  0  0  0  0  0  0  0  0
   -2.0728    0.9147    1.0350 C   0  0  0  0  0  0  0  0  0  0  0  0
   -3.1034    1.8442    1.1550 C   0  0  0  0  0  0  0  0  0  0  0  0
   -2.7861    3.1981    1.2495 C   0  0  0  0  0  0  0  0  0  0  0  0
   -1.4535    3.5870    1.2280 C   0  0  0  0  0  0  0  0  0  0  0  0
   -0.4915    2.6000    1.1148 C   0  0  0  0  0  0  0  0  0  0  0  0
   -0.7756    1.2827    1.0230 N   0  0  0  0  0  0  0  0  0  0  0  0
    0.0275   -0.9553   -1.2193 C   0  0  0  0  0  0  0  0  0  0  0  0
    1.3391   -0.8501   -1.6983 C   0  0  0  0  0  0  0  0  0  0  0  0
    5.1295   -0.7173   -2.6552 H   0  0  0  0  0  0  0  0  0  0  0  0
    3.6128   -1.3561   -3.3004 H   0  0  0  0  0  0  0  0  0  0  0  0
    3.7116    0.3380   -2.6788 H   0  0  0  0  0  0  0  0  0  0  0  0
    2.9974   -1.9615    1.0466 H   0  0  0  0  0  0  0  0  0  0  0  0
    0.6947   -2.1455    1.9023 H   0  0  0  0  0  0  0  0  0  0  0  0
   -3.4049   -0.7503    1.2738 H   0  0  0  0  0  0  0  0  0  0  0  0
   -4.1431    1.5339    1.1725 H   0  0  0  0  0  0  0  0  0  0  0  0
   -3.5735    3.9409    1.3404 H   0  0  0  0  0  0  0  0  0  0  0  0
   -1.1708    4.6311    1.3000 H   0  0  0  0  0  0  0  0  0  0  0  0
    0.5666    2.8451    1.0954 H   0  0  0  0  0  0  0  0  0  0  0  0
   -0.7961   -0.6604   -1.8654 H   0  0  0  0  0  0  0  0  0  0  0  0
    1.4834   -0.4781   -2.7067 H   0  0  0  0  0  0  0  0  0  0  0  0
  1  2  1  0
  2  3  1  0
  3  4  2  0
  4  5  1  0
  5  6  2  0
  6  7  1  0
  7  8  1  0
  8  9  3  0
  7 10  2  3
 10 11  1  0
 11 12  2  0
 12 13  1  0
 13 14  2  0
 14 15  1  0
 15 16  2  0
  6 17  1  0
 17 18  2  0
 18  3  1  0
 16 11  1  0
  1 19  1  0
  1 20  1  0
  1 21  1  0
  4 22  1  0
  5 23  1  0
 10 24  1  0
 12 25  1  0
 13 26  1  0
 14 27  1  0
 15 28  1  0
 17 29  1  0
 18 30  1  0
M  END
$$$$
