
     RDKit          3D

 62 65  0  0  0  0  0  0  0  0999 V2000
   -2.0544    0.2549   -2.6878 C   0  0  0  0  0  0  0  0  0  0  0  0
   -2.5274   -0.6826   -1.5863 C   0  0  0  0  0  0  0  0  0  0  0  0
   -3.0353    0.0687   -0.4476 N   0  0  0  0  0  0  0  0  0  0  0  0
   -2.4408    0.3176    0.7994 C   0  0  0  0  0  0  0  0  0  0  0  0
   -1.1610    0.2408    1.2199 C   0  0  0  0  0  0  0  0  0  0  0  0
    0.0290   -0.0473    0.4475 C   0  0  0  0  0  0  0  0  0  0  0  0
    1.2306   -0.2209    1.0158 C   0  0  0  0  0  0  0  0  0  0  0  0
    2.5042   -0.4788    0.2911 C   0  0  0  0  0  0  0  0  0  0  0  0
    3.6385   -0.7286    0.8860 N   0  0  0  0  0  4  0  0  0  0  0  0
    3.9473   -0.8868    2.3235 C   0  0  0  0  0  0  0  0  0  0  0  0
    4.3769    0.4450    2.9098 C   0  0  0  0  0  0  0  0  0  0  0  0
    4.7100   -0.8808   -0.1135 C   0  0  0  0  0  0  0  0  0  0  0  0
    6.0594   -1.1203    0.0860 C   0  0  0  0  0  0  0  0  0  0  0  0
    6.8758   -1.2136   -1.0440 C   0  0  0  0  0  0  0  0  0  0  0  0
    6.3352   -1.0649   -2.3307 C   0  0  0  0  0  0  0  0  0  0  0  0
    4.9723   -0.8186   -2.5088 C   0  0  0  0  0  0  0  0  0  0  0  0
    4.1686   -0.7275   -1.3818 C   0  0  0  0  0  0  0  0  0  0  0  0
    2.6855   -0.4680   -1.2626 C   0  0  0  0  0  0  0  0  0  0  0  0
    1.9223   -1.6102   -1.9421 C   0  0  0  0  0  0  0  0  0  0  0  0
    2.3548    0.8985   -1.8708 C   0  0  0  0  0  0  0  0  0  0  0  0
   -3.5666    0.7902    1.7907 C   0  0  0  0  0  0  0  0  0  0  0  0
   -3.7645   -0.2110    2.9385 C   0  0  0  0  0  0  0  0  0  0  0  0
   -3.3022    2.2039    2.3314 C   0  0  0  0  0  0  0  0  0  0  0  0
   -4.7843    0.7970    0.8863 C   0  0  0  0  0  0  0  0  0  0  0  0
   -6.0951    1.1472    1.1893 C   0  0  0  0  0  0  0  0  0  0  0  0
   -7.0534    1.0605    0.1814 C   0  0  0  0  0  0  0  0  0  0  0  0
   -6.6934    0.6298   -1.1019 C   0  0  0  0  0  0  0  0  0  0  0  0
   -5.3702    0.2784   -1.3937 C   0  0  0  0  0  0  0  0  0  0  0  0
   -4.4115    0.3600   -0.3946 C   0  0  0  0  0  0  0  0  0  0  0  0
   -1.6145   -0.3189   -3.5093 H   0  0  0  0  0  0  0  0  0  0  0  0
   -2.8831    0.8438   -3.0936 H   0  0  0  0  0  0  0  0  0  0  0  0
   -1.3017    0.9597   -2.3216 H   0  0  0  0  0  0  0  0  0  0  0  0
   -3.2848   -1.3683   -1.9861 H   0  0  0  0  0  0  0  0  0  0  0  0
   -1.7087   -1.3415   -1.2803 H   0  0  0  0  0  0  0  0  0  0  0  0
   -0.9778    0.4678    2.2703 H   0  0  0  0  0  0  0  0  0  0  0  0
   -0.1013   -0.0726   -0.6220 H   0  0  0  0  0  0  0  0  0  0  0  0
    1.2917   -0.1595    2.0999 H   0  0  0  0  0  0  0  0  0  0  0  0
    3.0552   -1.2639    2.8332 H   0  0  0  0  0  0  0  0  0  0  0  0
    4.7214   -1.6511    2.4446 H   0  0  0  0  0  0  0  0  0  0  0  0
    4.5968    0.3320    3.9763 H   0  0  0  0  0  0  0  0  0  0  0  0
    5.2775    0.8322    2.4212 H   0  0  0  0  0  0  0  0  0  0  0  0
    3.5907    1.2009    2.8071 H   0  0  0  0  0  0  0  0  0  0  0  0
    6.5052   -1.2322    1.0682 H   0  0  0  0  0  0  0  0  0  0  0  0
    7.9436   -1.4013   -0.9327 H   0  0  0  0  0  0  0  0  0  0  0  0
    6.9887   -1.1402   -3.2000 H   0  0  0  0  0  0  0  0  0  0  0  0
    4.5678   -0.7025   -3.5116 H   0  0  0  0  0  0  0  0  0  0  0  0
    2.2160   -1.7216   -2.9923 H   0  0  0  0  0  0  0  0  0  0  0  0
    0.8414   -1.4534   -1.9330 H   0  0  0  0  0  0  0  0  0  0  0  0
    2.1123   -2.5686   -1.4439 H   0  0  0  0  0  0  0  0  0  0  0  0
    1.2859    1.1222   -1.8309 H   0  0  0  0  0  0  0  0  0  0  0  0
    2.6527    0.9530   -2.9243 H   0  0  0  0  0  0  0  0  0  0  0  0
    2.8724    1.7066   -1.3397 H   0  0  0  0  0  0  0  0  0  0  0  0
   -3.9496   -1.2245    2.5621 H   0  0  0  0  0  0  0  0  0  0  0  0
   -4.6204    0.0645    3.5656 H   0  0  0  0  0  0  0  0  0  0  0  0
   -2.8847   -0.2548    3.5900 H   0  0  0  0  0  0  0  0  0  0  0  0
   -2.4130    2.2323    2.9706 H   0  0  0  0  0  0  0  0  0  0  0  0
   -3.1505    2.9239    1.5180 H   0  0  0  0  0  0  0  0  0  0  0  0
   -4.1441    2.5655    2.9333 H   0  0  0  0  0  0  0  0  0  0  0  0
   -6.3751    1.4795    2.1838 H   0  0  0  0  0  0  0  0  0  0  0  0
   -8.0865    1.3289    0.3901 H   0  0  0  0  0  0  0  0  0  0  0  0
   -7.4510    0.5707   -1.8802 H   0  0  0  0  0  0  0  0  0  0  0  0
   -5.1232   -0.0412   -2.3993 H   0  0  0  0  0  0  0  0  0  0  0  0
  1  2  1  0
  2  3  1  0
  3  4  1  0
  4  5  2  3
  5  6  1  0
  6  7  2  3
  7  8  1  0
  8  9  2  0
  9 10  1  0
 10 11  1  0
  9 12  1  0
 12 13  2  0
 13 14  1  0
 14 15  2  0
 15 16  1  0
 16 17  2  0
 17 18  1  0
 18 19  1  0
 18 20  1  0
  4 21  1  0
 21 22  1  0
 21 23  1  0
 21 24  1  0
 24 25  2  0
 25 26  1  0
 26 27  2  0
 27 28  1  0
 28 29  2  0
 29  3  1  0
 18  8  1  0
 29 24  1  0
 17 12  1  0
  1 30  1  0
  1 31  1  0
  1 32  1  0
  2 33  1  0
  2 34  1  0
  5 35  1  0
  6 36  1  0
  7 37  1  0
 10 38  1  0
 10 39  1  0
 11 40  1  0
 11 41  1  0
 11 42  1  0
 13 43  1  0
 14 44  1  0
 15 45  1  0
 16 46  1  0
 19 47  1  0
 19 48  1  0
 19 49  1  0
 20 50  1  0
 20 51  1  0
 20 52  1  0
 22 53  1  0
 22 54  1  0
 22 55  1  0
 23 56  1  0
 23 57  1  0
 23 58  1  0
 25 59  1  0
 26 60  1  0
 27 61  1  0
 28 62  1  0
M  CHG  1   9   1
M  END
$$$$
