
     RDKit          3D

 46 48  0  0  0  0  0  0  0  0999 V2000
   -3.1189   -2.2519    1.2620 C   0  0  0  0  0  0  0  0  0  0  0  0
   -3.8140   -1.4537    0.1720 C   0  0  0  0  0  0  0  0  0  0  0  0
   -3.7168   -0.0065    0.4109 N   0  0  0  0  0  4  0  0  0  0  0  0
   -2.7225    0.7353   -0.0618 C   0  0  0  0  0  0  0  0  0  0  0  0
   -1.6559    0.2866   -0.8811 C   0  0  0  0  0  0  0  0  0  0  0  0
   -0.3713    0.4573   -0.5288 C   0  0  0  0  0  0  0  0  0  0  0  0
    0.7158   -0.0539   -1.3383 C   0  0  0  0  0  0  0  0  0  0  0  0
    2.0083    0.0531   -0.9908 C   0  0  0  0  0  0  0  0  0  0  0  0
    3.1129   -0.4556   -1.6911 N   0  0  0  0  0  0  0  0  0  0  0  0
    2.9480   -1.4122   -2.7187 C   0  0  0  0  0  0  0  0  0  0  0  0
    4.0305   -1.4825   -3.7782 C   0  0  0  0  0  0  0  0  0  0  0  0
    1.9597   -2.1447   -2.8359 O   0  0  0  0  0  0  0  0  0  0  0  0
    4.4338   -0.0831   -1.2458 C   0  0  0  0  0  0  0  0  0  0  0  0
    4.7111    1.2424   -0.8736 C   0  0  0  0  0  0  0  0  0  0  0  0
    5.9834    1.6084   -0.4262 C   0  0  0  0  0  0  0  0  0  0  0  0
    6.9911    0.6524   -0.3311 C   0  0  0  0  0  0  0  0  0  0  0  0
    6.7273   -0.6700   -0.6782 C   0  0  0  0  0  0  0  0  0  0  0  0
    5.4561   -1.0368   -1.1290 C   0  0  0  0  0  0  0  0  0  0  0  0
   -2.9001    2.3741    0.4185 S   0  0  0  0  0  0  0  0  0  0  0  0
   -4.3411    2.0371    1.2928 C   0  0  0  0  0  0  0  0  0  0  0  0
   -5.1472    2.9207    2.0272 C   0  0  0  0  0  0  0  0  0  0  0  0
   -6.2771    2.4048    2.6662 C   0  0  0  0  0  0  0  0  0  0  0  0
   -6.5928    1.0531    2.5780 C   0  0  0  0  0  0  0  0  0  0  0  0
   -5.7857    0.1762    1.8425 C   0  0  0  0  0  0  0  0  0  0  0  0
   -4.6438    0.6818    1.1870 C   0  0  0  0  0  0  0  0  0  0  0  0
   -3.2086   -3.3244    1.0651 H   0  0  0  0  0  0  0  0  0  0  0  0
   -2.0551   -2.0004    1.3150 H   0  0  0  0  0  0  0  0  0  0  0  0
   -3.5585   -2.0450    2.2426 H   0  0  0  0  0  0  0  0  0  0  0  0
   -3.3865   -1.7043   -0.8047 H   0  0  0  0  0  0  0  0  0  0  0  0
   -4.8687   -1.7420    0.1055 H   0  0  0  0  0  0  0  0  0  0  0  0
   -1.9003   -0.2397   -1.8015 H   0  0  0  0  0  0  0  0  0  0  0  0
   -0.0966    0.9650    0.3954 H   0  0  0  0  0  0  0  0  0  0  0  0
    0.4361   -0.5494   -2.2649 H   0  0  0  0  0  0  0  0  0  0  0  0
    2.2620    0.5809   -0.0730 H   0  0  0  0  0  0  0  0  0  0  0  0
    4.6893   -2.3324   -3.5867 H   0  0  0  0  0  0  0  0  0  0  0  0
    3.5499   -1.6276   -4.7515 H   0  0  0  0  0  0  0  0  0  0  0  0
    4.6064   -0.5566   -3.8463 H   0  0  0  0  0  0  0  0  0  0  0  0
    3.9540    2.0173   -0.9635 H   0  0  0  0  0  0  0  0  0  0  0  0
    6.1904    2.6418   -0.1578 H   0  0  0  0  0  0  0  0  0  0  0  0
    7.9814    0.9366    0.0176 H   0  0  0  0  0  0  0  0  0  0  0  0
    7.5098   -1.4201   -0.5884 H   0  0  0  0  0  0  0  0  0  0  0  0
    5.2733   -2.0867   -1.3435 H   0  0  0  0  0  0  0  0  0  0  0  0
   -4.9046    3.9785    2.1033 H   0  0  0  0  0  0  0  0  0  0  0  0
   -6.9179    3.0722    3.2432 H   0  0  0  0  0  0  0  0  0  0  0  0
   -7.4790    0.6762    3.0890 H   0  0  0  0  0  0  0  0  0  0  0  0
   -6.0673   -0.8722    1.8041 H   0  0  0  0  0  0  0  0  0  0  0  0
  1  2  1  0
  2  3  1  0
  3  4  2  0
  4  5  1  0
  5  6  2  3
  6  7  1  0
  7  8  2  3
  8  9  1  0
  9 10  1  0
 10 11  1  0
 10 12  2  0
  9 13  1  0
 13 14  2  0
 14 15  1  0
 15 16  2  0
 16 17  1  0
 17 18  2  0
  4 19  1  0
 19 20  1  0
 20 21  2  0
 21 22  1  0
 22 23  2  0
 23 24  1  0
 24 25  2  0
 25  3  1  0
 18 13  1  0
 25 20  1  0
  1 26  1  0
  1 27  1  0
  1 28  1  0
  2 29  1  0
  2 30  1  0
  5 31  1  0
  6 32  1  0
  7 33  1  0
  8 34  1  0
 11 35  1  0
 11 36  1  0
 11 37  1  0
 14 38  1  0
 15 39  1  0
 16 40  1  0
 17 41  1  0
 18 42  1  0
 21 43  1  0
 22 44  1  0
 23 45  1  0
 24 46  1  0
M  CHG  1   3   1
M  END
$$$$
