
     RDKit          3D

 34 35  0  0  0  0  0  0  0  0999 V2000
   -4.3517    1.3502    0.2576 C   0  0  0  0  0  0  0  0  0  0  0  0
   -3.4372    0.1657    0.4233 C   0  0  0  0  0  0  0  0  0  0  0  0
   -3.8570   -0.8928    1.2488 C   0  0  0  0  0  0  0  0  0  0  0  0
   -3.0513   -2.0131    1.4400 C   0  0  0  0  0  0  0  0  0  0  0  0
   -1.8235   -2.0968    0.7955 C   0  0  0  0  0  0  0  0  0  0  0  0
   -1.3953   -1.0558   -0.0315 C   0  0  0  0  0  0  0  0  0  0  0  0
   -2.1788    0.0919   -0.2116 C   0  0  0  0  0  0  0  0  0  0  0  0
   -1.7833    1.1521   -1.0604 N   0  0  0  0  0  0  0  0  0  0  0  0
   -0.5685    1.5016   -1.5789 C   0  0  0  0  0  0  0  0  0  0  0  0
   -0.5589    2.5542   -2.8791 S   0  0  0  0  0  0  0  0  0  0  0  0
    0.5380    1.0027   -0.9609 N   0  0  0  0  0  0  0  0  0  0  0  0
    1.9184    1.2985   -1.3048 C   0  0  0  0  0  0  0  0  0  0  0  0
    2.8525    0.4172   -0.5187 C   0  0  0  0  0  0  0  0  0  0  0  0
    3.0837   -0.9055   -0.9232 C   0  0  0  0  0  0  0  0  0  0  0  0
    3.9258   -1.7356   -0.1822 C   0  0  0  0  0  0  0  0  0  0  0  0
    4.5388   -1.2543    0.9731 C   0  0  0  0  0  0  0  0  0  0  0  0
    4.3082    0.0555    1.3903 C   0  0  0  0  0  0  0  0  0  0  0  0
    3.4661    0.8875    0.6506 C   0  0  0  0  0  0  0  0  0  0  0  0
   -4.7131    1.4075   -0.7741 H   0  0  0  0  0  0  0  0  0  0  0  0
   -5.2269    1.2793    0.9125 H   0  0  0  0  0  0  0  0  0  0  0  0
   -3.8288    2.2767    0.5165 H   0  0  0  0  0  0  0  0  0  0  0  0
   -4.8213   -0.8493    1.7512 H   0  0  0  0  0  0  0  0  0  0  0  0
   -3.3885   -2.8244    2.0798 H   0  0  0  0  0  0  0  0  0  0  0  0
   -1.2018   -2.9799    0.9197 H   0  0  0  0  0  0  0  0  0  0  0  0
   -0.4610   -1.1954   -0.5671 H   0  0  0  0  0  0  0  0  0  0  0  0
   -2.5317    1.7379   -1.4122 H   0  0  0  0  0  0  0  0  0  0  0  0
    0.3903    0.7391    0.0048 H   0  0  0  0  0  0  0  0  0  0  0  0
    2.0718    1.1475   -2.3794 H   0  0  0  0  0  0  0  0  0  0  0  0
    2.1087    2.3566   -1.0905 H   0  0  0  0  0  0  0  0  0  0  0  0
    2.6036   -1.2939   -1.8193 H   0  0  0  0  0  0  0  0  0  0  0  0
    4.1023   -2.7581   -0.5058 H   0  0  0  0  0  0  0  0  0  0  0  0
    5.1949   -1.9010    1.5499 H   0  0  0  0  0  0  0  0  0  0  0  0
    4.7838    0.4289    2.2936 H   0  0  0  0  0  0  0  0  0  0  0  0
    3.2916    1.9053    0.9926 H   0  0  0  0  0  0  0  0  0  0  0  0
  1  2  1  0
  2  3  2  0
  3  4  1  0
  4  5  2  0
  5  6  1  0
  6  7  2  0
  7  8  1  0
  8  9  1  0
  9 10  2  0
  9 11  1  0
 11 12  1  0
 12 13  1  0
 13 14  2  0
 14 15  1  0
 15 16  2  0
 16 17  1  0
 17 18  2  0
  7  2  1  0
 18 13  1  0
  1 19  1  0
  1 20  1  0
  1 21  1  0
  3 22  1  0
  4 23  1  0
  5 24  1  0
  6 25  1  0
  8 26  1  0
 11 27  1  0
 12 28  1  0
 12 29  1  0
 14 30  1  0
 15 31  1  0
 16 32  1  0
 17 33  1  0
 18 34  1  0
M  END
$$$$
