
     RDKit          3D

 56 58  0  0  0  0  0  0  0  0999 V2000
    9.4651    0.3589    1.8433 C   0  0  0  0  0  0  0  0  0  0  0  0
    9.0608   -0.8579    1.2303 O   0  0  0  0  0  0  0  0  0  0  0  0
    7.9898   -0.7959    0.3819 C   0  0  0  0  0  0  0  0  0  0  0  0
    7.5892   -2.0269   -0.1415 C   0  0  0  0  0  0  0  0  0  0  0  0
    6.5082   -2.1115   -1.0226 C   0  0  0  0  0  0  0  0  0  0  0  0
    5.8145   -0.9569   -1.4022 C   0  0  0  0  0  0  0  0  0  0  0  0
    4.6396   -1.0367   -2.3401 C   0  0  0  0  0  0  0  0  0  0  0  0
    3.3998   -0.9726   -1.6114 N   0  0  0  0  0  0  0  0  0  0  0  0
    2.5577    0.1103   -1.6682 C   0  0  0  0  0  0  0  0  0  0  0  0
    2.6921    1.1001   -2.3741 O   0  0  0  0  0  0  0  0  0  0  0  0
    1.3385   -0.0066   -0.7232 C   0  0  0  0  0  0  0  0  0  0  0  0
    1.1676   -1.0172   -0.0562 O   0  0  0  0  0  0  0  0  0  0  0  0
    0.5087    1.0895   -0.7529 N   0  0  0  0  0  0  0  0  0  0  0  0
   -0.7822    1.0939   -0.0827 C   0  0  0  0  0  0  0  0  0  0  0  0
   -1.8117    0.1204   -0.7173 C   0  0  0  0  0  0  0  0  0  0  0  0
   -1.8724    0.3730   -2.1422 O   0  0  0  0  0  0  0  0  0  0  0  0
   -2.9282    1.3163   -2.3271 C   0  0  0  0  0  0  0  0  0  0  0  0
   -3.9782    0.8990   -1.3246 C   0  0  0  0  0  0  0  0  0  0  0  0
   -3.2079    0.2552   -0.2482 N   0  0  0  0  0  0  0  0  0  0  0  0
   -3.4853    0.7322    1.3337 S   0  0  0  0  0  6  0  0  0  0  0  0
   -3.3735    2.1757    1.3657 O   0  0  0  0  0  0  0  0  0  0  0  0
   -2.6922   -0.1006    2.2099 O   0  0  0  0  0  0  0  0  0  0  0  0
   -5.1869    0.2911    1.5718 C   0  0  0  0  0  0  0  0  0  0  0  0
   -6.1568    1.2839    1.7240 C   0  0  0  0  0  0  0  0  0  0  0  0
   -7.4911    0.9158    1.9035 C   0  0  0  0  0  0  0  0  0  0  0  0
   -7.8592   -0.4372    1.9287 C   0  0  0  0  0  0  0  0  0  0  0  0
   -9.2922   -0.8212    2.1545 C   0  0  0  0  0  0  0  0  0  0  0  0
   -6.8701   -1.4218    1.7973 C   0  0  0  0  0  0  0  0  0  0  0  0
   -5.5344   -1.0617    1.6163 C   0  0  0  0  0  0  0  0  0  0  0  0
    6.2151    0.2766   -0.8702 C   0  0  0  0  0  0  0  0  0  0  0  0
    7.2972    0.3575    0.0144 C   0  0  0  0  0  0  0  0  0  0  0  0
    9.8105    1.0818    1.0968 H   0  0  0  0  0  0  0  0  0  0  0  0
    8.6621    0.7786    2.4579 H   0  0  0  0  0  0  0  0  0  0  0  0
   10.3069    0.1355    2.5048 H   0  0  0  0  0  0  0  0  0  0  0  0
    8.1236   -2.9303    0.1431 H   0  0  0  0  0  0  0  0  0  0  0  0
    6.2172   -3.0853   -1.4090 H   0  0  0  0  0  0  0  0  0  0  0  0
    4.6984   -0.2350   -3.0854 H   0  0  0  0  0  0  0  0  0  0  0  0
    4.6466   -1.9873   -2.8863 H   0  0  0  0  0  0  0  0  0  0  0  0
    3.1843   -1.6841   -0.9197 H   0  0  0  0  0  0  0  0  0  0  0  0
    0.6961    1.7649   -1.4900 H   0  0  0  0  0  0  0  0  0  0  0  0
   -1.1378    2.1278   -0.1367 H   0  0  0  0  0  0  0  0  0  0  0  0
   -0.6083    0.8424    0.9677 H   0  0  0  0  0  0  0  0  0  0  0  0
   -1.4863   -0.9179   -0.5928 H   0  0  0  0  0  0  0  0  0  0  0  0
   -3.2892    1.2820   -3.3580 H   0  0  0  0  0  0  0  0  0  0  0  0
   -2.5472    2.3231   -2.1216 H   0  0  0  0  0  0  0  0  0  0  0  0
   -4.5811    1.7519   -1.0044 H   0  0  0  0  0  0  0  0  0  0  0  0
   -4.6477    0.1464   -1.7550 H   0  0  0  0  0  0  0  0  0  0  0  0
   -5.8871    2.3373    1.7108 H   0  0  0  0  0  0  0  0  0  0  0  0
   -8.2457    1.6903    2.0284 H   0  0  0  0  0  0  0  0  0  0  0  0
   -9.9607   -0.1655    1.5866 H   0  0  0  0  0  0  0  0  0  0  0  0
   -9.5363   -0.7469    3.2189 H   0  0  0  0  0  0  0  0  0  0  0  0
   -9.4835   -1.8472    1.8234 H   0  0  0  0  0  0  0  0  0  0  0  0
   -7.1350   -2.4766    1.8385 H   0  0  0  0  0  0  0  0  0  0  0  0
   -4.7732   -1.8321    1.5144 H   0  0  0  0  0  0  0  0  0  0  0  0
    5.6816    1.1861   -1.1436 H   0  0  0  0  0  0  0  0  0  0  0  0
    7.5703    1.3355    0.3958 H   0  0  0  0  0  0  0  0  0  0  0  0
  1  2  1  0
  2  3  1  0
  3  4  2  0
  4  5  1  0
  5  6  2  0
  6  7  1  0
  7  8  1  0
  8  9  1  0
  9 10  2  0
  9 11  1  0
 11 12  2  0
 11 13  1  0
 13 14  1  0
 14 15  1  0
 15 16  1  0
 16 17  1  0
 17 18  1  0
 18 19  1  0
 19 20  1  0
 20 21  2  0
 20 22  2  0
 20 23  1  0
 23 24  2  0
 24 25  1  0
 25 26  2  0
 26 27  1  0
 26 28  1  0
 28 29  2  0
  6 30  1  0
 30 31  2  0
 31  3  1  0
 19 15  1  0
 29 23  1  0
  1 32  1  0
  1 33  1  0
  1 34  1  0
  4 35  1  0
  5 36  1  0
  7 37  1  0
  7 38  1  0
  8 39  1  0
 13 40  1  0
 14 41  1  0
 14 42  1  0
 15 43  1  0
 17 44  1  0
 17 45  1  0
 18 46  1  0
 18 47  1  0
 24 48  1  0
 25 49  1  0
 27 50  1  0
 27 51  1  0
 27 52  1  0
 28 53  1  0
 29 54  1  0
 30 55  1  0
 31 56  1  0
M  END
$$$$
