
     RDKit          3D

 46 48  0  0  0  0  0  0  0  0999 V2000
    1.2207    2.5777   -2.2206 O   0  0  0  0  0  0  0  0  0  0  0  0
    0.8063    2.2522   -1.1074 C   0  0  0  0  0  0  0  0  0  0  0  0
   -0.1601    3.1169   -0.2977 C   0  0  0  0  0  0  0  0  0  0  0  0
   -0.7794    2.4707    0.8051 O   0  0  0  0  0  0  0  0  0  0  0  0
   -1.8785    1.6945    0.5630 C   0  0  0  0  0  0  0  0  0  0  0  0
   -2.4996    1.1967    1.7092 C   0  0  0  0  0  0  0  0  0  0  0  0
   -3.6301    0.3793    1.6119 C   0  0  0  0  0  0  0  0  0  0  0  0
   -4.1649    0.0353    0.3624 C   0  0  0  0  0  0  0  0  0  0  0  0
   -5.3539   -0.8256    0.2544 C   0  0  0  0  0  0  0  0  0  0  0  0
   -6.5401   -0.5110    0.9384 C   0  0  0  0  0  0  0  0  0  0  0  0
   -7.6699   -1.3273    0.8359 C   0  0  0  0  0  0  0  0  0  0  0  0
   -7.6320   -2.4744    0.0474 C   0  0  0  0  0  0  0  0  0  0  0  0
   -6.4662   -2.8054   -0.6384 C   0  0  0  0  0  0  0  0  0  0  0  0
   -5.3377   -1.9873   -0.5357 C   0  0  0  0  0  0  0  0  0  0  0  0
   -3.5270    0.5382   -0.7825 C   0  0  0  0  0  0  0  0  0  0  0  0
   -2.3949    1.3590   -0.6867 C   0  0  0  0  0  0  0  0  0  0  0  0
    1.2081    1.0901   -0.4779 N   0  0  0  0  0  0  0  0  0  0  0  0
    2.3382    0.4288   -1.0161 N   0  0  0  0  0  0  0  0  0  0  0  0
    3.3990    0.2354   -0.1390 C   0  0  0  0  0  0  0  0  0  0  0  0
    3.2948    0.4700    1.0607 O   0  0  0  0  0  0  0  0  0  0  0  0
    4.5050   -0.2562   -0.7928 N   0  0  0  0  0  0  0  0  0  0  0  0
    5.7743   -0.5412   -0.2491 C   0  0  0  0  0  0  0  0  0  0  0  0
    6.1486   -0.2593    1.0664 C   0  0  0  0  0  0  0  0  0  0  0  0
    7.4373   -0.5771    1.5104 C   0  0  0  0  0  0  0  0  0  0  0  0
    8.3460   -1.1714    0.6400 C   0  0  0  0  0  0  0  0  0  0  0  0
    9.5765   -1.4706    1.0751 F   0  0  0  0  0  0  0  0  0  0  0  0
    7.9972   -1.4565   -0.6709 C   0  0  0  0  0  0  0  0  0  0  0  0
    6.7155   -1.1378   -1.1024 C   0  0  0  0  0  0  0  0  0  0  0  0
    6.3723   -1.4108   -2.3718 F   0  0  0  0  0  0  0  0  0  0  0  0
   -0.8984    3.5791   -0.9631 H   0  0  0  0  0  0  0  0  0  0  0  0
    0.4402    3.9349    0.1173 H   0  0  0  0  0  0  0  0  0  0  0  0
   -2.1025    1.4440    2.6910 H   0  0  0  0  0  0  0  0  0  0  0  0
   -4.0845    0.0003    2.5253 H   0  0  0  0  0  0  0  0  0  0  0  0
   -6.5952    0.3865    1.5514 H   0  0  0  0  0  0  0  0  0  0  0  0
   -8.5789   -1.0643    1.3705 H   0  0  0  0  0  0  0  0  0  0  0  0
   -8.5099   -3.1100   -0.0322 H   0  0  0  0  0  0  0  0  0  0  0  0
   -6.4317   -3.7019   -1.2519 H   0  0  0  0  0  0  0  0  0  0  0  0
   -4.4335   -2.2714   -1.0706 H   0  0  0  0  0  0  0  0  0  0  0  0
   -3.9176    0.2994   -1.7705 H   0  0  0  0  0  0  0  0  0  0  0  0
   -1.9498    1.7072   -1.6129 H   0  0  0  0  0  0  0  0  0  0  0  0
    1.0994    1.0176    0.5366 H   0  0  0  0  0  0  0  0  0  0  0  0
    2.5776    0.7575   -1.9508 H   0  0  0  0  0  0  0  0  0  0  0  0
    4.3701   -0.5401   -1.7558 H   0  0  0  0  0  0  0  0  0  0  0  0
    5.4653    0.2078    1.7692 H   0  0  0  0  0  0  0  0  0  0  0  0
    7.7347   -0.3620    2.5327 H   0  0  0  0  0  0  0  0  0  0  0  0
    8.7092   -1.9179   -1.3442 H   0  0  0  0  0  0  0  0  0  0  0  0
  1  2  2  0
  2  3  1  0
  3  4  1  0
  4  5  1  0
  5  6  2  0
  6  7  1  0
  7  8  2  0
  8  9  1  0
  9 10  2  0
 10 11  1  0
 11 12  2  0
 12 13  1  0
 13 14  2  0
  8 15  1  0
 15 16  2  0
  2 17  1  0
 17 18  1  0
 18 19  1  0
 19 20  2  0
 19 21  1  0
 21 22  1  0
 22 23  2  0
 23 24  1  0
 24 25  2  0
 25 26  1  0
 25 27  1  0
 27 28  2  0
 28 29  1  0
 16  5  1  0
 28 22  1  0
 14  9  1  0
  3 30  1  0
  3 31  1  0
  6 32  1  0
  7 33  1  0
 10 34  1  0
 11 35  1  0
 12 36  1  0
 13 37  1  0
 14 38  1  0
 15 39  1  0
 16 40  1  0
 17 41  1  0
 18 42  1  0
 21 43  1  0
 23 44  1  0
 24 45  1  0
 27 46  1  0
M  END
$$$$
