
     RDKit          3D

 57 60  0  0  0  0  0  0  0  0999 V2000
   -5.1523   -2.0066    1.5277 C   0  0  0  0  0  0  0  0  0  0  0  0
   -4.2306   -2.5464    0.4346 C   0  0  0  0  0  0  0  0  0  0  0  0
   -4.8046   -3.8499   -0.1257 C   0  0  0  0  0  0  0  0  0  0  0  0
   -4.0780   -1.5019   -0.6733 C   0  0  0  0  0  0  0  0  0  0  0  0
   -4.8158   -1.5215   -1.6610 O   0  0  0  0  0  0  0  0  0  0  0  0
   -3.1229   -0.5094   -0.5043 N   0  0  0  0  0  0  0  0  0  0  0  0
   -2.1658   -0.4280    0.6090 C   0  0  0  0  0  0  0  0  0  0  0  0
   -1.5693    0.9813    0.7677 C   0  0  0  0  0  0  0  0  0  0  0  0
   -0.8727    1.4053   -0.4722 N   0  0  0  0  0  0  0  0  0  0  0  0
   -0.5630    2.7938   -0.4176 C   0  0  0  0  0  0  0  0  0  0  0  0
   -1.5218    3.7897   -0.6552 C   0  0  0  0  0  0  0  0  0  0  0  0
   -1.1807    5.1394   -0.5588 C   0  0  0  0  0  0  0  0  0  0  0  0
    0.1198    5.5083   -0.2219 C   0  0  0  0  0  0  0  0  0  0  0  0
    1.0890    4.5322    0.0188 C   0  0  0  0  0  0  0  0  0  0  0  0
    0.7572    3.1810   -0.0772 C   0  0  0  0  0  0  0  0  0  0  0  0
    1.6715    2.1255    0.1215 N   0  0  0  0  0  0  0  0  0  0  0  0
    2.9973    2.1964    0.4814 C   0  0  0  0  0  0  0  0  0  0  0  0
    3.6208    3.2089    0.7764 O   0  0  0  0  0  0  0  0  0  0  0  0
    3.7082    0.8857    0.5402 C   0  0  0  0  0  0  0  0  0  0  0  0
    4.7663    0.7419    1.4494 C   0  0  0  0  0  0  0  0  0  0  0  0
    5.4628   -0.4659    1.5378 C   0  0  0  0  0  0  0  0  0  0  0  0
    5.1100   -1.5303    0.7123 C   0  0  0  0  0  0  0  0  0  0  0  0
    4.0810   -1.3793   -0.2234 C   0  0  0  0  0  0  0  0  0  0  0  0
    3.3723   -0.1803   -0.3057 C   0  0  0  0  0  0  0  0  0  0  0  0
    3.7108   -2.3716   -1.0961 O   0  0  0  0  0  0  0  0  0  0  0  0
    4.7189   -3.3857   -1.1858 C   0  0  0  0  0  0  0  0  0  0  0  0
    5.1959   -3.7898    0.1990 C   0  0  0  0  0  0  0  0  0  0  0  0
    5.8272   -2.6885    0.8623 O   0  0  0  0  0  0  0  0  0  0  0  0
   -1.5195    0.9717   -1.7379 C   0  0  0  0  0  0  0  0  0  0  0  0
   -2.9757    0.5114   -1.5507 C   0  0  0  0  0  0  0  0  0  0  0  0
   -4.8240   -1.0352    1.9085 H   0  0  0  0  0  0  0  0  0  0  0  0
   -6.1696   -1.8706    1.1466 H   0  0  0  0  0  0  0  0  0  0  0  0
   -5.1995   -2.7021    2.3717 H   0  0  0  0  0  0  0  0  0  0  0  0
   -3.2467   -2.7805    0.8539 H   0  0  0  0  0  0  0  0  0  0  0  0
   -5.8119   -3.7078   -0.5318 H   0  0  0  0  0  0  0  0  0  0  0  0
   -4.1747   -4.2379   -0.9350 H   0  0  0  0  0  0  0  0  0  0  0  0
   -4.8616   -4.6137    0.6570 H   0  0  0  0  0  0  0  0  0  0  0  0
   -1.3711   -1.1531    0.3961 H   0  0  0  0  0  0  0  0  0  0  0  0
   -2.6448   -0.7249    1.5440 H   0  0  0  0  0  0  0  0  0  0  0  0
   -2.3807    1.6767    1.0212 H   0  0  0  0  0  0  0  0  0  0  0  0
   -0.8582    0.9776    1.6021 H   0  0  0  0  0  0  0  0  0  0  0  0
   -2.5445    3.5275   -0.9057 H   0  0  0  0  0  0  0  0  0  0  0  0
   -1.9305    5.9042   -0.7436 H   0  0  0  0  0  0  0  0  0  0  0  0
    0.3861    6.5594   -0.1467 H   0  0  0  0  0  0  0  0  0  0  0  0
    2.0937    4.8540    0.2726 H   0  0  0  0  0  0  0  0  0  0  0  0
    1.2330    1.2203   -0.0222 H   0  0  0  0  0  0  0  0  0  0  0  0
    5.0491    1.5740    2.0932 H   0  0  0  0  0  0  0  0  0  0  0  0
    6.2772   -0.5738    2.2501 H   0  0  0  0  0  0  0  0  0  0  0  0
    2.5959   -0.0829   -1.0584 H   0  0  0  0  0  0  0  0  0  0  0  0
    4.2778   -4.2454   -1.6991 H   0  0  0  0  0  0  0  0  0  0  0  0
    5.5430   -3.0059   -1.8012 H   0  0  0  0  0  0  0  0  0  0  0  0
    4.3640   -4.1411    0.8217 H   0  0  0  0  0  0  0  0  0  0  0  0
    5.9312   -4.5978    0.1248 H   0  0  0  0  0  0  0  0  0  0  0  0
   -1.4665    1.7419   -2.5175 H   0  0  0  0  0  0  0  0  0  0  0  0
   -0.9348    0.1211   -2.1111 H   0  0  0  0  0  0  0  0  0  0  0  0
   -3.6049    1.3566   -1.2498 H   0  0  0  0  0  0  0  0  0  0  0  0
   -3.3632    0.1421   -2.5061 H   0  0  0  0  0  0  0  0  0  0  0  0
  1  2  1  0
  2  3  1  0
  2  4  1  0
  4  5  2  0
  4  6  1  0
  6  7  1  0
  7  8  1  0
  8  9  1  0
  9 10  1  0
 10 11  2  0
 11 12  1  0
 12 13  2  0
 13 14  1  0
 14 15  2  0
 15 16  1  0
 16 17  1  0
 17 18  2  0
 17 19  1  0
 19 20  2  0
 20 21  1  0
 21 22  2  0
 22 23  1  0
 23 24  2  0
 23 25  1  0
 25 26  1  0
 26 27  1  0
 27 28  1  0
  9 29  1  0
 29 30  1  0
 30  6  1  0
 15 10  1  0
 24 19  1  0
 28 22  1  0
  1 31  1  0
  1 32  1  0
  1 33  1  0
  2 34  1  0
  3 35  1  0
  3 36  1  0
  3 37  1  0
  7 38  1  0
  7 39  1  0
  8 40  1  0
  8 41  1  0
 11 42  1  0
 12 43  1  0
 13 44  1  0
 14 45  1  0
 16 46  1  0
 20 47  1  0
 21 48  1  0
 24 49  1  0
 26 50  1  0
 26 51  1  0
 27 52  1  0
 27 53  1  0
 29 54  1  0
 29 55  1  0
 30 56  1  0
 30 57  1  0
M  END
$$$$
