
     RDKit          3D

 57 60  0  0  0  0  0  0  0  0999 V2000
   -6.1377   -3.0053    0.4869 C   0  0  0  0  0  0  0  0  0  0  0  0
   -5.4212   -1.6644    0.2966 C   0  0  0  0  0  0  0  0  0  0  0  0
   -6.3407   -0.6994   -0.4487 C   0  0  0  0  0  0  0  0  0  0  0  0
   -4.1066   -1.8598   -0.4662 C   0  0  0  0  0  0  0  0  0  0  0  0
   -3.8692   -2.9202   -1.0504 O   0  0  0  0  0  0  0  0  0  0  0  0
   -3.2022   -0.8095   -0.5118 N   0  0  0  0  0  0  0  0  0  0  0  0
   -3.2769    0.4407    0.2596 C   0  0  0  0  0  0  0  0  0  0  0  0
   -1.8917    0.9545    0.6997 C   0  0  0  0  0  0  0  0  0  0  0  0
   -0.9273    1.0729   -0.4214 N   0  0  0  0  0  0  0  0  0  0  0  0
   -0.5337    2.4065   -0.7176 C   0  0  0  0  0  0  0  0  0  0  0  0
   -1.4585    3.4138   -1.0292 C   0  0  0  0  0  0  0  0  0  0  0  0
   -1.0235    4.7021   -1.3443 C   0  0  0  0  0  0  0  0  0  0  0  0
    0.3387    4.9955   -1.3572 C   0  0  0  0  0  0  0  0  0  0  0  0
    1.2753    4.0061   -1.0510 C   0  0  0  0  0  0  0  0  0  0  0  0
    0.8490    2.7181   -0.7280 C   0  0  0  0  0  0  0  0  0  0  0  0
    1.7157    1.6578   -0.3892 N   0  0  0  0  0  0  0  0  0  0  0  0
    3.0876    1.6741   -0.2787 C   0  0  0  0  0  0  0  0  0  0  0  0
    3.8231    2.6416   -0.4345 O   0  0  0  0  0  0  0  0  0  0  0  0
    3.7025    0.3683    0.0976 C   0  0  0  0  0  0  0  0  0  0  0  0
    3.1586   -0.8555   -0.3215 C   0  0  0  0  0  0  0  0  0  0  0  0
    3.7639   -2.0567    0.0580 C   0  0  0  0  0  0  0  0  0  0  0  0
    4.9122   -2.0376    0.8473 C   0  0  0  0  0  0  0  0  0  0  0  0
    5.4811   -0.8182    1.2296 C   0  0  0  0  0  0  0  0  0  0  0  0
    4.8742    0.3821    0.8655 C   0  0  0  0  0  0  0  0  0  0  0  0
    6.6313   -0.7276    1.9713 O   0  0  0  0  0  0  0  0  0  0  0  0
    7.3443   -1.9696    1.9808 C   0  0  0  0  0  0  0  0  0  0  0  0
    6.3971   -3.1262    2.2539 C   0  0  0  0  0  0  0  0  0  0  0  0
    5.4367   -3.2549    1.1987 O   0  0  0  0  0  0  0  0  0  0  0  0
   -1.3003    0.3423   -1.6588 C   0  0  0  0  0  0  0  0  0  0  0  0
   -1.9877   -0.9890   -1.3194 C   0  0  0  0  0  0  0  0  0  0  0  0
   -6.4200   -3.4502   -0.4738 H   0  0  0  0  0  0  0  0  0  0  0  0
   -5.4926   -3.7209    1.0088 H   0  0  0  0  0  0  0  0  0  0  0  0
   -7.0486   -2.8785    1.0815 H   0  0  0  0  0  0  0  0  0  0  0  0
   -5.2012   -1.2814    1.2975 H   0  0  0  0  0  0  0  0  0  0  0  0
   -5.9105    0.3019   -0.5235 H   0  0  0  0  0  0  0  0  0  0  0  0
   -6.5311   -1.0476   -1.4700 H   0  0  0  0  0  0  0  0  0  0  0  0
   -7.3040   -0.6050    0.0633 H   0  0  0  0  0  0  0  0  0  0  0  0
   -3.9074    0.3167    1.1421 H   0  0  0  0  0  0  0  0  0  0  0  0
   -3.7552    1.1810   -0.3918 H   0  0  0  0  0  0  0  0  0  0  0  0
   -2.0015    1.8941    1.2554 H   0  0  0  0  0  0  0  0  0  0  0  0
   -1.4647    0.2310    1.4058 H   0  0  0  0  0  0  0  0  0  0  0  0
   -2.5229    3.2041   -1.0436 H   0  0  0  0  0  0  0  0  0  0  0  0
   -1.7461    5.4769   -1.5869 H   0  0  0  0  0  0  0  0  0  0  0  0
    0.6787    5.9979   -1.6064 H   0  0  0  0  0  0  0  0  0  0  0  0
    2.3285    4.2678   -1.0698 H   0  0  0  0  0  0  0  0  0  0  0  0
    1.1985    0.8213   -0.1356 H   0  0  0  0  0  0  0  0  0  0  0  0
    2.2806   -0.8918   -0.9608 H   0  0  0  0  0  0  0  0  0  0  0  0
    3.3419   -3.0065   -0.2610 H   0  0  0  0  0  0  0  0  0  0  0  0
    5.3177    1.3268    1.1726 H   0  0  0  0  0  0  0  0  0  0  0  0
    7.8554   -2.0867    1.0172 H   0  0  0  0  0  0  0  0  0  0  0  0
    8.1049   -1.9096    2.7656 H   0  0  0  0  0  0  0  0  0  0  0  0
    6.9543   -4.0667    2.3111 H   0  0  0  0  0  0  0  0  0  0  0  0
    5.8585   -2.9894    3.1997 H   0  0  0  0  0  0  0  0  0  0  0  0
   -1.9813    0.9404   -2.2787 H   0  0  0  0  0  0  0  0  0  0  0  0
   -0.3973    0.1416   -2.2477 H   0  0  0  0  0  0  0  0  0  0  0  0
   -1.3099   -1.6271   -0.7384 H   0  0  0  0  0  0  0  0  0  0  0  0
   -2.2386   -1.5224   -2.2431 H   0  0  0  0  0  0  0  0  0  0  0  0
  1  2  1  0
  2  3  1  0
  2  4  1  0
  4  5  2  0
  4  6  1  0
  6  7  1  0
  7  8  1  0
  8  9  1  0
  9 10  1  0
 10 11  2  0
 11 12  1  0
 12 13  2  0
 13 14  1  0
 14 15  2  0
 15 16  1  0
 16 17  1  0
 17 18  2  0
 17 19  1  0
 19 20  2  0
 20 21  1  0
 21 22  2  0
 22 23  1  0
 23 24  2  0
 23 25  1  0
 25 26  1  0
 26 27  1  0
 27 28  1  0
  9 29  1  0
 29 30  1  0
 30  6  1  0
 15 10  1  0
 24 19  1  0
 28 22  1  0
  1 31  1  0
  1 32  1  0
  1 33  1  0
  2 34  1  0
  3 35  1  0
  3 36  1  0
  3 37  1  0
  7 38  1  0
  7 39  1  0
  8 40  1  0
  8 41  1  0
 11 42  1  0
 12 43  1  0
 13 44  1  0
 14 45  1  0
 16 46  1  0
 20 47  1  0
 21 48  1  0
 24 49  1  0
 26 50  1  0
 26 51  1  0
 27 52  1  0
 27 53  1  0
 29 54  1  0
 29 55  1  0
 30 56  1  0
 30 57  1  0
M  END
$$$$
