
     RDKit          3D

 36 37  0  0  0  0  0  0  0  0999 V2000
    1.7874    3.6580   -0.1013 O   0  0  0  0  0  0  0  0  0  0  0  0
    0.9284    2.7799   -0.1369 C   0  0  0  0  0  0  0  0  0  0  0  0
   -0.3609    2.9354   -0.9489 C   0  0  0  0  0  0  0  0  0  0  0  0
   -1.1985    1.7765   -0.9241 O   0  0  0  0  0  0  0  0  0  0  0  0
   -2.1443    1.7540    0.0436 C   0  0  0  0  0  0  0  0  0  0  0  0
   -2.3653    2.6371    0.8550 O   0  0  0  0  0  0  0  0  0  0  0  0
   -2.8861    0.4634    0.0075 C   0  0  0  0  0  0  0  0  0  0  0  0
   -2.5435   -0.5779   -0.8681 C   0  0  0  0  0  0  0  0  0  0  0  0
   -3.2607   -1.7781   -0.8489 C   0  0  0  0  0  0  0  0  0  0  0  0
   -4.3199   -1.9384    0.0431 C   0  0  0  0  0  0  0  0  0  0  0  0
   -5.2862   -3.5625    0.0686 Br  0  0  0  0  0  0  0  0  0  0  0  0
   -4.6702   -0.9113    0.9178 C   0  0  0  0  0  0  0  0  0  0  0  0
   -3.9528    0.2881    0.9009 C   0  0  0  0  0  0  0  0  0  0  0  0
    1.0554    1.5752    0.5245 N   0  0  0  0  0  0  0  0  0  0  0  0
    2.2978    1.1954    1.1749 C   0  0  0  0  0  0  0  0  0  0  0  0
    3.2427    0.4448    0.2262 C   0  0  0  0  0  0  0  0  0  0  0  0
    2.8568   -0.9522    0.0521 N   0  0  0  0  0  0  0  0  0  0  0  0
    3.4588   -1.9921    0.7195 C   0  0  0  0  0  0  0  0  0  0  0  0
    4.4848   -1.7252    1.5748 O   0  0  0  0  0  0  0  0  0  0  0  0
    2.9442   -3.1982    0.4536 C   0  0  0  0  0  0  0  0  0  0  0  0
    1.6271   -3.0861   -0.6730 S   0  0  0  0  0  0  0  0  0  0  0  0
    1.7885   -1.3217   -0.7489 C   0  0  0  0  0  0  0  0  0  0  0  0
    1.0292   -0.6050   -1.3803 O   0  0  0  0  0  0  0  0  0  0  0  0
   -0.8915    3.8327   -0.6118 H   0  0  0  0  0  0  0  0  0  0  0  0
   -0.0695    3.0918   -1.9928 H   0  0  0  0  0  0  0  0  0  0  0  0
   -1.7178   -0.4747   -1.5697 H   0  0  0  0  0  0  0  0  0  0  0  0
   -2.9826   -2.5774   -1.5316 H   0  0  0  0  0  0  0  0  0  0  0  0
   -5.4952   -1.0323    1.6155 H   0  0  0  0  0  0  0  0  0  0  0  0
   -4.2287    1.0857    1.5891 H   0  0  0  0  0  0  0  0  0  0  0  0
    0.4612    0.8291    0.1721 H   0  0  0  0  0  0  0  0  0  0  0  0
    2.7934    2.1009    1.5407 H   0  0  0  0  0  0  0  0  0  0  0  0
    2.0357    0.5762    2.0391 H   0  0  0  0  0  0  0  0  0  0  0  0
    4.2680    0.4943    0.6080 H   0  0  0  0  0  0  0  0  0  0  0  0
    3.2412    0.9195   -0.7626 H   0  0  0  0  0  0  0  0  0  0  0  0
    4.8039   -2.5655    1.9463 H   0  0  0  0  0  0  0  0  0  0  0  0
    3.2693   -4.1394    0.8718 H   0  0  0  0  0  0  0  0  0  0  0  0
  1  2  2  0
  2  3  1  0
  3  4  1  0
  4  5  1  0
  5  6  2  0
  5  7  1  0
  7  8  2  0
  8  9  1  0
  9 10  2  0
 10 11  1  0
 10 12  1  0
 12 13  2  0
  2 14  1  0
 14 15  1  0
 15 16  1  0
 16 17  1  0
 17 18  1  0
 18 19  1  0
 18 20  2  0
 20 21  1  0
 21 22  1  0
 22 23  2  0
 13  7  1  0
 22 17  1  0
  3 24  1  0
  3 25  1  0
  8 26  1  0
  9 27  1  0
 12 28  1  0
 13 29  1  0
 14 30  1  0
 15 31  1  0
 15 32  1  0
 16 33  1  0
 16 34  1  0
 19 35  1  0
 20 36  1  0
M  END
$$$$
