
     RDKit          3D

 53 56  0  0  0  0  0  0  0  0999 V2000
   -9.3346    1.2333    0.6207 C   0  0  0  0  0  0  0  0  0  0  0  0
   -8.8626    0.1934   -0.2285 O   0  0  0  0  0  0  0  0  0  0  0  0
   -7.5465   -0.1585   -0.1023 C   0  0  0  0  0  0  0  0  0  0  0  0
   -7.1444   -1.2109   -0.9263 C   0  0  0  0  0  0  0  0  0  0  0  0
   -5.8285   -1.6726   -0.8995 C   0  0  0  0  0  0  0  0  0  0  0  0
   -4.8989   -1.0819   -0.0428 C   0  0  0  0  0  0  0  0  0  0  0  0
   -5.2857   -0.0223    0.7859 C   0  0  0  0  0  0  0  0  0  0  0  0
   -4.3377    0.6427    1.7339 C   0  0  0  0  0  0  0  0  0  0  0  0
   -4.7827    1.4101    2.5915 O   0  0  0  0  0  0  0  0  0  0  0  0
   -2.8507    0.3279    1.6581 C   0  0  0  0  0  0  0  0  0  0  0  0
   -2.3599    0.5855    0.3494 O   0  0  0  0  0  0  0  0  0  0  0  0
   -1.0475    0.2944    0.1087 C   0  0  0  0  0  0  0  0  0  0  0  0
   -0.6294    0.5198   -1.2028 C   0  0  0  0  0  0  0  0  0  0  0  0
    0.6910    0.2583   -1.5937 C   0  0  0  0  0  0  0  0  0  0  0  0
    1.6277   -0.2378   -0.6785 C   0  0  0  0  0  0  0  0  0  0  0  0
    3.0355   -0.5323   -1.0144 C   0  0  0  0  0  0  0  0  0  0  0  0
    3.4587   -0.2953   -2.4420 C   0  0  0  0  0  0  0  0  0  0  0  0
    3.8672   -0.9743   -0.0430 C   0  0  0  0  0  0  0  0  0  0  0  0
    5.3375   -1.2984   -0.2333 C   0  0  0  0  0  0  0  0  0  0  0  0
    6.2449   -0.0920   -0.0943 C   0  0  0  0  0  0  0  0  0  0  0  0
    6.4740    0.4910    1.1628 C   0  0  0  0  0  0  0  0  0  0  0  0
    7.3032    1.6075    1.2899 C   0  0  0  0  0  0  0  0  0  0  0  0
    7.9186    2.1516    0.1641 C   0  0  0  0  0  0  0  0  0  0  0  0
    7.7090    1.5770   -1.0889 C   0  0  0  0  0  0  0  0  0  0  0  0
    6.8788    0.4610   -1.2179 C   0  0  0  0  0  0  0  0  0  0  0  0
    3.3739   -1.2273    1.3415 C   0  0  0  0  0  0  0  0  0  0  0  0
    4.0956   -1.6912    2.2184 O   0  0  0  0  0  0  0  0  0  0  0  0
    2.0510   -0.9300    1.6148 O   0  0  0  0  0  0  0  0  0  0  0  0
    1.1857   -0.4452    0.6238 C   0  0  0  0  0  0  0  0  0  0  0  0
   -0.1289   -0.1893    1.0320 C   0  0  0  0  0  0  0  0  0  0  0  0
   -6.6155    0.4323    0.7538 C   0  0  0  0  0  0  0  0  0  0  0  0
  -10.3982    1.3802    0.4093 H   0  0  0  0  0  0  0  0  0  0  0  0
   -8.8196    2.1771    0.4118 H   0  0  0  0  0  0  0  0  0  0  0  0
   -9.2404    0.9564    1.6764 H   0  0  0  0  0  0  0  0  0  0  0  0
   -7.8664   -1.6761   -1.5953 H   0  0  0  0  0  0  0  0  0  0  0  0
   -5.5304   -2.4929   -1.5487 H   0  0  0  0  0  0  0  0  0  0  0  0
   -3.8836   -1.4680   -0.0451 H   0  0  0  0  0  0  0  0  0  0  0  0
   -2.7099   -0.7197    1.9510 H   0  0  0  0  0  0  0  0  0  0  0  0
   -2.3403    0.9819    2.3768 H   0  0  0  0  0  0  0  0  0  0  0  0
   -1.3356    0.9091   -1.9331 H   0  0  0  0  0  0  0  0  0  0  0  0
    0.9582    0.4618   -2.6276 H   0  0  0  0  0  0  0  0  0  0  0  0
    2.8288   -0.8664   -3.1321 H   0  0  0  0  0  0  0  0  0  0  0  0
    3.3848    0.7684   -2.6908 H   0  0  0  0  0  0  0  0  0  0  0  0
    4.4834   -0.5996   -2.6554 H   0  0  0  0  0  0  0  0  0  0  0  0
    5.4966   -1.7753   -1.2096 H   0  0  0  0  0  0  0  0  0  0  0  0
    5.6766   -2.0693    0.4723 H   0  0  0  0  0  0  0  0  0  0  0  0
    6.0144    0.0753    2.0584 H   0  0  0  0  0  0  0  0  0  0  0  0
    7.4703    2.0490    2.2702 H   0  0  0  0  0  0  0  0  0  0  0  0
    8.5660    3.0186    0.2654 H   0  0  0  0  0  0  0  0  0  0  0  0
    8.1951    1.9959   -1.9670 H   0  0  0  0  0  0  0  0  0  0  0  0
    6.7386    0.0239   -2.2050 H   0  0  0  0  0  0  0  0  0  0  0  0
   -0.3889   -0.3716    2.0690 H   0  0  0  0  0  0  0  0  0  0  0  0
   -6.8984    1.2521    1.4078 H   0  0  0  0  0  0  0  0  0  0  0  0
  1  2  1  0
  2  3  1  0
  3  4  2  0
  4  5  1  0
  5  6  2  0
  6  7  1  0
  7  8  1  0
  8  9  2  0
  8 10  1  0
 10 11  1  0
 11 12  1  0
 12 13  2  0
 13 14  1  0
 14 15  2  0
 15 16  1  0
 16 17  1  0
 16 18  2  0
 18 19  1  0
 19 20  1  0
 20 21  2  0
 21 22  1  0
 22 23  2  0
 23 24  1  0
 24 25  2  0
 18 26  1  0
 26 27  2  0
 26 28  1  0
 28 29  1  0
 29 30  2  0
  7 31  2  0
 31  3  1  0
 30 12  1  0
 29 15  1  0
 25 20  1  0
  1 32  1  0
  1 33  1  0
  1 34  1  0
  4 35  1  0
  5 36  1  0
  6 37  1  0
 10 38  1  0
 10 39  1  0
 13 40  1  0
 14 41  1  0
 17 42  1  0
 17 43  1  0
 17 44  1  0
 19 45  1  0
 19 46  1  0
 21 47  1  0
 22 48  1  0
 23 49  1  0
 24 50  1  0
 25 51  1  0
 30 52  1  0
 31 53  1  0
M  END
$$$$
