
     RDKit          3D

 68 70  0  0  0  0  0  0  0  0999 V2000
   -2.8324    5.9069   -1.8670 C   0  0  0  0  0  0  0  0  0  0  0  0
   -2.7827    5.5921   -0.4791 O   0  0  0  0  0  0  0  0  0  0  0  0
   -2.6780    4.2677   -0.1546 C   0  0  0  0  0  0  0  0  0  0  0  0
   -2.5182    4.0113    1.2085 C   0  0  0  0  0  0  0  0  0  0  0  0
   -2.3927    2.7011    1.6798 C   0  0  0  0  0  0  0  0  0  0  0  0
   -2.4349    1.6102    0.7930 C   0  0  0  0  0  0  0  0  0  0  0  0
   -2.2588    0.1881    1.3317 C   0  0  0  0  0  0  0  0  0  0  0  0
   -3.2334   -0.8523    0.6956 C   0  0  0  0  0  0  0  0  0  0  0  0
   -4.4201   -0.8879    1.0225 O   0  0  0  0  0  0  0  0  0  0  0  0
   -2.7134   -1.6557   -0.2967 N   0  0  0  0  0  0  0  0  0  0  0  0
   -3.4771   -2.6099   -1.1130 C   0  0  0  0  0  0  0  0  0  0  0  0
   -2.4798   -3.3293   -2.0421 C   0  0  0  0  0  0  0  0  0  0  0  0
   -4.5141   -1.8780   -1.9782 C   0  0  0  0  0  0  0  0  0  0  0  0
   -4.1598   -3.6729   -0.2390 C   0  0  0  0  0  0  0  0  0  0  0  0
   -0.8219   -0.2228    1.4206 N   0  0  0  0  0  0  0  0  0  0  0  0
   -0.0285   -0.2543    0.2750 C   0  0  0  0  0  0  0  0  0  0  0  0
   -0.5135   -0.2484   -0.8609 O   0  0  0  0  0  0  0  0  0  0  0  0
    1.4831   -0.2859    0.4596 C   0  0  0  0  0  0  0  0  0  0  0  0
    2.1885    0.2543   -0.7828 C   0  0  0  0  0  0  0  0  0  0  0  0
    3.6892    0.0652   -0.7097 C   0  0  0  0  0  0  0  0  0  0  0  0
    4.2445   -0.4175    0.2709 O   0  0  0  0  0  0  0  0  0  0  0  0
    4.3100    0.4912   -1.8602 N   0  0  0  0  0  0  0  0  0  0  0  0
    5.6571    0.3809   -2.1236 C   0  0  0  0  0  0  0  0  0  0  0  0
    6.6923   -0.1397   -1.3168 C   0  0  0  0  0  0  0  0  0  0  0  0
    7.8194   -0.0332   -2.0905 C   0  0  0  0  0  0  0  0  0  0  0  0
    9.2374   -0.3825   -1.8941 C   0  0  0  0  0  0  0  0  0  0  0  0
    7.4918    0.5402   -3.2794 O   0  0  0  0  0  0  0  0  0  0  0  0
    6.1296    0.7833   -3.3081 N   0  0  0  0  0  0  0  0  0  0  0  0
   -0.3885   -0.7767    2.6642 C   0  0  0  0  0  0  0  0  0  0  0  0
    0.2299   -2.0351    2.7145 C   0  0  0  0  0  0  0  0  0  0  0  0
    0.6766   -2.5684    3.9299 C   0  0  0  0  0  0  0  0  0  0  0  0
    0.5082   -1.8459    5.1080 C   0  0  0  0  0  0  0  0  0  0  0  0
   -0.1209   -0.6085    5.0616 C   0  0  0  0  0  0  0  0  0  0  0  0
   -0.2745    0.0986    6.1904 F   0  0  0  0  0  0  0  0  0  0  0  0
   -0.5800   -0.0767    3.8586 C   0  0  0  0  0  0  0  0  0  0  0  0
   -2.6057    1.8813   -0.5760 C   0  0  0  0  0  0  0  0  0  0  0  0
   -2.7251    3.1954   -1.0460 C   0  0  0  0  0  0  0  0  0  0  0  0
   -2.8709    6.9966   -1.9567 H   0  0  0  0  0  0  0  0  0  0  0  0
   -1.9273    5.5643   -2.3840 H   0  0  0  0  0  0  0  0  0  0  0  0
   -3.7379    5.4992   -2.3311 H   0  0  0  0  0  0  0  0  0  0  0  0
   -2.4901    4.8417    1.9119 H   0  0  0  0  0  0  0  0  0  0  0  0
   -2.2815    2.5437    2.7520 H   0  0  0  0  0  0  0  0  0  0  0  0
   -2.6411    0.2244    2.3618 H   0  0  0  0  0  0  0  0  0  0  0  0
   -1.8716   -1.2832   -0.7358 H   0  0  0  0  0  0  0  0  0  0  0  0
   -1.9587   -2.6182   -2.6951 H   0  0  0  0  0  0  0  0  0  0  0  0
   -2.9829   -4.0630   -2.6817 H   0  0  0  0  0  0  0  0  0  0  0  0
   -1.7132   -3.8535   -1.4571 H   0  0  0  0  0  0  0  0  0  0  0  0
   -5.0215   -2.5651   -2.6652 H   0  0  0  0  0  0  0  0  0  0  0  0
   -5.2854   -1.3965   -1.3674 H   0  0  0  0  0  0  0  0  0  0  0  0
   -4.0440   -1.0938   -2.5800 H   0  0  0  0  0  0  0  0  0  0  0  0
   -3.4297   -4.1846    0.3999 H   0  0  0  0  0  0  0  0  0  0  0  0
   -4.9212   -3.2435    0.4182 H   0  0  0  0  0  0  0  0  0  0  0  0
   -4.6542   -4.4306   -0.8586 H   0  0  0  0  0  0  0  0  0  0  0  0
    1.7947   -1.3224    0.6259 H   0  0  0  0  0  0  0  0  0  0  0  0
    1.7693    0.3141    1.3315 H   0  0  0  0  0  0  0  0  0  0  0  0
    1.8308   -0.2607   -1.6824 H   0  0  0  0  0  0  0  0  0  0  0  0
    1.9714    1.3222   -0.8953 H   0  0  0  0  0  0  0  0  0  0  0  0
    3.7744    0.8824   -2.6236 H   0  0  0  0  0  0  0  0  0  0  0  0
    6.6302   -0.5471   -0.3181 H   0  0  0  0  0  0  0  0  0  0  0  0
    9.3606   -1.0415   -1.0286 H   0  0  0  0  0  0  0  0  0  0  0  0
    9.6362   -0.8989   -2.7734 H   0  0  0  0  0  0  0  0  0  0  0  0
    9.8309    0.5194   -1.7244 H   0  0  0  0  0  0  0  0  0  0  0  0
    0.3464   -2.6318    1.8131 H   0  0  0  0  0  0  0  0  0  0  0  0
    1.1556   -3.5463    3.9572 H   0  0  0  0  0  0  0  0  0  0  0  0
    0.8643   -2.2334    6.0589 H   0  0  0  0  0  0  0  0  0  0  0  0
   -1.0331    0.9073    3.8796 H   0  0  0  0  0  0  0  0  0  0  0  0
   -2.6510    1.0728   -1.3035 H   0  0  0  0  0  0  0  0  0  0  0  0
   -2.8530    3.3397   -2.1144 H   0  0  0  0  0  0  0  0  0  0  0  0
  1  2  1  0
  2  3  1  0
  3  4  2  0
  4  5  1  0
  5  6  2  0
  6  7  1  0
  7  8  1  0
  8  9  2  0
  8 10  1  0
 10 11  1  0
 11 12  1  0
 11 13  1  0
 11 14  1  0
  7 15  1  0
 15 16  1  0
 16 17  2  0
 16 18  1  0
 18 19  1  0
 19 20  1  0
 20 21  2  0
 20 22  1  0
 22 23  1  0
 23 24  1  0
 24 25  2  0
 25 26  1  0
 25 27  1  0
 27 28  1  0
 15 29  1  0
 29 30  2  0
 30 31  1  0
 31 32  2  0
 32 33  1  0
 33 34  1  0
 33 35  2  0
  6 36  1  0
 36 37  2  0
 37  3  1  0
 28 23  2  0
 35 29  1  0
  1 38  1  0
  1 39  1  0
  1 40  1  0
  4 41  1  0
  5 42  1  0
  7 43  1  0
 10 44  1  0
 12 45  1  0
 12 46  1  0
 12 47  1  0
 13 48  1  0
 13 49  1  0
 13 50  1  0
 14 51  1  0
 14 52  1  0
 14 53  1  0
 18 54  1  0
 18 55  1  0
 19 56  1  0
 19 57  1  0
 22 58  1  0
 24 59  1  0
 26 60  1  0
 26 61  1  0
 26 62  1  0
 30 63  1  0
 31 64  1  0
 32 65  1  0
 35 66  1  0
 36 67  1  0
 37 68  1  0
M  END
$$$$
