
     RDKit          3D

 51 53  0  0  0  0  0  0  0  0999 V2000
    7.9928   -1.4347   -2.4571 C   0  0  0  0  0  0  0  0  0  0  0  0
    7.1401   -1.6234   -1.3369 O   0  0  0  0  0  0  0  0  0  0  0  0
    6.2294   -0.6339   -1.0587 C   0  0  0  0  0  0  0  0  0  0  0  0
    6.0280    0.5020   -1.8497 C   0  0  0  0  0  0  0  0  0  0  0  0
    5.0762    1.4593   -1.4858 C   0  0  0  0  0  0  0  0  0  0  0  0
    4.3187    1.3033   -0.3197 C   0  0  0  0  0  0  0  0  0  0  0  0
    3.2991    2.3433    0.0728 C   0  0  0  0  0  0  0  0  0  0  0  0
    1.8904    1.9852   -0.3834 C   0  0  0  0  0  0  0  0  0  0  0  0
    1.6154    1.9083   -1.5774 O   0  0  0  0  0  0  0  0  0  0  0  0
    1.0172    1.7804    0.6763 N   0  0  0  0  0  0  0  0  0  0  0  0
   -0.3365    1.3905    0.6086 C   0  0  0  0  0  0  0  0  0  0  0  0
   -1.0050    1.0790   -0.5739 C   0  0  0  0  0  0  0  0  0  0  0  0
   -2.3505    0.6812   -0.5537 C   0  0  0  0  0  0  0  0  0  0  0  0
   -3.0513    0.5949    0.6484 C   0  0  0  0  0  0  0  0  0  0  0  0
   -4.3997    0.1935    0.7520 N   0  0  0  0  0  0  0  0  0  0  0  0
   -5.2667   -0.1020   -0.2844 C   0  0  0  0  0  0  0  0  0  0  0  0
   -5.0444    0.0006   -1.4847 O   0  0  0  0  0  0  0  0  0  0  0  0
   -6.6230   -0.5513    0.1414 C   0  0  0  0  0  0  0  0  0  0  0  0
   -7.7276   -0.1598   -0.6289 C   0  0  0  0  0  0  0  0  0  0  0  0
   -9.0157   -0.5634   -0.2667 C   0  0  0  0  0  0  0  0  0  0  0  0
   -9.1963   -1.3672    0.8590 C   0  0  0  0  0  0  0  0  0  0  0  0
  -10.9373   -1.9174    1.3507 Br  0  0  0  0  0  0  0  0  0  0  0  0
   -8.1014   -1.7781    1.6222 C   0  0  0  0  0  0  0  0  0  0  0  0
   -6.8116   -1.3740    1.2619 C   0  0  0  0  0  0  0  0  0  0  0  0
   -2.3818    0.9086    1.8360 C   0  0  0  0  0  0  0  0  0  0  0  0
   -1.0373    1.3000    1.8162 C   0  0  0  0  0  0  0  0  0  0  0  0
    4.5066    0.1553    0.4661 C   0  0  0  0  0  0  0  0  0  0  0  0
    5.4491   -0.8158    0.1001 C   0  0  0  0  0  0  0  0  0  0  0  0
    5.7004   -1.9502    0.8357 O   0  0  0  0  0  0  0  0  0  0  0  0
    4.6539   -2.4039    1.6846 C   0  0  0  0  0  0  0  0  0  0  0  0
    7.4187   -1.4208   -3.3902 H   0  0  0  0  0  0  0  0  0  0  0  0
    8.6796   -2.2858   -2.5043 H   0  0  0  0  0  0  0  0  0  0  0  0
    8.5963   -0.5277   -2.3477 H   0  0  0  0  0  0  0  0  0  0  0  0
    6.5890    0.6716   -2.7636 H   0  0  0  0  0  0  0  0  0  0  0  0
    4.9286    2.3286   -2.1268 H   0  0  0  0  0  0  0  0  0  0  0  0
    3.5517    3.3154   -0.3660 H   0  0  0  0  0  0  0  0  0  0  0  0
    3.3405    2.4935    1.1580 H   0  0  0  0  0  0  0  0  0  0  0  0
    1.3805    1.9335    1.6077 H   0  0  0  0  0  0  0  0  0  0  0  0
   -0.5124    1.1227   -1.5406 H   0  0  0  0  0  0  0  0  0  0  0  0
   -2.8144    0.4379   -1.5060 H   0  0  0  0  0  0  0  0  0  0  0  0
   -4.7825    0.1822    1.6884 H   0  0  0  0  0  0  0  0  0  0  0  0
   -7.5847    0.4602   -1.5137 H   0  0  0  0  0  0  0  0  0  0  0  0
   -9.8646   -0.2509   -0.8712 H   0  0  0  0  0  0  0  0  0  0  0  0
   -8.2422   -2.4212    2.4884 H   0  0  0  0  0  0  0  0  0  0  0  0
   -5.9665   -1.7361    1.8432 H   0  0  0  0  0  0  0  0  0  0  0  0
   -2.8921    0.8544    2.7945 H   0  0  0  0  0  0  0  0  0  0  0  0
   -0.5550    1.5381    2.7615 H   0  0  0  0  0  0  0  0  0  0  0  0
    3.9183    0.0391    1.3711 H   0  0  0  0  0  0  0  0  0  0  0  0
    3.6981   -2.4630    1.1516 H   0  0  0  0  0  0  0  0  0  0  0  0
    4.9114   -3.4141    2.0221 H   0  0  0  0  0  0  0  0  0  0  0  0
    4.5705   -1.7682    2.5718 H   0  0  0  0  0  0  0  0  0  0  0  0
  1  2  1  0
  2  3  1  0
  3  4  2  0
  4  5  1  0
  5  6  2  0
  6  7  1  0
  7  8  1  0
  8  9  2  0
  8 10  1  0
 10 11  1  0
 11 12  2  0
 12 13  1  0
 13 14  2  0
 14 15  1  0
 15 16  1  0
 16 17  2  0
 16 18  1  0
 18 19  2  0
 19 20  1  0
 20 21  2  0
 21 22  1  0
 21 23  1  0
 23 24  2  0
 14 25  1  0
 25 26  2  0
  6 27  1  0
 27 28  2  0
 28 29  1  0
 29 30  1  0
 28  3  1  0
 26 11  1  0
 24 18  1  0
  1 31  1  0
  1 32  1  0
  1 33  1  0
  4 34  1  0
  5 35  1  0
  7 36  1  0
  7 37  1  0
 10 38  1  0
 12 39  1  0
 13 40  1  0
 15 41  1  0
 19 42  1  0
 20 43  1  0
 23 44  1  0
 24 45  1  0
 25 46  1  0
 26 47  1  0
 27 48  1  0
 30 49  1  0
 30 50  1  0
 30 51  1  0
M  END
$$$$
