
     RDKit          3D

 32 32  0  0  0  0  0  0  0  0999 V2000
    0.7998    0.3845   -4.7028 C   0  0  0  0  0  0  0  0  0  0  0  0
   -0.2256    0.6946   -4.1587 C   0  0  0  0  0  0  0  0  0  0  0  0
   -1.4921    1.0714   -3.5102 C   0  0  0  0  0  0  0  0  0  0  0  0
   -1.3601    1.9264   -2.3277 N   0  0  0  0  0  0  0  0  0  0  0  0
   -0.6218    3.1578   -2.5684 C   0  0  0  0  0  0  0  0  0  0  0  0
   -0.9927    1.2334   -1.0892 C   0  0  0  0  0  0  0  0  0  0  0  0
    0.4340    0.6776   -0.9873 C   0  0  0  0  0  0  0  0  0  0  0  0
    0.7294    0.1386    0.4125 C   0  0  0  0  0  0  0  0  0  0  0  0
   -0.1600   -0.9504    0.6913 O   0  0  0  0  0  0  0  0  0  0  0  0
    0.1724   -1.5521    1.8774 C   0  0  0  0  0  0  0  0  0  0  0  0
   -0.3370   -1.0179    3.0628 C   0  0  0  0  0  0  0  0  0  0  0  0
   -0.0431   -1.6388    4.2751 C   0  0  0  0  0  0  0  0  0  0  0  0
   -0.6543   -0.9793    5.7417 Cl  0  0  0  0  0  0  0  0  0  0  0  0
    0.7403   -2.7931    4.3101 C   0  0  0  0  0  0  0  0  0  0  0  0
    1.2297   -3.3382    3.1198 C   0  0  0  0  0  0  0  0  0  0  0  0
    0.9398   -2.7224    1.9004 C   0  0  0  0  0  0  0  0  0  0  0  0
    1.5497   -3.4283    0.4498 Cl  0  0  0  0  0  0  0  0  0  0  0  0
    1.7093    0.1069   -5.1834 H   0  0  0  0  0  0  0  0  0  0  0  0
   -2.0586    0.1677   -3.2536 H   0  0  0  0  0  0  0  0  0  0  0  0
   -2.1145    1.5984   -4.2447 H   0  0  0  0  0  0  0  0  0  0  0  0
   -0.6959    3.8245   -1.7019 H   0  0  0  0  0  0  0  0  0  0  0  0
   -1.0509    3.7045   -3.4158 H   0  0  0  0  0  0  0  0  0  0  0  0
    0.4401    2.9904   -2.7745 H   0  0  0  0  0  0  0  0  0  0  0  0
   -1.7116    0.4212   -0.9206 H   0  0  0  0  0  0  0  0  0  0  0  0
   -1.1585    1.9293   -0.2559 H   0  0  0  0  0  0  0  0  0  0  0  0
    0.5600   -0.1414   -1.7027 H   0  0  0  0  0  0  0  0  0  0  0  0
    1.1706    1.4531   -1.2213 H   0  0  0  0  0  0  0  0  0  0  0  0
    1.7719   -0.2027    0.4466 H   0  0  0  0  0  0  0  0  0  0  0  0
    0.5957    0.9355    1.1547 H   0  0  0  0  0  0  0  0  0  0  0  0
   -0.9623   -0.1303    3.0344 H   0  0  0  0  0  0  0  0  0  0  0  0
    0.9661   -3.2769    5.2573 H   0  0  0  0  0  0  0  0  0  0  0  0
    1.8304   -4.2438    3.1497 H   0  0  0  0  0  0  0  0  0  0  0  0
  1  2  3  0
  2  3  1  0
  3  4  1  0
  4  5  1  0
  4  6  1  0
  6  7  1  0
  7  8  1  0
  8  9  1  0
  9 10  1  0
 10 11  2  0
 11 12  1  0
 12 13  1  0
 12 14  2  0
 14 15  1  0
 15 16  2  0
 16 17  1  0
 16 10  1  0
  1 18  1  0
  3 19  1  0
  3 20  1  0
  5 21  1  0
  5 22  1  0
  5 23  1  0
  6 24  1  0
  6 25  1  0
  7 26  1  0
  7 27  1  0
  8 28  1  0
  8 29  1  0
 11 30  1  0
 14 31  1  0
 15 32  1  0
M  END
$$$$
