
     RDKit          3D

 48 49  0  0  0  0  0  0  0  0999 V2000
   -7.5286   -1.8764    1.2349 C   0  0  0  0  0  0  0  0  0  0  0  0
   -6.8271   -0.7107    0.6019 C   0  0  0  0  0  0  0  0  0  0  0  0
   -7.5561    0.3151    0.0021 C   0  0  0  0  0  0  0  0  0  0  0  0
   -6.8940    1.3777   -0.6099 C   0  0  0  0  0  0  0  0  0  0  0  0
   -5.4897    1.4318   -0.6439 C   0  0  0  0  0  0  0  0  0  0  0  0
   -4.8420    2.6100   -1.3214 C   0  0  0  0  0  0  0  0  0  0  0  0
   -4.7417    0.3897   -0.0529 C   0  0  0  0  0  0  0  0  0  0  0  0
   -3.3283    0.4542   -0.1027 N   0  0  0  0  0  0  0  0  0  0  0  0
   -2.4107   -0.4473    0.4109 C   0  0  0  0  0  0  0  0  0  0  0  0
   -2.6503   -1.4859    1.0155 O   0  0  0  0  0  0  0  0  0  0  0  0
   -0.9869    0.0004    0.1375 C   0  0  0  0  0  0  0  0  0  0  0  0
    0.0304   -0.9846    0.7006 C   0  0  0  0  0  0  0  0  0  0  0  0
    1.4506   -0.5352    0.4294 C   0  0  0  0  0  0  0  0  0  0  0  0
    1.7137    0.5093   -0.1594 O   0  0  0  0  0  0  0  0  0  0  0  0
    2.3808   -1.4486    0.9276 N   0  0  0  0  0  0  0  0  0  0  0  0
    3.7357   -1.2343    0.9653 N   0  0  0  0  0  0  0  0  0  0  0  0
    4.2782   -0.6520   -0.0603 C   0  0  0  0  0  0  0  0  0  0  0  0
    5.7216   -0.3292   -0.0802 C   0  0  0  0  0  0  0  0  0  0  0  0
    6.2384    0.2892   -1.2241 C   0  0  0  0  0  0  0  0  0  0  0  0
    7.6038    0.6084   -1.2732 C   0  0  0  0  0  0  0  0  0  0  0  0
    8.1542    1.2552   -2.4714 N   0  0  0  0  0  4  0  0  0  0  0  0
    9.3536    1.5645   -2.4612 O   0  0  0  0  0  0  0  0  0  0  0  0
    7.3844    1.4503   -3.4224 O   0  0  0  0  0  1  0  0  0  0  0  0
    8.4493    0.3162   -0.1936 C   0  0  0  0  0  0  0  0  0  0  0  0
    7.9235   -0.2995    0.9435 C   0  0  0  0  0  0  0  0  0  0  0  0
    6.5677   -0.6189    0.9991 C   0  0  0  0  0  0  0  0  0  0  0  0
    6.1329   -1.2174    2.1491 O   0  0  0  0  0  0  0  0  0  0  0  0
   -5.4247   -0.6705    0.5577 C   0  0  0  0  0  0  0  0  0  0  0  0
   -7.6415   -2.6853    0.5065 H   0  0  0  0  0  0  0  0  0  0  0  0
   -6.9646   -2.2493    2.0963 H   0  0  0  0  0  0  0  0  0  0  0  0
   -8.5207   -1.5876    1.5976 H   0  0  0  0  0  0  0  0  0  0  0  0
   -8.6435    0.2952    0.0077 H   0  0  0  0  0  0  0  0  0  0  0  0
   -7.4870    2.1681   -1.0656 H   0  0  0  0  0  0  0  0  0  0  0  0
   -4.2141    3.1586   -0.6119 H   0  0  0  0  0  0  0  0  0  0  0  0
   -5.5861    3.3136   -1.7100 H   0  0  0  0  0  0  0  0  0  0  0  0
   -4.2352    2.2746   -2.1687 H   0  0  0  0  0  0  0  0  0  0  0  0
   -2.9382    1.2615   -0.5699 H   0  0  0  0  0  0  0  0  0  0  0  0
   -0.8420    0.9900    0.5878 H   0  0  0  0  0  0  0  0  0  0  0  0
   -0.8557    0.0981   -0.9470 H   0  0  0  0  0  0  0  0  0  0  0  0
   -0.1120   -1.9744    0.2503 H   0  0  0  0  0  0  0  0  0  0  0  0
   -0.1008   -1.0827    1.7850 H   0  0  0  0  0  0  0  0  0  0  0  0
    2.0512   -2.1016    1.6351 H   0  0  0  0  0  0  0  0  0  0  0  0
    3.7090   -0.3954   -0.9707 H   0  0  0  0  0  0  0  0  0  0  0  0
    5.5832    0.5208   -2.0616 H   0  0  0  0  0  0  0  0  0  0  0  0
    9.5100    0.5592   -0.2204 H   0  0  0  0  0  0  0  0  0  0  0  0
    8.5682   -0.5303    1.7888 H   0  0  0  0  0  0  0  0  0  0  0  0
    5.1663   -1.3680    2.0567 H   0  0  0  0  0  0  0  0  0  0  0  0
   -4.8851   -1.4938    1.0156 H   0  0  0  0  0  0  0  0  0  0  0  0
  1  2  1  0
  2  3  2  0
  3  4  1  0
  4  5  2  0
  5  6  1  0
  5  7  1  0
  7  8  1  0
  8  9  1  0
  9 10  2  0
  9 11  1  0
 11 12  1  0
 12 13  1  0
 13 14  2  0
 13 15  1  0
 15 16  1  0
 16 17  2  3
 17 18  1  0
 18 19  2  0
 19 20  1  0
 20 21  1  0
 21 22  2  0
 21 23  1  0
 20 24  2  0
 24 25  1  0
 25 26  2  0
 26 27  1  0
  7 28  2  0
 28  2  1  0
 26 18  1  0
  1 29  1  0
  1 30  1  0
  1 31  1  0
  3 32  1  0
  4 33  1  0
  6 34  1  0
  6 35  1  0
  6 36  1  0
  8 37  1  0
 11 38  1  0
 11 39  1  0
 12 40  1  0
 12 41  1  0
 15 42  1  0
 17 43  1  0
 19 44  1  0
 24 45  1  0
 25 46  1  0
 27 47  1  0
 28 48  1  0
M  CHG  2  21   1  23  -1
M  END
$$$$
