
     RDKit          3D

 51 55  0  0  0  0  0  0  0  0999 V2000
    1.7130    2.5134   -1.5458 O   0  0  0  0  0  0  0  0  0  0  0  0
    1.2291    2.1517   -0.4759 C   0  0  0  0  0  0  0  0  0  0  0  0
   -0.1513    2.6519   -0.0322 C   0  0  0  0  0  0  0  0  0  0  0  0
   -1.1852    1.6181   -0.1578 N   0  0  0  0  0  0  0  0  0  0  0  0
   -1.2513    0.6440    0.8321 C   0  0  0  0  0  0  0  0  0  0  0  0
   -0.5158    0.6710    1.8246 O   0  0  0  0  0  0  0  0  0  0  0  0
   -2.1884   -0.5174    0.6145 C   0  0  0  0  0  0  0  0  0  0  0  0
   -3.5845   -0.2003    1.1212 C   0  0  0  0  0  0  0  0  0  0  0  0
   -4.5408   -1.3139    0.8338 C   0  0  0  0  0  0  0  0  0  0  0  0
   -5.4478   -2.0016    1.6159 C   0  0  0  0  0  0  0  0  0  0  0  0
   -6.0674   -2.9527    0.7699 C   0  0  0  0  0  0  0  0  0  0  0  0
   -5.5023   -2.7869   -0.4720 C   0  0  0  0  0  0  0  0  0  0  0  0
   -4.5742   -1.7975   -0.4436 O   0  0  0  0  0  0  0  0  0  0  0  0
   -4.2879    1.3848    0.5273 S   0  0  0  0  0  0  0  0  0  0  0  0
   -3.5003    1.5288   -1.0752 C   0  0  0  0  0  0  0  0  0  0  0  0
   -4.3563    1.6188   -2.1834 C   0  0  0  0  0  0  0  0  0  0  0  0
   -3.8505    1.8863   -3.4543 C   0  0  0  0  0  0  0  0  0  0  0  0
   -2.4864    2.0897   -3.6255 C   0  0  0  0  0  0  0  0  0  0  0  0
   -1.6240    2.0121   -2.5295 C   0  0  0  0  0  0  0  0  0  0  0  0
   -2.1096    1.7123   -1.2457 C   0  0  0  0  0  0  0  0  0  0  0  0
    1.8066    1.2849    0.4365 N   0  0  0  0  0  0  0  0  0  0  0  0
    3.0596    0.6477    0.3565 C   0  0  0  0  0  0  0  0  0  0  0  0
    3.9780    0.8570   -0.6754 C   0  0  0  0  0  0  0  0  0  0  0  0
    5.2028    0.1795   -0.6842 C   0  0  0  0  0  0  0  0  0  0  0  0
    5.5145   -0.7113    0.3378 C   0  0  0  0  0  0  0  0  0  0  0  0
    4.6150   -0.9042    1.3882 C   0  0  0  0  0  0  0  0  0  0  0  0
    3.3882   -0.2395    1.3901 C   0  0  0  0  0  0  0  0  0  0  0  0
    4.8660   -1.7385    2.4485 O   0  0  0  0  0  0  0  0  0  0  0  0
    6.2539   -2.0858    2.5198 C   0  0  0  0  0  0  0  0  0  0  0  0
    6.7818   -2.4706    1.1477 C   0  0  0  0  0  0  0  0  0  0  0  0
    6.7219   -1.3549    0.2520 O   0  0  0  0  0  0  0  0  0  0  0  0
   -0.4170    3.5440   -0.6112 H   0  0  0  0  0  0  0  0  0  0  0  0
   -0.0857    2.9740    1.0147 H   0  0  0  0  0  0  0  0  0  0  0  0
   -2.1663   -0.8260   -0.4378 H   0  0  0  0  0  0  0  0  0  0  0  0
   -1.7819   -1.3789    1.1619 H   0  0  0  0  0  0  0  0  0  0  0  0
   -3.5286   -0.0851    2.2115 H   0  0  0  0  0  0  0  0  0  0  0  0
   -5.6407   -1.8325    2.6663 H   0  0  0  0  0  0  0  0  0  0  0  0
   -6.8339   -3.6686    1.0309 H   0  0  0  0  0  0  0  0  0  0  0  0
   -5.6438   -3.2673   -1.4301 H   0  0  0  0  0  0  0  0  0  0  0  0
   -5.4307    1.4948   -2.0605 H   0  0  0  0  0  0  0  0  0  0  0  0
   -4.5237    1.9503   -4.3055 H   0  0  0  0  0  0  0  0  0  0  0  0
   -2.0870    2.3053   -4.6140 H   0  0  0  0  0  0  0  0  0  0  0  0
   -0.5612    2.1532   -2.7121 H   0  0  0  0  0  0  0  0  0  0  0  0
    1.2271    1.0356    1.2411 H   0  0  0  0  0  0  0  0  0  0  0  0
    3.7731    1.5411   -1.4928 H   0  0  0  0  0  0  0  0  0  0  0  0
    5.9053    0.3436   -1.4966 H   0  0  0  0  0  0  0  0  0  0  0  0
    2.6987   -0.4168    2.2114 H   0  0  0  0  0  0  0  0  0  0  0  0
    6.8053   -1.2347    2.9384 H   0  0  0  0  0  0  0  0  0  0  0  0
    6.3494   -2.9281    3.2122 H   0  0  0  0  0  0  0  0  0  0  0  0
    6.2068   -3.2978    0.7134 H   0  0  0  0  0  0  0  0  0  0  0  0
    7.8284   -2.7829    1.2187 H   0  0  0  0  0  0  0  0  0  0  0  0
  1  2  2  0
  2  3  1  0
  3  4  1  0
  4  5  1  0
  5  6  2  0
  5  7  1  0
  7  8  1  0
  8  9  1  0
  9 10  2  0
 10 11  1  0
 11 12  2  0
 12 13  1  0
  8 14  1  0
 14 15  1  0
 15 16  2  0
 16 17  1  0
 17 18  2  0
 18 19  1  0
 19 20  2  0
  2 21  1  0
 21 22  1  0
 22 23  2  0
 23 24  1  0
 24 25  2  0
 25 26  1  0
 26 27  2  0
 26 28  1  0
 28 29  1  0
 29 30  1  0
 30 31  1  0
 20  4  1  0
 27 22  1  0
 13  9  1  0
 20 15  1  0
 31 25  1  0
  3 32  1  0
  3 33  1  0
  7 34  1  0
  7 35  1  0
  8 36  1  0
 10 37  1  0
 11 38  1  0
 12 39  1  0
 16 40  1  0
 17 41  1  0
 18 42  1  0
 19 43  1  0
 21 44  1  0
 23 45  1  0
 24 46  1  0
 27 47  1  0
 29 48  1  0
 29 49  1  0
 30 50  1  0
 30 51  1  0
M  END
$$$$
