
     RDKit          3D

 41 44  0  0  0  0  0  0  0  0999 V2000
    0.5623   -2.2948    0.0419 O   0  0  0  0  0  0  0  0  0  0  0  0
    0.3561   -1.2952    0.7255 C   0  0  0  0  0  0  0  0  0  0  0  0
   -1.0046   -1.0723    1.3977 C   0  0  0  0  0  0  0  0  0  0  0  0
   -1.7970   -0.0366    0.7238 N   0  0  0  0  0  0  0  0  0  0  0  0
   -1.4800    1.2918    0.9867 C   0  0  0  0  0  0  0  0  0  0  0  0
   -0.5971    1.6059    1.7923 O   0  0  0  0  0  0  0  0  0  0  0  0
   -2.1779    2.3565    0.1738 C   0  0  0  0  0  0  0  0  0  0  0  0
   -3.5127    2.7475    0.7673 C   0  0  0  0  0  0  0  0  0  0  0  0
   -4.6244    1.3727    1.1885 S   0  0  0  0  0  0  0  0  0  0  0  0
   -4.1601    0.1634   -0.0487 C   0  0  0  0  0  0  0  0  0  0  0  0
   -5.1893   -0.2881   -0.8898 C   0  0  0  0  0  0  0  0  0  0  0  0
   -4.9712   -1.3327   -1.7864 C   0  0  0  0  0  0  0  0  0  0  0  0
   -3.7283   -1.9522   -1.8342 C   0  0  0  0  0  0  0  0  0  0  0  0
   -2.6990   -1.5216   -0.9939 C   0  0  0  0  0  0  0  0  0  0  0  0
   -2.8885   -0.4509   -0.1036 C   0  0  0  0  0  0  0  0  0  0  0  0
    1.2534   -0.2702    0.9737 N   0  0  0  0  0  0  0  0  0  0  0  0
    2.5822   -0.1519    0.5235 C   0  0  0  0  0  0  0  0  0  0  0  0
    3.2628    1.0383    0.8675 C   0  0  0  0  0  0  0  0  0  0  0  0
    4.5869    1.2572    0.4716 C   0  0  0  0  0  0  0  0  0  0  0  0
    5.2026    0.2708   -0.2634 C   0  0  0  0  0  0  0  0  0  0  0  0
    4.5488   -0.8901   -0.6004 C   0  0  0  0  0  0  0  0  0  0  0  0
    3.2420   -1.1324   -0.2235 C   0  0  0  0  0  0  0  0  0  0  0  0
    5.3342   -1.7327   -1.3255 O   0  0  0  0  0  0  0  0  0  0  0  0
    6.5546   -0.9687   -1.4034 C   0  0  0  0  0  0  0  0  0  0  0  0
    6.4776    0.3065   -0.7328 O   0  0  0  0  0  0  0  0  0  0  0  0
   -1.5510   -2.0219    1.4342 H   0  0  0  0  0  0  0  0  0  0  0  0
   -0.8341   -0.7767    2.4406 H   0  0  0  0  0  0  0  0  0  0  0  0
   -2.2729    2.0362   -0.8702 H   0  0  0  0  0  0  0  0  0  0  0  0
   -1.5238    3.2370    0.1406 H   0  0  0  0  0  0  0  0  0  0  0  0
   -3.3540    3.3173    1.6896 H   0  0  0  0  0  0  0  0  0  0  0  0
   -4.0387    3.4097    0.0713 H   0  0  0  0  0  0  0  0  0  0  0  0
   -6.1804    0.1586   -0.8373 H   0  0  0  0  0  0  0  0  0  0  0  0
   -5.7764   -1.6733   -2.4327 H   0  0  0  0  0  0  0  0  0  0  0  0
   -3.5540   -2.7734   -2.5258 H   0  0  0  0  0  0  0  0  0  0  0  0
   -1.7365   -2.0208   -1.0795 H   0  0  0  0  0  0  0  0  0  0  0  0
    0.8840    0.5231    1.5025 H   0  0  0  0  0  0  0  0  0  0  0  0
    2.7611    1.8092    1.4494 H   0  0  0  0  0  0  0  0  0  0  0  0
    5.1099    2.1696    0.7339 H   0  0  0  0  0  0  0  0  0  0  0  0
    2.7761   -2.0655   -0.5132 H   0  0  0  0  0  0  0  0  0  0  0  0
    6.7932   -0.7956   -2.4591 H   0  0  0  0  0  0  0  0  0  0  0  0
    7.3641   -1.5536   -0.9516 H   0  0  0  0  0  0  0  0  0  0  0  0
  1  2  2  0
  2  3  1  0
  3  4  1  0
  4  5  1  0
  5  6  2  0
  5  7  1  0
  7  8  1  0
  8  9  1  0
  9 10  1  0
 10 11  2  0
 11 12  1  0
 12 13  2  0
 13 14  1  0
 14 15  2  0
  2 16  1  0
 16 17  1  0
 17 18  2  0
 18 19  1  0
 19 20  2  0
 20 21  1  0
 21 22  2  0
 21 23  1  0
 23 24  1  0
 24 25  1  0
 15  4  1  0
 22 17  1  0
 15 10  1  0
 25 20  1  0
  3 26  1  0
  3 27  1  0
  7 28  1  0
  7 29  1  0
  8 30  1  0
  8 31  1  0
 11 32  1  0
 12 33  1  0
 13 34  1  0
 14 35  1  0
 16 36  1  0
 18 37  1  0
 19 38  1  0
 22 39  1  0
 24 40  1  0
 24 41  1  0
M  END
$$$$
