
     RDKit          3D

 46 49  0  0  0  0  0  0  0  0999 V2000
   -2.9057    5.4469    0.4763 N   0  0  0  0  0  0  0  0  0  0  0  0
   -3.6857    4.3508    0.5385 C   0  0  0  0  0  0  0  0  0  0  0  0
   -4.9965    4.3767    0.7758 N   0  0  0  0  0  0  0  0  0  0  0  0
   -5.4072    3.0486    0.7387 O   0  0  0  0  0  0  0  0  0  0  0  0
   -4.3373    2.1957    0.4774 N   0  0  0  0  0  0  0  0  0  0  0  0
   -3.2876    3.0101    0.3681 C   0  0  0  0  0  0  0  0  0  0  0  0
   -1.9838    2.5088    0.1145 N   0  0  0  0  0  0  0  0  0  0  0  0
   -0.9118    3.3523    0.0126 N   0  0  0  0  0  0  0  0  0  0  0  0
    0.1785    2.6480   -0.2288 N   0  0  0  0  0  0  0  0  0  0  0  0
   -0.1679    1.3241   -0.2781 C   0  0  0  0  0  0  0  0  0  0  0  0
    0.8174    0.2725   -0.5259 C   0  0  0  0  0  0  0  0  0  0  0  0
    0.5130   -0.9146   -0.5925 O   0  0  0  0  0  0  0  0  0  0  0  0
    2.0974    0.7827   -0.6873 N   0  0  0  0  0  0  0  0  0  0  0  0
    3.1502   -0.0411   -0.9536 N   0  0  0  0  0  0  0  0  0  0  0  0
    4.2897    0.5514   -1.1209 C   0  0  0  0  0  0  0  0  0  0  0  0
    5.5235   -0.2031   -1.4181 C   0  0  0  0  0  0  0  0  0  0  0  0
    5.5104   -1.5991   -1.4850 C   0  0  0  0  0  0  0  0  0  0  0  0
    6.6888   -2.2901   -1.7699 C   0  0  0  0  0  0  0  0  0  0  0  0
    7.8750   -1.5879   -1.9886 C   0  0  0  0  0  0  0  0  0  0  0  0
    7.8872   -0.1943   -1.9188 C   0  0  0  0  0  0  0  0  0  0  0  0
    6.7115    0.5021   -1.6322 C   0  0  0  0  0  0  0  0  0  0  0  0
   -1.5337    1.2017   -0.0631 C   0  0  0  0  0  0  0  0  0  0  0  0
   -2.3822   -0.0166   -0.0079 C   0  0  0  0  0  0  0  0  0  0  0  0
   -2.5711   -0.5632    1.7222 S   0  0  0  0  0  0  0  0  0  0  0  0
   -3.5443   -2.0249    1.4269 C   0  0  0  0  0  0  0  0  0  0  0  0
   -2.9409   -3.1938    0.9527 C   0  0  0  0  0  0  0  0  0  0  0  0
   -3.7123   -4.3312    0.7075 C   0  0  0  0  0  0  0  0  0  0  0  0
   -5.0895   -4.3033    0.9341 C   0  0  0  0  0  0  0  0  0  0  0  0
   -5.6929   -3.1441    1.4217 C   0  0  0  0  0  0  0  0  0  0  0  0
   -4.9216   -2.0064    1.6690 C   0  0  0  0  0  0  0  0  0  0  0  0
   -3.2678    6.3241    0.8359 H   0  0  0  0  0  0  0  0  0  0  0  0
   -1.8901    5.3691    0.4999 H   0  0  0  0  0  0  0  0  0  0  0  0
    2.2363    1.7866   -0.6193 H   0  0  0  0  0  0  0  0  0  0  0  0
    4.3870    1.6500   -1.0526 H   0  0  0  0  0  0  0  0  0  0  0  0
    4.5884   -2.1522   -1.3157 H   0  0  0  0  0  0  0  0  0  0  0  0
    6.6805   -3.3761   -1.8210 H   0  0  0  0  0  0  0  0  0  0  0  0
    8.7913   -2.1293   -2.2122 H   0  0  0  0  0  0  0  0  0  0  0  0
    8.8145    0.3479   -2.0894 H   0  0  0  0  0  0  0  0  0  0  0  0
    6.7355    1.5870   -1.5805 H   0  0  0  0  0  0  0  0  0  0  0  0
   -1.9222   -0.8246   -0.5844 H   0  0  0  0  0  0  0  0  0  0  0  0
   -3.3609    0.1438   -0.4679 H   0  0  0  0  0  0  0  0  0  0  0  0
   -1.8669   -3.2285    0.7728 H   0  0  0  0  0  0  0  0  0  0  0  0
   -3.2384   -5.2371    0.3368 H   0  0  0  0  0  0  0  0  0  0  0  0
   -5.6906   -5.1884    0.7408 H   0  0  0  0  0  0  0  0  0  0  0  0
   -6.7634   -3.1235    1.6079 H   0  0  0  0  0  0  0  0  0  0  0  0
   -5.4034   -1.1077    2.0478 H   0  0  0  0  0  0  0  0  0  0  0  0
  1  2  1  0
  2  3  2  0
  3  4  1  0
  4  5  1  0
  5  6  2  0
  6  7  1  0
  7  8  1  0
  8  9  2  0
  9 10  1  0
 10 11  1  0
 11 12  2  0
 11 13  1  0
 13 14  1  0
 14 15  2  3
 15 16  1  0
 16 17  2  0
 17 18  1  0
 18 19  2  0
 19 20  1  0
 20 21  2  0
 10 22  2  0
 22 23  1  0
 23 24  1  0
 24 25  1  0
 25 26  2  0
 26 27  1  0
 27 28  2  0
 28 29  1  0
 29 30  2  0
  6  2  1  0
 22  7  1  0
 30 25  1  0
 21 16  1  0
  1 31  1  0
  1 32  1  0
 13 33  1  0
 15 34  1  0
 17 35  1  0
 18 36  1  0
 19 37  1  0
 20 38  1  0
 21 39  1  0
 23 40  1  0
 23 41  1  0
 26 42  1  0
 27 43  1  0
 28 44  1  0
 29 45  1  0
 30 46  1  0
M  END
$$$$
