
     RDKit          3D

 34 36  0  0  0  0  0  0  0  0999 V2000
    5.2162    0.5110   -1.8655 C   0  0  0  0  0  0  0  0  0  0  0  0
    4.6266    0.6315   -0.5535 N   0  0  0  0  0  0  0  0  0  0  0  0
    5.2674    0.9423    0.6053 C   0  0  0  0  0  0  0  0  0  0  0  0
    4.2935    0.9416    1.5707 C   0  0  0  0  0  0  0  0  0  0  0  0
    4.5581    1.3052    3.3872 Br  0  0  0  0  0  0  0  0  0  0  0  0
    3.0797    0.6189    0.9173 C   0  0  0  0  0  0  0  0  0  0  0  0
    1.7171    0.4834    1.4744 C   0  0  0  0  0  0  0  0  0  0  0  0
    1.4900    0.6334    2.6688 O   0  0  0  0  0  0  0  0  0  0  0  0
    0.8004    0.1731    0.4854 N   0  0  0  0  0  0  0  0  0  0  0  0
   -0.5657   -0.0176    0.6019 C   0  0  0  0  0  0  0  0  0  0  0  0
   -1.3497    0.1435    2.1182 S   0  0  0  0  0  0  0  0  0  0  0  0
   -2.8279   -0.1779    1.4251 C   0  0  0  0  0  0  0  0  0  0  0  0
   -2.7752   -0.4215    0.0810 C   0  0  0  0  0  0  0  0  0  0  0  0
   -1.4452   -0.3500   -0.4358 C   0  0  0  0  0  0  0  0  0  0  0  0
   -0.9929   -0.5538   -1.8100 C   0  0  0  0  0  0  0  0  0  0  0  0
   -1.8697   -1.1692   -2.6573 N   0  0  0  0  0  0  0  0  0  0  0  0
    0.1242   -0.2401   -2.2111 O   0  0  0  0  0  0  0  0  0  0  0  0
   -4.1425   -0.6692   -0.4512 C   0  0  0  0  0  0  0  0  0  0  0  0
   -5.0566   -0.1857    0.7170 C   0  0  0  0  0  0  0  0  0  0  0  0
   -4.1879   -0.2270    2.0081 C   0  0  0  0  0  0  0  0  0  0  0  0
    3.3058    0.4248   -0.4044 N   0  0  0  0  0  0  0  0  0  0  0  0
    4.7387    1.2393   -2.5257 H   0  0  0  0  0  0  0  0  0  0  0  0
    6.2887    0.7109   -1.8022 H   0  0  0  0  0  0  0  0  0  0  0  0
    5.0465   -0.5063   -2.2269 H   0  0  0  0  0  0  0  0  0  0  0  0
    6.3300    1.1345    0.6478 H   0  0  0  0  0  0  0  0  0  0  0  0
    1.1979    0.0952   -0.4553 H   0  0  0  0  0  0  0  0  0  0  0  0
   -1.4900   -1.4373   -3.5552 H   0  0  0  0  0  0  0  0  0  0  0  0
   -2.6449   -1.7048   -2.3000 H   0  0  0  0  0  0  0  0  0  0  0  0
   -4.2948   -1.7385   -0.6322 H   0  0  0  0  0  0  0  0  0  0  0  0
   -4.3506   -0.1096   -1.3673 H   0  0  0  0  0  0  0  0  0  0  0  0
   -5.3613    0.8517    0.5245 H   0  0  0  0  0  0  0  0  0  0  0  0
   -5.9681   -0.7844    0.8078 H   0  0  0  0  0  0  0  0  0  0  0  0
   -4.3461   -1.1658    2.5487 H   0  0  0  0  0  0  0  0  0  0  0  0
   -4.4118    0.6184    2.6642 H   0  0  0  0  0  0  0  0  0  0  0  0
  1  2  1  0
  2  3  1  0
  3  4  2  0
  4  5  1  0
  4  6  1  0
  6  7  1  0
  7  8  2  0
  7  9  1  0
  9 10  1  0
 10 11  1  0
 11 12  1  0
 12 13  2  0
 13 14  1  0
 14 15  1  0
 15 16  1  0
 15 17  2  0
 13 18  1  0
 18 19  1  0
 19 20  1  0
  6 21  2  0
 21  2  1  0
 14 10  2  0
 20 12  1  0
  1 22  1  0
  1 23  1  0
  1 24  1  0
  3 25  1  0
  9 26  1  0
 16 27  1  0
 16 28  1  0
 18 29  1  0
 18 30  1  0
 19 31  1  0
 19 32  1  0
 20 33  1  0
 20 34  1  0
M  END
$$$$
