
     RDKit          3D

 40 42  0  0  0  0  0  0  0  0999 V2000
   -6.8778    0.1660   -1.8850 C   0  0  0  0  0  0  0  0  0  0  0  0
   -6.4822   -0.7164   -0.3925 S   0  0  0  0  0  6  0  0  0  0  0  0
   -7.6974   -0.8272    0.3860 O   0  0  0  0  0  0  0  0  0  0  0  0
   -5.6890   -1.8742   -0.7356 O   0  0  0  0  0  0  0  0  0  0  0  0
   -5.5366    0.4392    0.4135 N   0  0  0  0  0  0  0  0  0  0  0  0
   -4.1486    0.1488    0.5667 C   0  0  0  0  0  0  0  0  0  0  0  0
   -3.6813   -0.3540    1.7811 C   0  0  0  0  0  0  0  0  0  0  0  0
   -2.3282   -0.6706    1.9277 C   0  0  0  0  0  0  0  0  0  0  0  0
   -1.4397   -0.4863    0.8601 C   0  0  0  0  0  0  0  0  0  0  0  0
   -0.0036   -0.8380    1.0621 C   0  0  0  0  0  0  0  0  0  0  0  0
    0.2656   -1.7518    1.8320 O   0  0  0  0  0  0  0  0  0  0  0  0
    0.8946   -0.0435    0.3721 N   0  0  0  0  0  0  0  0  0  0  0  0
    2.3002   -0.1695    0.3408 C   0  0  0  0  0  0  0  0  0  0  0  0
    3.0046   -1.2116    0.9497 C   0  0  0  0  0  0  0  0  0  0  0  0
    4.4013   -1.2662    0.8742 C   0  0  0  0  0  0  0  0  0  0  0  0
    5.1018   -0.2790    0.1895 C   0  0  0  0  0  0  0  0  0  0  0  0
    4.4048    0.7485   -0.4488 C   0  0  0  0  0  0  0  0  0  0  0  0
    3.0133    0.8108   -0.3623 C   0  0  0  0  0  0  0  0  0  0  0  0
    5.0209    1.7380   -1.1733 O   0  0  0  0  0  0  0  0  0  0  0  0
    6.3782    1.3928   -1.4764 C   0  0  0  0  0  0  0  0  0  0  0  0
    7.0801    0.8396   -0.2471 C   0  0  0  0  0  0  0  0  0  0  0  0
    6.4682   -0.3841    0.1754 O   0  0  0  0  0  0  0  0  0  0  0  0
   -1.9223   -0.0134   -0.3679 C   0  0  0  0  0  0  0  0  0  0  0  0
   -3.2768    0.3042   -0.5115 C   0  0  0  0  0  0  0  0  0  0  0  0
   -7.5499   -0.4595   -2.4766 H   0  0  0  0  0  0  0  0  0  0  0  0
   -5.9600    0.3532   -2.4443 H   0  0  0  0  0  0  0  0  0  0  0  0
   -7.3771    1.1009   -1.6238 H   0  0  0  0  0  0  0  0  0  0  0  0
   -6.0172    0.6934    1.2798 H   0  0  0  0  0  0  0  0  0  0  0  0
   -4.3577   -0.5187    2.6154 H   0  0  0  0  0  0  0  0  0  0  0  0
   -1.9679   -1.0696    2.8745 H   0  0  0  0  0  0  0  0  0  0  0  0
    0.5206    0.7618   -0.1116 H   0  0  0  0  0  0  0  0  0  0  0  0
    2.4970   -2.0024    1.4937 H   0  0  0  0  0  0  0  0  0  0  0  0
    4.9368   -2.0771    1.3605 H   0  0  0  0  0  0  0  0  0  0  0  0
    2.4996    1.6294   -0.8577 H   0  0  0  0  0  0  0  0  0  0  0  0
    6.8813    2.3009   -1.8230 H   0  0  0  0  0  0  0  0  0  0  0  0
    6.3773    0.6670   -2.2991 H   0  0  0  0  0  0  0  0  0  0  0  0
    7.0497    1.5513    0.5873 H   0  0  0  0  0  0  0  0  0  0  0  0
    8.1289    0.6249   -0.4745 H   0  0  0  0  0  0  0  0  0  0  0  0
   -1.2692    0.0786   -1.2314 H   0  0  0  0  0  0  0  0  0  0  0  0
   -3.6422    0.6636   -1.4687 H   0  0  0  0  0  0  0  0  0  0  0  0
  1  2  1  0
  2  3  2  0
  2  4  2  0
  2  5  1  0
  5  6  1  0
  6  7  2  0
  7  8  1  0
  8  9  2  0
  9 10  1  0
 10 11  2  0
 10 12  1  0
 12 13  1  0
 13 14  2  0
 14 15  1  0
 15 16  2  0
 16 17  1  0
 17 18  2  0
 17 19  1  0
 19 20  1  0
 20 21  1  0
 21 22  1  0
  9 23  1  0
 23 24  2  0
 24  6  1  0
 18 13  1  0
 22 16  1  0
  1 25  1  0
  1 26  1  0
  1 27  1  0
  5 28  1  0
  7 29  1  0
  8 30  1  0
 12 31  1  0
 14 32  1  0
 15 33  1  0
 18 34  1  0
 20 35  1  0
 20 36  1  0
 21 37  1  0
 21 38  1  0
 23 39  1  0
 24 40  1  0
M  END
$$$$
