
     RDKit          3D

 41 44  0  0  0  0  0  0  0  0999 V2000
   -0.5220    1.0046   -2.4813 O   0  0  0  0  0  0  0  0  0  0  0  0
   -1.8853    0.8530   -2.0227 S   0  0  0  0  0  6  0  0  0  0  0  0
   -2.9987    0.9789   -2.9408 O   0  0  0  0  0  0  0  0  0  0  0  0
   -2.0744   -0.6525   -1.2737 N   0  0  0  0  0  0  0  0  0  0  0  0
   -0.9493   -1.2019   -0.5825 C   0  0  0  0  0  0  0  0  0  0  0  0
   -0.7650   -0.8119    0.7464 C   0  0  0  0  0  0  0  0  0  0  0  0
    0.3452   -1.2467    1.4699 C   0  0  0  0  0  0  0  0  0  0  0  0
    0.4849   -0.6976    3.1656 S   0  0  0  0  0  0  0  0  0  0  0  0
    1.9013    0.3081    3.0736 C   0  0  0  0  0  0  0  0  0  0  0  0
    3.1403   -0.2148    2.8049 N   0  0  0  0  0  0  0  0  0  0  0  0
    3.9120    0.8475    2.8175 C   0  0  0  0  0  0  0  0  0  0  0  0
    3.1638    1.9506    3.0867 N   0  0  0  0  0  0  0  0  0  0  0  0
    1.8705    1.6304    3.2551 N   0  0  0  0  0  0  0  0  0  0  0  0
    1.2591   -2.1093    0.8462 C   0  0  0  0  0  0  0  0  0  0  0  0
    2.3684   -2.5680    1.5209 O   0  0  0  0  0  0  0  0  0  0  0  0
    1.0823   -2.5384   -0.4903 C   0  0  0  0  0  0  0  0  0  0  0  0
    1.9945   -3.4137   -1.1185 C   0  0  0  0  0  0  0  0  0  0  0  0
    1.8305   -3.8139   -2.4439 C   0  0  0  0  0  0  0  0  0  0  0  0
    0.7508   -3.3421   -3.1751 C   0  0  0  0  0  0  0  0  0  0  0  0
   -0.1677   -2.4784   -2.5765 C   0  0  0  0  0  0  0  0  0  0  0  0
   -0.0311   -2.0654   -1.2290 C   0  0  0  0  0  0  0  0  0  0  0  0
   -2.1665    1.9857   -0.6854 C   0  0  0  0  0  0  0  0  0  0  0  0
   -1.0770    2.5653   -0.0271 C   0  0  0  0  0  0  0  0  0  0  0  0
   -1.3040    3.4393    1.0353 C   0  0  0  0  0  0  0  0  0  0  0  0
   -2.6104    3.7470    1.4193 C   0  0  0  0  0  0  0  0  0  0  0  0
   -3.6949    3.1844    0.7432 C   0  0  0  0  0  0  0  0  0  0  0  0
   -3.4768    2.3020   -0.3148 C   0  0  0  0  0  0  0  0  0  0  0  0
   -2.6352   -1.2839   -1.8435 H   0  0  0  0  0  0  0  0  0  0  0  0
   -1.4996   -0.1659    1.2222 H   0  0  0  0  0  0  0  0  0  0  0  0
    4.9788    0.8793    2.6456 H   0  0  0  0  0  0  0  0  0  0  0  0
    3.4542    2.9190    3.1684 H   0  0  0  0  0  0  0  0  0  0  0  0
    2.6205   -1.8936    2.1858 H   0  0  0  0  0  0  0  0  0  0  0  0
    2.8541   -3.7891   -0.5649 H   0  0  0  0  0  0  0  0  0  0  0  0
    2.5518   -4.4855   -2.9015 H   0  0  0  0  0  0  0  0  0  0  0  0
    0.6231   -3.6384   -4.2129 H   0  0  0  0  0  0  0  0  0  0  0  0
   -0.9910   -2.1178   -3.1881 H   0  0  0  0  0  0  0  0  0  0  0  0
   -0.0569    2.3283   -0.3213 H   0  0  0  0  0  0  0  0  0  0  0  0
   -0.4629    3.8766    1.5681 H   0  0  0  0  0  0  0  0  0  0  0  0
   -2.7837    4.4294    2.2483 H   0  0  0  0  0  0  0  0  0  0  0  0
   -4.7099    3.4337    1.0432 H   0  0  0  0  0  0  0  0  0  0  0  0
   -4.3239    1.8655   -0.8387 H   0  0  0  0  0  0  0  0  0  0  0  0
  1  2  2  0
  2  3  2  0
  2  4  1  0
  4  5  1  0
  5  6  2  0
  6  7  1  0
  7  8  1  0
  8  9  1  0
  9 10  1  0
 10 11  2  0
 11 12  1  0
 12 13  1  0
  7 14  2  0
 14 15  1  0
 14 16  1  0
 16 17  2  0
 17 18  1  0
 18 19  2  0
 19 20  1  0
 20 21  2  0
  2 22  1  0
 22 23  2  0
 23 24  1  0
 24 25  2  0
 25 26  1  0
 26 27  2  0
 21  5  1  0
 27 22  1  0
 13  9  2  0
 21 16  1  0
  4 28  1  0
  6 29  1  0
 11 30  1  0
 12 31  1  0
 15 32  1  0
 17 33  1  0
 18 34  1  0
 19 35  1  0
 20 36  1  0
 23 37  1  0
 24 38  1  0
 25 39  1  0
 26 40  1  0
 27 41  1  0
M  END
$$$$
