
     RDKit          3D

 50 53  0  0  0  0  0  0  0  0999 V2000
   -1.5137    5.3334   -0.0861 C   0  0  0  0  0  0  0  0  0  0  0  0
   -1.9940    3.9770    0.4064 C   0  0  0  0  0  0  0  0  0  0  0  0
   -0.9415    3.2529    1.2348 C   0  0  0  0  0  0  0  0  0  0  0  0
    0.1422    3.7859    1.4808 O   0  0  0  0  0  0  0  0  0  0  0  0
   -1.2613    1.9860    1.7103 N   0  0  0  0  0  0  0  0  0  0  0  0
   -2.4942    1.2568    1.3815 C   0  0  0  0  0  0  0  0  0  0  0  0
   -2.3053    0.1419    0.3765 C   0  0  0  0  0  0  0  0  0  0  0  0
   -1.6721    0.3587   -0.8551 C   0  0  0  0  0  0  0  0  0  0  0  0
   -1.4907   -0.6900   -1.7608 C   0  0  0  0  0  0  0  0  0  0  0  0
   -1.9601   -1.9730   -1.4651 C   0  0  0  0  0  0  0  0  0  0  0  0
   -1.7201   -3.1069   -2.4163 C   0  0  0  0  0  0  0  0  0  0  0  0
   -2.5992   -2.1944   -0.2419 C   0  0  0  0  0  0  0  0  0  0  0  0
   -2.7782   -1.1463    0.6650 C   0  0  0  0  0  0  0  0  0  0  0  0
   -0.3092    1.3204    2.6134 C   0  0  0  0  0  0  0  0  0  0  0  0
    0.5190    0.2992    1.8895 C   0  0  0  0  0  0  0  0  0  0  0  0
    1.4270    0.6138    0.9475 C   0  0  0  0  0  0  0  0  0  0  0  0
    2.1641   -0.4256    0.2312 C   0  0  0  0  0  0  0  0  0  0  0  0
    3.0753   -0.1016   -0.7797 C   0  0  0  0  0  0  0  0  0  0  0  0
    3.7140   -1.1428   -1.4206 C   0  0  0  0  0  0  0  0  0  0  0  0
    3.4769   -2.4582   -1.0906 C   0  0  0  0  0  0  0  0  0  0  0  0
    2.5876   -2.8135   -0.0994 C   0  0  0  0  0  0  0  0  0  0  0  0
    1.9275   -1.7773    0.5633 C   0  0  0  0  0  0  0  0  0  0  0  0
    1.0139   -2.0761    1.5796 N   0  0  0  0  0  0  0  0  0  0  0  0
    0.3036   -1.1300    2.2693 C   0  0  0  0  0  0  0  0  0  0  0  0
   -0.4739   -1.4543    3.1635 O   0  0  0  0  0  0  0  0  0  0  0  0
    4.2087   -3.3214   -1.8453 O   0  0  0  0  0  0  0  0  0  0  0  0
    4.9372   -2.4008   -2.6845 C   0  0  0  0  0  0  0  0  0  0  0  0
    4.6234   -1.0169   -2.4241 O   0  0  0  0  0  0  0  0  0  0  0  0
   -2.2953    5.8227   -0.6756 H   0  0  0  0  0  0  0  0  0  0  0  0
   -0.6240    5.2301   -0.7161 H   0  0  0  0  0  0  0  0  0  0  0  0
   -1.2579    5.9893    0.7527 H   0  0  0  0  0  0  0  0  0  0  0  0
   -2.8839    4.1255    1.0273 H   0  0  0  0  0  0  0  0  0  0  0  0
   -2.2592    3.3678   -0.4619 H   0  0  0  0  0  0  0  0  0  0  0  0
   -2.8948    0.8635    2.3239 H   0  0  0  0  0  0  0  0  0  0  0  0
   -3.2609    1.9307    0.9908 H   0  0  0  0  0  0  0  0  0  0  0  0
   -1.2825    1.3394   -1.1129 H   0  0  0  0  0  0  0  0  0  0  0  0
   -0.9701   -0.4983   -2.6964 H   0  0  0  0  0  0  0  0  0  0  0  0
   -0.7498   -3.5692   -2.2093 H   0  0  0  0  0  0  0  0  0  0  0  0
   -2.5017   -3.8683   -2.3232 H   0  0  0  0  0  0  0  0  0  0  0  0
   -1.7315   -2.7552   -3.4533 H   0  0  0  0  0  0  0  0  0  0  0  0
   -2.9554   -3.1880    0.0208 H   0  0  0  0  0  0  0  0  0  0  0  0
   -3.2652   -1.3545    1.6160 H   0  0  0  0  0  0  0  0  0  0  0  0
   -0.8798    0.8984    3.4474 H   0  0  0  0  0  0  0  0  0  0  0  0
    0.3607    2.0607    3.0677 H   0  0  0  0  0  0  0  0  0  0  0  0
    1.6042    1.6493    0.6723 H   0  0  0  0  0  0  0  0  0  0  0  0
    3.2781    0.9256   -1.0612 H   0  0  0  0  0  0  0  0  0  0  0  0
    2.4173   -3.8552    0.1423 H   0  0  0  0  0  0  0  0  0  0  0  0
    0.8309   -3.0357    1.8366 H   0  0  0  0  0  0  0  0  0  0  0  0
    6.0106   -2.5536   -2.5236 H   0  0  0  0  0  0  0  0  0  0  0  0
    4.7034   -2.6220   -3.7322 H   0  0  0  0  0  0  0  0  0  0  0  0
  1  2  1  0
  2  3  1  0
  3  4  2  0
  3  5  1  0
  5  6  1  0
  6  7  1  0
  7  8  2  0
  8  9  1  0
  9 10  2  0
 10 11  1  0
 10 12  1  0
 12 13  2  0
  5 14  1  0
 14 15  1  0
 15 16  2  0
 16 17  1  0
 17 18  2  0
 18 19  1  0
 19 20  2  0
 20 21  1  0
 21 22  2  0
 22 23  1  0
 23 24  1  0
 24 25  2  0
 20 26  1  0
 26 27  1  0
 27 28  1  0
 13  7  1  0
 24 15  1  0
 22 17  1  0
 28 19  1  0
  1 29  1  0
  1 30  1  0
  1 31  1  0
  2 32  1  0
  2 33  1  0
  6 34  1  0
  6 35  1  0
  8 36  1  0
  9 37  1  0
 11 38  1  0
 11 39  1  0
 11 40  1  0
 12 41  1  0
 13 42  1  0
 14 43  1  0
 14 44  1  0
 16 45  1  0
 18 46  1  0
 21 47  1  0
 23 48  1  0
 27 49  1  0
 27 50  1  0
M  END
$$$$
