
     RDKit          3D

 62 67  0  0  0  0  0  0  0  0999 V2000
   -3.5907   -3.9529   -0.3140 C   0  0  0  0  0  0  0  0  0  0  0  0
   -3.4948   -2.6118    0.1448 O   0  0  0  0  0  0  0  0  0  0  0  0
   -3.0591   -2.4121    1.4311 C   0  0  0  0  0  0  0  0  0  0  0  0
   -2.5395   -3.4191    2.2533 C   0  0  0  0  0  0  0  0  0  0  0  0
   -2.0962   -3.1226    3.5457 C   0  0  0  0  0  0  0  0  0  0  0  0
   -2.1629   -1.8192    4.0286 C   0  0  0  0  0  0  0  0  0  0  0  0
   -2.6760   -0.8071    3.2197 C   0  0  0  0  0  0  0  0  0  0  0  0
   -3.1300   -1.0915    1.9213 C   0  0  0  0  0  0  0  0  0  0  0  0
   -3.6561    0.0099    1.1036 C   0  0  0  0  0  0  0  0  0  0  0  0
   -5.3472    0.2477    1.0584 S   0  0  0  0  0  0  0  0  0  0  0  0
   -5.2193    1.6094    0.0158 C   0  0  0  0  0  0  0  0  0  0  0  0
   -6.2908    2.3798   -0.4878 C   0  0  0  0  0  0  0  0  0  0  0  0
   -5.9595    3.4338   -1.3136 C   0  0  0  0  0  0  0  0  0  0  0  0
   -4.6638    3.7292   -1.6375 C   0  0  0  0  0  0  0  0  0  0  0  0
   -3.6009    2.9899   -1.1567 C   0  0  0  0  0  0  0  0  0  0  0  0
   -3.8793    1.8908   -0.2969 C   0  0  0  0  0  0  0  0  0  0  0  0
   -2.9832    0.9538    0.3463 C   0  0  0  0  0  0  0  0  0  0  0  0
   -1.5279    0.9595    0.2502 C   0  0  0  0  0  0  0  0  0  0  0  0
   -0.8620   -0.0315   -0.4782 C   0  0  0  0  0  0  0  0  0  0  0  0
    0.5340   -0.0227   -0.5733 C   0  0  0  0  0  0  0  0  0  0  0  0
    1.2730    0.9795    0.0564 C   0  0  0  0  0  0  0  0  0  0  0  0
    2.6350    1.1040    0.0435 O   0  0  0  0  0  0  0  0  0  0  0  0
    3.3733    0.0892   -0.6442 C   0  0  0  0  0  0  0  0  0  0  0  0
    4.8694    0.4231   -0.5179 C   0  0  0  0  0  0  0  0  0  0  0  0
    5.7575   -0.5091   -1.2345 N   0  0  0  0  0  0  0  0  0  0  0  0
    7.1603   -0.0347   -1.2298 C   0  0  0  0  0  0  0  0  0  0  0  0
    8.0338   -0.7139   -0.1633 C   0  0  0  0  0  0  0  0  0  0  0  0
    8.1037   -2.1385   -0.3137 O   0  0  0  0  0  0  0  0  0  0  0  0
    6.9509   -2.6923   -0.9625 C   0  0  0  0  0  0  0  0  0  0  0  0
    5.6744   -1.8827   -0.6877 C   0  0  0  0  0  0  0  0  0  0  0  0
    0.6043    1.9728    0.7771 C   0  0  0  0  0  0  0  0  0  0  0  0
   -0.7891    1.9670    0.8757 C   0  0  0  0  0  0  0  0  0  0  0  0
   -4.5650    4.8053   -2.4642 O   0  0  0  0  0  0  0  0  0  0  0  0
   -5.9555    5.1514   -2.6257 C   0  0  0  0  0  0  0  0  0  0  0  0
   -6.8478    4.2863   -1.8944 O   0  0  0  0  0  0  0  0  0  0  0  0
   -4.2499   -4.5472    0.3274 H   0  0  0  0  0  0  0  0  0  0  0  0
   -4.0314   -3.9324   -1.3153 H   0  0  0  0  0  0  0  0  0  0  0  0
   -2.5996   -4.4104   -0.3972 H   0  0  0  0  0  0  0  0  0  0  0  0
   -2.4578   -4.4468    1.9161 H   0  0  0  0  0  0  0  0  0  0  0  0
   -1.6936   -3.9129    4.1746 H   0  0  0  0  0  0  0  0  0  0  0  0
   -1.8145   -1.5892    5.0320 H   0  0  0  0  0  0  0  0  0  0  0  0
   -2.7220    0.2100    3.6027 H   0  0  0  0  0  0  0  0  0  0  0  0
   -7.3209    2.1531   -0.2392 H   0  0  0  0  0  0  0  0  0  0  0  0
   -2.5826    3.2425   -1.4339 H   0  0  0  0  0  0  0  0  0  0  0  0
   -1.4268   -0.8180   -0.9748 H   0  0  0  0  0  0  0  0  0  0  0  0
    1.0075   -0.8115   -1.1477 H   0  0  0  0  0  0  0  0  0  0  0  0
    3.1662   -0.8854   -0.1874 H   0  0  0  0  0  0  0  0  0  0  0  0
    3.0943    0.0765   -1.7049 H   0  0  0  0  0  0  0  0  0  0  0  0
    5.0050    1.4353   -0.9224 H   0  0  0  0  0  0  0  0  0  0  0  0
    5.1416    0.4910    0.5441 H   0  0  0  0  0  0  0  0  0  0  0  0
    7.2203    1.0552   -1.1277 H   0  0  0  0  0  0  0  0  0  0  0  0
    7.5777   -0.2709   -2.2169 H   0  0  0  0  0  0  0  0  0  0  0  0
    7.6569   -0.4959    0.8428 H   0  0  0  0  0  0  0  0  0  0  0  0
    9.0577   -0.3300   -0.2164 H   0  0  0  0  0  0  0  0  0  0  0  0
    7.1547   -2.7522   -2.0381 H   0  0  0  0  0  0  0  0  0  0  0  0
    6.8317   -3.7175   -0.5974 H   0  0  0  0  0  0  0  0  0  0  0  0
    4.8174   -2.3964   -1.1364 H   0  0  0  0  0  0  0  0  0  0  0  0
    5.5225   -1.8519    0.3993 H   0  0  0  0  0  0  0  0  0  0  0  0
    1.1740    2.7580    1.2680 H   0  0  0  0  0  0  0  0  0  0  0  0
   -1.2885    2.7476    1.4440 H   0  0  0  0  0  0  0  0  0  0  0  0
   -6.1033    6.1810   -2.2800 H   0  0  0  0  0  0  0  0  0  0  0  0
   -6.2092    5.0981   -3.6907 H   0  0  0  0  0  0  0  0  0  0  0  0
  1  2  1  0
  2  3  1  0
  3  4  2  0
  4  5  1  0
  5  6  2  0
  6  7  1  0
  7  8  2  0
  8  9  1  0
  9 10  1  0
 10 11  1  0
 11 12  2  0
 12 13  1  0
 13 14  2  0
 14 15  1  0
 15 16  2  0
 16 17  1  0
 17 18  1  0
 18 19  2  0
 19 20  1  0
 20 21  2  0
 21 22  1  0
 22 23  1  0
 23 24  1  0
 24 25  1  0
 25 26  1  0
 26 27  1  0
 27 28  1  0
 28 29  1  0
 29 30  1  0
 21 31  1  0
 31 32  2  0
 14 33  1  0
 33 34  1  0
 34 35  1  0
  8  3  1  0
 17  9  2  0
 32 18  1  0
 16 11  1  0
 30 25  1  0
 35 13  1  0
  1 36  1  0
  1 37  1  0
  1 38  1  0
  4 39  1  0
  5 40  1  0
  6 41  1  0
  7 42  1  0
 12 43  1  0
 15 44  1  0
 19 45  1  0
 20 46  1  0
 23 47  1  0
 23 48  1  0
 24 49  1  0
 24 50  1  0
 26 51  1  0
 26 52  1  0
 27 53  1  0
 27 54  1  0
 29 55  1  0
 29 56  1  0
 30 57  1  0
 30 58  1  0
 31 59  1  0
 32 60  1  0
 34 61  1  0
 34 62  1  0
M  END
$$$$
