
     RDKit          3D

 59 62  0  0  0  0  0  0  0  0999 V2000
   -9.3958    2.3907    2.6780 C   0  0  0  0  0  0  0  0  0  0  0  0
   -8.3527    2.1215    1.6331 C   0  0  0  0  0  0  0  0  0  0  0  0
   -7.1666    2.8682    1.6074 C   0  0  0  0  0  0  0  0  0  0  0  0
   -6.1825    2.6000    0.6534 C   0  0  0  0  0  0  0  0  0  0  0  0
   -6.3718    1.5631   -0.2648 C   0  0  0  0  0  0  0  0  0  0  0  0
   -5.3502    1.2624   -1.2926 C   0  0  0  0  0  0  0  0  0  0  0  0
   -5.7017    1.2627   -2.4702 O   0  0  0  0  0  0  0  0  0  0  0  0
   -4.0489    0.9899   -0.8862 N   0  0  0  0  0  0  0  0  0  0  0  0
   -3.0342    0.7699   -1.9172 C   0  0  0  0  0  0  0  0  0  0  0  0
   -1.5974    0.9793   -1.4069 C   0  0  0  0  0  0  0  0  0  0  0  0
   -1.3119    0.1704   -0.2055 N   0  0  0  0  0  0  0  0  0  0  0  0
   -0.0215   -0.2547    0.0675 C   0  0  0  0  0  0  0  0  0  0  0  0
    0.2442   -1.3885    0.8473 C   0  0  0  0  0  0  0  0  0  0  0  0
    1.5533   -1.8142    1.1208 C   0  0  0  0  0  0  0  0  0  0  0  0
    2.6526   -1.1134    0.6229 C   0  0  0  0  0  0  0  0  0  0  0  0
    3.9347   -1.6099    0.9394 N   0  0  0  0  0  0  0  0  0  0  0  0
    5.1656   -1.0965    0.5403 C   0  0  0  0  0  0  0  0  0  0  0  0
    5.3262   -0.1190   -0.1833 O   0  0  0  0  0  0  0  0  0  0  0  0
    6.3221   -1.9373    1.0791 C   0  0  0  0  0  0  0  0  0  0  0  0
    7.8674   -0.9921    1.2585 S   0  0  0  0  0  0  0  0  0  0  0  0
    8.5986   -1.3217   -0.3325 C   0  0  0  0  0  0  0  0  0  0  0  0
    8.2900   -0.5259   -1.4396 C   0  0  0  0  0  0  0  0  0  0  0  0
    8.8714   -0.7905   -2.6828 C   0  0  0  0  0  0  0  0  0  0  0  0
    9.7700   -1.8466   -2.8155 C   0  0  0  0  0  0  0  0  0  0  0  0
   10.4868   -2.1741   -4.3446 Cl  0  0  0  0  0  0  0  0  0  0  0  0
   10.0939   -2.6387   -1.7156 C   0  0  0  0  0  0  0  0  0  0  0  0
    9.5102   -2.3738   -0.4733 C   0  0  0  0  0  0  0  0  0  0  0  0
    2.4146    0.0199   -0.1452 C   0  0  0  0  0  0  0  0  0  0  0  0
    1.1003    0.4366   -0.4141 C   0  0  0  0  0  0  0  0  0  0  0  0
   -2.4665   -0.3130    0.5677 C   0  0  0  0  0  0  0  0  0  0  0  0
   -3.6496    0.6720    0.4910 C   0  0  0  0  0  0  0  0  0  0  0  0
   -7.5551    0.8207   -0.2558 C   0  0  0  0  0  0  0  0  0  0  0  0
   -8.5363    1.0917    0.7000 C   0  0  0  0  0  0  0  0  0  0  0  0
   -9.4009    3.4488    2.9619 H   0  0  0  0  0  0  0  0  0  0  0  0
  -10.3962    2.1503    2.3024 H   0  0  0  0  0  0  0  0  0  0  0  0
   -9.1973    1.7861    3.5690 H   0  0  0  0  0  0  0  0  0  0  0  0
   -7.0086    3.6718    2.3237 H   0  0  0  0  0  0  0  0  0  0  0  0
   -5.2814    3.2062    0.6217 H   0  0  0  0  0  0  0  0  0  0  0  0
   -3.2265    1.4324   -2.7687 H   0  0  0  0  0  0  0  0  0  0  0  0
   -3.1587   -0.2619   -2.2697 H   0  0  0  0  0  0  0  0  0  0  0  0
   -1.4489    2.0372   -1.1602 H   0  0  0  0  0  0  0  0  0  0  0  0
   -0.9178    0.7200   -2.2275 H   0  0  0  0  0  0  0  0  0  0  0  0
   -0.5686   -1.9897    1.2444 H   0  0  0  0  0  0  0  0  0  0  0  0
    1.6859   -2.7074    1.7251 H   0  0  0  0  0  0  0  0  0  0  0  0
    3.9466   -2.4422    1.5144 H   0  0  0  0  0  0  0  0  0  0  0  0
    6.4613   -2.8079    0.4300 H   0  0  0  0  0  0  0  0  0  0  0  0
    6.0635   -2.3006    2.0795 H   0  0  0  0  0  0  0  0  0  0  0  0
    7.5940    0.3060   -1.3454 H   0  0  0  0  0  0  0  0  0  0  0  0
    8.6193   -0.1672   -3.5365 H   0  0  0  0  0  0  0  0  0  0  0  0
   10.8008   -3.4576   -1.8158 H   0  0  0  0  0  0  0  0  0  0  0  0
    9.7775   -2.9912    0.3810 H   0  0  0  0  0  0  0  0  0  0  0  0
    3.2230    0.6187   -0.5523 H   0  0  0  0  0  0  0  0  0  0  0  0
    0.9795    1.3447   -0.9999 H   0  0  0  0  0  0  0  0  0  0  0  0
   -2.2074   -0.4285    1.6264 H   0  0  0  0  0  0  0  0  0  0  0  0
   -2.7754   -1.2914    0.1806 H   0  0  0  0  0  0  0  0  0  0  0  0
   -3.3625    1.6206    0.9608 H   0  0  0  0  0  0  0  0  0  0  0  0
   -4.4996    0.2590    1.0434 H   0  0  0  0  0  0  0  0  0  0  0  0
   -7.7117    0.0344   -0.9904 H   0  0  0  0  0  0  0  0  0  0  0  0
   -9.4495    0.5003    0.7058 H   0  0  0  0  0  0  0  0  0  0  0  0
  1  2  1  0
  2  3  2  0
  3  4  1  0
  4  5  2  0
  5  6  1  0
  6  7  2  0
  6  8  1  0
  8  9  1  0
  9 10  1  0
 10 11  1  0
 11 12  1  0
 12 13  2  0
 13 14  1  0
 14 15  2  0
 15 16  1  0
 16 17  1  0
 17 18  2  0
 17 19  1  0
 19 20  1  0
 20 21  1  0
 21 22  2  0
 22 23  1  0
 23 24  2  0
 24 25  1  0
 24 26  1  0
 26 27  2  0
 15 28  1  0
 28 29  2  0
 11 30  1  0
 30 31  1  0
  5 32  1  0
 32 33  2  0
 33  2  1  0
 31  8  1  0
 29 12  1  0
 27 21  1  0
  1 34  1  0
  1 35  1  0
  1 36  1  0
  3 37  1  0
  4 38  1  0
  9 39  1  0
  9 40  1  0
 10 41  1  0
 10 42  1  0
 13 43  1  0
 14 44  1  0
 16 45  1  0
 19 46  1  0
 19 47  1  0
 22 48  1  0
 23 49  1  0
 26 50  1  0
 27 51  1  0
 28 52  1  0
 29 53  1  0
 30 54  1  0
 30 55  1  0
 31 56  1  0
 31 57  1  0
 32 58  1  0
 33 59  1  0
M  END
$$$$
