
     RDKit          3D

 39 41  0  0  0  0  0  0  0  0999 V2000
    4.8959   -0.8752    0.3365 C   0  0  0  0  0  0  0  0  0  0  0  0
    4.8822   -0.2078   -1.0276 C   0  0  0  0  0  0  0  0  0  0  0  0
    4.1266    1.0350   -1.0334 N   0  0  0  0  0  0  0  0  0  0  0  0
    4.8192    2.1965   -0.9669 N   0  0  0  0  0  0  0  0  0  0  0  0
    3.8749    3.1347   -1.0074 C   0  0  0  0  0  0  0  0  0  0  0  0
    2.5935    2.5768   -1.0661 C   0  0  0  0  0  0  0  0  0  0  0  0
    1.0384    3.6130   -1.1871 Br  0  0  0  0  0  0  0  0  0  0  0  0
    2.7545    1.2046   -1.0522 C   0  0  0  0  0  0  0  0  0  0  0  0
    1.7962    0.1148   -1.0811 C   0  0  0  0  0  0  0  0  0  0  0  0
    2.0976   -0.9748   -1.5531 O   0  0  0  0  0  0  0  0  0  0  0  0
    0.5857    0.4234   -0.4894 N   0  0  0  0  0  0  0  0  0  0  0  0
   -0.5391   -0.3844   -0.3753 C   0  0  0  0  0  0  0  0  0  0  0  0
   -0.6255   -1.9078   -1.1608 S   0  0  0  0  0  0  0  0  0  0  0  0
   -2.1653   -2.1598   -0.5805 C   0  0  0  0  0  0  0  0  0  0  0  0
   -2.6437   -1.1383    0.1891 C   0  0  0  0  0  0  0  0  0  0  0  0
   -1.7046   -0.0769    0.3354 C   0  0  0  0  0  0  0  0  0  0  0  0
   -1.8693    1.1550    1.1015 C   0  0  0  0  0  0  0  0  0  0  0  0
   -0.9953    2.0132    1.1783 O   0  0  0  0  0  0  0  0  0  0  0  0
   -3.0829    1.2419    1.7185 O   0  0  0  0  0  0  0  0  0  0  0  0
   -3.2678    2.4361    2.4785 C   0  0  0  0  0  0  0  0  0  0  0  0
   -4.0188   -1.4397    0.6678 C   0  0  0  0  0  0  0  0  0  0  0  0
   -4.4247   -2.6593   -0.2181 C   0  0  0  0  0  0  0  0  0  0  0  0
   -3.1035   -3.2928   -0.7478 C   0  0  0  0  0  0  0  0  0  0  0  0
    3.8874   -1.1486    0.6619 H   0  0  0  0  0  0  0  0  0  0  0  0
    5.5011   -1.7864    0.3055 H   0  0  0  0  0  0  0  0  0  0  0  0
    5.3210   -0.2087    1.0947 H   0  0  0  0  0  0  0  0  0  0  0  0
    4.4740   -0.8654   -1.7993 H   0  0  0  0  0  0  0  0  0  0  0  0
    5.9088    0.0304   -1.3315 H   0  0  0  0  0  0  0  0  0  0  0  0
    4.1684    4.1765   -0.9966 H   0  0  0  0  0  0  0  0  0  0  0  0
    0.5072    1.3296   -0.0311 H   0  0  0  0  0  0  0  0  0  0  0  0
   -3.2327    3.3143    1.8257 H   0  0  0  0  0  0  0  0  0  0  0  0
   -4.2559    2.3908    2.9450 H   0  0  0  0  0  0  0  0  0  0  0  0
   -2.5151    2.5093    3.2702 H   0  0  0  0  0  0  0  0  0  0  0  0
   -4.0025   -1.7233    1.7253 H   0  0  0  0  0  0  0  0  0  0  0  0
   -4.7128   -0.6072    0.5239 H   0  0  0  0  0  0  0  0  0  0  0  0
   -5.0152   -2.2989   -1.0709 H   0  0  0  0  0  0  0  0  0  0  0  0
   -5.0428   -3.3802    0.3262 H   0  0  0  0  0  0  0  0  0  0  0  0
   -2.8063   -4.1405   -0.1222 H   0  0  0  0  0  0  0  0  0  0  0  0
   -3.2088   -3.6201   -1.7856 H   0  0  0  0  0  0  0  0  0  0  0  0
  1  2  1  0
  2  3  1  0
  3  4  1  0
  4  5  2  0
  5  6  1  0
  6  7  1  0
  6  8  2  0
  8  9  1  0
  9 10  2  0
  9 11  1  0
 11 12  1  0
 12 13  1  0
 13 14  1  0
 14 15  2  0
 15 16  1  0
 16 17  1  0
 17 18  2  0
 17 19  1  0
 19 20  1  0
 15 21  1  0
 21 22  1  0
 22 23  1  0
  8  3  1  0
 16 12  2  0
 23 14  1  0
  1 24  1  0
  1 25  1  0
  1 26  1  0
  2 27  1  0
  2 28  1  0
  5 29  1  0
 11 30  1  0
 20 31  1  0
 20 32  1  0
 20 33  1  0
 21 34  1  0
 21 35  1  0
 22 36  1  0
 22 37  1  0
 23 38  1  0
 23 39  1  0
M  END
$$$$
