
     RDKit          3D

 34 35  0  0  0  0  0  0  0  0999 V2000
   -3.0862    1.9315    0.4012 C   0  0  0  0  0  0  0  0  0  0  0  0
   -3.5476    0.5297    0.1038 C   0  0  0  0  0  0  0  0  0  0  0  0
   -4.9230    0.2489    0.1979 C   0  0  0  0  0  0  0  0  0  0  0  0
   -5.4118   -1.0278   -0.0677 C   0  0  0  0  0  0  0  0  0  0  0  0
   -4.5304   -2.0424   -0.4178 C   0  0  0  0  0  0  0  0  0  0  0  0
   -3.1613   -1.7794   -0.5121 C   0  0  0  0  0  0  0  0  0  0  0  0
   -2.6539   -0.4964   -0.2764 C   0  0  0  0  0  0  0  0  0  0  0  0
   -1.2672   -0.2129   -0.3259 N   0  0  0  0  0  0  0  0  0  0  0  0
   -0.2333   -0.8228   -1.0260 C   0  0  0  0  0  0  0  0  0  0  0  0
   -0.3586   -1.8275   -2.3564 S   0  0  0  0  0  0  0  0  0  0  0  0
    0.9782   -0.4009   -0.4915 N   0  0  0  0  0  0  0  0  0  0  0  0
    2.2934   -0.8505   -0.9233 C   0  0  0  0  0  0  0  0  0  0  0  0
    3.3705   -0.1148   -0.1707 C   0  0  0  0  0  0  0  0  0  0  0  0
    3.7506    1.1771   -0.5617 C   0  0  0  0  0  0  0  0  0  0  0  0
    4.7287    1.8730    0.1500 C   0  0  0  0  0  0  0  0  0  0  0  0
    5.3305    1.2878    1.2625 C   0  0  0  0  0  0  0  0  0  0  0  0
    4.9535    0.0081    1.6661 C   0  0  0  0  0  0  0  0  0  0  0  0
    3.9754   -0.6898    0.9557 C   0  0  0  0  0  0  0  0  0  0  0  0
   -2.4414    1.9385    1.2858 H   0  0  0  0  0  0  0  0  0  0  0  0
   -3.9294    2.6010    0.6025 H   0  0  0  0  0  0  0  0  0  0  0  0
   -2.5423    2.3438   -0.4549 H   0  0  0  0  0  0  0  0  0  0  0  0
   -5.6265    1.0300    0.4787 H   0  0  0  0  0  0  0  0  0  0  0  0
   -6.4766   -1.2316    0.0067 H   0  0  0  0  0  0  0  0  0  0  0  0
   -4.9014   -3.0459   -0.6094 H   0  0  0  0  0  0  0  0  0  0  0  0
   -2.5071   -2.6151   -0.7365 H   0  0  0  0  0  0  0  0  0  0  0  0
   -0.9978    0.6860    0.0478 H   0  0  0  0  0  0  0  0  0  0  0  0
    0.9355   -0.0998    0.4729 H   0  0  0  0  0  0  0  0  0  0  0  0
    2.4035   -0.6819   -2.0006 H   0  0  0  0  0  0  0  0  0  0  0  0
    2.3668   -1.9302   -0.7483 H   0  0  0  0  0  0  0  0  0  0  0  0
    3.2829    1.6463   -1.4252 H   0  0  0  0  0  0  0  0  0  0  0  0
    5.0208    2.8719   -0.1635 H   0  0  0  0  0  0  0  0  0  0  0  0
    6.0934    1.8296    1.8156 H   0  0  0  0  0  0  0  0  0  0  0  0
    5.4223   -0.4469    2.5350 H   0  0  0  0  0  0  0  0  0  0  0  0
    3.6898   -1.6865    1.2855 H   0  0  0  0  0  0  0  0  0  0  0  0
  1  2  1  0
  2  3  2  0
  3  4  1  0
  4  5  2  0
  5  6  1  0
  6  7  2  0
  7  8  1  0
  8  9  1  0
  9 10  2  0
  9 11  1  0
 11 12  1  0
 12 13  1  0
 13 14  2  0
 14 15  1  0
 15 16  2  0
 16 17  1  0
 17 18  2  0
  7  2  1  0
 18 13  1  0
  1 19  1  0
  1 20  1  0
  1 21  1  0
  3 22  1  0
  4 23  1  0
  5 24  1  0
  6 25  1  0
  8 26  1  0
 11 27  1  0
 12 28  1  0
 12 29  1  0
 14 30  1  0
 15 31  1  0
 16 32  1  0
 17 33  1  0
 18 34  1  0
M  END
$$$$
