
     RDKit          3D

 56 61  0  0  0  0  0  0  0  0999 V2000
   -0.8538    1.6720    3.5621 O   0  0  0  0  0  0  0  0  0  0  0  0
   -0.5414    2.3318    2.5801 C   0  0  0  0  0  0  0  0  0  0  0  0
   -0.8770    3.6683    2.3689 N   0  0  0  0  0  0  0  0  0  0  0  0
   -0.2904    4.1536    1.2069 C   0  0  0  0  0  0  0  0  0  0  0  0
   -0.3937    5.4350    0.7058 C   0  0  0  0  0  0  0  0  0  0  0  0
    0.2916    5.7194   -0.4770 C   0  0  0  0  0  0  0  0  0  0  0  0
    1.0546    4.7291   -1.1211 C   0  0  0  0  0  0  0  0  0  0  0  0
    1.1450    3.4366   -0.5939 C   0  0  0  0  0  0  0  0  0  0  0  0
    0.4621    3.1540    0.5791 C   0  0  0  0  0  0  0  0  0  0  0  0
    0.3542    1.8926    1.3875 C   0  0  0  0  0  0  0  0  0  0  0  0
    1.6677    1.3276    1.8729 N   0  0  0  0  0  0  0  0  0  0  0  0
    1.9219   -0.0003    1.1931 C   0  0  2  0  0  0  0  0  0  0  0  0
    3.1880    0.1058    0.3264 C   0  0  0  0  0  0  0  0  0  0  0  0
    3.6563   -1.2239   -0.2236 C   0  0  0  0  0  0  0  0  0  0  0  0
    3.5539   -1.5004   -1.5940 C   0  0  0  0  0  0  0  0  0  0  0  0
    3.9583   -2.7374   -2.0975 C   0  0  0  0  0  0  0  0  0  0  0  0
    4.4742   -3.7062   -1.2388 C   0  0  0  0  0  0  0  0  0  0  0  0
    4.5909   -3.4380    0.1236 C   0  0  0  0  0  0  0  0  0  0  0  0
    4.1867   -2.2020    0.6297 C   0  0  0  0  0  0  0  0  0  0  0  0
    0.6682   -0.2500    0.4464 C   0  0  0  0  0  0  0  0  0  0  0  0
   -0.2157    0.8254    0.5597 C   0  0  0  0  0  0  0  0  0  0  0  0
   -1.3786    0.5201   -0.0950 C   0  0  0  0  0  0  0  0  0  0  0  0
   -2.4943    1.2308   -0.2046 O   0  0  0  0  0  0  0  0  0  0  0  0
   -1.1874   -0.7360   -0.6572 N   0  0  0  0  0  0  0  0  0  0  0  0
   -2.0977   -1.4128   -1.5787 C   0  0  0  0  0  0  0  0  0  0  0  0
   -3.3722   -1.8744   -0.9130 C   0  0  0  0  0  0  0  0  0  0  0  0
   -3.3391   -2.6771    0.2373 C   0  0  0  0  0  0  0  0  0  0  0  0
   -4.5235   -3.1040    0.8391 C   0  0  0  0  0  0  0  0  0  0  0  0
   -5.7536   -2.7446    0.2915 C   0  0  0  0  0  0  0  0  0  0  0  0
   -5.8015   -1.9627   -0.8614 C   0  0  0  0  0  0  0  0  0  0  0  0
   -4.6178   -1.5337   -1.4641 C   0  0  0  0  0  0  0  0  0  0  0  0
    0.0604   -1.2282   -0.2964 C   0  0  0  0  0  0  0  0  0  0  0  0
    0.4530   -2.4385   -0.6722 O   0  0  0  0  0  0  0  0  0  0  0  0
   -1.4521    4.1963    3.0058 H   0  0  0  0  0  0  0  0  0  0  0  0
   -0.9811    6.1967    1.2044 H   0  0  0  0  0  0  0  0  0  0  0  0
    0.2357    6.7166   -0.9070 H   0  0  0  0  0  0  0  0  0  0  0  0
    1.5793    4.9710   -2.0426 H   0  0  0  0  0  0  0  0  0  0  0  0
    1.7286    2.6752   -1.0987 H   0  0  0  0  0  0  0  0  0  0  0  0
    1.4952    1.1011    2.8561 H   0  0  0  0  0  0  0  0  0  0  0  0
    2.0470   -0.7616    1.9728 H   0  0  0  0  0  0  0  0  0  0  0  0
    3.0335    0.8094   -0.5010 H   0  0  0  0  0  0  0  0  0  0  0  0
    4.0121    0.5218    0.9220 H   0  0  0  0  0  0  0  0  0  0  0  0
    3.1449   -0.7582   -2.2772 H   0  0  0  0  0  0  0  0  0  0  0  0
    3.8699   -2.9448   -3.1611 H   0  0  0  0  0  0  0  0  0  0  0  0
    4.7915   -4.6684   -1.6331 H   0  0  0  0  0  0  0  0  0  0  0  0
    5.0025   -4.1907    0.7917 H   0  0  0  0  0  0  0  0  0  0  0  0
    4.2932   -2.0061    1.6949 H   0  0  0  0  0  0  0  0  0  0  0  0
   -3.2395    0.6315   -0.3860 H   0  0  0  0  0  0  0  0  0  0  0  0
   -1.5887   -2.2691   -2.0328 H   0  0  0  0  0  0  0  0  0  0  0  0
   -2.3043   -0.6937   -2.3805 H   0  0  0  0  0  0  0  0  0  0  0  0
   -2.3866   -2.9720    0.6763 H   0  0  0  0  0  0  0  0  0  0  0  0
   -4.4845   -3.7182    1.7354 H   0  0  0  0  0  0  0  0  0  0  0  0
   -6.6747   -3.0786    0.7615 H   0  0  0  0  0  0  0  0  0  0  0  0
   -6.7620   -1.6909   -1.2926 H   0  0  0  0  0  0  0  0  0  0  0  0
   -4.6782   -0.9323   -2.3697 H   0  0  0  0  0  0  0  0  0  0  0  0
    1.3688   -2.5671   -0.3601 H   0  0  0  0  0  0  0  0  0  0  0  0
  1  2  2  0
  2  3  1  0
  3  4  1  0
  4  5  2  0
  5  6  1  0
  6  7  2  0
  7  8  1  0
  8  9  2  0
  9 10  1  0
 10 11  1  0
 11 12  1  0
 12 13  1  0
 13 14  1  0
 14 15  2  0
 15 16  1  0
 16 17  2  0
 17 18  1  0
 18 19  2  0
 12 20  1  0
 20 21  1  0
 21 22  2  0
 22 23  1  0
 22 24  1  0
 24 25  1  0
 25 26  1  0
 26 27  2  0
 27 28  1  0
 28 29  2  0
 29 30  1  0
 30 31  2  0
 24 32  1  0
 32 33  1  0
 10  2  1  0
 19 14  1  0
 32 20  2  0
  9  4  1  0
 21 10  1  0
 31 26  1  0
  3 34  1  0
  5 35  1  0
  6 36  1  0
  7 37  1  0
  8 38  1  0
 11 39  1  0
 12 40  1  1
 13 41  1  0
 13 42  1  0
 15 43  1  0
 16 44  1  0
 17 45  1  0
 18 46  1  0
 19 47  1  0
 23 48  1  0
 25 49  1  0
 25 50  1  0
 27 51  1  0
 28 52  1  0
 29 53  1  0
 30 54  1  0
 31 55  1  0
 33 56  1  0
M  END
$$$$
