
     RDKit          3D

 36 35  0  0  0  0  0  0  0  0999 V2000
    3.7502   -2.1204   -0.5600 C   0  0  0  0  0  0  0  0  0  0  0  0
    2.4879   -1.4398   -0.0488 C   0  0  0  0  0  0  0  0  0  0  0  0
    1.7320   -0.7743   -1.1264 N   0  0  0  0  0  0  0  0  0  0  0  0
    2.1811    0.5978   -1.4269 C   0  0  0  0  0  0  0  0  0  0  0  0
    1.4826    1.6310   -0.5587 C   0  0  0  0  0  0  0  0  0  0  0  0
    0.6992   -1.4368   -1.8287 C   0  0  0  0  0  0  0  0  0  0  0  0
    0.3268   -3.0784   -1.6538 S   0  0  0  0  0  0  0  0  0  0  0  0
   -0.1886   -0.4656   -3.0269 S   0  0  0  0  0  0  0  0  0  0  0  0
   -2.1688   -0.6572   -2.4706 S   0  0  0  0  0  0  0  0  0  0  0  0
   -2.4283    0.7322   -1.3963 C   0  0  0  0  0  0  0  0  0  0  0  0
   -2.5656    2.2601   -2.1114 S   0  0  0  0  0  0  0  0  0  0  0  0
   -2.5809    0.4673   -0.0147 N   0  0  0  0  0  0  0  0  0  0  0  0
   -2.5269   -0.8844    0.5811 C   0  0  0  0  0  0  0  0  0  0  0  0
   -1.3300   -1.0799    1.4986 C   0  0  0  0  0  0  0  0  0  0  0  0
   -2.9135    1.5464    0.9394 C   0  0  0  0  0  0  0  0  0  0  0  0
   -1.7061    2.3534    1.3987 C   0  0  0  0  0  0  0  0  0  0  0  0
    4.2791   -2.6035    0.2676 H   0  0  0  0  0  0  0  0  0  0  0  0
    4.4313   -1.3983   -1.0214 H   0  0  0  0  0  0  0  0  0  0  0  0
    3.5218   -2.8841   -1.3095 H   0  0  0  0  0  0  0  0  0  0  0  0
    1.8569   -2.1697    0.4669 H   0  0  0  0  0  0  0  0  0  0  0  0
    2.7525   -0.6882    0.7041 H   0  0  0  0  0  0  0  0  0  0  0  0
    3.2634    0.6539   -1.2629 H   0  0  0  0  0  0  0  0  0  0  0  0
    2.0321    0.8331   -2.4838 H   0  0  0  0  0  0  0  0  0  0  0  0
    0.4001    1.5888   -0.6906 H   0  0  0  0  0  0  0  0  0  0  0  0
    1.8213    2.6385   -0.8198 H   0  0  0  0  0  0  0  0  0  0  0  0
    1.6926    1.4657    0.5029 H   0  0  0  0  0  0  0  0  0  0  0  0
   -2.5145   -1.6693   -0.1740 H   0  0  0  0  0  0  0  0  0  0  0  0
   -3.4562   -1.0362    1.1434 H   0  0  0  0  0  0  0  0  0  0  0  0
   -1.2539   -2.1284    1.8034 H   0  0  0  0  0  0  0  0  0  0  0  0
   -1.4264   -0.4809    2.4089 H   0  0  0  0  0  0  0  0  0  0  0  0
   -0.3992   -0.7931    1.0028 H   0  0  0  0  0  0  0  0  0  0  0  0
   -3.4033    1.1033    1.8148 H   0  0  0  0  0  0  0  0  0  0  0  0
   -3.6565    2.2141    0.4916 H   0  0  0  0  0  0  0  0  0  0  0  0
   -1.2438    2.9019    0.5747 H   0  0  0  0  0  0  0  0  0  0  0  0
   -2.0115    3.0858    2.1529 H   0  0  0  0  0  0  0  0  0  0  0  0
   -0.9368    1.7150    1.8409 H   0  0  0  0  0  0  0  0  0  0  0  0
  1  2  1  0
  2  3  1  0
  3  4  1  0
  4  5  1  0
  3  6  1  0
  6  7  2  0
  6  8  1  0
  8  9  1  0
  9 10  1  0
 10 11  2  0
 10 12  1  0
 12 13  1  0
 13 14  1  0
 12 15  1  0
 15 16  1  0
  1 17  1  0
  1 18  1  0
  1 19  1  0
  2 20  1  0
  2 21  1  0
  4 22  1  0
  4 23  1  0
  5 24  1  0
  5 25  1  0
  5 26  1  0
 13 27  1  0
 13 28  1  0
 14 29  1  0
 14 30  1  0
 14 31  1  0
 15 32  1  0
 15 33  1  0
 16 34  1  0
 16 35  1  0
 16 36  1  0
M  END
$$$$
