
     RDKit          3D

 52 54  0  0  0  0  0  0  0  0999 V2000
    8.0507    0.4748   -3.3404 C   0  0  0  0  0  0  0  0  0  0  0  0
    7.1097   -0.3475   -2.5110 C   0  0  0  0  0  0  0  0  0  0  0  0
    5.9943   -0.9550   -3.0975 C   0  0  0  0  0  0  0  0  0  0  0  0
    5.0997   -1.6938   -2.3200 C   0  0  0  0  0  0  0  0  0  0  0  0
    5.3024   -1.8355   -0.9408 C   0  0  0  0  0  0  0  0  0  0  0  0
    4.3211   -2.6123   -0.1036 C   0  0  0  0  0  0  0  0  0  0  0  0
    3.2308   -1.7740    0.3200 N   0  0  0  0  0  0  0  0  0  0  0  0
    2.0382   -1.7157   -0.3591 C   0  0  0  0  0  0  0  0  0  0  0  0
    1.6916   -2.4337   -1.2870 O   0  0  0  0  0  0  0  0  0  0  0  0
    1.0930   -0.6037    0.1514 C   0  0  0  0  0  0  0  0  0  0  0  0
    1.4344    0.1073    1.0857 O   0  0  0  0  0  0  0  0  0  0  0  0
   -0.0895   -0.5287   -0.5487 N   0  0  0  0  0  0  0  0  0  0  0  0
   -1.1917    0.3157   -0.1220 C   0  0  0  0  0  0  0  0  0  0  0  0
   -2.2008   -0.4161    0.7866 C   0  0  0  0  0  0  0  0  0  0  0  0
   -1.5840   -0.7767    2.0348 O   0  0  0  0  0  0  0  0  0  0  0  0
   -2.6443   -0.7855    2.9900 C   0  0  0  0  0  0  0  0  0  0  0  0
   -3.4781    0.4127    2.6000 C   0  0  0  0  0  0  0  0  0  0  0  0
   -3.3362    0.4742    1.1304 N   0  0  0  0  0  0  0  0  0  0  0  0
   -4.7146    0.1854    0.2019 S   0  0  0  0  0  6  0  0  0  0  0  0
   -4.3426    0.2938   -1.1914 O   0  0  0  0  0  0  0  0  0  0  0  0
   -5.3405   -1.0106    0.7241 O   0  0  0  0  0  0  0  0  0  0  0  0
   -5.7391    1.5809    0.5916 C   0  0  0  0  0  0  0  0  0  0  0  0
   -5.3045    2.8610    0.2309 C   0  0  0  0  0  0  0  0  0  0  0  0
   -6.1006    3.9671    0.5324 C   0  0  0  0  0  0  0  0  0  0  0  0
   -7.3210    3.7841    1.1848 C   0  0  0  0  0  0  0  0  0  0  0  0
   -8.3973    5.2838    1.5930 Br  0  0  0  0  0  0  0  0  0  0  0  0
   -7.7567    2.5052    1.5373 C   0  0  0  0  0  0  0  0  0  0  0  0
   -6.9644    1.3950    1.2384 C   0  0  0  0  0  0  0  0  0  0  0  0
    6.4059   -1.2053   -0.3511 C   0  0  0  0  0  0  0  0  0  0  0  0
    7.3005   -0.4667   -1.1298 C   0  0  0  0  0  0  0  0  0  0  0  0
    7.7109    1.5145   -3.3718 H   0  0  0  0  0  0  0  0  0  0  0  0
    9.0640    0.4455   -2.9260 H   0  0  0  0  0  0  0  0  0  0  0  0
    8.1077    0.0896   -4.3639 H   0  0  0  0  0  0  0  0  0  0  0  0
    5.8115   -0.8553   -4.1651 H   0  0  0  0  0  0  0  0  0  0  0  0
    4.2352   -2.1550   -2.7952 H   0  0  0  0  0  0  0  0  0  0  0  0
    4.8099   -2.9976    0.7980 H   0  0  0  0  0  0  0  0  0  0  0  0
    3.9438   -3.4761   -0.6630 H   0  0  0  0  0  0  0  0  0  0  0  0
    3.4006   -1.0284    0.9888 H   0  0  0  0  0  0  0  0  0  0  0  0
   -0.2320   -1.2342   -1.2675 H   0  0  0  0  0  0  0  0  0  0  0  0
   -1.6814    0.6745   -1.0324 H   0  0  0  0  0  0  0  0  0  0  0  0
   -0.7797    1.1841    0.4054 H   0  0  0  0  0  0  0  0  0  0  0  0
   -2.5366   -1.3478    0.3147 H   0  0  0  0  0  0  0  0  0  0  0  0
   -2.2429   -0.7131    4.0041 H   0  0  0  0  0  0  0  0  0  0  0  0
   -3.2027   -1.7229    2.8893 H   0  0  0  0  0  0  0  0  0  0  0  0
   -4.5072    0.3288    2.9564 H   0  0  0  0  0  0  0  0  0  0  0  0
   -3.0504    1.3345    3.0101 H   0  0  0  0  0  0  0  0  0  0  0  0
   -4.3554    2.9988   -0.2830 H   0  0  0  0  0  0  0  0  0  0  0  0
   -5.7649    4.9629    0.2530 H   0  0  0  0  0  0  0  0  0  0  0  0
   -8.7110    2.3643    2.0395 H   0  0  0  0  0  0  0  0  0  0  0  0
   -7.3099    0.3991    1.5076 H   0  0  0  0  0  0  0  0  0  0  0  0
    6.5759   -1.2818    0.7204 H   0  0  0  0  0  0  0  0  0  0  0  0
    8.1480    0.0178   -0.6500 H   0  0  0  0  0  0  0  0  0  0  0  0
  1  2  1  0
  2  3  2  0
  3  4  1  0
  4  5  2  0
  5  6  1  0
  6  7  1  0
  7  8  1  0
  8  9  2  0
  8 10  1  0
 10 11  2  0
 10 12  1  0
 12 13  1  0
 13 14  1  0
 14 15  1  0
 15 16  1  0
 16 17  1  0
 17 18  1  0
 18 19  1  0
 19 20  2  0
 19 21  2  0
 19 22  1  0
 22 23  2  0
 23 24  1  0
 24 25  2  0
 25 26  1  0
 25 27  1  0
 27 28  2  0
  5 29  1  0
 29 30  2  0
 30  2  1  0
 18 14  1  0
 28 22  1  0
  1 31  1  0
  1 32  1  0
  1 33  1  0
  3 34  1  0
  4 35  1  0
  6 36  1  0
  6 37  1  0
  7 38  1  0
 12 39  1  0
 13 40  1  0
 13 41  1  0
 14 42  1  0
 16 43  1  0
 16 44  1  0
 17 45  1  0
 17 46  1  0
 23 47  1  0
 24 48  1  0
 27 49  1  0
 28 50  1  0
 29 51  1  0
 30 52  1  0
M  END
$$$$
