
     RDKit          3D

 46 49  0  0  0  0  0  0  0  0999 V2000
    4.3574   -1.1695    1.5578 O   0  0  0  0  0  0  0  0  0  0  0  0
    3.2560   -0.9045    2.0306 C   0  0  0  0  0  0  0  0  0  0  0  0
    2.3271   -2.0110    2.5187 C   0  0  0  0  0  0  0  0  0  0  0  0
    1.2298   -2.5654    1.1735 S   0  0  0  0  0  0  0  0  0  0  0  0
    0.2399   -1.1633    0.9853 C   0  0  0  0  0  0  0  0  0  0  0  0
   -0.0218   -0.2951    1.9359 N   0  0  0  0  0  0  0  0  0  0  0  0
   -0.7375    0.7300    1.3788 N   0  0  0  0  0  0  0  0  0  0  0  0
   -0.9182    0.4609    0.0962 C   0  0  0  0  0  0  0  0  0  0  0  0
   -1.6498    1.3303   -0.8766 C   0  0  0  0  0  0  0  0  0  0  0  0
   -3.0262    0.8202   -1.1948 C   0  0  0  0  0  0  0  0  0  0  0  0
   -4.0427    0.4804   -0.3203 C   0  0  0  0  0  0  0  0  0  0  0  0
   -5.2149    0.0326   -0.9956 C   0  0  0  0  0  0  0  0  0  0  0  0
   -5.0631    0.0611   -2.3637 C   0  0  0  0  0  0  0  0  0  0  0  0
   -3.5233    0.6438   -2.8261 S   0  0  0  0  0  0  0  0  0  0  0  0
   -0.3172   -0.7484   -0.1929 N   0  0  0  0  0  0  0  0  0  0  0  0
   -0.2284   -1.3966   -1.4882 C   0  0  0  0  0  0  0  0  0  0  0  0
   -1.3591   -2.3270   -1.7301 C   0  0  0  0  0  0  0  0  0  0  0  0
   -2.2822   -2.9749   -0.9317 C   0  0  0  0  0  0  0  0  0  0  0  0
   -3.1220   -3.7108   -1.8029 C   0  0  0  0  0  0  0  0  0  0  0  0
   -2.6512   -3.4822   -3.0729 C   0  0  0  0  0  0  0  0  0  0  0  0
   -1.5792   -2.6501   -3.0390 O   0  0  0  0  0  0  0  0  0  0  0  0
    2.7161    0.3653    2.1703 N   0  0  0  0  0  0  0  0  0  0  0  0
    3.2866    1.5968    1.7895 C   0  0  0  0  0  0  0  0  0  0  0  0
    4.5943    1.7439    1.3242 C   0  0  0  0  0  0  0  0  0  0  0  0
    5.0681    3.0073    0.9602 C   0  0  0  0  0  0  0  0  0  0  0  0
    6.6808    3.1781    0.3825 Cl  0  0  0  0  0  0  0  0  0  0  0  0
    4.2548    4.1334    1.0582 C   0  0  0  0  0  0  0  0  0  0  0  0
    2.9550    3.9852    1.5268 C   0  0  0  0  0  0  0  0  0  0  0  0
    1.9324    5.3660    1.6547 Cl  0  0  0  0  0  0  0  0  0  0  0  0
    2.4684    2.7293    1.8917 C   0  0  0  0  0  0  0  0  0  0  0  0
    2.9435   -2.8575    2.8421 H   0  0  0  0  0  0  0  0  0  0  0  0
    1.7529   -1.6834    3.3928 H   0  0  0  0  0  0  0  0  0  0  0  0
   -1.0454    1.4580   -1.7816 H   0  0  0  0  0  0  0  0  0  0  0  0
   -1.7512    2.3331   -0.4424 H   0  0  0  0  0  0  0  0  0  0  0  0
   -3.9473    0.5462    0.7579 H   0  0  0  0  0  0  0  0  0  0  0  0
   -6.1249   -0.2878   -0.5032 H   0  0  0  0  0  0  0  0  0  0  0  0
   -5.7859   -0.2233   -3.1170 H   0  0  0  0  0  0  0  0  0  0  0  0
   -0.2005   -0.6146   -2.2547 H   0  0  0  0  0  0  0  0  0  0  0  0
    0.7273   -1.9272   -1.5518 H   0  0  0  0  0  0  0  0  0  0  0  0
   -2.3567   -2.9139    0.1463 H   0  0  0  0  0  0  0  0  0  0  0  0
   -3.9661   -4.3305   -1.5380 H   0  0  0  0  0  0  0  0  0  0  0  0
   -2.9523   -3.8153   -4.0573 H   0  0  0  0  0  0  0  0  0  0  0  0
    1.7381    0.4066    2.4630 H   0  0  0  0  0  0  0  0  0  0  0  0
    5.2632    0.8930    1.2375 H   0  0  0  0  0  0  0  0  0  0  0  0
    4.6304    5.1125    0.7735 H   0  0  0  0  0  0  0  0  0  0  0  0
    1.4451    2.6384    2.2509 H   0  0  0  0  0  0  0  0  0  0  0  0
  1  2  2  0
  2  3  1  0
  3  4  1  0
  4  5  1  0
  5  6  2  0
  6  7  1  0
  7  8  2  0
  8  9  1  0
  9 10  1  0
 10 11  2  0
 11 12  1  0
 12 13  2  0
 13 14  1  0
  8 15  1  0
 15 16  1  0
 16 17  1  0
 17 18  2  0
 18 19  1  0
 19 20  2  0
 20 21  1  0
  2 22  1  0
 22 23  1  0
 23 24  2  0
 24 25  1  0
 25 26  1  0
 25 27  2  0
 27 28  1  0
 28 29  1  0
 28 30  2  0
 15  5  1  0
 21 17  1  0
 30 23  1  0
 14 10  1  0
  3 31  1  0
  3 32  1  0
  9 33  1  0
  9 34  1  0
 11 35  1  0
 12 36  1  0
 13 37  1  0
 16 38  1  0
 16 39  1  0
 18 40  1  0
 19 41  1  0
 20 42  1  0
 22 43  1  0
 24 44  1  0
 27 45  1  0
 30 46  1  0
M  END
$$$$
