
     RDKit          3D

 47 49  0  0  0  0  0  0  0  0999 V2000
    8.3729   -0.4920    1.2823 C   0  0  0  0  0  0  0  0  0  0  0  0
    7.5249   -0.3124    0.0324 C   0  0  0  0  0  0  0  0  0  0  0  0
    6.0513   -0.2979    0.3514 C   0  0  0  0  0  0  0  0  0  0  0  0
    5.4041    0.9042    0.6647 C   0  0  0  0  0  0  0  0  0  0  0  0
    4.0436    0.9126    0.9812 C   0  0  0  0  0  0  0  0  0  0  0  0
    3.3105   -0.2754    0.9820 C   0  0  0  0  0  0  0  0  0  0  0  0
    1.9438   -0.2626    1.2855 N   0  0  0  0  0  0  0  0  0  0  0  0
    1.0953   -0.1208    0.3268 C   0  0  0  0  0  0  0  0  0  0  0  0
    1.3593    0.0233   -0.9987 N   0  0  0  0  0  0  0  0  0  0  0  0
    0.2969    0.1600   -1.8431 C   0  0  0  0  0  0  0  0  0  0  0  0
    0.3819    0.3063   -3.0520 O   0  0  0  0  0  0  0  0  0  0  0  0
   -0.9734    0.1070   -1.0691 C   0  0  0  0  0  0  0  0  0  0  0  0
   -2.1666    0.2275   -1.6660 C   0  0  0  0  0  0  0  0  0  0  0  0
   -3.4766    0.2052   -1.0026 C   0  0  0  0  0  0  0  0  0  0  0  0
   -3.9249   -0.9376   -0.3210 C   0  0  0  0  0  0  0  0  0  0  0  0
   -5.1808   -0.9536    0.2903 C   0  0  0  0  0  0  0  0  0  0  0  0
   -5.7072   -2.0133    0.9795 O   0  0  0  0  0  0  0  0  0  0  0  0
   -4.8485   -3.1135    1.2422 C   0  0  0  0  0  0  0  0  0  0  0  0
   -5.9858    0.1868    0.1897 C   0  0  0  0  0  0  0  0  0  0  0  0
   -7.2295    0.1941    0.7765 O   0  0  0  0  0  0  0  0  0  0  0  0
   -5.5598    1.3339   -0.4961 C   0  0  0  0  0  0  0  0  0  0  0  0
   -6.4608    2.3695   -0.5074 O   0  0  0  0  0  0  0  0  0  0  0  0
   -6.0608    3.5601   -1.1763 C   0  0  0  0  0  0  0  0  0  0  0  0
   -4.3010    1.3361   -1.0949 C   0  0  0  0  0  0  0  0  0  0  0  0
   -0.6268   -0.0929    0.6087 S   0  0  0  0  0  0  0  0  0  0  0  0
    3.9585   -1.4786    0.6967 C   0  0  0  0  0  0  0  0  0  0  0  0
    5.3189   -1.4916    0.3796 C   0  0  0  0  0  0  0  0  0  0  0  0
    8.1418   -1.4361    1.7870 H   0  0  0  0  0  0  0  0  0  0  0  0
    8.2044    0.3208    1.9969 H   0  0  0  0  0  0  0  0  0  0  0  0
    9.4357   -0.4985    1.0206 H   0  0  0  0  0  0  0  0  0  0  0  0
    7.7397   -1.1179   -0.6804 H   0  0  0  0  0  0  0  0  0  0  0  0
    7.8017    0.6210   -0.4726 H   0  0  0  0  0  0  0  0  0  0  0  0
    5.9579    1.8405    0.6746 H   0  0  0  0  0  0  0  0  0  0  0  0
    3.5543    1.8490    1.2360 H   0  0  0  0  0  0  0  0  0  0  0  0
    2.2990    0.0371   -1.3616 H   0  0  0  0  0  0  0  0  0  0  0  0
   -2.2101    0.3780   -2.7444 H   0  0  0  0  0  0  0  0  0  0  0  0
   -3.2797   -1.8094   -0.2861 H   0  0  0  0  0  0  0  0  0  0  0  0
   -3.9560   -2.7998    1.7941 H   0  0  0  0  0  0  0  0  0  0  0  0
   -4.5790   -3.6305    0.3155 H   0  0  0  0  0  0  0  0  0  0  0  0
   -5.3957   -3.8227    1.8707 H   0  0  0  0  0  0  0  0  0  0  0  0
   -7.5993    1.0754    0.5824 H   0  0  0  0  0  0  0  0  0  0  0  0
   -5.1747    3.9986   -0.7057 H   0  0  0  0  0  0  0  0  0  0  0  0
   -5.8940    3.3758   -2.2427 H   0  0  0  0  0  0  0  0  0  0  0  0
   -6.8773    4.2832   -1.0872 H   0  0  0  0  0  0  0  0  0  0  0  0
   -3.9369    2.2038   -1.6353 H   0  0  0  0  0  0  0  0  0  0  0  0
    3.4029   -2.4120    0.7290 H   0  0  0  0  0  0  0  0  0  0  0  0
    5.8056   -2.4406    0.1651 H   0  0  0  0  0  0  0  0  0  0  0  0
  1  2  1  0
  2  3  1  0
  3  4  2  0
  4  5  1  0
  5  6  2  0
  6  7  1  0
  7  8  2  3
  8  9  1  0
  9 10  1  0
 10 11  2  0
 10 12  1  0
 12 13  2  3
 13 14  1  0
 14 15  2  0
 15 16  1  0
 16 17  1  0
 17 18  1  0
 16 19  2  0
 19 20  1  0
 19 21  1  0
 21 22  1  0
 22 23  1  0
 21 24  2  0
 12 25  1  0
  6 26  1  0
 26 27  2  0
 27  3  1  0
 25  8  1  0
 24 14  1  0
  1 28  1  0
  1 29  1  0
  1 30  1  0
  2 31  1  0
  2 32  1  0
  4 33  1  0
  5 34  1  0
  9 35  1  0
 13 36  1  0
 15 37  1  0
 18 38  1  0
 18 39  1  0
 18 40  1  0
 20 41  1  0
 23 42  1  0
 23 43  1  0
 23 44  1  0
 24 45  1  0
 26 46  1  0
 27 47  1  0
M  END
$$$$
