
     RDKit          3D

 49 53  0  0  0  0  0  0  0  0999 V2000
    5.4757    1.9585    2.1021 C   0  0  0  0  0  0  0  0  0  0  0  0
    4.7139    0.9283    1.3299 C   0  0  0  0  0  0  0  0  0  0  0  0
    5.2007    0.5543   -0.2605 S   0  0  0  0  0  0  0  0  0  0  0  0
    3.9756   -0.6072   -0.4374 C   0  0  0  0  0  0  0  0  0  0  0  0
    3.8780   -1.2979   -1.5870 N   0  0  0  0  0  0  0  0  0  0  0  0
    2.8767   -2.1742   -1.5788 C   0  0  0  0  0  0  0  0  0  0  0  0
    1.9944   -2.3804   -0.5963 N   0  0  0  0  0  0  0  0  0  0  0  0
    2.1216   -1.6609    0.5390 C   0  0  0  0  0  0  0  0  0  0  0  0
    0.9446   -1.9802    1.8160 S   0  0  0  0  0  0  0  0  0  0  0  0
   -0.6062   -1.6808    0.8808 C   0  0  0  0  0  0  0  0  0  0  0  0
   -1.7332   -2.4568    1.5599 C   0  0  0  0  0  0  0  0  0  0  0  0
   -0.9618   -0.1813    0.8543 C   0  0  0  0  0  0  0  0  0  0  0  0
   -0.5834    0.6245    1.7054 O   0  0  0  0  0  0  0  0  0  0  0  0
   -1.8549    0.1394   -0.1815 N   0  0  0  0  0  0  0  0  0  0  0  0
   -3.2026    0.5505    0.1193 C   0  0  0  0  0  0  0  0  0  0  0  0
   -3.5807    0.8134    1.4535 C   0  0  0  0  0  0  0  0  0  0  0  0
   -4.8755    1.2221    1.7903 C   0  0  0  0  0  0  0  0  0  0  0  0
   -5.8366    1.3625    0.8018 C   0  0  0  0  0  0  0  0  0  0  0  0
   -5.5009    1.0781   -0.5188 C   0  0  0  0  0  0  0  0  0  0  0  0
   -4.1991    0.6687   -0.8647 C   0  0  0  0  0  0  0  0  0  0  0  0
   -3.9442    0.2258   -2.5632 S   0  0  0  0  0  0  0  0  0  0  0  0
   -2.1803    0.3195   -2.6546 C   0  0  0  0  0  0  0  0  0  0  0  0
   -1.6199    0.4237   -3.9413 C   0  0  0  0  0  0  0  0  0  0  0  0
   -0.2419    0.5100   -4.1191 C   0  0  0  0  0  0  0  0  0  0  0  0
    0.5883    0.5024   -3.0106 C   0  0  0  0  0  0  0  0  0  0  0  0
    0.0371    0.3858   -1.7319 C   0  0  0  0  0  0  0  0  0  0  0  0
   -1.3531    0.2703   -1.5244 C   0  0  0  0  0  0  0  0  0  0  0  0
    3.1597   -0.7210    0.6819 C   0  0  0  0  0  0  0  0  0  0  0  0
    3.6030    0.1930    1.7304 C   0  0  0  0  0  0  0  0  0  0  0  0
    2.9594    0.3317    3.0777 C   0  0  0  0  0  0  0  0  0  0  0  0
    6.3441    2.3377    1.5522 H   0  0  0  0  0  0  0  0  0  0  0  0
    4.8278    2.8115    2.3311 H   0  0  0  0  0  0  0  0  0  0  0  0
    5.8389    1.5347    3.0438 H   0  0  0  0  0  0  0  0  0  0  0  0
    2.7596   -2.7854   -2.4700 H   0  0  0  0  0  0  0  0  0  0  0  0
   -0.5030   -2.0616   -0.1389 H   0  0  0  0  0  0  0  0  0  0  0  0
   -1.5137   -3.5289    1.6092 H   0  0  0  0  0  0  0  0  0  0  0  0
   -1.9212   -2.0925    2.5768 H   0  0  0  0  0  0  0  0  0  0  0  0
   -2.6696   -2.3456    1.0019 H   0  0  0  0  0  0  0  0  0  0  0  0
   -2.8708    0.7345    2.2739 H   0  0  0  0  0  0  0  0  0  0  0  0
   -5.1230    1.4357    2.8282 H   0  0  0  0  0  0  0  0  0  0  0  0
   -6.8451    1.6803    1.0549 H   0  0  0  0  0  0  0  0  0  0  0  0
   -6.2706    1.1675   -1.2836 H   0  0  0  0  0  0  0  0  0  0  0  0
   -2.2617    0.4451   -4.8205 H   0  0  0  0  0  0  0  0  0  0  0  0
    0.1770    0.6000   -5.1170 H   0  0  0  0  0  0  0  0  0  0  0  0
    1.6653    0.5986   -3.1316 H   0  0  0  0  0  0  0  0  0  0  0  0
    0.7281    0.4372   -0.8944 H   0  0  0  0  0  0  0  0  0  0  0  0
    3.4949    1.0401    3.7169 H   0  0  0  0  0  0  0  0  0  0  0  0
    1.9336    0.6981    2.9789 H   0  0  0  0  0  0  0  0  0  0  0  0
    2.9551   -0.6293    3.6009 H   0  0  0  0  0  0  0  0  0  0  0  0
  1  2  1  0
  2  3  1  0
  3  4  1  0
  4  5  2  0
  5  6  1  0
  6  7  2  0
  7  8  1  0
  8  9  1  0
  9 10  1  0
 10 11  1  0
 10 12  1  0
 12 13  2  0
 12 14  1  0
 14 15  1  0
 15 16  2  0
 16 17  1  0
 17 18  2  0
 18 19  1  0
 19 20  2  0
 20 21  1  0
 21 22  1  0
 22 23  2  0
 23 24  1  0
 24 25  2  0
 25 26  1  0
 26 27  2  0
  8 28  2  0
 28 29  1  0
 29 30  1  0
 29  2  2  0
 28  4  1  0
 27 14  1  0
 20 15  1  0
 27 22  1  0
  1 31  1  0
  1 32  1  0
  1 33  1  0
  6 34  1  0
 10 35  1  0
 11 36  1  0
 11 37  1  0
 11 38  1  0
 16 39  1  0
 17 40  1  0
 18 41  1  0
 19 42  1  0
 23 43  1  0
 24 44  1  0
 25 45  1  0
 26 46  1  0
 30 47  1  0
 30 48  1  0
 30 49  1  0
M  END
$$$$
