
     RDKit          3D

 37 39  0  0  0  0  0  0  0  0999 V2000
    4.5607    0.2808   -0.0900 N   0  0  0  0  0  0  0  0  0  0  0  0
    3.4260    0.2140    0.8216 C   0  0  0  0  0  0  0  0  0  0  0  0
    2.1458   -0.1219    0.0598 C   0  0  0  0  0  0  0  0  0  0  0  0
    0.9603   -0.2437    1.0283 C   0  0  0  0  0  0  0  0  0  0  0  0
   -0.3114   -0.5120    0.3169 N   0  0  0  0  0  0  0  0  0  0  0  0
   -0.6914   -1.8784    0.1629 C   0  0  0  0  0  0  0  0  0  0  0  0
    0.2302   -2.9397    0.3165 C   0  0  0  0  0  0  0  0  0  0  0  0
   -0.1302   -4.2835    0.1547 C   0  0  0  0  0  0  0  0  0  0  0  0
   -1.4333   -4.6160   -0.1720 C   0  0  0  0  0  0  0  0  0  0  0  0
   -2.3675   -3.6009   -0.3386 C   0  0  0  0  0  0  0  0  0  0  0  0
   -2.0084   -2.2471   -0.1798 C   0  0  0  0  0  0  0  0  0  0  0  0
   -3.3291   -1.0796   -0.4014 S   0  0  0  0  0  0  0  0  0  0  0  0
   -2.4645    0.4717   -0.4074 C   0  0  0  0  0  0  0  0  0  0  0  0
   -3.2385    1.5908   -0.7715 C   0  0  0  0  0  0  0  0  0  0  0  0
   -2.6904    2.8689   -0.7962 C   0  0  0  0  0  0  0  0  0  0  0  0
   -1.3509    3.0486   -0.4624 C   0  0  0  0  0  0  0  0  0  0  0  0
   -0.7297    4.4232   -0.4661 C   0  0  0  0  0  0  0  0  0  0  0  0
    0.5817    4.4117   -0.8374 F   0  0  0  0  0  0  0  0  0  0  0  0
   -0.7622    5.0070    0.7633 F   0  0  0  0  0  0  0  0  0  0  0  0
   -1.3475    5.2934   -1.3120 F   0  0  0  0  0  0  0  0  0  0  0  0
   -0.5868    1.9248   -0.0870 C   0  0  0  0  0  0  0  0  0  0  0  0
   -1.1104    0.6113   -0.0445 C   0  0  0  0  0  0  0  0  0  0  0  0
    5.3962    0.5658    0.4203 H   0  0  0  0  0  0  0  0  0  0  0  0
    4.4012    0.9975   -0.7979 H   0  0  0  0  0  0  0  0  0  0  0  0
    3.6255   -0.5511    1.5795 H   0  0  0  0  0  0  0  0  0  0  0  0
    3.3180    1.1748    1.3370 H   0  0  0  0  0  0  0  0  0  0  0  0
    2.2813   -1.0551   -0.4987 H   0  0  0  0  0  0  0  0  0  0  0  0
    1.9509    0.6502   -0.6936 H   0  0  0  0  0  0  0  0  0  0  0  0
    0.8786    0.6611    1.6450 H   0  0  0  0  0  0  0  0  0  0  0  0
    1.1628   -1.0175    1.7806 H   0  0  0  0  0  0  0  0  0  0  0  0
    1.2741   -2.7585    0.5501 H   0  0  0  0  0  0  0  0  0  0  0  0
    0.6169   -5.0633    0.2799 H   0  0  0  0  0  0  0  0  0  0  0  0
   -1.7228   -5.6550   -0.3003 H   0  0  0  0  0  0  0  0  0  0  0  0
   -3.3902   -3.8702   -0.5957 H   0  0  0  0  0  0  0  0  0  0  0  0
   -4.2871    1.4670   -1.0387 H   0  0  0  0  0  0  0  0  0  0  0  0
   -3.3130    3.7154   -1.0804 H   0  0  0  0  0  0  0  0  0  0  0  0
    0.4552    2.1157    0.1551 H   0  0  0  0  0  0  0  0  0  0  0  0
  1  2  1  0
  2  3  1  0
  3  4  1  0
  4  5  1  0
  5  6  1  0
  6  7  2  0
  7  8  1  0
  8  9  2  0
  9 10  1  0
 10 11  2  0
 11 12  1  0
 12 13  1  0
 13 14  2  0
 14 15  1  0
 15 16  2  0
 16 17  1  0
 17 18  1  0
 17 19  1  0
 17 20  1  0
 16 21  1  0
 21 22  2  0
 22  5  1  0
 11  6  1  0
 22 13  1  0
  1 23  1  0
  1 24  1  0
  2 25  1  0
  2 26  1  0
  3 27  1  0
  3 28  1  0
  4 29  1  0
  4 30  1  0
  7 31  1  0
  8 32  1  0
  9 33  1  0
 10 34  1  0
 14 35  1  0
 15 36  1  0
 21 37  1  0
M  END
$$$$
