
     RDKit          3D

 55 60  0  0  0  0  0  0  0  0999 V2000
   -4.3782    1.1070   -2.7922 O   0  0  0  0  0  0  0  0  0  0  0  0
   -4.0566    1.0222   -1.6077 C   0  0  0  0  0  0  0  0  0  0  0  0
   -5.0770    0.9736   -0.5728 C   0  0  0  0  0  0  0  0  0  0  0  0
   -5.1367    0.2367    0.6476 C   0  0  0  0  0  0  0  0  0  0  0  0
   -6.3501    0.5279    1.2250 C   0  0  0  0  0  0  0  0  0  0  0  0
   -7.0575    1.3744    0.4356 O   0  0  0  0  0  0  0  0  0  0  0  0
   -6.2942    1.6209   -0.6592 C   0  0  0  0  0  0  0  0  0  0  0  0
   -2.7153    0.9342   -1.2241 N   0  0  0  0  0  0  0  0  0  0  0  0
   -2.1859    1.3927    0.0510 C   0  0  0  0  0  0  0  0  0  0  0  0
   -1.1802    0.3940    0.6241 C   0  0  0  0  0  0  0  0  0  0  0  0
   -0.2798   -0.2742   -0.4642 C   0  0  0  0  0  0  0  0  0  0  0  0
   -0.3114    0.5691   -1.7619 C   0  0  0  0  0  0  0  0  0  0  0  0
   -1.7378    0.7487   -2.2874 C   0  0  0  0  0  0  0  0  0  0  0  0
   -0.9498   -1.5380   -0.7289 O   0  0  0  0  0  0  0  0  0  0  0  0
   -0.2295   -2.5375   -1.3089 C   0  0  0  0  0  0  0  0  0  0  0  0
   -0.9663   -3.6201   -1.7932 C   0  0  0  0  0  0  0  0  0  0  0  0
   -0.3157   -4.6832   -2.4217 C   0  0  0  0  0  0  0  0  0  0  0  0
    1.0684   -4.6572   -2.5587 C   0  0  0  0  0  0  0  0  0  0  0  0
    1.6888   -5.6763   -3.1662 F   0  0  0  0  0  0  0  0  0  0  0  0
    1.8155   -3.5922   -2.0734 C   0  0  0  0  0  0  0  0  0  0  0  0
    1.1556   -2.5373   -1.4375 C   0  0  0  0  0  0  0  0  0  0  0  0
    1.9127   -1.4007   -0.8989 C   0  0  0  0  0  0  0  0  0  0  0  0
    3.0765   -1.2247   -1.2502 O   0  0  0  0  0  0  0  0  0  0  0  0
    1.1624   -0.4947    0.0702 C   0  0  0  0  0  0  0  0  0  0  0  0
    1.9454    0.7833    0.3420 C   0  0  0  0  0  0  0  0  0  0  0  0
    2.6030    0.3866    1.6197 C   0  0  0  0  0  0  0  0  0  0  0  0
    3.7007    1.1818    2.2197 C   0  0  0  0  0  0  0  0  0  0  0  0
    4.1407    2.3784    1.6422 C   0  0  0  0  0  0  0  0  0  0  0  0
    5.1750    3.1046    2.2391 C   0  0  0  0  0  0  0  0  0  0  0  0
    5.7712    2.6416    3.4113 C   0  0  0  0  0  0  0  0  0  0  0  0
    5.3362    1.4515    3.9910 C   0  0  0  0  0  0  0  0  0  0  0  0
    4.3035    0.7229    3.3979 C   0  0  0  0  0  0  0  0  0  0  0  0
    2.1148   -0.6767    2.1751 N   0  0  0  0  0  0  0  0  0  0  0  0
    1.1001   -1.1783    1.3327 O   0  0  0  0  0  0  0  0  0  0  0  0
   -4.3918   -0.4372    1.0471 H   0  0  0  0  0  0  0  0  0  0  0  0
   -6.8414    0.2188    2.1373 H   0  0  0  0  0  0  0  0  0  0  0  0
   -6.7387    2.2658   -1.4053 H   0  0  0  0  0  0  0  0  0  0  0  0
   -2.9654    1.6130    0.7821 H   0  0  0  0  0  0  0  0  0  0  0  0
   -1.6906    2.3539   -0.1396 H   0  0  0  0  0  0  0  0  0  0  0  0
   -1.7346   -0.3850    1.1647 H   0  0  0  0  0  0  0  0  0  0  0  0
   -0.5921    0.9240    1.3807 H   0  0  0  0  0  0  0  0  0  0  0  0
    0.2873    0.1123   -2.5582 H   0  0  0  0  0  0  0  0  0  0  0  0
    0.1256    1.5576   -1.5737 H   0  0  0  0  0  0  0  0  0  0  0  0
   -2.0420   -0.1258   -2.8756 H   0  0  0  0  0  0  0  0  0  0  0  0
   -1.7783    1.6169   -2.9561 H   0  0  0  0  0  0  0  0  0  0  0  0
   -2.0488   -3.6329   -1.6883 H   0  0  0  0  0  0  0  0  0  0  0  0
   -0.8785   -5.5286   -2.8060 H   0  0  0  0  0  0  0  0  0  0  0  0
    2.8958   -3.5971   -2.1847 H   0  0  0  0  0  0  0  0  0  0  0  0
    1.3103    1.6511    0.5417 H   0  0  0  0  0  0  0  0  0  0  0  0
    2.6629    1.0429   -0.4397 H   0  0  0  0  0  0  0  0  0  0  0  0
    3.6992    2.7680    0.7305 H   0  0  0  0  0  0  0  0  0  0  0  0
    5.5187    4.0327    1.7883 H   0  0  0  0  0  0  0  0  0  0  0  0
    6.5771    3.2073    3.8727 H   0  0  0  0  0  0  0  0  0  0  0  0
    5.8011    1.0874    4.9040 H   0  0  0  0  0  0  0  0  0  0  0  0
    3.9758   -0.2061    3.8606 H   0  0  0  0  0  0  0  0  0  0  0  0
  1  2  2  0
  2  3  1  0
  3  4  1  0
  4  5  2  0
  5  6  1  0
  6  7  1  0
  2  8  1  0
  8  9  1  0
  9 10  1  0
 10 11  1  0
 11 12  1  0
 12 13  1  0
 11 14  1  0
 14 15  1  0
 15 16  2  0
 16 17  1  0
 17 18  2  0
 18 19  1  0
 18 20  1  0
 20 21  2  0
 21 22  1  0
 22 23  2  0
 22 24  1  0
 24 25  1  0
 25 26  1  0
 26 27  1  0
 27 28  2  0
 28 29  1  0
 29 30  2  0
 30 31  1  0
 31 32  2  0
 26 33  2  0
 33 34  1  0
  7  3  2  0
 13  8  1  0
 21 15  1  0
 34 24  1  0
 24 11  1  0
 32 27  1  0
  4 35  1  0
  5 36  1  0
  7 37  1  0
  9 38  1  0
  9 39  1  0
 10 40  1  0
 10 41  1  0
 12 42  1  0
 12 43  1  0
 13 44  1  0
 13 45  1  0
 16 46  1  0
 17 47  1  0
 20 48  1  0
 25 49  1  0
 25 50  1  0
 28 51  1  0
 29 52  1  0
 30 53  1  0
 31 54  1  0
 32 55  1  0
M  END
$$$$
