
     RDKit          3D

 92 94  0  0  0  0  0  0  0  0999 V2000
   -2.9001   -2.7613    3.7067 C   0  0  0  0  0  0  0  0  0  0  0  0
   -2.0567   -1.8589    2.8594 C   0  0  0  0  0  0  0  0  0  0  0  0
   -0.9559   -1.4350    3.1806 O   0  0  0  0  0  0  0  0  0  0  0  0
   -2.6951   -1.5884    1.6919 O   0  0  0  0  0  0  0  0  0  0  0  0
   -2.0067   -0.7449    0.7177 C   0  0  1  0  0  0  0  0  0  0  0  0
   -1.2606   -1.6670   -0.2948 C   0  0  2  0  0  0  0  0  0  0  0  0
   -0.1209   -2.2857    0.3567 O   0  0  0  0  0  0  0  0  0  0  0  0
   -0.2886   -3.5355    0.8578 C   0  0  0  0  0  0  0  0  0  0  0  0
    0.9554   -4.0001    1.5500 C   0  0  0  0  0  0  0  0  0  0  0  0
   -1.3094   -4.2051    0.7762 O   0  0  0  0  0  0  0  0  0  0  0  0
   -0.6930   -1.0362   -1.5678 C   0  0  0  0  0  0  0  0  0  0  0  0
   -1.1507   -1.7289   -2.8329 C   0  0  0  0  0  0  0  0  0  0  0  0
    0.2075   -0.0312   -1.6653 C   0  0  0  0  0  0  0  0  0  0  0  0
    0.8973    0.7456   -0.5494 C   0  0  1  0  0  0  0  0  0  0  0  0
    2.4041    0.3576   -0.3962 C   0  0  1  0  0  0  0  0  0  0  0  0
    2.6373   -0.9953   -0.8072 O   0  0  0  0  0  0  0  0  0  0  0  0
    3.6847   -1.6298   -0.2326 C   0  0  0  0  0  0  0  0  0  0  0  0
    4.4590   -1.1464    0.5764 O   0  0  0  0  0  0  0  0  0  0  0  0
    3.7772   -3.0264   -0.7348 C   0  0  0  0  0  0  0  0  0  0  0  0
    4.8239   -3.8290   -0.2609 C   0  0  0  0  0  0  0  0  0  0  0  0
    4.9429   -5.1527   -0.6872 C   0  0  0  0  0  0  0  0  0  0  0  0
    4.0172   -5.6814   -1.5860 C   0  0  0  0  0  0  0  0  0  0  0  0
    2.9719   -4.8897   -2.0619 C   0  0  0  0  0  0  0  0  0  0  0  0
    2.8501   -3.5634   -1.6404 C   0  0  0  0  0  0  0  0  0  0  0  0
    3.2095    1.4019   -1.2037 C   0  0  1  0  0  0  0  0  0  0  0  0
    4.0629    0.8629   -2.3464 C   0  0  0  0  0  0  0  0  0  0  0  0
    2.1756    2.4108   -1.7136 C   0  0  0  0  0  0  0  0  0  0  0  0
    0.9640    2.2994   -0.7670 C   0  0  1  0  0  0  0  0  0  0  0  0
   -0.1709    2.8172   -1.4586 O   0  0  0  0  0  0  0  0  0  0  0  0
    1.1591    3.0583    0.6098 C   0  0  1  0  0  0  0  0  0  0  0  0
    2.0837    4.1656    0.4182 O   0  0  0  0  0  0  0  0  0  0  0  0
    3.0157    4.3608    1.3917 C   0  0  0  0  0  0  0  0  0  0  0  0
    3.8728    5.5398    1.0549 C   0  0  0  0  0  0  0  0  0  0  0  0
    3.1331    3.6831    2.4045 O   0  0  0  0  0  0  0  0  0  0  0  0
   -0.1217    3.6338    1.3095 C   0  0  1  0  0  0  0  0  0  0  0  0
   -0.6135    4.9625    0.7033 C   0  0  0  0  0  0  0  0  0  0  0  0
   -1.2261    2.6166    1.5378 C   0  0  0  0  0  0  0  0  0  0  0  0
   -2.3059    2.4590    0.7509 C   0  0  0  0  0  0  0  0  0  0  0  0
   -3.4489    1.4480    0.8890 C   0  0  0  0  0  0  0  0  0  0  0  0
   -3.7913    1.1421    2.3595 C   0  0  0  0  0  0  0  0  0  0  0  0
   -4.7077    2.1272    0.2851 C   0  0  0  0  0  0  0  0  0  0  0  0
   -3.0773    0.1656    0.0504 C   0  0  2  0  0  0  0  0  0  0  0  0
   -4.2648   -0.6343   -0.1900 O   0  0  0  0  0  0  0  0  0  0  0  0
   -4.7428   -0.6881   -1.4587 C   0  0  0  0  0  0  0  0  0  0  0  0
   -5.9616   -1.5558   -1.5111 C   0  0  0  0  0  0  0  0  0  0  0  0
   -4.2746   -0.1026   -2.4214 O   0  0  0  0  0  0  0  0  0  0  0  0
   -3.0644   -3.7127    3.1907 H   0  0  0  0  0  0  0  0  0  0  0  0
   -2.3802   -2.9628    4.6502 H   0  0  0  0  0  0  0  0  0  0  0  0
   -3.8537   -2.2730    3.9298 H   0  0  0  0  0  0  0  0  0  0  0  0
   -1.2785   -0.1347    1.2475 H   0  0  0  0  0  0  0  0  0  0  0  0
   -1.9652   -2.4520   -0.5963 H   0  0  0  0  0  0  0  0  0  0  0  0
    1.6573   -3.1737    1.6886 H   0  0  0  0  0  0  0  0  0  0  0  0
    0.6906   -4.3831    2.5388 H   0  0  0  0  0  0  0  0  0  0  0  0
    1.4351   -4.7797    0.9543 H   0  0  0  0  0  0  0  0  0  0  0  0
   -0.7258   -1.2818   -3.7356 H   0  0  0  0  0  0  0  0  0  0  0  0
   -2.2377   -1.6853   -2.9231 H   0  0  0  0  0  0  0  0  0  0  0  0
   -0.8482   -2.7811   -2.8123 H   0  0  0  0  0  0  0  0  0  0  0  0
    0.5540    0.2276   -2.6666 H   0  0  0  0  0  0  0  0  0  0  0  0
    0.4057    0.5197    0.3934 H   0  0  0  0  0  0  0  0  0  0  0  0
    2.6606    0.4611    0.6673 H   0  0  0  0  0  0  0  0  0  0  0  0
    5.5459   -3.4255    0.4468 H   0  0  0  0  0  0  0  0  0  0  0  0
    5.7574   -5.7700   -0.3160 H   0  0  0  0  0  0  0  0  0  0  0  0
    4.1136   -6.7125   -1.9188 H   0  0  0  0  0  0  0  0  0  0  0  0
    2.2494   -5.3053   -2.7581 H   0  0  0  0  0  0  0  0  0  0  0  0
    2.0228   -2.9666   -2.0168 H   0  0  0  0  0  0  0  0  0  0  0  0
    3.8801    1.9214   -0.5056 H   0  0  0  0  0  0  0  0  0  0  0  0
    4.5214    1.6891   -2.9001 H   0  0  0  0  0  0  0  0  0  0  0  0
    3.4690    0.2708   -3.0475 H   0  0  0  0  0  0  0  0  0  0  0  0
    4.8713    0.2312   -1.9689 H   0  0  0  0  0  0  0  0  0  0  0  0
    2.5886    3.4216   -1.7922 H   0  0  0  0  0  0  0  0  0  0  0  0
    1.8727    2.1590   -2.7376 H   0  0  0  0  0  0  0  0  0  0  0  0
   -0.2953    2.3239   -2.2860 H   0  0  0  0  0  0  0  0  0  0  0  0
    1.6138    2.3424    1.3055 H   0  0  0  0  0  0  0  0  0  0  0  0
    4.1453    5.5147   -0.0020 H   0  0  0  0  0  0  0  0  0  0  0  0
    3.3360    6.4645    1.2893 H   0  0  0  0  0  0  0  0  0  0  0  0
    4.7959    5.4943    1.6410 H   0  0  0  0  0  0  0  0  0  0  0  0
    0.2011    3.9199    2.3222 H   0  0  0  0  0  0  0  0  0  0  0  0
   -1.4976    5.3263    1.2386 H   0  0  0  0  0  0  0  0  0  0  0  0
    0.1535    5.7415    0.7852 H   0  0  0  0  0  0  0  0  0  0  0  0
   -0.8765    4.8722   -0.3540 H   0  0  0  0  0  0  0  0  0  0  0  0
   -1.0900    1.9759    2.4102 H   0  0  0  0  0  0  0  0  0  0  0  0
   -2.3742    3.0920   -0.1328 H   0  0  0  0  0  0  0  0  0  0  0  0
   -4.1182    2.0506    2.8831 H   0  0  0  0  0  0  0  0  0  0  0  0
   -4.6084    0.4152    2.4276 H   0  0  0  0  0  0  0  0  0  0  0  0
   -2.9405    0.7487    2.9208 H   0  0  0  0  0  0  0  0  0  0  0  0
   -4.9029    3.0969    0.7611 H   0  0  0  0  0  0  0  0  0  0  0  0
   -4.5901    2.3054   -0.7909 H   0  0  0  0  0  0  0  0  0  0  0  0
   -5.6034    1.5123    0.4230 H   0  0  0  0  0  0  0  0  0  0  0  0
   -2.6751    0.5310   -0.9019 H   0  0  0  0  0  0  0  0  0  0  0  0
   -6.2098   -1.7711   -2.5542 H   0  0  0  0  0  0  0  0  0  0  0  0
   -5.7634   -2.5060   -1.0081 H   0  0  0  0  0  0  0  0  0  0  0  0
   -6.8021   -1.0369   -1.0400 H   0  0  0  0  0  0  0  0  0  0  0  0
  1  2  1  0
  2  3  2  0
  2  4  1  0
  4  5  1  0
  5  6  1  0
  6  7  1  0
  7  8  1  0
  8  9  1  0
  8 10  2  0
  6 11  1  0
 11 12  1  0
 11 13  2  0
 13 14  1  0
 14 15  1  0
 15 16  1  0
 16 17  1  0
 17 18  2  0
 17 19  1  0
 19 20  2  0
 20 21  1  0
 21 22  2  0
 22 23  1  0
 23 24  2  0
 15 25  1  0
 25 26  1  0
 25 27  1  0
 27 28  1  0
 28 29  1  6
 28 30  1  0
 30 31  1  0
 31 32  1  0
 32 33  1  0
 32 34  2  0
 30 35  1  0
 35 36  1  0
 35 37  1  0
 37 38  2  0
 38 39  1  0
 39 40  1  0
 39 41  1  0
 39 42  1  0
 42 43  1  0
 43 44  1  0
 44 45  1  0
 44 46  2  0
 42  5  1  0
 28 14  1  0
 24 19  1  0
  1 47  1  0
  1 48  1  0
  1 49  1  0
  5 50  1  1
  6 51  1  6
  9 52  1  0
  9 53  1  0
  9 54  1  0
 12 55  1  0
 12 56  1  0
 12 57  1  0
 13 58  1  0
 14 59  1  1
 15 60  1  1
 20 61  1  0
 21 62  1  0
 22 63  1  0
 23 64  1  0
 24 65  1  0
 25 66  1  1
 26 67  1  0
 26 68  1  0
 26 69  1  0
 27 70  1  0
 27 71  1  0
 29 72  1  0
 30 73  1  1
 33 74  1  0
 33 75  1  0
 33 76  1  0
 35 77  1  1
 36 78  1  0
 36 79  1  0
 36 80  1  0
 37 81  1  0
 38 82  1  0
 40 83  1  0
 40 84  1  0
 40 85  1  0
 41 86  1  0
 41 87  1  0
 41 88  1  0
 42 89  1  6
 45 90  1  0
 45 91  1  0
 45 92  1  0
M  END
$$$$
