
     RDKit          3D

 39 40  0  0  0  0  0  0  0  0999 V2000
   -0.8985   -3.3336    0.5703 C   0  0  0  0  0  0  0  0  0  0  0  0
   -1.2765   -1.9373    0.0797 C   0  0  0  0  0  0  0  0  0  0  0  0
   -2.2827   -2.1139   -0.9239 O   0  0  0  0  0  0  0  0  0  0  0  0
   -3.1318   -1.0414   -1.0044 C   0  0  0  0  0  0  0  0  0  0  0  0
   -2.9137   -0.1217   -2.0329 C   0  0  0  0  0  0  0  0  0  0  0  0
   -3.7731    0.9668   -2.1932 C   0  0  0  0  0  0  0  0  0  0  0  0
   -4.8653    1.1156   -1.3278 C   0  0  0  0  0  0  0  0  0  0  0  0
   -5.7713    2.2593   -1.4909 N   0  0  0  0  0  4  0  0  0  0  0  0
   -5.5545    3.0378   -2.4295 O   0  0  0  0  0  0  0  0  0  0  0  0
   -6.6958    2.3799   -0.6749 O   0  0  0  0  0  1  0  0  0  0  0  0
   -5.1073    0.1813   -0.3113 C   0  0  0  0  0  0  0  0  0  0  0  0
   -4.2415   -0.9035   -0.1598 C   0  0  0  0  0  0  0  0  0  0  0  0
   -4.5842   -2.0579    1.0769 Cl  0  0  0  0  0  0  0  0  0  0  0  0
   -0.0054   -1.2173   -0.4360 C   0  0  0  0  0  0  0  0  0  0  0  0
    0.1777   -0.9980   -1.6297 O   0  0  0  0  0  0  0  0  0  0  0  0
    0.8533   -0.8507    0.5951 N   0  0  0  0  0  0  0  0  0  0  0  0
    2.0979   -0.1954    0.4852 C   0  0  0  0  0  0  0  0  0  0  0  0
    2.7711    0.0985    1.6795 C   0  0  0  0  0  0  0  0  0  0  0  0
    4.0120    0.7475    1.6650 C   0  0  0  0  0  0  0  0  0  0  0  0
    4.5948    1.1140    0.4485 C   0  0  0  0  0  0  0  0  0  0  0  0
    5.9127    1.7986    0.3751 C   0  0  0  0  0  0  0  0  0  0  0  0
    6.3167    2.5079    1.4728 N   0  0  0  0  0  0  0  0  0  0  0  0
    6.6018    1.7642   -0.6359 O   0  0  0  0  0  0  0  0  0  0  0  0
    3.9351    0.8072   -0.7451 C   0  0  0  0  0  0  0  0  0  0  0  0
    2.6924    0.1612   -0.7260 C   0  0  0  0  0  0  0  0  0  0  0  0
   -0.4672   -3.9265   -0.2445 H   0  0  0  0  0  0  0  0  0  0  0  0
   -0.1700   -3.2991    1.3860 H   0  0  0  0  0  0  0  0  0  0  0  0
   -1.7855   -3.8722    0.9204 H   0  0  0  0  0  0  0  0  0  0  0  0
   -1.6663   -1.3638    0.9319 H   0  0  0  0  0  0  0  0  0  0  0  0
   -2.0731   -0.2542   -2.7126 H   0  0  0  0  0  0  0  0  0  0  0  0
   -3.5808    1.6777   -2.9951 H   0  0  0  0  0  0  0  0  0  0  0  0
   -5.9635    0.2837    0.3522 H   0  0  0  0  0  0  0  0  0  0  0  0
    0.5546   -1.0659    1.5383 H   0  0  0  0  0  0  0  0  0  0  0  0
    2.3459   -0.1789    2.6410 H   0  0  0  0  0  0  0  0  0  0  0  0
    4.5189    0.9320    2.6076 H   0  0  0  0  0  0  0  0  0  0  0  0
    5.6649    2.8106    2.1816 H   0  0  0  0  0  0  0  0  0  0  0  0
    7.1485    3.0707    1.3421 H   0  0  0  0  0  0  0  0  0  0  0  0
    4.3846    1.0700   -1.7016 H   0  0  0  0  0  0  0  0  0  0  0  0
    2.2248   -0.0532   -1.6821 H   0  0  0  0  0  0  0  0  0  0  0  0
  1  2  1  0
  2  3  1  0
  3  4  1  0
  4  5  2  0
  5  6  1  0
  6  7  2  0
  7  8  1  0
  8  9  2  0
  8 10  1  0
  7 11  1  0
 11 12  2  0
 12 13  1  0
  2 14  1  0
 14 15  2  0
 14 16  1  0
 16 17  1  0
 17 18  2  0
 18 19  1  0
 19 20  2  0
 20 21  1  0
 21 22  1  0
 21 23  2  0
 20 24  1  0
 24 25  2  0
 12  4  1  0
 25 17  1  0
  1 26  1  0
  1 27  1  0
  1 28  1  0
  2 29  1  0
  5 30  1  0
  6 31  1  0
 11 32  1  0
 16 33  1  0
 18 34  1  0
 19 35  1  0
 22 36  1  0
 22 37  1  0
 24 38  1  0
 25 39  1  0
M  CHG  2   8   1  10  -1
M  END
$$$$
