
     RDKit          3D

 56 61  0  0  0  0  0  0  0  0999 V2000
    5.5795   -0.5587   -1.5036 C   0  0  0  0  0  0  0  0  0  0  0  0
    4.5656   -0.5509   -0.3990 C   0  0  0  0  0  0  0  0  0  0  0  0
    4.9515   -0.5231    0.9553 C   0  0  0  0  0  0  0  0  0  0  0  0
    6.6208   -0.4859    1.4106 Cl  0  0  0  0  0  0  0  0  0  0  0  0
    4.0007   -0.5290    1.9954 C   0  0  0  0  0  0  0  0  0  0  0  0
    2.6346   -0.5645    1.7156 C   0  0  0  0  0  0  0  0  0  0  0  0
    2.2432   -0.5892    0.3874 C   0  0  0  0  0  0  0  0  0  0  0  0
    3.1980   -0.5907   -0.6414 C   0  0  0  0  0  0  0  0  0  0  0  0
    2.5519   -0.6490   -1.8756 N   0  0  0  0  0  0  0  0  0  0  0  0
    1.1656   -0.7196   -1.7327 C   0  0  0  0  0  0  0  0  0  0  0  0
    0.3729   -0.8605   -2.6514 O   0  0  0  0  0  0  0  0  0  0  0  0
    0.8686   -0.6316   -0.2134 C   0  0  0  0  0  0  0  0  0  0  0  0
    0.0106   -1.7545    0.2649 N   0  0  0  0  0  0  0  0  0  0  0  0
   -1.3777   -1.2380    0.5222 C   0  0  2  0  0  0  0  0  0  0  0  0
   -2.3955   -1.6050   -0.5791 C   0  0  0  0  0  0  0  0  0  0  0  0
   -2.5634   -3.0915   -0.7909 C   0  0  0  0  0  0  0  0  0  0  0  0
   -3.1685   -3.8928    0.1864 C   0  0  0  0  0  0  0  0  0  0  0  0
   -3.3087   -5.2668   -0.0149 C   0  0  0  0  0  0  0  0  0  0  0  0
   -2.8484   -5.8515   -1.1933 C   0  0  0  0  0  0  0  0  0  0  0  0
   -2.2488   -5.0630   -2.1731 C   0  0  0  0  0  0  0  0  0  0  0  0
   -2.1072   -3.6892   -1.9745 C   0  0  0  0  0  0  0  0  0  0  0  0
   -1.1574    0.2262    0.6046 C   0  0  0  0  0  0  0  0  0  0  0  0
    0.1235    0.5745    0.1852 C   0  0  0  0  0  0  0  0  0  0  0  0
    0.2597    1.9369    0.2708 C   0  0  0  0  0  0  0  0  0  0  0  0
    1.2885    2.7094   -0.0713 O   0  0  0  0  0  0  0  0  0  0  0  0
   -0.9599    2.4555    0.7640 N   0  0  0  0  0  0  0  0  0  0  0  0
   -1.2620    3.8415    1.0091 C   0  0  0  0  0  0  0  0  0  0  0  0
   -2.5910    4.2976    1.0062 C   0  0  0  0  0  0  0  0  0  0  0  0
   -2.8845    5.6446    1.2434 C   0  0  0  0  0  0  0  0  0  0  0  0
   -1.8535    6.5404    1.4855 C   0  0  0  0  0  0  0  0  0  0  0  0
   -2.1359    7.8297    1.7134 F   0  0  0  0  0  0  0  0  0  0  0  0
   -0.5331    6.1154    1.4942 C   0  0  0  0  0  0  0  0  0  0  0  0
   -0.2363    4.7693    1.2557 C   0  0  0  0  0  0  0  0  0  0  0  0
   -1.8271    1.3604    0.9783 C   0  0  0  0  0  0  0  0  0  0  0  0
   -3.0432    1.4882    1.5030 O   0  0  0  0  0  0  0  0  0  0  0  0
    6.2490    0.3032   -1.4149 H   0  0  0  0  0  0  0  0  0  0  0  0
    5.1195   -0.4982   -2.4938 H   0  0  0  0  0  0  0  0  0  0  0  0
    6.1675   -1.4817   -1.4708 H   0  0  0  0  0  0  0  0  0  0  0  0
    4.3290   -0.5104    3.0329 H   0  0  0  0  0  0  0  0  0  0  0  0
    1.8998   -0.5759    2.5158 H   0  0  0  0  0  0  0  0  0  0  0  0
    2.9973   -0.7110   -2.7793 H   0  0  0  0  0  0  0  0  0  0  0  0
   -0.0271   -2.4747   -0.4556 H   0  0  0  0  0  0  0  0  0  0  0  0
   -1.7062   -1.6285    1.4920 H   0  0  0  0  0  0  0  0  0  0  0  0
   -2.1183   -1.1270   -1.5283 H   0  0  0  0  0  0  0  0  0  0  0  0
   -3.3779   -1.1832   -0.3259 H   0  0  0  0  0  0  0  0  0  0  0  0
   -3.5365   -3.4554    1.1113 H   0  0  0  0  0  0  0  0  0  0  0  0
   -3.7786   -5.8825    0.7478 H   0  0  0  0  0  0  0  0  0  0  0  0
   -2.9594   -6.9213   -1.3492 H   0  0  0  0  0  0  0  0  0  0  0  0
   -1.8928   -5.5172   -3.0943 H   0  0  0  0  0  0  0  0  0  0  0  0
   -1.6375   -3.0872   -2.7514 H   0  0  0  0  0  0  0  0  0  0  0  0
    2.0188    2.1377   -0.3650 H   0  0  0  0  0  0  0  0  0  0  0  0
   -3.4225    3.6354    0.7854 H   0  0  0  0  0  0  0  0  0  0  0  0
   -3.9112    5.9957    1.2330 H   0  0  0  0  0  0  0  0  0  0  0  0
    0.2604    6.8288    1.6917 H   0  0  0  0  0  0  0  0  0  0  0  0
    0.8062    4.4707    1.3056 H   0  0  0  0  0  0  0  0  0  0  0  0
   -3.4126    0.5979    1.6312 H   0  0  0  0  0  0  0  0  0  0  0  0
  1  2  1  0
  2  3  2  0
  3  4  1  0
  3  5  1  0
  5  6  2  0
  6  7  1  0
  7  8  2  0
  8  9  1  0
  9 10  1  0
 10 11  2  0
 10 12  1  0
 12 13  1  0
 13 14  1  0
 14 15  1  0
 15 16  1  0
 16 17  2  0
 17 18  1  0
 18 19  2  0
 19 20  1  0
 20 21  2  0
 14 22  1  0
 22 23  1  0
 23 24  2  0
 24 25  1  0
 24 26  1  0
 26 27  1  0
 27 28  2  0
 28 29  1  0
 29 30  2  0
 30 31  1  0
 30 32  1  0
 32 33  2  0
 26 34  1  0
 34 35  1  0
  8  2  1  0
 23 12  1  0
 33 27  1  0
 12  7  1  0
 21 16  1  0
 34 22  2  0
  1 36  1  0
  1 37  1  0
  1 38  1  0
  5 39  1  0
  6 40  1  0
  9 41  1  0
 13 42  1  0
 14 43  1  1
 15 44  1  0
 15 45  1  0
 17 46  1  0
 18 47  1  0
 19 48  1  0
 20 49  1  0
 21 50  1  0
 25 51  1  0
 28 52  1  0
 29 53  1  0
 32 54  1  0
 33 55  1  0
 35 56  1  0
M  END
$$$$
