
     RDKit          3D

 41 42  0  0  0  0  0  0  0  0999 V2000
    6.9359   -0.9287    0.1124 C   0  0  0  0  0  0  0  0  0  0  0  0
    5.6118   -0.4277    0.3000 O   0  0  0  0  0  0  0  0  0  0  0  0
    4.9295   -0.2166   -0.8587 C   0  0  0  0  0  0  0  0  0  0  0  0
    5.3823   -0.4379   -1.9747 O   0  0  0  0  0  0  0  0  0  0  0  0
    3.5805    0.2538   -0.5937 C   0  0  0  0  0  0  0  0  0  0  0  0
    2.5500    0.2675   -1.5226 C   0  0  0  0  0  0  0  0  0  0  0  0
    1.3797    0.7196   -0.8850 C   0  0  0  0  0  0  0  0  0  0  0  0
    1.6874    0.9909    0.4389 C   0  0  0  0  0  0  0  0  0  0  0  0
    0.6481    1.5360    1.7818 S   0  0  0  0  0  6  0  0  0  0  0  0
    0.8444    2.9655    1.8072 O   0  0  0  0  0  0  0  0  0  0  0  0
    0.9897    0.6729    2.8880 O   0  0  0  0  0  0  0  0  0  0  0  0
   -0.9357    1.2443    1.3278 N   0  0  0  0  0  0  0  0  0  0  0  0
   -1.3613   -0.1579    1.3067 C   0  0  0  0  0  0  0  0  0  0  0  0
   -2.7011   -0.3014    0.6266 C   0  0  0  0  0  0  0  0  0  0  0  0
   -2.8139   -0.9378   -0.6166 C   0  0  0  0  0  0  0  0  0  0  0  0
   -4.0574   -1.0537   -1.2496 C   0  0  0  0  0  0  0  0  0  0  0  0
   -5.2029   -0.5312   -0.6494 C   0  0  0  0  0  0  0  0  0  0  0  0
   -6.4710   -0.5757   -1.1589 O   0  0  0  0  0  0  0  0  0  0  0  0
   -6.6400   -1.2295   -2.4101 C   0  0  0  0  0  0  0  0  0  0  0  0
   -5.0927    0.1083    0.5868 C   0  0  0  0  0  0  0  0  0  0  0  0
   -3.8543    0.2250    1.2218 C   0  0  0  0  0  0  0  0  0  0  0  0
    3.0542    0.7872    0.5764 N   0  0  0  0  0  0  0  0  0  0  0  0
    3.8225    1.1287    1.7603 C   0  0  0  0  0  0  0  0  0  0  0  0
    6.9105   -1.9037   -0.3843 H   0  0  0  0  0  0  0  0  0  0  0  0
    7.3923   -1.0549    1.0981 H   0  0  0  0  0  0  0  0  0  0  0  0
    7.5390   -0.2160   -0.4589 H   0  0  0  0  0  0  0  0  0  0  0  0
    2.6456   -0.0515   -2.5548 H   0  0  0  0  0  0  0  0  0  0  0  0
    0.4009    0.8213   -1.3355 H   0  0  0  0  0  0  0  0  0  0  0  0
   -1.2119    1.7960    0.5174 H   0  0  0  0  0  0  0  0  0  0  0  0
   -1.4395   -0.5393    2.3312 H   0  0  0  0  0  0  0  0  0  0  0  0
   -0.6240   -0.7752    0.7824 H   0  0  0  0  0  0  0  0  0  0  0  0
   -1.9355   -1.3540   -1.1057 H   0  0  0  0  0  0  0  0  0  0  0  0
   -4.0958   -1.5577   -2.2096 H   0  0  0  0  0  0  0  0  0  0  0  0
   -7.7019   -1.1843   -2.6702 H   0  0  0  0  0  0  0  0  0  0  0  0
   -6.0814   -0.7182   -3.2010 H   0  0  0  0  0  0  0  0  0  0  0  0
   -6.3577   -2.2856   -2.3452 H   0  0  0  0  0  0  0  0  0  0  0  0
   -5.9806    0.5211    1.0602 H   0  0  0  0  0  0  0  0  0  0  0  0
   -3.7930    0.7333    2.1824 H   0  0  0  0  0  0  0  0  0  0  0  0
    3.9573    0.2218    2.3540 H   0  0  0  0  0  0  0  0  0  0  0  0
    4.7823    1.5514    1.4534 H   0  0  0  0  0  0  0  0  0  0  0  0
    3.3077    1.8936    2.3429 H   0  0  0  0  0  0  0  0  0  0  0  0
  1  2  1  0
  2  3  1  0
  3  4  2  0
  3  5  1  0
  5  6  2  0
  6  7  1  0
  7  8  2  0
  8  9  1  0
  9 10  2  0
  9 11  2  0
  9 12  1  0
 12 13  1  0
 13 14  1  0
 14 15  2  0
 15 16  1  0
 16 17  2  0
 17 18  1  0
 18 19  1  0
 17 20  1  0
 20 21  2  0
  8 22  1  0
 22 23  1  0
 22  5  1  0
 21 14  1  0
  1 24  1  0
  1 25  1  0
  1 26  1  0
  6 27  1  0
  7 28  1  0
 12 29  1  0
 13 30  1  0
 13 31  1  0
 15 32  1  0
 16 33  1  0
 19 34  1  0
 19 35  1  0
 19 36  1  0
 20 37  1  0
 21 38  1  0
 23 39  1  0
 23 40  1  0
 23 41  1  0
M  END
$$$$
