
     RDKit          3D

 39 39  0  0  0  0  0  0  0  0999 V2000
   -4.6496    3.5681    0.9092 C   0  0  0  0  0  0  0  0  0  0  0  0
   -3.7483    2.4193    1.2430 C   0  0  0  0  0  0  0  0  0  0  0  0
   -3.8283    1.7491    2.2623 O   0  0  0  0  0  0  0  0  0  0  0  0
   -2.8362    2.2378    0.2483 O   0  0  0  0  0  0  0  0  0  0  0  0
   -1.9229    1.1546    0.4799 C   0  0  0  0  0  0  0  0  0  0  0  0
   -0.9263    1.1273   -0.6760 C   0  0  0  0  0  0  0  0  0  0  0  0
    0.1476    0.0413   -0.5022 C   0  0  0  0  0  0  0  0  0  0  0  0
    1.1676    0.1868   -1.5543 N   0  0  0  0  0  0  0  0  0  0  0  0
    2.5787    0.9783   -1.1648 S   0  0  0  0  0  6  0  0  0  0  0  0
    2.2297    2.1760   -0.4375 O   0  0  0  0  0  0  0  0  0  0  0  0
    3.3693    1.0367   -2.3712 O   0  0  0  0  0  0  0  0  0  0  0  0
    3.3020   -0.0364   -0.1340 O   0  0  0  0  0  0  0  0  0  0  0  0
    4.6055    0.3140    0.3225 C   0  0  0  0  0  0  0  0  0  0  0  0
    5.0508   -0.5907    1.4786 C   0  0  0  0  0  0  0  0  0  0  0  0
    5.1252   -2.3012    0.9555 Cl  0  0  0  0  0  0  0  0  0  0  0  0
    3.9114   -0.4556    2.8562 Cl  0  0  0  0  0  0  0  0  0  0  0  0
    6.6797   -0.0930    2.0351 Cl  0  0  0  0  0  0  0  0  0  0  0  0
   -0.4216   -1.3675   -0.5399 C   0  0  0  0  0  0  0  0  0  0  0  0
   -0.2084   -2.2353    0.5437 C   0  0  0  0  0  0  0  0  0  0  0  0
   -0.7225   -3.5333    0.5291 C   0  0  0  0  0  0  0  0  0  0  0  0
   -1.4499   -3.9840   -0.5695 C   0  0  0  0  0  0  0  0  0  0  0  0
   -1.6600   -3.1400   -1.6573 C   0  0  0  0  0  0  0  0  0  0  0  0
   -1.1469   -1.8414   -1.6455 C   0  0  0  0  0  0  0  0  0  0  0  0
   -5.1906    3.3578   -0.0168 H   0  0  0  0  0  0  0  0  0  0  0  0
   -4.0620    4.4844    0.8127 H   0  0  0  0  0  0  0  0  0  0  0  0
   -5.3771    3.7038    1.7146 H   0  0  0  0  0  0  0  0  0  0  0  0
   -1.3946    1.3176    1.4268 H   0  0  0  0  0  0  0  0  0  0  0  0
   -2.4891    0.2181    0.5294 H   0  0  0  0  0  0  0  0  0  0  0  0
   -1.4688    1.0113   -1.6232 H   0  0  0  0  0  0  0  0  0  0  0  0
   -0.4536    2.1156   -0.7479 H   0  0  0  0  0  0  0  0  0  0  0  0
    0.6210    0.1836    0.4783 H   0  0  0  0  0  0  0  0  0  0  0  0
    0.8345    0.4081   -2.4890 H   0  0  0  0  0  0  0  0  0  0  0  0
    4.6027    1.3619    0.6491 H   0  0  0  0  0  0  0  0  0  0  0  0
    5.3024    0.2293   -0.5205 H   0  0  0  0  0  0  0  0  0  0  0  0
    0.3631   -1.9104    1.4111 H   0  0  0  0  0  0  0  0  0  0  0  0
   -0.5516   -4.1944    1.3752 H   0  0  0  0  0  0  0  0  0  0  0  0
   -1.8477   -4.9955   -0.5803 H   0  0  0  0  0  0  0  0  0  0  0  0
   -2.2203   -3.4954   -2.5183 H   0  0  0  0  0  0  0  0  0  0  0  0
   -1.3147   -1.2071   -2.5123 H   0  0  0  0  0  0  0  0  0  0  0  0
  1  2  1  0
  2  3  2  0
  2  4  1  0
  4  5  1  0
  5  6  1  0
  6  7  1  0
  7  8  1  0
  8  9  1  0
  9 10  2  0
  9 11  2  0
  9 12  1  0
 12 13  1  0
 13 14  1  0
 14 15  1  0
 14 16  1  0
 14 17  1  0
  7 18  1  0
 18 19  2  0
 19 20  1  0
 20 21  2  0
 21 22  1  0
 22 23  2  0
 23 18  1  0
  1 24  1  0
  1 25  1  0
  1 26  1  0
  5 27  1  0
  5 28  1  0
  6 29  1  0
  6 30  1  0
  7 31  1  0
  8 32  1  0
 13 33  1  0
 13 34  1  0
 19 35  1  0
 20 36  1  0
 21 37  1  0
 22 38  1  0
 23 39  1  0
M  END
$$$$
