
     RDKit          3D

 56 58  0  0  0  0  0  0  0  0999 V2000
    9.7618   -0.2475    2.1259 C   0  0  0  0  0  0  0  0  0  0  0  0
    9.2230    0.8279    1.3659 O   0  0  0  0  0  0  0  0  0  0  0  0
    8.1594    0.5407    0.5555 C   0  0  0  0  0  0  0  0  0  0  0  0
    7.6583    1.6310   -0.1606 C   0  0  0  0  0  0  0  0  0  0  0  0
    6.5714    1.4807   -1.0265 C   0  0  0  0  0  0  0  0  0  0  0  0
    5.9720    0.2273   -1.1935 C   0  0  0  0  0  0  0  0  0  0  0  0
    4.7880    0.0497   -2.1052 C   0  0  0  0  0  0  0  0  0  0  0  0
    3.5689   -0.0207   -1.3453 N   0  0  0  0  0  0  0  0  0  0  0  0
    2.4457   -0.6460   -1.8234 C   0  0  0  0  0  0  0  0  0  0  0  0
    2.3599   -1.2881   -2.8600 O   0  0  0  0  0  0  0  0  0  0  0  0
    1.2154   -0.4970   -0.9013 C   0  0  0  0  0  0  0  0  0  0  0  0
    1.2168    0.3291   -0.0006 O   0  0  0  0  0  0  0  0  0  0  0  0
    0.1865   -1.3553   -1.2078 N   0  0  0  0  0  0  0  0  0  0  0  0
   -1.0981   -1.2829   -0.5311 C   0  0  0  0  0  0  0  0  0  0  0  0
   -1.9372   -0.0404   -0.9357 C   0  0  0  0  0  0  0  0  0  0  0  0
   -2.0762   -0.0227   -2.3755 O   0  0  0  0  0  0  0  0  0  0  0  0
   -3.2844   -0.7299   -2.6628 C   0  0  0  0  0  0  0  0  0  0  0  0
   -4.2204   -0.3575   -1.5353 C   0  0  0  0  0  0  0  0  0  0  0  0
   -3.3233   -0.0062   -0.4254 N   0  0  0  0  0  0  0  0  0  0  0  0
   -3.6260   -0.6240    1.1003 S   0  0  0  0  0  6  0  0  0  0  0  0
   -3.7324   -2.0611    0.9644 O   0  0  0  0  0  0  0  0  0  0  0  0
   -2.6867   -0.0276    2.0210 O   0  0  0  0  0  0  0  0  0  0  0  0
   -5.2312    0.0296    1.4771 C   0  0  0  0  0  0  0  0  0  0  0  0
   -5.3639    1.3991    1.7233 C   0  0  0  0  0  0  0  0  0  0  0  0
   -6.6172    1.9218    2.0444 C   0  0  0  0  0  0  0  0  0  0  0  0
   -7.7359    1.0817    2.1235 C   0  0  0  0  0  0  0  0  0  0  0  0
   -9.0829    1.6303    2.4931 C   0  0  0  0  0  0  0  0  0  0  0  0
   -7.5843   -0.2920    1.8832 C   0  0  0  0  0  0  0  0  0  0  0  0
   -6.3338   -0.8218    1.5622 C   0  0  0  0  0  0  0  0  0  0  0  0
    6.4723   -0.8630   -0.4666 C   0  0  0  0  0  0  0  0  0  0  0  0
    7.5601   -0.7087    0.4003 C   0  0  0  0  0  0  0  0  0  0  0  0
   10.1602   -1.0303    1.4731 H   0  0  0  0  0  0  0  0  0  0  0  0
   10.5936    0.1450    2.7196 H   0  0  0  0  0  0  0  0  0  0  0  0
    9.0182   -0.6517    2.8205 H   0  0  0  0  0  0  0  0  0  0  0  0
    8.1185    2.6090   -0.0401 H   0  0  0  0  0  0  0  0  0  0  0  0
    6.1996    2.3494   -1.5658 H   0  0  0  0  0  0  0  0  0  0  0  0
    4.6972    0.8925   -2.8003 H   0  0  0  0  0  0  0  0  0  0  0  0
    4.9069   -0.8545   -2.7136 H   0  0  0  0  0  0  0  0  0  0  0  0
    3.4554    0.5533   -0.5151 H   0  0  0  0  0  0  0  0  0  0  0  0
    0.2685   -1.8565   -2.0889 H   0  0  0  0  0  0  0  0  0  0  0  0
   -0.9004   -1.2844    0.5459 H   0  0  0  0  0  0  0  0  0  0  0  0
   -1.6219   -2.2089   -0.7862 H   0  0  0  0  0  0  0  0  0  0  0  0
   -1.4204    0.8807   -0.6507 H   0  0  0  0  0  0  0  0  0  0  0  0
   -3.0704   -1.8037   -2.6745 H   0  0  0  0  0  0  0  0  0  0  0  0
   -3.6666   -0.4385   -3.6445 H   0  0  0  0  0  0  0  0  0  0  0  0
   -4.9180   -1.1708   -1.3141 H   0  0  0  0  0  0  0  0  0  0  0  0
   -4.8008    0.5329   -1.7961 H   0  0  0  0  0  0  0  0  0  0  0  0
   -4.4974    2.0564    1.6744 H   0  0  0  0  0  0  0  0  0  0  0  0
   -6.7125    2.9878    2.2412 H   0  0  0  0  0  0  0  0  0  0  0  0
   -9.0698    2.7240    2.5518 H   0  0  0  0  0  0  0  0  0  0  0  0
   -9.3889    1.2420    3.4697 H   0  0  0  0  0  0  0  0  0  0  0  0
   -9.8266    1.3469    1.7414 H   0  0  0  0  0  0  0  0  0  0  0  0
   -8.4410   -0.9579    1.9609 H   0  0  0  0  0  0  0  0  0  0  0  0
   -6.2294   -1.8918    1.3937 H   0  0  0  0  0  0  0  0  0  0  0  0
    6.0109   -1.8440   -0.5700 H   0  0  0  0  0  0  0  0  0  0  0  0
    7.9097   -1.5833    0.9391 H   0  0  0  0  0  0  0  0  0  0  0  0
  1  2  1  0
  2  3  1  0
  3  4  2  0
  4  5  1  0
  5  6  2  0
  6  7  1  0
  7  8  1  0
  8  9  1  0
  9 10  2  0
  9 11  1  0
 11 12  2  0
 11 13  1  0
 13 14  1  0
 14 15  1  0
 15 16  1  0
 16 17  1  0
 17 18  1  0
 18 19  1  0
 19 20  1  0
 20 21  2  0
 20 22  2  0
 20 23  1  0
 23 24  2  0
 24 25  1  0
 25 26  2  0
 26 27  1  0
 26 28  1  0
 28 29  2  0
  6 30  1  0
 30 31  2  0
 31  3  1  0
 19 15  1  0
 29 23  1  0
  1 32  1  0
  1 33  1  0
  1 34  1  0
  4 35  1  0
  5 36  1  0
  7 37  1  0
  7 38  1  0
  8 39  1  0
 13 40  1  0
 14 41  1  0
 14 42  1  0
 15 43  1  0
 17 44  1  0
 17 45  1  0
 18 46  1  0
 18 47  1  0
 24 48  1  0
 25 49  1  0
 27 50  1  0
 27 51  1  0
 27 52  1  0
 28 53  1  0
 29 54  1  0
 30 55  1  0
 31 56  1  0
M  END
$$$$
