
     RDKit          3D

 57 59  0  0  0  0  0  0  0  0999 V2000
    9.2142   -2.4563   -1.5599 C   0  0  0  0  0  0  0  0  0  0  0  0
    8.7137   -1.7766   -0.4118 O   0  0  0  0  0  0  0  0  0  0  0  0
    7.4078   -1.3766   -0.4555 C   0  0  0  0  0  0  0  0  0  0  0  0
    6.4917   -1.6649   -1.4672 C   0  0  0  0  0  0  0  0  0  0  0  0
    5.1732   -1.1917   -1.3876 C   0  0  0  0  0  0  0  0  0  0  0  0
    4.7616   -0.4252   -0.2962 C   0  0  0  0  0  0  0  0  0  0  0  0
    3.5209    0.1118   -0.1014 O   0  0  0  0  0  0  0  0  0  0  0  0
    2.4470   -0.3037   -0.9516 C   0  0  0  0  0  0  0  0  0  0  0  0
    2.3377    0.5691   -2.2039 C   0  0  0  0  0  0  0  0  0  0  0  0
    1.8578    2.2913   -1.8391 S   0  0  0  0  0  0  0  0  0  0  0  0
    0.1681    2.1090   -1.5291 C   0  0  0  0  0  0  0  0  0  0  0  0
   -0.5135    0.9889   -1.5696 N   0  0  0  0  0  0  0  0  0  0  0  0
   -1.8115    1.2784   -1.2374 N   0  0  0  0  0  0  0  0  0  0  0  0
   -1.9016    2.5747   -1.0075 C   0  0  0  0  0  0  0  0  0  0  0  0
   -3.1449    3.2885   -0.5887 C   0  0  0  0  0  0  0  0  0  0  0  0
   -3.3071    3.2740    0.9350 C   0  0  0  0  0  0  0  0  0  0  0  0
   -3.5696    1.9447    1.4607 N   0  0  0  0  0  0  0  0  0  0  0  0
   -4.8408    1.4076    1.3916 C   0  0  0  0  0  0  0  0  0  0  0  0
   -5.8184    2.0377    0.9990 O   0  0  0  0  0  0  0  0  0  0  0  0
   -4.9730   -0.0243    1.7782 C   0  0  0  0  0  0  0  0  0  0  0  0
   -6.0255   -0.7695    1.2334 C   0  0  0  0  0  0  0  0  0  0  0  0
   -6.1920   -2.1187    1.5733 C   0  0  0  0  0  0  0  0  0  0  0  0
   -5.3140   -2.7287    2.4696 C   0  0  0  0  0  0  0  0  0  0  0  0
   -5.3670   -4.0311    2.8903 O   0  0  0  0  0  0  0  0  0  0  0  0
   -6.4124   -4.8376    2.3590 C   0  0  0  0  0  0  0  0  0  0  0  0
   -4.2707   -1.9792    3.0225 C   0  0  0  0  0  0  0  0  0  0  0  0
   -4.0980   -0.6324    2.6848 C   0  0  0  0  0  0  0  0  0  0  0  0
   -0.6583    3.1421   -1.1790 N   0  0  0  0  0  0  0  0  0  0  0  0
   -0.2883    4.5204   -0.9830 C   0  0  0  0  0  0  0  0  0  0  0  0
    5.6823   -0.1355    0.7117 C   0  0  0  0  0  0  0  0  0  0  0  0
    6.9929   -0.6134    0.6374 C   0  0  0  0  0  0  0  0  0  0  0  0
    8.7054   -3.4169   -1.7041 H   0  0  0  0  0  0  0  0  0  0  0  0
    9.1393   -1.8296   -2.4564 H   0  0  0  0  0  0  0  0  0  0  0  0
   10.2748   -2.6648   -1.3895 H   0  0  0  0  0  0  0  0  0  0  0  0
    6.7681   -2.2553   -2.3339 H   0  0  0  0  0  0  0  0  0  0  0  0
    4.5018   -1.4368   -2.2035 H   0  0  0  0  0  0  0  0  0  0  0  0
    1.5317   -0.2390   -0.3525 H   0  0  0  0  0  0  0  0  0  0  0  0
    2.5374   -1.3643   -1.2185 H   0  0  0  0  0  0  0  0  0  0  0  0
    3.3045    0.6254   -2.7126 H   0  0  0  0  0  0  0  0  0  0  0  0
    1.6220    0.1331   -2.9089 H   0  0  0  0  0  0  0  0  0  0  0  0
   -4.0065    2.8037   -1.0689 H   0  0  0  0  0  0  0  0  0  0  0  0
   -3.1394    4.3245   -0.9474 H   0  0  0  0  0  0  0  0  0  0  0  0
   -4.1377    3.9323    1.2183 H   0  0  0  0  0  0  0  0  0  0  0  0
   -2.4011    3.6416    1.4330 H   0  0  0  0  0  0  0  0  0  0  0  0
   -2.7954    1.2878    1.4414 H   0  0  0  0  0  0  0  0  0  0  0  0
   -6.7191   -0.3016    0.5363 H   0  0  0  0  0  0  0  0  0  0  0  0
   -7.0179   -2.6580    1.1220 H   0  0  0  0  0  0  0  0  0  0  0  0
   -6.3357   -4.9164    1.2660 H   0  0  0  0  0  0  0  0  0  0  0  0
   -6.3040   -5.8482    2.7724 H   0  0  0  0  0  0  0  0  0  0  0  0
   -7.3937   -4.4566    2.6641 H   0  0  0  0  0  0  0  0  0  0  0  0
   -3.5907   -2.4484    3.7305 H   0  0  0  0  0  0  0  0  0  0  0  0
   -3.2955   -0.0726    3.1548 H   0  0  0  0  0  0  0  0  0  0  0  0
   -1.1666    5.1644   -1.0546 H   0  0  0  0  0  0  0  0  0  0  0  0
    0.4221    4.8252   -1.7550 H   0  0  0  0  0  0  0  0  0  0  0  0
    0.1602    4.6148    0.0099 H   0  0  0  0  0  0  0  0  0  0  0  0
    5.3782    0.4665    1.5650 H   0  0  0  0  0  0  0  0  0  0  0  0
    7.6952   -0.3838    1.4346 H   0  0  0  0  0  0  0  0  0  0  0  0
  1  2  1  0
  2  3  1  0
  3  4  2  0
  4  5  1  0
  5  6  2  0
  6  7  1  0
  7  8  1  0
  8  9  1  0
  9 10  1  0
 10 11  1  0
 11 12  2  0
 12 13  1  0
 13 14  2  0
 14 15  1  0
 15 16  1  0
 16 17  1  0
 17 18  1  0
 18 19  2  0
 18 20  1  0
 20 21  2  0
 21 22  1  0
 22 23  2  0
 23 24  1  0
 24 25  1  0
 23 26  1  0
 26 27  2  0
 14 28  1  0
 28 29  1  0
  6 30  1  0
 30 31  2  0
 31  3  1  0
 28 11  1  0
 27 20  1  0
  1 32  1  0
  1 33  1  0
  1 34  1  0
  4 35  1  0
  5 36  1  0
  8 37  1  0
  8 38  1  0
  9 39  1  0
  9 40  1  0
 15 41  1  0
 15 42  1  0
 16 43  1  0
 16 44  1  0
 17 45  1  0
 21 46  1  0
 22 47  1  0
 25 48  1  0
 25 49  1  0
 25 50  1  0
 26 51  1  0
 27 52  1  0
 29 53  1  0
 29 54  1  0
 29 55  1  0
 30 56  1  0
 31 57  1  0
M  END
$$$$
