
     RDKit          3D

 40 42  0  0  0  0  0  0  0  0999 V2000
    5.3791   -0.9073    0.2069 N   0  0  0  0  0  0  0  0  0  0  0  0
    4.1137   -0.6340   -0.4620 C   0  0  0  0  0  0  0  0  0  0  0  0
    3.0398   -0.2941    0.5694 C   0  0  0  0  0  0  0  0  0  0  0  0
    1.7022    0.0138   -0.1056 C   0  0  0  0  0  0  0  0  0  0  0  0
    0.6294    0.3694    0.9346 C   0  0  0  0  0  0  0  0  0  0  0  0
   -0.6773    0.6498    0.2957 N   0  0  0  0  0  0  0  0  0  0  0  0
   -0.9614    2.0103   -0.0274 C   0  0  0  0  0  0  0  0  0  0  0  0
    0.0478    2.9996   -0.0840 C   0  0  0  0  0  0  0  0  0  0  0  0
   -0.2191    4.3347   -0.4127 C   0  0  0  0  0  0  0  0  0  0  0  0
   -1.5131    4.7306   -0.7022 C   0  0  0  0  0  0  0  0  0  0  0  0
   -2.5322    3.7869   -0.6635 C   0  0  0  0  0  0  0  0  0  0  0  0
   -2.2678    2.4416   -0.3355 C   0  0  0  0  0  0  0  0  0  0  0  0
   -3.6879    1.3750   -0.3053 S   0  0  0  0  0  0  0  0  0  0  0  0
   -2.9515   -0.2313   -0.1299 C   0  0  0  0  0  0  0  0  0  0  0  0
   -3.8374   -1.3171   -0.2715 C   0  0  0  0  0  0  0  0  0  0  0  0
   -3.3957   -2.6289   -0.1386 C   0  0  0  0  0  0  0  0  0  0  0  0
   -2.0538   -2.8788    0.1386 C   0  0  0  0  0  0  0  0  0  0  0  0
   -1.5629   -4.2990    0.2756 C   0  0  0  0  0  0  0  0  0  0  0  0
   -0.2280   -4.3921    0.5344 F   0  0  0  0  0  0  0  0  0  0  0  0
   -2.1844   -4.9700    1.2843 F   0  0  0  0  0  0  0  0  0  0  0  0
   -1.7748   -5.0349   -0.8503 F   0  0  0  0  0  0  0  0  0  0  0  0
   -1.1751   -1.7863    0.2823 C   0  0  0  0  0  0  0  0  0  0  0  0
   -1.5885   -0.4381    0.1605 C   0  0  0  0  0  0  0  0  0  0  0  0
    6.0831   -1.1522   -0.4890 H   0  0  0  0  0  0  0  0  0  0  0  0
    5.2828   -1.7241    0.8094 H   0  0  0  0  0  0  0  0  0  0  0  0
    3.8149   -1.5087   -1.0499 H   0  0  0  0  0  0  0  0  0  0  0  0
    4.2494    0.2038   -1.1543 H   0  0  0  0  0  0  0  0  0  0  0  0
    3.3570    0.5730    1.1627 H   0  0  0  0  0  0  0  0  0  0  0  0
    2.9126   -1.1332    1.2650 H   0  0  0  0  0  0  0  0  0  0  0  0
    1.8339    0.8362   -0.8175 H   0  0  0  0  0  0  0  0  0  0  0  0
    1.3891   -0.8499   -0.7029 H   0  0  0  0  0  0  0  0  0  0  0  0
    0.5396   -0.4324    1.6791 H   0  0  0  0  0  0  0  0  0  0  0  0
    0.9602    1.2165    1.5495 H   0  0  0  0  0  0  0  0  0  0  0  0
    1.0887    2.7639    0.1111 H   0  0  0  0  0  0  0  0  0  0  0  0
    0.5924    5.0575   -0.4442 H   0  0  0  0  0  0  0  0  0  0  0  0
   -1.7309    5.7636   -0.9579 H   0  0  0  0  0  0  0  0  0  0  0  0
   -3.5476    4.1061   -0.8913 H   0  0  0  0  0  0  0  0  0  0  0  0
   -4.8899   -1.1398   -0.4880 H   0  0  0  0  0  0  0  0  0  0  0  0
   -4.1013   -3.4497   -0.2546 H   0  0  0  0  0  0  0  0  0  0  0  0
   -0.1348   -2.0302    0.4790 H   0  0  0  0  0  0  0  0  0  0  0  0
  1  2  1  0
  2  3  1  0
  3  4  1  0
  4  5  1  0
  5  6  1  0
  6  7  1  0
  7  8  2  0
  8  9  1  0
  9 10  2  0
 10 11  1  0
 11 12  2  0
 12 13  1  0
 13 14  1  0
 14 15  2  0
 15 16  1  0
 16 17  2  0
 17 18  1  0
 18 19  1  0
 18 20  1  0
 18 21  1  0
 17 22  1  0
 22 23  2  0
 23  6  1  0
 12  7  1  0
 23 14  1  0
  1 24  1  0
  1 25  1  0
  2 26  1  0
  2 27  1  0
  3 28  1  0
  3 29  1  0
  4 30  1  0
  4 31  1  0
  5 32  1  0
  5 33  1  0
  8 34  1  0
  9 35  1  0
 10 36  1  0
 11 37  1  0
 15 38  1  0
 16 39  1  0
 22 40  1  0
M  END
$$$$
