
     RDKit          3D

 59 62  0  0  0  0  0  0  0  0999 V2000
    6.3551    3.8932   -0.9393 C   0  0  0  0  0  0  0  0  0  0  0  0
    5.3134    3.3649   -1.7476 O   0  0  0  0  0  0  0  0  0  0  0  0
    4.8354    2.1317   -1.4019 C   0  0  0  0  0  0  0  0  0  0  0  0
    3.9196    1.5822   -2.3001 C   0  0  0  0  0  0  0  0  0  0  0  0
    3.3545    0.3353   -2.0604 C   0  0  0  0  0  0  0  0  0  0  0  0
    3.6987   -0.3811   -0.9114 C   0  0  0  0  0  0  0  0  0  0  0  0
    3.0707   -1.7101   -0.6956 C   0  0  0  0  0  0  0  0  0  0  0  0
    2.0206   -1.9793   -1.2871 O   0  0  0  0  0  0  0  0  0  0  0  0
    3.7422   -2.7202    0.2232 C   0  0  0  0  0  0  0  0  0  0  0  0
    2.7110   -3.1798    1.6646 S   0  0  0  0  0  0  0  0  0  0  0  0
    1.8815   -1.6935    1.9531 C   0  0  0  0  0  0  0  0  0  0  0  0
    2.4459   -0.5809    2.3572 N   0  0  0  0  0  0  0  0  0  0  0  0
    1.5041    0.4140    2.2724 N   0  0  0  0  0  0  0  0  0  0  0  0
    0.3844   -0.1165    1.8183 C   0  0  0  0  0  0  0  0  0  0  0  0
   -0.8845    0.6182    1.5287 C   0  0  0  0  0  0  0  0  0  0  0  0
   -1.4062    0.3701    0.1888 N   0  0  0  0  0  0  0  0  0  0  0  0
   -2.6722    0.8016   -0.2150 C   0  0  0  0  0  0  0  0  0  0  0  0
   -3.6088    1.3421    0.6718 C   0  0  0  0  0  0  0  0  0  0  0  0
   -4.9004    1.6914    0.2576 C   0  0  0  0  0  0  0  0  0  0  0  0
   -5.2974    1.4955   -1.0623 C   0  0  0  0  0  0  0  0  0  0  0  0
   -6.6724    1.8528   -1.5343 C   0  0  0  0  0  0  0  0  0  0  0  0
   -4.3857    0.9326   -1.9566 C   0  0  0  0  0  0  0  0  0  0  0  0
   -3.0895    0.5691   -1.5444 C   0  0  0  0  0  0  0  0  0  0  0  0
   -2.1656   -0.0539   -2.5685 C   0  0  0  0  0  0  0  0  0  0  0  0
    0.5709   -1.4724    1.6356 N   0  0  0  0  0  0  0  0  0  0  0  0
   -0.3910   -2.4247    1.1070 C   0  0  0  0  0  0  0  0  0  0  0  0
   -1.5080   -2.6570    2.0559 C   0  0  0  0  0  0  0  0  0  0  0  0
   -2.8799   -2.5155    1.9525 C   0  0  0  0  0  0  0  0  0  0  0  0
   -3.4160   -2.9003    3.2025 C   0  0  0  0  0  0  0  0  0  0  0  0
   -2.3438   -3.2595    3.9865 C   0  0  0  0  0  0  0  0  0  0  0  0
   -1.1809   -3.1153    3.2972 O   0  0  0  0  0  0  0  0  0  0  0  0
    4.5976    0.1790    0.0013 C   0  0  0  0  0  0  0  0  0  0  0  0
    5.1669    1.4237   -0.2478 C   0  0  0  0  0  0  0  0  0  0  0  0
    6.7135    4.8191   -1.4004 H   0  0  0  0  0  0  0  0  0  0  0  0
    5.9833    4.1471    0.0583 H   0  0  0  0  0  0  0  0  0  0  0  0
    7.1980    3.1998   -0.8853 H   0  0  0  0  0  0  0  0  0  0  0  0
    3.6492    2.1317   -3.1975 H   0  0  0  0  0  0  0  0  0  0  0  0
    2.6446   -0.0703   -2.7784 H   0  0  0  0  0  0  0  0  0  0  0  0
    3.8935   -3.6303   -0.3671 H   0  0  0  0  0  0  0  0  0  0  0  0
    4.7349   -2.4098    0.5432 H   0  0  0  0  0  0  0  0  0  0  0  0
   -1.6107    0.3305    2.2956 H   0  0  0  0  0  0  0  0  0  0  0  0
   -0.6968    1.6910    1.6411 H   0  0  0  0  0  0  0  0  0  0  0  0
   -0.7019    0.5425   -0.5293 H   0  0  0  0  0  0  0  0  0  0  0  0
   -3.3547    1.5261    1.7096 H   0  0  0  0  0  0  0  0  0  0  0  0
   -5.5806    2.1376    0.9753 H   0  0  0  0  0  0  0  0  0  0  0  0
   -6.6073    2.5184   -2.4027 H   0  0  0  0  0  0  0  0  0  0  0  0
   -7.2191    0.9475   -1.8097 H   0  0  0  0  0  0  0  0  0  0  0  0
   -7.2427    2.3713   -0.7578 H   0  0  0  0  0  0  0  0  0  0  0  0
   -4.6900    0.7721   -2.9892 H   0  0  0  0  0  0  0  0  0  0  0  0
   -1.7125   -0.9638   -2.1702 H   0  0  0  0  0  0  0  0  0  0  0  0
   -1.3832    0.6595   -2.8444 H   0  0  0  0  0  0  0  0  0  0  0  0
   -2.7106   -0.3471   -3.4708 H   0  0  0  0  0  0  0  0  0  0  0  0
   -0.7520   -2.0521    0.1461 H   0  0  0  0  0  0  0  0  0  0  0  0
    0.1029   -3.3787    0.8957 H   0  0  0  0  0  0  0  0  0  0  0  0
   -3.4179   -2.1664    1.0804 H   0  0  0  0  0  0  0  0  0  0  0  0
   -4.4576   -2.9156    3.4990 H   0  0  0  0  0  0  0  0  0  0  0  0
   -2.2451   -3.6153    5.0021 H   0  0  0  0  0  0  0  0  0  0  0  0
    4.8493   -0.3057    0.9417 H   0  0  0  0  0  0  0  0  0  0  0  0
    5.8435    1.8236    0.5009 H   0  0  0  0  0  0  0  0  0  0  0  0
  1  2  1  0
  2  3  1  0
  3  4  2  0
  4  5  1  0
  5  6  2  0
  6  7  1  0
  7  8  2  0
  7  9  1  0
  9 10  1  0
 10 11  1  0
 11 12  2  0
 12 13  1  0
 13 14  2  0
 14 15  1  0
 15 16  1  0
 16 17  1  0
 17 18  2  0
 18 19  1  0
 19 20  2  0
 20 21  1  0
 20 22  1  0
 22 23  2  0
 23 24  1  0
 14 25  1  0
 25 26  1  0
 26 27  1  0
 27 28  2  0
 28 29  1  0
 29 30  2  0
 30 31  1  0
  6 32  1  0
 32 33  2  0
 33  3  1  0
 25 11  1  0
 31 27  1  0
 23 17  1  0
  1 34  1  0
  1 35  1  0
  1 36  1  0
  4 37  1  0
  5 38  1  0
  9 39  1  0
  9 40  1  0
 15 41  1  0
 15 42  1  0
 16 43  1  0
 18 44  1  0
 19 45  1  0
 21 46  1  0
 21 47  1  0
 21 48  1  0
 22 49  1  0
 24 50  1  0
 24 51  1  0
 24 52  1  0
 26 53  1  0
 26 54  1  0
 28 55  1  0
 29 56  1  0
 30 57  1  0
 32 58  1  0
 33 59  1  0
M  END
$$$$
