
     RDKit          3D

 48 51  0  0  0  0  0  0  0  0999 V2000
   -1.0939    0.1481   -3.3423 C   0  0  0  0  0  0  0  0  0  0  0  0
   -1.0204   -0.8899   -2.2361 C   0  0  0  0  0  0  0  0  0  0  0  0
   -0.8198   -0.3007   -0.9303 N   0  0  0  0  0  0  0  0  0  0  0  0
   -1.7892    0.0112   -0.0124 C   0  0  0  0  0  0  0  0  0  0  0  0
   -3.4844   -0.2001   -0.2740 S   0  0  0  0  0  0  0  0  0  0  0  0
   -4.1353    0.3738    1.3255 C   0  0  0  0  0  0  0  0  0  0  0  0
   -5.6386    0.2302    1.3900 C   0  0  0  0  0  0  0  0  0  0  0  0
   -6.2303   -1.0365    1.5436 C   0  0  0  0  0  0  0  0  0  0  0  0
   -7.6186   -1.1704    1.5912 C   0  0  0  0  0  0  0  0  0  0  0  0
   -8.4178   -0.0386    1.4872 C   0  0  0  0  0  0  0  0  0  0  0  0
   -9.7501   -0.1656    1.5285 F   0  0  0  0  0  0  0  0  0  0  0  0
   -7.8543    1.2235    1.3394 C   0  0  0  0  0  0  0  0  0  0  0  0
   -6.4654    1.3583    1.2909 C   0  0  0  0  0  0  0  0  0  0  0  0
   -1.2370    0.4951    1.0721 N   0  0  0  0  0  0  0  0  0  0  0  0
    0.1167    0.5144    0.8711 N   0  0  0  0  0  0  0  0  0  0  0  0
    0.3734    0.0580   -0.3397 C   0  0  0  0  0  0  0  0  0  0  0  0
    1.8318   -0.0352   -0.8884 C   0  0  0  0  0  0  0  0  0  0  0  0
    2.3082   -0.5178   -2.1105 C   0  0  0  0  0  0  0  0  0  0  0  0
    3.6324   -0.4396   -2.2023 N   0  0  0  0  0  0  0  0  0  0  0  0
    4.0436   -0.0442   -0.9619 N   0  0  0  0  0  0  0  0  0  0  0  0
    5.4232   -0.2003   -0.6253 C   0  0  0  0  0  0  0  0  0  0  0  0
    5.8658   -0.2967    0.7001 C   0  0  0  0  0  0  0  0  0  0  0  0
    7.2271   -0.4600    0.9789 C   0  0  0  0  0  0  0  0  0  0  0  0
    8.1521   -0.5494   -0.0579 C   0  0  0  0  0  0  0  0  0  0  0  0
    7.7187   -0.4891   -1.3792 C   0  0  0  0  0  0  0  0  0  0  0  0
    6.3615   -0.3244   -1.6634 C   0  0  0  0  0  0  0  0  0  0  0  0
    2.9658    0.4090   -0.2231 C   0  0  0  0  0  0  0  0  0  0  0  0
    3.1031    1.2375    0.9812 C   0  0  0  0  0  0  0  0  0  0  0  0
    2.1416    2.1882    1.0741 F   0  0  0  0  0  0  0  0  0  0  0  0
    4.2746    1.9235    1.0140 F   0  0  0  0  0  0  0  0  0  0  0  0
    3.0532    0.4944    2.1116 F   0  0  0  0  0  0  0  0  0  0  0  0
   -1.1994   -0.3437   -4.3156 H   0  0  0  0  0  0  0  0  0  0  0  0
   -0.1952    0.7721   -3.3711 H   0  0  0  0  0  0  0  0  0  0  0  0
   -1.9537    0.8127   -3.2066 H   0  0  0  0  0  0  0  0  0  0  0  0
   -0.2150   -1.6063   -2.4129 H   0  0  0  0  0  0  0  0  0  0  0  0
   -1.9376   -1.4877   -2.2203 H   0  0  0  0  0  0  0  0  0  0  0  0
   -3.8534    1.4260    1.4591 H   0  0  0  0  0  0  0  0  0  0  0  0
   -3.6865   -0.1980    2.1461 H   0  0  0  0  0  0  0  0  0  0  0  0
   -5.6086   -1.9278    1.6221 H   0  0  0  0  0  0  0  0  0  0  0  0
   -8.0803   -2.1445    1.7033 H   0  0  0  0  0  0  0  0  0  0  0  0
   -8.4988    2.0938    1.2575 H   0  0  0  0  0  0  0  0  0  0  0  0
   -6.0318    2.3513    1.1723 H   0  0  0  0  0  0  0  0  0  0  0  0
    1.7755   -0.9168   -2.9621 H   0  0  0  0  0  0  0  0  0  0  0  0
    5.1873   -0.2871    1.5457 H   0  0  0  0  0  0  0  0  0  0  0  0
    7.5638   -0.5269    2.0101 H   0  0  0  0  0  0  0  0  0  0  0  0
    9.2088   -0.6758    0.1654 H   0  0  0  0  0  0  0  0  0  0  0  0
    8.4357   -0.5694   -2.1913 H   0  0  0  0  0  0  0  0  0  0  0  0
    6.0516   -0.2788   -2.7064 H   0  0  0  0  0  0  0  0  0  0  0  0
  1  2  1  0
  2  3  1  0
  3  4  1  0
  4  5  1  0
  5  6  1  0
  6  7  1  0
  7  8  2  0
  8  9  1  0
  9 10  2  0
 10 11  1  0
 10 12  1  0
 12 13  2  0
  4 14  2  0
 14 15  1  0
 15 16  2  0
 16 17  1  0
 17 18  1  0
 18 19  2  0
 19 20  1  0
 20 21  1  0
 21 22  2  0
 22 23  1  0
 23 24  2  0
 24 25  1  0
 25 26  2  0
 20 27  1  0
 27 28  1  0
 28 29  1  0
 28 30  1  0
 28 31  1  0
 16  3  1  0
 27 17  2  0
 13  7  1  0
 26 21  1  0
  1 32  1  0
  1 33  1  0
  1 34  1  0
  2 35  1  0
  2 36  1  0
  6 37  1  0
  6 38  1  0
  8 39  1  0
  9 40  1  0
 12 41  1  0
 13 42  1  0
 18 43  1  0
 22 44  1  0
 23 45  1  0
 24 46  1  0
 25 47  1  0
 26 48  1  0
M  END
$$$$
