
     RDKit          3D

 69 74  0  0  0  0  0  0  0  0999 V2000
    7.3639   -0.9912   -1.6336 C   0  0  0  0  0  0  0  0  0  0  0  0
    6.8339   -1.3465   -0.3648 O   0  0  0  0  0  0  0  0  0  0  0  0
    5.4821   -1.1949   -0.1738 C   0  0  0  0  0  0  0  0  0  0  0  0
    4.5834   -0.7922   -1.1678 C   0  0  0  0  0  0  0  0  0  0  0  0
    3.2147   -0.6627   -0.8870 C   0  0  0  0  0  0  0  0  0  0  0  0
    2.7394   -0.9135    0.4128 C   0  0  0  0  0  0  0  0  0  0  0  0
    3.6410   -1.3360    1.4039 C   0  0  0  0  0  0  0  0  0  0  0  0
    5.0046   -1.4794    1.1211 C   0  0  0  0  0  0  0  0  0  0  0  0
    5.9478   -1.8689    2.0391 O   0  0  0  0  0  0  0  0  0  0  0  0
    5.4876   -2.3344    3.3012 C   0  0  0  0  0  0  0  0  0  0  0  0
    1.2633   -0.7944    0.7508 C   0  0  0  0  0  0  0  0  0  0  0  0
    0.5570    0.0221   -0.2494 N   0  0  0  0  0  0  0  0  0  0  0  0
   -0.8197    0.0285    0.0429 C   0  0  0  0  0  0  0  0  0  0  0  0
   -1.5603   -1.0803   -0.1814 N   0  0  0  0  0  0  0  0  0  0  0  0
   -2.8792   -1.0737    0.1044 C   0  0  0  0  0  0  0  0  0  0  0  0
   -3.6657   -2.3399   -0.2208 C   0  0  0  0  0  0  0  0  0  0  0  0
   -4.1158   -2.4498   -1.6290 N   0  0  0  0  0  0  0  0  0  0  0  0
   -4.7215   -3.7683   -1.9067 C   0  0  0  0  0  0  0  0  0  0  0  0
   -6.2579   -3.7523   -1.9021 C   0  0  0  0  0  0  0  0  0  0  0  0
   -6.8157   -2.8476   -2.8654 O   0  0  0  0  0  0  0  0  0  0  0  0
   -5.9555   -1.7374   -3.1609 C   0  0  0  0  0  0  0  0  0  0  0  0
   -5.0532   -1.3569   -1.9772 C   0  0  0  0  0  0  0  0  0  0  0  0
   -3.5681   -0.0466    0.6248 N   0  0  0  0  0  0  0  0  0  0  0  0
   -2.8084    1.0400    0.8338 C   0  0  0  0  0  0  0  0  0  0  0  0
   -3.4975    2.4552    1.4894 S   0  0  0  0  0  0  0  0  0  0  0  0
   -2.0088    3.2736    1.4377 C   0  0  0  0  0  0  0  0  0  0  0  0
   -0.9915    2.4953    0.9146 C   0  0  0  0  0  0  0  0  0  0  0  0
   -1.4538    1.1698    0.5730 C   0  0  0  0  0  0  0  0  0  0  0  0
    0.4115    3.0119    0.7781 C   0  0  0  0  0  0  0  0  0  0  0  0
    0.4824    4.5401    0.9429 C   0  0  0  0  0  0  0  0  0  0  0  0
   -0.3861    5.0700    2.1045 C   0  0  0  0  0  0  0  0  0  0  0  0
    0.1209    4.5771    3.4634 C   0  0  0  0  0  0  0  0  0  0  0  0
   -1.8715    4.6964    1.8919 C   0  0  0  0  0  0  0  0  0  0  0  0
    0.8040   -0.4600   -1.6162 C   0  0  0  0  0  0  0  0  0  0  0  0
    2.2699   -0.1822   -1.9656 C   0  0  0  0  0  0  0  0  0  0  0  0
    8.4483   -1.1288   -1.5943 H   0  0  0  0  0  0  0  0  0  0  0  0
    6.9759   -1.6464   -2.4205 H   0  0  0  0  0  0  0  0  0  0  0  0
    7.1722    0.0621   -1.8632 H   0  0  0  0  0  0  0  0  0  0  0  0
    4.9222   -0.5675   -2.1745 H   0  0  0  0  0  0  0  0  0  0  0  0
    3.2532   -1.5388    2.3973 H   0  0  0  0  0  0  0  0  0  0  0  0
    6.3584   -2.6736    3.8702 H   0  0  0  0  0  0  0  0  0  0  0  0
    5.0157   -1.5264    3.8704 H   0  0  0  0  0  0  0  0  0  0  0  0
    4.8113   -3.1886    3.1885 H   0  0  0  0  0  0  0  0  0  0  0  0
    1.1667   -0.3201    1.7361 H   0  0  0  0  0  0  0  0  0  0  0  0
    0.8498   -1.8112    0.8086 H   0  0  0  0  0  0  0  0  0  0  0  0
   -4.5174   -2.4189    0.4671 H   0  0  0  0  0  0  0  0  0  0  0  0
   -3.0010   -3.1827    0.0084 H   0  0  0  0  0  0  0  0  0  0  0  0
   -4.3842   -4.0652   -2.9081 H   0  0  0  0  0  0  0  0  0  0  0  0
   -4.3510   -4.5383   -1.2205 H   0  0  0  0  0  0  0  0  0  0  0  0
   -6.6440   -4.7511   -2.1315 H   0  0  0  0  0  0  0  0  0  0  0  0
   -6.6407   -3.4755   -0.9116 H   0  0  0  0  0  0  0  0  0  0  0  0
   -6.5964   -0.8924   -3.4329 H   0  0  0  0  0  0  0  0  0  0  0  0
   -5.3589   -1.9911   -4.0449 H   0  0  0  0  0  0  0  0  0  0  0  0
   -4.4825   -0.4571   -2.2322 H   0  0  0  0  0  0  0  0  0  0  0  0
   -5.7022   -1.1211   -1.1232 H   0  0  0  0  0  0  0  0  0  0  0  0
    0.8242    2.7450   -0.2014 H   0  0  0  0  0  0  0  0  0  0  0  0
    1.0405    2.5337    1.5394 H   0  0  0  0  0  0  0  0  0  0  0  0
    1.5271    4.8432    1.0799 H   0  0  0  0  0  0  0  0  0  0  0  0
    0.1409    5.0130    0.0112 H   0  0  0  0  0  0  0  0  0  0  0  0
   -0.3123    6.1645    2.1144 H   0  0  0  0  0  0  0  0  0  0  0  0
   -0.4476    5.0447    4.2751 H   0  0  0  0  0  0  0  0  0  0  0  0
    1.1743    4.8371    3.6027 H   0  0  0  0  0  0  0  0  0  0  0  0
    0.0241    3.4934    3.5755 H   0  0  0  0  0  0  0  0  0  0  0  0
   -2.2920    5.3457    1.1134 H   0  0  0  0  0  0  0  0  0  0  0  0
   -2.4423    4.8757    2.8116 H   0  0  0  0  0  0  0  0  0  0  0  0
    0.1665    0.0654   -2.3396 H   0  0  0  0  0  0  0  0  0  0  0  0
    0.5968   -1.5365   -1.7027 H   0  0  0  0  0  0  0  0  0  0  0  0
    2.5097   -0.6625   -2.9218 H   0  0  0  0  0  0  0  0  0  0  0  0
    2.4176    0.8992   -2.0842 H   0  0  0  0  0  0  0  0  0  0  0  0
  1  2  1  0
  2  3  1  0
  3  4  2  0
  4  5  1  0
  5  6  2  0
  6  7  1  0
  7  8  2  0
  8  9  1  0
  9 10  1  0
  6 11  1  0
 11 12  1  0
 12 13  1  0
 13 14  2  0
 14 15  1  0
 15 16  1  0
 16 17  1  0
 17 18  1  0
 18 19  1  0
 19 20  1  0
 20 21  1  0
 21 22  1  0
 15 23  2  0
 23 24  1  0
 24 25  1  0
 25 26  1  0
 26 27  2  0
 27 28  1  0
 27 29  1  0
 29 30  1  0
 30 31  1  0
 31 32  1  0
 31 33  1  0
 12 34  1  0
 34 35  1  0
  8  3  1  0
 28 13  1  0
 35  5  1  0
 22 17  1  0
 28 24  2  0
 33 26  1  0
  1 36  1  0
  1 37  1  0
  1 38  1  0
  4 39  1  0
  7 40  1  0
 10 41  1  0
 10 42  1  0
 10 43  1  0
 11 44  1  0
 11 45  1  0
 16 46  1  0
 16 47  1  0
 18 48  1  0
 18 49  1  0
 19 50  1  0
 19 51  1  0
 21 52  1  0
 21 53  1  0
 22 54  1  0
 22 55  1  0
 29 56  1  0
 29 57  1  0
 30 58  1  0
 30 59  1  0
 31 60  1  0
 32 61  1  0
 32 62  1  0
 32 63  1  0
 33 64  1  0
 33 65  1  0
 34 66  1  0
 34 67  1  0
 35 68  1  0
 35 69  1  0
M  END
$$$$
