
     RDKit          3D

 44 44  0  0  0  0  0  0  0  0999 V2000
   -4.3284   -0.7100   -2.0538 C   0  0  0  0  0  0  0  0  0  0  0  0
   -4.1346    0.7761   -1.7831 C   0  0  0  0  0  0  0  0  0  0  0  0
   -3.8125    1.0330   -0.3724 N   0  0  0  0  0  0  0  0  0  0  0  0
   -4.8508    1.6976    0.4260 C   0  0  0  0  0  0  0  0  0  0  0  0
   -5.8087    0.6862    1.0369 C   0  0  0  0  0  0  0  0  0  0  0  0
   -2.5633    0.7334    0.1665 C   0  0  0  0  0  0  0  0  0  0  0  0
   -2.3268    0.7301    1.5515 C   0  0  0  0  0  0  0  0  0  0  0  0
   -1.0702    0.4385    2.0976 C   0  0  0  0  0  0  0  0  0  0  0  0
    0.0007    0.1253    1.2683 C   0  0  0  0  0  0  0  0  0  0  0  0
   -0.1924    0.0940   -0.1063 C   0  0  0  0  0  0  0  0  0  0  0  0
    0.7700   -0.1915   -1.0372 O   0  0  0  0  0  0  0  0  0  0  0  0
    1.8572   -1.0029   -0.6153 C   0  0  0  0  0  0  0  0  0  0  0  0
    3.0802   -0.2454   -0.0708 C   0  0  0  0  0  0  0  0  0  0  0  0
    3.0944    0.9827    0.0314 O   0  0  0  0  0  0  0  0  0  0  0  0
    4.1879   -1.0059    0.3152 N   0  0  0  0  0  0  0  0  0  0  0  0
    4.3567   -2.4229    0.0199 C   0  0  0  0  0  0  0  0  0  0  0  0
    5.3722   -0.2838    0.7957 C   0  0  0  0  0  0  0  0  0  0  0  0
    6.1995    0.3261   -0.3361 C   0  0  0  0  0  0  0  0  0  0  0  0
    7.4189    0.9404    0.1986 C   0  0  0  0  0  0  0  0  0  0  0  0
    8.3932    1.4028    0.6265 N   0  0  0  0  0  0  0  0  0  0  0  0
   -1.4538    0.4099   -0.6366 C   0  0  0  0  0  0  0  0  0  0  0  0
   -3.4166   -1.2842   -1.8655 H   0  0  0  0  0  0  0  0  0  0  0  0
   -4.6128   -0.8673   -3.0991 H   0  0  0  0  0  0  0  0  0  0  0  0
   -5.1189   -1.1270   -1.4220 H   0  0  0  0  0  0  0  0  0  0  0  0
   -5.0670    1.2862   -2.0559 H   0  0  0  0  0  0  0  0  0  0  0  0
   -3.3759    1.2017   -2.4491 H   0  0  0  0  0  0  0  0  0  0  0  0
   -5.4241    2.3856   -0.2082 H   0  0  0  0  0  0  0  0  0  0  0  0
   -4.4200    2.3382    1.2041 H   0  0  0  0  0  0  0  0  0  0  0  0
   -6.3458    0.1337    0.2596 H   0  0  0  0  0  0  0  0  0  0  0  0
   -6.5512    1.1972    1.6578 H   0  0  0  0  0  0  0  0  0  0  0  0
   -5.2845   -0.0426    1.6625 H   0  0  0  0  0  0  0  0  0  0  0  0
   -3.1247    0.9484    2.2545 H   0  0  0  0  0  0  0  0  0  0  0  0
   -0.9328    0.4657    3.1753 H   0  0  0  0  0  0  0  0  0  0  0  0
    0.9677   -0.0613    1.7205 H   0  0  0  0  0  0  0  0  0  0  0  0
    2.1901   -1.5344   -1.5143 H   0  0  0  0  0  0  0  0  0  0  0  0
    1.5300   -1.7601    0.1075 H   0  0  0  0  0  0  0  0  0  0  0  0
    4.8393   -2.9108    0.8717 H   0  0  0  0  0  0  0  0  0  0  0  0
    3.4077   -2.9251   -0.1695 H   0  0  0  0  0  0  0  0  0  0  0  0
    4.9905   -2.5205   -0.8661 H   0  0  0  0  0  0  0  0  0  0  0  0
    5.0398    0.5108    1.4765 H   0  0  0  0  0  0  0  0  0  0  0  0
    5.9755   -0.9736    1.3990 H   0  0  0  0  0  0  0  0  0  0  0  0
    5.6139    1.0743   -0.8813 H   0  0  0  0  0  0  0  0  0  0  0  0
    6.4690   -0.4501   -1.0616 H   0  0  0  0  0  0  0  0  0  0  0  0
   -1.5387    0.4012   -1.7185 H   0  0  0  0  0  0  0  0  0  0  0  0
  1  2  1  0
  2  3  1  0
  3  4  1  0
  4  5  1  0
  3  6  1  0
  6  7  2  0
  7  8  1  0
  8  9  2  0
  9 10  1  0
 10 11  1  0
 11 12  1  0
 12 13  1  0
 13 14  2  0
 13 15  1  0
 15 16  1  0
 15 17  1  0
 17 18  1  0
 18 19  1  0
 19 20  3  0
 10 21  2  0
 21  6  1  0
  1 22  1  0
  1 23  1  0
  1 24  1  0
  2 25  1  0
  2 26  1  0
  4 27  1  0
  4 28  1  0
  5 29  1  0
  5 30  1  0
  5 31  1  0
  7 32  1  0
  8 33  1  0
  9 34  1  0
 12 35  1  0
 12 36  1  0
 16 37  1  0
 16 38  1  0
 16 39  1  0
 17 40  1  0
 17 41  1  0
 18 42  1  0
 18 43  1  0
 21 44  1  0
M  END
$$$$
