
     RDKit          3D

 29 30  0  0  0  0  0  0  0  0999 V2000
   -3.0417   -1.7766   -0.0155 C   0  0  0  0  0  0  0  0  0  0  0  0
   -2.1366   -0.5973   -0.2341 C   0  0  0  0  0  0  0  0  0  0  0  0
   -1.1935   -0.1495    0.6192 C   0  0  0  0  0  0  0  0  0  0  0  0
   -0.9507   -0.7221    1.9912 C   0  0  0  0  0  0  0  0  0  0  0  0
   -0.2925    1.0156    0.2533 C   0  0  0  0  0  0  0  0  0  0  0  0
    1.1724    0.6272    0.1288 C   0  0  0  0  0  0  0  0  0  0  0  0
    1.6093   -0.2504   -0.8779 C   0  0  0  0  0  0  0  0  0  0  0  0
    2.9558   -0.6025   -0.9817 C   0  0  0  0  0  0  0  0  0  0  0  0
    3.8835   -0.0836   -0.0813 C   0  0  0  0  0  0  0  0  0  0  0  0
    3.4666    0.7878    0.9229 C   0  0  0  0  0  0  0  0  0  0  0  0
    2.1200    1.1419    1.0284 C   0  0  0  0  0  0  0  0  0  0  0  0
   -0.7349    1.6786   -0.9558 N   0  0  0  0  0  0  0  0  0  0  0  0
   -1.6374    1.1661   -1.8222 C   0  0  0  0  0  0  0  0  0  0  0  0
   -1.9348    1.8907   -3.2876 S   0  0  0  0  0  0  0  0  0  0  0  0
   -2.3023    0.0460   -1.4381 N   0  0  0  0  0  0  0  0  0  0  0  0
   -2.6966   -2.4411    0.7803 H   0  0  0  0  0  0  0  0  0  0  0  0
   -3.0993   -2.3878   -0.9236 H   0  0  0  0  0  0  0  0  0  0  0  0
   -4.0524   -1.4359    0.2315 H   0  0  0  0  0  0  0  0  0  0  0  0
   -1.7781   -1.3382    2.3517 H   0  0  0  0  0  0  0  0  0  0  0  0
   -0.8297    0.0842    2.7230 H   0  0  0  0  0  0  0  0  0  0  0  0
   -0.0423   -1.3326    1.9971 H   0  0  0  0  0  0  0  0  0  0  0  0
   -0.3941    1.7822    1.0326 H   0  0  0  0  0  0  0  0  0  0  0  0
    0.8960   -0.6628   -1.5893 H   0  0  0  0  0  0  0  0  0  0  0  0
    3.2793   -1.2808   -1.7669 H   0  0  0  0  0  0  0  0  0  0  0  0
    4.9320   -0.3576   -0.1635 H   0  0  0  0  0  0  0  0  0  0  0  0
    4.1916    1.1928    1.6243 H   0  0  0  0  0  0  0  0  0  0  0  0
    1.8162    1.8237    1.8197 H   0  0  0  0  0  0  0  0  0  0  0  0
   -0.2081    2.4802   -1.2748 H   0  0  0  0  0  0  0  0  0  0  0  0
   -2.9977   -0.2981   -2.0918 H   0  0  0  0  0  0  0  0  0  0  0  0
  1  2  1  0
  2  3  2  0
  3  4  1  0
  3  5  1  0
  5  6  1  0
  6  7  2  0
  7  8  1  0
  8  9  2  0
  9 10  1  0
 10 11  2  0
  5 12  1  0
 12 13  1  0
 13 14  2  0
 13 15  1  0
 15  2  1  0
 11  6  1  0
  1 16  1  0
  1 17  1  0
  1 18  1  0
  4 19  1  0
  4 20  1  0
  4 21  1  0
  5 22  1  0
  7 23  1  0
  8 24  1  0
  9 25  1  0
 10 26  1  0
 11 27  1  0
 12 28  1  0
 15 29  1  0
M  END
$$$$
