
     RDKit          3D

 50 53  0  0  0  0  0  0  0  0999 V2000
   -5.8210   -2.9358   -1.4170 C   0  0  0  0  0  0  0  0  0  0  0  0
   -4.6362   -3.3995   -0.5874 C   0  0  0  0  0  0  0  0  0  0  0  0
   -4.3899   -2.5003    0.4920 O   0  0  0  0  0  0  0  0  0  0  0  0
   -3.5545   -1.4383    0.2901 C   0  0  0  0  0  0  0  0  0  0  0  0
   -2.9816   -1.0521   -0.9208 C   0  0  0  0  0  0  0  0  0  0  0  0
   -2.1441    0.0687   -0.9800 C   0  0  0  0  0  0  0  0  0  0  0  0
   -1.8777    0.8178    0.1706 C   0  0  0  0  0  0  0  0  0  0  0  0
   -0.9996    1.9786    0.1071 C   0  0  0  0  0  0  0  0  0  0  0  0
    0.3875    2.0494    0.1184 C   0  0  0  0  0  0  0  0  0  0  0  0
    1.3597    0.9583    0.1757 C   0  0  0  0  0  0  0  0  0  0  0  0
    1.0276   -0.2224    0.1506 O   0  0  0  0  0  0  0  0  0  0  0  0
    2.6696    1.4289    0.2387 N   0  0  0  0  0  0  0  0  0  0  0  0
    3.8155    0.6811    0.1354 N   0  0  0  0  0  0  0  0  0  0  0  0
    3.8105   -0.5272    0.6029 C   0  0  0  0  0  0  0  0  0  0  0  0
    4.9913   -1.4086    0.4836 C   0  0  0  0  0  0  0  0  0  0  0  0
    6.1658   -0.9624   -0.1302 C   0  0  0  0  0  0  0  0  0  0  0  0
    7.2642   -1.8179   -0.2266 C   0  0  0  0  0  0  0  0  0  0  0  0
    7.1810   -3.1081    0.2870 C   0  0  0  0  0  0  0  0  0  0  0  0
    8.2782   -3.9084    0.1690 O   0  0  0  0  0  0  0  0  0  0  0  0
    6.0152   -3.5624    0.8983 C   0  0  0  0  0  0  0  0  0  0  0  0
    4.9139   -2.7081    0.9974 C   0  0  0  0  0  0  0  0  0  0  0  0
    0.7750    3.3634    0.0699 N   0  0  0  0  0  0  0  0  0  0  0  0
   -0.3087    4.1153    0.0238 N   0  0  0  0  0  0  0  0  0  0  0  0
   -1.4145    3.3114    0.0300 N   0  0  0  0  0  0  0  0  0  0  0  0
   -2.7215    3.8556   -0.0567 C   0  0  0  0  0  0  0  0  0  0  0  0
   -3.7969    3.0710   -0.1277 N   0  0  0  0  0  0  0  0  0  0  0  0
   -4.8642    3.9616   -0.2196 O   0  0  0  0  0  0  0  0  0  0  0  0
   -4.4227    5.2806   -0.2105 N   0  0  0  0  0  0  0  0  0  0  0  0
   -3.0966    5.2117   -0.1026 C   0  0  0  0  0  0  0  0  0  0  0  0
   -2.2842    6.2844   -0.0470 N   0  0  0  0  0  0  0  0  0  0  0  0
   -2.4482    0.4284    1.3854 C   0  0  0  0  0  0  0  0  0  0  0  0
   -3.2843   -0.6899    1.4388 C   0  0  0  0  0  0  0  0  0  0  0  0
   -5.6257   -1.9688   -1.8898 H   0  0  0  0  0  0  0  0  0  0  0  0
   -6.7044   -2.8054   -0.7830 H   0  0  0  0  0  0  0  0  0  0  0  0
   -6.0541   -3.6645   -2.1986 H   0  0  0  0  0  0  0  0  0  0  0  0
   -4.8903   -4.3642   -0.1334 H   0  0  0  0  0  0  0  0  0  0  0  0
   -3.7439   -3.5819   -1.1960 H   0  0  0  0  0  0  0  0  0  0  0  0
   -3.1650   -1.5938   -1.8418 H   0  0  0  0  0  0  0  0  0  0  0  0
   -1.7018    0.3450   -1.9343 H   0  0  0  0  0  0  0  0  0  0  0  0
    2.8050    2.4216    0.0578 H   0  0  0  0  0  0  0  0  0  0  0  0
    2.9495   -0.9588    1.1398 H   0  0  0  0  0  0  0  0  0  0  0  0
    6.2323    0.0449   -0.5335 H   0  0  0  0  0  0  0  0  0  0  0  0
    8.1808   -1.4791   -0.7014 H   0  0  0  0  0  0  0  0  0  0  0  0
    8.0762   -4.7758    0.5564 H   0  0  0  0  0  0  0  0  0  0  0  0
    5.9450   -4.5689    1.2988 H   0  0  0  0  0  0  0  0  0  0  0  0
    4.0028   -3.0642    1.4720 H   0  0  0  0  0  0  0  0  0  0  0  0
   -2.6562    7.1956   -0.2943 H   0  0  0  0  0  0  0  0  0  0  0  0
   -1.2770    6.1921   -0.1677 H   0  0  0  0  0  0  0  0  0  0  0  0
   -2.2534    0.9850    2.2983 H   0  0  0  0  0  0  0  0  0  0  0  0
   -3.7283   -0.9836    2.3869 H   0  0  0  0  0  0  0  0  0  0  0  0
  1  2  1  0
  2  3  1  0
  3  4  1  0
  4  5  2  0
  5  6  1  0
  6  7  2  0
  7  8  1  0
  8  9  2  0
  9 10  1  0
 10 11  2  0
 10 12  1  0
 12 13  1  0
 13 14  2  3
 14 15  1  0
 15 16  2  0
 16 17  1  0
 17 18  2  0
 18 19  1  0
 18 20  1  0
 20 21  2  0
  9 22  1  0
 22 23  2  0
 23 24  1  0
 24 25  1  0
 25 26  2  0
 26 27  1  0
 27 28  1  0
 28 29  2  0
 29 30  1  0
  7 31  1  0
 31 32  2  0
 32  4  1  0
 24  8  1  0
 29 25  1  0
 21 15  1  0
  1 33  1  0
  1 34  1  0
  1 35  1  0
  2 36  1  0
  2 37  1  0
  5 38  1  0
  6 39  1  0
 12 40  1  0
 14 41  1  0
 16 42  1  0
 17 43  1  0
 19 44  1  0
 20 45  1  0
 21 46  1  0
 30 47  1  0
 30 48  1  0
 31 49  1  0
 32 50  1  0
M  END
$$$$
