
     RDKit          3D

 43 45  0  0  0  0  0  0  0  0999 V2000
   -5.4655   -0.5736    2.4395 C   0  0  0  0  0  0  0  0  0  0  0  0
   -5.0760   -1.1760    1.1659 N   0  0  0  0  0  0  0  0  0  0  0  0
   -6.0137   -2.1535    0.6162 C   0  0  0  0  0  0  0  0  0  0  0  0
   -4.2643   -0.4466    0.2884 C   0  0  0  0  0  0  0  0  0  0  0  0
   -3.5669    0.7052    0.6956 C   0  0  0  0  0  0  0  0  0  0  0  0
   -2.7396    1.4303   -0.1755 C   0  0  0  0  0  0  0  0  0  0  0  0
   -2.5689    1.0147   -1.4933 C   0  0  0  0  0  0  0  0  0  0  0  0
   -1.7153    1.7610   -2.4192 C   0  0  0  0  0  0  0  0  0  0  0  0
   -0.3730    1.8123   -2.3992 C   0  0  0  0  0  0  0  0  0  0  0  0
    0.4980    1.1182   -1.4673 C   0  0  0  0  0  0  0  0  0  0  0  0
    1.8372    1.1869   -1.4239 C   0  0  0  0  0  0  0  0  0  0  0  0
    2.8737    2.0945   -2.4387 S   0  0  0  0  0  0  0  0  0  0  0  0
    4.3229    1.6148   -1.5531 C   0  0  0  0  0  0  0  0  0  0  0  0
    5.7820    2.3571   -1.9099 S   0  0  0  0  0  0  0  0  0  0  0  0
    3.9941    0.6860   -0.5707 N   0  0  0  0  0  0  0  0  0  0  0  0
    4.9451    0.0240    0.2775 C   0  0  0  0  0  0  0  0  0  0  0  0
    4.6636   -0.1960    1.6360 C   0  0  0  0  0  0  0  0  0  0  0  0
    5.5792   -0.8453    2.4705 C   0  0  0  0  0  0  0  0  0  0  0  0
    6.7908   -1.2972    1.9591 C   0  0  0  0  0  0  0  0  0  0  0  0
    7.0822   -1.1076    0.6124 C   0  0  0  0  0  0  0  0  0  0  0  0
    6.1652   -0.4579   -0.2213 C   0  0  0  0  0  0  0  0  0  0  0  0
    2.6309    0.4236   -0.4195 C   0  0  0  0  0  0  0  0  0  0  0  0
    2.0950   -0.3354    0.3798 O   0  0  0  0  0  0  0  0  0  0  0  0
   -3.2342   -0.1282   -1.9259 C   0  0  0  0  0  0  0  0  0  0  0  0
   -4.0590   -0.8447   -1.0453 C   0  0  0  0  0  0  0  0  0  0  0  0
   -6.0306    0.3519    2.2815 H   0  0  0  0  0  0  0  0  0  0  0  0
   -4.5903   -0.3691    3.0659 H   0  0  0  0  0  0  0  0  0  0  0  0
   -6.0988   -1.2516    3.0228 H   0  0  0  0  0  0  0  0  0  0  0  0
   -5.4873   -2.9599    0.0942 H   0  0  0  0  0  0  0  0  0  0  0  0
   -6.5924   -2.6396    1.4099 H   0  0  0  0  0  0  0  0  0  0  0  0
   -6.7256   -1.6756   -0.0659 H   0  0  0  0  0  0  0  0  0  0  0  0
   -3.6447    1.0758    1.7128 H   0  0  0  0  0  0  0  0  0  0  0  0
   -2.2299    2.3170    0.1933 H   0  0  0  0  0  0  0  0  0  0  0  0
   -2.2555    2.3097   -3.1883 H   0  0  0  0  0  0  0  0  0  0  0  0
    0.1039    2.4232   -3.1643 H   0  0  0  0  0  0  0  0  0  0  0  0
    0.0010    0.4752   -0.7393 H   0  0  0  0  0  0  0  0  0  0  0  0
    3.7344    0.1533    2.0815 H   0  0  0  0  0  0  0  0  0  0  0  0
    5.3407   -0.9965    3.5204 H   0  0  0  0  0  0  0  0  0  0  0  0
    7.5019   -1.8038    2.6063 H   0  0  0  0  0  0  0  0  0  0  0  0
    8.0208   -1.4742    0.2032 H   0  0  0  0  0  0  0  0  0  0  0  0
    6.4166   -0.3819   -1.2757 H   0  0  0  0  0  0  0  0  0  0  0  0
   -3.1140   -0.4839   -2.9461 H   0  0  0  0  0  0  0  0  0  0  0  0
   -4.5340   -1.7366   -1.4415 H   0  0  0  0  0  0  0  0  0  0  0  0
  1  2  1  0
  2  3  1  0
  2  4  1  0
  4  5  2  0
  5  6  1  0
  6  7  2  0
  7  8  1  0
  8  9  2  3
  9 10  1  0
 10 11  2  3
 11 12  1  0
 12 13  1  0
 13 14  2  0
 13 15  1  0
 15 16  1  0
 16 17  2  0
 17 18  1  0
 18 19  2  0
 19 20  1  0
 20 21  2  0
 15 22  1  0
 22 23  2  0
  7 24  1  0
 24 25  2  0
 25  4  1  0
 22 11  1  0
 21 16  1  0
  1 26  1  0
  1 27  1  0
  1 28  1  0
  3 29  1  0
  3 30  1  0
  3 31  1  0
  5 32  1  0
  6 33  1  0
  8 34  1  0
  9 35  1  0
 10 36  1  0
 17 37  1  0
 18 38  1  0
 19 39  1  0
 20 40  1  0
 21 41  1  0
 24 42  1  0
 25 43  1  0
M  END
$$$$
