
     RDKit          3D

 53 55  0  0  0  0  0  0  0  0999 V2000
   -7.2352   -2.7248    4.0101 C   0  0  0  0  0  0  0  0  0  0  0  0
   -7.0407   -2.6651    2.6023 O   0  0  0  0  0  0  0  0  0  0  0  0
   -5.7505   -2.7005    2.1517 C   0  0  0  0  0  0  0  0  0  0  0  0
   -4.6042   -2.7585    2.9470 C   0  0  0  0  0  0  0  0  0  0  0  0
   -3.3371   -2.7866    2.3542 C   0  0  0  0  0  0  0  0  0  0  0  0
   -3.2187   -2.7360    0.9622 C   0  0  0  0  0  0  0  0  0  0  0  0
   -1.6070   -2.7965    0.2043 S   0  0  0  0  0  6  0  0  0  0  0  0
   -1.7677   -3.3912   -1.1047 O   0  0  0  0  0  0  0  0  0  0  0  0
   -0.6919   -3.3549    1.1767 O   0  0  0  0  0  0  0  0  0  0  0  0
   -1.1944   -1.1881   -0.0111 N   0  0  0  0  0  0  0  0  0  0  0  0
   -1.9574   -0.3413   -0.9328 C   0  0  0  0  0  0  0  0  0  0  0  0
   -2.4164    0.7958   -0.0480 C   0  0  0  0  0  0  0  0  0  0  0  0
   -1.3594    0.9460    0.9037 O   0  0  0  0  0  0  0  0  0  0  0  0
   -0.8853   -0.3847    1.1852 C   0  0  0  0  0  0  0  0  0  0  0  0
    0.6304   -0.3510    1.4572 C   0  0  0  0  0  0  0  0  0  0  0  0
    1.4102   -0.0560    0.2657 N   0  0  0  0  0  0  0  0  0  0  0  0
    2.7220    0.3408    0.3264 C   0  0  0  0  0  0  0  0  0  0  0  0
    3.3455    0.6231    1.3402 O   0  0  0  0  0  0  0  0  0  0  0  0
    3.4164    0.4046   -1.0540 C   0  0  0  0  0  0  0  0  0  0  0  0
    2.7952    0.1282   -2.0706 O   0  0  0  0  0  0  0  0  0  0  0  0
    4.7325    0.7945   -0.9834 N   0  0  0  0  0  0  0  0  0  0  0  0
    5.5212    1.0670   -2.1553 C   0  0  0  0  0  0  0  0  0  0  0  0
    5.5039    2.5378   -2.4851 C   0  0  0  0  0  0  0  0  0  0  0  0
    4.4688    3.0739   -3.2689 C   0  0  0  0  0  0  0  0  0  0  0  0
    4.4354    4.4386   -3.5579 C   0  0  0  0  0  0  0  0  0  0  0  0
    5.4314    5.2686   -3.0584 C   0  0  0  0  0  0  0  0  0  0  0  0
    5.3989    6.5788   -3.3350 F   0  0  0  0  0  0  0  0  0  0  0  0
    6.4589    4.7607   -2.2724 C   0  0  0  0  0  0  0  0  0  0  0  0
    6.4946    3.3958   -1.9815 C   0  0  0  0  0  0  0  0  0  0  0  0
   -4.3605   -2.7128    0.1590 C   0  0  0  0  0  0  0  0  0  0  0  0
   -5.6206   -2.6835    0.7591 C   0  0  0  0  0  0  0  0  0  0  0  0
   -6.8457   -3.6611    4.4231 H   0  0  0  0  0  0  0  0  0  0  0  0
   -6.7888   -1.8569    4.5066 H   0  0  0  0  0  0  0  0  0  0  0  0
   -8.3125   -2.6995    4.2000 H   0  0  0  0  0  0  0  0  0  0  0  0
   -4.6620   -2.7925    4.0304 H   0  0  0  0  0  0  0  0  0  0  0  0
   -2.4548   -2.8564    2.9871 H   0  0  0  0  0  0  0  0  0  0  0  0
   -2.7905   -0.8379   -1.4322 H   0  0  0  0  0  0  0  0  0  0  0  0
   -1.2676    0.0217   -1.7028 H   0  0  0  0  0  0  0  0  0  0  0  0
   -2.5666    1.7289   -0.5970 H   0  0  0  0  0  0  0  0  0  0  0  0
   -3.3364    0.5451    0.4918 H   0  0  0  0  0  0  0  0  0  0  0  0
   -1.4183   -0.7281    2.0755 H   0  0  0  0  0  0  0  0  0  0  0  0
    0.8638    0.4051    2.2150 H   0  0  0  0  0  0  0  0  0  0  0  0
    0.9777   -1.3218    1.8256 H   0  0  0  0  0  0  0  0  0  0  0  0
    1.0795   -0.4111   -0.6288 H   0  0  0  0  0  0  0  0  0  0  0  0
    5.0632    1.0921   -0.0700 H   0  0  0  0  0  0  0  0  0  0  0  0
    6.5445    0.7341   -1.9497 H   0  0  0  0  0  0  0  0  0  0  0  0
    5.1539    0.4825   -3.0067 H   0  0  0  0  0  0  0  0  0  0  0  0
    3.6813    2.4263   -3.6521 H   0  0  0  0  0  0  0  0  0  0  0  0
    3.6390    4.8576   -4.1641 H   0  0  0  0  0  0  0  0  0  0  0  0
    7.2223    5.4303   -1.8895 H   0  0  0  0  0  0  0  0  0  0  0  0
    7.2979    3.0062   -1.3600 H   0  0  0  0  0  0  0  0  0  0  0  0
   -4.2844   -2.7289   -0.9258 H   0  0  0  0  0  0  0  0  0  0  0  0
   -6.5136   -2.6605    0.1377 H   0  0  0  0  0  0  0  0  0  0  0  0
  1  2  1  0
  2  3  1  0
  3  4  2  0
  4  5  1  0
  5  6  2  0
  6  7  1  0
  7  8  2  0
  7  9  2  0
  7 10  1  0
 10 11  1  0
 11 12  1  0
 12 13  1  0
 13 14  1  0
 14 15  1  0
 15 16  1  0
 16 17  1  0
 17 18  2  0
 17 19  1  0
 19 20  2  0
 19 21  1  0
 21 22  1  0
 22 23  1  0
 23 24  2  0
 24 25  1  0
 25 26  2  0
 26 27  1  0
 26 28  1  0
 28 29  2  0
  6 30  1  0
 30 31  2  0
 31  3  1  0
 14 10  1  0
 29 23  1  0
  1 32  1  0
  1 33  1  0
  1 34  1  0
  4 35  1  0
  5 36  1  0
 11 37  1  0
 11 38  1  0
 12 39  1  0
 12 40  1  0
 14 41  1  0
 15 42  1  0
 15 43  1  0
 16 44  1  0
 21 45  1  0
 22 46  1  0
 22 47  1  0
 24 48  1  0
 25 49  1  0
 28 50  1  0
 29 51  1  0
 30 52  1  0
 31 53  1  0
M  END
$$$$
