
     RDKit          3D

 45 44  0  0  0  0  0  0  0  0999 V2000
    6.4207   -3.1465   -0.7501 C   0  0  0  0  0  0  0  0  0  0  0  0
    5.5462   -3.7139    0.3574 C   0  0  0  0  0  0  0  0  0  0  0  0
    4.5524   -2.7015    0.9284 C   0  0  0  0  0  0  0  0  0  0  0  0
    3.4958   -2.2575   -0.0783 C   0  0  0  0  0  0  0  0  0  0  0  0
    2.5208   -1.3874    0.5386 N   0  0  0  0  0  0  0  0  0  0  0  0
    1.6858   -0.6103   -0.2061 C   0  0  0  0  0  0  0  0  0  0  0  0
    1.7695   -0.4237   -1.4097 O   0  0  0  0  0  0  0  0  0  0  0  0
    0.7365   -0.0863    0.6053 O   0  0  0  0  0  0  0  0  0  0  0  0
   -0.2250    0.7371   -0.0692 C   0  0  0  0  0  0  0  0  0  0  0  0
   -1.1499    1.4165    0.9608 C   0  0  0  0  0  0  0  0  0  0  0  0
   -0.4853    2.6006    1.6870 C   0  0  0  0  0  0  0  0  0  0  0  0
    0.7214    2.2287    2.5342 C   0  0  0  0  0  0  0  0  0  0  0  0
   -2.3775    1.8846    0.3257 N   0  0  0  0  0  0  0  0  0  0  0  0
   -3.4022    1.0453    0.0090 C   0  0  0  0  0  0  0  0  0  0  0  0
   -3.4713   -0.1327    0.3209 O   0  0  0  0  0  0  0  0  0  0  0  0
   -4.3151    1.7269   -0.7226 O   0  0  0  0  0  0  0  0  0  0  0  0
   -5.4652    0.9762   -1.1546 C   0  0  0  0  0  0  0  0  0  0  0  0
   -6.5918    1.9756   -1.3879 C   0  0  0  0  0  0  0  0  0  0  0  0
   -5.1331    0.2284   -2.4411 C   0  0  0  0  0  0  0  0  0  0  0  0
    7.1711   -3.8846   -1.0511 H   0  0  0  0  0  0  0  0  0  0  0  0
    5.8319   -2.8934   -1.6365 H   0  0  0  0  0  0  0  0  0  0  0  0
    6.9462   -2.2470   -0.4141 H   0  0  0  0  0  0  0  0  0  0  0  0
    5.0095   -4.5937   -0.0162 H   0  0  0  0  0  0  0  0  0  0  0  0
    6.1952   -4.0602    1.1705 H   0  0  0  0  0  0  0  0  0  0  0  0
    5.0915   -1.8253    1.3099 H   0  0  0  0  0  0  0  0  0  0  0  0
    4.0553   -3.1565    1.7947 H   0  0  0  0  0  0  0  0  0  0  0  0
    2.9540   -3.1217   -0.4785 H   0  0  0  0  0  0  0  0  0  0  0  0
    3.9507   -1.7275   -0.9215 H   0  0  0  0  0  0  0  0  0  0  0  0
    2.1789   -1.5909    1.4676 H   0  0  0  0  0  0  0  0  0  0  0  0
    0.2794    1.4983   -0.6778 H   0  0  0  0  0  0  0  0  0  0  0  0
   -0.8103    0.0924   -0.7362 H   0  0  0  0  0  0  0  0  0  0  0  0
   -1.4350    0.6701    1.7139 H   0  0  0  0  0  0  0  0  0  0  0  0
   -0.1925    3.3698    0.9612 H   0  0  0  0  0  0  0  0  0  0  0  0
   -1.2290    3.0710    2.3437 H   0  0  0  0  0  0  0  0  0  0  0  0
    1.0339    3.0881    3.1367 H   0  0  0  0  0  0  0  0  0  0  0  0
    0.4880    1.4053    3.2161 H   0  0  0  0  0  0  0  0  0  0  0  0
    1.5743    1.9415    1.9131 H   0  0  0  0  0  0  0  0  0  0  0  0
   -2.4065    2.7852   -0.1327 H   0  0  0  0  0  0  0  0  0  0  0  0
   -5.7816    0.2736   -0.3740 H   0  0  0  0  0  0  0  0  0  0  0  0
   -6.3069    2.7227   -2.1371 H   0  0  0  0  0  0  0  0  0  0  0  0
   -7.5059    1.4746   -1.7209 H   0  0  0  0  0  0  0  0  0  0  0  0
   -6.8109    2.5238   -0.4652 H   0  0  0  0  0  0  0  0  0  0  0  0
   -4.7830    0.9192   -3.2161 H   0  0  0  0  0  0  0  0  0  0  0  0
   -4.3258   -0.4926   -2.2766 H   0  0  0  0  0  0  0  0  0  0  0  0
   -6.0052   -0.3129   -2.8208 H   0  0  0  0  0  0  0  0  0  0  0  0
  1  2  1  0
  2  3  1  0
  3  4  1  0
  4  5  1  0
  5  6  1  0
  6  7  2  0
  6  8  1  0
  8  9  1  0
  9 10  1  0
 10 11  1  0
 11 12  1  0
 10 13  1  0
 13 14  1  0
 14 15  2  0
 14 16  1  0
 16 17  1  0
 17 18  1  0
 17 19  1  0
  1 20  1  0
  1 21  1  0
  1 22  1  0
  2 23  1  0
  2 24  1  0
  3 25  1  0
  3 26  1  0
  4 27  1  0
  4 28  1  0
  5 29  1  0
  9 30  1  0
  9 31  1  0
 10 32  1  0
 11 33  1  0
 11 34  1  0
 12 35  1  0
 12 36  1  0
 12 37  1  0
 13 38  1  0
 17 39  1  0
 18 40  1  0
 18 41  1  0
 18 42  1  0
 19 43  1  0
 19 44  1  0
 19 45  1  0
M  END
$$$$
