
     RDKit          3D

 32 32  0  0  0  0  0  0  0  0999 V2000
   -6.4783   -0.2907   -0.9465 C   0  0  0  0  0  0  0  0  0  0  0  0
   -5.3941    0.2234   -0.8855 C   0  0  0  0  0  0  0  0  0  0  0  0
   -4.0678    0.8585   -0.8062 C   0  0  0  0  0  0  0  0  0  0  0  0
   -2.9771   -0.1340   -0.8328 N   0  0  0  0  0  0  0  0  0  0  0  0
   -2.8656   -0.7435   -2.1633 C   0  0  0  0  0  0  0  0  0  0  0  0
   -1.7141    0.5034   -0.4189 C   0  0  0  0  0  0  0  0  0  0  0  0
   -0.5673   -0.4907   -0.2098 C   0  0  0  0  0  0  0  0  0  0  0  0
    0.6573    0.1999    0.3881 C   0  0  0  0  0  0  0  0  0  0  0  0
    1.6937   -0.7733    0.5105 O   0  0  0  0  0  0  0  0  0  0  0  0
    2.9000   -0.3715    1.0200 C   0  0  0  0  0  0  0  0  0  0  0  0
    3.1824    0.9258    1.4612 C   0  0  0  0  0  0  0  0  0  0  0  0
    4.4479    1.2403    1.9688 C   0  0  0  0  0  0  0  0  0  0  0  0
    5.4357    0.2606    2.0378 C   0  0  0  0  0  0  0  0  0  0  0  0
    6.9882    0.6575    2.6629 Cl  0  0  0  0  0  0  0  0  0  0  0  0
    5.1742   -1.0344    1.6048 C   0  0  0  0  0  0  0  0  0  0  0  0
    3.9102   -1.3471    1.0984 C   0  0  0  0  0  0  0  0  0  0  0  0
    3.6338   -2.9717    0.5703 Cl  0  0  0  0  0  0  0  0  0  0  0  0
   -7.4356   -0.7554   -0.9969 H   0  0  0  0  0  0  0  0  0  0  0  0
   -3.9485    1.5964   -1.6096 H   0  0  0  0  0  0  0  0  0  0  0  0
   -4.0385    1.4144    0.1399 H   0  0  0  0  0  0  0  0  0  0  0  0
   -2.1337   -1.5571   -2.1650 H   0  0  0  0  0  0  0  0  0  0  0  0
   -3.8092   -1.2041   -2.4751 H   0  0  0  0  0  0  0  0  0  0  0  0
   -2.5742   -0.0128   -2.9265 H   0  0  0  0  0  0  0  0  0  0  0  0
   -1.8770    1.0160    0.5383 H   0  0  0  0  0  0  0  0  0  0  0  0
   -1.4130    1.2719   -1.1430 H   0  0  0  0  0  0  0  0  0  0  0  0
   -0.2739   -0.9621   -1.1549 H   0  0  0  0  0  0  0  0  0  0  0  0
   -0.8814   -1.3058    0.4544 H   0  0  0  0  0  0  0  0  0  0  0  0
    0.4028    0.6033    1.3754 H   0  0  0  0  0  0  0  0  0  0  0  0
    0.9812    1.0095   -0.2770 H   0  0  0  0  0  0  0  0  0  0  0  0
    2.4414    1.7178    1.4270 H   0  0  0  0  0  0  0  0  0  0  0  0
    4.6545    2.2523    2.3090 H   0  0  0  0  0  0  0  0  0  0  0  0
    5.9459   -1.7970    1.6598 H   0  0  0  0  0  0  0  0  0  0  0  0
  1  2  3  0
  2  3  1  0
  3  4  1  0
  4  5  1  0
  4  6  1  0
  6  7  1  0
  7  8  1  0
  8  9  1  0
  9 10  1  0
 10 11  2  0
 11 12  1  0
 12 13  2  0
 13 14  1  0
 13 15  1  0
 15 16  2  0
 16 17  1  0
 16 10  1  0
  1 18  1  0
  3 19  1  0
  3 20  1  0
  5 21  1  0
  5 22  1  0
  5 23  1  0
  6 24  1  0
  6 25  1  0
  7 26  1  0
  7 27  1  0
  8 28  1  0
  8 29  1  0
 11 30  1  0
 12 31  1  0
 15 32  1  0
M  END
$$$$
