
     RDKit          3D

 56 61  0  0  0  0  0  0  0  0999 V2000
    8.6925    2.5314   -1.6506 C   0  0  0  0  0  0  0  0  0  0  0  0
    8.9888    1.5726   -0.6421 O   0  0  0  0  0  0  0  0  0  0  0  0
    7.9584    0.7779   -0.2208 C   0  0  0  0  0  0  0  0  0  0  0  0
    8.3043   -0.1522    0.7562 C   0  0  0  0  0  0  0  0  0  0  0  0
    7.3446   -1.0217    1.2691 C   0  0  0  0  0  0  0  0  0  0  0  0
    6.0232   -0.9649    0.8050 C   0  0  0  0  0  0  0  0  0  0  0  0
    5.0454   -1.8347    1.3131 C   0  0  0  0  0  0  0  0  0  0  0  0
    3.7465   -1.7194    0.8035 C   0  0  0  0  0  0  0  0  0  0  0  0
    2.5018   -2.3606    1.0128 C   0  0  0  0  0  0  0  0  0  0  0  0
    1.5862   -1.7463    0.1750 C   0  0  0  0  0  0  0  0  0  0  0  0
    0.1804   -2.0436   -0.0422 C   0  0  0  0  0  0  0  0  0  0  0  0
   -0.2932   -3.1244    0.3146 O   0  0  0  0  0  0  0  0  0  0  0  0
   -0.6214   -1.0903   -0.6836 N   0  0  0  0  0  0  0  0  0  0  0  0
   -1.9907   -1.4753   -1.0232 C   0  0  0  0  0  0  0  0  0  0  0  0
   -2.9705   -1.0691    0.0951 C   0  0  0  0  0  0  0  0  0  0  0  0
   -2.8922    0.3844    0.3864 N   0  0  0  0  0  0  0  0  0  0  0  0
   -3.7822    0.7614    1.4963 C   0  0  0  0  0  0  0  0  0  0  0  0
   -5.2517    0.6552    1.1437 C   0  0  0  0  0  0  0  0  0  0  0  0
   -6.1040   -0.2011    1.8794 C   0  0  0  0  0  0  0  0  0  0  0  0
   -7.4640   -0.3035    1.5686 C   0  0  0  0  0  0  0  0  0  0  0  0
   -7.9426    0.4582    0.5253 C   0  0  0  0  0  0  0  0  0  0  0  0
   -7.1246    1.2952   -0.1955 C   0  0  0  0  0  0  0  0  0  0  0  0
   -5.7810    1.4174    0.0871 C   0  0  0  0  0  0  0  0  0  0  0  0
   -7.7935    1.9542   -1.1792 O   0  0  0  0  0  0  0  0  0  0  0  0
   -9.1256    1.4322   -0.9968 C   0  0  0  0  0  0  0  0  0  0  0  0
   -9.2295    0.4847    0.0862 O   0  0  0  0  0  0  0  0  0  0  0  0
   -1.4960    0.7663    0.6986 C   0  0  0  0  0  0  0  0  0  0  0  0
   -0.5026    0.3461   -0.4098 C   0  0  0  0  0  0  0  0  0  0  0  0
    2.2215   -0.7836   -0.5620 O   0  0  0  0  0  0  0  0  0  0  0  0
    3.5243   -0.7561   -0.1718 C   0  0  0  0  0  0  0  0  0  0  0  0
    4.4210    0.0988   -0.6864 N   0  0  0  0  0  0  0  0  0  0  0  0
    5.6582   -0.0229   -0.1883 C   0  0  0  0  0  0  0  0  0  0  0  0
    6.6396    0.8294   -0.6789 C   0  0  0  0  0  0  0  0  0  0  0  0
    9.6153    3.0743   -1.8767 H   0  0  0  0  0  0  0  0  0  0  0  0
    7.9554    3.2601   -1.2974 H   0  0  0  0  0  0  0  0  0  0  0  0
    8.3583    2.0441   -2.5726 H   0  0  0  0  0  0  0  0  0  0  0  0
    9.3285   -0.1999    1.1189 H   0  0  0  0  0  0  0  0  0  0  0  0
    7.6381   -1.7406    2.0307 H   0  0  0  0  0  0  0  0  0  0  0  0
    5.2788   -2.5732    2.0733 H   0  0  0  0  0  0  0  0  0  0  0  0
    2.2803   -3.1773    1.6865 H   0  0  0  0  0  0  0  0  0  0  0  0
   -2.2539   -0.9675   -1.9593 H   0  0  0  0  0  0  0  0  0  0  0  0
   -2.0542   -2.5529   -1.2091 H   0  0  0  0  0  0  0  0  0  0  0  0
   -2.7489   -1.6489    1.0007 H   0  0  0  0  0  0  0  0  0  0  0  0
   -3.9808   -1.3367   -0.2335 H   0  0  0  0  0  0  0  0  0  0  0  0
   -3.5588    0.1670    2.3922 H   0  0  0  0  0  0  0  0  0  0  0  0
   -3.6066    1.8096    1.7742 H   0  0  0  0  0  0  0  0  0  0  0  0
   -5.7050   -0.7960    2.6986 H   0  0  0  0  0  0  0  0  0  0  0  0
   -8.1211   -0.9598    2.1276 H   0  0  0  0  0  0  0  0  0  0  0  0
   -5.1502    2.0783   -0.4985 H   0  0  0  0  0  0  0  0  0  0  0  0
   -9.8052    2.2686   -0.7966 H   0  0  0  0  0  0  0  0  0  0  0  0
   -9.4392    0.9396   -1.9245 H   0  0  0  0  0  0  0  0  0  0  0  0
   -1.4317    1.8542    0.8195 H   0  0  0  0  0  0  0  0  0  0  0  0
   -1.1844    0.3080    1.6469 H   0  0  0  0  0  0  0  0  0  0  0  0
   -0.7234    0.8805   -1.3413 H   0  0  0  0  0  0  0  0  0  0  0  0
    0.4995    0.6303   -0.0894 H   0  0  0  0  0  0  0  0  0  0  0  0
    6.3377    1.5427   -1.4398 H   0  0  0  0  0  0  0  0  0  0  0  0
  1  2  1  0
  2  3  1  0
  3  4  2  0
  4  5  1  0
  5  6  2  0
  6  7  1  0
  7  8  2  0
  8  9  1  0
  9 10  2  0
 10 11  1  0
 11 12  2  0
 11 13  1  0
 13 14  1  0
 14 15  1  0
 15 16  1  0
 16 17  1  0
 17 18  1  0
 18 19  2  0
 19 20  1  0
 20 21  2  0
 21 22  1  0
 22 23  2  0
 22 24  1  0
 24 25  1  0
 25 26  1  0
 16 27  1  0
 27 28  1  0
 10 29  1  0
 29 30  1  0
 30 31  2  0
 31 32  1  0
 32 33  2  0
 33  3  1  0
 32  6  1  0
 30  8  1  0
 28 13  1  0
 23 18  1  0
 26 21  1  0
  1 34  1  0
  1 35  1  0
  1 36  1  0
  4 37  1  0
  5 38  1  0
  7 39  1  0
  9 40  1  0
 14 41  1  0
 14 42  1  0
 15 43  1  0
 15 44  1  0
 17 45  1  0
 17 46  1  0
 19 47  1  0
 20 48  1  0
 23 49  1  0
 25 50  1  0
 25 51  1  0
 27 52  1  0
 27 53  1  0
 28 54  1  0
 28 55  1  0
 33 56  1  0
M  END
$$$$
