
     RDKit          3D

 43 45  0  0  0  0  0  0  0  0999 V2000
   -1.1789    4.1276   -3.2166 C   0  0  0  0  0  0  0  0  0  0  0  0
   -2.1387    3.1483   -2.6086 C   0  0  0  0  0  0  0  0  0  0  0  0
   -2.6433    2.2147   -3.2169 O   0  0  0  0  0  0  0  0  0  0  0  0
   -2.3438    3.4968   -1.2790 O   0  0  0  0  0  0  0  0  0  0  0  0
   -3.1880    2.6049   -0.6061 C   0  0  0  0  0  0  0  0  0  0  0  0
   -4.5693    2.7868   -0.7164 C   0  0  0  0  0  0  0  0  0  0  0  0
   -5.4281    1.9322   -0.0294 C   0  0  0  0  0  0  0  0  0  0  0  0
   -4.9052    0.9178    0.7728 C   0  0  0  0  0  0  0  0  0  0  0  0
   -3.5207    0.7553    0.8930 C   0  0  0  0  0  0  0  0  0  0  0  0
   -2.6386    1.5967    0.2009 C   0  0  0  0  0  0  0  0  0  0  0  0
   -1.1823    1.4677    0.3650 C   0  0  0  0  0  0  0  0  0  0  0  0
   -0.5388    0.2905    0.3008 C   0  0  0  0  0  0  0  0  0  0  0  0
    0.9053    0.0953    0.4715 C   0  0  0  0  0  0  0  0  0  0  0  0
    1.8479    1.0676    0.1704 C   0  0  0  0  0  0  0  0  0  0  0  0
    3.1952    0.7694    0.3505 C   0  0  0  0  0  0  0  0  0  0  0  0
    3.5748   -0.4946    0.8142 C   0  0  0  0  0  0  0  0  0  0  0  0
    4.9289   -0.8265    1.0178 C   0  0  0  0  0  0  0  0  0  0  0  0
    5.2910   -2.0891    1.4878 C   0  0  0  0  0  0  0  0  0  0  0  0
    4.3054   -3.0317    1.7488 C   0  0  0  0  0  0  0  0  0  0  0  0
    2.9677   -2.6957    1.5220 C   0  0  0  0  0  0  0  0  0  0  0  0
    1.9966   -3.6640    1.8165 O   0  0  0  0  0  0  0  0  0  0  0  0
    1.5419   -4.2987    0.6688 C   0  0  0  0  0  0  0  0  0  0  0  0
    0.3517   -5.1395    1.0232 C   0  0  0  0  0  0  0  0  0  0  0  0
    2.0363   -4.2454   -0.4502 O   0  0  0  0  0  0  0  0  0  0  0  0
    2.5586   -1.4350    1.0745 C   0  0  0  0  0  0  0  0  0  0  0  0
    1.2487   -1.1380    0.9071 N   0  0  0  0  0  0  0  0  0  0  0  0
   -0.9957    3.8551   -4.2599 H   0  0  0  0  0  0  0  0  0  0  0  0
   -1.6070    5.1327   -3.1882 H   0  0  0  0  0  0  0  0  0  0  0  0
   -0.2283    4.0974   -2.6780 H   0  0  0  0  0  0  0  0  0  0  0  0
   -4.9729    3.5791   -1.3392 H   0  0  0  0  0  0  0  0  0  0  0  0
   -6.5044    2.0558   -0.1175 H   0  0  0  0  0  0  0  0  0  0  0  0
   -5.5756    0.2535    1.3127 H   0  0  0  0  0  0  0  0  0  0  0  0
   -3.1394   -0.0292    1.5431 H   0  0  0  0  0  0  0  0  0  0  0  0
   -0.6533    2.3992    0.5430 H   0  0  0  0  0  0  0  0  0  0  0  0
   -1.0876   -0.6326    0.1283 H   0  0  0  0  0  0  0  0  0  0  0  0
    1.5587    2.0412   -0.2074 H   0  0  0  0  0  0  0  0  0  0  0  0
    3.9424    1.5252    0.1227 H   0  0  0  0  0  0  0  0  0  0  0  0
    5.7104   -0.0976    0.8124 H   0  0  0  0  0  0  0  0  0  0  0  0
    6.3381   -2.3346    1.6448 H   0  0  0  0  0  0  0  0  0  0  0  0
    4.5695   -4.0199    2.1122 H   0  0  0  0  0  0  0  0  0  0  0  0
   -0.4106   -4.5204    1.5033 H   0  0  0  0  0  0  0  0  0  0  0  0
   -0.0767   -5.5631    0.1103 H   0  0  0  0  0  0  0  0  0  0  0  0
    0.6578   -5.9549    1.6829 H   0  0  0  0  0  0  0  0  0  0  0  0
  1  2  1  0
  2  3  2  0
  2  4  1  0
  4  5  1  0
  5  6  2  0
  6  7  1  0
  7  8  2  0
  8  9  1  0
  9 10  2  0
 10 11  1  0
 11 12  2  0
 12 13  1  0
 13 14  2  0
 14 15  1  0
 15 16  2  0
 16 17  1  0
 17 18  2  0
 18 19  1  0
 19 20  2  0
 20 21  1  0
 21 22  1  0
 22 23  1  0
 22 24  2  0
 20 25  1  0
 25 26  2  0
 10  5  1  0
 26 13  1  0
 25 16  1  0
  1 27  1  0
  1 28  1  0
  1 29  1  0
  6 30  1  0
  7 31  1  0
  8 32  1  0
  9 33  1  0
 11 34  1  0
 12 35  1  0
 14 36  1  0
 15 37  1  0
 17 38  1  0
 18 39  1  0
 19 40  1  0
 23 41  1  0
 23 42  1  0
 23 43  1  0
M  END
$$$$
