
     RDKit          3D

 51 53  0  0  0  0  0  0  0  0999 V2000
    6.2333    2.5914   -2.9914 C   0  0  0  0  0  0  0  0  0  0  0  0
    6.0870    2.3014   -1.6068 O   0  0  0  0  0  0  0  0  0  0  0  0
    5.4424    1.1364   -1.2722 C   0  0  0  0  0  0  0  0  0  0  0  0
    4.7178    0.3518   -2.1764 C   0  0  0  0  0  0  0  0  0  0  0  0
    4.0817   -0.8158   -1.7486 C   0  0  0  0  0  0  0  0  0  0  0  0
    4.1495   -1.2115   -0.4079 C   0  0  0  0  0  0  0  0  0  0  0  0
    3.4615   -2.4770    0.0486 C   0  0  0  0  0  0  0  0  0  0  0  0
    1.9664   -2.5001   -0.2399 C   0  0  0  0  0  0  0  0  0  0  0  0
    1.4812   -3.3813   -0.9412 O   0  0  0  0  0  0  0  0  0  0  0  0
    1.2769   -1.4785    0.3903 N   0  0  0  0  0  0  0  0  0  0  0  0
   -0.1096   -1.2308    0.3660 C   0  0  0  0  0  0  0  0  0  0  0  0
   -1.0366   -2.0347   -0.2936 C   0  0  0  0  0  0  0  0  0  0  0  0
   -2.4017   -1.7191   -0.2599 C   0  0  0  0  0  0  0  0  0  0  0  0
   -2.8635   -0.5962    0.4319 C   0  0  0  0  0  0  0  0  0  0  0  0
   -4.2536   -0.3577    0.4213 N   0  0  0  0  0  0  0  0  0  0  0  0
   -4.9225    0.7186    0.9771 C   0  0  0  0  0  0  0  0  0  0  0  0
   -4.4226    1.6978    1.5190 O   0  0  0  0  0  0  0  0  0  0  0  0
   -6.4073    0.6666    0.8524 C   0  0  0  0  0  0  0  0  0  0  0  0
   -7.1050    1.8700    0.6751 C   0  0  0  0  0  0  0  0  0  0  0  0
   -8.4970    1.8657    0.5608 C   0  0  0  0  0  0  0  0  0  0  0  0
   -9.1914    0.6585    0.6364 C   0  0  0  0  0  0  0  0  0  0  0  0
  -11.0756    0.6501    0.4863 Br  0  0  0  0  0  0  0  0  0  0  0  0
   -8.5084   -0.5435    0.8310 C   0  0  0  0  0  0  0  0  0  0  0  0
   -7.1150   -0.5412    0.9441 C   0  0  0  0  0  0  0  0  0  0  0  0
   -1.9373    0.2032    1.0979 C   0  0  0  0  0  0  0  0  0  0  0  0
   -0.5721   -0.1112    1.0641 C   0  0  0  0  0  0  0  0  0  0  0  0
    4.8804   -0.4273    0.4995 C   0  0  0  0  0  0  0  0  0  0  0  0
    5.5221    0.7455    0.0790 C   0  0  0  0  0  0  0  0  0  0  0  0
    6.2546    1.5662    0.8992 O   0  0  0  0  0  0  0  0  0  0  0  0
    6.3517    1.2178    2.2728 C   0  0  0  0  0  0  0  0  0  0  0  0
    5.2660    2.8184   -3.4504 H   0  0  0  0  0  0  0  0  0  0  0  0
    6.7422    1.7748   -3.5181 H   0  0  0  0  0  0  0  0  0  0  0  0
    6.8593    3.4848   -3.0804 H   0  0  0  0  0  0  0  0  0  0  0  0
    4.6226    0.6253   -3.2225 H   0  0  0  0  0  0  0  0  0  0  0  0
    3.5292   -1.4120   -2.4741 H   0  0  0  0  0  0  0  0  0  0  0  0
    3.9306   -3.3322   -0.4506 H   0  0  0  0  0  0  0  0  0  0  0  0
    3.5952   -2.6292    1.1257 H   0  0  0  0  0  0  0  0  0  0  0  0
    1.8367   -0.8013    0.8961 H   0  0  0  0  0  0  0  0  0  0  0  0
   -0.7361   -2.9207   -0.8453 H   0  0  0  0  0  0  0  0  0  0  0  0
   -3.0919   -2.3764   -0.7838 H   0  0  0  0  0  0  0  0  0  0  0  0
   -4.8033   -1.0151   -0.1145 H   0  0  0  0  0  0  0  0  0  0  0  0
   -6.5628    2.8138    0.6262 H   0  0  0  0  0  0  0  0  0  0  0  0
   -9.0260    2.8062    0.4207 H   0  0  0  0  0  0  0  0  0  0  0  0
   -9.0522   -1.4823    0.9084 H   0  0  0  0  0  0  0  0  0  0  0  0
   -6.6026   -1.4813    1.1352 H   0  0  0  0  0  0  0  0  0  0  0  0
   -2.2408    1.0790    1.6616 H   0  0  0  0  0  0  0  0  0  0  0  0
    0.1179    0.5405    1.5974 H   0  0  0  0  0  0  0  0  0  0  0  0
    4.9451   -0.7548    1.5323 H   0  0  0  0  0  0  0  0  0  0  0  0
    6.9633    1.9770    2.7685 H   0  0  0  0  0  0  0  0  0  0  0  0
    5.3666    1.2191    2.7511 H   0  0  0  0  0  0  0  0  0  0  0  0
    6.8539    0.2515    2.4005 H   0  0  0  0  0  0  0  0  0  0  0  0
  1  2  1  0
  2  3  1  0
  3  4  2  0
  4  5  1  0
  5  6  2  0
  6  7  1  0
  7  8  1  0
  8  9  2  0
  8 10  1  0
 10 11  1  0
 11 12  2  0
 12 13  1  0
 13 14  2  0
 14 15  1  0
 15 16  1  0
 16 17  2  0
 16 18  1  0
 18 19  2  0
 19 20  1  0
 20 21  2  0
 21 22  1  0
 21 23  1  0
 23 24  2  0
 14 25  1  0
 25 26  2  0
  6 27  1  0
 27 28  2  0
 28 29  1  0
 29 30  1  0
 28  3  1  0
 26 11  1  0
 24 18  1  0
  1 31  1  0
  1 32  1  0
  1 33  1  0
  4 34  1  0
  5 35  1  0
  7 36  1  0
  7 37  1  0
 10 38  1  0
 12 39  1  0
 13 40  1  0
 15 41  1  0
 19 42  1  0
 20 43  1  0
 23 44  1  0
 24 45  1  0
 25 46  1  0
 26 47  1  0
 27 48  1  0
 30 49  1  0
 30 50  1  0
 30 51  1  0
M  END
$$$$
