
     RDKit          3D

 43 43  0  0  0  0  0  0  0  0999 V2000
   -4.6292    2.4725    3.3478 C   0  0  0  0  0  0  0  0  0  0  0  0
   -4.6371    1.3330    2.3674 C   0  0  0  0  0  0  0  0  0  0  0  0
   -5.4656   -0.0785    2.9445 Cl  0  0  0  0  0  0  0  0  0  0  0  0
   -4.0443    1.3676    1.1598 C   0  0  0  0  0  0  0  0  0  0  0  0
   -4.0335    0.2817    0.1207 C   0  0  0  0  0  0  0  0  0  0  0  0
   -2.7175   -0.5103    0.0072 N   0  0  0  0  0  4  0  0  0  0  0  0
   -2.9066   -1.5806   -1.0721 C   0  0  0  0  0  0  0  0  0  0  0  0
   -2.4086   -1.2107    1.3340 C   0  0  0  0  0  0  0  0  0  0  0  0
   -1.5497    0.4532   -0.4075 C   0  0  0  0  0  0  0  0  0  0  0  0
   -0.1812   -0.1748   -0.6701 C   0  0  0  0  0  0  0  0  0  0  0  0
    0.1617   -1.2854   -0.2869 O   0  0  0  0  0  0  0  0  0  0  0  0
    0.6039    0.7033   -1.3591 O   0  0  0  0  0  0  0  0  0  0  0  0
    1.9337    0.2415   -1.6773 C   0  0  0  0  0  0  0  0  0  0  0  0
    2.8875    0.5198   -0.5165 C   0  0  0  0  0  0  0  0  0  0  0  0
    4.2572   -0.0516   -0.7674 C   0  0  0  0  0  0  0  0  0  0  0  0
    4.6649   -1.2243   -0.1156 C   0  0  0  0  0  0  0  0  0  0  0  0
    5.9228   -1.7727   -0.3699 C   0  0  0  0  0  0  0  0  0  0  0  0
    6.7836   -1.1563   -1.2790 C   0  0  0  0  0  0  0  0  0  0  0  0
    6.3910    0.0137   -1.9291 C   0  0  0  0  0  0  0  0  0  0  0  0
    5.1343    0.5648   -1.6728 C   0  0  0  0  0  0  0  0  0  0  0  0
   -4.2031    2.1463    4.3064 H   0  0  0  0  0  0  0  0  0  0  0  0
   -4.0294    3.3171    2.9929 H   0  0  0  0  0  0  0  0  0  0  0  0
   -5.6481    2.8330    3.5269 H   0  0  0  0  0  0  0  0  0  0  0  0
   -3.5658    2.2989    0.8615 H   0  0  0  0  0  0  0  0  0  0  0  0
   -4.2109    0.7383   -0.8629 H   0  0  0  0  0  0  0  0  0  0  0  0
   -4.8365   -0.4551    0.2759 H   0  0  0  0  0  0  0  0  0  0  0  0
   -3.0704   -1.0735   -2.0288 H   0  0  0  0  0  0  0  0  0  0  0  0
   -2.0159   -2.2117   -1.1209 H   0  0  0  0  0  0  0  0  0  0  0  0
   -3.7761   -2.1893   -0.8084 H   0  0  0  0  0  0  0  0  0  0  0  0
   -2.1505   -0.4566    2.0811 H   0  0  0  0  0  0  0  0  0  0  0  0
   -3.2953   -1.7784    1.6348 H   0  0  0  0  0  0  0  0  0  0  0  0
   -1.5769   -1.9053    1.1983 H   0  0  0  0  0  0  0  0  0  0  0  0
   -1.4305    1.1813    0.4030 H   0  0  0  0  0  0  0  0  0  0  0  0
   -1.8885    0.9587   -1.3194 H   0  0  0  0  0  0  0  0  0  0  0  0
    1.9157   -0.8256   -1.9602 H   0  0  0  0  0  0  0  0  0  0  0  0
    2.2532    0.7960   -2.5700 H   0  0  0  0  0  0  0  0  0  0  0  0
    2.9638    1.6054   -0.3530 H   0  0  0  0  0  0  0  0  0  0  0  0
    2.4760    0.1237    0.4211 H   0  0  0  0  0  0  0  0  0  0  0  0
    4.0087   -1.7200    0.5972 H   0  0  0  0  0  0  0  0  0  0  0  0
    6.2313   -2.6832    0.1379 H   0  0  0  0  0  0  0  0  0  0  0  0
    7.7628   -1.5852   -1.4788 H   0  0  0  0  0  0  0  0  0  0  0  0
    7.0670    0.4962   -2.6362 H   0  0  0  0  0  0  0  0  0  0  0  0
    4.8521    1.4832   -2.1845 H   0  0  0  0  0  0  0  0  0  0  0  0
  1  2  1  0
  2  3  1  0
  2  4  2  3
  4  5  1  0
  5  6  1  0
  6  7  1  0
  6  8  1  0
  6  9  1  0
  9 10  1  0
 10 11  2  0
 10 12  1  0
 12 13  1  0
 13 14  1  0
 14 15  1  0
 15 16  2  0
 16 17  1  0
 17 18  2  0
 18 19  1  0
 19 20  2  0
 20 15  1  0
  1 21  1  0
  1 22  1  0
  1 23  1  0
  4 24  1  0
  5 25  1  0
  5 26  1  0
  7 27  1  0
  7 28  1  0
  7 29  1  0
  8 30  1  0
  8 31  1  0
  8 32  1  0
  9 33  1  0
  9 34  1  0
 13 35  1  0
 13 36  1  0
 14 37  1  0
 14 38  1  0
 16 39  1  0
 17 40  1  0
 18 41  1  0
 19 42  1  0
 20 43  1  0
M  CHG  1   6   1
M  END
$$$$
