
     RDKit          3D

 50 54  0  0  0  0  0  0  0  0999 V2000
   -4.9906    0.8638    0.4965 C   0  0  0  0  0  0  0  0  0  0  0  0
   -4.7143   -0.5779    0.2069 C   0  0  0  0  0  0  0  0  0  0  0  0
   -5.6765   -1.5086    0.1094 C   0  0  0  0  0  0  0  0  0  0  0  0
   -5.3560   -2.8808   -0.1709 C   0  0  0  0  0  0  0  0  0  0  0  0
   -4.0809   -3.2457   -0.3388 C   0  0  0  0  0  0  0  0  0  0  0  0
   -3.0393   -2.3297   -0.2515 N   0  0  0  0  0  0  0  0  0  0  0  0
   -1.7389   -2.7704   -0.4285 C   0  0  0  0  0  0  0  0  0  0  0  0
   -1.4295   -3.9428   -0.6499 O   0  0  0  0  0  0  0  0  0  0  0  0
   -0.6759   -1.7314   -0.3329 C   0  0  0  0  0  0  0  0  0  0  0  0
    0.7169   -2.1097   -0.5129 C   0  0  0  0  0  0  0  0  0  0  0  0
    1.7144   -1.2104   -0.4833 C   0  0  0  0  0  0  0  0  0  0  0  0
    3.3380   -1.7394   -0.7445 S   0  0  0  0  0  6  0  0  0  0  0  0
    3.8167   -1.2728   -2.0346 O   0  0  0  0  0  0  0  0  0  0  0  0
    3.4378   -3.1604   -0.4384 O   0  0  0  0  0  0  0  0  0  0  0  0
    4.3047   -0.9402    0.5264 C   0  0  0  0  0  0  0  0  0  0  0  0
    4.1924   -1.3878    1.8499 C   0  0  0  0  0  0  0  0  0  0  0  0
    4.9689   -0.7895    2.8426 C   0  0  0  0  0  0  0  0  0  0  0  0
    5.8505    0.2336    2.5034 C   0  0  0  0  0  0  0  0  0  0  0  0
    6.5924    0.8053    3.4610 F   0  0  0  0  0  0  0  0  0  0  0  0
    5.9784    0.6683    1.1874 C   0  0  0  0  0  0  0  0  0  0  0  0
    5.2075    0.0746    0.1875 C   0  0  0  0  0  0  0  0  0  0  0  0
    1.3294    0.2174   -0.2785 C   0  0  0  0  0  0  0  0  0  0  0  0
    2.2723    1.1000   -0.3987 N   0  0  0  0  0  0  0  0  0  0  0  0
   -0.0078    0.5286    0.0191 N   0  0  0  0  0  0  0  0  0  0  0  0
   -0.3804    1.8982    0.4158 C   0  0  0  0  0  0  0  0  0  0  0  0
   -0.5228    2.8561   -0.7169 C   0  0  0  0  0  0  0  0  0  0  0  0
   -1.4905    3.0499   -1.6803 C   0  0  0  0  0  0  0  0  0  0  0  0
   -1.0321    4.1121   -2.4955 C   0  0  0  0  0  0  0  0  0  0  0  0
    0.1838    4.4955   -1.9799 C   0  0  0  0  0  0  0  0  0  0  0  0
    0.5019    3.7393   -0.8978 O   0  0  0  0  0  0  0  0  0  0  0  0
   -1.0283   -0.4535   -0.0680 C   0  0  0  0  0  0  0  0  0  0  0  0
   -2.3450   -0.0996    0.1104 N   0  0  0  0  0  0  0  0  0  0  0  0
   -3.2794   -0.9926    0.0166 C   0  0  0  0  0  0  0  0  0  0  0  0
   -6.0620    1.0555    0.6193 H   0  0  0  0  0  0  0  0  0  0  0  0
   -4.4920    1.1735    1.4209 H   0  0  0  0  0  0  0  0  0  0  0  0
   -4.6342    1.4964   -0.3231 H   0  0  0  0  0  0  0  0  0  0  0  0
   -6.7246   -1.2542    0.2391 H   0  0  0  0  0  0  0  0  0  0  0  0
   -6.1619   -3.6045   -0.2418 H   0  0  0  0  0  0  0  0  0  0  0  0
   -3.8172   -4.2793   -0.5512 H   0  0  0  0  0  0  0  0  0  0  0  0
    0.9216   -3.1654   -0.6861 H   0  0  0  0  0  0  0  0  0  0  0  0
    3.5194   -2.2018    2.1087 H   0  0  0  0  0  0  0  0  0  0  0  0
    4.9008   -1.1172    3.8753 H   0  0  0  0  0  0  0  0  0  0  0  0
    6.6751    1.4656    0.9484 H   0  0  0  0  0  0  0  0  0  0  0  0
    5.2993    0.4157   -0.8416 H   0  0  0  0  0  0  0  0  0  0  0  0
    1.9197    2.0589   -0.3241 H   0  0  0  0  0  0  0  0  0  0  0  0
    0.3659    2.2791    1.1263 H   0  0  0  0  0  0  0  0  0  0  0  0
   -1.3117    1.9075    0.9967 H   0  0  0  0  0  0  0  0  0  0  0  0
   -2.4054    2.4825   -1.7834 H   0  0  0  0  0  0  0  0  0  0  0  0
   -1.5215    4.5413   -3.3585 H   0  0  0  0  0  0  0  0  0  0  0  0
    0.9110    5.2470   -2.2557 H   0  0  0  0  0  0  0  0  0  0  0  0
  1  2  1  0
  2  3  2  0
  3  4  1  0
  4  5  2  0
  5  6  1  0
  6  7  1  0
  7  8  2  0
  7  9  1  0
  9 10  1  0
 10 11  2  0
 11 12  1  0
 12 13  2  0
 12 14  2  0
 12 15  1  0
 15 16  2  0
 16 17  1  0
 17 18  2  0
 18 19  1  0
 18 20  1  0
 20 21  2  0
 11 22  1  0
 22 23  2  3
 22 24  1  0
 24 25  1  0
 25 26  1  0
 26 27  2  0
 27 28  1  0
 28 29  2  0
 29 30  1  0
 24 31  1  0
 31 32  1  0
 32 33  2  0
 33  2  1  0
 33  6  1  0
 31  9  2  0
 21 15  1  0
 30 26  1  0
  1 34  1  0
  1 35  1  0
  1 36  1  0
  3 37  1  0
  4 38  1  0
  5 39  1  0
 10 40  1  0
 16 41  1  0
 17 42  1  0
 20 43  1  0
 21 44  1  0
 23 45  1  0
 25 46  1  0
 25 47  1  0
 27 48  1  0
 28 49  1  0
 29 50  1  0
M  END
$$$$
