
     RDKit          3D

 36 37  0  0  0  0  0  0  0  0999 V2000
    1.5745    2.4197    1.6532 O   0  0  0  0  0  0  0  0  0  0  0  0
    0.9052    2.3978    0.6253 C   0  0  0  0  0  0  0  0  0  0  0  0
   -0.4696    3.0616    0.5211 C   0  0  0  0  0  0  0  0  0  0  0  0
   -1.5434    2.2002    0.9042 O   0  0  0  0  0  0  0  0  0  0  0  0
   -1.8441    1.2145    0.0261 C   0  0  0  0  0  0  0  0  0  0  0  0
   -1.2663    1.0011   -1.0303 O   0  0  0  0  0  0  0  0  0  0  0  0
   -2.9894    0.4014    0.5168 C   0  0  0  0  0  0  0  0  0  0  0  0
   -3.5202   -0.5773   -0.3361 C   0  0  0  0  0  0  0  0  0  0  0  0
   -4.5934   -1.3695    0.0807 C   0  0  0  0  0  0  0  0  0  0  0  0
   -5.1359   -1.1853    1.3514 C   0  0  0  0  0  0  0  0  0  0  0  0
   -6.5867   -2.2567    1.9152 Br  0  0  0  0  0  0  0  0  0  0  0  0
   -4.6161   -0.2170    2.2093 C   0  0  0  0  0  0  0  0  0  0  0  0
   -3.5427    0.5769    1.7935 C   0  0  0  0  0  0  0  0  0  0  0  0
    1.3053    1.7500   -0.5245 N   0  0  0  0  0  0  0  0  0  0  0  0
    2.5254    0.9669   -0.5741 C   0  0  0  0  0  0  0  0  0  0  0  0
    2.4323   -0.3282    0.2449 C   0  0  0  0  0  0  0  0  0  0  0  0
    3.3944   -1.3235   -0.1921 N   0  0  0  0  0  0  0  0  0  0  0  0
    3.2239   -2.2071   -1.2342 C   0  0  0  0  0  0  0  0  0  0  0  0
    2.0563   -2.2940   -1.9325 O   0  0  0  0  0  0  0  0  0  0  0  0
    4.2942   -2.9579   -1.5090 C   0  0  0  0  0  0  0  0  0  0  0  0
    5.6214   -2.5884   -0.4578 S   0  0  0  0  0  0  0  0  0  0  0  0
    4.6720   -1.3373    0.3631 C   0  0  0  0  0  0  0  0  0  0  0  0
    5.1163   -0.6241    1.2465 O   0  0  0  0  0  0  0  0  0  0  0  0
   -0.6331    3.4555   -0.4895 H   0  0  0  0  0  0  0  0  0  0  0  0
   -0.4768    3.9238    1.1965 H   0  0  0  0  0  0  0  0  0  0  0  0
   -3.1046   -0.7259   -1.3312 H   0  0  0  0  0  0  0  0  0  0  0  0
   -4.9971   -2.1231   -0.5911 H   0  0  0  0  0  0  0  0  0  0  0  0
   -5.0364   -0.0736    3.2019 H   0  0  0  0  0  0  0  0  0  0  0  0
   -3.1483    1.3237    2.4792 H   0  0  0  0  0  0  0  0  0  0  0  0
    0.5648    1.5238   -1.1903 H   0  0  0  0  0  0  0  0  0  0  0  0
    2.7057    0.7496   -1.6322 H   0  0  0  0  0  0  0  0  0  0  0  0
    3.3569    1.5821   -0.2119 H   0  0  0  0  0  0  0  0  0  0  0  0
    1.4246   -0.7560    0.2044 H   0  0  0  0  0  0  0  0  0  0  0  0
    2.6146   -0.1000    1.3026 H   0  0  0  0  0  0  0  0  0  0  0  0
    1.3687   -1.8021   -1.4623 H   0  0  0  0  0  0  0  0  0  0  0  0
    4.3478   -3.7017   -2.2911 H   0  0  0  0  0  0  0  0  0  0  0  0
  1  2  2  0
  2  3  1  0
  3  4  1  0
  4  5  1  0
  5  6  2  0
  5  7  1  0
  7  8  2  0
  8  9  1  0
  9 10  2  0
 10 11  1  0
 10 12  1  0
 12 13  2  0
  2 14  1  0
 14 15  1  0
 15 16  1  0
 16 17  1  0
 17 18  1  0
 18 19  1  0
 18 20  2  0
 20 21  1  0
 21 22  1  0
 22 23  2  0
 13  7  1  0
 22 17  1  0
  3 24  1  0
  3 25  1  0
  8 26  1  0
  9 27  1  0
 12 28  1  0
 13 29  1  0
 14 30  1  0
 15 31  1  0
 15 32  1  0
 16 33  1  0
 16 34  1  0
 19 35  1  0
 20 36  1  0
M  END
$$$$
