
     RDKit          3D

 50 53  0  0  0  0  0  0  0  0999 V2000
    6.5993    0.0949    3.3635 C   0  0  0  0  0  0  0  0  0  0  0  0
    7.0104    1.0680    2.2725 C   0  0  0  0  0  0  0  0  0  0  0  0
    6.8350    0.4881    0.9803 O   0  0  0  0  0  0  0  0  0  0  0  0
    5.6249    0.5634    0.3542 C   0  0  0  0  0  0  0  0  0  0  0  0
    4.4769    1.1579    0.8840 C   0  0  0  0  0  0  0  0  0  0  0  0
    3.2809    1.1875    0.1488 C   0  0  0  0  0  0  0  0  0  0  0  0
    3.2140    0.6151   -1.1295 C   0  0  0  0  0  0  0  0  0  0  0  0
    1.9623    0.6397   -1.9367 C   0  0  0  0  0  0  0  0  0  0  0  0
    2.0679    0.7493   -3.1515 O   0  0  0  0  0  0  0  0  0  0  0  0
    0.7965    0.4907   -1.2097 N   0  0  0  0  0  0  0  0  0  0  0  0
   -0.5268    0.5473   -1.6975 C   0  0  0  0  0  0  0  0  0  0  0  0
   -0.8598    0.8898   -3.0071 C   0  0  0  0  0  0  0  0  0  0  0  0
   -2.1981    0.9533   -3.4013 C   0  0  0  0  0  0  0  0  0  0  0  0
   -3.2149    0.6721   -2.4890 C   0  0  0  0  0  0  0  0  0  0  0  0
   -2.9060    0.3146   -1.1695 C   0  0  0  0  0  0  0  0  0  0  0  0
   -3.9766    0.0063   -0.1933 C   0  0  0  0  0  0  0  0  0  0  0  0
   -4.9101   -0.9042   -0.5203 C   0  0  0  0  0  0  0  0  0  0  0  0
   -5.9797   -1.2444    0.4029 C   0  0  0  0  0  0  0  0  0  0  0  0
   -6.9664   -2.1808    0.0861 C   0  0  0  0  0  0  0  0  0  0  0  0
   -7.9781   -2.4704    1.0075 C   0  0  0  0  0  0  0  0  0  0  0  0
   -8.0077   -1.8268    2.2467 C   0  0  0  0  0  0  0  0  0  0  0  0
   -7.0257   -0.8922    2.5685 C   0  0  0  0  0  0  0  0  0  0  0  0
   -6.0246   -0.6147    1.6406 C   0  0  0  0  0  0  0  0  0  0  0  0
   -5.0489    0.3290    2.0019 O   0  0  0  0  0  0  0  0  0  0  0  0
   -4.0031    0.6674    1.1480 C   0  0  0  0  0  0  0  0  0  0  0  0
   -3.1433    1.4692    1.5015 O   0  0  0  0  0  0  0  0  0  0  0  0
   -1.5554    0.2605   -0.7878 C   0  0  0  0  0  0  0  0  0  0  0  0
    4.3539    0.0328   -1.6845 C   0  0  0  0  0  0  0  0  0  0  0  0
    5.5319    0.0079   -0.9296 C   0  0  0  0  0  0  0  0  0  0  0  0
    6.6884   -0.6340   -1.5162 N   0  0  0  0  0  4  0  0  0  0  0  0
    7.2571   -0.0316   -2.4369 O   0  0  0  0  0  0  0  0  0  0  0  0
    6.9879   -1.7568   -1.0873 O   0  0  0  0  0  1  0  0  0  0  0  0
    5.5341   -0.1464    3.3048 H   0  0  0  0  0  0  0  0  0  0  0  0
    6.8069    0.5127    4.3525 H   0  0  0  0  0  0  0  0  0  0  0  0
    7.1439   -0.8494    3.2592 H   0  0  0  0  0  0  0  0  0  0  0  0
    8.0827    1.2693    2.3767 H   0  0  0  0  0  0  0  0  0  0  0  0
    6.5136    2.0396    2.3657 H   0  0  0  0  0  0  0  0  0  0  0  0
    4.4703    1.6171    1.8680 H   0  0  0  0  0  0  0  0  0  0  0  0
    2.4183    1.6927    0.5797 H   0  0  0  0  0  0  0  0  0  0  0  0
    0.8861    0.2626   -0.2282 H   0  0  0  0  0  0  0  0  0  0  0  0
   -0.1008    1.1294   -3.7455 H   0  0  0  0  0  0  0  0  0  0  0  0
   -2.4441    1.2319   -4.4230 H   0  0  0  0  0  0  0  0  0  0  0  0
   -4.2489    0.7459   -2.8193 H   0  0  0  0  0  0  0  0  0  0  0  0
   -4.8955   -1.4183   -1.4771 H   0  0  0  0  0  0  0  0  0  0  0  0
   -6.9618   -2.6920   -0.8737 H   0  0  0  0  0  0  0  0  0  0  0  0
   -8.7457   -3.1996    0.7580 H   0  0  0  0  0  0  0  0  0  0  0  0
   -8.7964   -2.0543    2.9597 H   0  0  0  0  0  0  0  0  0  0  0  0
   -7.0401   -0.3870    3.5298 H   0  0  0  0  0  0  0  0  0  0  0  0
   -1.3071   -0.0059    0.2376 H   0  0  0  0  0  0  0  0  0  0  0  0
    4.3225   -0.3973   -2.6841 H   0  0  0  0  0  0  0  0  0  0  0  0
  1  2  1  0
  2  3  1  0
  3  4  1  0
  4  5  2  0
  5  6  1  0
  6  7  2  0
  7  8  1  0
  8  9  2  0
  8 10  1  0
 10 11  1  0
 11 12  2  0
 12 13  1  0
 13 14  2  0
 14 15  1  0
 15 16  1  0
 16 17  2  0
 17 18  1  0
 18 19  2  0
 19 20  1  0
 20 21  2  0
 21 22  1  0
 22 23  2  0
 23 24  1  0
 24 25  1  0
 25 26  2  0
 15 27  2  0
  7 28  1  0
 28 29  2  0
 29 30  1  0
 30 31  2  0
 30 32  1  0
 29  4  1  0
 27 11  1  0
 25 16  1  0
 23 18  1  0
  1 33  1  0
  1 34  1  0
  1 35  1  0
  2 36  1  0
  2 37  1  0
  5 38  1  0
  6 39  1  0
 10 40  1  0
 12 41  1  0
 13 42  1  0
 14 43  1  0
 17 44  1  0
 19 45  1  0
 20 46  1  0
 21 47  1  0
 22 48  1  0
 27 49  1  0
 28 50  1  0
M  CHG  2  30   1  32  -1
M  END
$$$$
