
     RDKit          3D

 42 44  0  0  0  0  0  0  0  0999 V2000
   -5.9278    1.5838    0.9633 C   0  0  0  0  0  0  0  0  0  0  0  0
   -5.0047    1.1756   -0.0383 O   0  0  0  0  0  0  0  0  0  0  0  0
   -4.0526    0.2653    0.3290 C   0  0  0  0  0  0  0  0  0  0  0  0
   -3.8664   -0.2542    1.6124 C   0  0  0  0  0  0  0  0  0  0  0  0
   -2.8461   -1.1799    1.8555 C   0  0  0  0  0  0  0  0  0  0  0  0
   -2.0051   -1.5756    0.8114 C   0  0  0  0  0  0  0  0  0  0  0  0
   -0.7189   -2.7657    1.1193 S   0  0  0  0  0  6  0  0  0  0  0  0
   -0.4529   -3.4690   -0.1160 O   0  0  0  0  0  0  0  0  0  0  0  0
   -1.0737   -3.4844    2.3264 O   0  0  0  0  0  0  0  0  0  0  0  0
    0.6079   -1.8087    1.5318 N   0  0  0  0  0  0  0  0  0  0  0  0
    1.0467   -0.7679    0.6621 C   0  0  0  0  0  0  0  0  0  0  0  0
    1.5013   -1.0855   -0.6218 C   0  0  0  0  0  0  0  0  0  0  0  0
    1.9120   -0.0805   -1.5055 C   0  0  0  0  0  0  0  0  0  0  0  0
    2.4582   -0.5422   -3.1411 S   0  0  0  0  0  0  0  0  0  0  0  0
    4.1970   -0.4753   -2.9895 C   0  0  0  0  0  0  0  0  0  0  0  0
    5.0154   -0.3547   -4.0853 N   0  0  0  0  0  0  0  0  0  0  0  0
    6.2190   -0.3821   -3.5663 C   0  0  0  0  0  0  0  0  0  0  0  0
    6.1262   -0.5265   -2.2204 N   0  0  0  0  0  0  0  0  0  0  0  0
    4.8477   -0.5993   -1.8244 N   0  0  0  0  0  0  0  0  0  0  0  0
    1.8540    1.2531   -1.0862 C   0  0  0  0  0  0  0  0  0  0  0  0
    2.2288    2.2531   -1.9424 O   0  0  0  0  0  0  0  0  0  0  0  0
    1.4142    1.5780    0.1987 C   0  0  0  0  0  0  0  0  0  0  0  0
    1.0084    0.5707    1.0891 C   0  0  0  0  0  0  0  0  0  0  0  0
    0.5476    0.9566    2.4669 C   0  0  0  0  0  0  0  0  0  0  0  0
   -2.1986   -1.0809   -0.4794 C   0  0  0  0  0  0  0  0  0  0  0  0
   -3.2161   -0.1538   -0.7110 C   0  0  0  0  0  0  0  0  0  0  0  0
   -6.5034    0.7325    1.3416 H   0  0  0  0  0  0  0  0  0  0  0  0
   -6.6321    2.2838    0.5035 H   0  0  0  0  0  0  0  0  0  0  0  0
   -5.4183    2.1103    1.7770 H   0  0  0  0  0  0  0  0  0  0  0  0
   -4.5005    0.0364    2.4437 H   0  0  0  0  0  0  0  0  0  0  0  0
   -2.7191   -1.5865    2.8564 H   0  0  0  0  0  0  0  0  0  0  0  0
    0.6939   -1.6771    2.5366 H   0  0  0  0  0  0  0  0  0  0  0  0
    1.5548   -2.1259   -0.9360 H   0  0  0  0  0  0  0  0  0  0  0  0
    7.1568   -0.3083   -4.0975 H   0  0  0  0  0  0  0  0  0  0  0  0
    6.8651   -0.5881   -1.5295 H   0  0  0  0  0  0  0  0  0  0  0  0
    2.1423    3.1111   -1.4986 H   0  0  0  0  0  0  0  0  0  0  0  0
    1.3812    2.6174    0.5143 H   0  0  0  0  0  0  0  0  0  0  0  0
    1.2099    0.5224    3.2226 H   0  0  0  0  0  0  0  0  0  0  0  0
    0.5566    2.0429    2.6060 H   0  0  0  0  0  0  0  0  0  0  0  0
   -0.4767    0.6144    2.6399 H   0  0  0  0  0  0  0  0  0  0  0  0
   -1.5675   -1.4043   -1.3045 H   0  0  0  0  0  0  0  0  0  0  0  0
   -3.3643    0.2415   -1.7139 H   0  0  0  0  0  0  0  0  0  0  0  0
  1  2  1  0
  2  3  1  0
  3  4  2  0
  4  5  1  0
  5  6  2  0
  6  7  1  0
  7  8  2  0
  7  9  2  0
  7 10  1  0
 10 11  1  0
 11 12  2  0
 12 13  1  0
 13 14  1  0
 14 15  1  0
 15 16  1  0
 16 17  2  0
 17 18  1  0
 18 19  1  0
 13 20  2  0
 20 21  1  0
 20 22  1  0
 22 23  2  0
 23 24  1  0
  6 25  1  0
 25 26  2  0
 26  3  1  0
 23 11  1  0
 19 15  2  0
  1 27  1  0
  1 28  1  0
  1 29  1  0
  4 30  1  0
  5 31  1  0
 10 32  1  0
 12 33  1  0
 17 34  1  0
 18 35  1  0
 21 36  1  0
 22 37  1  0
 24 38  1  0
 24 39  1  0
 24 40  1  0
 25 41  1  0
 26 42  1  0
M  END
$$$$
