
     RDKit          3D

 39 41  0  0  0  0  0  0  0  0999 V2000
   -2.9947   -2.5133    3.4157 C   0  0  0  0  0  0  0  0  0  0  0  0
   -3.5055   -2.3146    2.1032 O   0  0  0  0  0  0  0  0  0  0  0  0
   -3.1969   -1.1308    1.4920 C   0  0  0  0  0  0  0  0  0  0  0  0
   -2.4580   -0.0862    2.0524 C   0  0  0  0  0  0  0  0  0  0  0  0
   -2.2105    1.0750    1.3137 C   0  0  0  0  0  0  0  0  0  0  0  0
   -2.6921    1.1804    0.0060 C   0  0  0  0  0  0  0  0  0  0  0  0
   -2.3654    2.6495   -0.9427 S   0  0  0  0  0  6  0  0  0  0  0  0
   -2.0420    3.7184   -0.0226 O   0  0  0  0  0  0  0  0  0  0  0  0
   -3.4332    2.7901   -1.9107 O   0  0  0  0  0  0  0  0  0  0  0  0
   -0.9853    2.2285   -1.8267 N   0  0  0  0  0  0  0  0  0  0  0  0
    0.1613    1.7529   -1.1311 C   0  0  0  0  0  0  0  0  0  0  0  0
    0.8746    2.5949   -0.2806 C   0  0  0  0  0  0  0  0  0  0  0  0
    1.9628    2.0978    0.4346 C   0  0  0  0  0  0  0  0  0  0  0  0
    2.3363    0.7626    0.2939 C   0  0  0  0  0  0  0  0  0  0  0  0
    3.4168    0.3625    1.0315 O   0  0  0  0  0  0  0  0  0  0  0  0
    1.6260   -0.0986   -0.5549 C   0  0  0  0  0  0  0  0  0  0  0  0
    1.9796   -1.8425   -0.7144 S   0  0  0  0  0  0  0  0  0  0  0  0
    3.5580   -1.8212   -1.4456 C   0  0  0  0  0  0  0  0  0  0  0  0
    3.7997   -2.1946   -2.7364 N   0  0  0  0  0  0  0  0  0  0  0  0
    5.0967   -2.0326   -2.8522 C   0  0  0  0  0  0  0  0  0  0  0  0
    5.6060   -1.5844   -1.6745 N   0  0  0  0  0  0  0  0  0  0  0  0
    4.6384   -1.4417   -0.7505 N   0  0  0  0  0  0  0  0  0  0  0  0
    0.5307    0.4121   -1.2664 C   0  0  0  0  0  0  0  0  0  0  0  0
   -3.4500    0.1519   -0.5566 C   0  0  0  0  0  0  0  0  0  0  0  0
   -3.6945   -1.0017    0.1904 C   0  0  0  0  0  0  0  0  0  0  0  0
   -3.3125   -3.5052    3.7512 H   0  0  0  0  0  0  0  0  0  0  0  0
   -1.8998   -2.4950    3.4208 H   0  0  0  0  0  0  0  0  0  0  0  0
   -3.4066   -1.7777    4.1145 H   0  0  0  0  0  0  0  0  0  0  0  0
   -2.0615   -0.1419    3.0611 H   0  0  0  0  0  0  0  0  0  0  0  0
   -1.6351    1.8832    1.7612 H   0  0  0  0  0  0  0  0  0  0  0  0
   -1.2279    1.7806   -2.7092 H   0  0  0  0  0  0  0  0  0  0  0  0
    0.5928    3.6394   -0.1682 H   0  0  0  0  0  0  0  0  0  0  0  0
    2.5215    2.7504    1.1004 H   0  0  0  0  0  0  0  0  0  0  0  0
    3.7842   -0.4483    0.6177 H   0  0  0  0  0  0  0  0  0  0  0  0
    5.6986   -2.2180   -3.7305 H   0  0  0  0  0  0  0  0  0  0  0  0
    6.5666   -1.3631   -1.4342 H   0  0  0  0  0  0  0  0  0  0  0  0
   -0.0459   -0.2456   -1.9123 H   0  0  0  0  0  0  0  0  0  0  0  0
   -3.8526    0.2367   -1.5629 H   0  0  0  0  0  0  0  0  0  0  0  0
   -4.2806   -1.8099   -0.2416 H   0  0  0  0  0  0  0  0  0  0  0  0
  1  2  1  0
  2  3  1  0
  3  4  2  0
  4  5  1  0
  5  6  2  0
  6  7  1  0
  7  8  2  0
  7  9  2  0
  7 10  1  0
 10 11  1  0
 11 12  2  0
 12 13  1  0
 13 14  2  0
 14 15  1  0
 14 16  1  0
 16 17  1  0
 17 18  1  0
 18 19  1  0
 19 20  2  0
 20 21  1  0
 21 22  1  0
 16 23  2  0
  6 24  1  0
 24 25  2  0
 25  3  1  0
 23 11  1  0
 22 18  2  0
  1 26  1  0
  1 27  1  0
  1 28  1  0
  4 29  1  0
  5 30  1  0
 10 31  1  0
 12 32  1  0
 13 33  1  0
 15 34  1  0
 20 35  1  0
 21 36  1  0
 23 37  1  0
 24 38  1  0
 25 39  1  0
M  END
$$$$
