
     RDKit          3D

 44 45  0  0  0  0  0  0  0  0999 V2000
    7.1953    1.1990    2.1364 C   0  0  0  0  0  0  0  0  0  0  0  0
    6.4361   -0.1045    1.9831 C   0  0  0  0  0  0  0  0  0  0  0  0
    5.3788    0.1035    1.0388 O   0  0  0  0  0  0  0  0  0  0  0  0
    4.6147   -0.9938    0.8108 C   0  0  0  0  0  0  0  0  0  0  0  0
    4.7664   -2.0894    1.3275 O   0  0  0  0  0  0  0  0  0  0  0  0
    3.5408   -0.6891   -0.1747 C   0  0  0  0  0  0  0  0  0  0  0  0
    2.6292   -1.7064   -0.4951 C   0  0  0  0  0  0  0  0  0  0  0  0
    1.6027   -1.4743   -1.4143 C   0  0  0  0  0  0  0  0  0  0  0  0
    1.4816   -0.2150   -2.0066 C   0  0  0  0  0  0  0  0  0  0  0  0
    0.1976    0.0885   -3.1862 S   0  0  0  0  0  6  0  0  0  0  0  0
    0.7278    0.9485   -4.2218 O   0  0  0  0  0  0  0  0  0  0  0  0
   -0.4787   -1.1523   -3.5074 O   0  0  0  0  0  0  0  0  0  0  0  0
   -0.9128    1.0408   -2.2908 N   0  0  0  0  0  0  0  0  0  0  0  0
   -2.0790    0.3335   -1.8868 N   0  0  0  0  0  0  0  0  0  0  0  0
   -1.8851   -0.3947   -0.3254 S   0  0  0  0  0  6  0  0  0  0  0  0
   -1.6802   -1.8090   -0.5514 O   0  0  0  0  0  0  0  0  0  0  0  0
   -0.9562    0.3938    0.4569 O   0  0  0  0  0  0  0  0  0  0  0  0
   -3.5087   -0.1570    0.3452 C   0  0  0  0  0  0  0  0  0  0  0  0
   -4.4210   -1.2143    0.3569 C   0  0  0  0  0  0  0  0  0  0  0  0
   -5.6911   -1.0179    0.9019 C   0  0  0  0  0  0  0  0  0  0  0  0
   -6.0532    0.2285    1.4319 C   0  0  0  0  0  0  0  0  0  0  0  0
   -7.4071    0.4232    2.0503 C   0  0  0  0  0  0  0  0  0  0  0  0
   -5.1169    1.2717    1.4370 C   0  0  0  0  0  0  0  0  0  0  0  0
   -3.8453    1.0831    0.8937 C   0  0  0  0  0  0  0  0  0  0  0  0
    2.3923    0.8037   -1.7092 C   0  0  0  0  0  0  0  0  0  0  0  0
    3.4185    0.5664   -0.7899 C   0  0  0  0  0  0  0  0  0  0  0  0
    7.6039    1.5226    1.1734 H   0  0  0  0  0  0  0  0  0  0  0  0
    6.5281    1.9952    2.4827 H   0  0  0  0  0  0  0  0  0  0  0  0
    8.0166    1.0906    2.8503 H   0  0  0  0  0  0  0  0  0  0  0  0
    6.0156   -0.4037    2.9497 H   0  0  0  0  0  0  0  0  0  0  0  0
    7.1117   -0.8852    1.6159 H   0  0  0  0  0  0  0  0  0  0  0  0
    2.7127   -2.6857   -0.0255 H   0  0  0  0  0  0  0  0  0  0  0  0
    0.9031   -2.2753   -1.6471 H   0  0  0  0  0  0  0  0  0  0  0  0
   -1.0548    1.9531   -2.7362 H   0  0  0  0  0  0  0  0  0  0  0  0
   -2.2928   -0.4493   -2.5342 H   0  0  0  0  0  0  0  0  0  0  0  0
   -4.1553   -2.1896   -0.0450 H   0  0  0  0  0  0  0  0  0  0  0  0
   -6.3979   -1.8456    0.9160 H   0  0  0  0  0  0  0  0  0  0  0  0
   -7.3745    0.1602    3.1120 H   0  0  0  0  0  0  0  0  0  0  0  0
   -7.7350    1.4635    1.9526 H   0  0  0  0  0  0  0  0  0  0  0  0
   -8.1566   -0.2012    1.5528 H   0  0  0  0  0  0  0  0  0  0  0  0
   -5.3734    2.2368    1.8696 H   0  0  0  0  0  0  0  0  0  0  0  0
   -3.1254    1.8986    0.9070 H   0  0  0  0  0  0  0  0  0  0  0  0
    2.3113    1.7794   -2.1833 H   0  0  0  0  0  0  0  0  0  0  0  0
    4.1162    1.3692   -0.5625 H   0  0  0  0  0  0  0  0  0  0  0  0
  1  2  1  0
  2  3  1  0
  3  4  1  0
  4  5  2  0
  4  6  1  0
  6  7  2  0
  7  8  1  0
  8  9  2  0
  9 10  1  0
 10 11  2  0
 10 12  2  0
 10 13  1  0
 13 14  1  0
 14 15  1  0
 15 16  2  0
 15 17  2  0
 15 18  1  0
 18 19  2  0
 19 20  1  0
 20 21  2  0
 21 22  1  0
 21 23  1  0
 23 24  2  0
  9 25  1  0
 25 26  2  0
 26  6  1  0
 24 18  1  0
  1 27  1  0
  1 28  1  0
  1 29  1  0
  2 30  1  0
  2 31  1  0
  7 32  1  0
  8 33  1  0
 13 34  1  0
 14 35  1  0
 19 36  1  0
 20 37  1  0
 22 38  1  0
 22 39  1  0
 22 40  1  0
 23 41  1  0
 24 42  1  0
 25 43  1  0
 26 44  1  0
M  END
$$$$
