
     RDKit          3D

 56 59  0  0  0  0  0  0  0  0999 V2000
    5.4777    5.2663   -0.2086 C   0  0  0  0  0  0  0  0  0  0  0  0
    4.8000    3.9895   -0.6722 C   0  0  0  0  0  0  0  0  0  0  0  0
    4.5186    3.1982    0.4806 O   0  0  0  0  0  0  0  0  0  0  0  0
    3.8890    2.0020    0.2744 C   0  0  0  0  0  0  0  0  0  0  0  0
    3.6062    1.2843    1.4386 C   0  0  0  0  0  0  0  0  0  0  0  0
    2.9639    0.0450    1.3754 C   0  0  0  0  0  0  0  0  0  0  0  0
    2.6044   -0.4964    0.1373 C   0  0  0  0  0  0  0  0  0  0  0  0
    1.9294   -1.7861    0.0645 C   0  0  0  0  0  0  0  0  0  0  0  0
    0.5865   -2.0810   -0.1337 C   0  0  0  0  0  0  0  0  0  0  0  0
   -0.5276   -1.1643   -0.3639 C   0  0  0  0  0  0  0  0  0  0  0  0
   -0.3750    0.0417   -0.5369 O   0  0  0  0  0  0  0  0  0  0  0  0
   -1.7629   -1.8182   -0.3808 N   0  0  0  0  0  0  0  0  0  0  0  0
   -2.8442   -1.2157   -0.9689 N   0  0  0  0  0  0  0  0  0  0  0  0
   -3.4781   -0.3113   -0.2738 C   0  0  0  0  0  0  0  0  0  0  0  0
   -3.1658    0.0483    1.1649 C   0  0  0  0  0  0  0  0  0  0  0  0
   -4.5863    0.4246   -0.9385 C   0  0  0  0  0  0  0  0  0  0  0  0
   -4.2985    1.0323   -2.1693 C   0  0  0  0  0  0  0  0  0  0  0  0
   -5.2852    1.7501   -2.8399 C   0  0  0  0  0  0  0  0  0  0  0  0
   -6.5584    1.8548   -2.2856 C   0  0  0  0  0  0  0  0  0  0  0  0
   -6.8528    1.2358   -1.0647 C   0  0  0  0  0  0  0  0  0  0  0  0
   -5.8728    0.5073   -0.3796 C   0  0  0  0  0  0  0  0  0  0  0  0
   -6.0852   -0.1615    0.7969 O   0  0  0  0  0  0  0  0  0  0  0  0
   -7.3862   -0.0968    1.3671 C   0  0  0  0  0  0  0  0  0  0  0  0
    0.4073   -3.4387   -0.0827 N   0  0  0  0  0  0  0  0  0  0  0  0
    1.5811   -4.0055    0.1269 N   0  0  0  0  0  0  0  0  0  0  0  0
    2.5418   -3.0359    0.1986 N   0  0  0  0  0  0  0  0  0  0  0  0
    3.9118   -3.3679    0.3558 C   0  0  0  0  0  0  0  0  0  0  0  0
    4.8595   -2.4306    0.3401 N   0  0  0  0  0  0  0  0  0  0  0  0
    6.0467   -3.1421    0.4962 O   0  0  0  0  0  0  0  0  0  0  0  0
    5.8065   -4.5083    0.5976 N   0  0  0  0  0  0  0  0  0  0  0  0
    4.4838   -4.6443    0.5169 C   0  0  0  0  0  0  0  0  0  0  0  0
    3.8390   -5.8246    0.5833 N   0  0  0  0  0  0  0  0  0  0  0  0
    2.8809    0.2251   -1.0285 C   0  0  0  0  0  0  0  0  0  0  0  0
    3.5221    1.4680   -0.9606 C   0  0  0  0  0  0  0  0  0  0  0  0
    6.4024    5.0376    0.3318 H   0  0  0  0  0  0  0  0  0  0  0  0
    5.7151    5.9122   -1.0587 H   0  0  0  0  0  0  0  0  0  0  0  0
    4.8318    5.8163    0.4839 H   0  0  0  0  0  0  0  0  0  0  0  0
    5.4757    3.4514   -1.3470 H   0  0  0  0  0  0  0  0  0  0  0  0
    3.8712    4.2470   -1.1945 H   0  0  0  0  0  0  0  0  0  0  0  0
    3.8866    1.6964    2.4046 H   0  0  0  0  0  0  0  0  0  0  0  0
    2.7521   -0.4854    2.3000 H   0  0  0  0  0  0  0  0  0  0  0  0
   -1.6939   -2.8140   -0.5804 H   0  0  0  0  0  0  0  0  0  0  0  0
   -2.1517    0.4445    1.2460 H   0  0  0  0  0  0  0  0  0  0  0  0
   -3.8389    0.8181    1.5491 H   0  0  0  0  0  0  0  0  0  0  0  0
   -3.2569   -0.8427    1.7919 H   0  0  0  0  0  0  0  0  0  0  0  0
   -3.3016    0.9502   -2.5977 H   0  0  0  0  0  0  0  0  0  0  0  0
   -5.0600    2.2261   -3.7910 H   0  0  0  0  0  0  0  0  0  0  0  0
   -7.3303    2.4152   -2.8080 H   0  0  0  0  0  0  0  0  0  0  0  0
   -7.8625    1.3390   -0.6814 H   0  0  0  0  0  0  0  0  0  0  0  0
   -7.6528    0.9324    1.6288 H   0  0  0  0  0  0  0  0  0  0  0  0
   -8.1307   -0.5441    0.7013 H   0  0  0  0  0  0  0  0  0  0  0  0
   -7.3744   -0.6820    2.2918 H   0  0  0  0  0  0  0  0  0  0  0  0
    2.8600   -5.9067    0.3140 H   0  0  0  0  0  0  0  0  0  0  0  0
    4.3747   -6.6811    0.4886 H   0  0  0  0  0  0  0  0  0  0  0  0
    2.5927   -0.1659   -2.0015 H   0  0  0  0  0  0  0  0  0  0  0  0
    3.7139    1.9913   -1.8907 H   0  0  0  0  0  0  0  0  0  0  0  0
  1  2  1  0
  2  3  1  0
  3  4  1  0
  4  5  2  0
  5  6  1  0
  6  7  2  0
  7  8  1  0
  8  9  2  0
  9 10  1  0
 10 11  2  0
 10 12  1  0
 12 13  1  0
 13 14  2  3
 14 15  1  0
 14 16  1  0
 16 17  2  0
 17 18  1  0
 18 19  2  0
 19 20  1  0
 20 21  2  0
 21 22  1  0
 22 23  1  0
  9 24  1  0
 24 25  2  0
 25 26  1  0
 26 27  1  0
 27 28  2  0
 28 29  1  0
 29 30  1  0
 30 31  2  0
 31 32  1  0
  7 33  1  0
 33 34  2  0
 34  4  1  0
 26  8  1  0
 31 27  1  0
 21 16  1  0
  1 35  1  0
  1 36  1  0
  1 37  1  0
  2 38  1  0
  2 39  1  0
  5 40  1  0
  6 41  1  0
 12 42  1  0
 15 43  1  0
 15 44  1  0
 15 45  1  0
 17 46  1  0
 18 47  1  0
 19 48  1  0
 20 49  1  0
 23 50  1  0
 23 51  1  0
 23 52  1  0
 32 53  1  0
 32 54  1  0
 33 55  1  0
 34 56  1  0
M  END
$$$$
