
     RDKit          3D

 34 36  0  0  0  0  0  0  0  0999 V2000
    5.2641    0.1951   -1.7893 C   0  0  0  0  0  0  0  0  0  0  0  0
    4.6446    0.5130   -0.5249 N   0  0  0  0  0  0  0  0  0  0  0  0
    5.2668    0.9457    0.6045 C   0  0  0  0  0  0  0  0  0  0  0  0
    4.2688    1.1043    1.5315 C   0  0  0  0  0  0  0  0  0  0  0  0
    4.5013    1.6803    3.2967 Br  0  0  0  0  0  0  0  0  0  0  0  0
    3.0604    0.7466    0.8865 C   0  0  0  0  0  0  0  0  0  0  0  0
    1.6799    0.7286    1.4153 C   0  0  0  0  0  0  0  0  0  0  0  0
    1.4238    1.0706    2.5634 O   0  0  0  0  0  0  0  0  0  0  0  0
    0.7821    0.2939    0.4563 N   0  0  0  0  0  0  0  0  0  0  0  0
   -0.5874    0.1250    0.5675 C   0  0  0  0  0  0  0  0  0  0  0  0
   -1.3954    0.4453    2.0454 S   0  0  0  0  0  0  0  0  0  0  0  0
   -2.8540   -0.0052    1.3835 C   0  0  0  0  0  0  0  0  0  0  0  0
   -2.7810   -0.3835    0.0718 C   0  0  0  0  0  0  0  0  0  0  0  0
   -1.4524   -0.3022   -0.4474 C   0  0  0  0  0  0  0  0  0  0  0  0
   -0.9836   -0.6156   -1.7951 C   0  0  0  0  0  0  0  0  0  0  0  0
   -1.9383   -0.7165   -2.7665 N   0  0  0  0  0  0  0  0  0  0  0  0
    0.2012   -0.7482   -2.0885 O   0  0  0  0  0  0  0  0  0  0  0  0
   -4.1237   -0.7937   -0.4212 C   0  0  0  0  0  0  0  0  0  0  0  0
   -4.9424   -0.9394    0.8989 C   0  0  0  0  0  0  0  0  0  0  0  0
   -4.2095   -0.0845    1.9737 C   0  0  0  0  0  0  0  0  0  0  0  0
    3.3118    0.3851   -0.3948 N   0  0  0  0  0  0  0  0  0  0  0  0
    6.3428    0.3540   -1.7161 H   0  0  0  0  0  0  0  0  0  0  0  0
    4.8409    0.8507   -2.5544 H   0  0  0  0  0  0  0  0  0  0  0  0
    5.0556   -0.8524   -2.0210 H   0  0  0  0  0  0  0  0  0  0  0  0
    6.3353    1.0991    0.6563 H   0  0  0  0  0  0  0  0  0  0  0  0
    1.2045    0.0516   -0.4448 H   0  0  0  0  0  0  0  0  0  0  0  0
   -2.8548   -0.3192   -2.6343 H   0  0  0  0  0  0  0  0  0  0  0  0
   -1.5891   -0.7831   -3.7130 H   0  0  0  0  0  0  0  0  0  0  0  0
   -4.1041   -1.7365   -0.9747 H   0  0  0  0  0  0  0  0  0  0  0  0
   -4.5570   -0.0085   -1.0496 H   0  0  0  0  0  0  0  0  0  0  0  0
   -4.9304   -1.9923    1.2107 H   0  0  0  0  0  0  0  0  0  0  0  0
   -5.9891   -0.6455    0.7743 H   0  0  0  0  0  0  0  0  0  0  0  0
   -4.2313   -0.5728    2.9517 H   0  0  0  0  0  0  0  0  0  0  0  0
   -4.6606    0.9103    2.0477 H   0  0  0  0  0  0  0  0  0  0  0  0
  1  2  1  0
  2  3  1  0
  3  4  2  0
  4  5  1  0
  4  6  1  0
  6  7  1  0
  7  8  2  0
  7  9  1  0
  9 10  1  0
 10 11  1  0
 11 12  1  0
 12 13  2  0
 13 14  1  0
 14 15  1  0
 15 16  1  0
 15 17  2  0
 13 18  1  0
 18 19  1  0
 19 20  1  0
  6 21  2  0
 21  2  1  0
 14 10  2  0
 20 12  1  0
  1 22  1  0
  1 23  1  0
  1 24  1  0
  3 25  1  0
  9 26  1  0
 16 27  1  0
 16 28  1  0
 18 29  1  0
 18 30  1  0
 19 31  1  0
 19 32  1  0
 20 33  1  0
 20 34  1  0
M  END
$$$$
