
     RDKit          3D

 56 58  0  0  0  0  0  0  0  0999 V2000
    9.3657    2.7865    0.3066 C   0  0  0  0  0  0  0  0  0  0  0  0
    8.5159    2.7446   -0.9519 C   0  0  0  0  0  0  0  0  0  0  0  0
    7.8878    1.4715   -1.0970 O   0  0  0  0  0  0  0  0  0  0  0  0
    6.6568    1.2737   -0.5403 C   0  0  0  0  0  0  0  0  0  0  0  0
    6.0638    0.0519   -0.8618 C   0  0  0  0  0  0  0  0  0  0  0  0
    4.8033   -0.2941   -0.3619 C   0  0  0  0  0  0  0  0  0  0  0  0
    4.1163    0.5803    0.4765 C   0  0  0  0  0  0  0  0  0  0  0  0
    2.8451    0.3157    1.0275 N   0  0  0  0  0  0  0  0  0  0  0  0
    2.0677   -0.8172    0.8493 C   0  0  0  0  0  0  0  0  0  0  0  0
    2.3465   -1.7944    0.1632 O   0  0  0  0  0  0  0  0  0  0  0  0
    0.7500   -0.7173    1.5986 C   0  0  0  0  0  0  0  0  0  0  0  0
   -0.0249   -2.0307    1.5984 C   0  0  0  0  0  0  0  0  0  0  0  0
   -0.5061   -2.3394    0.2436 N   0  0  0  0  0  0  0  0  0  0  0  0
   -1.7198   -3.4905    0.0782 S   0  0  0  0  0  6  0  0  0  0  0  0
   -1.6521   -3.9954   -1.2731 O   0  0  0  0  0  0  0  0  0  0  0  0
   -1.6813   -4.3617    1.2314 O   0  0  0  0  0  0  0  0  0  0  0  0
   -3.1793   -2.4858    0.1811 C   0  0  0  0  0  0  0  0  0  0  0  0
   -4.0922   -2.6758    1.2163 C   0  0  0  0  0  0  0  0  0  0  0  0
   -5.2452   -1.8850    1.2741 C   0  0  0  0  0  0  0  0  0  0  0  0
   -5.4997   -0.9023    0.3015 C   0  0  0  0  0  0  0  0  0  0  0  0
   -4.5705   -0.7325   -0.7253 C   0  0  0  0  0  0  0  0  0  0  0  0
   -3.4110   -1.5187   -0.7958 C   0  0  0  0  0  0  0  0  0  0  0  0
   -4.8121    0.2934   -1.7507 C   0  0  0  0  0  0  0  0  0  0  0  0
   -3.9425    0.5150   -2.5906 O   0  0  0  0  0  0  0  0  0  0  0  0
   -6.0216    0.9663   -1.6864 N   0  0  0  0  0  0  0  0  0  0  0  0
   -6.2927    1.9605   -2.7080 C   0  0  0  0  0  0  0  0  0  0  0  0
   -6.9289    0.8711   -0.6381 C   0  0  0  0  0  0  0  0  0  0  0  0
   -7.9183    1.6040   -0.5769 O   0  0  0  0  0  0  0  0  0  0  0  0
   -6.6585   -0.0820    0.3405 N   0  0  0  0  0  0  0  0  0  0  0  0
   -7.6074   -0.2268    1.4373 C   0  0  0  0  0  0  0  0  0  0  0  0
    4.7146    1.8035    0.8040 C   0  0  0  0  0  0  0  0  0  0  0  0
    5.9759    2.1493    0.2998 C   0  0  0  0  0  0  0  0  0  0  0  0
    8.7575    2.6673    1.2074 H   0  0  0  0  0  0  0  0  0  0  0  0
   10.0898    1.9656    0.3056 H   0  0  0  0  0  0  0  0  0  0  0  0
    9.9087    3.7331    0.3748 H   0  0  0  0  0  0  0  0  0  0  0  0
    9.1778    2.8633   -1.8172 H   0  0  0  0  0  0  0  0  0  0  0  0
    7.8040    3.5756   -1.0051 H   0  0  0  0  0  0  0  0  0  0  0  0
    6.5841   -0.6423   -1.5165 H   0  0  0  0  0  0  0  0  0  0  0  0
    4.3938   -1.2561   -0.6512 H   0  0  0  0  0  0  0  0  0  0  0  0
    2.4596    1.0477    1.6109 H   0  0  0  0  0  0  0  0  0  0  0  0
    0.9664   -0.4361    2.6351 H   0  0  0  0  0  0  0  0  0  0  0  0
    0.1531    0.0796    1.1407 H   0  0  0  0  0  0  0  0  0  0  0  0
   -0.8781   -1.9275    2.2777 H   0  0  0  0  0  0  0  0  0  0  0  0
    0.6104   -2.8501    1.9523 H   0  0  0  0  0  0  0  0  0  0  0  0
    0.2329   -2.4706   -0.4595 H   0  0  0  0  0  0  0  0  0  0  0  0
   -3.9229   -3.4370    1.9750 H   0  0  0  0  0  0  0  0  0  0  0  0
   -5.9346   -2.0685    2.0934 H   0  0  0  0  0  0  0  0  0  0  0  0
   -2.6986   -1.3803   -1.6082 H   0  0  0  0  0  0  0  0  0  0  0  0
   -5.7328    1.7583   -3.6253 H   0  0  0  0  0  0  0  0  0  0  0  0
   -7.3603    1.9800   -2.9477 H   0  0  0  0  0  0  0  0  0  0  0  0
   -6.0013    2.9425   -2.3204 H   0  0  0  0  0  0  0  0  0  0  0  0
   -7.0986   -0.0265    2.3851 H   0  0  0  0  0  0  0  0  0  0  0  0
   -8.4460    0.4708    1.3564 H   0  0  0  0  0  0  0  0  0  0  0  0
   -8.0187   -1.2415    1.4299 H   0  0  0  0  0  0  0  0  0  0  0  0
    4.2131    2.5103    1.4585 H   0  0  0  0  0  0  0  0  0  0  0  0
    6.3958    3.1045    0.5944 H   0  0  0  0  0  0  0  0  0  0  0  0
  1  2  1  0
  2  3  1  0
  3  4  1  0
  4  5  2  0
  5  6  1  0
  6  7  2  0
  7  8  1  0
  8  9  1  0
  9 10  2  0
  9 11  1  0
 11 12  1  0
 12 13  1  0
 13 14  1  0
 14 15  2  0
 14 16  2  0
 14 17  1  0
 17 18  2  0
 18 19  1  0
 19 20  2  0
 20 21  1  0
 21 22  2  0
 21 23  1  0
 23 24  2  0
 23 25  1  0
 25 26  1  0
 25 27  1  0
 27 28  2  0
 27 29  1  0
 29 30  1  0
  7 31  1  0
 31 32  2  0
 32  4  1  0
 22 17  1  0
 29 20  1  0
  1 33  1  0
  1 34  1  0
  1 35  1  0
  2 36  1  0
  2 37  1  0
  5 38  1  0
  6 39  1  0
  8 40  1  0
 11 41  1  0
 11 42  1  0
 12 43  1  0
 12 44  1  0
 13 45  1  0
 18 46  1  0
 19 47  1  0
 22 48  1  0
 26 49  1  0
 26 50  1  0
 26 51  1  0
 30 52  1  0
 30 53  1  0
 30 54  1  0
 31 55  1  0
 32 56  1  0
M  END
$$$$
