
     RDKit          3D

 37 38  0  0  0  0  0  0  0  0999 V2000
    4.5750    1.7152   -1.2016 C   0  0  0  0  0  0  0  0  0  0  0  0
    4.7842    0.2880   -0.7283 C   0  0  0  0  0  0  0  0  0  0  0  0
    3.6258   -0.2310   -0.0278 N   0  0  0  0  0  0  0  0  0  0  0  0
    2.6317   -1.0035   -0.5514 C   0  0  0  0  0  0  0  0  0  0  0  0
    1.7549   -1.2638    0.4833 C   0  0  0  0  0  0  0  0  0  0  0  0
    0.5035   -2.0587    0.4425 C   0  0  0  0  0  0  0  0  0  0  0  0
   -0.5931   -1.1552    0.1843 N   0  0  0  0  0  0  0  0  0  0  0  0
   -1.8914   -1.5990    0.2899 C   0  0  0  0  0  0  0  0  0  0  0  0
   -2.1874   -2.7287    0.6609 O   0  0  0  0  0  0  0  0  0  0  0  0
   -2.9601   -0.6395   -0.1061 C   0  0  0  0  0  0  0  0  0  0  0  0
   -4.1982   -1.1589   -0.5140 C   0  0  0  0  0  0  0  0  0  0  0  0
   -5.2393   -0.3066   -0.8892 C   0  0  0  0  0  0  0  0  0  0  0  0
   -5.0552    1.0751   -0.8533 C   0  0  0  0  0  0  0  0  0  0  0  0
   -3.8238    1.5956   -0.4321 C   0  0  0  0  0  0  0  0  0  0  0  0
   -3.6306    3.0503   -0.3870 N   0  0  0  0  0  4  0  0  0  0  0  0
   -2.4886    3.4691   -0.1513 O   0  0  0  0  0  0  0  0  0  0  0  0
   -4.6169    3.7705   -0.5938 O   0  0  0  0  0  1  0  0  0  0  0  0
   -2.7730    0.7470   -0.0524 C   0  0  0  0  0  0  0  0  0  0  0  0
    2.3217   -0.5879    1.5997 C   0  0  0  0  0  0  0  0  0  0  0  0
    1.7967   -0.5186    2.9865 C   0  0  0  0  0  0  0  0  0  0  0  0
    3.4590    0.0392    1.2770 N   0  0  0  0  0  0  0  0  0  0  0  0
    3.7192    1.7833   -1.8816 H   0  0  0  0  0  0  0  0  0  0  0  0
    5.4626    2.0739   -1.7316 H   0  0  0  0  0  0  0  0  0  0  0  0
    4.3854    2.3879   -0.3585 H   0  0  0  0  0  0  0  0  0  0  0  0
    5.6401    0.2242   -0.0474 H   0  0  0  0  0  0  0  0  0  0  0  0
    4.9826   -0.3724   -1.5795 H   0  0  0  0  0  0  0  0  0  0  0  0
    2.6295   -1.3021   -1.5904 H   0  0  0  0  0  0  0  0  0  0  0  0
    0.5305   -2.8018   -0.3622 H   0  0  0  0  0  0  0  0  0  0  0  0
    0.3285   -2.5874    1.3856 H   0  0  0  0  0  0  0  0  0  0  0  0
   -0.3851   -0.3267   -0.3556 H   0  0  0  0  0  0  0  0  0  0  0  0
   -4.3542   -2.2372   -0.5397 H   0  0  0  0  0  0  0  0  0  0  0  0
   -6.1936   -0.7232   -1.2055 H   0  0  0  0  0  0  0  0  0  0  0  0
   -5.8755    1.7274   -1.1479 H   0  0  0  0  0  0  0  0  0  0  0  0
   -1.8353    1.1635    0.3067 H   0  0  0  0  0  0  0  0  0  0  0  0
    0.7751   -0.1254    2.9888 H   0  0  0  0  0  0  0  0  0  0  0  0
    2.4100    0.1327    3.6177 H   0  0  0  0  0  0  0  0  0  0  0  0
    1.7851   -1.5155    3.4384 H   0  0  0  0  0  0  0  0  0  0  0  0
  1  2  1  0
  2  3  1  0
  3  4  1  0
  4  5  2  0
  5  6  1  0
  6  7  1  0
  7  8  1  0
  8  9  2  0
  8 10  1  0
 10 11  2  0
 11 12  1  0
 12 13  2  0
 13 14  1  0
 14 15  1  0
 15 16  2  0
 15 17  1  0
 14 18  2  0
  5 19  1  0
 19 20  1  0
 19 21  2  0
 21  3  1  0
 18 10  1  0
  1 22  1  0
  1 23  1  0
  1 24  1  0
  2 25  1  0
  2 26  1  0
  4 27  1  0
  6 28  1  0
  6 29  1  0
  7 30  1  0
 11 31  1  0
 12 32  1  0
 13 33  1  0
 18 34  1  0
 20 35  1  0
 20 36  1  0
 20 37  1  0
M  CHG  2  15   1  17  -1
M  END
$$$$
