
     RDKit          3D

 58 60  0  0  0  0  0  0  0  0999 V2000
    9.1344   -4.1476   -2.0043 C   0  0  0  0  0  0  0  0  0  0  0  0
    7.8057   -3.4603   -1.8912 C   0  0  0  0  0  0  0  0  0  0  0  0
    7.0329   -3.2105   -3.0319 C   0  0  0  0  0  0  0  0  0  0  0  0
    5.7830   -2.5954   -2.9228 C   0  0  0  0  0  0  0  0  0  0  0  0
    5.2788   -2.2330   -1.6685 C   0  0  0  0  0  0  0  0  0  0  0  0
    3.9416   -1.5460   -1.5435 C   0  0  0  0  0  0  0  0  0  0  0  0
    4.0968   -0.0270   -1.4370 C   0  0  0  0  0  0  0  0  0  0  0  0
    2.8193    0.6551   -1.3235 N   0  0  0  0  0  0  0  0  0  0  0  0
    2.1345    0.7132   -0.1291 C   0  0  0  0  0  0  0  0  0  0  0  0
    2.5242    0.1674    0.8988 O   0  0  0  0  0  0  0  0  0  0  0  0
    0.8383    1.4904   -0.2173 C   0  0  0  0  0  0  0  0  0  0  0  0
    0.2156    1.7276    1.1548 C   0  0  0  0  0  0  0  0  0  0  0  0
   -0.2823    0.4581    1.7154 N   0  0  0  0  0  0  0  0  0  0  0  0
   -1.2835    0.5398    3.0660 S   0  0  0  0  0  6  0  0  0  0  0  0
   -1.0483    1.7898    3.7517 O   0  0  0  0  0  0  0  0  0  0  0  0
   -1.1717   -0.7358    3.7389 O   0  0  0  0  0  0  0  0  0  0  0  0
   -2.8911    0.5995    2.3135 C   0  0  0  0  0  0  0  0  0  0  0  0
   -3.5816   -0.5855    2.0593 C   0  0  0  0  0  0  0  0  0  0  0  0
   -4.8635   -0.5364    1.4977 C   0  0  0  0  0  0  0  0  0  0  0  0
   -5.4711    0.6919    1.1895 C   0  0  0  0  0  0  0  0  0  0  0  0
   -4.7646    1.8642    1.4622 C   0  0  0  0  0  0  0  0  0  0  0  0
   -3.4812    1.8296    2.0299 C   0  0  0  0  0  0  0  0  0  0  0  0
   -5.3762    3.1619    1.1426 C   0  0  0  0  0  0  0  0  0  0  0  0
   -4.7073    4.1847    1.2725 O   0  0  0  0  0  0  0  0  0  0  0  0
   -6.6860    3.1379    0.6869 N   0  0  0  0  0  0  0  0  0  0  0  0
   -7.3232    4.4108    0.3997 C   0  0  0  0  0  0  0  0  0  0  0  0
   -7.3818    1.9886    0.3312 C   0  0  0  0  0  0  0  0  0  0  0  0
   -8.4871    2.0481   -0.2125 O   0  0  0  0  0  0  0  0  0  0  0  0
   -6.7633    0.7713    0.6062 N   0  0  0  0  0  0  0  0  0  0  0  0
   -7.4802   -0.4540    0.2751 C   0  0  0  0  0  0  0  0  0  0  0  0
    6.0466   -2.4957   -0.5257 C   0  0  0  0  0  0  0  0  0  0  0  0
    7.2965   -3.1090   -0.6362 C   0  0  0  0  0  0  0  0  0  0  0  0
    9.0084   -5.2287   -1.8886 H   0  0  0  0  0  0  0  0  0  0  0  0
    9.8257   -3.7846   -1.2357 H   0  0  0  0  0  0  0  0  0  0  0  0
    9.5975   -3.9483   -2.9768 H   0  0  0  0  0  0  0  0  0  0  0  0
    7.4011   -3.4943   -4.0153 H   0  0  0  0  0  0  0  0  0  0  0  0
    5.2066   -2.4060   -3.8261 H   0  0  0  0  0  0  0  0  0  0  0  0
    3.3112   -1.7973   -2.4068 H   0  0  0  0  0  0  0  0  0  0  0  0
    3.4119   -1.9452   -0.6688 H   0  0  0  0  0  0  0  0  0  0  0  0
    4.7076    0.2402   -0.5661 H   0  0  0  0  0  0  0  0  0  0  0  0
    4.5960    0.3745   -2.3264 H   0  0  0  0  0  0  0  0  0  0  0  0
    2.4290    1.0892   -2.1501 H   0  0  0  0  0  0  0  0  0  0  0  0
    1.0539    2.4597   -0.6818 H   0  0  0  0  0  0  0  0  0  0  0  0
    0.1471    0.9410   -0.8668 H   0  0  0  0  0  0  0  0  0  0  0  0
    0.9543    2.1610    1.8385 H   0  0  0  0  0  0  0  0  0  0  0  0
   -0.6156    2.4306    1.0405 H   0  0  0  0  0  0  0  0  0  0  0  0
    0.4420   -0.2577    1.8523 H   0  0  0  0  0  0  0  0  0  0  0  0
   -3.1338   -1.5494    2.2961 H   0  0  0  0  0  0  0  0  0  0  0  0
   -5.3651   -1.4836    1.3167 H   0  0  0  0  0  0  0  0  0  0  0  0
   -2.9541    2.7571    2.2493 H   0  0  0  0  0  0  0  0  0  0  0  0
   -7.2276    4.6121   -0.6721 H   0  0  0  0  0  0  0  0  0  0  0  0
   -6.8606    5.2287    0.9597 H   0  0  0  0  0  0  0  0  0  0  0  0
   -8.3860    4.3703    0.6562 H   0  0  0  0  0  0  0  0  0  0  0  0
   -6.8843   -1.0452   -0.4240 H   0  0  0  0  0  0  0  0  0  0  0  0
   -8.4452   -0.2578   -0.1966 H   0  0  0  0  0  0  0  0  0  0  0  0
   -7.6687   -1.0242    1.1890 H   0  0  0  0  0  0  0  0  0  0  0  0
    5.6735   -2.2255    0.4613 H   0  0  0  0  0  0  0  0  0  0  0  0
    7.8712   -3.3103    0.2664 H   0  0  0  0  0  0  0  0  0  0  0  0
  1  2  1  0
  2  3  2  0
  3  4  1  0
  4  5  2  0
  5  6  1  0
  6  7  1  0
  7  8  1  0
  8  9  1  0
  9 10  2  0
  9 11  1  0
 11 12  1  0
 12 13  1  0
 13 14  1  0
 14 15  2  0
 14 16  2  0
 14 17  1  0
 17 18  2  0
 18 19  1  0
 19 20  2  0
 20 21  1  0
 21 22  2  0
 21 23  1  0
 23 24  2  0
 23 25  1  0
 25 26  1  0
 25 27  1  0
 27 28  2  0
 27 29  1  0
 29 30  1  0
  5 31  1  0
 31 32  2  0
 32  2  1  0
 22 17  1  0
 29 20  1  0
  1 33  1  0
  1 34  1  0
  1 35  1  0
  3 36  1  0
  4 37  1  0
  6 38  1  0
  6 39  1  0
  7 40  1  0
  7 41  1  0
  8 42  1  0
 11 43  1  0
 11 44  1  0
 12 45  1  0
 12 46  1  0
 13 47  1  0
 18 48  1  0
 19 49  1  0
 22 50  1  0
 26 51  1  0
 26 52  1  0
 26 53  1  0
 30 54  1  0
 30 55  1  0
 30 56  1  0
 31 57  1  0
 32 58  1  0
M  END
$$$$
