
     RDKit          3D

 48 50  0  0  0  0  0  0  0  0999 V2000
    7.5593    0.4945    2.2935 C   0  0  0  0  0  0  0  0  0  0  0  0
    7.3543    0.8979    0.9448 O   0  0  0  0  0  0  0  0  0  0  0  0
    6.3634    0.2627    0.2501 C   0  0  0  0  0  0  0  0  0  0  0  0
    5.5339   -0.7448    0.7397 C   0  0  0  0  0  0  0  0  0  0  0  0
    4.5504   -1.3177   -0.0796 C   0  0  0  0  0  0  0  0  0  0  0  0
    4.3892   -0.8934   -1.4016 C   0  0  0  0  0  0  0  0  0  0  0  0
    3.4458   -1.3808   -2.2680 O   0  0  0  0  0  0  0  0  0  0  0  0
    2.8008   -2.6191   -1.9632 C   0  0  0  0  0  0  0  0  0  0  0  0
    1.5714   -2.3381   -1.1893 C   0  0  0  0  0  0  0  0  0  0  0  0
    0.6590   -1.3111   -1.1609 C   0  0  0  0  0  0  0  0  0  0  0  0
   -0.2766   -1.6796   -0.1550 C   0  0  0  0  0  0  0  0  0  0  0  0
   -1.4647   -0.9571    0.3221 C   0  0  0  0  0  0  0  0  0  0  0  0
   -2.1099   -1.2995    1.3108 O   0  0  0  0  0  0  0  0  0  0  0  0
   -1.8310    0.1460   -0.4358 N   0  0  0  0  0  0  0  0  0  0  0  0
   -3.0529    0.8952   -0.1376 C   0  0  0  0  0  0  0  0  0  0  0  0
   -2.9363    2.2999   -0.7302 C   0  0  0  0  0  0  0  0  0  0  0  0
   -4.2926    0.1433   -0.6578 C   0  0  0  0  0  0  0  0  0  0  0  0
   -5.5818    0.7082   -0.1214 C   0  0  0  0  0  0  0  0  0  0  0  0
   -6.0289    0.3576    1.1506 C   0  0  0  0  0  0  0  0  0  0  0  0
   -7.2160    0.9108    1.6206 C   0  0  0  0  0  0  0  0  0  0  0  0
   -7.9205    1.7959    0.8142 C   0  0  0  0  0  0  0  0  0  0  0  0
   -7.4041    2.0938   -0.4352 C   0  0  0  0  0  0  0  0  0  0  0  0
   -6.2534    1.5747   -0.9180 N   0  0  0  0  0  0  0  0  0  0  0  0
    0.0681   -2.8657    0.3775 N   0  0  0  0  0  0  0  0  0  0  0  0
    1.2126   -3.2725   -0.2736 O   0  0  0  0  0  0  0  0  0  0  0  0
    5.2194    0.1308   -1.8818 C   0  0  0  0  0  0  0  0  0  0  0  0
    5.0666    0.7259   -3.4994 Cl  0  0  0  0  0  0  0  0  0  0  0  0
    6.1998    0.6989   -1.0644 C   0  0  0  0  0  0  0  0  0  0  0  0
    7.8554   -0.5582    2.3495 H   0  0  0  0  0  0  0  0  0  0  0  0
    6.6703    0.6889    2.9026 H   0  0  0  0  0  0  0  0  0  0  0  0
    8.3795    1.0935    2.7005 H   0  0  0  0  0  0  0  0  0  0  0  0
    5.6180   -1.1078    1.7597 H   0  0  0  0  0  0  0  0  0  0  0  0
    3.9182   -2.0825    0.3618 H   0  0  0  0  0  0  0  0  0  0  0  0
    2.5169   -3.0734   -2.9190 H   0  0  0  0  0  0  0  0  0  0  0  0
    3.4738   -3.3287   -1.4689 H   0  0  0  0  0  0  0  0  0  0  0  0
    0.6905   -0.4180   -1.7665 H   0  0  0  0  0  0  0  0  0  0  0  0
   -1.4086    0.2790   -1.3436 H   0  0  0  0  0  0  0  0  0  0  0  0
   -3.1133    0.9892    0.9543 H   0  0  0  0  0  0  0  0  0  0  0  0
   -3.7859    2.9280   -0.4460 H   0  0  0  0  0  0  0  0  0  0  0  0
   -2.0254    2.7939   -0.3736 H   0  0  0  0  0  0  0  0  0  0  0  0
   -2.8837    2.2660   -1.8241 H   0  0  0  0  0  0  0  0  0  0  0  0
   -4.3110    0.1661   -1.7553 H   0  0  0  0  0  0  0  0  0  0  0  0
   -4.2444   -0.9198   -0.3893 H   0  0  0  0  0  0  0  0  0  0  0  0
   -5.4634   -0.3353    1.7678 H   0  0  0  0  0  0  0  0  0  0  0  0
   -7.5869    0.6515    2.6081 H   0  0  0  0  0  0  0  0  0  0  0  0
   -8.8490    2.2426    1.1507 H   0  0  0  0  0  0  0  0  0  0  0  0
   -7.9172    2.7800   -1.1026 H   0  0  0  0  0  0  0  0  0  0  0  0
    6.8413    1.4882   -1.4485 H   0  0  0  0  0  0  0  0  0  0  0  0
  1  2  1  0
  2  3  1  0
  3  4  2  0
  4  5  1  0
  5  6  2  0
  6  7  1  0
  7  8  1  0
  8  9  1  0
  9 10  2  0
 10 11  1  0
 11 12  1  0
 12 13  2  0
 12 14  1  0
 14 15  1  0
 15 16  1  0
 15 17  1  0
 17 18  1  0
 18 19  2  0
 19 20  1  0
 20 21  2  0
 21 22  1  0
 22 23  2  0
 11 24  2  0
 24 25  1  0
  6 26  1  0
 26 27  1  0
 26 28  2  0
 28  3  1  0
 25  9  1  0
 23 18  1  0
  1 29  1  0
  1 30  1  0
  1 31  1  0
  4 32  1  0
  5 33  1  0
  8 34  1  0
  8 35  1  0
 10 36  1  0
 14 37  1  0
 15 38  1  0
 16 39  1  0
 16 40  1  0
 16 41  1  0
 17 42  1  0
 17 43  1  0
 19 44  1  0
 20 45  1  0
 21 46  1  0
 22 47  1  0
 28 48  1  0
M  END
$$$$
