
     RDKit          3D

 42 46  0  0  0  0  0  0  0  0999 V2000
    5.0794    2.0284    0.4682 C   0  0  0  0  0  0  0  0  0  0  0  0
    5.0288    1.5953   -0.8553 C   0  0  0  0  0  0  0  0  0  0  0  0
    3.9221    0.8758   -1.3301 C   0  0  0  0  0  0  0  0  0  0  0  0
    3.8625    0.4372   -2.6571 C   0  0  0  0  0  0  0  0  0  0  0  0
    2.7576   -0.2782   -3.1195 C   0  0  0  0  0  0  0  0  0  0  0  0
    1.6852   -0.5725   -2.2673 C   0  0  0  0  0  0  0  0  0  0  0  0
    0.5829   -1.2916   -2.7359 C   0  0  0  0  0  0  0  0  0  0  0  0
   -0.4816   -1.5858   -1.8881 C   0  0  0  0  0  0  0  0  0  0  0  0
   -0.4779   -1.1645   -0.5466 C   0  0  0  0  0  0  0  0  0  0  0  0
   -1.6733   -1.5401    0.3171 C   0  0  0  0  0  0  0  0  0  0  0  0
   -2.4718   -0.3914    0.7695 N   0  0  0  0  0  0  0  0  0  0  0  0
   -3.4105   -0.8051    1.8345 C   0  0  0  0  0  0  0  0  0  0  0  0
   -4.5967    0.1611    1.9585 C   0  0  0  0  0  0  0  0  0  0  0  0
   -5.4135    0.1767    0.7797 O   0  0  0  0  0  0  0  0  0  0  0  0
   -4.6739   -0.0877   -0.4206 C   0  0  0  0  0  0  0  0  0  0  0  0
   -3.1899    0.3004   -0.3215 C   0  0  0  0  0  0  0  0  0  0  0  0
    0.6353   -0.4319   -0.0468 C   0  0  0  0  0  0  0  0  0  0  0  0
    0.7311    0.0260    1.2838 C   0  0  0  0  0  0  0  0  0  0  0  0
    1.8406    0.7415    1.7419 C   0  0  0  0  0  0  0  0  0  0  0  0
    2.9049    1.0291    0.8853 C   0  0  0  0  0  0  0  0  0  0  0  0
    4.0239    1.7471    1.3331 C   0  0  0  0  0  0  0  0  0  0  0  0
    2.8469    0.5875   -0.4552 C   0  0  0  0  0  0  0  0  0  0  0  0
    1.7173   -0.1402   -0.9198 C   0  0  0  0  0  0  0  0  0  0  0  0
    5.9413    2.5856    0.8255 H   0  0  0  0  0  0  0  0  0  0  0  0
    5.8620    1.8246   -1.5158 H   0  0  0  0  0  0  0  0  0  0  0  0
    4.6774    0.6484   -3.3457 H   0  0  0  0  0  0  0  0  0  0  0  0
    2.7436   -0.6049   -4.1570 H   0  0  0  0  0  0  0  0  0  0  0  0
    0.5429   -1.6321   -3.7681 H   0  0  0  0  0  0  0  0  0  0  0  0
   -1.3237   -2.1489   -2.2851 H   0  0  0  0  0  0  0  0  0  0  0  0
   -2.3139   -2.2577   -0.2136 H   0  0  0  0  0  0  0  0  0  0  0  0
   -1.2773   -2.0886    1.1830 H   0  0  0  0  0  0  0  0  0  0  0  0
   -3.8101   -1.8062    1.6237 H   0  0  0  0  0  0  0  0  0  0  0  0
   -2.8710   -0.8512    2.7867 H   0  0  0  0  0  0  0  0  0  0  0  0
   -4.2539    1.1835    2.1564 H   0  0  0  0  0  0  0  0  0  0  0  0
   -5.2372   -0.1345    2.7957 H   0  0  0  0  0  0  0  0  0  0  0  0
   -5.1549    0.4721   -1.2292 H   0  0  0  0  0  0  0  0  0  0  0  0
   -4.7791   -1.1531   -0.6564 H   0  0  0  0  0  0  0  0  0  0  0  0
   -3.1323    1.3746   -0.1043 H   0  0  0  0  0  0  0  0  0  0  0  0
   -2.7085    0.1644   -1.2950 H   0  0  0  0  0  0  0  0  0  0  0  0
   -0.0727   -0.1606    1.9919 H   0  0  0  0  0  0  0  0  0  0  0  0
    1.8577    1.0739    2.7772 H   0  0  0  0  0  0  0  0  0  0  0  0
    4.0802    2.0936    2.3626 H   0  0  0  0  0  0  0  0  0  0  0  0
  1  2  2  0
  2  3  1  0
  3  4  2  0
  4  5  1  0
  5  6  2  0
  6  7  1  0
  7  8  2  0
  8  9  1  0
  9 10  1  0
 10 11  1  0
 11 12  1  0
 12 13  1  0
 13 14  1  0
 14 15  1  0
 15 16  1  0
  9 17  2  0
 17 18  1  0
 18 19  2  0
 19 20  1  0
 20 21  2  0
 20 22  1  0
 22 23  2  0
 21  1  1  0
 22  3  1  0
 23  6  1  0
 16 11  1  0
 23 17  1  0
  1 24  1  0
  2 25  1  0
  4 26  1  0
  5 27  1  0
  7 28  1  0
  8 29  1  0
 10 30  1  0
 10 31  1  0
 12 32  1  0
 12 33  1  0
 13 34  1  0
 13 35  1  0
 15 36  1  0
 15 37  1  0
 16 38  1  0
 16 39  1  0
 18 40  1  0
 19 41  1  0
 21 42  1  0
M  END
$$$$
