
     RDKit          3D

 57 59  0  0  0  0  0  0  0  0999 V2000
   -8.1162   -0.2152   -1.8945 C   0  0  0  0  0  0  0  0  0  0  0  0
   -7.3642   -1.1975   -1.1963 O   0  0  0  0  0  0  0  0  0  0  0  0
   -6.0064   -1.2243   -1.3945 C   0  0  0  0  0  0  0  0  0  0  0  0
   -5.3067   -0.3138   -2.1953 C   0  0  0  0  0  0  0  0  0  0  0  0
   -3.9206   -0.4131   -2.3317 C   0  0  0  0  0  0  0  0  0  0  0  0
   -3.2297   -1.4127   -1.6455 C   0  0  0  0  0  0  0  0  0  0  0  0
   -1.4624   -1.5511   -1.8235 S   0  0  0  0  0  6  0  0  0  0  0  0
   -1.1162   -2.9383   -1.6012 O   0  0  0  0  0  0  0  0  0  0  0  0
   -1.0964   -0.8712   -3.0472 O   0  0  0  0  0  0  0  0  0  0  0  0
   -0.8505   -0.6600   -0.5458 N   0  0  0  0  0  0  0  0  0  0  0  0
   -1.0713   -1.0891    0.8387 C   0  0  0  0  0  0  0  0  0  0  0  0
   -1.7379    0.1151    1.4653 C   0  0  0  0  0  0  0  0  0  0  0  0
   -1.1617    1.2290    0.7774 O   0  0  0  0  0  0  0  0  0  0  0  0
   -0.9898    0.8070   -0.5889 C   0  0  0  0  0  0  0  0  0  0  0  0
    0.2663    1.4695   -1.1855 C   0  0  0  0  0  0  0  0  0  0  0  0
    1.5011    0.9444   -0.6247 N   0  0  0  0  0  0  0  0  0  0  0  0
    2.7089    1.5708   -0.8015 C   0  0  0  0  0  0  0  0  0  0  0  0
    2.8838    2.6755   -1.2963 O   0  0  0  0  0  0  0  0  0  0  0  0
    3.9187    0.7346   -0.3233 C   0  0  0  0  0  0  0  0  0  0  0  0
    3.7459   -0.3587    0.1973 O   0  0  0  0  0  0  0  0  0  0  0  0
    5.1277    1.3485   -0.5480 N   0  0  0  0  0  0  0  0  0  0  0  0
    6.3702    0.8111   -0.0617 C   0  0  0  0  0  0  0  0  0  0  0  0
    6.7541    1.4445    1.2510 C   0  0  0  0  0  0  0  0  0  0  0  0
    6.2507    0.9313    2.4577 C   0  0  0  0  0  0  0  0  0  0  0  0
    6.5860    1.5280    3.6741 C   0  0  0  0  0  0  0  0  0  0  0  0
    7.4177    2.6407    3.6844 C   0  0  0  0  0  0  0  0  0  0  0  0
    7.7382    3.2150    4.8515 F   0  0  0  0  0  0  0  0  0  0  0  0
    7.9183    3.1707    2.5013 C   0  0  0  0  0  0  0  0  0  0  0  0
    7.5843    2.5760    1.2831 C   0  0  0  0  0  0  0  0  0  0  0  0
   -3.9183   -2.3529   -0.8720 C   0  0  0  0  0  0  0  0  0  0  0  0
   -5.3064   -2.2593   -0.7378 C   0  0  0  0  0  0  0  0  0  0  0  0
   -6.0648   -3.1152    0.0213 O   0  0  0  0  0  0  0  0  0  0  0  0
   -5.4509   -4.3163    0.4694 C   0  0  0  0  0  0  0  0  0  0  0  0
   -7.8323    0.7950   -1.5811 H   0  0  0  0  0  0  0  0  0  0  0  0
   -9.1709   -0.3580   -1.6399 H   0  0  0  0  0  0  0  0  0  0  0  0
   -8.0168   -0.3367   -2.9785 H   0  0  0  0  0  0  0  0  0  0  0  0
   -5.8141    0.4817   -2.7319 H   0  0  0  0  0  0  0  0  0  0  0  0
   -3.3960    0.2894   -2.9763 H   0  0  0  0  0  0  0  0  0  0  0  0
   -0.0913   -1.2692    1.2939 H   0  0  0  0  0  0  0  0  0  0  0  0
   -1.6681   -1.9954    0.9504 H   0  0  0  0  0  0  0  0  0  0  0  0
   -1.5507    0.1955    2.5393 H   0  0  0  0  0  0  0  0  0  0  0  0
   -2.8191    0.1186    1.2879 H   0  0  0  0  0  0  0  0  0  0  0  0
   -1.8800    1.1317   -1.1340 H   0  0  0  0  0  0  0  0  0  0  0  0
    0.3154    1.2987   -2.2662 H   0  0  0  0  0  0  0  0  0  0  0  0
    0.2456    2.5513   -1.0117 H   0  0  0  0  0  0  0  0  0  0  0  0
    1.5306   -0.0368   -0.3563 H   0  0  0  0  0  0  0  0  0  0  0  0
    5.0891    2.3027   -0.8953 H   0  0  0  0  0  0  0  0  0  0  0  0
    7.1353    1.0109   -0.8198 H   0  0  0  0  0  0  0  0  0  0  0  0
    6.2986   -0.2770    0.0484 H   0  0  0  0  0  0  0  0  0  0  0  0
    5.5899    0.0658    2.4502 H   0  0  0  0  0  0  0  0  0  0  0  0
    6.2009    1.1347    4.6092 H   0  0  0  0  0  0  0  0  0  0  0  0
    8.5614    4.0442    2.5345 H   0  0  0  0  0  0  0  0  0  0  0  0
    7.9743    3.0001    0.3605 H   0  0  0  0  0  0  0  0  0  0  0  0
   -3.3587   -3.1454   -0.3857 H   0  0  0  0  0  0  0  0  0  0  0  0
   -6.2234   -4.9305    0.9416 H   0  0  0  0  0  0  0  0  0  0  0  0
   -5.0348   -4.8885   -0.3668 H   0  0  0  0  0  0  0  0  0  0  0  0
   -4.6864   -4.1056    1.2243 H   0  0  0  0  0  0  0  0  0  0  0  0
  1  2  1  0
  2  3  1  0
  3  4  2  0
  4  5  1  0
  5  6  2  0
  6  7  1  0
  7  8  2  0
  7  9  2  0
  7 10  1  0
 10 11  1  0
 11 12  1  0
 12 13  1  0
 13 14  1  0
 14 15  1  0
 15 16  1  0
 16 17  1  0
 17 18  2  0
 17 19  1  0
 19 20  2  0
 19 21  1  0
 21 22  1  0
 22 23  1  0
 23 24  2  0
 24 25  1  0
 25 26  2  0
 26 27  1  0
 26 28  1  0
 28 29  2  0
  6 30  1  0
 30 31  2  0
 31 32  1  0
 32 33  1  0
 31  3  1  0
 14 10  1  0
 29 23  1  0
  1 34  1  0
  1 35  1  0
  1 36  1  0
  4 37  1  0
  5 38  1  0
 11 39  1  0
 11 40  1  0
 12 41  1  0
 12 42  1  0
 14 43  1  0
 15 44  1  0
 15 45  1  0
 16 46  1  0
 21 47  1  0
 22 48  1  0
 22 49  1  0
 24 50  1  0
 25 51  1  0
 28 52  1  0
 29 53  1  0
 30 54  1  0
 33 55  1  0
 33 56  1  0
 33 57  1  0
M  END
$$$$
