
     RDKit          3D

 54 57  0  0  0  0  0  0  0  0999 V2000
   -5.0869    3.9323   -2.4033 C   0  0  0  0  0  0  0  0  0  0  0  0
   -4.1821    2.8832   -1.8293 C   0  0  0  0  0  0  0  0  0  0  0  0
   -3.7254    1.8291   -2.6220 C   0  0  0  0  0  0  0  0  0  0  0  0
   -2.8409    0.8532   -2.1195 C   0  0  0  0  0  0  0  0  0  0  0  0
   -2.3347   -0.1602   -3.1110 C   0  0  0  0  0  0  0  0  0  0  0  0
   -2.4519    0.9097   -0.7649 C   0  0  0  0  0  0  0  0  0  0  0  0
   -1.6091   -0.0481   -0.1523 N   0  0  0  0  0  0  0  0  0  0  0  0
   -1.6182   -1.4183   -0.3554 C   0  0  0  0  0  0  0  0  0  0  0  0
   -2.4400   -2.0504   -1.0143 O   0  0  0  0  0  0  0  0  0  0  0  0
   -0.5625   -2.1570    0.4723 C   0  0  0  0  0  0  0  0  0  0  0  0
    0.7793   -1.5839    0.3162 N   0  0  0  0  0  0  0  0  0  0  0  0
    1.1604   -0.5951    1.2122 C   0  0  0  0  0  0  0  0  0  0  0  0
    0.3413   -0.1308    2.0132 O   0  0  0  0  0  0  0  0  0  0  0  0
    2.4625   -0.1365    1.1365 N   0  0  0  0  0  0  0  0  0  0  0  0
    2.9018    0.8223    2.1406 C   0  0  0  0  0  0  0  0  0  0  0  0
    3.2865    0.0951    3.3834 C   0  0  0  0  0  0  0  0  0  0  0  0
    2.5970   -0.2579    4.5262 C   0  0  0  0  0  0  0  0  0  0  0  0
    3.5172   -0.9473    5.3516 C   0  0  0  0  0  0  0  0  0  0  0  0
    4.7067   -0.9706    4.6626 C   0  0  0  0  0  0  0  0  0  0  0  0
    4.5763   -0.3404    3.4676 O   0  0  0  0  0  0  0  0  0  0  0  0
    3.3643   -0.4849    0.1429 C   0  0  0  0  0  0  0  0  0  0  0  0
    4.4925   -0.0103    0.0359 O   0  0  0  0  0  0  0  0  0  0  0  0
    2.9016   -1.4588   -0.8594 C   0  0  0  0  0  0  0  0  0  0  0  0
    3.7616   -1.8322   -1.9043 C   0  0  0  0  0  0  0  0  0  0  0  0
    3.3339   -2.7373   -2.8707 C   0  0  0  0  0  0  0  0  0  0  0  0
    2.0489   -3.2624   -2.7948 C   0  0  0  0  0  0  0  0  0  0  0  0
    1.1946   -2.8902   -1.7502 C   0  0  0  0  0  0  0  0  0  0  0  0
    1.6148   -1.9872   -0.7601 C   0  0  0  0  0  0  0  0  0  0  0  0
   -2.8631    2.0105    0.0271 C   0  0  0  0  0  0  0  0  0  0  0  0
   -2.4350    2.1766    1.4635 C   0  0  0  0  0  0  0  0  0  0  0  0
   -3.7219    2.9819   -0.5170 C   0  0  0  0  0  0  0  0  0  0  0  0
   -5.7408    3.5064   -3.1715 H   0  0  0  0  0  0  0  0  0  0  0  0
   -5.7326    4.3581   -1.6280 H   0  0  0  0  0  0  0  0  0  0  0  0
   -4.4929    4.7358   -2.8496 H   0  0  0  0  0  0  0  0  0  0  0  0
   -4.0441    1.7733   -3.6623 H   0  0  0  0  0  0  0  0  0  0  0  0
   -3.0219   -1.0079   -3.1797 H   0  0  0  0  0  0  0  0  0  0  0  0
   -1.3269   -0.5053   -2.8629 H   0  0  0  0  0  0  0  0  0  0  0  0
   -2.2546    0.2871   -4.1091 H   0  0  0  0  0  0  0  0  0  0  0  0
   -1.1778    0.2294    0.7264 H   0  0  0  0  0  0  0  0  0  0  0  0
   -0.5570   -3.2219    0.2202 H   0  0  0  0  0  0  0  0  0  0  0  0
   -0.8743   -2.1039    1.5229 H   0  0  0  0  0  0  0  0  0  0  0  0
    2.0902    1.5262    2.3596 H   0  0  0  0  0  0  0  0  0  0  0  0
    3.7479    1.4158    1.7776 H   0  0  0  0  0  0  0  0  0  0  0  0
    1.5558   -0.0467    4.7297 H   0  0  0  0  0  0  0  0  0  0  0  0
    3.3374   -1.3760    6.3273 H   0  0  0  0  0  0  0  0  0  0  0  0
    5.6875   -1.3743    4.8719 H   0  0  0  0  0  0  0  0  0  0  0  0
    4.7650   -1.4145   -1.9669 H   0  0  0  0  0  0  0  0  0  0  0  0
    3.9980   -3.0253   -3.6819 H   0  0  0  0  0  0  0  0  0  0  0  0
    1.7030   -3.9620   -3.5531 H   0  0  0  0  0  0  0  0  0  0  0  0
    0.1966   -3.3198   -1.7591 H   0  0  0  0  0  0  0  0  0  0  0  0
   -1.3519    2.3247    1.5207 H   0  0  0  0  0  0  0  0  0  0  0  0
   -2.7211    1.2988    2.0520 H   0  0  0  0  0  0  0  0  0  0  0  0
   -2.9095    3.0468    1.9298 H   0  0  0  0  0  0  0  0  0  0  0  0
   -4.0456    3.8211    0.0962 H   0  0  0  0  0  0  0  0  0  0  0  0
  1  2  1  0
  2  3  2  0
  3  4  1  0
  4  5  1  0
  4  6  2  0
  6  7  1  0
  7  8  1  0
  8  9  2  0
  8 10  1  0
 10 11  1  0
 11 12  1  0
 12 13  2  0
 12 14  1  0
 14 15  1  0
 15 16  1  0
 16 17  2  0
 17 18  1  0
 18 19  2  0
 19 20  1  0
 14 21  1  0
 21 22  2  0
 21 23  1  0
 23 24  2  0
 24 25  1  0
 25 26  2  0
 26 27  1  0
 27 28  2  0
  6 29  1  0
 29 30  1  0
 29 31  2  0
 31  2  1  0
 28 11  1  0
 20 16  1  0
 28 23  1  0
  1 32  1  0
  1 33  1  0
  1 34  1  0
  3 35  1  0
  5 36  1  0
  5 37  1  0
  5 38  1  0
  7 39  1  0
 10 40  1  0
 10 41  1  0
 15 42  1  0
 15 43  1  0
 17 44  1  0
 18 45  1  0
 19 46  1  0
 24 47  1  0
 25 48  1  0
 26 49  1  0
 27 50  1  0
 30 51  1  0
 30 52  1  0
 30 53  1  0
 31 54  1  0
M  END
$$$$
