
     RDKit          3D

 43 45  0  0  0  0  0  0  0  0999 V2000
    5.8193    0.5872    3.2161 C   0  0  0  0  0  0  0  0  0  0  0  0
    5.2932    0.3469    1.8320 C   0  0  0  0  0  0  0  0  0  0  0  0
    6.1739    0.2104    0.7542 C   0  0  0  0  0  0  0  0  0  0  0  0
    5.6872    0.0083   -0.5421 C   0  0  0  0  0  0  0  0  0  0  0  0
    6.6344   -0.1155   -1.6996 C   0  0  0  0  0  0  0  0  0  0  0  0
    4.3011   -0.0192   -0.7616 C   0  0  0  0  0  0  0  0  0  0  0  0
    3.4057    0.1343    0.2979 C   0  0  0  0  0  0  0  0  0  0  0  0
    2.0017    0.1107    0.1548 N   0  0  0  0  0  0  0  0  0  0  0  0
    1.2770    0.0212   -1.0198 C   0  0  0  0  0  0  0  0  0  0  0  0
    1.7192    0.0176   -2.1622 O   0  0  0  0  0  0  0  0  0  0  0  0
   -0.2023   -0.0308   -0.8405 C   0  0  0  0  0  0  0  0  0  0  0  0
   -0.7957   -0.6965    0.2374 C   0  0  0  0  0  0  0  0  0  0  0  0
   -2.1904   -0.7207    0.3693 C   0  0  0  0  0  0  0  0  0  0  0  0
   -3.0054   -0.0926   -0.5753 C   0  0  0  0  0  0  0  0  0  0  0  0
   -4.4100   -0.0715   -0.5133 N   0  0  0  0  0  0  0  0  0  0  0  0
   -5.2384   -0.6129    0.4543 C   0  0  0  0  0  0  0  0  0  0  0  0
   -4.8646   -1.2136    1.4564 O   0  0  0  0  0  0  0  0  0  0  0  0
   -6.6455   -0.3927    0.1678 C   0  0  0  0  0  0  0  0  0  0  0  0
   -7.7842   -0.7624    0.8586 C   0  0  0  0  0  0  0  0  0  0  0  0
   -8.8879   -0.2815    0.1146 C   0  0  0  0  0  0  0  0  0  0  0  0
   -8.3611    0.3530   -0.9850 C   0  0  0  0  0  0  0  0  0  0  0  0
   -7.0043    0.2940   -0.9660 O   0  0  0  0  0  0  0  0  0  0  0  0
   -2.4060    0.5538   -1.6638 C   0  0  0  0  0  0  0  0  0  0  0  0
   -1.0145    0.5816   -1.7995 C   0  0  0  0  0  0  0  0  0  0  0  0
    3.9122    0.3164    1.5921 C   0  0  0  0  0  0  0  0  0  0  0  0
    5.9249    1.6616    3.3948 H   0  0  0  0  0  0  0  0  0  0  0  0
    6.7944    0.1079    3.3526 H   0  0  0  0  0  0  0  0  0  0  0  0
    5.1438    0.1673    3.9689 H   0  0  0  0  0  0  0  0  0  0  0  0
    7.2478    0.2587    0.9244 H   0  0  0  0  0  0  0  0  0  0  0  0
    7.5910   -0.5416   -1.3791 H   0  0  0  0  0  0  0  0  0  0  0  0
    6.8166    0.8693   -2.1405 H   0  0  0  0  0  0  0  0  0  0  0  0
    6.2258   -0.7793   -2.4688 H   0  0  0  0  0  0  0  0  0  0  0  0
    3.9452   -0.1639   -1.7773 H   0  0  0  0  0  0  0  0  0  0  0  0
    1.4770    0.2383    1.0096 H   0  0  0  0  0  0  0  0  0  0  0  0
   -0.1958   -1.2303    0.9697 H   0  0  0  0  0  0  0  0  0  0  0  0
   -2.6081   -1.2535    1.2184 H   0  0  0  0  0  0  0  0  0  0  0  0
   -4.8997    0.4005   -1.2668 H   0  0  0  0  0  0  0  0  0  0  0  0
   -7.8005   -1.3147    1.7889 H   0  0  0  0  0  0  0  0  0  0  0  0
   -9.9380   -0.3848    0.3505 H   0  0  0  0  0  0  0  0  0  0  0  0
   -8.7961    0.8697   -1.8297 H   0  0  0  0  0  0  0  0  0  0  0  0
   -3.0102    1.0432   -2.4240 H   0  0  0  0  0  0  0  0  0  0  0  0
   -0.5653    1.0836   -2.6546 H   0  0  0  0  0  0  0  0  0  0  0  0
    3.2324    0.4426    2.4313 H   0  0  0  0  0  0  0  0  0  0  0  0
  1  2  1  0
  2  3  2  0
  3  4  1  0
  4  5  1  0
  4  6  2  0
  6  7  1  0
  7  8  1  0
  8  9  1  0
  9 10  2  0
  9 11  1  0
 11 12  2  0
 12 13  1  0
 13 14  2  0
 14 15  1  0
 15 16  1  0
 16 17  2  0
 16 18  1  0
 18 19  2  0
 19 20  1  0
 20 21  2  0
 21 22  1  0
 14 23  1  0
 23 24  2  0
  7 25  2  0
 25  2  1  0
 24 11  1  0
 22 18  1  0
  1 26  1  0
  1 27  1  0
  1 28  1  0
  3 29  1  0
  5 30  1  0
  5 31  1  0
  5 32  1  0
  6 33  1  0
  8 34  1  0
 12 35  1  0
 13 36  1  0
 15 37  1  0
 19 38  1  0
 20 39  1  0
 21 40  1  0
 23 41  1  0
 24 42  1  0
 25 43  1  0
M  END
$$$$
