
     RDKit          3D

 61 65  0  0  0  0  0  0  0  0999 V2000
   -8.1160   -0.9747    2.2142 C   0  0  0  0  0  0  0  0  0  0  0  0
   -7.6684   -0.6141    0.9152 O   0  0  0  0  0  0  0  0  0  0  0  0
   -6.3959   -0.1146    0.7959 C   0  0  0  0  0  0  0  0  0  0  0  0
   -5.4822   -0.0266    1.8503 C   0  0  0  0  0  0  0  0  0  0  0  0
   -4.2055    0.5012    1.6350 C   0  0  0  0  0  0  0  0  0  0  0  0
   -3.8143    0.9440    0.3640 C   0  0  0  0  0  0  0  0  0  0  0  0
   -2.4789    1.5050    0.1783 C   0  0  0  0  0  0  0  0  0  0  0  0
   -1.5816    1.8474    1.0845 N   0  0  0  0  0  0  0  0  0  0  0  0
   -0.5070    2.3188    0.3523 C   0  0  0  0  0  0  0  0  0  0  0  0
    0.6881    2.8425    1.0654 C   0  0  0  0  0  0  0  0  0  0  0  0
    1.9428    2.4836    0.4274 N   0  0  0  0  0  0  0  0  0  0  0  0
    2.6211    1.2919    0.5288 C   0  0  0  0  0  0  0  0  0  0  0  0
    2.0233   -0.0652    1.4223 S   0  0  0  0  0  0  0  0  0  0  0  0
    3.5652   -0.7685    2.0692 C   0  0  0  0  0  0  0  0  0  0  0  0
    4.0069   -2.0135    1.3423 C   0  0  0  0  0  0  0  0  0  0  0  0
    3.5370   -3.2761    1.7312 C   0  0  0  0  0  0  0  0  0  0  0  0
    3.9896   -4.4315    1.0930 C   0  0  0  0  0  0  0  0  0  0  0  0
    4.9181   -4.3461    0.0504 C   0  0  0  0  0  0  0  0  0  0  0  0
    5.4285   -5.5754   -0.6299 C   0  0  0  0  0  0  0  0  0  0  0  0
    5.3612   -3.0860   -0.3663 C   0  0  0  0  0  0  0  0  0  0  0  0
    4.9087   -1.9305    0.2742 C   0  0  0  0  0  0  0  0  0  0  0  0
    3.7590    1.3173   -0.1265 N   0  0  0  0  0  0  0  0  0  0  0  0
    3.8403    2.5756   -0.6663 C   0  0  0  0  0  0  0  0  0  0  0  0
    4.8463    3.1358   -1.4568 C   0  0  0  0  0  0  0  0  0  0  0  0
    4.6458    4.4528   -1.8394 C   0  0  0  0  0  0  0  0  0  0  0  0
    3.5682    5.2031   -1.4985 N   0  0  0  0  0  0  0  0  0  0  0  0
    2.5942    4.6598   -0.7302 C   0  0  0  0  0  0  0  0  0  0  0  0
    2.7278    3.3385   -0.3208 C   0  0  0  0  0  0  0  0  0  0  0  0
   -0.8142    2.2453   -0.9937 C   0  0  0  0  0  0  0  0  0  0  0  0
   -0.1293    2.5824   -2.2540 C   0  0  0  0  0  0  0  0  0  0  0  0
   -2.0736    1.7242   -1.1109 O   0  0  0  0  0  0  0  0  0  0  0  0
   -4.7330    0.8464   -0.6953 C   0  0  0  0  0  0  0  0  0  0  0  0
   -6.0162    0.3212   -0.4911 C   0  0  0  0  0  0  0  0  0  0  0  0
   -6.9726    0.2096   -1.4726 O   0  0  0  0  0  0  0  0  0  0  0  0
   -6.5884    0.5047   -2.8078 C   0  0  0  0  0  0  0  0  0  0  0  0
   -8.0737   -0.1225    2.9012 H   0  0  0  0  0  0  0  0  0  0  0  0
   -9.1613   -1.2865    2.1338 H   0  0  0  0  0  0  0  0  0  0  0  0
   -7.5474   -1.8245    2.6015 H   0  0  0  0  0  0  0  0  0  0  0  0
   -5.7295   -0.3626    2.8545 H   0  0  0  0  0  0  0  0  0  0  0  0
   -3.5108    0.5637    2.4731 H   0  0  0  0  0  0  0  0  0  0  0  0
    0.7226    2.4789    2.0985 H   0  0  0  0  0  0  0  0  0  0  0  0
    0.6295    3.9347    1.1226 H   0  0  0  0  0  0  0  0  0  0  0  0
    3.3978   -1.0194    3.1201 H   0  0  0  0  0  0  0  0  0  0  0  0
    4.3713   -0.0271    2.0818 H   0  0  0  0  0  0  0  0  0  0  0  0
    2.8214   -3.3675    2.5443 H   0  0  0  0  0  0  0  0  0  0  0  0
    3.6187   -5.3990    1.4247 H   0  0  0  0  0  0  0  0  0  0  0  0
    5.0142   -5.6551   -1.6386 H   0  0  0  0  0  0  0  0  0  0  0  0
    5.1609   -6.4782   -0.0715 H   0  0  0  0  0  0  0  0  0  0  0  0
    6.5214   -5.5403   -0.6970 H   0  0  0  0  0  0  0  0  0  0  0  0
    6.0704   -2.9946   -1.1873 H   0  0  0  0  0  0  0  0  0  0  0  0
    5.2740   -0.9604   -0.0615 H   0  0  0  0  0  0  0  0  0  0  0  0
    5.7269    2.5742   -1.7472 H   0  0  0  0  0  0  0  0  0  0  0  0
    5.3821    4.9653   -2.4574 H   0  0  0  0  0  0  0  0  0  0  0  0
    1.7503    5.2961   -0.4874 H   0  0  0  0  0  0  0  0  0  0  0  0
    0.6840    1.8767   -2.4469 H   0  0  0  0  0  0  0  0  0  0  0  0
    0.2856    3.5952   -2.2085 H   0  0  0  0  0  0  0  0  0  0  0  0
   -0.8223    2.5486   -3.1023 H   0  0  0  0  0  0  0  0  0  0  0  0
   -4.4337    1.2037   -1.6761 H   0  0  0  0  0  0  0  0  0  0  0  0
   -5.7652   -0.1382   -3.1368 H   0  0  0  0  0  0  0  0  0  0  0  0
   -7.4480    0.3008   -3.4528 H   0  0  0  0  0  0  0  0  0  0  0  0
   -6.3340    1.5638   -2.9188 H   0  0  0  0  0  0  0  0  0  0  0  0
  1  2  1  0
  2  3  1  0
  3  4  2  0
  4  5  1  0
  5  6  2  0
  6  7  1  0
  7  8  2  0
  8  9  1  0
  9 10  1  0
 10 11  1  0
 11 12  1  0
 12 13  1  0
 13 14  1  0
 14 15  1  0
 15 16  2  0
 16 17  1  0
 17 18  2  0
 18 19  1  0
 18 20  1  0
 20 21  2  0
 12 22  2  0
 22 23  1  0
 23 24  2  0
 24 25  1  0
 25 26  2  0
 26 27  1  0
 27 28  2  0
  9 29  2  0
 29 30  1  0
 29 31  1  0
  6 32  1  0
 32 33  2  0
 33 34  1  0
 34 35  1  0
 33  3  1  0
 31  7  1  0
 28 11  1  0
 21 15  1  0
 28 23  1  0
  1 36  1  0
  1 37  1  0
  1 38  1  0
  4 39  1  0
  5 40  1  0
 10 41  1  0
 10 42  1  0
 14 43  1  0
 14 44  1  0
 16 45  1  0
 17 46  1  0
 19 47  1  0
 19 48  1  0
 19 49  1  0
 20 50  1  0
 21 51  1  0
 24 52  1  0
 25 53  1  0
 27 54  1  0
 30 55  1  0
 30 56  1  0
 30 57  1  0
 32 58  1  0
 35 59  1  0
 35 60  1  0
 35 61  1  0
M  END
$$$$
