
     RDKit          3D

 57 60  0  0  0  0  0  0  0  0999 V2000
   -3.8627    3.1140    0.3581 C   0  0  0  0  0  0  0  0  0  0  0  0
   -2.3814    3.0428    0.6989 C   0  0  0  0  0  0  0  0  0  0  0  0
   -1.9074    1.6227    1.0355 C   0  0  0  0  0  0  0  0  0  0  0  0
   -1.8414    0.5412   -0.4474 S   0  0  0  0  0  0  0  0  0  0  0  0
   -2.2704   -0.9732    0.3398 C   0  0  0  0  0  0  0  0  0  0  0  0
   -3.5241   -1.0609    0.6677 N   0  0  0  0  0  0  0  0  0  0  0  0
   -3.8830   -2.2627    1.2727 C   0  0  0  0  0  0  0  0  0  0  0  0
   -5.1910   -2.5645    1.7096 C   0  0  0  0  0  0  0  0  0  0  0  0
   -5.2474   -3.8345    2.2520 C   0  0  0  0  0  0  0  0  0  0  0  0
   -3.7158   -4.6206    2.2151 S   0  0  0  0  0  0  0  0  0  0  0  0
   -2.9931   -3.2712    1.4867 C   0  0  0  0  0  0  0  0  0  0  0  0
   -1.6104   -3.1725    1.1212 C   0  0  0  0  0  0  0  0  0  0  0  0
   -0.7905   -4.0723    1.2941 O   0  0  0  0  0  0  0  0  0  0  0  0
   -1.2831   -1.9418    0.5338 N   0  0  0  0  0  0  0  0  0  0  0  0
    0.1298   -1.7542    0.1894 C   0  0  0  0  0  0  0  0  0  0  0  0
    0.4318   -1.9649   -1.2822 C   0  0  0  0  0  0  0  0  0  0  0  0
    0.0882   -3.1602   -1.9314 C   0  0  0  0  0  0  0  0  0  0  0  0
    0.3864   -3.3485   -3.2850 C   0  0  0  0  0  0  0  0  0  0  0  0
    1.0458   -2.3472   -4.0050 C   0  0  0  0  0  0  0  0  0  0  0  0
    1.3884   -2.5011   -5.4380 C   0  0  0  0  0  0  0  0  0  0  0  0
    1.9820   -1.6888   -6.1204 O   0  0  0  0  0  0  0  0  0  0  0  0
    0.9684   -3.6668   -5.9518 O   0  0  0  0  0  0  0  0  0  0  0  0
    1.4123   -1.1612   -3.3599 C   0  0  0  0  0  0  0  0  0  0  0  0
    1.1126   -0.9750   -2.0078 C   0  0  0  0  0  0  0  0  0  0  0  0
   -0.5053    1.6170    1.6607 C   0  0  0  0  0  0  0  0  0  0  0  0
   -0.3003    1.0257    2.7194 O   0  0  0  0  0  0  0  0  0  0  0  0
    0.4554    2.2453    0.8813 N   0  0  0  0  0  0  0  0  0  0  0  0
    1.8259    2.4068    1.1647 C   0  0  0  0  0  0  0  0  0  0  0  0
    2.6167    2.9693    0.1587 C   0  0  0  0  0  0  0  0  0  0  0  0
    3.9855    3.1676    0.3538 C   0  0  0  0  0  0  0  0  0  0  0  0
    4.5976    2.8033    1.5599 C   0  0  0  0  0  0  0  0  0  0  0  0
    6.0666    3.0704    1.7361 C   0  0  0  0  0  0  0  0  0  0  0  0
    3.7948    2.2641    2.5749 C   0  0  0  0  0  0  0  0  0  0  0  0
    4.4506    1.8410    4.1175 Cl  0  0  0  0  0  0  0  0  0  0  0  0
    2.4228    2.0605    2.3753 C   0  0  0  0  0  0  0  0  0  0  0  0
   -4.0916    2.5840   -0.5698 H   0  0  0  0  0  0  0  0  0  0  0  0
   -4.1645    4.1590    0.2250 H   0  0  0  0  0  0  0  0  0  0  0  0
   -4.4739    2.6895    1.1598 H   0  0  0  0  0  0  0  0  0  0  0  0
   -1.8031    3.4757   -0.1252 H   0  0  0  0  0  0  0  0  0  0  0  0
   -2.1986    3.6889    1.5665 H   0  0  0  0  0  0  0  0  0  0  0  0
   -2.5925    1.1964    1.7775 H   0  0  0  0  0  0  0  0  0  0  0  0
   -6.0439   -1.9010    1.6311 H   0  0  0  0  0  0  0  0  0  0  0  0
   -6.1062   -4.3422    2.6669 H   0  0  0  0  0  0  0  0  0  0  0  0
    0.7689   -2.4356    0.7650 H   0  0  0  0  0  0  0  0  0  0  0  0
    0.4361   -0.7504    0.4969 H   0  0  0  0  0  0  0  0  0  0  0  0
   -0.4058   -3.9649   -1.3901 H   0  0  0  0  0  0  0  0  0  0  0  0
    0.1072   -4.2847   -3.7632 H   0  0  0  0  0  0  0  0  0  0  0  0
    1.2592   -3.6312   -6.8869 H   0  0  0  0  0  0  0  0  0  0  0  0
    1.9369   -0.3804   -3.9068 H   0  0  0  0  0  0  0  0  0  0  0  0
    1.4170   -0.0484   -1.5255 H   0  0  0  0  0  0  0  0  0  0  0  0
    0.1547    2.5526   -0.0369 H   0  0  0  0  0  0  0  0  0  0  0  0
    2.1827    3.2683   -0.7913 H   0  0  0  0  0  0  0  0  0  0  0  0
    4.5737    3.6164   -0.4440 H   0  0  0  0  0  0  0  0  0  0  0  0
    6.5863    3.0302    0.7714 H   0  0  0  0  0  0  0  0  0  0  0  0
    6.5473    2.3206    2.3744 H   0  0  0  0  0  0  0  0  0  0  0  0
    6.2146    4.0640    2.1660 H   0  0  0  0  0  0  0  0  0  0  0  0
    1.8412    1.6432    3.1916 H   0  0  0  0  0  0  0  0  0  0  0  0
  1  2  1  0
  2  3  1  0
  3  4  1  0
  4  5  1  0
  5  6  2  0
  6  7  1  0
  7  8  1  0
  8  9  2  0
  9 10  1  0
 10 11  1  0
 11 12  1  0
 12 13  2  0
 12 14  1  0
 14 15  1  0
 15 16  1  0
 16 17  2  0
 17 18  1  0
 18 19  2  0
 19 20  1  0
 20 21  2  0
 20 22  1  0
 19 23  1  0
 23 24  2  0
  3 25  1  0
 25 26  2  0
 25 27  1  0
 27 28  1  0
 28 29  2  0
 29 30  1  0
 30 31  2  0
 31 32  1  0
 31 33  1  0
 33 34  1  0
 33 35  2  0
 14  5  1  0
 24 16  1  0
 35 28  1  0
 11  7  2  0
  1 36  1  0
  1 37  1  0
  1 38  1  0
  2 39  1  0
  2 40  1  0
  3 41  1  0
  8 42  1  0
  9 43  1  0
 15 44  1  0
 15 45  1  0
 17 46  1  0
 18 47  1  0
 22 48  1  0
 23 49  1  0
 24 50  1  0
 27 51  1  0
 29 52  1  0
 30 53  1  0
 32 54  1  0
 32 55  1  0
 32 56  1  0
 35 57  1  0
M  END
$$$$
