
     RDKit          3D

 36 37  0  0  0  0  0  0  0  0999 V2000
   -3.3983    0.8023    1.9207 C   0  0  0  0  0  0  0  0  0  0  0  0
   -2.7329   -0.5058    1.5111 C   0  0  0  0  0  0  0  0  0  0  0  0
   -1.8450   -0.4006    0.3353 N   0  0  0  0  0  0  0  0  0  0  0  0
   -2.5902   -0.0164   -0.8907 C   0  0  0  0  0  0  0  0  0  0  0  0
   -2.4249    1.4800   -1.2005 C   0  0  0  0  0  0  0  0  0  0  0  0
   -1.0471    1.8112   -1.3424 O   0  0  0  0  0  0  0  0  0  0  0  0
   -1.1483   -1.6922    0.1535 C   0  0  0  0  0  0  0  0  0  0  0  0
    0.1108   -1.4949   -0.6490 C   0  0  0  0  0  0  0  0  0  0  0  0
    0.3000   -1.9923   -1.9242 C   0  0  0  0  0  0  0  0  0  0  0  0
    1.8308   -1.6187   -2.5652 S   0  0  0  0  0  0  0  0  0  0  0  0
    2.3066   -0.7850   -1.1386 C   0  0  0  0  0  0  0  0  0  0  0  0
    3.5456   -0.1533   -0.9042 C   0  0  0  0  0  0  0  0  0  0  0  0
    3.7780    0.4787    0.3250 C   0  0  0  0  0  0  0  0  0  0  0  0
    5.0781    1.1866    0.5721 C   0  0  0  0  0  0  0  0  0  0  0  0
    2.7723    0.4965    1.2874 C   0  0  0  0  0  0  0  0  0  0  0  0
    1.5451   -0.1318    1.0494 C   0  0  0  0  0  0  0  0  0  0  0  0
    1.2909   -0.7919   -0.1797 C   0  0  0  0  0  0  0  0  0  0  0  0
   -4.1520    1.1193    1.1942 H   0  0  0  0  0  0  0  0  0  0  0  0
   -2.6601    1.6021    2.0395 H   0  0  0  0  0  0  0  0  0  0  0  0
   -3.9079    0.6747    2.8817 H   0  0  0  0  0  0  0  0  0  0  0  0
   -2.1369   -0.8305    2.3740 H   0  0  0  0  0  0  0  0  0  0  0  0
   -3.5027   -1.2717    1.3512 H   0  0  0  0  0  0  0  0  0  0  0  0
   -3.6526   -0.2799   -0.8226 H   0  0  0  0  0  0  0  0  0  0  0  0
   -2.2019   -0.5567   -1.7624 H   0  0  0  0  0  0  0  0  0  0  0  0
   -2.9286    1.7259   -2.1405 H   0  0  0  0  0  0  0  0  0  0  0  0
   -2.8473    2.1160   -0.4195 H   0  0  0  0  0  0  0  0  0  0  0  0
   -0.5862    1.2936   -0.6516 H   0  0  0  0  0  0  0  0  0  0  0  0
   -1.8073   -2.4399   -0.3069 H   0  0  0  0  0  0  0  0  0  0  0  0
   -0.8389   -2.1079    1.1222 H   0  0  0  0  0  0  0  0  0  0  0  0
   -0.4017   -2.5592   -2.5203 H   0  0  0  0  0  0  0  0  0  0  0  0
    4.3103   -0.1587   -1.6767 H   0  0  0  0  0  0  0  0  0  0  0  0
    5.0092    2.2246    0.2326 H   0  0  0  0  0  0  0  0  0  0  0  0
    5.3314    1.1784    1.6375 H   0  0  0  0  0  0  0  0  0  0  0  0
    5.8985    0.6934    0.0402 H   0  0  0  0  0  0  0  0  0  0  0  0
    2.9287    1.0041    2.2369 H   0  0  0  0  0  0  0  0  0  0  0  0
    0.7746   -0.0997    1.8160 H   0  0  0  0  0  0  0  0  0  0  0  0
  1  2  1  0
  2  3  1  0
  3  4  1  0
  4  5  1  0
  5  6  1  0
  3  7  1  0
  7  8  1  0
  8  9  2  0
  9 10  1  0
 10 11  1  0
 11 12  2  0
 12 13  1  0
 13 14  1  0
 13 15  2  0
 15 16  1  0
 16 17  2  0
 17  8  1  0
 17 11  1  0
  1 18  1  0
  1 19  1  0
  1 20  1  0
  2 21  1  0
  2 22  1  0
  4 23  1  0
  4 24  1  0
  5 25  1  0
  5 26  1  0
  6 27  1  0
  7 28  1  0
  7 29  1  0
  9 30  1  0
 12 31  1  0
 14 32  1  0
 14 33  1  0
 14 34  1  0
 15 35  1  0
 16 36  1  0
M  END
$$$$
