
     RDKit          3D

 53 52  0  0  0  0  0  0  0  0999 V2000
   -7.7106    1.5328   -0.3992 C   0  0  0  0  0  0  0  0  0  0  0  0
   -6.1728    1.5125   -0.4224 C   0  0  0  0  0  0  0  0  0  0  0  0
   -5.6294    1.9847    0.9315 C   0  0  0  0  0  0  0  0  0  0  0  0
   -5.6609    2.3643   -1.6062 C   0  0  0  0  0  0  0  0  0  0  0  0
   -4.1451    2.4710   -1.7412 C   0  0  0  0  0  0  0  0  0  0  0  0
   -3.5170    1.1816   -1.9442 N   0  0  0  0  0  0  0  0  0  0  0  0
   -2.2889    1.0978   -2.5858 C   0  0  0  0  0  0  0  0  0  0  0  0
   -1.7195    2.0439   -3.1214 O   0  0  0  0  0  0  0  0  0  0  0  0
   -1.6679   -0.2795   -2.5481 C   0  0  0  0  0  0  0  0  0  0  0  0
   -0.5542   -0.3371   -1.5070 C   0  0  0  0  0  0  0  0  0  0  0  0
   -1.2299   -0.4440    0.1929 S   0  0  0  0  0  0  0  0  0  0  0  0
    0.2762   -0.0030    1.1430 C   0  0  0  0  0  0  0  0  0  0  0  0
    1.3316   -1.1008    1.0829 C   0  0  0  0  0  0  0  0  0  0  0  0
    2.5517   -0.7272    1.9010 C   0  0  0  0  0  0  0  0  0  0  0  0
    2.6504    0.3168    2.5378 O   0  0  0  0  0  0  0  0  0  0  0  0
    3.5461   -1.6844    1.8312 N   0  0  0  0  0  0  0  0  0  0  0  0
    4.7784   -1.5402    2.5876 C   0  0  0  0  0  0  0  0  0  0  0  0
    5.9177   -2.3999    2.0239 C   0  0  0  0  0  0  0  0  0  0  0  0
    6.5304   -1.9545    0.6805 C   0  0  0  0  0  0  0  0  0  0  0  0
    5.5541   -2.0488   -0.4895 C   0  0  0  0  0  0  0  0  0  0  0  0
    7.1358   -0.5526    0.7616 C   0  0  0  0  0  0  0  0  0  0  0  0
   -8.1023    0.8557    0.3665 H   0  0  0  0  0  0  0  0  0  0  0  0
   -8.1153    1.2079   -1.3650 H   0  0  0  0  0  0  0  0  0  0  0  0
   -8.0957    2.5325   -0.1895 H   0  0  0  0  0  0  0  0  0  0  0  0
   -5.8595    0.4731   -0.5764 H   0  0  0  0  0  0  0  0  0  0  0  0
   -6.0778    1.4140    1.7580 H   0  0  0  0  0  0  0  0  0  0  0  0
   -5.8493    3.0436    1.0999 H   0  0  0  0  0  0  0  0  0  0  0  0
   -4.5442    1.8427    0.9927 H   0  0  0  0  0  0  0  0  0  0  0  0
   -6.0637    3.3821   -1.5229 H   0  0  0  0  0  0  0  0  0  0  0  0
   -6.0635    1.9525   -2.5384 H   0  0  0  0  0  0  0  0  0  0  0  0
   -3.6933    2.9258   -0.8504 H   0  0  0  0  0  0  0  0  0  0  0  0
   -3.9046    3.1284   -2.5923 H   0  0  0  0  0  0  0  0  0  0  0  0
   -3.6935    0.4671   -1.2499 H   0  0  0  0  0  0  0  0  0  0  0  0
   -1.2519   -0.4655   -3.5481 H   0  0  0  0  0  0  0  0  0  0  0  0
   -2.4304   -1.0568   -2.3832 H   0  0  0  0  0  0  0  0  0  0  0  0
    0.0921    0.5451   -1.5876 H   0  0  0  0  0  0  0  0  0  0  0  0
    0.0524   -1.2303   -1.6815 H   0  0  0  0  0  0  0  0  0  0  0  0
   -0.0332    0.1648    2.1854 H   0  0  0  0  0  0  0  0  0  0  0  0
    0.6726    0.9532    0.7691 H   0  0  0  0  0  0  0  0  0  0  0  0
    0.9279   -2.0444    1.4769 H   0  0  0  0  0  0  0  0  0  0  0  0
    1.6692   -1.2668    0.0510 H   0  0  0  0  0  0  0  0  0  0  0  0
    3.2996   -2.6058    1.4922 H   0  0  0  0  0  0  0  0  0  0  0  0
    5.0648   -0.4840    2.6459 H   0  0  0  0  0  0  0  0  0  0  0  0
    4.5475   -1.8647    3.6105 H   0  0  0  0  0  0  0  0  0  0  0  0
    5.5726   -3.4402    1.9293 H   0  0  0  0  0  0  0  0  0  0  0  0
    6.7283   -2.4140    2.7620 H   0  0  0  0  0  0  0  0  0  0  0  0
    7.3560   -2.6526    0.4655 H   0  0  0  0  0  0  0  0  0  0  0  0
    5.0589   -3.0242   -0.5111 H   0  0  0  0  0  0  0  0  0  0  0  0
    6.0872   -1.9215   -1.4391 H   0  0  0  0  0  0  0  0  0  0  0  0
    4.7824   -1.2742   -0.4428 H   0  0  0  0  0  0  0  0  0  0  0  0
    7.7078   -0.3249   -0.1451 H   0  0  0  0  0  0  0  0  0  0  0  0
    6.3624    0.2209    0.8678 H   0  0  0  0  0  0  0  0  0  0  0  0
    7.8200   -0.4730    1.6092 H   0  0  0  0  0  0  0  0  0  0  0  0
  1  2  1  0
  2  3  1  0
  2  4  1  0
  4  5  1  0
  5  6  1  0
  6  7  1  0
  7  8  2  0
  7  9  1  0
  9 10  1  0
 10 11  1  0
 11 12  1  0
 12 13  1  0
 13 14  1  0
 14 15  2  0
 14 16  1  0
 16 17  1  0
 17 18  1  0
 18 19  1  0
 19 20  1  0
 19 21  1  0
  1 22  1  0
  1 23  1  0
  1 24  1  0
  2 25  1  0
  3 26  1  0
  3 27  1  0
  3 28  1  0
  4 29  1  0
  4 30  1  0
  5 31  1  0
  5 32  1  0
  6 33  1  0
  9 34  1  0
  9 35  1  0
 10 36  1  0
 10 37  1  0
 12 38  1  0
 12 39  1  0
 13 40  1  0
 13 41  1  0
 16 42  1  0
 17 43  1  0
 17 44  1  0
 18 45  1  0
 18 46  1  0
 19 47  1  0
 20 48  1  0
 20 49  1  0
 20 50  1  0
 21 51  1  0
 21 52  1  0
 21 53  1  0
M  END
$$$$
