
     RDKit          3D

 45 47  0  0  0  0  0  0  0  0999 V2000
   -3.3634    2.4583   -0.1990 O   0  0  0  0  0  0  0  0  0  0  0  0
   -3.0227    1.2830   -0.0712 C   0  0  0  0  0  0  0  0  0  0  0  0
   -4.0241    0.1340   -0.0520 C   0  0  0  0  0  0  0  0  0  0  0  0
   -5.4671    0.5565   -0.2087 C   0  0  0  0  0  0  0  0  0  0  0  0
   -6.0428    0.6593   -1.4837 C   0  0  0  0  0  0  0  0  0  0  0  0
   -7.3728    1.0606   -1.6288 C   0  0  0  0  0  0  0  0  0  0  0  0
   -8.1309    1.3666   -0.5010 C   0  0  0  0  0  0  0  0  0  0  0  0
   -9.7698    1.8598   -0.6804 Cl  0  0  0  0  0  0  0  0  0  0  0  0
   -7.5701    1.2779    0.7709 C   0  0  0  0  0  0  0  0  0  0  0  0
   -6.2402    0.8766    0.9171 C   0  0  0  0  0  0  0  0  0  0  0  0
   -1.6038    0.9335    0.0723 C   0  0  0  0  0  0  0  0  0  0  0  0
   -0.5646    1.8454    0.0644 C   0  0  0  0  0  0  0  0  0  0  0  0
    0.6165    1.1704    0.2080 N   0  0  0  0  0  0  0  0  0  0  0  0
    0.3791   -0.1798    0.3380 C   0  0  0  0  0  0  0  0  0  0  0  0
    1.3764   -1.2177    0.5013 C   0  0  0  0  0  0  0  0  0  0  0  0
    1.1387   -2.4043    0.3040 O   0  0  0  0  0  0  0  0  0  0  0  0
    2.6175   -0.7725    0.9135 N   0  0  0  0  0  0  0  0  0  0  0  0
    3.6688   -1.7078    1.2668 C   0  0  0  0  0  0  0  0  0  0  0  0
    4.2624   -2.4641    0.0763 C   0  0  0  0  0  0  0  0  0  0  0  0
    4.7804   -1.5670   -1.0479 C   0  0  0  0  0  0  0  0  0  0  0  0
    5.8047   -0.6351   -0.6272 N   0  0  0  0  0  0  0  0  0  0  0  0
    5.6751    0.7222   -0.5313 C   0  0  0  0  0  0  0  0  0  0  0  0
    6.9003    1.1634   -0.0886 C   0  0  0  0  0  0  0  0  0  0  0  0
    7.7633    0.1118    0.0792 N   0  0  0  0  0  0  0  0  0  0  0  0
    7.0825   -0.9563   -0.2698 C   0  0  0  0  0  0  0  0  0  0  0  0
   -0.9950   -0.3436    0.2346 C   0  0  0  0  0  0  0  0  0  0  0  0
   -3.9137   -0.4097    0.8945 H   0  0  0  0  0  0  0  0  0  0  0  0
   -3.7691   -0.5653   -0.8579 H   0  0  0  0  0  0  0  0  0  0  0  0
   -5.4585    0.4350   -2.3736 H   0  0  0  0  0  0  0  0  0  0  0  0
   -7.8075    1.1381   -2.6216 H   0  0  0  0  0  0  0  0  0  0  0  0
   -8.1586    1.5248    1.6502 H   0  0  0  0  0  0  0  0  0  0  0  0
   -5.8110    0.8233    1.9154 H   0  0  0  0  0  0  0  0  0  0  0  0
   -0.5793    2.9233   -0.0462 H   0  0  0  0  0  0  0  0  0  0  0  0
    1.5307    1.6022    0.1866 H   0  0  0  0  0  0  0  0  0  0  0  0
    2.6504    0.1226    1.3798 H   0  0  0  0  0  0  0  0  0  0  0  0
    3.2589   -2.4238    1.9886 H   0  0  0  0  0  0  0  0  0  0  0  0
    4.4471   -1.1353    1.7825 H   0  0  0  0  0  0  0  0  0  0  0  0
    3.5127   -3.1424   -0.3470 H   0  0  0  0  0  0  0  0  0  0  0  0
    5.0767   -3.1000    0.4455 H   0  0  0  0  0  0  0  0  0  0  0  0
    3.9631   -0.9923   -1.4983 H   0  0  0  0  0  0  0  0  0  0  0  0
    5.2182   -2.1811   -1.8437 H   0  0  0  0  0  0  0  0  0  0  0  0
    4.7635    1.2451   -0.7808 H   0  0  0  0  0  0  0  0  0  0  0  0
    7.2093    2.1807    0.1144 H   0  0  0  0  0  0  0  0  0  0  0  0
    7.4614   -1.9704   -0.2750 H   0  0  0  0  0  0  0  0  0  0  0  0
   -1.4925   -1.3060    0.2794 H   0  0  0  0  0  0  0  0  0  0  0  0
  1  2  2  0
  2  3  1  0
  3  4  1  0
  4  5  2  0
  5  6  1  0
  6  7  2  0
  7  8  1  0
  7  9  1  0
  9 10  2  0
  2 11  1  0
 11 12  2  0
 12 13  1  0
 13 14  1  0
 14 15  1  0
 15 16  2  0
 15 17  1  0
 17 18  1  0
 18 19  1  0
 19 20  1  0
 20 21  1  0
 21 22  1  0
 22 23  2  0
 23 24  1  0
 24 25  2  0
 14 26  2  0
 10  4  1  0
 26 11  1  0
 25 21  1  0
  3 27  1  0
  3 28  1  0
  5 29  1  0
  6 30  1  0
  9 31  1  0
 10 32  1  0
 12 33  1  0
 13 34  1  0
 17 35  1  0
 18 36  1  0
 18 37  1  0
 19 38  1  0
 19 39  1  0
 20 40  1  0
 20 41  1  0
 22 42  1  0
 23 43  1  0
 25 44  1  0
 26 45  1  0
M  END
$$$$
