
     RDKit          3D

 67 72  0  0  0  0  0  0  0  0999 V2000
    3.1230    1.3651   -1.5530 O   0  0  0  0  0  0  0  0  0  0  0  0
    2.6364    1.1799   -0.4339 C   0  0  0  0  0  0  0  0  0  0  0  0
    3.5320    1.1870    0.8159 C   0  0  0  0  0  0  0  0  0  0  0  0
    4.0349   -0.2307    1.1582 C   0  0  0  0  0  0  0  0  0  0  0  0
    5.0540   -0.7841    0.1911 C   0  0  0  0  0  0  0  0  0  0  0  0
    4.7403   -1.8923   -0.6070 C   0  0  0  0  0  0  0  0  0  0  0  0
    5.6781   -2.4119   -1.5000 C   0  0  0  0  0  0  0  0  0  0  0  0
    6.9411   -1.8332   -1.6002 C   0  0  0  0  0  0  0  0  0  0  0  0
    7.2678   -0.7364   -0.8053 C   0  0  0  0  0  0  0  0  0  0  0  0
    6.3304   -0.2146    0.0881 C   0  0  0  0  0  0  0  0  0  0  0  0
    2.8235    1.7674    1.9566 N   0  0  0  0  0  0  0  0  0  0  0  0
    1.5569    1.2259    2.1710 C   0  0  0  0  0  0  0  0  0  0  0  0
    1.2208    1.1347    3.4649 N   0  0  0  0  0  0  0  0  0  0  0  0
   -0.0070    0.6899    3.7107 C   0  0  0  0  0  0  0  0  0  0  0  0
   -0.9262    0.3941    2.7895 N   0  0  0  0  0  0  0  0  0  0  0  0
   -0.5921    0.5385    1.4888 C   0  0  0  0  0  0  0  0  0  0  0  0
   -1.6476    0.4234    0.5679 N   0  0  0  0  0  0  0  0  0  0  0  0
   -2.1665    1.7645    0.1635 C   0  0  0  0  0  0  0  0  0  0  0  0
   -3.2006    2.3480    1.1538 C   0  0  0  0  0  0  0  0  0  0  0  0
   -4.3100    1.4037    1.4030 N   0  0  0  0  0  0  0  0  0  0  0  0
   -5.4397    1.3805    0.5842 C   0  0  0  0  0  0  0  0  0  0  0  0
   -6.5755    0.6422    0.9626 C   0  0  0  0  0  0  0  0  0  0  0  0
   -7.7349    0.5989    0.1789 C   0  0  0  0  0  0  0  0  0  0  0  0
   -7.7965    1.3134   -1.0096 C   0  0  0  0  0  0  0  0  0  0  0  0
   -6.7042    2.0767   -1.4001 C   0  0  0  0  0  0  0  0  0  0  0  0
   -5.5488    2.1144   -0.6072 C   0  0  0  0  0  0  0  0  0  0  0  0
   -3.8045    0.1043    1.9131 C   0  0  0  0  0  0  0  0  0  0  0  0
   -2.7445   -0.5052    0.9613 C   0  0  0  0  0  0  0  0  0  0  0  0
    0.7196    0.8697    1.1014 C   0  0  0  0  0  0  0  0  0  0  0  0
    1.2782    0.8744   -0.2355 N   0  0  0  0  0  0  0  0  0  0  0  0
    0.5606    0.4333   -1.4241 C   0  0  0  0  0  0  0  0  0  0  0  0
    0.8765   -1.0035   -1.8008 C   0  0  0  0  0  0  0  0  0  0  0  0
    1.7510   -1.2785   -2.8648 C   0  0  0  0  0  0  0  0  0  0  0  0
    2.0510   -2.5952   -3.2209 C   0  0  0  0  0  0  0  0  0  0  0  0
    1.4835   -3.6484   -2.5104 C   0  0  0  0  0  0  0  0  0  0  0  0
    1.8649   -5.2708   -2.9359 Cl  0  0  0  0  0  0  0  0  0  0  0  0
    0.6174   -3.3957   -1.4493 C   0  0  0  0  0  0  0  0  0  0  0  0
    0.3155   -2.0777   -1.0962 C   0  0  0  0  0  0  0  0  0  0  0  0
    4.3771    1.8520    0.6007 H   0  0  0  0  0  0  0  0  0  0  0  0
    3.1903   -0.9285    1.2306 H   0  0  0  0  0  0  0  0  0  0  0  0
    4.4962   -0.2293    2.1554 H   0  0  0  0  0  0  0  0  0  0  0  0
    3.7607   -2.3605   -0.5421 H   0  0  0  0  0  0  0  0  0  0  0  0
    5.4203   -3.2687   -2.1171 H   0  0  0  0  0  0  0  0  0  0  0  0
    7.6708   -2.2371   -2.2968 H   0  0  0  0  0  0  0  0  0  0  0  0
    8.2540   -0.2861   -0.8813 H   0  0  0  0  0  0  0  0  0  0  0  0
    6.6084    0.6384    0.7027 H   0  0  0  0  0  0  0  0  0  0  0  0
    3.3238    1.7939    2.8401 H   0  0  0  0  0  0  0  0  0  0  0  0
   -0.2946    0.5756    4.7500 H   0  0  0  0  0  0  0  0  0  0  0  0
   -1.3503    2.4841    0.0229 H   0  0  0  0  0  0  0  0  0  0  0  0
   -2.6350    1.6426   -0.8202 H   0  0  0  0  0  0  0  0  0  0  0  0
   -3.5657    3.3212    0.8072 H   0  0  0  0  0  0  0  0  0  0  0  0
   -2.7060    2.5500    2.1123 H   0  0  0  0  0  0  0  0  0  0  0  0
   -6.5903    0.1099    1.9101 H   0  0  0  0  0  0  0  0  0  0  0  0
   -8.5905    0.0180    0.5113 H   0  0  0  0  0  0  0  0  0  0  0  0
   -8.6946    1.2875   -1.6198 H   0  0  0  0  0  0  0  0  0  0  0  0
   -6.7461    2.6520   -2.3213 H   0  0  0  0  0  0  0  0  0  0  0  0
   -4.7332    2.7324   -0.9651 H   0  0  0  0  0  0  0  0  0  0  0  0
   -3.3778    0.2794    2.9060 H   0  0  0  0  0  0  0  0  0  0  0  0
   -4.5970   -0.6341    2.0693 H   0  0  0  0  0  0  0  0  0  0  0  0
   -3.2488   -0.8088    0.0349 H   0  0  0  0  0  0  0  0  0  0  0  0
   -2.3340   -1.4258    1.3953 H   0  0  0  0  0  0  0  0  0  0  0  0
    0.8537    1.0857   -2.2581 H   0  0  0  0  0  0  0  0  0  0  0  0
   -0.5139    0.5676   -1.3767 H   0  0  0  0  0  0  0  0  0  0  0  0
    2.2187   -0.4630   -3.4158 H   0  0  0  0  0  0  0  0  0  0  0  0
    2.7346   -2.7861   -4.0436 H   0  0  0  0  0  0  0  0  0  0  0  0
    0.1739   -4.2171   -0.8933 H   0  0  0  0  0  0  0  0  0  0  0  0
   -0.3633   -1.8966   -0.2679 H   0  0  0  0  0  0  0  0  0  0  0  0
  1  2  2  0
  2  3  1  0
  3  4  1  0
  4  5  1  0
  5  6  2  0
  6  7  1  0
  7  8  2  0
  8  9  1  0
  9 10  2  0
  3 11  1  0
 11 12  1  0
 12 13  2  0
 13 14  1  0
 14 15  2  0
 15 16  1  0
 16 17  1  0
 17 18  1  0
 18 19  1  0
 19 20  1  0
 20 21  1  0
 21 22  2  0
 22 23  1  0
 23 24  2  0
 24 25  1  0
 25 26  2  0
 20 27  1  0
 27 28  1  0
 16 29  2  0
 29 30  1  0
 30 31  1  0
 31 32  1  0
 32 33  2  0
 33 34  1  0
 34 35  2  0
 35 36  1  0
 35 37  1  0
 37 38  2  0
 30  2  1  0
 38 32  1  0
 10  5  1  0
 29 12  1  0
 28 17  1  0
 26 21  1  0
  3 39  1  0
  4 40  1  0
  4 41  1  0
  6 42  1  0
  7 43  1  0
  8 44  1  0
  9 45  1  0
 10 46  1  0
 11 47  1  0
 14 48  1  0
 18 49  1  0
 18 50  1  0
 19 51  1  0
 19 52  1  0
 22 53  1  0
 23 54  1  0
 24 55  1  0
 25 56  1  0
 26 57  1  0
 27 58  1  0
 27 59  1  0
 28 60  1  0
 28 61  1  0
 31 62  1  0
 31 63  1  0
 33 64  1  0
 34 65  1  0
 37 66  1  0
 38 67  1  0
M  END
$$$$
