
     RDKit          3D

 40 42  0  0  0  0  0  0  0  0999 V2000
   -6.9271   -0.0221    1.5296 C   0  0  0  0  0  0  0  0  0  0  0  0
   -6.0807    1.1057    0.4449 S   0  0  0  0  0  6  0  0  0  0  0  0
   -7.0801    1.9376   -0.1915 O   0  0  0  0  0  0  0  0  0  0  0  0
   -4.9549    1.6831    1.1441 O   0  0  0  0  0  0  0  0  0  0  0  0
   -5.5412    0.0508   -0.7682 N   0  0  0  0  0  0  0  0  0  0  0  0
   -4.1685   -0.3274   -0.7234 C   0  0  0  0  0  0  0  0  0  0  0  0
   -3.7823   -1.4278    0.0403 C   0  0  0  0  0  0  0  0  0  0  0  0
   -2.4309   -1.7678    0.1328 C   0  0  0  0  0  0  0  0  0  0  0  0
   -1.4643   -0.9895   -0.5165 C   0  0  0  0  0  0  0  0  0  0  0  0
   -0.0328   -1.3797   -0.3870 C   0  0  0  0  0  0  0  0  0  0  0  0
    0.2384   -2.5734   -0.3556 O   0  0  0  0  0  0  0  0  0  0  0  0
    0.8472   -0.3189   -0.2776 N   0  0  0  0  0  0  0  0  0  0  0  0
    2.2540   -0.3798   -0.1859 C   0  0  0  0  0  0  0  0  0  0  0  0
    2.9918   -1.5625   -0.2841 C   0  0  0  0  0  0  0  0  0  0  0  0
    4.3887   -1.5392   -0.1968 C   0  0  0  0  0  0  0  0  0  0  0  0
    5.0560   -0.3323   -0.0162 C   0  0  0  0  0  0  0  0  0  0  0  0
    4.3259    0.8513    0.1068 C   0  0  0  0  0  0  0  0  0  0  0  0
    2.9341    0.8301    0.0065 C   0  0  0  0  0  0  0  0  0  0  0  0
    4.9090    2.0754    0.3185 O   0  0  0  0  0  0  0  0  0  0  0  0
    6.2700    1.9360    0.7443 C   0  0  0  0  0  0  0  0  0  0  0  0
    7.0006    0.9194   -0.1175 C   0  0  0  0  0  0  0  0  0  0  0  0
    6.4247   -0.3824    0.0381 O   0  0  0  0  0  0  0  0  0  0  0  0
   -1.8582    0.1139   -1.2856 C   0  0  0  0  0  0  0  0  0  0  0  0
   -3.2119    0.4481   -1.3812 C   0  0  0  0  0  0  0  0  0  0  0  0
   -6.2039   -0.7159    1.9607 H   0  0  0  0  0  0  0  0  0  0  0  0
   -7.3941    0.5642    2.3241 H   0  0  0  0  0  0  0  0  0  0  0  0
   -7.6938   -0.5531    0.9625 H   0  0  0  0  0  0  0  0  0  0  0  0
   -5.8631    0.4057   -1.6715 H   0  0  0  0  0  0  0  0  0  0  0  0
   -4.5222   -2.0342    0.5538 H   0  0  0  0  0  0  0  0  0  0  0  0
   -2.1296   -2.6354    0.7172 H   0  0  0  0  0  0  0  0  0  0  0  0
    0.4434    0.6043   -0.1815 H   0  0  0  0  0  0  0  0  0  0  0  0
    2.5112   -2.5239   -0.4371 H   0  0  0  0  0  0  0  0  0  0  0  0
    4.9506   -2.4653   -0.2821 H   0  0  0  0  0  0  0  0  0  0  0  0
    2.3937    1.7682    0.0940 H   0  0  0  0  0  0  0  0  0  0  0  0
    6.2762    1.6448    1.8020 H   0  0  0  0  0  0  0  0  0  0  0  0
    6.7463    2.9175    0.6578 H   0  0  0  0  0  0  0  0  0  0  0  0
    6.9634    1.1925   -1.1794 H   0  0  0  0  0  0  0  0  0  0  0  0
    8.0514    0.8551    0.1818 H   0  0  0  0  0  0  0  0  0  0  0  0
   -1.1288    0.7092   -1.8284 H   0  0  0  0  0  0  0  0  0  0  0  0
   -3.5083    1.3182   -1.9612 H   0  0  0  0  0  0  0  0  0  0  0  0
  1  2  1  0
  2  3  2  0
  2  4  2  0
  2  5  1  0
  5  6  1  0
  6  7  2  0
  7  8  1  0
  8  9  2  0
  9 10  1  0
 10 11  2  0
 10 12  1  0
 12 13  1  0
 13 14  2  0
 14 15  1  0
 15 16  2  0
 16 17  1  0
 17 18  2  0
 17 19  1  0
 19 20  1  0
 20 21  1  0
 21 22  1  0
  9 23  1  0
 23 24  2  0
 24  6  1  0
 18 13  1  0
 22 16  1  0
  1 25  1  0
  1 26  1  0
  1 27  1  0
  5 28  1  0
  7 29  1  0
  8 30  1  0
 12 31  1  0
 14 32  1  0
 15 33  1  0
 18 34  1  0
 20 35  1  0
 20 36  1  0
 21 37  1  0
 21 38  1  0
 23 39  1  0
 24 40  1  0
M  END
$$$$
