
     RDKit          3D

 36 38  0  0  0  0  0  0  0  0999 V2000
   -2.1037    3.3896    1.0743 C   0  0  0  0  0  0  0  0  0  0  0  0
   -2.3051    2.1194    0.4556 O   0  0  0  0  0  0  0  0  0  0  0  0
   -1.1650    1.3810    0.3141 C   0  0  0  0  0  0  0  0  0  0  0  0
   -0.0568    1.7580    0.6808 O   0  0  0  0  0  0  0  0  0  0  0  0
   -1.4031    0.0864   -0.3190 C   0  0  0  0  0  0  0  0  0  0  0  0
   -0.3946   -0.8555   -0.5458 C   0  0  0  0  0  0  0  0  0  0  0  0
    0.9447   -0.7180   -0.2258 N   0  0  0  0  0  0  0  0  0  0  0  0
    1.9739   -1.6175   -0.4289 C   0  0  0  0  0  0  0  0  0  0  0  0
    1.9103   -2.7306   -0.9373 O   0  0  0  0  0  0  0  0  0  0  0  0
    3.2608   -1.0815    0.0577 C   0  0  0  0  0  0  0  0  0  0  0  0
    4.5269   -1.7215    0.0154 C   0  0  0  0  0  0  0  0  0  0  0  0
    5.4067   -0.8308    0.5818 C   0  0  0  0  0  0  0  0  0  0  0  0
    4.6651    0.2586    0.9254 N   0  0  0  0  0  0  0  0  0  0  0  0
    5.1392    1.4672    1.5555 C   0  0  0  0  0  0  0  0  0  0  0  0
    3.3594    0.1408    0.6222 N   0  0  0  0  0  0  0  0  0  0  0  0
   -0.9774   -2.2868   -1.2934 S   0  0  0  0  0  0  0  0  0  0  0  0
   -2.5274   -1.6806   -1.3248 C   0  0  0  0  0  0  0  0  0  0  0  0
   -2.6450   -0.4274   -0.7949 C   0  0  0  0  0  0  0  0  0  0  0  0
   -4.0549    0.0406   -0.8600 C   0  0  0  0  0  0  0  0  0  0  0  0
   -4.7094   -0.9954   -1.8272 C   0  0  0  0  0  0  0  0  0  0  0  0
   -3.7969   -2.2583   -1.8204 C   0  0  0  0  0  0  0  0  0  0  0  0
   -1.4312    4.0081    0.4717 H   0  0  0  0  0  0  0  0  0  0  0  0
   -1.7130    3.2649    2.0891 H   0  0  0  0  0  0  0  0  0  0  0  0
   -3.0725    3.8929    1.1368 H   0  0  0  0  0  0  0  0  0  0  0  0
    1.2323    0.1579    0.2188 H   0  0  0  0  0  0  0  0  0  0  0  0
    4.7468   -2.7036   -0.3805 H   0  0  0  0  0  0  0  0  0  0  0  0
    6.4712   -0.8850    0.7621 H   0  0  0  0  0  0  0  0  0  0  0  0
    4.6162    1.5870    2.5076 H   0  0  0  0  0  0  0  0  0  0  0  0
    6.2155    1.3898    1.7279 H   0  0  0  0  0  0  0  0  0  0  0  0
    4.9269    2.3082    0.8907 H   0  0  0  0  0  0  0  0  0  0  0  0
   -4.5214   -0.0113    0.1293 H   0  0  0  0  0  0  0  0  0  0  0  0
   -4.1502    1.0552   -1.2561 H   0  0  0  0  0  0  0  0  0  0  0  0
   -4.7270   -0.5736   -2.8410 H   0  0  0  0  0  0  0  0  0  0  0  0
   -5.7428   -1.2267   -1.5507 H   0  0  0  0  0  0  0  0  0  0  0  0
   -3.7154   -2.6940   -2.8198 H   0  0  0  0  0  0  0  0  0  0  0  0
   -4.1831   -3.0075   -1.1218 H   0  0  0  0  0  0  0  0  0  0  0  0
  1  2  1  0
  2  3  1  0
  3  4  2  0
  3  5  1  0
  5  6  2  0
  6  7  1  0
  7  8  1  0
  8  9  2  0
  8 10  1  0
 10 11  1  0
 11 12  2  0
 12 13  1  0
 13 14  1  0
 13 15  1  0
  6 16  1  0
 16 17  1  0
 17 18  2  0
 18 19  1  0
 19 20  1  0
 20 21  1  0
 18  5  1  0
 15 10  2  0
 21 17  1  0
  1 22  1  0
  1 23  1  0
  1 24  1  0
  7 25  1  0
 11 26  1  0
 12 27  1  0
 14 28  1  0
 14 29  1  0
 14 30  1  0
 19 31  1  0
 19 32  1  0
 20 33  1  0
 20 34  1  0
 21 35  1  0
 21 36  1  0
M  END
$$$$
