
     RDKit          3D

 55 60  0  0  0  0  0  0  0  0999 V2000
   -4.5892    0.3703    1.9235 O   0  0  0  0  0  0  0  0  0  0  0  0
   -4.0729    0.8729    0.9260 C   0  0  0  0  0  0  0  0  0  0  0  0
   -4.8137    1.8507    0.1425 C   0  0  0  0  0  0  0  0  0  0  0  0
   -6.2279    1.9103   -0.0410 C   0  0  0  0  0  0  0  0  0  0  0  0
   -6.4813    3.0177   -0.8138 C   0  0  0  0  0  0  0  0  0  0  0  0
   -5.3248    3.6669   -1.0992 O   0  0  0  0  0  0  0  0  0  0  0  0
   -4.3241    2.9711   -0.5000 C   0  0  0  0  0  0  0  0  0  0  0  0
   -2.7788    0.5253    0.5279 N   0  0  0  0  0  0  0  0  0  0  0  0
   -2.2542    0.6843   -0.8288 C   0  0  0  0  0  0  0  0  0  0  0  0
   -1.4219   -0.5267   -1.2435 C   0  0  0  0  0  0  0  0  0  0  0  0
   -0.2061   -0.7896   -0.3006 C   0  0  0  0  0  0  0  0  0  0  0  0
   -0.5059   -0.2044    1.1080 C   0  0  0  0  0  0  0  0  0  0  0  0
   -1.9903   -0.2907    1.4436 C   0  0  0  0  0  0  0  0  0  0  0  0
   -0.1004   -2.2217   -0.0745 O   0  0  0  0  0  0  0  0  0  0  0  0
    0.3958   -2.9624   -1.1088 C   0  0  0  0  0  0  0  0  0  0  0  0
    0.1362   -4.3330   -1.0624 C   0  0  0  0  0  0  0  0  0  0  0  0
    0.5924   -5.1633   -2.0873 C   0  0  0  0  0  0  0  0  0  0  0  0
    1.3094   -4.6173   -3.1473 C   0  0  0  0  0  0  0  0  0  0  0  0
    1.7444   -5.4178   -4.1281 F   0  0  0  0  0  0  0  0  0  0  0  0
    1.5882   -3.2577   -3.1990 C   0  0  0  0  0  0  0  0  0  0  0  0
    1.1345   -2.4332   -2.1660 C   0  0  0  0  0  0  0  0  0  0  0  0
    1.4522   -0.9941   -2.1658 C   0  0  0  0  0  0  0  0  0  0  0  0
    1.9833   -0.4930   -3.1516 O   0  0  0  0  0  0  0  0  0  0  0  0
    1.1302   -0.2418   -0.8779 C   0  0  0  0  0  0  0  0  0  0  0  0
    2.3457   -0.3500    0.0344 C   0  0  0  0  0  0  0  0  0  0  0  0
    2.4885    1.0803    0.4224 C   0  0  0  0  0  0  0  0  0  0  0  0
    3.4200    1.5131    1.4902 C   0  0  0  0  0  0  0  0  0  0  0  0
    3.4304    2.8594    1.8762 C   0  0  0  0  0  0  0  0  0  0  0  0
    4.2926    3.2959    2.8836 C   0  0  0  0  0  0  0  0  0  0  0  0
    5.1489    2.3912    3.5082 C   0  0  0  0  0  0  0  0  0  0  0  0
    5.1463    1.0504    3.1257 C   0  0  0  0  0  0  0  0  0  0  0  0
    4.2847    0.6089    2.1178 C   0  0  0  0  0  0  0  0  0  0  0  0
    1.7389    1.9020   -0.2396 N   0  0  0  0  0  0  0  0  0  0  0  0
    1.0016    1.1518   -1.1816 O   0  0  0  0  0  0  0  0  0  0  0  0
   -6.9619    1.2193    0.3509 H   0  0  0  0  0  0  0  0  0  0  0  0
   -7.3810    3.4648   -1.2133 H   0  0  0  0  0  0  0  0  0  0  0  0
   -3.3379    3.4004   -0.6109 H   0  0  0  0  0  0  0  0  0  0  0  0
   -1.6481    1.5960   -0.8469 H   0  0  0  0  0  0  0  0  0  0  0  0
   -3.0763    0.8030   -1.5407 H   0  0  0  0  0  0  0  0  0  0  0  0
   -2.0772   -1.4088   -1.2518 H   0  0  0  0  0  0  0  0  0  0  0  0
   -1.0991   -0.3897   -2.2816 H   0  0  0  0  0  0  0  0  0  0  0  0
    0.0569   -0.7469    1.8771 H   0  0  0  0  0  0  0  0  0  0  0  0
   -0.2163    0.8497    1.1700 H   0  0  0  0  0  0  0  0  0  0  0  0
   -2.1616    0.0552    2.4696 H   0  0  0  0  0  0  0  0  0  0  0  0
   -2.3535   -1.3235    1.3798 H   0  0  0  0  0  0  0  0  0  0  0  0
   -0.4314   -4.7544   -0.2358 H   0  0  0  0  0  0  0  0  0  0  0  0
    0.3908   -6.2303   -2.0684 H   0  0  0  0  0  0  0  0  0  0  0  0
    2.1592   -2.8575   -4.0322 H   0  0  0  0  0  0  0  0  0  0  0  0
    3.2546   -0.6641   -0.4906 H   0  0  0  0  0  0  0  0  0  0  0  0
    2.1881   -1.0013    0.8970 H   0  0  0  0  0  0  0  0  0  0  0  0
    2.7694    3.5779    1.3952 H   0  0  0  0  0  0  0  0  0  0  0  0
    4.2962    4.3427    3.1778 H   0  0  0  0  0  0  0  0  0  0  0  0
    5.8216    2.7328    4.2914 H   0  0  0  0  0  0  0  0  0  0  0  0
    5.8200    0.3486    3.6120 H   0  0  0  0  0  0  0  0  0  0  0  0
    4.3146   -0.4396    1.8384 H   0  0  0  0  0  0  0  0  0  0  0  0
  1  2  2  0
  2  3  1  0
  3  4  1  0
  4  5  2  0
  5  6  1  0
  6  7  1  0
  2  8  1  0
  8  9  1  0
  9 10  1  0
 10 11  1  0
 11 12  1  0
 12 13  1  0
 11 14  1  0
 14 15  1  0
 15 16  2  0
 16 17  1  0
 17 18  2  0
 18 19  1  0
 18 20  1  0
 20 21  2  0
 21 22  1  0
 22 23  2  0
 22 24  1  0
 24 25  1  0
 25 26  1  0
 26 27  1  0
 27 28  2  0
 28 29  1  0
 29 30  2  0
 30 31  1  0
 31 32  2  0
 26 33  2  0
 33 34  1  0
  7  3  2  0
 13  8  1  0
 21 15  1  0
 34 24  1  0
 24 11  1  0
 32 27  1  0
  4 35  1  0
  5 36  1  0
  7 37  1  0
  9 38  1  0
  9 39  1  0
 10 40  1  0
 10 41  1  0
 12 42  1  0
 12 43  1  0
 13 44  1  0
 13 45  1  0
 16 46  1  0
 17 47  1  0
 20 48  1  0
 25 49  1  0
 25 50  1  0
 28 51  1  0
 29 52  1  0
 30 53  1  0
 31 54  1  0
 32 55  1  0
M  END
$$$$
