
     RDKit          3D

 41 43  0  0  0  0  0  0  0  0999 V2000
    7.9427    0.1196    2.1849 C   0  0  0  0  0  0  0  0  0  0  0  0
    6.6468    0.1614    1.8396 C   0  0  0  0  0  0  0  0  0  0  0  0
    6.1306    1.2805    1.0617 C   0  0  0  0  0  0  0  0  0  0  0  0
    4.8319    1.3249    0.7143 C   0  0  0  0  0  0  0  0  0  0  0  0
    3.8928    0.2503    1.1061 C   0  0  0  0  0  0  0  0  0  0  0  0
    2.5814    0.2882    0.7600 C   0  0  0  0  0  0  0  0  0  0  0  0
    1.6579   -0.6681    1.0871 N   0  0  0  0  0  0  0  0  0  0  0  0
    0.3635   -0.5013    0.6684 C   0  0  0  0  0  0  0  0  0  0  0  0
   -0.5303   -1.2950    0.9068 O   0  0  0  0  0  0  0  0  0  0  0  0
    0.2635    0.7726   -0.0939 C   0  0  0  0  0  0  0  0  0  0  0  0
   -0.8200    1.2984   -0.6846 C   0  0  0  0  0  0  0  0  0  0  0  0
   -2.1748    0.7379   -0.6998 C   0  0  0  0  0  0  0  0  0  0  0  0
   -2.9158    0.5978    0.4750 C   0  0  0  0  0  0  0  0  0  0  0  0
   -4.2210    0.0996    0.4332 C   0  0  0  0  0  0  0  0  0  0  0  0
   -4.8043   -0.2564   -0.7867 C   0  0  0  0  0  0  0  0  0  0  0  0
   -6.0795   -0.7476   -0.9226 O   0  0  0  0  0  0  0  0  0  0  0  0
   -6.8070   -1.0205    0.2661 C   0  0  0  0  0  0  0  0  0  0  0  0
   -4.0665   -0.1071   -1.9781 C   0  0  0  0  0  0  0  0  0  0  0  0
   -4.7123   -0.4671   -3.1362 O   0  0  0  0  0  0  0  0  0  0  0  0
   -3.9584   -0.4622   -4.3393 C   0  0  0  0  0  0  0  0  0  0  0  0
   -2.7592    0.3942   -1.9256 C   0  0  0  0  0  0  0  0  0  0  0  0
    1.8156    1.5572   -0.1669 S   0  0  0  0  0  0  0  0  0  0  0  0
    4.4453   -0.8734    1.8952 C   0  0  0  0  0  0  0  0  0  0  0  0
    5.7454   -0.9120    2.2395 C   0  0  0  0  0  0  0  0  0  0  0  0
    8.3551   -0.7011    2.7636 H   0  0  0  0  0  0  0  0  0  0  0  0
    8.6362    0.9050    1.9005 H   0  0  0  0  0  0  0  0  0  0  0  0
    6.8044    2.0781    0.7652 H   0  0  0  0  0  0  0  0  0  0  0  0
    4.4803    2.1719    0.1352 H   0  0  0  0  0  0  0  0  0  0  0  0
    1.8718   -1.4973    1.6173 H   0  0  0  0  0  0  0  0  0  0  0  0
   -0.7295    2.2328   -1.2359 H   0  0  0  0  0  0  0  0  0  0  0  0
   -2.4840    0.8655    1.4366 H   0  0  0  0  0  0  0  0  0  0  0  0
   -4.7536    0.0026    1.3729 H   0  0  0  0  0  0  0  0  0  0  0  0
   -7.7690   -1.4548   -0.0230 H   0  0  0  0  0  0  0  0  0  0  0  0
   -6.2866   -1.7536    0.8914 H   0  0  0  0  0  0  0  0  0  0  0  0
   -7.0127   -0.0998    0.8217 H   0  0  0  0  0  0  0  0  0  0  0  0
   -3.6549    0.5546   -4.6088 H   0  0  0  0  0  0  0  0  0  0  0  0
   -4.6031   -0.8384   -5.1395 H   0  0  0  0  0  0  0  0  0  0  0  0
   -3.0927   -1.1293   -4.2693 H   0  0  0  0  0  0  0  0  0  0  0  0
   -2.1752    0.5251   -2.8304 H   0  0  0  0  0  0  0  0  0  0  0  0
    3.8093   -1.6903    2.2117 H   0  0  0  0  0  0  0  0  0  0  0  0
    6.1358   -1.7432    2.8185 H   0  0  0  0  0  0  0  0  0  0  0  0
  1  2  2  0
  2  3  1  0
  3  4  2  0
  4  5  1  0
  5  6  2  3
  6  7  1  0
  7  8  1  0
  8  9  2  0
  8 10  1  0
 10 11  2  3
 11 12  1  0
 12 13  2  0
 13 14  1  0
 14 15  2  0
 15 16  1  0
 16 17  1  0
 15 18  1  0
 18 19  1  0
 19 20  1  0
 18 21  2  0
 10 22  1  0
  5 23  1  0
 23 24  2  0
 24  2  1  0
 22  6  1  0
 21 12  1  0
  1 25  1  0
  1 26  1  0
  3 27  1  0
  4 28  1  0
  7 29  1  0
 11 30  1  0
 13 31  1  0
 14 32  1  0
 17 33  1  0
 17 34  1  0
 17 35  1  0
 20 36  1  0
 20 37  1  0
 20 38  1  0
 21 39  1  0
 23 40  1  0
 24 41  1  0
M  END
$$$$
