
     RDKit          3D

 46 49  0  0  0  0  0  0  0  0999 V2000
   -6.1850    0.5391   -2.1494 C   0  0  0  0  0  0  0  0  0  0  0  0
   -4.9490    1.1065   -1.7318 O   0  0  0  0  0  0  0  0  0  0  0  0
   -4.0423    0.2593   -1.1565 C   0  0  0  0  0  0  0  0  0  0  0  0
   -4.2348   -1.0947   -0.8997 C   0  0  0  0  0  0  0  0  0  0  0  0
   -3.2180   -1.8362   -0.2995 C   0  0  0  0  0  0  0  0  0  0  0  0
   -2.0102   -1.2241    0.0573 C   0  0  0  0  0  0  0  0  0  0  0  0
   -1.0565   -2.0215    0.6405 O   0  0  0  0  0  0  0  0  0  0  0  0
   -1.2701   -2.1083    2.0497 C   0  0  0  0  0  0  0  0  0  0  0  0
   -1.7674    0.1339   -0.2169 C   0  0  0  0  0  0  0  0  0  0  0  0
   -0.4980    0.8148    0.0922 C   0  0  0  0  0  0  0  0  0  0  0  0
   -0.5712    2.1262    0.4239 N   0  0  0  0  0  0  0  0  0  0  0  0
    0.6041    2.7498    0.6895 C   0  0  0  0  0  0  0  0  0  0  0  0
    0.5353    4.1914    1.0562 C   0  0  0  0  0  0  0  0  0  0  0  0
   -0.7203    4.7354    1.0849 N   0  0  0  0  0  0  0  0  0  0  0  0
    1.5336    4.8513    1.3170 O   0  0  0  0  0  0  0  0  0  0  0  0
    1.7985    2.0976    0.6235 C   0  0  0  0  0  0  0  0  0  0  0  0
    3.1051    2.5061    0.8335 N   0  0  0  0  0  0  0  0  0  0  0  0
    3.9558    1.4142    0.6142 C   0  0  0  0  0  0  0  0  0  0  0  0
    5.1679    1.4816    0.7326 O   0  0  0  0  0  0  0  0  0  0  0  0
    3.1192    0.3093    0.2638 N   0  0  0  0  0  0  0  0  0  0  0  0
    3.5351   -1.0119   -0.0598 C   0  0  0  0  0  0  0  0  0  0  0  0
    4.9030   -1.3135   -0.1967 C   0  0  0  0  0  0  0  0  0  0  0  0
    5.3469   -2.6023   -0.5205 C   0  0  0  0  0  0  0  0  0  0  0  0
    4.4254   -3.6168   -0.7096 C   0  0  0  0  0  0  0  0  0  0  0  0
    4.8455   -4.8501   -1.0189 F   0  0  0  0  0  0  0  0  0  0  0  0
    3.0717   -3.3642   -0.5779 C   0  0  0  0  0  0  0  0  0  0  0  0
    2.6328   -2.0721   -0.2579 C   0  0  0  0  0  0  0  0  0  0  0  0
    1.7761    0.7689    0.2780 C   0  0  0  0  0  0  0  0  0  0  0  0
    0.6481    0.1091    0.0020 N   0  0  0  0  0  0  0  0  0  0  0  0
   -2.8213    0.8561   -0.8173 C   0  0  0  0  0  0  0  0  0  0  0  0
   -6.7788    1.3347   -2.6077 H   0  0  0  0  0  0  0  0  0  0  0  0
   -6.0285   -0.2380   -2.9055 H   0  0  0  0  0  0  0  0  0  0  0  0
   -6.7495    0.1517   -1.2948 H   0  0  0  0  0  0  0  0  0  0  0  0
   -5.1578   -1.6043   -1.1549 H   0  0  0  0  0  0  0  0  0  0  0  0
   -3.3642   -2.8966   -0.1085 H   0  0  0  0  0  0  0  0  0  0  0  0
   -2.1848   -2.6709    2.2719 H   0  0  0  0  0  0  0  0  0  0  0  0
   -0.4238   -2.6512    2.4821 H   0  0  0  0  0  0  0  0  0  0  0  0
   -1.3105   -1.1152    2.5140 H   0  0  0  0  0  0  0  0  0  0  0  0
   -1.5325    4.1691    0.8668 H   0  0  0  0  0  0  0  0  0  0  0  0
   -0.8347    5.7105    1.3236 H   0  0  0  0  0  0  0  0  0  0  0  0
    3.4018    3.4377    1.0981 H   0  0  0  0  0  0  0  0  0  0  0  0
    5.6704   -0.5552   -0.0679 H   0  0  0  0  0  0  0  0  0  0  0  0
    6.4062   -2.8086   -0.6274 H   0  0  0  0  0  0  0  0  0  0  0  0
    2.3554   -4.1664   -0.7265 H   0  0  0  0  0  0  0  0  0  0  0  0
    1.5597   -1.9454   -0.1638 H   0  0  0  0  0  0  0  0  0  0  0  0
   -2.6881    1.9132   -1.0460 H   0  0  0  0  0  0  0  0  0  0  0  0
  1  2  1  0
  2  3  1  0
  3  4  2  0
  4  5  1  0
  5  6  2  0
  6  7  1  0
  7  8  1  0
  6  9  1  0
  9 10  1  0
 10 11  2  0
 11 12  1  0
 12 13  1  0
 13 14  1  0
 13 15  2  0
 12 16  2  0
 16 17  1  0
 17 18  1  0
 18 19  2  0
 18 20  1  0
 20 21  1  0
 21 22  2  0
 22 23  1  0
 23 24  2  0
 24 25  1  0
 24 26  1  0
 26 27  2  0
 20 28  1  0
 28 29  2  0
  9 30  2  0
 30  3  1  0
 29 10  1  0
 28 16  1  0
 27 21  1  0
  1 31  1  0
  1 32  1  0
  1 33  1  0
  4 34  1  0
  5 35  1  0
  8 36  1  0
  8 37  1  0
  8 38  1  0
 14 39  1  0
 14 40  1  0
 17 41  1  0
 22 42  1  0
 23 43  1  0
 26 44  1  0
 27 45  1  0
 30 46  1  0
M  END
$$$$
