
     RDKit          3D

 54 57  0  0  0  0  0  0  0  0999 V2000
    6.5504    1.4251    2.6945 C   0  0  0  0  0  0  0  0  0  0  0  0
    6.2161    0.0092    2.2187 C   0  0  0  0  0  0  0  0  0  0  0  0
    5.7717   -0.8695    3.3908 C   0  0  0  0  0  0  0  0  0  0  0  0
    5.1807    0.0241    1.1087 C   0  0  0  0  0  0  0  0  0  0  0  0
    5.5107   -0.4704   -0.1599 C   0  0  0  0  0  0  0  0  0  0  0  0
    4.5746   -0.4685   -1.2016 C   0  0  0  0  0  0  0  0  0  0  0  0
    3.2893    0.0286   -0.9962 C   0  0  0  0  0  0  0  0  0  0  0  0
    2.2897    0.0630   -1.9868 N   0  0  0  0  0  0  0  0  0  0  0  0
    2.3834   -0.3456   -3.3078 C   0  0  0  0  0  0  0  0  0  0  0  0
    3.3869   -0.7628   -3.8775 O   0  0  0  0  0  0  0  0  0  0  0  0
    1.0705   -0.1463   -4.0733 C   0  0  0  0  0  0  0  0  0  0  0  0
   -0.0904   -0.1483   -3.2335 O   0  0  0  0  0  0  0  0  0  0  0  0
   -0.5739   -1.3820   -2.9434 C   0  0  0  0  0  0  0  0  0  0  0  0
   -0.1042   -2.4420   -3.3176 O   0  0  0  0  0  0  0  0  0  0  0  0
   -1.7692   -1.2803   -2.0627 C   0  0  0  0  0  0  0  0  0  0  0  0
   -2.3489   -2.4639   -1.5907 C   0  0  0  0  0  0  0  0  0  0  0  0
   -3.4692   -2.4201   -0.7514 C   0  0  0  0  0  0  0  0  0  0  0  0
   -4.0327   -1.1936   -0.3654 C   0  0  0  0  0  0  0  0  0  0  0  0
   -3.4492   -0.0287   -0.8418 C   0  0  0  0  0  0  0  0  0  0  0  0
   -2.3272   -0.0548   -1.6869 C   0  0  0  0  0  0  0  0  0  0  0  0
   -4.0926    1.5334   -0.3909 S   0  0  0  0  0  6  0  0  0  0  0  0
   -3.0683    2.1660    0.4160 O   0  0  0  0  0  0  0  0  0  0  0  0
   -4.5798    2.1349   -1.6156 O   0  0  0  0  0  0  0  0  0  0  0  0
   -5.4797    1.3007    0.6437 C   0  0  0  0  0  0  0  0  0  0  0  0
   -6.1557    2.4383    1.1065 C   0  0  0  0  0  0  0  0  0  0  0  0
   -7.2666    2.2915    1.9335 C   0  0  0  0  0  0  0  0  0  0  0  0
   -7.6959    1.0164    2.2935 C   0  0  0  0  0  0  0  0  0  0  0  0
   -7.0141   -0.1109    1.8257 C   0  0  0  0  0  0  0  0  0  0  0  0
   -5.8927    0.0215    0.9905 C   0  0  0  0  0  0  0  0  0  0  0  0
   -5.2147   -1.2129    0.5286 C   0  0  0  0  0  0  0  0  0  0  0  0
   -5.6484   -2.3000    0.9007 O   0  0  0  0  0  0  0  0  0  0  0  0
    2.9528    0.5227    0.2689 C   0  0  0  0  0  0  0  0  0  0  0  0
    3.8872    0.5215    1.3101 C   0  0  0  0  0  0  0  0  0  0  0  0
    5.6878    1.9164    3.1578 H   0  0  0  0  0  0  0  0  0  0  0  0
    6.8815    2.0512    1.8584 H   0  0  0  0  0  0  0  0  0  0  0  0
    7.3567    1.4018    3.4355 H   0  0  0  0  0  0  0  0  0  0  0  0
    7.1444   -0.4256    1.8245 H   0  0  0  0  0  0  0  0  0  0  0  0
    4.8771   -0.4736    3.8840 H   0  0  0  0  0  0  0  0  0  0  0  0
    5.5440   -1.8868    3.0531 H   0  0  0  0  0  0  0  0  0  0  0  0
    6.5643   -0.9358    4.1439 H   0  0  0  0  0  0  0  0  0  0  0  0
    6.5050   -0.8670   -0.3563 H   0  0  0  0  0  0  0  0  0  0  0  0
    4.8859   -0.8686   -2.1614 H   0  0  0  0  0  0  0  0  0  0  0  0
    1.3889    0.4303   -1.7047 H   0  0  0  0  0  0  0  0  0  0  0  0
    0.9873   -0.9016   -4.8636 H   0  0  0  0  0  0  0  0  0  0  0  0
    1.1187    0.8349   -4.5574 H   0  0  0  0  0  0  0  0  0  0  0  0
   -1.9318   -3.4315   -1.8710 H   0  0  0  0  0  0  0  0  0  0  0  0
   -3.8974   -3.3593   -0.3995 H   0  0  0  0  0  0  0  0  0  0  0  0
   -1.9061    0.8847   -2.0418 H   0  0  0  0  0  0  0  0  0  0  0  0
   -5.8201    3.4352    0.8246 H   0  0  0  0  0  0  0  0  0  0  0  0
   -7.7976    3.1687    2.2972 H   0  0  0  0  0  0  0  0  0  0  0  0
   -8.5633    0.8956    2.9394 H   0  0  0  0  0  0  0  0  0  0  0  0
   -7.3686   -1.0986    2.1205 H   0  0  0  0  0  0  0  0  0  0  0  0
    1.9605    0.9189    0.4672 H   0  0  0  0  0  0  0  0  0  0  0  0
    3.5923    0.9144    2.2804 H   0  0  0  0  0  0  0  0  0  0  0  0
  1  2  1  0
  2  3  1  0
  2  4  1  0
  4  5  2  0
  5  6  1  0
  6  7  2  0
  7  8  1  0
  8  9  1  0
  9 10  2  0
  9 11  1  0
 11 12  1  0
 12 13  1  0
 13 14  2  0
 13 15  1  0
 15 16  2  0
 16 17  1  0
 17 18  2  0
 18 19  1  0
 19 20  2  0
 19 21  1  0
 21 22  2  0
 21 23  2  0
 21 24  1  0
 24 25  2  0
 25 26  1  0
 26 27  2  0
 27 28  1  0
 28 29  2  0
 29 30  1  0
 30 31  2  0
  7 32  1  0
 32 33  2  0
 33  4  1  0
 20 15  1  0
 29 24  1  0
 30 18  1  0
  1 34  1  0
  1 35  1  0
  1 36  1  0
  2 37  1  0
  3 38  1  0
  3 39  1  0
  3 40  1  0
  5 41  1  0
  6 42  1  0
  8 43  1  0
 11 44  1  0
 11 45  1  0
 16 46  1  0
 17 47  1  0
 20 48  1  0
 25 49  1  0
 26 50  1  0
 27 51  1  0
 28 52  1  0
 32 53  1  0
 33 54  1  0
M  END
$$$$
