
     RDKit          3D

 59 62  0  0  0  0  0  0  0  0999 V2000
    9.0367    0.9143   -1.0489 C   0  0  0  0  0  0  0  0  0  0  0  0
    8.1385    0.9202    0.0541 O   0  0  0  0  0  0  0  0  0  0  0  0
    6.8052    0.8127   -0.2322 C   0  0  0  0  0  0  0  0  0  0  0  0
    6.2488    0.6748   -1.5061 C   0  0  0  0  0  0  0  0  0  0  0  0
    4.8611    0.5725   -1.6639 C   0  0  0  0  0  0  0  0  0  0  0  0
    4.0232    0.6079   -0.5480 C   0  0  0  0  0  0  0  0  0  0  0  0
    2.5708    0.5038   -0.6755 C   0  0  0  0  0  0  0  0  0  0  0  0
    1.7713    0.5453    0.4070 C   0  0  0  0  0  0  0  0  0  0  0  0
    0.2674    0.4540    0.4101 C   0  0  0  0  0  0  0  0  0  0  0  0
   -0.2438   -0.0556   -0.8816 N   0  0  0  0  0  0  0  0  0  0  0  0
   -0.3153   -1.5374   -0.9912 C   0  0  0  0  0  0  0  0  0  0  0  0
   -1.6687   -2.1438   -0.6237 C   0  0  0  0  0  0  0  0  0  0  0  0
   -1.6431   -3.6622   -0.5412 C   0  0  0  0  0  0  0  0  0  0  0  0
   -2.8448   -3.9312    0.3302 C   0  0  0  0  0  0  0  0  0  0  0  0
   -2.7818   -2.7889    1.3228 C   0  0  0  0  0  0  0  0  0  0  0  0
   -2.1133   -1.6983    0.6710 O   0  0  0  0  0  0  0  0  0  0  0  0
   -1.2376    0.9301   -1.8147 S   0  0  0  0  0  6  0  0  0  0  0  0
   -0.6752    2.2647   -1.8062 O   0  0  0  0  0  0  0  0  0  0  0  0
   -1.4719    0.2377   -3.0662 O   0  0  0  0  0  0  0  0  0  0  0  0
   -2.7991    1.0346   -0.9586 C   0  0  0  0  0  0  0  0  0  0  0  0
   -3.9222    0.3808   -1.4741 C   0  0  0  0  0  0  0  0  0  0  0  0
   -5.1500    0.4842   -0.8149 C   0  0  0  0  0  0  0  0  0  0  0  0
   -5.2728    1.2646    0.3434 C   0  0  0  0  0  0  0  0  0  0  0  0
   -6.6038    1.3305    1.0171 C   0  0  0  0  0  0  0  0  0  0  0  0
   -6.7648    2.2052    2.2327 C   0  0  0  0  0  0  0  0  0  0  0  0
   -7.5445    0.6717    0.5786 O   0  0  0  0  0  0  0  0  0  0  0  0
   -4.1564    1.9604    0.8236 C   0  0  0  0  0  0  0  0  0  0  0  0
   -2.9254    1.8565    0.1658 C   0  0  0  0  0  0  0  0  0  0  0  0
    2.3777    0.7150    1.7648 C   0  0  0  0  0  0  0  0  0  0  0  0
    1.6808    0.7806    2.7736 O   0  0  0  0  0  0  0  0  0  0  0  0
    3.7423    0.7934    1.8399 N   0  0  0  0  0  0  0  0  0  0  0  0
    4.5847    0.7486    0.7235 C   0  0  0  0  0  0  0  0  0  0  0  0
    5.9658    0.8490    0.8850 C   0  0  0  0  0  0  0  0  0  0  0  0
    8.9857   -0.0336   -1.5940 H   0  0  0  0  0  0  0  0  0  0  0  0
    8.8511    1.7638   -1.7138 H   0  0  0  0  0  0  0  0  0  0  0  0
   10.0515    1.0166   -0.6540 H   0  0  0  0  0  0  0  0  0  0  0  0
    6.8649    0.6444   -2.3990 H   0  0  0  0  0  0  0  0  0  0  0  0
    4.4465    0.4693   -2.6640 H   0  0  0  0  0  0  0  0  0  0  0  0
    2.1590    0.4063   -1.6749 H   0  0  0  0  0  0  0  0  0  0  0  0
   -0.1217    1.4514    0.6283 H   0  0  0  0  0  0  0  0  0  0  0  0
   -0.0786   -0.2016    1.2168 H   0  0  0  0  0  0  0  0  0  0  0  0
    0.4589   -1.9649   -0.3409 H   0  0  0  0  0  0  0  0  0  0  0  0
   -0.0371   -1.8273   -2.0114 H   0  0  0  0  0  0  0  0  0  0  0  0
   -2.4263   -1.8493   -1.3542 H   0  0  0  0  0  0  0  0  0  0  0  0
   -1.7019   -4.1431   -1.5216 H   0  0  0  0  0  0  0  0  0  0  0  0
   -0.7367   -4.0156   -0.0351 H   0  0  0  0  0  0  0  0  0  0  0  0
   -2.8310   -4.9130    0.8102 H   0  0  0  0  0  0  0  0  0  0  0  0
   -3.7615   -3.8567   -0.2667 H   0  0  0  0  0  0  0  0  0  0  0  0
   -2.1917   -3.0606    2.2039 H   0  0  0  0  0  0  0  0  0  0  0  0
   -3.7733   -2.4673    1.6542 H   0  0  0  0  0  0  0  0  0  0  0  0
   -3.8557   -0.2140   -2.3825 H   0  0  0  0  0  0  0  0  0  0  0  0
   -6.0142   -0.0451   -1.2137 H   0  0  0  0  0  0  0  0  0  0  0  0
   -6.1224    1.8497    3.0423 H   0  0  0  0  0  0  0  0  0  0  0  0
   -6.5417    3.2460    1.9846 H   0  0  0  0  0  0  0  0  0  0  0  0
   -7.8030    2.1556    2.5756 H   0  0  0  0  0  0  0  0  0  0  0  0
   -4.2148    2.5946    1.7039 H   0  0  0  0  0  0  0  0  0  0  0  0
   -2.0799    2.4318    0.5339 H   0  0  0  0  0  0  0  0  0  0  0  0
    4.1311    0.9085    2.7658 H   0  0  0  0  0  0  0  0  0  0  0  0
    6.4031    0.9585    1.8731 H   0  0  0  0  0  0  0  0  0  0  0  0
  1  2  1  0
  2  3  1  0
  3  4  2  0
  4  5  1  0
  5  6  2  0
  6  7  1  0
  7  8  2  0
  8  9  1  0
  9 10  1  0
 10 11  1  0
 11 12  1  0
 12 13  1  0
 13 14  1  0
 14 15  1  0
 15 16  1  0
 10 17  1  0
 17 18  2  0
 17 19  2  0
 17 20  1  0
 20 21  2  0
 21 22  1  0
 22 23  2  0
 23 24  1  0
 24 25  1  0
 24 26  2  0
 23 27  1  0
 27 28  2  0
  8 29  1  0
 29 30  2  0
 29 31  1  0
 31 32  1  0
 32 33  2  0
 33  3  1  0
 32  6  1  0
 16 12  1  0
 28 20  1  0
  1 34  1  0
  1 35  1  0
  1 36  1  0
  4 37  1  0
  5 38  1  0
  7 39  1  0
  9 40  1  0
  9 41  1  0
 11 42  1  0
 11 43  1  0
 12 44  1  0
 13 45  1  0
 13 46  1  0
 14 47  1  0
 14 48  1  0
 15 49  1  0
 15 50  1  0
 21 51  1  0
 22 52  1  0
 25 53  1  0
 25 54  1  0
 25 55  1  0
 27 56  1  0
 28 57  1  0
 31 58  1  0
 33 59  1  0
M  END
$$$$
