
     RDKit          3D

 37 37  0  0  0  0  0  0  0  0999 V2000
   -0.3948   -3.8348    2.0379 C   0  0  0  0  0  0  0  0  0  0  0  0
   -0.5687   -2.6088    1.3267 O   0  0  0  0  0  0  0  0  0  0  0  0
   -1.6775   -1.9021    1.7020 C   0  0  0  0  0  0  0  0  0  0  0  0
   -2.5082   -2.3023    2.5095 O   0  0  0  0  0  0  0  0  0  0  0  0
   -1.8058   -0.5848    0.9127 C   0  0  0  0  0  0  0  0  0  0  0  0
   -3.0173   -0.7017   -0.0240 C   0  0  0  0  0  0  0  0  0  0  0  0
   -3.3980    0.6060   -0.7199 C   0  0  0  0  0  0  0  0  0  0  0  0
   -4.1144    1.8113    0.4417 S   0  0  0  0  0  0  0  0  0  0  0  0
   -4.3545    3.1877   -0.7064 C   0  0  0  0  0  0  0  0  0  0  0  0
   -0.5934   -0.2914    0.1340 N   0  0  0  0  0  0  0  0  0  0  0  0
    0.4517    0.3551    0.7457 C   0  0  0  0  0  0  0  0  0  0  0  0
    0.4243    0.8001    1.8828 O   0  0  0  0  0  0  0  0  0  0  0  0
    1.5347    0.4265   -0.0885 N   0  0  0  0  0  0  0  0  0  0  0  0
    2.6935    1.1779    0.3353 C   0  0  0  0  0  0  0  0  0  0  0  0
    3.7806    0.9635   -0.6667 C   0  0  0  0  0  0  0  0  0  0  0  0
    4.7357   -0.0347   -0.6911 C   0  0  0  0  0  0  0  0  0  0  0  0
    5.6129    0.0805   -1.8076 C   0  0  0  0  0  0  0  0  0  0  0  0
    5.2983    1.1613   -2.6002 C   0  0  0  0  0  0  0  0  0  0  0  0
    3.9520    2.0276   -2.0001 S   0  0  0  0  0  0  0  0  0  0  0  0
   -1.2183   -4.5220    1.8206 H   0  0  0  0  0  0  0  0  0  0  0  0
   -0.3162   -3.6489    3.1137 H   0  0  0  0  0  0  0  0  0  0  0  0
    0.5378   -4.2936    1.6979 H   0  0  0  0  0  0  0  0  0  0  0  0
   -1.9463    0.2075    1.6558 H   0  0  0  0  0  0  0  0  0  0  0  0
   -3.8863   -1.0945    0.5203 H   0  0  0  0  0  0  0  0  0  0  0  0
   -2.7927   -1.4463   -0.8003 H   0  0  0  0  0  0  0  0  0  0  0  0
   -2.5291    1.0499   -1.2158 H   0  0  0  0  0  0  0  0  0  0  0  0
   -4.1503    0.3925   -1.4866 H   0  0  0  0  0  0  0  0  0  0  0  0
   -3.3960    3.5066   -1.1241 H   0  0  0  0  0  0  0  0  0  0  0  0
   -5.0302    2.8959   -1.5145 H   0  0  0  0  0  0  0  0  0  0  0  0
   -4.7976    4.0311   -0.1701 H   0  0  0  0  0  0  0  0  0  0  0  0
   -0.2691   -1.0571   -0.4423 H   0  0  0  0  0  0  0  0  0  0  0  0
    1.2990    0.4991   -1.0672 H   0  0  0  0  0  0  0  0  0  0  0  0
    3.0028    0.8306    1.3278 H   0  0  0  0  0  0  0  0  0  0  0  0
    2.4133    2.2338    0.4231 H   0  0  0  0  0  0  0  0  0  0  0  0
    4.8001   -0.8131    0.0604 H   0  0  0  0  0  0  0  0  0  0  0  0
    6.4336   -0.5944   -2.0179 H   0  0  0  0  0  0  0  0  0  0  0  0
    5.7945    1.4861   -3.5045 H   0  0  0  0  0  0  0  0  0  0  0  0
  1  2  1  0
  2  3  1  0
  3  4  2  0
  3  5  1  0
  5  6  1  0
  6  7  1  0
  7  8  1  0
  8  9  1  0
  5 10  1  0
 10 11  1  0
 11 12  2  0
 11 13  1  0
 13 14  1  0
 14 15  1  0
 15 16  2  0
 16 17  1  0
 17 18  2  0
 18 19  1  0
 19 15  1  0
  1 20  1  0
  1 21  1  0
  1 22  1  0
  5 23  1  0
  6 24  1  0
  6 25  1  0
  7 26  1  0
  7 27  1  0
  9 28  1  0
  9 29  1  0
  9 30  1  0
 10 31  1  0
 13 32  1  0
 14 33  1  0
 14 34  1  0
 16 35  1  0
 17 36  1  0
 18 37  1  0
M  END
$$$$
