
     RDKit          3D

 37 38  0  0  0  0  0  0  0  0999 V2000
    4.3717    1.8109   -1.0703 C   0  0  0  0  0  0  0  0  0  0  0  0
    4.6119    0.3500   -0.7352 C   0  0  0  0  0  0  0  0  0  0  0  0
    3.5355   -0.2129    0.0565 N   0  0  0  0  0  0  0  0  0  0  0  0
    2.4624   -0.9142   -0.4055 C   0  0  0  0  0  0  0  0  0  0  0  0
    1.7098   -1.2521    0.7023 C   0  0  0  0  0  0  0  0  0  0  0  0
    0.4350   -2.0099    0.7395 C   0  0  0  0  0  0  0  0  0  0  0  0
   -0.6273   -1.1241    0.3235 N   0  0  0  0  0  0  0  0  0  0  0  0
   -1.9114   -1.5996    0.1917 C   0  0  0  0  0  0  0  0  0  0  0  0
   -2.2171   -2.7724    0.3711 O   0  0  0  0  0  0  0  0  0  0  0  0
   -2.9582   -0.5998   -0.1572 C   0  0  0  0  0  0  0  0  0  0  0  0
   -4.2815   -0.8616    0.2276 C   0  0  0  0  0  0  0  0  0  0  0  0
   -5.3034    0.0388   -0.0823 C   0  0  0  0  0  0  0  0  0  0  0  0
   -5.0131    1.2059   -0.7887 C   0  0  0  0  0  0  0  0  0  0  0  0
   -3.6937    1.4605   -1.1877 C   0  0  0  0  0  0  0  0  0  0  0  0
   -3.3876    2.6816   -1.9437 N   0  0  0  0  0  4  0  0  0  0  0  0
   -4.3344    3.4084   -2.2751 O   0  0  0  0  0  0  0  0  0  0  0  0
   -2.1977    2.9130   -2.2012 O   0  0  0  0  0  1  0  0  0  0  0  0
   -2.6612    0.5622   -0.8794 C   0  0  0  0  0  0  0  0  0  0  0  0
    2.4330   -0.6995    1.7962 C   0  0  0  0  0  0  0  0  0  0  0  0
    2.0929   -0.7554    3.2401 C   0  0  0  0  0  0  0  0  0  0  0  0
    3.5386   -0.0632    1.3915 N   0  0  0  0  0  0  0  0  0  0  0  0
    4.2925    2.4174   -0.1619 H   0  0  0  0  0  0  0  0  0  0  0  0
    5.1969    2.2034   -1.6724 H   0  0  0  0  0  0  0  0  0  0  0  0
    3.4435    1.9375   -1.6377 H   0  0  0  0  0  0  0  0  0  0  0  0
    5.5410    0.2276   -0.1678 H   0  0  0  0  0  0  0  0  0  0  0  0
    4.6974   -0.2444   -1.6514 H   0  0  0  0  0  0  0  0  0  0  0  0
    2.3192   -1.1122   -1.4588 H   0  0  0  0  0  0  0  0  0  0  0  0
    0.2066   -2.3761    1.7460 H   0  0  0  0  0  0  0  0  0  0  0  0
    0.4652   -2.8724    0.0646 H   0  0  0  0  0  0  0  0  0  0  0  0
   -0.4575   -0.1305    0.3983 H   0  0  0  0  0  0  0  0  0  0  0  0
   -4.5189   -1.7745    0.7734 H   0  0  0  0  0  0  0  0  0  0  0  0
   -6.3253   -0.1746    0.2246 H   0  0  0  0  0  0  0  0  0  0  0  0
   -5.8203    1.8971   -1.0250 H   0  0  0  0  0  0  0  0  0  0  0  0
   -1.6476    0.7521   -1.2233 H   0  0  0  0  0  0  0  0  0  0  0  0
    1.0901   -0.3517    3.4115 H   0  0  0  0  0  0  0  0  0  0  0  0
    2.1149   -1.7906    3.5953 H   0  0  0  0  0  0  0  0  0  0  0  0
    2.7980   -0.1748    3.8438 H   0  0  0  0  0  0  0  0  0  0  0  0
  1  2  1  0
  2  3  1  0
  3  4  1  0
  4  5  2  0
  5  6  1  0
  6  7  1  0
  7  8  1  0
  8  9  2  0
  8 10  1  0
 10 11  2  0
 11 12  1  0
 12 13  2  0
 13 14  1  0
 14 15  1  0
 15 16  2  0
 15 17  1  0
 14 18  2  0
  5 19  1  0
 19 20  1  0
 19 21  2  0
 21  3  1  0
 18 10  1  0
  1 22  1  0
  1 23  1  0
  1 24  1  0
  2 25  1  0
  2 26  1  0
  4 27  1  0
  6 28  1  0
  6 29  1  0
  7 30  1  0
 11 31  1  0
 12 32  1  0
 13 33  1  0
 18 34  1  0
 20 35  1  0
 20 36  1  0
 20 37  1  0
M  CHG  2  15   1  17  -1
M  END
$$$$
