
     RDKit          3D

 38 38  0  0  0  0  0  0  0  0999 V2000
    5.1588   -1.3513   -3.1829 C   0  0  0  0  0  0  0  0  0  0  0  0
    4.2430   -0.1429   -3.2308 C   0  0  0  0  0  0  0  0  0  0  0  0
    3.1992   -0.2766   -2.2555 O   0  0  0  0  0  0  0  0  0  0  0  0
    3.4834    0.2050   -1.0138 C   0  0  0  0  0  0  0  0  0  0  0  0
    4.5645    0.6540   -0.6554 O   0  0  0  0  0  0  0  0  0  0  0  0
    2.3076    0.0346   -0.0993 C   0  0  0  0  0  0  0  0  0  0  0  0
    1.0989    0.8339   -0.5112 C   0  0  0  0  0  0  0  0  0  0  0  0
    1.1657    1.7741   -1.3000 O   0  0  0  0  0  0  0  0  0  0  0  0
   -0.2291    0.4833    0.0796 C   0  0  0  0  0  0  0  0  0  0  0  0
   -1.3794    1.0117   -0.5289 C   0  0  0  0  0  0  0  0  0  0  0  0
   -2.6466    0.7218   -0.0225 C   0  0  0  0  0  0  0  0  0  0  0  0
   -3.8257    1.1794   -0.5497 O   0  0  0  0  0  0  0  0  0  0  0  0
   -3.7573    1.9522   -1.7410 C   0  0  0  0  0  0  0  0  0  0  0  0
   -2.7477   -0.0930    1.1174 C   0  0  0  0  0  0  0  0  0  0  0  0
   -3.9931   -0.4289    1.6015 O   0  0  0  0  0  0  0  0  0  0  0  0
   -4.4201    0.5407    2.5569 C   0  0  0  0  0  0  0  0  0  0  0  0
   -1.6067   -0.6414    1.7290 C   0  0  0  0  0  0  0  0  0  0  0  0
   -1.8288   -1.4288    2.8292 O   0  0  0  0  0  0  0  0  0  0  0  0
   -0.7428   -2.2075    3.3126 C   0  0  0  0  0  0  0  0  0  0  0  0
   -0.3454   -0.3368    1.2111 C   0  0  0  0  0  0  0  0  0  0  0  0
    4.5861   -2.2736   -3.3258 H   0  0  0  0  0  0  0  0  0  0  0  0
    5.6532   -1.4313   -2.2097 H   0  0  0  0  0  0  0  0  0  0  0  0
    5.9259   -1.2879   -3.9599 H   0  0  0  0  0  0  0  0  0  0  0  0
    3.7593   -0.0853   -4.2113 H   0  0  0  0  0  0  0  0  0  0  0  0
    4.8025    0.7894   -3.0924 H   0  0  0  0  0  0  0  0  0  0  0  0
    2.0746   -1.0348   -0.0660 H   0  0  0  0  0  0  0  0  0  0  0  0
    2.6088    0.3594    0.9026 H   0  0  0  0  0  0  0  0  0  0  0  0
   -1.2573    1.6472   -1.4018 H   0  0  0  0  0  0  0  0  0  0  0  0
   -4.7810    2.2005   -2.0374 H   0  0  0  0  0  0  0  0  0  0  0  0
   -3.2239    2.8928   -1.5695 H   0  0  0  0  0  0  0  0  0  0  0  0
   -3.3038    1.3815   -2.5583 H   0  0  0  0  0  0  0  0  0  0  0  0
   -3.7352    0.5888    3.4104 H   0  0  0  0  0  0  0  0  0  0  0  0
   -4.5277    1.5311    2.1016 H   0  0  0  0  0  0  0  0  0  0  0  0
   -5.4016    0.2327    2.9294 H   0  0  0  0  0  0  0  0  0  0  0  0
   -1.1275   -2.8703    4.0938 H   0  0  0  0  0  0  0  0  0  0  0  0
    0.0232   -1.5697    3.7651 H   0  0  0  0  0  0  0  0  0  0  0  0
   -0.3181   -2.8352    2.5219 H   0  0  0  0  0  0  0  0  0  0  0  0
    0.5443   -0.7189    1.6961 H   0  0  0  0  0  0  0  0  0  0  0  0
  1  2  1  0
  2  3  1  0
  3  4  1  0
  4  5  2  0
  4  6  1  0
  6  7  1  0
  7  8  2  0
  7  9  1  0
  9 10  2  0
 10 11  1  0
 11 12  1  0
 12 13  1  0
 11 14  2  0
 14 15  1  0
 15 16  1  0
 14 17  1  0
 17 18  1  0
 18 19  1  0
 17 20  2  0
 20  9  1  0
  1 21  1  0
  1 22  1  0
  1 23  1  0
  2 24  1  0
  2 25  1  0
  6 26  1  0
  6 27  1  0
 10 28  1  0
 13 29  1  0
 13 30  1  0
 13 31  1  0
 16 32  1  0
 16 33  1  0
 16 34  1  0
 19 35  1  0
 19 36  1  0
 19 37  1  0
 20 38  1  0
M  END
$$$$
