
     RDKit          3D

 36 36  0  0  0  0  0  0  0  0999 V2000
    0.4808   -3.6791    3.7634 C   0  0  0  0  0  0  0  0  0  0  0  0
    1.6824   -3.1325    3.0111 C   0  0  0  0  0  0  0  0  0  0  0  0
    1.7258   -3.6067    1.6665 O   0  0  0  0  0  0  0  0  0  0  0  0
    0.8137   -2.9292    0.8014 C   0  0  0  0  0  0  0  0  0  0  0  0
    1.0538   -3.4309   -0.6198 C   0  0  0  0  0  0  0  0  0  0  0  0
    0.0723   -2.8567   -1.6327 C   0  0  0  0  0  0  0  0  0  0  0  0
    0.2690   -1.4369   -1.8689 N   0  0  0  0  0  0  0  0  0  0  0  0
   -0.4830   -0.4805   -1.2201 C   0  0  0  0  0  0  0  0  0  0  0  0
   -1.3325   -0.7778   -0.3836 O   0  0  0  0  0  0  0  0  0  0  0  0
   -0.2018    0.9530   -1.5766 C   0  0  0  0  0  0  0  0  0  0  0  0
    0.8605    1.2460   -2.4692 C   0  0  0  0  0  0  0  0  0  0  0  0
    1.7358    1.4496   -3.2046 N   0  0  0  0  0  0  0  0  0  0  0  0
   -1.0016    1.8745   -1.0049 C   0  0  0  0  0  0  0  0  0  0  0  0
   -0.9560    3.2928   -1.1618 C   0  0  0  0  0  0  0  0  0  0  0  0
   -0.1229    4.1623   -1.8686 C   0  0  0  0  0  0  0  0  0  0  0  0
   -0.5599    5.4955   -1.6432 C   0  0  0  0  0  0  0  0  0  0  0  0
   -1.6389    5.3778   -0.8108 C   0  0  0  0  0  0  0  0  0  0  0  0
   -2.5081    6.3523   -0.2317 N   0  0  0  0  0  4  0  0  0  0  0  0
   -2.2651    7.5344   -0.5105 O   0  0  0  0  0  0  0  0  0  0  0  0
   -3.4276    5.9524    0.4928 O   0  0  0  0  0  1  0  0  0  0  0  0
   -1.8928    4.0817   -0.5122 O   0  0  0  0  0  0  0  0  0  0  0  0
    0.4350   -4.7713    3.6907 H   0  0  0  0  0  0  0  0  0  0  0  0
    0.5358   -3.4035    4.8206 H   0  0  0  0  0  0  0  0  0  0  0  0
   -0.4563   -3.2854    3.3574 H   0  0  0  0  0  0  0  0  0  0  0  0
    1.7034   -2.0364    3.0382 H   0  0  0  0  0  0  0  0  0  0  0  0
    2.5961   -3.4877    3.5007 H   0  0  0  0  0  0  0  0  0  0  0  0
   -0.2161   -3.1425    1.1056 H   0  0  0  0  0  0  0  0  0  0  0  0
    0.9966   -1.8504    0.8613 H   0  0  0  0  0  0  0  0  0  0  0  0
    2.0857   -3.1990   -0.9140 H   0  0  0  0  0  0  0  0  0  0  0  0
    0.9793   -4.5261   -0.6282 H   0  0  0  0  0  0  0  0  0  0  0  0
    0.2190   -3.3523   -2.5984 H   0  0  0  0  0  0  0  0  0  0  0  0
   -0.9607   -3.0436   -1.3218 H   0  0  0  0  0  0  0  0  0  0  0  0
    0.9891   -1.1856   -2.5369 H   0  0  0  0  0  0  0  0  0  0  0  0
   -1.7914    1.5359   -0.3330 H   0  0  0  0  0  0  0  0  0  0  0  0
    0.7215    3.8950   -2.4903 H   0  0  0  0  0  0  0  0  0  0  0  0
   -0.1410    6.4109   -2.0389 H   0  0  0  0  0  0  0  0  0  0  0  0
  1  2  1  0
  2  3  1  0
  3  4  1  0
  4  5  1  0
  5  6  1  0
  6  7  1  0
  7  8  1  0
  8  9  2  0
  8 10  1  0
 10 11  1  0
 11 12  3  0
 10 13  2  3
 13 14  1  0
 14 15  2  0
 15 16  1  0
 16 17  2  0
 17 18  1  0
 18 19  2  0
 18 20  1  0
 17 21  1  0
 21 14  1  0
  1 22  1  0
  1 23  1  0
  1 24  1  0
  2 25  1  0
  2 26  1  0
  4 27  1  0
  4 28  1  0
  5 29  1  0
  5 30  1  0
  6 31  1  0
  6 32  1  0
  7 33  1  0
 13 34  1  0
 15 35  1  0
 16 36  1  0
M  CHG  2  18   1  20  -1
M  END
$$$$
