
     RDKit          3D

 65 68  0  0  0  0  0  0  0  0999 V2000
    7.9109    3.4933    3.0778 C   0  0  0  0  0  0  0  0  0  0  0  0
    7.0699    2.2884    3.1857 C   0  0  0  0  0  0  0  0  0  0  0  0
    5.8997    1.8827    2.5939 C   0  0  0  0  0  0  0  0  0  0  0  0
    5.6424    0.6096    3.1463 C   0  0  0  0  0  0  0  0  0  0  0  0
    4.6018   -0.2586    2.9007 N   0  0  0  0  0  0  0  0  0  0  0  0
    3.5712   -0.0317    2.0179 C   0  0  0  0  0  0  0  0  0  0  0  0
    3.4223    0.9745    1.3298 O   0  0  0  0  0  0  0  0  0  0  0  0
    2.6037   -1.1971    1.9650 C   0  0  0  0  0  0  0  0  0  0  0  0
    1.4482   -0.9138    1.0091 C   0  0  0  0  0  0  0  0  0  0  0  0
    0.5345   -2.1146    0.8491 C   0  0  0  0  0  0  0  0  0  0  0  0
    0.8112   -3.1781    1.4074 O   0  0  0  0  0  0  0  0  0  0  0  0
   -0.5832   -1.9672    0.0314 N   0  0  0  0  0  0  0  0  0  0  0  0
   -1.5325   -3.0858   -0.0095 C   0  0  0  0  0  0  0  0  0  0  0  0
   -1.2622   -3.9699   -1.1967 C   0  0  0  0  0  0  0  0  0  0  0  0
   -0.0608   -4.4936   -1.6392 C   0  0  0  0  0  0  0  0  0  0  0  0
   -0.2088   -5.2927   -2.8091 C   0  0  0  0  0  0  0  0  0  0  0  0
   -1.5218   -5.3781   -3.2105 C   0  0  0  0  0  0  0  0  0  0  0  0
   -2.5665   -4.5050   -2.1779 S   0  0  0  0  0  0  0  0  0  0  0  0
   -1.0085   -0.6659   -0.5331 C   0  0  0  0  0  0  0  0  0  0  0  0
   -1.9265    0.1046    0.4615 C   0  0  0  0  0  0  0  0  0  0  0  0
   -2.4538   -0.4188    1.4407 O   0  0  0  0  0  0  0  0  0  0  0  0
   -2.0876    1.4489    0.1580 N   0  0  0  0  0  0  0  0  0  0  0  0
   -2.9887    2.2890    0.9249 C   0  0  0  0  0  0  0  0  0  0  0  0
   -2.6669    3.7753    0.7409 C   0  0  0  0  0  0  0  0  0  0  0  0
   -4.0224    4.4623    0.7707 C   0  0  0  0  0  0  0  0  0  0  0  0
   -4.9066    3.4926    0.0068 C   0  0  0  0  0  0  0  0  0  0  0  0
   -4.4561    2.1199    0.4955 C   0  0  0  0  0  0  0  0  0  0  0  0
   -1.5784   -0.7570   -1.9450 C   0  0  0  0  0  0  0  0  0  0  0  0
   -0.6929   -0.8538   -3.0326 C   0  0  0  0  0  0  0  0  0  0  0  0
   -1.1734   -0.9310   -4.3405 C   0  0  0  0  0  0  0  0  0  0  0  0
   -2.5447   -0.9184   -4.5813 C   0  0  0  0  0  0  0  0  0  0  0  0
   -3.4365   -0.8380   -3.5146 C   0  0  0  0  0  0  0  0  0  0  0  0
   -2.9589   -0.7633   -2.2046 C   0  0  0  0  0  0  0  0  0  0  0  0
    6.5914    0.2715    4.0267 N   0  0  0  0  0  0  0  0  0  0  0  0
    7.4864    1.3256    4.0486 O   0  0  0  0  0  0  0  0  0  0  0  0
    7.8730    3.9013    2.0624 H   0  0  0  0  0  0  0  0  0  0  0  0
    8.9562    3.2673    3.3104 H   0  0  0  0  0  0  0  0  0  0  0  0
    7.5629    4.2645    3.7724 H   0  0  0  0  0  0  0  0  0  0  0  0
    5.3214    2.4305    1.8662 H   0  0  0  0  0  0  0  0  0  0  0  0
    4.6478   -1.1183    3.4317 H   0  0  0  0  0  0  0  0  0  0  0  0
    3.1587   -2.0856    1.6406 H   0  0  0  0  0  0  0  0  0  0  0  0
    2.2191   -1.3848    2.9747 H   0  0  0  0  0  0  0  0  0  0  0  0
    1.8493   -0.6570    0.0213 H   0  0  0  0  0  0  0  0  0  0  0  0
    0.8697   -0.0665    1.3940 H   0  0  0  0  0  0  0  0  0  0  0  0
   -2.5547   -2.6933   -0.0113 H   0  0  0  0  0  0  0  0  0  0  0  0
   -1.4407   -3.6912    0.9002 H   0  0  0  0  0  0  0  0  0  0  0  0
    0.8843   -4.3093   -1.1415 H   0  0  0  0  0  0  0  0  0  0  0  0
    0.6062   -5.7879   -3.3218 H   0  0  0  0  0  0  0  0  0  0  0  0
   -1.9228   -5.9179   -4.0572 H   0  0  0  0  0  0  0  0  0  0  0  0
   -0.1235   -0.0253   -0.6222 H   0  0  0  0  0  0  0  0  0  0  0  0
   -1.8597    1.7425   -0.7851 H   0  0  0  0  0  0  0  0  0  0  0  0
   -2.8938    2.0162    1.9837 H   0  0  0  0  0  0  0  0  0  0  0  0
   -2.1806    3.9604   -0.2252 H   0  0  0  0  0  0  0  0  0  0  0  0
   -1.9977    4.1487    1.5224 H   0  0  0  0  0  0  0  0  0  0  0  0
   -4.3743    4.5674    1.8038 H   0  0  0  0  0  0  0  0  0  0  0  0
   -3.9971    5.4555    0.3117 H   0  0  0  0  0  0  0  0  0  0  0  0
   -4.7225    3.5837   -1.0709 H   0  0  0  0  0  0  0  0  0  0  0  0
   -5.9710    3.6678    0.1866 H   0  0  0  0  0  0  0  0  0  0  0  0
   -4.6041    1.3586   -0.2776 H   0  0  0  0  0  0  0  0  0  0  0  0
   -5.0574    1.8261    1.3649 H   0  0  0  0  0  0  0  0  0  0  0  0
    0.3823   -0.8832   -2.8657 H   0  0  0  0  0  0  0  0  0  0  0  0
   -0.4773   -1.0119   -5.1712 H   0  0  0  0  0  0  0  0  0  0  0  0
   -2.9186   -0.9871   -5.5994 H   0  0  0  0  0  0  0  0  0  0  0  0
   -4.5077   -0.8485   -3.7008 H   0  0  0  0  0  0  0  0  0  0  0  0
   -3.6833   -0.7287   -1.3929 H   0  0  0  0  0  0  0  0  0  0  0  0
  1  2  1  0
  2  3  2  0
  3  4  1  0
  4  5  1  0
  5  6  1  0
  6  7  2  0
  6  8  1  0
  8  9  1  0
  9 10  1  0
 10 11  2  0
 10 12  1  0
 12 13  1  0
 13 14  1  0
 14 15  2  0
 15 16  1  0
 16 17  2  0
 17 18  1  0
 12 19  1  0
 19 20  1  0
 20 21  2  0
 20 22  1  0
 22 23  1  0
 23 24  1  0
 24 25  1  0
 25 26  1  0
 26 27  1  0
 19 28  1  0
 28 29  2  0
 29 30  1  0
 30 31  2  0
 31 32  1  0
 32 33  2  0
  4 34  2  0
 34 35  1  0
 35  2  1  0
 18 14  1  0
 27 23  1  0
 33 28  1  0
  1 36  1  0
  1 37  1  0
  1 38  1  0
  3 39  1  0
  5 40  1  0
  8 41  1  0
  8 42  1  0
  9 43  1  0
  9 44  1  0
 13 45  1  0
 13 46  1  0
 15 47  1  0
 16 48  1  0
 17 49  1  0
 19 50  1  0
 22 51  1  0
 23 52  1  0
 24 53  1  0
 24 54  1  0
 25 55  1  0
 25 56  1  0
 26 57  1  0
 26 58  1  0
 27 59  1  0
 27 60  1  0
 29 61  1  0
 30 62  1  0
 31 63  1  0
 32 64  1  0
 33 65  1  0
M  END
$$$$
