
     RDKit          3D

 54 57  0  0  0  0  0  0  0  0999 V2000
    0.6306   -1.9725    1.5505 O   0  0  0  0  0  0  0  0  0  0  0  0
   -0.2755   -2.2037    0.7551 C   0  0  0  0  0  0  0  0  0  0  0  0
   -1.6867   -2.5495    1.2480 C   0  0  0  0  0  0  0  0  0  0  0  0
   -2.6094   -1.4598    1.2054 O   0  0  0  0  0  0  0  0  0  0  0  0
   -3.1174   -1.1716   -0.0152 C   0  0  0  0  0  0  0  0  0  0  0  0
   -2.8156   -1.7411   -1.0544 O   0  0  0  0  0  0  0  0  0  0  0  0
   -4.0896   -0.0492    0.0604 C   0  0  0  0  0  0  0  0  0  0  0  0
   -4.6608    0.4149   -1.1348 C   0  0  0  0  0  0  0  0  0  0  0  0
   -5.5855    1.4619   -1.1148 C   0  0  0  0  0  0  0  0  0  0  0  0
   -5.9462    2.0443    0.0977 C   0  0  0  0  0  0  0  0  0  0  0  0
   -5.3613    1.6019    1.2889 C   0  0  0  0  0  0  0  0  0  0  0  0
   -4.4456    0.5499    1.2759 C   0  0  0  0  0  0  0  0  0  0  0  0
   -5.6480    2.1480    2.5133 O   0  0  0  0  0  0  0  0  0  0  0  0
   -6.3136    3.4095    2.3820 C   0  0  0  0  0  0  0  0  0  0  0  0
   -7.4183    3.3292    1.3416 C   0  0  0  0  0  0  0  0  0  0  0  0
   -6.8744    3.0511    0.0453 O   0  0  0  0  0  0  0  0  0  0  0  0
   -0.1756   -2.1868   -0.6252 N   0  0  0  0  0  0  0  0  0  0  0  0
    0.9773   -1.9735   -1.4033 C   0  0  0  0  0  0  0  0  0  0  0  0
    0.7934   -1.8276   -2.7859 C   0  0  0  0  0  0  0  0  0  0  0  0
    1.8810   -1.6121   -3.6370 C   0  0  0  0  0  0  0  0  0  0  0  0
    3.1692   -1.5449   -3.1146 C   0  0  0  0  0  0  0  0  0  0  0  0
    3.3541   -1.7019   -1.7398 C   0  0  0  0  0  0  0  0  0  0  0  0
    4.9884   -1.6153   -1.0562 S   0  0  0  0  0  6  0  0  0  0  0  0
    5.2870   -2.9124   -0.4921 O   0  0  0  0  0  0  0  0  0  0  0  0
    5.8609   -1.0009   -2.0364 O   0  0  0  0  0  0  0  0  0  0  0  0
    4.8186   -0.4974    0.2163 N   0  0  0  0  0  0  0  0  0  0  0  0
    4.5050    0.9107   -0.1886 C   0  0  0  0  0  0  0  0  0  0  0  0
    5.7308    1.8129   -0.0217 C   0  0  0  0  0  0  0  0  0  0  0  0
    6.1844    1.8934    1.3373 O   0  0  0  0  0  0  0  0  0  0  0  0
    5.9446    0.6933    2.0865 C   0  0  0  0  0  0  0  0  0  0  0  0
    5.9314   -0.5660    1.2166 C   0  0  0  0  0  0  0  0  0  0  0  0
    2.2687   -1.9170   -0.8815 C   0  0  0  0  0  0  0  0  0  0  0  0
   -1.6050   -2.8651    2.2949 H   0  0  0  0  0  0  0  0  0  0  0  0
   -2.0760   -3.4158    0.6978 H   0  0  0  0  0  0  0  0  0  0  0  0
   -4.3925   -0.0385   -2.0874 H   0  0  0  0  0  0  0  0  0  0  0  0
   -6.0313    1.8153   -2.0410 H   0  0  0  0  0  0  0  0  0  0  0  0
   -4.0150    0.2174    2.2168 H   0  0  0  0  0  0  0  0  0  0  0  0
   -6.7333    3.6662    3.3598 H   0  0  0  0  0  0  0  0  0  0  0  0
   -5.5683    4.1703    2.1196 H   0  0  0  0  0  0  0  0  0  0  0  0
   -8.1474    2.5468    1.5890 H   0  0  0  0  0  0  0  0  0  0  0  0
   -7.9499    4.2838    1.2804 H   0  0  0  0  0  0  0  0  0  0  0  0
   -1.0617   -2.2326   -1.1334 H   0  0  0  0  0  0  0  0  0  0  0  0
   -0.2040   -1.8758   -3.2185 H   0  0  0  0  0  0  0  0  0  0  0  0
    1.7197   -1.5000   -4.7063 H   0  0  0  0  0  0  0  0  0  0  0  0
    4.0159   -1.3813   -3.7776 H   0  0  0  0  0  0  0  0  0  0  0  0
    3.6890    1.2595    0.4564 H   0  0  0  0  0  0  0  0  0  0  0  0
    4.1437    0.9610   -1.2199 H   0  0  0  0  0  0  0  0  0  0  0  0
    6.5667    1.4573   -0.6359 H   0  0  0  0  0  0  0  0  0  0  0  0
    5.4961    2.8312   -0.3480 H   0  0  0  0  0  0  0  0  0  0  0  0
    4.9881    0.8118    2.6101 H   0  0  0  0  0  0  0  0  0  0  0  0
    6.7278    0.6211    2.8477 H   0  0  0  0  0  0  0  0  0  0  0  0
    5.7844   -1.4469    1.8482 H   0  0  0  0  0  0  0  0  0  0  0  0
    6.8906   -0.6555    0.6956 H   0  0  0  0  0  0  0  0  0  0  0  0
    2.4606   -2.0482    0.1788 H   0  0  0  0  0  0  0  0  0  0  0  0
  1  2  2  0
  2  3  1  0
  3  4  1  0
  4  5  1  0
  5  6  2  0
  5  7  1  0
  7  8  2  0
  8  9  1  0
  9 10  2  0
 10 11  1  0
 11 12  2  0
 11 13  1  0
 13 14  1  0
 14 15  1  0
 15 16  1  0
  2 17  1  0
 17 18  1  0
 18 19  2  0
 19 20  1  0
 20 21  2  0
 21 22  1  0
 22 23  1  0
 23 24  2  0
 23 25  2  0
 23 26  1  0
 26 27  1  0
 27 28  1  0
 28 29  1  0
 29 30  1  0
 30 31  1  0
 22 32  2  0
 12  7  1  0
 32 18  1  0
 16 10  1  0
 31 26  1  0
  3 33  1  0
  3 34  1  0
  8 35  1  0
  9 36  1  0
 12 37  1  0
 14 38  1  0
 14 39  1  0
 15 40  1  0
 15 41  1  0
 17 42  1  0
 19 43  1  0
 20 44  1  0
 21 45  1  0
 27 46  1  0
 27 47  1  0
 28 48  1  0
 28 49  1  0
 30 50  1  0
 30 51  1  0
 31 52  1  0
 31 53  1  0
 32 54  1  0
M  END
$$$$
