
     RDKit          3D

 53 52  0  0  0  0  0  0  0  0999 V2000
   -6.1006    1.5696    1.3556 C   0  0  0  0  0  0  0  0  0  0  0  0
   -6.0891    2.3668    0.0498 C   0  0  0  0  0  0  0  0  0  0  0  0
   -7.1195    3.4977    0.1245 C   0  0  0  0  0  0  0  0  0  0  0  0
   -6.3738    1.4833   -1.1826 C   0  0  0  0  0  0  0  0  0  0  0  0
   -5.3701    0.3524   -1.4063 C   0  0  0  0  0  0  0  0  0  0  0  0
   -4.0302    0.8487   -1.6485 N   0  0  0  0  0  0  0  0  0  0  0  0
   -2.9320    0.0256   -1.4999 C   0  0  0  0  0  0  0  0  0  0  0  0
   -2.9917   -1.1137   -1.0508 O   0  0  0  0  0  0  0  0  0  0  0  0
   -1.6405    0.6850   -1.9376 C   0  0  0  0  0  0  0  0  0  0  0  0
   -0.4608   -0.2635   -1.7629 C   0  0  0  0  0  0  0  0  0  0  0  0
    1.1018    0.5032   -2.3217 S   0  0  0  0  0  0  0  0  0  0  0  0
    1.5011    1.5423   -0.8659 C   0  0  0  0  0  0  0  0  0  0  0  0
    2.1540    0.7418    0.2538 C   0  0  0  0  0  0  0  0  0  0  0  0
    3.6118    0.4601   -0.0451 C   0  0  0  0  0  0  0  0  0  0  0  0
    4.4102    1.3561   -0.3063 O   0  0  0  0  0  0  0  0  0  0  0  0
    3.9586   -0.8725    0.0594 N   0  0  0  0  0  0  0  0  0  0  0  0
    5.2933   -1.3138   -0.2930 C   0  0  0  0  0  0  0  0  0  0  0  0
    5.6461   -2.6554    0.3507 C   0  0  0  0  0  0  0  0  0  0  0  0
    5.6124   -2.6628    1.8930 C   0  0  0  0  0  0  0  0  0  0  0  0
    6.5816   -1.6478    2.5027 C   0  0  0  0  0  0  0  0  0  0  0  0
    5.9393   -4.0662    2.4115 C   0  0  0  0  0  0  0  0  0  0  0  0
   -5.9842    2.2348    2.2189 H   0  0  0  0  0  0  0  0  0  0  0  0
   -7.0402    1.0196    1.4776 H   0  0  0  0  0  0  0  0  0  0  0  0
   -5.2768    0.8491    1.3895 H   0  0  0  0  0  0  0  0  0  0  0  0
   -5.1000    2.8279   -0.0625 H   0  0  0  0  0  0  0  0  0  0  0  0
   -6.8938    4.1747    0.9553 H   0  0  0  0  0  0  0  0  0  0  0  0
   -8.1314    3.1059    0.2730 H   0  0  0  0  0  0  0  0  0  0  0  0
   -7.1157    4.0901   -0.7970 H   0  0  0  0  0  0  0  0  0  0  0  0
   -7.3757    1.0442   -1.0939 H   0  0  0  0  0  0  0  0  0  0  0  0
   -6.3907    2.1213   -2.0773 H   0  0  0  0  0  0  0  0  0  0  0  0
   -5.3593   -0.3467   -0.5631 H   0  0  0  0  0  0  0  0  0  0  0  0
   -5.6596   -0.2223   -2.2944 H   0  0  0  0  0  0  0  0  0  0  0  0
   -3.9289    1.6699   -2.2329 H   0  0  0  0  0  0  0  0  0  0  0  0
   -1.7469    0.9680   -2.9919 H   0  0  0  0  0  0  0  0  0  0  0  0
   -1.5105    1.5959   -1.3437 H   0  0  0  0  0  0  0  0  0  0  0  0
   -0.3635   -0.6060   -0.7261 H   0  0  0  0  0  0  0  0  0  0  0  0
   -0.6146   -1.1590   -2.3789 H   0  0  0  0  0  0  0  0  0  0  0  0
    0.5862    2.0197   -0.5032 H   0  0  0  0  0  0  0  0  0  0  0  0
    2.1621    2.3447   -1.2114 H   0  0  0  0  0  0  0  0  0  0  0  0
    1.6043   -0.1796    0.4764 H   0  0  0  0  0  0  0  0  0  0  0  0
    2.1440    1.3375    1.1769 H   0  0  0  0  0  0  0  0  0  0  0  0
    3.2125   -1.5513   -0.0323 H   0  0  0  0  0  0  0  0  0  0  0  0
    5.3160   -1.4146   -1.3853 H   0  0  0  0  0  0  0  0  0  0  0  0
    6.0250   -0.5419   -0.0290 H   0  0  0  0  0  0  0  0  0  0  0  0
    4.9484   -3.4172   -0.0216 H   0  0  0  0  0  0  0  0  0  0  0  0
    6.6442   -2.9516    0.0062 H   0  0  0  0  0  0  0  0  0  0  0  0
    4.5985   -2.4138    2.2286 H   0  0  0  0  0  0  0  0  0  0  0  0
    6.2936   -0.6211    2.2530 H   0  0  0  0  0  0  0  0  0  0  0  0
    6.5923   -1.7241    3.5969 H   0  0  0  0  0  0  0  0  0  0  0  0
    7.6036   -1.8127    2.1429 H   0  0  0  0  0  0  0  0  0  0  0  0
    5.2480   -4.8064    1.9945 H   0  0  0  0  0  0  0  0  0  0  0  0
    5.8533   -4.1091    3.5021 H   0  0  0  0  0  0  0  0  0  0  0  0
    6.9578   -4.3628    2.1405 H   0  0  0  0  0  0  0  0  0  0  0  0
  1  2  1  0
  2  3  1  0
  2  4  1  0
  4  5  1  0
  5  6  1  0
  6  7  1  0
  7  8  2  0
  7  9  1  0
  9 10  1  0
 10 11  1  0
 11 12  1  0
 12 13  1  0
 13 14  1  0
 14 15  2  0
 14 16  1  0
 16 17  1  0
 17 18  1  0
 18 19  1  0
 19 20  1  0
 19 21  1  0
  1 22  1  0
  1 23  1  0
  1 24  1  0
  2 25  1  0
  3 26  1  0
  3 27  1  0
  3 28  1  0
  4 29  1  0
  4 30  1  0
  5 31  1  0
  5 32  1  0
  6 33  1  0
  9 34  1  0
  9 35  1  0
 10 36  1  0
 10 37  1  0
 12 38  1  0
 12 39  1  0
 13 40  1  0
 13 41  1  0
 16 42  1  0
 17 43  1  0
 17 44  1  0
 18 45  1  0
 18 46  1  0
 19 47  1  0
 20 48  1  0
 20 49  1  0
 20 50  1  0
 21 51  1  0
 21 52  1  0
 21 53  1  0
M  END
$$$$
