
     RDKit          3D

 36 37  0  0  0  0  0  0  0  0999 V2000
   -1.5835    1.0619    3.2795 O   0  0  0  0  0  0  0  0  0  0  0  0
   -1.0842    1.0057    2.1554 C   0  0  0  0  0  0  0  0  0  0  0  0
    0.0150    1.9673    1.7092 C   0  0  0  0  0  0  0  0  0  0  0  0
    1.2827    1.3322    1.5432 O   0  0  0  0  0  0  0  0  0  0  0  0
    1.5471    0.8296    0.3161 C   0  0  0  0  0  0  0  0  0  0  0  0
    0.7959    0.8548   -0.6462 O   0  0  0  0  0  0  0  0  0  0  0  0
    2.9094    0.2239    0.2896 C   0  0  0  0  0  0  0  0  0  0  0  0
    3.6801    0.0715    1.4551 C   0  0  0  0  0  0  0  0  0  0  0  0
    4.9508   -0.5101    1.3864 C   0  0  0  0  0  0  0  0  0  0  0  0
    5.4556   -0.9403    0.1583 C   0  0  0  0  0  0  0  0  0  0  0  0
    4.6922   -0.7870   -1.0023 C   0  0  0  0  0  0  0  0  0  0  0  0
    5.3181   -1.3159   -2.5166 Cl  0  0  0  0  0  0  0  0  0  0  0  0
    3.4221   -0.2110   -0.9449 C   0  0  0  0  0  0  0  0  0  0  0  0
   -1.4887    0.1055    1.1925 N   0  0  0  0  0  0  0  0  0  0  0  0
   -2.5812   -0.8213    1.4378 C   0  0  0  0  0  0  0  0  0  0  0  0
   -3.0380   -1.5660    0.1730 C   0  0  0  0  0  0  0  0  0  0  0  0
   -3.4779   -0.6583   -0.8799 N   0  0  0  0  0  0  0  0  0  0  0  0
   -2.6351   -0.1415   -1.8356 C   0  0  0  0  0  0  0  0  0  0  0  0
   -1.3434   -0.5712   -1.8605 O   0  0  0  0  0  0  0  0  0  0  0  0
   -3.1935    0.7802   -2.6329 C   0  0  0  0  0  0  0  0  0  0  0  0
   -4.8634    1.0484   -2.2156 S   0  0  0  0  0  0  0  0  0  0  0  0
   -4.7572   -0.1199   -0.8767 C   0  0  0  0  0  0  0  0  0  0  0  0
   -5.6731   -0.3558   -0.1076 O   0  0  0  0  0  0  0  0  0  0  0  0
   -0.3036    2.5035    0.8084 H   0  0  0  0  0  0  0  0  0  0  0  0
    0.1374    2.7209    2.4963 H   0  0  0  0  0  0  0  0  0  0  0  0
    3.3039    0.3972    2.4273 H   0  0  0  0  0  0  0  0  0  0  0  0
    5.5443   -0.6292    2.2928 H   0  0  0  0  0  0  0  0  0  0  0  0
    6.4431   -1.3914    0.1152 H   0  0  0  0  0  0  0  0  0  0  0  0
    2.8349   -0.1021   -1.8561 H   0  0  0  0  0  0  0  0  0  0  0  0
   -1.0251    0.0946    0.2821 H   0  0  0  0  0  0  0  0  0  0  0  0
   -3.4143   -0.2526    1.8745 H   0  0  0  0  0  0  0  0  0  0  0  0
   -2.2423   -1.5402    2.1986 H   0  0  0  0  0  0  0  0  0  0  0  0
   -3.8794   -2.2176    0.4362 H   0  0  0  0  0  0  0  0  0  0  0  0
   -2.2380   -2.2084   -0.2138 H   0  0  0  0  0  0  0  0  0  0  0  0
   -0.8052    0.0314   -2.4098 H   0  0  0  0  0  0  0  0  0  0  0  0
   -2.7054    1.3110   -3.4382 H   0  0  0  0  0  0  0  0  0  0  0  0
  1  2  2  0
  2  3  1  0
  3  4  1  0
  4  5  1  0
  5  6  2  0
  5  7  1  0
  7  8  2  0
  8  9  1  0
  9 10  2  0
 10 11  1  0
 11 12  1  0
 11 13  2  0
  2 14  1  0
 14 15  1  0
 15 16  1  0
 16 17  1  0
 17 18  1  0
 18 19  1  0
 18 20  2  0
 20 21  1  0
 21 22  1  0
 22 23  2  0
 13  7  1  0
 22 17  1  0
  3 24  1  0
  3 25  1  0
  8 26  1  0
  9 27  1  0
 10 28  1  0
 13 29  1  0
 14 30  1  0
 15 31  1  0
 15 32  1  0
 16 33  1  0
 16 34  1  0
 19 35  1  0
 20 36  1  0
M  END
$$$$
