
     RDKit          3D

 49 53  0  0  0  0  0  0  0  0999 V2000
    6.8141   -1.3476    2.5166 C   0  0  0  0  0  0  0  0  0  0  0  0
    5.4901   -0.6529    2.5578 C   0  0  0  0  0  0  0  0  0  0  0  0
    5.3168    0.7485    3.5140 S   0  0  0  0  0  0  0  0  0  0  0  0
    3.6872    0.9304    3.0789 C   0  0  0  0  0  0  0  0  0  0  0  0
    2.9796    1.9572    3.5794 N   0  0  0  0  0  0  0  0  0  0  0  0
    1.7187    1.9699    3.1561 C   0  0  0  0  0  0  0  0  0  0  0  0
    1.1386    1.1030    2.3199 N   0  0  0  0  0  0  0  0  0  0  0  0
    1.8853    0.0877    1.8344 C   0  0  0  0  0  0  0  0  0  0  0  0
    1.0932   -1.0661    0.7538 S   0  0  0  0  0  0  0  0  0  0  0  0
    0.0091    0.0605   -0.2118 C   0  0  0  0  0  0  0  0  0  0  0  0
    0.8286    0.9143   -1.1766 C   0  0  0  0  0  0  0  0  0  0  0  0
   -0.9981   -0.7716   -1.0315 C   0  0  0  0  0  0  0  0  0  0  0  0
   -0.6826   -1.8090   -1.6171 O   0  0  0  0  0  0  0  0  0  0  0  0
   -2.2567   -0.1528   -1.1494 N   0  0  0  0  0  0  0  0  0  0  0  0
   -3.1013   -0.0470    0.0166 C   0  0  0  0  0  0  0  0  0  0  0  0
   -2.7879   -0.8026    1.1699 C   0  0  0  0  0  0  0  0  0  0  0  0
   -3.5587   -0.7375    2.3344 C   0  0  0  0  0  0  0  0  0  0  0  0
   -4.6773    0.0779    2.3750 C   0  0  0  0  0  0  0  0  0  0  0  0
   -5.0249    0.8122    1.2455 C   0  0  0  0  0  0  0  0  0  0  0  0
   -4.2546    0.7476    0.0684 C   0  0  0  0  0  0  0  0  0  0  0  0
   -4.8179    1.7380   -1.2814 S   0  0  0  0  0  0  0  0  0  0  0  0
   -3.9082    1.0205   -2.6208 C   0  0  0  0  0  0  0  0  0  0  0  0
   -4.3552    1.3669   -3.9114 C   0  0  0  0  0  0  0  0  0  0  0  0
   -3.6719    0.9453   -5.0464 C   0  0  0  0  0  0  0  0  0  0  0  0
   -2.5247    0.1849   -4.8989 C   0  0  0  0  0  0  0  0  0  0  0  0
   -2.0752   -0.1609   -3.6194 C   0  0  0  0  0  0  0  0  0  0  0  0
   -2.7630    0.2253   -2.4476 C   0  0  0  0  0  0  0  0  0  0  0  0
    3.2364   -0.0528    2.2074 C   0  0  0  0  0  0  0  0  0  0  0  0
    4.3133   -0.9916    1.8994 C   0  0  0  0  0  0  0  0  0  0  0  0
    4.1882   -2.1774    0.9902 C   0  0  0  0  0  0  0  0  0  0  0  0
    7.5647   -0.8592    3.1467 H   0  0  0  0  0  0  0  0  0  0  0  0
    7.1996   -1.3645    1.4918 H   0  0  0  0  0  0  0  0  0  0  0  0
    6.7094   -2.3806    2.8645 H   0  0  0  0  0  0  0  0  0  0  0  0
    1.0916    2.7733    3.5301 H   0  0  0  0  0  0  0  0  0  0  0  0
   -0.5325    0.7173    0.4743 H   0  0  0  0  0  0  0  0  0  0  0  0
    1.5451    1.5527   -0.6499 H   0  0  0  0  0  0  0  0  0  0  0  0
    1.3787    0.2975   -1.8968 H   0  0  0  0  0  0  0  0  0  0  0  0
    0.1725    1.5734   -1.7565 H   0  0  0  0  0  0  0  0  0  0  0  0
   -1.9495   -1.4954    1.1848 H   0  0  0  0  0  0  0  0  0  0  0  0
   -3.2842   -1.3344    3.2010 H   0  0  0  0  0  0  0  0  0  0  0  0
   -5.2846    0.1350    3.2744 H   0  0  0  0  0  0  0  0  0  0  0  0
   -5.9132    1.4406    1.2865 H   0  0  0  0  0  0  0  0  0  0  0  0
   -5.2426    1.9850   -4.0383 H   0  0  0  0  0  0  0  0  0  0  0  0
   -4.0286    1.2188   -6.0356 H   0  0  0  0  0  0  0  0  0  0  0  0
   -1.9727   -0.1490   -5.7743 H   0  0  0  0  0  0  0  0  0  0  0  0
   -1.1728   -0.7653   -3.5815 H   0  0  0  0  0  0  0  0  0  0  0  0
    3.9069   -1.8594   -0.0184 H   0  0  0  0  0  0  0  0  0  0  0  0
    3.4414   -2.8785    1.3752 H   0  0  0  0  0  0  0  0  0  0  0  0
    5.1299   -2.7278    0.9015 H   0  0  0  0  0  0  0  0  0  0  0  0
  1  2  1  0
  2  3  1  0
  3  4  1  0
  4  5  2  0
  5  6  1  0
  6  7  2  0
  7  8  1  0
  8  9  1  0
  9 10  1  0
 10 11  1  0
 10 12  1  0
 12 13  2  0
 12 14  1  0
 14 15  1  0
 15 16  2  0
 16 17  1  0
 17 18  2  0
 18 19  1  0
 19 20  2  0
 20 21  1  0
 21 22  1  0
 22 23  2  0
 23 24  1  0
 24 25  2  0
 25 26  1  0
 26 27  2  0
  8 28  2  0
 28 29  1  0
 29 30  1  0
 29  2  2  0
 28  4  1  0
 27 14  1  0
 20 15  1  0
 27 22  1  0
  1 31  1  0
  1 32  1  0
  1 33  1  0
  6 34  1  0
 10 35  1  0
 11 36  1  0
 11 37  1  0
 11 38  1  0
 16 39  1  0
 17 40  1  0
 18 41  1  0
 19 42  1  0
 23 43  1  0
 24 44  1  0
 25 45  1  0
 26 46  1  0
 30 47  1  0
 30 48  1  0
 30 49  1  0
M  END
$$$$
