
     RDKit          3D

 39 41  0  0  0  0  0  0  0  0999 V2000
   -3.1235    0.1736    4.6244 C   0  0  0  0  0  0  0  0  0  0  0  0
   -3.8988   -0.0455    3.4522 O   0  0  0  0  0  0  0  0  0  0  0  0
   -3.3911    0.4341    2.2763 C   0  0  0  0  0  0  0  0  0  0  0  0
   -2.1892    1.1294    2.1244 C   0  0  0  0  0  0  0  0  0  0  0  0
   -1.7834    1.5639    0.8586 C   0  0  0  0  0  0  0  0  0  0  0  0
   -2.5778    1.2860   -0.2571 C   0  0  0  0  0  0  0  0  0  0  0  0
   -2.0617    1.8314   -1.8697 S   0  0  0  0  0  6  0  0  0  0  0  0
   -1.0992    2.8979   -1.6983 O   0  0  0  0  0  0  0  0  0  0  0  0
   -3.2546    2.0186   -2.6691 O   0  0  0  0  0  0  0  0  0  0  0  0
   -1.2861    0.4680   -2.5019 N   0  0  0  0  0  0  0  0  0  0  0  0
   -0.2376   -0.1446   -1.7602 C   0  0  0  0  0  0  0  0  0  0  0  0
   -0.4387   -1.4232   -1.2422 C   0  0  0  0  0  0  0  0  0  0  0  0
    0.5580   -2.0222   -0.4743 C   0  0  0  0  0  0  0  0  0  0  0  0
    1.7541   -1.3470   -0.2348 C   0  0  0  0  0  0  0  0  0  0  0  0
    2.6725   -2.0183    0.5243 O   0  0  0  0  0  0  0  0  0  0  0  0
    1.9716   -0.0598   -0.7466 C   0  0  0  0  0  0  0  0  0  0  0  0
    3.4236    0.9211   -0.3978 S   0  0  0  0  0  0  0  0  0  0  0  0
    4.6890   -0.0021   -1.1524 C   0  0  0  0  0  0  0  0  0  0  0  0
    4.9532   -1.3037   -0.8064 N   0  0  0  0  0  0  0  0  0  0  0  0
    5.9766   -1.6063   -1.5720 C   0  0  0  0  0  0  0  0  0  0  0  0
    6.3128   -0.5282   -2.3291 N   0  0  0  0  0  0  0  0  0  0  0  0
    5.5090    0.5143   -2.0704 N   0  0  0  0  0  0  0  0  0  0  0  0
    0.9576    0.5345   -1.5124 C   0  0  0  0  0  0  0  0  0  0  0  0
   -3.7908    0.6101   -0.1144 C   0  0  0  0  0  0  0  0  0  0  0  0
   -4.1884    0.1833    1.1538 C   0  0  0  0  0  0  0  0  0  0  0  0
   -3.0119    1.2435    4.8291 H   0  0  0  0  0  0  0  0  0  0  0  0
   -3.6595   -0.2724    5.4677 H   0  0  0  0  0  0  0  0  0  0  0  0
   -2.1486   -0.3197    4.5511 H   0  0  0  0  0  0  0  0  0  0  0  0
   -1.5451    1.3517    2.9692 H   0  0  0  0  0  0  0  0  0  0  0  0
   -0.8471    2.1085    0.7533 H   0  0  0  0  0  0  0  0  0  0  0  0
   -1.9381   -0.1386   -2.9965 H   0  0  0  0  0  0  0  0  0  0  0  0
   -1.3683   -1.9582   -1.4131 H   0  0  0  0  0  0  0  0  0  0  0  0
    0.4069   -3.0156   -0.0598 H   0  0  0  0  0  0  0  0  0  0  0  0
    3.5632   -1.6871    0.2805 H   0  0  0  0  0  0  0  0  0  0  0  0
    6.4979   -2.5520   -1.6188 H   0  0  0  0  0  0  0  0  0  0  0  0
    7.0533   -0.4291   -3.0152 H   0  0  0  0  0  0  0  0  0  0  0  0
    1.1004    1.5346   -1.9180 H   0  0  0  0  0  0  0  0  0  0  0  0
   -4.4294    0.4156   -0.9725 H   0  0  0  0  0  0  0  0  0  0  0  0
   -5.1309   -0.3466    1.2738 H   0  0  0  0  0  0  0  0  0  0  0  0
  1  2  1  0
  2  3  1  0
  3  4  2  0
  4  5  1  0
  5  6  2  0
  6  7  1  0
  7  8  2  0
  7  9  2  0
  7 10  1  0
 10 11  1  0
 11 12  2  0
 12 13  1  0
 13 14  2  0
 14 15  1  0
 14 16  1  0
 16 17  1  0
 17 18  1  0
 18 19  1  0
 19 20  2  0
 20 21  1  0
 21 22  1  0
 16 23  2  0
  6 24  1  0
 24 25  2  0
 25  3  1  0
 23 11  1  0
 22 18  2  0
  1 26  1  0
  1 27  1  0
  1 28  1  0
  4 29  1  0
  5 30  1  0
 10 31  1  0
 12 32  1  0
 13 33  1  0
 15 34  1  0
 20 35  1  0
 21 36  1  0
 23 37  1  0
 24 38  1  0
 25 39  1  0
M  END
$$$$
