
     RDKit          3D

 40 42  0  0  0  0  0  0  0  0999 V2000
   -4.2326   -1.9855    1.4353 C   0  0  0  0  0  0  0  0  0  0  0  0
   -4.4561   -0.5073    1.0664 C   0  0  0  0  0  0  0  0  0  0  0  0
   -4.9288    0.2328    2.3365 C   0  0  0  0  0  0  0  0  0  0  0  0
   -5.5703   -0.3986    0.0094 C   0  0  0  0  0  0  0  0  0  0  0  0
   -3.1705    0.1229    0.5510 C   0  0  0  0  0  0  0  0  0  0  0  0
   -2.5860    1.1802    1.0826 N   0  0  0  0  0  0  0  0  0  0  0  0
   -1.4357    1.5403    0.4129 N   0  0  0  0  0  0  0  0  0  0  0  0
   -1.1815    0.7451   -0.6005 C   0  0  0  0  0  0  0  0  0  0  0  0
   -0.0859    0.9163   -1.4048 N   0  0  0  0  0  0  0  0  0  0  0  0
    0.3093    0.1251   -2.4588 C   0  0  0  0  0  0  0  0  0  0  0  0
   -0.2617   -0.8687   -2.8968 O   0  0  0  0  0  0  0  0  0  0  0  0
    1.5935    0.6372   -3.1219 C   0  0  0  0  0  0  0  0  0  0  0  0
    2.4337    1.4046   -2.2690 O   0  0  0  0  0  0  0  0  0  0  0  0
    3.2439    0.7365   -1.3897 C   0  0  0  0  0  0  0  0  0  0  0  0
    3.2566   -0.6542   -1.1702 C   0  0  0  0  0  0  0  0  0  0  0  0
    4.1219   -1.2190   -0.2237 C   0  0  0  0  0  0  0  0  0  0  0  0
    4.9510   -0.3736    0.4792 C   0  0  0  0  0  0  0  0  0  0  0  0
    4.9405    0.9831    0.2682 C   0  0  0  0  0  0  0  0  0  0  0  0
    4.0999    1.5664   -0.6556 C   0  0  0  0  0  0  0  0  0  0  0  0
    5.8301    1.6385    1.0607 O   0  0  0  0  0  0  0  0  0  0  0  0
    6.3975    0.5368    1.8002 C   0  0  0  0  0  0  0  0  0  0  0  0
    5.8474   -0.7452    1.4307 O   0  0  0  0  0  0  0  0  0  0  0  0
   -2.3268   -0.4913   -0.8241 S   0  0  0  0  0  0  0  0  0  0  0  0
   -3.9771   -2.5925    0.5593 H   0  0  0  0  0  0  0  0  0  0  0  0
   -3.4183   -2.0954    2.1613 H   0  0  0  0  0  0  0  0  0  0  0  0
   -5.1355   -2.4223    1.8776 H   0  0  0  0  0  0  0  0  0  0  0  0
   -5.1232    1.2928    2.1335 H   0  0  0  0  0  0  0  0  0  0  0  0
   -4.1759    0.1814    3.1325 H   0  0  0  0  0  0  0  0  0  0  0  0
   -5.8550   -0.2031    2.7288 H   0  0  0  0  0  0  0  0  0  0  0  0
   -5.3304   -0.9657   -0.8971 H   0  0  0  0  0  0  0  0  0  0  0  0
   -6.5192   -0.7893    0.3946 H   0  0  0  0  0  0  0  0  0  0  0  0
   -5.7344    0.6439   -0.2885 H   0  0  0  0  0  0  0  0  0  0  0  0
    0.5168    1.6830   -1.1275 H   0  0  0  0  0  0  0  0  0  0  0  0
    2.1408   -0.1914   -3.5862 H   0  0  0  0  0  0  0  0  0  0  0  0
    1.2779    1.2994   -3.9364 H   0  0  0  0  0  0  0  0  0  0  0  0
    2.6039   -1.3317   -1.7127 H   0  0  0  0  0  0  0  0  0  0  0  0
    4.1380   -2.2888   -0.0459 H   0  0  0  0  0  0  0  0  0  0  0  0
    4.1069    2.6404   -0.8054 H   0  0  0  0  0  0  0  0  0  0  0  0
    6.2162    0.7016    2.8687 H   0  0  0  0  0  0  0  0  0  0  0  0
    7.4792    0.5174    1.6256 H   0  0  0  0  0  0  0  0  0  0  0  0
  1  2  1  0
  2  3  1  0
  2  4  1  0
  2  5  1  0
  5  6  2  0
  6  7  1  0
  7  8  2  0
  8  9  1  0
  9 10  1  0
 10 11  2  0
 10 12  1  0
 12 13  1  0
 13 14  1  0
 14 15  2  0
 15 16  1  0
 16 17  2  0
 17 18  1  0
 18 19  2  0
 18 20  1  0
 20 21  1  0
 21 22  1  0
  8 23  1  0
 23  5  1  0
 19 14  1  0
 22 17  1  0
  1 24  1  0
  1 25  1  0
  1 26  1  0
  3 27  1  0
  3 28  1  0
  3 29  1  0
  4 30  1  0
  4 31  1  0
  4 32  1  0
  9 33  1  0
 12 34  1  0
 12 35  1  0
 15 36  1  0
 16 37  1  0
 19 38  1  0
 21 39  1  0
 21 40  1  0
M  END
$$$$
