
     RDKit          3D

 47 50  0  0  0  0  0  0  0  0999 V2000
   -9.1457   -2.7882   -0.0032 C   0  0  0  0  0  0  0  0  0  0  0  0
   -7.8619   -2.1667    0.0769 O   0  0  0  0  0  0  0  0  0  0  0  0
   -7.6259   -1.2604   -0.9032 C   0  0  0  0  0  0  0  0  0  0  0  0
   -8.3962   -0.9626   -1.8028 O   0  0  0  0  0  0  0  0  0  0  0  0
   -6.2721   -0.6588   -0.7503 C   0  0  0  0  0  0  0  0  0  0  0  0
   -5.8454    0.2517   -1.7218 C   0  0  0  0  0  0  0  0  0  0  0  0
   -4.5886    0.8454   -1.6195 C   0  0  0  0  0  0  0  0  0  0  0  0
   -3.7427    0.5351   -0.5492 C   0  0  0  0  0  0  0  0  0  0  0  0
   -4.1422   -0.3829    0.4290 C   0  0  0  0  0  0  0  0  0  0  0  0
   -3.3227   -0.7310    1.5439 N   0  0  0  0  0  0  0  0  0  0  0  0
   -3.8633   -1.4233    2.5875 N   0  0  0  0  0  0  0  0  0  0  0  0
   -2.9182   -1.5341    3.5057 N   0  0  0  0  0  0  0  0  0  0  0  0
   -1.7514   -0.9775    3.0762 N   0  0  0  0  0  0  0  0  0  0  0  0
   -1.9878   -0.5099    1.8692 C   0  0  0  0  0  0  0  0  0  0  0  0
   -0.7492    0.1349    0.8465 S   0  0  0  0  0  0  0  0  0  0  0  0
    0.5012    0.5835    2.0862 C   0  0  0  0  0  0  0  0  0  0  0  0
    1.6670    1.2600    1.3838 C   0  0  0  0  0  0  0  0  0  0  0  0
    1.6286    2.4616    1.1344 O   0  0  0  0  0  0  0  0  0  0  0  0
    2.6826    0.3799    1.0783 N   0  0  0  0  0  0  0  0  0  0  0  0
    3.8568    0.6581    0.4295 C   0  0  0  0  0  0  0  0  0  0  0  0
    4.7320   -0.2961    0.1982 N   0  0  0  0  0  0  0  0  0  0  0  0
    5.8192    0.2382   -0.4611 C   0  0  0  0  0  0  0  0  0  0  0  0
    5.7407    1.5899   -0.7240 C   0  0  0  0  0  0  0  0  0  0  0  0
    4.2815    2.2173   -0.1199 S   0  0  0  0  0  0  0  0  0  0  0  0
    6.7890    2.3998   -1.4059 C   0  0  0  0  0  0  0  0  0  0  0  0
    7.7848    1.4710   -2.1267 C   0  0  0  0  0  0  0  0  0  0  0  0
    8.1879    0.2655   -1.2574 C   0  0  0  0  0  0  0  0  0  0  0  0
    6.9749   -0.6051   -0.8811 C   0  0  0  0  0  0  0  0  0  0  0  0
   -5.4214   -0.9693    0.3236 C   0  0  0  0  0  0  0  0  0  0  0  0
   -9.2356   -3.4893    0.8312 H   0  0  0  0  0  0  0  0  0  0  0  0
   -9.9403   -2.0404    0.0852 H   0  0  0  0  0  0  0  0  0  0  0  0
   -9.2412   -3.3488   -0.9382 H   0  0  0  0  0  0  0  0  0  0  0  0
   -6.4923    0.5072   -2.5600 H   0  0  0  0  0  0  0  0  0  0  0  0
   -4.2686    1.5633   -2.3730 H   0  0  0  0  0  0  0  0  0  0  0  0
   -2.7990    1.0669   -0.5151 H   0  0  0  0  0  0  0  0  0  0  0  0
    0.0853    1.2845    2.8176 H   0  0  0  0  0  0  0  0  0  0  0  0
    0.8447   -0.3057    2.6250 H   0  0  0  0  0  0  0  0  0  0  0  0
    2.5948   -0.6000    1.3098 H   0  0  0  0  0  0  0  0  0  0  0  0
    6.3474    3.0964   -2.1266 H   0  0  0  0  0  0  0  0  0  0  0  0
    7.3258    2.9929   -0.6555 H   0  0  0  0  0  0  0  0  0  0  0  0
    7.3322    1.1015   -3.0564 H   0  0  0  0  0  0  0  0  0  0  0  0
    8.6759    2.0427   -2.4112 H   0  0  0  0  0  0  0  0  0  0  0  0
    8.9266   -0.3471   -1.7865 H   0  0  0  0  0  0  0  0  0  0  0  0
    8.6716    0.6332   -0.3430 H   0  0  0  0  0  0  0  0  0  0  0  0
    7.2514   -1.2975   -0.0782 H   0  0  0  0  0  0  0  0  0  0  0  0
    6.6733   -1.2054   -1.7476 H   0  0  0  0  0  0  0  0  0  0  0  0
   -5.7634   -1.6807    1.0754 H   0  0  0  0  0  0  0  0  0  0  0  0
  1  2  1  0
  2  3  1  0
  3  4  2  0
  3  5  1  0
  5  6  2  0
  6  7  1  0
  7  8  2  0
  8  9  1  0
  9 10  1  0
 10 11  1  0
 11 12  2  0
 12 13  1  0
 13 14  2  0
 14 15  1  0
 15 16  1  0
 16 17  1  0
 17 18  2  0
 17 19  1  0
 19 20  1  0
 20 21  2  0
 21 22  1  0
 22 23  2  0
 23 24  1  0
 23 25  1  0
 25 26  1  0
 26 27  1  0
 27 28  1  0
  9 29  2  0
 29  5  1  0
 14 10  1  0
 24 20  1  0
 28 22  1  0
  1 30  1  0
  1 31  1  0
  1 32  1  0
  6 33  1  0
  7 34  1  0
  8 35  1  0
 16 36  1  0
 16 37  1  0
 19 38  1  0
 25 39  1  0
 25 40  1  0
 26 41  1  0
 26 42  1  0
 27 43  1  0
 27 44  1  0
 28 45  1  0
 28 46  1  0
 29 47  1  0
M  END
$$$$
