
     RDKit          3D

 49 53  0  0  0  0  0  0  0  0999 V2000
   -6.1984    0.7474    0.2230 C   0  0  0  0  0  0  0  0  0  0  0  0
   -4.8758    0.1804   -0.2018 C   0  0  0  0  0  0  0  0  0  0  0  0
   -4.4464    0.3019   -1.5305 C   0  0  0  0  0  0  0  0  0  0  0  0
   -3.2356   -0.2595   -1.9436 C   0  0  0  0  0  0  0  0  0  0  0  0
   -2.4407   -0.9540   -1.0342 C   0  0  0  0  0  0  0  0  0  0  0  0
   -2.8636   -1.0733    0.2924 C   0  0  0  0  0  0  0  0  0  0  0  0
   -1.8650   -1.9613    1.4634 S   0  0  0  0  0  6  0  0  0  0  0  0
   -0.8715   -2.7219    0.7306 O   0  0  0  0  0  0  0  0  0  0  0  0
   -2.7564   -2.6125    2.3986 O   0  0  0  0  0  0  0  0  0  0  0  0
   -1.0619   -0.7575    2.3182 N   0  0  0  0  0  0  0  0  0  0  0  0
   -0.3829    0.2146    1.5404 C   0  0  0  0  0  0  0  0  0  0  0  0
   -1.0477    1.3874    1.5726 N   0  0  0  0  0  0  0  0  0  0  0  0
   -0.5397    2.3668    0.8052 C   0  0  0  0  0  0  0  0  0  0  0  0
   -1.1698    3.6047    0.7706 C   0  0  0  0  0  0  0  0  0  0  0  0
   -0.6777    4.6478   -0.0152 C   0  0  0  0  0  0  0  0  0  0  0  0
    0.4643    4.4498   -0.7800 C   0  0  0  0  0  0  0  0  0  0  0  0
    1.1043    3.2100   -0.7538 C   0  0  0  0  0  0  0  0  0  0  0  0
    0.6235    2.1643    0.0234 C   0  0  0  0  0  0  0  0  0  0  0  0
    1.2722    0.9837    0.0169 N   0  0  0  0  0  0  0  0  0  0  0  0
    0.7785   -0.0214    0.7747 C   0  0  0  0  0  0  0  0  0  0  0  0
    1.4403   -1.2702    0.8433 N   0  0  0  0  0  0  0  0  0  0  0  0
    2.6730   -1.6653    0.2777 C   0  0  0  0  0  0  0  0  0  0  0  0
    2.8969   -3.0474    0.0571 C   0  0  0  0  0  0  0  0  0  0  0  0
    4.1103   -3.5243   -0.4524 C   0  0  0  0  0  0  0  0  0  0  0  0
    5.0961   -2.6021   -0.7143 C   0  0  0  0  0  0  0  0  0  0  0  0
    4.9071   -1.2620   -0.4802 C   0  0  0  0  0  0  0  0  0  0  0  0
    3.7191   -0.7681    0.0219 C   0  0  0  0  0  0  0  0  0  0  0  0
    6.0079   -0.5228   -0.7877 O   0  0  0  0  0  0  0  0  0  0  0  0
    6.9058   -1.5530   -1.2482 C   0  0  0  0  0  0  0  0  0  0  0  0
    6.3345   -2.8767   -1.2027 O   0  0  0  0  0  0  0  0  0  0  0  0
   -4.0833   -0.5285    0.7089 C   0  0  0  0  0  0  0  0  0  0  0  0
   -6.4447    1.6420   -0.3586 H   0  0  0  0  0  0  0  0  0  0  0  0
   -6.9878    0.0032    0.0797 H   0  0  0  0  0  0  0  0  0  0  0  0
   -6.1759    1.0420    1.2775 H   0  0  0  0  0  0  0  0  0  0  0  0
   -5.0586    0.8327   -2.2572 H   0  0  0  0  0  0  0  0  0  0  0  0
   -2.9164   -0.1589   -2.9785 H   0  0  0  0  0  0  0  0  0  0  0  0
   -1.5028   -1.3918   -1.3689 H   0  0  0  0  0  0  0  0  0  0  0  0
   -1.6787   -0.3140    2.9956 H   0  0  0  0  0  0  0  0  0  0  0  0
   -2.0649    3.7601    1.3681 H   0  0  0  0  0  0  0  0  0  0  0  0
   -1.1863    5.6087   -0.0269 H   0  0  0  0  0  0  0  0  0  0  0  0
    0.8599    5.2536   -1.3962 H   0  0  0  0  0  0  0  0  0  0  0  0
    1.9989    3.0533   -1.3525 H   0  0  0  0  0  0  0  0  0  0  0  0
    0.7539   -2.0303    0.8211 H   0  0  0  0  0  0  0  0  0  0  0  0
    2.1100   -3.7660    0.2806 H   0  0  0  0  0  0  0  0  0  0  0  0
    4.2697   -4.5818   -0.6275 H   0  0  0  0  0  0  0  0  0  0  0  0
    3.6234    0.2930    0.2168 H   0  0  0  0  0  0  0  0  0  0  0  0
    7.1934   -1.3308   -2.2823 H   0  0  0  0  0  0  0  0  0  0  0  0
    7.8060   -1.5384   -0.6229 H   0  0  0  0  0  0  0  0  0  0  0  0
   -4.4166   -0.6537    1.7372 H   0  0  0  0  0  0  0  0  0  0  0  0
  1  2  1  0
  2  3  2  0
  3  4  1  0
  4  5  2  0
  5  6  1  0
  6  7  1  0
  7  8  2  0
  7  9  2  0
  7 10  1  0
 10 11  1  0
 11 12  2  0
 12 13  1  0
 13 14  2  0
 14 15  1  0
 15 16  2  0
 16 17  1  0
 17 18  2  0
 18 19  1  0
 19 20  2  0
 20 21  1  0
 21 22  1  0
 22 23  2  0
 23 24  1  0
 24 25  2  0
 25 26  1  0
 26 27  2  0
 26 28  1  0
 28 29  1  0
 29 30  1  0
  6 31  2  0
 31  2  1  0
 20 11  1  0
 27 22  1  0
 18 13  1  0
 30 25  1  0
  1 32  1  0
  1 33  1  0
  1 34  1  0
  3 35  1  0
  4 36  1  0
  5 37  1  0
 10 38  1  0
 14 39  1  0
 15 40  1  0
 16 41  1  0
 17 42  1  0
 21 43  1  0
 23 44  1  0
 24 45  1  0
 27 46  1  0
 29 47  1  0
 29 48  1  0
 31 49  1  0
M  END
$$$$
