
     RDKit          3D

 57 59  0  0  0  0  0  0  0  0999 V2000
    8.7405   -4.1683    0.1034 C   0  0  0  0  0  0  0  0  0  0  0  0
    8.3326   -2.8065    0.0809 O   0  0  0  0  0  0  0  0  0  0  0  0
    7.0651   -2.5478   -0.3622 C   0  0  0  0  0  0  0  0  0  0  0  0
    6.1293   -3.4962   -0.7745 C   0  0  0  0  0  0  0  0  0  0  0  0
    4.8624   -3.0920   -1.2130 C   0  0  0  0  0  0  0  0  0  0  0  0
    4.5180   -1.7345   -1.2514 C   0  0  0  0  0  0  0  0  0  0  0  0
    3.1539   -1.2950   -1.7136 C   0  0  0  0  0  0  0  0  0  0  0  0
    2.2683   -1.0952   -0.5975 N   0  0  0  0  0  0  0  0  0  0  0  0
    2.0340    0.1462   -0.0565 C   0  0  0  0  0  0  0  0  0  0  0  0
    2.4597    1.2135   -0.4759 O   0  0  0  0  0  0  0  0  0  0  0  0
    1.1383    0.1060    1.2037 C   0  0  0  0  0  0  0  0  0  0  0  0
    0.8952   -0.9612    1.7529 O   0  0  0  0  0  0  0  0  0  0  0  0
    0.6544    1.3413    1.5804 N   0  0  0  0  0  0  0  0  0  0  0  0
   -0.3941    1.4601    2.5741 C   0  0  0  0  0  0  0  0  0  0  0  0
   -1.8445    1.3605    2.0280 C   0  0  0  0  0  0  0  0  0  0  0  0
   -2.7160    0.8655    3.0630 O   0  0  0  0  0  0  0  0  0  0  0  0
   -2.8184   -0.5498    2.8473 C   0  0  0  0  0  0  0  0  0  0  0  0
   -2.8325   -0.6866    1.3398 C   0  0  0  0  0  0  0  0  0  0  0  0
   -1.9554    0.4033    0.9188 N   0  0  0  0  0  0  0  0  0  0  0  0
   -1.9990    0.9835   -0.6455 S   0  0  0  0  0  6  0  0  0  0  0  0
   -1.9583   -0.1560   -1.5375 O   0  0  0  0  0  0  0  0  0  0  0  0
   -1.0177    2.0443   -0.7450 O   0  0  0  0  0  0  0  0  0  0  0  0
   -3.6081    1.7288   -0.8049 C   0  0  0  0  0  0  0  0  0  0  0  0
   -4.6818    0.9633   -1.2704 C   0  0  0  0  0  0  0  0  0  0  0  0
   -5.9412    1.5518   -1.4282 C   0  0  0  0  0  0  0  0  0  0  0  0
   -6.1239    2.9065   -1.1409 C   0  0  0  0  0  0  0  0  0  0  0  0
   -7.2964    3.6008   -1.2519 O   0  0  0  0  0  0  0  0  0  0  0  0
   -8.4506    2.8616   -1.6337 C   0  0  0  0  0  0  0  0  0  0  0  0
   -5.0345    3.6708   -0.7095 C   0  0  0  0  0  0  0  0  0  0  0  0
   -3.7742    3.0914   -0.5485 C   0  0  0  0  0  0  0  0  0  0  0  0
    5.4574   -0.7888   -0.8227 C   0  0  0  0  0  0  0  0  0  0  0  0
    6.7199   -1.1950   -0.3854 C   0  0  0  0  0  0  0  0  0  0  0  0
    9.7730   -4.2020    0.4631 H   0  0  0  0  0  0  0  0  0  0  0  0
    8.7252   -4.6030   -0.9015 H   0  0  0  0  0  0  0  0  0  0  0  0
    8.1273   -4.7519    0.7968 H   0  0  0  0  0  0  0  0  0  0  0  0
    6.3507   -4.5580   -0.7675 H   0  0  0  0  0  0  0  0  0  0  0  0
    4.1468   -3.8484   -1.5279 H   0  0  0  0  0  0  0  0  0  0  0  0
    3.2340   -0.3779   -2.3089 H   0  0  0  0  0  0  0  0  0  0  0  0
    2.7032   -2.0596   -2.3564 H   0  0  0  0  0  0  0  0  0  0  0  0
    1.9440   -1.8917   -0.0586 H   0  0  0  0  0  0  0  0  0  0  0  0
    0.7729    2.0756    0.8825 H   0  0  0  0  0  0  0  0  0  0  0  0
   -0.2667    2.4287    3.0701 H   0  0  0  0  0  0  0  0  0  0  0  0
   -0.2272    0.6990    3.3453 H   0  0  0  0  0  0  0  0  0  0  0  0
   -2.2004    2.3568    1.7528 H   0  0  0  0  0  0  0  0  0  0  0  0
   -3.7270   -0.9355    3.3186 H   0  0  0  0  0  0  0  0  0  0  0  0
   -1.9475   -1.0414    3.2955 H   0  0  0  0  0  0  0  0  0  0  0  0
   -2.4667   -1.6634    1.0151 H   0  0  0  0  0  0  0  0  0  0  0  0
   -3.8507   -0.5357    0.9723 H   0  0  0  0  0  0  0  0  0  0  0  0
   -4.5475   -0.0881   -1.5185 H   0  0  0  0  0  0  0  0  0  0  0  0
   -6.7542    0.9289   -1.7873 H   0  0  0  0  0  0  0  0  0  0  0  0
   -8.3406    2.4538   -2.6441 H   0  0  0  0  0  0  0  0  0  0  0  0
   -8.6709    2.0705   -0.9084 H   0  0  0  0  0  0  0  0  0  0  0  0
   -9.3010    3.5506   -1.6432 H   0  0  0  0  0  0  0  0  0  0  0  0
   -5.1708    4.7315   -0.5055 H   0  0  0  0  0  0  0  0  0  0  0  0
   -2.9376    3.7117   -0.2357 H   0  0  0  0  0  0  0  0  0  0  0  0
    5.2092    0.2715   -0.8266 H   0  0  0  0  0  0  0  0  0  0  0  0
    7.4402   -0.4486   -0.0597 H   0  0  0  0  0  0  0  0  0  0  0  0
  1  2  1  0
  2  3  1  0
  3  4  2  0
  4  5  1  0
  5  6  2  0
  6  7  1  0
  7  8  1  0
  8  9  1  0
  9 10  2  0
  9 11  1  0
 11 12  2  0
 11 13  1  0
 13 14  1  0
 14 15  1  0
 15 16  1  0
 16 17  1  0
 17 18  1  0
 18 19  1  0
 19 20  1  0
 20 21  2  0
 20 22  2  0
 20 23  1  0
 23 24  2  0
 24 25  1  0
 25 26  2  0
 26 27  1  0
 27 28  1  0
 26 29  1  0
 29 30  2  0
  6 31  1  0
 31 32  2  0
 32  3  1  0
 19 15  1  0
 30 23  1  0
  1 33  1  0
  1 34  1  0
  1 35  1  0
  4 36  1  0
  5 37  1  0
  7 38  1  0
  7 39  1  0
  8 40  1  0
 13 41  1  0
 14 42  1  0
 14 43  1  0
 15 44  1  0
 17 45  1  0
 17 46  1  0
 18 47  1  0
 18 48  1  0
 24 49  1  0
 25 50  1  0
 28 51  1  0
 28 52  1  0
 28 53  1  0
 29 54  1  0
 30 55  1  0
 31 56  1  0
 32 57  1  0
M  END
$$$$
