
     RDKit          3D

 38 38  0  0  0  0  0  0  0  0999 V2000
    6.4181    2.8582    2.3352 C   0  0  0  0  0  0  0  0  0  0  0  0
    5.7169    2.4886    1.1546 O   0  0  0  0  0  0  0  0  0  0  0  0
    4.4969    1.8112    1.4615 C   0  0  0  0  0  0  0  0  0  0  0  0
    3.8277    1.3837    0.1542 C   0  0  0  0  0  0  0  0  0  0  0  0
    2.4732    0.8919    0.3339 N   0  0  0  0  0  0  0  0  0  0  0  0
    2.2253   -0.3437    0.8905 C   0  0  0  0  0  0  0  0  0  0  0  0
    3.1066   -1.1032    1.2730 O   0  0  0  0  0  0  0  0  0  0  0  0
    0.7816   -0.6843    1.0467 C   0  0  0  0  0  0  0  0  0  0  0  0
    0.3906   -1.1687    2.3226 C   0  0  0  0  0  0  0  0  0  0  0  0
    0.0491   -1.5352    3.3703 N   0  0  0  0  0  0  0  0  0  0  0  0
   -0.0078   -0.5738   -0.0421 C   0  0  0  0  0  0  0  0  0  0  0  0
   -1.4406   -0.8328   -0.2356 C   0  0  0  0  0  0  0  0  0  0  0  0
   -2.3115   -1.1639    0.9524 C   0  0  0  0  0  0  0  0  0  0  0  0
   -1.9335   -0.7394   -1.4902 C   0  0  0  0  0  0  0  0  0  0  0  0
   -3.3276   -0.9723   -1.8797 C   0  0  0  0  0  0  0  0  0  0  0  0
   -4.1824    0.1128   -2.0986 C   0  0  0  0  0  0  0  0  0  0  0  0
   -5.5104   -0.1052   -2.4704 C   0  0  0  0  0  0  0  0  0  0  0  0
   -5.9875   -1.4064   -2.6262 C   0  0  0  0  0  0  0  0  0  0  0  0
   -5.1387   -2.4914   -2.4102 C   0  0  0  0  0  0  0  0  0  0  0  0
   -3.8106   -2.2759   -2.0380 C   0  0  0  0  0  0  0  0  0  0  0  0
    7.3378    3.3720    2.0424 H   0  0  0  0  0  0  0  0  0  0  0  0
    6.6837    1.9705    2.9173 H   0  0  0  0  0  0  0  0  0  0  0  0
    5.8140    3.5403    2.9412 H   0  0  0  0  0  0  0  0  0  0  0  0
    4.7024    0.9375    2.0904 H   0  0  0  0  0  0  0  0  0  0  0  0
    3.8381    2.4908    2.0154 H   0  0  0  0  0  0  0  0  0  0  0  0
    4.4274    0.6053   -0.3319 H   0  0  0  0  0  0  0  0  0  0  0  0
    3.7779    2.2290   -0.5411 H   0  0  0  0  0  0  0  0  0  0  0  0
    1.7096    1.5310    0.1510 H   0  0  0  0  0  0  0  0  0  0  0  0
    0.4907   -0.2572   -0.9625 H   0  0  0  0  0  0  0  0  0  0  0  0
   -3.3771   -1.2088    0.7092 H   0  0  0  0  0  0  0  0  0  0  0  0
   -2.2149   -0.3966    1.7278 H   0  0  0  0  0  0  0  0  0  0  0  0
   -2.0426   -2.1410    1.3661 H   0  0  0  0  0  0  0  0  0  0  0  0
   -1.2954   -0.4843   -2.3346 H   0  0  0  0  0  0  0  0  0  0  0  0
   -3.8229    1.1315   -1.9772 H   0  0  0  0  0  0  0  0  0  0  0  0
   -6.1734    0.7398   -2.6374 H   0  0  0  0  0  0  0  0  0  0  0  0
   -7.0218   -1.5752   -2.9151 H   0  0  0  0  0  0  0  0  0  0  0  0
   -5.5109   -3.5055   -2.5307 H   0  0  0  0  0  0  0  0  0  0  0  0
   -3.1577   -3.1293   -1.8706 H   0  0  0  0  0  0  0  0  0  0  0  0
  1  2  1  0
  2  3  1  0
  3  4  1  0
  4  5  1  0
  5  6  1  0
  6  7  2  0
  6  8  1  0
  8  9  1  0
  9 10  3  0
  8 11  2  3
 11 12  1  0
 12 13  1  0
 12 14  2  3
 14 15  1  0
 15 16  2  0
 16 17  1  0
 17 18  2  0
 18 19  1  0
 19 20  2  0
 20 15  1  0
  1 21  1  0
  1 22  1  0
  1 23  1  0
  3 24  1  0
  3 25  1  0
  4 26  1  0
  4 27  1  0
  5 28  1  0
 11 29  1  0
 13 30  1  0
 13 31  1  0
 13 32  1  0
 14 33  1  0
 16 34  1  0
 17 35  1  0
 18 36  1  0
 19 37  1  0
 20 38  1  0
M  END
$$$$
