
     RDKit          3D

 60 63  0  0  0  0  0  0  0  0999 V2000
    5.9699    4.9512    1.2264 C   0  0  0  0  0  0  0  0  0  0  0  0
    6.0850    3.5409    1.7798 C   0  0  0  0  0  0  0  0  0  0  0  0
    5.1262    2.6780    1.1631 O   0  0  0  0  0  0  0  0  0  0  0  0
    5.4790    1.9745    0.0437 C   0  0  0  0  0  0  0  0  0  0  0  0
    6.6615    2.1695   -0.6802 C   0  0  0  0  0  0  0  0  0  0  0  0
    6.9368    1.4031   -1.8174 C   0  0  0  0  0  0  0  0  0  0  0  0
    6.0341    0.4368   -2.2495 C   0  0  0  0  0  0  0  0  0  0  0  0
    4.8489    0.2360   -1.5461 C   0  0  0  0  0  0  0  0  0  0  0  0
    4.5688    1.0024   -0.4058 C   0  0  0  0  0  0  0  0  0  0  0  0
    3.2990    0.7729    0.3212 C   0  0  0  0  0  0  0  0  0  0  0  0
    2.4628   -0.1466   -0.0463 N   0  0  0  0  0  0  0  0  0  0  0  0
    1.3318   -0.2441    0.7087 N   0  0  0  0  0  0  0  0  0  0  0  0
    0.3693   -1.2051    0.4312 C   0  0  0  0  0  0  0  0  0  0  0  0
    0.4435   -2.0384   -0.4654 O   0  0  0  0  0  0  0  0  0  0  0  0
   -0.7519   -1.1442    1.3686 C   0  0  0  0  0  0  0  0  0  0  0  0
   -0.7081   -0.3860    2.5077 N   0  0  0  0  0  0  0  0  0  0  0  0
   -1.8451   -0.5504    3.1572 N   0  0  0  0  0  0  0  0  0  0  0  0
   -2.6469   -1.4107    2.4555 N   0  0  0  0  0  0  0  0  0  0  0  0
   -3.9215   -1.7793    2.9576 C   0  0  0  0  0  0  0  0  0  0  0  0
   -4.6936   -2.6661    2.3290 N   0  0  0  0  0  0  0  0  0  0  0  0
   -5.8311   -2.7582    3.1265 O   0  0  0  0  0  0  0  0  0  0  0  0
   -5.7326   -1.9341    4.2416 N   0  0  0  0  0  0  0  0  0  0  0  0
   -4.5516   -1.3265    4.1340 C   0  0  0  0  0  0  0  0  0  0  0  0
   -4.0750   -0.4299    5.0192 N   0  0  0  0  0  0  0  0  0  0  0  0
   -1.9802   -1.7878    1.2945 C   0  0  0  0  0  0  0  0  0  0  0  0
   -2.5060   -2.6622    0.2124 C   0  0  0  0  0  0  0  0  0  0  0  0
   -2.8975   -1.8401   -0.9357 N   0  0  0  0  0  0  0  0  0  0  0  0
   -2.7199   -2.5369   -2.2078 C   0  0  0  0  0  0  0  0  0  0  0  0
   -2.7785   -1.5324   -3.3683 C   0  0  0  0  0  0  0  0  0  0  0  0
   -3.8564   -0.4460   -3.1957 C   0  0  0  0  0  0  0  0  0  0  0  0
   -3.2342    0.9087   -2.8404 C   0  0  0  0  0  0  0  0  0  0  0  0
   -4.8851   -0.8804   -2.1492 C   0  0  0  0  0  0  0  0  0  0  0  0
   -4.2459   -1.2693   -0.8063 C   0  0  0  0  0  0  0  0  0  0  0  0
    6.1717    4.9805    0.1522 H   0  0  0  0  0  0  0  0  0  0  0  0
    4.9531    5.3331    1.3662 H   0  0  0  0  0  0  0  0  0  0  0  0
    6.6698    5.6241    1.7314 H   0  0  0  0  0  0  0  0  0  0  0  0
    7.1069    3.1479    1.7227 H   0  0  0  0  0  0  0  0  0  0  0  0
    5.8379    3.5666    2.8468 H   0  0  0  0  0  0  0  0  0  0  0  0
    7.3923    2.9191   -0.3984 H   0  0  0  0  0  0  0  0  0  0  0  0
    7.8600    1.5649   -2.3697 H   0  0  0  0  0  0  0  0  0  0  0  0
    6.2474   -0.1575   -3.1340 H   0  0  0  0  0  0  0  0  0  0  0  0
    4.1434   -0.5180   -1.8914 H   0  0  0  0  0  0  0  0  0  0  0  0
    3.0902    1.4180    1.1923 H   0  0  0  0  0  0  0  0  0  0  0  0
    1.1830    0.3873    1.4901 H   0  0  0  0  0  0  0  0  0  0  0  0
   -3.1035   -0.1207    4.9898 H   0  0  0  0  0  0  0  0  0  0  0  0
   -4.5341   -0.3182    5.9165 H   0  0  0  0  0  0  0  0  0  0  0  0
   -3.3046   -3.3409    0.5192 H   0  0  0  0  0  0  0  0  0  0  0  0
   -1.6876   -3.3396   -0.0663 H   0  0  0  0  0  0  0  0  0  0  0  0
   -3.4788   -3.3200   -2.3344 H   0  0  0  0  0  0  0  0  0  0  0  0
   -1.7420   -3.0343   -2.2557 H   0  0  0  0  0  0  0  0  0  0  0  0
   -1.7936   -1.0695   -3.5043 H   0  0  0  0  0  0  0  0  0  0  0  0
   -2.9795   -2.0920   -4.2900 H   0  0  0  0  0  0  0  0  0  0  0  0
   -4.3713   -0.3154   -4.1562 H   0  0  0  0  0  0  0  0  0  0  0  0
   -2.6522    0.8642   -1.9144 H   0  0  0  0  0  0  0  0  0  0  0  0
   -2.5655    1.2450   -3.6401 H   0  0  0  0  0  0  0  0  0  0  0  0
   -4.0110    1.6699   -2.7160 H   0  0  0  0  0  0  0  0  0  0  0  0
   -5.4323   -1.7480   -2.5444 H   0  0  0  0  0  0  0  0  0  0  0  0
   -5.6329   -0.0943   -1.9895 H   0  0  0  0  0  0  0  0  0  0  0  0
   -4.1887   -0.3796   -0.1671 H   0  0  0  0  0  0  0  0  0  0  0  0
   -4.9335   -1.9720   -0.3191 H   0  0  0  0  0  0  0  0  0  0  0  0
  1  2  1  0
  2  3  1  0
  3  4  1  0
  4  5  2  0
  5  6  1  0
  6  7  2  0
  7  8  1  0
  8  9  2  0
  9 10  1  0
 10 11  2  3
 11 12  1  0
 12 13  1  0
 13 14  2  0
 13 15  1  0
 15 16  1  0
 16 17  2  0
 17 18  1  0
 18 19  1  0
 19 20  2  0
 20 21  1  0
 21 22  1  0
 22 23  2  0
 23 24  1  0
 18 25  1  0
 25 26  1  0
 26 27  1  0
 27 28  1  0
 28 29  1  0
 29 30  1  0
 30 31  1  0
 30 32  1  0
 32 33  1  0
  9  4  1  0
 25 15  2  0
 33 27  1  0
 23 19  1  0
  1 34  1  0
  1 35  1  0
  1 36  1  0
  2 37  1  0
  2 38  1  0
  5 39  1  0
  6 40  1  0
  7 41  1  0
  8 42  1  0
 10 43  1  0
 12 44  1  0
 24 45  1  0
 24 46  1  0
 26 47  1  0
 26 48  1  0
 28 49  1  0
 28 50  1  0
 29 51  1  0
 29 52  1  0
 30 53  1  0
 31 54  1  0
 31 55  1  0
 31 56  1  0
 32 57  1  0
 32 58  1  0
 33 59  1  0
 33 60  1  0
M  END
$$$$
