
     RDKit          3D

 35 35  0  0  0  0  0  0  0  0999 V2000
   -3.0383   -1.1836   -1.3054 C   0  0  0  0  0  0  0  0  0  0  0  0
   -3.3365   -0.1398   -0.2220 C   0  0  0  0  0  0  0  0  0  0  0  0
   -4.3395    0.8954   -0.7494 C   0  0  0  0  0  0  0  0  0  0  0  0
   -2.1502    0.5347    0.3529 N   0  0  0  0  0  0  0  0  0  0  0  0
   -1.2518    1.1071   -0.6510 C   0  0  0  0  0  0  0  0  0  0  0  0
   -1.4298   -0.3556    1.2946 C   0  0  0  0  0  0  0  0  0  0  0  0
   -0.3397    0.3407    2.1332 C   0  0  0  0  0  0  0  0  0  0  0  0
    0.8947    0.4820    1.4093 O   0  0  0  0  0  0  0  0  0  0  0  0
    1.6671   -0.6278    1.3574 C   0  0  0  0  0  0  0  0  0  0  0  0
    1.4078   -1.7278    1.8144 O   0  0  0  0  0  0  0  0  0  0  0  0
    2.8530   -0.3457    0.5320 C   0  0  0  0  0  0  0  0  0  0  0  0
    3.0374   -1.1503   -0.6022 C   0  0  0  0  0  0  0  0  0  0  0  0
    4.1326   -0.9387   -1.4398 C   0  0  0  0  0  0  0  0  0  0  0  0
    5.0495    0.0682   -1.1429 C   0  0  0  0  0  0  0  0  0  0  0  0
    4.8795    0.8583   -0.0033 C   0  0  0  0  0  0  0  0  0  0  0  0
    3.7838    0.6516    0.8424 C   0  0  0  0  0  0  0  0  0  0  0  0
    3.6763    1.7199    2.4082 Br  0  0  0  0  0  0  0  0  0  0  0  0
   -2.3551   -1.9576   -0.9427 H   0  0  0  0  0  0  0  0  0  0  0  0
   -2.6012   -0.7314   -2.2017 H   0  0  0  0  0  0  0  0  0  0  0  0
   -3.9630   -1.6858   -1.6115 H   0  0  0  0  0  0  0  0  0  0  0  0
   -3.8599   -0.6562    0.5940 H   0  0  0  0  0  0  0  0  0  0  0  0
   -3.9771    1.4089   -1.6455 H   0  0  0  0  0  0  0  0  0  0  0  0
   -5.2855    0.4081   -1.0116 H   0  0  0  0  0  0  0  0  0  0  0  0
   -4.5612    1.6503    0.0131 H   0  0  0  0  0  0  0  0  0  0  0  0
   -0.5471    1.8042   -0.1868 H   0  0  0  0  0  0  0  0  0  0  0  0
   -0.6786    0.3406   -1.1840 H   0  0  0  0  0  0  0  0  0  0  0  0
   -1.7953    1.7027   -1.3909 H   0  0  0  0  0  0  0  0  0  0  0  0
   -2.1615   -0.7462    2.0128 H   0  0  0  0  0  0  0  0  0  0  0  0
   -1.0050   -1.2108    0.7576 H   0  0  0  0  0  0  0  0  0  0  0  0
   -0.1596   -0.2174    3.0608 H   0  0  0  0  0  0  0  0  0  0  0  0
   -0.6645    1.3428    2.4349 H   0  0  0  0  0  0  0  0  0  0  0  0
    2.3261   -1.9409   -0.8335 H   0  0  0  0  0  0  0  0  0  0  0  0
    4.2723   -1.5606   -2.3212 H   0  0  0  0  0  0  0  0  0  0  0  0
    5.9054    0.2327   -1.7939 H   0  0  0  0  0  0  0  0  0  0  0  0
    5.6149    1.6278    0.2215 H   0  0  0  0  0  0  0  0  0  0  0  0
  1  2  1  0
  2  3  1  0
  2  4  1  0
  4  5  1  0
  4  6  1  0
  6  7  1  0
  7  8  1  0
  8  9  1  0
  9 10  2  0
  9 11  1  0
 11 12  2  0
 12 13  1  0
 13 14  2  0
 14 15  1  0
 15 16  2  0
 16 17  1  0
 16 11  1  0
  1 18  1  0
  1 19  1  0
  1 20  1  0
  2 21  1  0
  3 22  1  0
  3 23  1  0
  3 24  1  0
  5 25  1  0
  5 26  1  0
  5 27  1  0
  6 28  1  0
  6 29  1  0
  7 30  1  0
  7 31  1  0
 12 32  1  0
 13 33  1  0
 14 34  1  0
 15 35  1  0
M  END
$$$$
