
     RDKit          3D

 50 53  0  0  0  0  0  0  0  0999 V2000
    8.2289   -0.0886    2.3985 C   0  0  0  0  0  0  0  0  0  0  0  0
    7.2251   -0.6502    1.4069 C   0  0  0  0  0  0  0  0  0  0  0  0
    6.7119    0.4380    0.6247 O   0  0  0  0  0  0  0  0  0  0  0  0
    5.3639    0.3446    0.4278 C   0  0  0  0  0  0  0  0  0  0  0  0
    4.5009    0.6591    1.4799 C   0  0  0  0  0  0  0  0  0  0  0  0
    3.1172    0.6567    1.2756 C   0  0  0  0  0  0  0  0  0  0  0  0
    2.5830    0.3720    0.0094 C   0  0  0  0  0  0  0  0  0  0  0  0
    1.1014    0.3792   -0.1536 C   0  0  0  0  0  0  0  0  0  0  0  0
    0.4183    0.0402    0.8047 O   0  0  0  0  0  0  0  0  0  0  0  0
    0.6477    0.8155   -1.3849 N   0  0  0  0  0  0  0  0  0  0  0  0
   -0.6901    0.8502   -1.8355 C   0  0  0  0  0  0  0  0  0  0  0  0
   -0.9316    1.4552   -3.0742 C   0  0  0  0  0  0  0  0  0  0  0  0
   -2.2253    1.5197   -3.5929 C   0  0  0  0  0  0  0  0  0  0  0  0
   -3.2921    0.9779   -2.8775 C   0  0  0  0  0  0  0  0  0  0  0  0
   -3.0755    0.3633   -1.6383 C   0  0  0  0  0  0  0  0  0  0  0  0
   -4.2078   -0.2137   -0.8795 C   0  0  0  0  0  0  0  0  0  0  0  0
   -4.4096    0.1911    0.3866 C   0  0  0  0  0  0  0  0  0  0  0  0
   -5.5094   -0.3405    1.1739 C   0  0  0  0  0  0  0  0  0  0  0  0
   -5.7372    0.0535    2.4947 C   0  0  0  0  0  0  0  0  0  0  0  0
   -6.8095   -0.4877    3.2116 C   0  0  0  0  0  0  0  0  0  0  0  0
   -7.6562   -1.4236    2.6126 C   0  0  0  0  0  0  0  0  0  0  0  0
   -7.4333   -1.8209    1.2952 C   0  0  0  0  0  0  0  0  0  0  0  0
   -6.3619   -1.2725    0.5942 C   0  0  0  0  0  0  0  0  0  0  0  0
   -6.1699   -1.6951   -0.7321 O   0  0  0  0  0  0  0  0  0  0  0  0
   -5.1253   -1.2086   -1.5136 C   0  0  0  0  0  0  0  0  0  0  0  0
   -4.9827   -1.5888   -2.6719 O   0  0  0  0  0  0  0  0  0  0  0  0
   -1.7646    0.3010   -1.1301 C   0  0  0  0  0  0  0  0  0  0  0  0
    3.4400    0.0609   -1.0521 C   0  0  0  0  0  0  0  0  0  0  0  0
    4.8248    0.0592   -0.8288 C   0  0  0  0  0  0  0  0  0  0  0  0
    5.6921   -0.2555   -1.9486 N   0  0  0  0  0  4  0  0  0  0  0  0
    5.4859    0.3652   -3.0020 O   0  0  0  0  0  0  0  0  0  0  0  0
    6.5264   -1.1575   -1.7966 O   0  0  0  0  0  1  0  0  0  0  0  0
    8.6830   -0.8894    2.9882 H   0  0  0  0  0  0  0  0  0  0  0  0
    9.0221    0.4610    1.8793 H   0  0  0  0  0  0  0  0  0  0  0  0
    7.7416    0.6193    3.0785 H   0  0  0  0  0  0  0  0  0  0  0  0
    6.4419   -1.2003    1.9453 H   0  0  0  0  0  0  0  0  0  0  0  0
    7.7264   -1.3502    0.7288 H   0  0  0  0  0  0  0  0  0  0  0  0
    4.8997    0.9214    2.4569 H   0  0  0  0  0  0  0  0  0  0  0  0
    2.4519    0.8878    2.1082 H   0  0  0  0  0  0  0  0  0  0  0  0
    1.3256    1.2252   -2.0152 H   0  0  0  0  0  0  0  0  0  0  0  0
   -0.1197    1.8845   -3.6558 H   0  0  0  0  0  0  0  0  0  0  0  0
   -2.4034    1.9872   -4.5582 H   0  0  0  0  0  0  0  0  0  0  0  0
   -4.2930    1.0305   -3.3024 H   0  0  0  0  0  0  0  0  0  0  0  0
   -3.7634    0.9247    0.8606 H   0  0  0  0  0  0  0  0  0  0  0  0
   -5.0875    0.7792    2.9787 H   0  0  0  0  0  0  0  0  0  0  0  0
   -6.9837   -0.1795    4.2402 H   0  0  0  0  0  0  0  0  0  0  0  0
   -8.4877   -1.8430    3.1738 H   0  0  0  0  0  0  0  0  0  0  0  0
   -8.0851   -2.5489    0.8211 H   0  0  0  0  0  0  0  0  0  0  0  0
   -1.6019   -0.2028   -0.1819 H   0  0  0  0  0  0  0  0  0  0  0  0
    3.0477   -0.2060   -2.0304 H   0  0  0  0  0  0  0  0  0  0  0  0
  1  2  1  0
  2  3  1  0
  3  4  1  0
  4  5  2  0
  5  6  1  0
  6  7  2  0
  7  8  1  0
  8  9  2  0
  8 10  1  0
 10 11  1  0
 11 12  2  0
 12 13  1  0
 13 14  2  0
 14 15  1  0
 15 16  1  0
 16 17  2  0
 17 18  1  0
 18 19  2  0
 19 20  1  0
 20 21  2  0
 21 22  1  0
 22 23  2  0
 23 24  1  0
 24 25  1  0
 25 26  2  0
 15 27  2  0
  7 28  1  0
 28 29  2  0
 29 30  1  0
 30 31  2  0
 30 32  1  0
 29  4  1  0
 27 11  1  0
 25 16  1  0
 23 18  1  0
  1 33  1  0
  1 34  1  0
  1 35  1  0
  2 36  1  0
  2 37  1  0
  5 38  1  0
  6 39  1  0
 10 40  1  0
 12 41  1  0
 13 42  1  0
 14 43  1  0
 17 44  1  0
 19 45  1  0
 20 46  1  0
 21 47  1  0
 22 48  1  0
 27 49  1  0
 28 50  1  0
M  CHG  2  30   1  32  -1
M  END
$$$$
