
     RDKit          3D

 56 58  0  0  0  0  0  0  0  0999 V2000
   10.4033    2.1251   -0.8774 C   0  0  0  0  0  0  0  0  0  0  0  0
    9.2199    1.1866   -0.7062 C   0  0  0  0  0  0  0  0  0  0  0  0
    8.0510    1.9814   -0.5095 O   0  0  0  0  0  0  0  0  0  0  0  0
    6.8880    1.3222   -0.2258 C   0  0  0  0  0  0  0  0  0  0  0  0
    6.6904   -0.0555   -0.2793 C   0  0  0  0  0  0  0  0  0  0  0  0
    5.4370   -0.5989    0.0332 C   0  0  0  0  0  0  0  0  0  0  0  0
    4.3650    0.2241    0.4034 C   0  0  0  0  0  0  0  0  0  0  0  0
    3.1374   -0.4073    0.6995 N   0  0  0  0  0  0  0  0  0  0  0  0
    1.9645    0.1918    1.1286 C   0  0  0  0  0  0  0  0  0  0  0  0
    1.7807    1.3905    1.3122 O   0  0  0  0  0  0  0  0  0  0  0  0
    0.8457   -0.8203    1.3217 C   0  0  0  0  0  0  0  0  0  0  0  0
   -0.2845   -0.2732    2.1898 C   0  0  0  0  0  0  0  0  0  0  0  0
   -0.9978    0.8107    1.4911 N   0  0  0  0  0  0  0  0  0  0  0  0
   -2.4168    1.3892    2.1907 S   0  0  0  0  0  6  0  0  0  0  0  0
   -2.3949    1.0790    3.6047 O   0  0  0  0  0  0  0  0  0  0  0  0
   -2.6152    2.7355    1.7039 O   0  0  0  0  0  0  0  0  0  0  0  0
   -3.6419    0.3661    1.4131 C   0  0  0  0  0  0  0  0  0  0  0  0
   -4.2530   -0.6605    2.1316 C   0  0  0  0  0  0  0  0  0  0  0  0
   -5.2495   -1.4323    1.5239 C   0  0  0  0  0  0  0  0  0  0  0  0
   -5.6532   -1.1821    0.1997 C   0  0  0  0  0  0  0  0  0  0  0  0
   -5.0287   -0.1469   -0.4974 C   0  0  0  0  0  0  0  0  0  0  0  0
   -4.0269    0.6334    0.1000 C   0  0  0  0  0  0  0  0  0  0  0  0
   -5.4324    0.1328   -1.8850 C   0  0  0  0  0  0  0  0  0  0  0  0
   -4.8178    0.9809   -2.5287 O   0  0  0  0  0  0  0  0  0  0  0  0
   -6.4921   -0.6058   -2.3856 N   0  0  0  0  0  0  0  0  0  0  0  0
   -6.9243   -0.3239   -3.7433 C   0  0  0  0  0  0  0  0  0  0  0  0
   -7.0854   -1.6853   -1.7408 C   0  0  0  0  0  0  0  0  0  0  0  0
   -7.9365   -2.3794   -2.3004 O   0  0  0  0  0  0  0  0  0  0  0  0
   -6.6647   -1.9474   -0.4399 N   0  0  0  0  0  0  0  0  0  0  0  0
   -7.2946   -3.0509    0.2733 C   0  0  0  0  0  0  0  0  0  0  0  0
    4.5686    1.6023    0.4514 C   0  0  0  0  0  0  0  0  0  0  0  0
    5.8211    2.1437    0.1389 C   0  0  0  0  0  0  0  0  0  0  0  0
   10.2575    2.7753   -1.7454 H   0  0  0  0  0  0  0  0  0  0  0  0
   11.3331    1.5637   -1.0094 H   0  0  0  0  0  0  0  0  0  0  0  0
   10.5048    2.7781   -0.0033 H   0  0  0  0  0  0  0  0  0  0  0  0
    9.3977    0.5451    0.1680 H   0  0  0  0  0  0  0  0  0  0  0  0
    9.1159    0.5734   -1.6093 H   0  0  0  0  0  0  0  0  0  0  0  0
    7.4852   -0.7346   -0.5683 H   0  0  0  0  0  0  0  0  0  0  0  0
    5.3167   -1.6781   -0.0202 H   0  0  0  0  0  0  0  0  0  0  0  0
    3.1310   -1.4146    0.6096 H   0  0  0  0  0  0  0  0  0  0  0  0
    0.4715   -1.1075    0.3319 H   0  0  0  0  0  0  0  0  0  0  0  0
    1.2574   -1.7120    1.8088 H   0  0  0  0  0  0  0  0  0  0  0  0
   -0.9838   -1.0880    2.4067 H   0  0  0  0  0  0  0  0  0  0  0  0
    0.1209    0.1062    3.1363 H   0  0  0  0  0  0  0  0  0  0  0  0
   -0.3972    1.5938    1.1989 H   0  0  0  0  0  0  0  0  0  0  0  0
   -3.9702   -0.8619    3.1625 H   0  0  0  0  0  0  0  0  0  0  0  0
   -5.7017   -2.2210    2.1202 H   0  0  0  0  0  0  0  0  0  0  0  0
   -3.5588    1.4460   -0.4544 H   0  0  0  0  0  0  0  0  0  0  0  0
   -8.0087   -0.4490   -3.8319 H   0  0  0  0  0  0  0  0  0  0  0  0
   -6.6656    0.6953   -4.0469 H   0  0  0  0  0  0  0  0  0  0  0  0
   -6.4307   -1.0333   -4.4170 H   0  0  0  0  0  0  0  0  0  0  0  0
   -8.0637   -3.5483   -0.3254 H   0  0  0  0  0  0  0  0  0  0  0  0
   -7.7766   -2.6709    1.1798 H   0  0  0  0  0  0  0  0  0  0  0  0
   -6.5350   -3.7969    0.5287 H   0  0  0  0  0  0  0  0  0  0  0  0
    3.7772    2.2926    0.7235 H   0  0  0  0  0  0  0  0  0  0  0  0
    5.9608    3.2211    0.1811 H   0  0  0  0  0  0  0  0  0  0  0  0
  1  2  1  0
  2  3  1  0
  3  4  1  0
  4  5  2  0
  5  6  1  0
  6  7  2  0
  7  8  1  0
  8  9  1  0
  9 10  2  0
  9 11  1  0
 11 12  1  0
 12 13  1  0
 13 14  1  0
 14 15  2  0
 14 16  2  0
 14 17  1  0
 17 18  2  0
 18 19  1  0
 19 20  2  0
 20 21  1  0
 21 22  2  0
 21 23  1  0
 23 24  2  0
 23 25  1  0
 25 26  1  0
 25 27  1  0
 27 28  2  0
 27 29  1  0
 29 30  1  0
  7 31  1  0
 31 32  2  0
 32  4  1  0
 22 17  1  0
 29 20  1  0
  1 33  1  0
  1 34  1  0
  1 35  1  0
  2 36  1  0
  2 37  1  0
  5 38  1  0
  6 39  1  0
  8 40  1  0
 11 41  1  0
 11 42  1  0
 12 43  1  0
 12 44  1  0
 13 45  1  0
 18 46  1  0
 19 47  1  0
 22 48  1  0
 26 49  1  0
 26 50  1  0
 26 51  1  0
 30 52  1  0
 30 53  1  0
 30 54  1  0
 31 55  1  0
 32 56  1  0
M  END
$$$$
