
     RDKit          3D

 56 61  0  0  0  0  0  0  0  0999 V2000
   -5.0901   -3.0390    0.7387 C   0  0  0  0  0  0  0  0  0  0  0  0
   -3.9579   -2.1928    1.2388 C   0  0  0  0  0  0  0  0  0  0  0  0
   -3.9993   -1.5811    2.5069 C   0  0  0  0  0  0  0  0  0  0  0  0
   -5.3682   -1.7711    3.5486 Cl  0  0  0  0  0  0  0  0  0  0  0  0
   -2.9319   -0.7943    2.9840 C   0  0  0  0  0  0  0  0  0  0  0  0
   -1.7888   -0.5946    2.2100 C   0  0  0  0  0  0  0  0  0  0  0  0
   -1.7383   -1.1884    0.9598 C   0  0  0  0  0  0  0  0  0  0  0  0
   -2.8037   -1.9762    0.4962 C   0  0  0  0  0  0  0  0  0  0  0  0
   -2.4956   -2.4776   -0.7679 N   0  0  0  0  0  0  0  0  0  0  0  0
   -1.2238   -2.0838   -1.1863 C   0  0  0  0  0  0  0  0  0  0  0  0
   -0.6784   -2.4507   -2.2158 O   0  0  0  0  0  0  0  0  0  0  0  0
   -0.6577   -1.1564   -0.0815 C   0  0  0  0  0  0  0  0  0  0  0  0
    0.6825   -1.5997    0.3993 N   0  0  0  0  0  0  0  0  0  0  0  0
    1.7293   -0.6383   -0.0966 C   0  0  2  0  0  0  0  0  0  0  0  0
    2.7366   -0.3128    1.0164 C   0  0  0  0  0  0  0  0  0  0  0  0
    3.6642   -1.4664    1.3238 C   0  0  0  0  0  0  0  0  0  0  0  0
    3.3500   -2.3772    2.3414 C   0  0  0  0  0  0  0  0  0  0  0  0
    4.1959   -3.4528    2.6144 C   0  0  0  0  0  0  0  0  0  0  0  0
    5.3615   -3.6298    1.8717 C   0  0  0  0  0  0  0  0  0  0  0  0
    5.6815   -2.7324    0.8546 C   0  0  0  0  0  0  0  0  0  0  0  0
    4.8367   -1.6559    0.5794 C   0  0  0  0  0  0  0  0  0  0  0  0
    0.9194    0.5243   -0.5373 C   0  0  0  0  0  0  0  0  0  0  0  0
   -0.4415    0.2321   -0.5170 C   0  0  0  0  0  0  0  0  0  0  0  0
   -1.1390    1.3363   -0.9363 C   0  0  0  0  0  0  0  0  0  0  0  0
   -2.4488    1.4940   -1.1153 O   0  0  0  0  0  0  0  0  0  0  0  0
   -0.1963    2.3476   -1.2309 N   0  0  0  0  0  0  0  0  0  0  0  0
   -0.4921    3.6799   -1.6893 C   0  0  0  0  0  0  0  0  0  0  0  0
   -1.7338    4.2739   -1.4172 C   0  0  0  0  0  0  0  0  0  0  0  0
   -2.0210    5.5700   -1.8594 C   0  0  0  0  0  0  0  0  0  0  0  0
   -1.0738    6.2902   -2.5802 C   0  0  0  0  0  0  0  0  0  0  0  0
    0.1619    5.7149   -2.8588 C   0  0  0  0  0  0  0  0  0  0  0  0
    0.4524    4.4196   -2.4162 C   0  0  0  0  0  0  0  0  0  0  0  0
    1.0886    1.8056   -0.9948 C   0  0  0  0  0  0  0  0  0  0  0  0
    2.2093    2.5024   -1.1656 O   0  0  0  0  0  0  0  0  0  0  0  0
   -6.0237   -2.4669    0.7385 H   0  0  0  0  0  0  0  0  0  0  0  0
   -4.9325   -3.3853   -0.2864 H   0  0  0  0  0  0  0  0  0  0  0  0
   -5.2066   -3.9264    1.3693 H   0  0  0  0  0  0  0  0  0  0  0  0
   -2.9917   -0.3361    3.9693 H   0  0  0  0  0  0  0  0  0  0  0  0
   -0.9627    0.0077    2.5774 H   0  0  0  0  0  0  0  0  0  0  0  0
   -3.0616   -3.1110   -1.3131 H   0  0  0  0  0  0  0  0  0  0  0  0
    0.8879   -2.5132   -0.0062 H   0  0  0  0  0  0  0  0  0  0  0  0
    2.2296   -1.0750   -0.9706 H   0  0  0  0  0  0  0  0  0  0  0  0
    2.2168   -0.0006    1.9331 H   0  0  0  0  0  0  0  0  0  0  0  0
    3.3506    0.5518    0.7337 H   0  0  0  0  0  0  0  0  0  0  0  0
    2.4384   -2.2553    2.9231 H   0  0  0  0  0  0  0  0  0  0  0  0
    3.9437   -4.1536    3.4059 H   0  0  0  0  0  0  0  0  0  0  0  0
    6.0199   -4.4677    2.0850 H   0  0  0  0  0  0  0  0  0  0  0  0
    6.5904   -2.8719    0.2749 H   0  0  0  0  0  0  0  0  0  0  0  0
    5.1028   -0.9672   -0.2188 H   0  0  0  0  0  0  0  0  0  0  0  0
   -2.8985    0.6760   -0.8428 H   0  0  0  0  0  0  0  0  0  0  0  0
   -2.4926    3.7676   -0.8290 H   0  0  0  0  0  0  0  0  0  0  0  0
   -2.9861    6.0155   -1.6328 H   0  0  0  0  0  0  0  0  0  0  0  0
   -1.2981    7.2960   -2.9242 H   0  0  0  0  0  0  0  0  0  0  0  0
    0.9038    6.2691   -3.4278 H   0  0  0  0  0  0  0  0  0  0  0  0
    1.4164    4.0035   -2.6906 H   0  0  0  0  0  0  0  0  0  0  0  0
    2.9637    1.9231   -0.9690 H   0  0  0  0  0  0  0  0  0  0  0  0
  1  2  1  0
  2  3  2  0
  3  4  1  0
  3  5  1  0
  5  6  2  0
  6  7  1  0
  7  8  2  0
  8  9  1  0
  9 10  1  0
 10 11  2  0
 10 12  1  0
 12 13  1  0
 13 14  1  0
 14 15  1  0
 15 16  1  0
 16 17  2  0
 17 18  1  0
 18 19  2  0
 19 20  1  0
 20 21  2  0
 14 22  1  0
 22 23  1  0
 23 24  2  0
 24 25  1  0
 24 26  1  0
 26 27  1  0
 27 28  2  0
 28 29  1  0
 29 30  2  0
 30 31  1  0
 31 32  2  0
 26 33  1  0
 33 34  1  0
  8  2  1  0
 23 12  1  0
 32 27  1  0
 12  7  1  0
 21 16  1  0
 33 22  2  0
  1 35  1  0
  1 36  1  0
  1 37  1  0
  5 38  1  0
  6 39  1  0
  9 40  1  0
 13 41  1  0
 14 42  1  6
 15 43  1  0
 15 44  1  0
 17 45  1  0
 18 46  1  0
 19 47  1  0
 20 48  1  0
 21 49  1  0
 25 50  1  0
 28 51  1  0
 29 52  1  0
 30 53  1  0
 31 54  1  0
 32 55  1  0
 34 56  1  0
M  END
$$$$
