
     RDKit          3D

 52 54  0  0  0  0  0  0  0  0999 V2000
   -2.3380    0.3970   -1.1899 C   0  0  0  0  0  0  0  0  0  0  0  0
   -3.0574   -0.6043   -0.4146 N   0  0  0  0  0  0  0  0  0  0  0  0
   -3.9908   -0.0978    0.5888 C   0  0  0  0  0  0  0  0  0  0  0  0
   -5.2714    0.4322   -0.0192 C   0  0  0  0  0  0  0  0  0  0  0  0
   -6.1579   -0.4352   -0.6748 C   0  0  0  0  0  0  0  0  0  0  0  0
   -7.3404    0.0493   -1.2371 C   0  0  0  0  0  0  0  0  0  0  0  0
   -7.6546    1.4039   -1.1459 C   0  0  0  0  0  0  0  0  0  0  0  0
   -6.7847    2.2765   -0.4922 C   0  0  0  0  0  0  0  0  0  0  0  0
   -5.5993    1.7943    0.0687 C   0  0  0  0  0  0  0  0  0  0  0  0
   -2.9601   -1.9781   -0.5897 C   0  0  0  0  0  0  0  0  0  0  0  0
   -3.6888   -2.7692    0.0119 O   0  0  0  0  0  0  0  0  0  0  0  0
   -1.9502   -2.5119   -1.6111 C   0  0  0  0  0  0  0  0  0  0  0  0
   -0.5908   -2.1490   -1.4069 O   0  0  0  0  0  0  0  0  0  0  0  0
    0.0260   -2.7871   -0.3668 C   0  0  0  0  0  0  0  0  0  0  0  0
   -0.5072   -3.6031    0.3711 O   0  0  0  0  0  0  0  0  0  0  0  0
    1.5110   -2.4512   -0.3006 C   0  0  0  0  0  0  0  0  0  0  0  0
    1.8973   -1.2499   -1.0669 N   0  0  0  0  0  0  0  0  0  0  0  0
    1.6060    0.2380   -0.3469 S   0  0  0  0  0  6  0  0  0  0  0  0
    1.4522    1.1857   -1.4257 O   0  0  0  0  0  0  0  0  0  0  0  0
    0.5861    0.0562    0.6633 O   0  0  0  0  0  0  0  0  0  0  0  0
    3.1577    0.5540    0.4382 C   0  0  0  0  0  0  0  0  0  0  0  0
    3.2601    0.5100    1.8276 C   0  0  0  0  0  0  0  0  0  0  0  0
    4.5010    0.7362    2.4241 C   0  0  0  0  0  0  0  0  0  0  0  0
    5.6375    1.0086    1.6404 C   0  0  0  0  0  0  0  0  0  0  0  0
    6.8934    1.2221    2.2260 C   0  0  0  0  0  0  0  0  0  0  0  0
    8.0140    1.4892    1.4351 C   0  0  0  0  0  0  0  0  0  0  0  0
    7.8940    1.5498    0.0495 C   0  0  0  0  0  0  0  0  0  0  0  0
    6.6541    1.3425   -0.5491 C   0  0  0  0  0  0  0  0  0  0  0  0
    5.5182    1.0656    0.2307 C   0  0  0  0  0  0  0  0  0  0  0  0
    4.2701    0.8395   -0.3610 C   0  0  0  0  0  0  0  0  0  0  0  0
   -1.7219   -0.0354   -1.9765 H   0  0  0  0  0  0  0  0  0  0  0  0
   -3.0610    1.0720   -1.6620 H   0  0  0  0  0  0  0  0  0  0  0  0
   -1.7050    0.9722   -0.5100 H   0  0  0  0  0  0  0  0  0  0  0  0
   -3.4774    0.6863    1.1541 H   0  0  0  0  0  0  0  0  0  0  0  0
   -4.2451   -0.8774    1.3152 H   0  0  0  0  0  0  0  0  0  0  0  0
   -5.9277   -1.4972   -0.7449 H   0  0  0  0  0  0  0  0  0  0  0  0
   -8.0189   -0.6350   -1.7414 H   0  0  0  0  0  0  0  0  0  0  0  0
   -8.5786    1.7795   -1.5800 H   0  0  0  0  0  0  0  0  0  0  0  0
   -7.0339    3.3317   -0.4175 H   0  0  0  0  0  0  0  0  0  0  0  0
   -4.9340    2.4896    0.5761 H   0  0  0  0  0  0  0  0  0  0  0  0
   -2.2506   -2.1523   -2.6026 H   0  0  0  0  0  0  0  0  0  0  0  0
   -2.0358   -3.6029   -1.6554 H   0  0  0  0  0  0  0  0  0  0  0  0
    1.8131   -2.3356    0.7537 H   0  0  0  0  0  0  0  0  0  0  0  0
    2.0626   -3.3102   -0.7224 H   0  0  0  0  0  0  0  0  0  0  0  0
    1.6511   -1.2505   -2.0599 H   0  0  0  0  0  0  0  0  0  0  0  0
    2.3898    0.2939    2.4504 H   0  0  0  0  0  0  0  0  0  0  0  0
    4.5776    0.6941    3.5087 H   0  0  0  0  0  0  0  0  0  0  0  0
    7.0122    1.1801    3.3068 H   0  0  0  0  0  0  0  0  0  0  0  0
    8.9843    1.6508    1.9035 H   0  0  0  0  0  0  0  0  0  0  0  0
    8.7669    1.7600   -0.5660 H   0  0  0  0  0  0  0  0  0  0  0  0
    6.5827    1.3960   -1.6333 H   0  0  0  0  0  0  0  0  0  0  0  0
    4.1626    0.8767   -1.4428 H   0  0  0  0  0  0  0  0  0  0  0  0
  1  2  1  0
  2  3  1  0
  3  4  1  0
  4  5  2  0
  5  6  1  0
  6  7  2  0
  7  8  1  0
  8  9  2  0
  2 10  1  0
 10 11  2  0
 10 12  1  0
 12 13  1  0
 13 14  1  0
 14 15  2  0
 14 16  1  0
 16 17  1  0
 17 18  1  0
 18 19  2  0
 18 20  2  0
 18 21  1  0
 21 22  2  0
 22 23  1  0
 23 24  2  0
 24 25  1  0
 25 26  2  0
 26 27  1  0
 27 28  2  0
 28 29  1  0
 29 30  2  0
  9  4  1  0
 30 21  1  0
 29 24  1  0
  1 31  1  0
  1 32  1  0
  1 33  1  0
  3 34  1  0
  3 35  1  0
  5 36  1  0
  6 37  1  0
  7 38  1  0
  8 39  1  0
  9 40  1  0
 12 41  1  0
 12 42  1  0
 16 43  1  0
 16 44  1  0
 17 45  1  0
 22 46  1  0
 23 47  1  0
 25 48  1  0
 26 49  1  0
 27 50  1  0
 28 51  1  0
 30 52  1  0
M  END
$$$$
