
     RDKit          3D

 69 74  0  0  0  0  0  0  0  0999 V2000
    1.0261    0.5844   -3.1231 O   0  0  0  0  0  0  0  0  0  0  0  0
    1.8798    0.4446   -1.9833 C   0  0  0  0  0  0  0  0  0  0  0  0
    3.1430   -0.3197   -2.3968 C   0  0  0  0  0  0  0  0  0  0  0  0
    4.0633   -0.3493   -1.3036 O   0  0  0  0  0  0  0  0  0  0  0  0
    5.3494   -0.7310   -1.5674 C   0  0  0  0  0  0  0  0  0  0  0  0
    5.6830   -1.5106   -2.6853 C   0  0  0  0  0  0  0  0  0  0  0  0
    7.0015   -1.9008   -2.9241 C   0  0  0  0  0  0  0  0  0  0  0  0
    8.0076   -1.5243   -2.0413 C   0  0  0  0  0  0  0  0  0  0  0  0
    7.7125   -0.7606   -0.9108 C   0  0  0  0  0  0  0  0  0  0  0  0
    8.7976   -0.4292   -0.0672 N   0  0  0  0  0  0  0  0  0  0  0  0
    8.5636    0.2797    0.9907 C   0  0  0  0  0  0  0  0  0  0  0  0
    7.2466    0.7276    1.3185 C   0  0  0  0  0  0  0  0  0  0  0  0
    6.7944    1.4813    2.3804 C   0  0  0  0  0  0  0  0  0  0  0  0
    5.4019    1.6326    2.2141 C   0  0  0  0  0  0  0  0  0  0  0  0
    5.0513    0.9675    1.0572 C   0  0  0  0  0  0  0  0  0  0  0  0
    6.1806    0.4084    0.5026 N   0  0  0  0  0  0  0  0  0  0  0  0
    6.3730   -0.3662   -0.6720 C   0  0  0  0  0  0  0  0  0  0  0  0
    1.1391   -0.2572   -0.8195 C   0  0  0  0  0  0  0  0  0  0  0  0
   -0.1568    0.3968   -0.5268 N   0  0  0  0  0  0  0  0  0  0  0  0
   -0.4169    0.3940    0.9295 C   0  0  0  0  0  0  0  0  0  0  0  0
   -1.8909    0.7224    1.2462 C   0  0  0  0  0  0  0  0  0  0  0  0
   -2.8402   -0.3206    0.7806 N   0  0  0  0  0  0  0  0  0  0  0  0
   -4.1849    0.2588    0.4843 C   0  0  0  0  0  0  0  0  0  0  0  0
   -5.2333   -0.7937    0.0926 C   0  0  0  0  0  0  0  0  0  0  0  0
   -6.1704   -0.5037   -0.9140 C   0  0  0  0  0  0  0  0  0  0  0  0
   -7.1428   -1.4387   -1.2748 C   0  0  0  0  0  0  0  0  0  0  0  0
   -7.1965   -2.6734   -0.6323 C   0  0  0  0  0  0  0  0  0  0  0  0
   -6.2823   -2.9738    0.3745 C   0  0  0  0  0  0  0  0  0  0  0  0
   -5.3106   -2.0400    0.7378 C   0  0  0  0  0  0  0  0  0  0  0  0
   -4.7422    1.1269    1.6221 C   0  0  0  0  0  0  0  0  0  0  0  0
   -4.8342    0.6455    2.9395 C   0  0  0  0  0  0  0  0  0  0  0  0
   -5.3548    1.4463    3.9575 C   0  0  0  0  0  0  0  0  0  0  0  0
   -5.7948    2.7377    3.6740 C   0  0  0  0  0  0  0  0  0  0  0  0
   -5.7156    3.2299    2.3727 C   0  0  0  0  0  0  0  0  0  0  0  0
   -5.1952    2.4306    1.3527 C   0  0  0  0  0  0  0  0  0  0  0  0
   -2.2657   -1.0472   -0.3774 C   0  0  0  0  0  0  0  0  0  0  0  0
   -1.2910   -0.2243   -1.2525 C   0  0  0  0  0  0  0  0  0  0  0  0
    0.2584    1.0815   -2.7842 H   0  0  0  0  0  0  0  0  0  0  0  0
    2.1647    1.4538   -1.6592 H   0  0  0  0  0  0  0  0  0  0  0  0
    3.5875    0.1826   -3.2662 H   0  0  0  0  0  0  0  0  0  0  0  0
    2.8683   -1.3407   -2.6893 H   0  0  0  0  0  0  0  0  0  0  0  0
    4.9301   -1.8456   -3.3928 H   0  0  0  0  0  0  0  0  0  0  0  0
    7.2433   -2.5022   -3.7969 H   0  0  0  0  0  0  0  0  0  0  0  0
    9.0347   -1.8288   -2.2264 H   0  0  0  0  0  0  0  0  0  0  0  0
    9.4005    0.5456    1.6570 H   0  0  0  0  0  0  0  0  0  0  0  0
    7.3996    1.8791    3.1851 H   0  0  0  0  0  0  0  0  0  0  0  0
    4.7216    2.1684    2.8634 H   0  0  0  0  0  0  0  0  0  0  0  0
    4.0784    0.8639    0.6059 H   0  0  0  0  0  0  0  0  0  0  0  0
    0.9912   -1.3239   -1.0328 H   0  0  0  0  0  0  0  0  0  0  0  0
    1.7962   -0.2076    0.0587 H   0  0  0  0  0  0  0  0  0  0  0  0
    0.2237    1.1487    1.4020 H   0  0  0  0  0  0  0  0  0  0  0  0
   -0.1619   -0.5762    1.3786 H   0  0  0  0  0  0  0  0  0  0  0  0
   -1.9910    0.8336    2.3316 H   0  0  0  0  0  0  0  0  0  0  0  0
   -2.1164    1.6978    0.7933 H   0  0  0  0  0  0  0  0  0  0  0  0
   -4.0487    0.9122   -0.3904 H   0  0  0  0  0  0  0  0  0  0  0  0
   -6.1519    0.4582   -1.4202 H   0  0  0  0  0  0  0  0  0  0  0  0
   -7.8620   -1.2006   -2.0538 H   0  0  0  0  0  0  0  0  0  0  0  0
   -7.9549   -3.3998   -0.9120 H   0  0  0  0  0  0  0  0  0  0  0  0
   -6.3261   -3.9340    0.8810 H   0  0  0  0  0  0  0  0  0  0  0  0
   -4.6043   -2.2886    1.5266 H   0  0  0  0  0  0  0  0  0  0  0  0
   -4.4909   -0.3594    3.1759 H   0  0  0  0  0  0  0  0  0  0  0  0
   -5.4175    1.0595    4.9715 H   0  0  0  0  0  0  0  0  0  0  0  0
   -6.2021    3.3592    4.4668 H   0  0  0  0  0  0  0  0  0  0  0  0
   -6.0622    4.2363    2.1508 H   0  0  0  0  0  0  0  0  0  0  0  0
   -5.1463    2.8324    0.3431 H   0  0  0  0  0  0  0  0  0  0  0  0
   -3.0342   -1.4811   -1.0267 H   0  0  0  0  0  0  0  0  0  0  0  0
   -1.7179   -1.9112    0.0233 H   0  0  0  0  0  0  0  0  0  0  0  0
   -1.8589    0.5911   -1.7187 H   0  0  0  0  0  0  0  0  0  0  0  0
   -0.9459   -0.8552   -2.0806 H   0  0  0  0  0  0  0  0  0  0  0  0
  1  2  1  0
  2  3  1  0
  3  4  1  0
  4  5  1  0
  5  6  2  0
  6  7  1  0
  7  8  2  0
  8  9  1  0
  9 10  1  0
 10 11  2  0
 11 12  1  0
 12 13  2  0
 13 14  1  0
 14 15  2  0
 15 16  1  0
 16 17  1  0
  2 18  1  0
 18 19  1  0
 19 20  1  0
 20 21  1  0
 21 22  1  0
 22 23  1  0
 23 24  1  0
 24 25  2  0
 25 26  1  0
 26 27  2  0
 27 28  1  0
 28 29  2  0
 23 30  1  0
 30 31  2  0
 31 32  1  0
 32 33  2  0
 33 34  1  0
 34 35  2  0
 22 36  1  0
 36 37  1  0
 17  5  1  0
 37 19  1  0
 17  9  2  0
 29 24  1  0
 35 30  1  0
 16 12  1  0
  1 38  1  0
  2 39  1  0
  3 40  1  0
  3 41  1  0
  6 42  1  0
  7 43  1  0
  8 44  1  0
 11 45  1  0
 13 46  1  0
 14 47  1  0
 15 48  1  0
 18 49  1  0
 18 50  1  0
 20 51  1  0
 20 52  1  0
 21 53  1  0
 21 54  1  0
 23 55  1  0
 25 56  1  0
 26 57  1  0
 27 58  1  0
 28 59  1  0
 29 60  1  0
 31 61  1  0
 32 62  1  0
 33 63  1  0
 34 64  1  0
 35 65  1  0
 36 66  1  0
 36 67  1  0
 37 68  1  0
 37 69  1  0
M  END
$$$$
