
     RDKit          3D

 61 65  0  0  0  0  0  0  0  0999 V2000
   -8.3321   -1.2787   -0.5886 C   0  0  0  0  0  0  0  0  0  0  0  0
   -7.6775   -0.6650    0.5084 O   0  0  0  0  0  0  0  0  0  0  0  0
   -6.3943   -0.2200    0.3091 C   0  0  0  0  0  0  0  0  0  0  0  0
   -5.6730   -0.3844   -0.8787 C   0  0  0  0  0  0  0  0  0  0  0  0
   -4.3732    0.1182   -0.9924 C   0  0  0  0  0  0  0  0  0  0  0  0
   -3.7729    0.7996    0.0718 C   0  0  0  0  0  0  0  0  0  0  0  0
   -2.4368    1.3638   -0.0956 C   0  0  0  0  0  0  0  0  0  0  0  0
   -1.7072    1.4686   -1.1923 N   0  0  0  0  0  0  0  0  0  0  0  0
   -0.5637    2.1320   -0.7853 C   0  0  0  0  0  0  0  0  0  0  0  0
    0.4739    2.4767   -1.7930 C   0  0  0  0  0  0  0  0  0  0  0  0
    1.8322    2.2915   -1.3079 N   0  0  0  0  0  0  0  0  0  0  0  0
    2.5522    1.1236   -1.2696 C   0  0  0  0  0  0  0  0  0  0  0  0
    1.8795   -0.4079   -1.7193 S   0  0  0  0  0  0  0  0  0  0  0  0
    3.3402   -1.2912   -2.3271 C   0  0  0  0  0  0  0  0  0  0  0  0
    3.8408   -2.3340   -1.3623 C   0  0  0  0  0  0  0  0  0  0  0  0
    4.8670   -2.0315   -0.4580 C   0  0  0  0  0  0  0  0  0  0  0  0
    5.3657   -3.0142    0.4061 C   0  0  0  0  0  0  0  0  0  0  0  0
    4.8447   -4.3143    0.3857 C   0  0  0  0  0  0  0  0  0  0  0  0
    5.3767   -5.3642    1.3234 C   0  0  0  0  0  0  0  0  0  0  0  0
    3.7903   -4.6073   -0.4910 C   0  0  0  0  0  0  0  0  0  0  0  0
    3.2956   -3.6273   -1.3585 C   0  0  0  0  0  0  0  0  0  0  0  0
    3.7786    1.3156   -0.8389 N   0  0  0  0  0  0  0  0  0  0  0  0
    3.8691    2.6579   -0.5826 C   0  0  0  0  0  0  0  0  0  0  0  0
    4.9474    3.3939   -0.0906 C   0  0  0  0  0  0  0  0  0  0  0  0
    4.7230    4.7490    0.0612 C   0  0  0  0  0  0  0  0  0  0  0  0
    3.5633    5.3817   -0.2378 N   0  0  0  0  0  0  0  0  0  0  0  0
    2.5230    4.6689   -0.7267 C   0  0  0  0  0  0  0  0  0  0  0  0
    2.6734    3.3013   -0.8857 C   0  0  0  0  0  0  0  0  0  0  0  0
   -0.6676    2.4246    0.5620 C   0  0  0  0  0  0  0  0  0  0  0  0
    0.1509    3.1358    1.5637 C   0  0  0  0  0  0  0  0  0  0  0  0
   -1.8575    1.9232    1.0108 O   0  0  0  0  0  0  0  0  0  0  0  0
   -4.4953    0.9501    1.2648 C   0  0  0  0  0  0  0  0  0  0  0  0
   -5.7969    0.4463    1.3950 C   0  0  0  0  0  0  0  0  0  0  0  0
   -6.5598    0.5520    2.5342 O   0  0  0  0  0  0  0  0  0  0  0  0
   -6.0132    1.2762    3.6322 C   0  0  0  0  0  0  0  0  0  0  0  0
   -8.3839   -0.6093   -1.4531 H   0  0  0  0  0  0  0  0  0  0  0  0
   -7.8491   -2.2175   -0.8518 H   0  0  0  0  0  0  0  0  0  0  0  0
   -9.3564   -1.5055   -0.2810 H   0  0  0  0  0  0  0  0  0  0  0  0
   -6.0920   -0.8985   -1.7393 H   0  0  0  0  0  0  0  0  0  0  0  0
   -3.8321   -0.0194   -1.9255 H   0  0  0  0  0  0  0  0  0  0  0  0
    0.3583    3.5233   -2.0981 H   0  0  0  0  0  0  0  0  0  0  0  0
    0.3584    1.8764   -2.7032 H   0  0  0  0  0  0  0  0  0  0  0  0
    4.1457   -0.6071   -2.6041 H   0  0  0  0  0  0  0  0  0  0  0  0
    3.0509   -1.7914   -3.2566 H   0  0  0  0  0  0  0  0  0  0  0  0
    5.2891   -1.0269   -0.4265 H   0  0  0  0  0  0  0  0  0  0  0  0
    6.1730   -2.7572    1.0915 H   0  0  0  0  0  0  0  0  0  0  0  0
    6.4593   -5.2579    1.4582 H   0  0  0  0  0  0  0  0  0  0  0  0
    5.2046   -6.3671    0.9253 H   0  0  0  0  0  0  0  0  0  0  0  0
    4.8891   -5.2934    2.3027 H   0  0  0  0  0  0  0  0  0  0  0  0
    3.3507   -5.6025   -0.5094 H   0  0  0  0  0  0  0  0  0  0  0  0
    2.4844   -3.8855   -2.0419 H   0  0  0  0  0  0  0  0  0  0  0  0
    5.8916    2.9333    0.1614 H   0  0  0  0  0  0  0  0  0  0  0  0
    5.5089    5.3957    0.4422 H   0  0  0  0  0  0  0  0  0  0  0  0
    1.6168    5.2144   -0.9546 H   0  0  0  0  0  0  0  0  0  0  0  0
   -0.3716    3.1861    2.5264 H   0  0  0  0  0  0  0  0  0  0  0  0
    0.3293    4.1647    1.2510 H   0  0  0  0  0  0  0  0  0  0  0  0
    1.1093    2.6322    1.7424 H   0  0  0  0  0  0  0  0  0  0  0  0
   -4.0234    1.4744    2.0871 H   0  0  0  0  0  0  0  0  0  0  0  0
   -5.8373    2.3224    3.3629 H   0  0  0  0  0  0  0  0  0  0  0  0
   -6.7451    1.2646    4.4489 H   0  0  0  0  0  0  0  0  0  0  0  0
   -5.0949    0.7954    3.9988 H   0  0  0  0  0  0  0  0  0  0  0  0
  1  2  1  0
  2  3  1  0
  3  4  2  0
  4  5  1  0
  5  6  2  0
  6  7  1  0
  7  8  2  0
  8  9  1  0
  9 10  1  0
 10 11  1  0
 11 12  1  0
 12 13  1  0
 13 14  1  0
 14 15  1  0
 15 16  2  0
 16 17  1  0
 17 18  2  0
 18 19  1  0
 18 20  1  0
 20 21  2  0
 12 22  2  0
 22 23  1  0
 23 24  2  0
 24 25  1  0
 25 26  2  0
 26 27  1  0
 27 28  2  0
  9 29  2  0
 29 30  1  0
 29 31  1  0
  6 32  1  0
 32 33  2  0
 33 34  1  0
 34 35  1  0
 33  3  1  0
 31  7  1  0
 28 11  1  0
 21 15  1  0
 28 23  1  0
  1 36  1  0
  1 37  1  0
  1 38  1  0
  4 39  1  0
  5 40  1  0
 10 41  1  0
 10 42  1  0
 14 43  1  0
 14 44  1  0
 16 45  1  0
 17 46  1  0
 19 47  1  0
 19 48  1  0
 19 49  1  0
 20 50  1  0
 21 51  1  0
 24 52  1  0
 25 53  1  0
 27 54  1  0
 30 55  1  0
 30 56  1  0
 30 57  1  0
 32 58  1  0
 35 59  1  0
 35 60  1  0
 35 61  1  0
M  END
$$$$
