
     RDKit          3D

 48 50  0  0  0  0  0  0  0  0999 V2000
   -5.1744   -0.7083    1.3964 C   0  0  0  0  0  0  0  0  0  0  0  0
   -5.2840   -0.4067    0.0039 O   0  0  0  0  0  0  0  0  0  0  0  0
   -4.1729    0.2187   -0.5016 C   0  0  0  0  0  0  0  0  0  0  0  0
   -2.8873   -0.2928   -0.3163 C   0  0  0  0  0  0  0  0  0  0  0  0
   -1.7812    0.3741   -0.8571 C   0  0  0  0  0  0  0  0  0  0  0  0
   -0.4136   -0.1371   -0.6792 C   0  0  0  0  0  0  0  0  0  0  0  0
    0.2065   -0.3543    0.4994 C   0  0  0  0  0  0  0  0  0  0  0  0
   -0.4147   -0.1021    1.7525 C   0  0  0  0  0  0  0  0  0  0  0  0
   -0.8836    0.0447    2.8038 N   0  0  0  0  0  0  0  0  0  0  0  0
    1.6256   -0.8603    0.4507 C   0  0  0  0  0  0  0  0  0  0  0  0
    2.1791   -1.0257   -0.6334 O   0  0  0  0  0  0  0  0  0  0  0  0
    2.1843   -1.1615    1.6821 N   0  0  0  0  0  0  0  0  0  0  0  0
    3.4979   -1.6558    1.9083 C   0  0  0  0  0  0  0  0  0  0  0  0
    3.5943   -2.6079    2.9351 C   0  0  0  0  0  0  0  0  0  0  0  0
    4.8085   -3.2168    3.2204 C   0  0  0  0  0  0  0  0  0  0  0  0
    5.9410   -2.8603    2.4945 C   0  0  0  0  0  0  0  0  0  0  0  0
    5.9058   -1.8810    1.5151 C   0  0  0  0  0  0  0  0  0  0  0  0
    7.0717   -1.5757    0.9192 N   0  0  0  0  0  0  0  0  0  0  0  0
    7.0851   -0.5785    0.0127 C   0  0  0  0  0  0  0  0  0  0  0  0
    5.9723    0.1591   -0.3204 C   0  0  0  0  0  0  0  0  0  0  0  0
    4.7691   -0.1668    0.2977 C   0  0  0  0  0  0  0  0  0  0  0  0
    4.6784   -1.2367    1.2196 C   0  0  0  0  0  0  0  0  0  0  0  0
   -1.9746    1.5349   -1.6231 C   0  0  0  0  0  0  0  0  0  0  0  0
   -3.2602    2.0418   -1.8402 C   0  0  0  0  0  0  0  0  0  0  0  0
   -3.5488    3.1644   -2.5717 O   0  0  0  0  0  0  0  0  0  0  0  0
   -2.4573    3.9143   -3.0881 C   0  0  0  0  0  0  0  0  0  0  0  0
   -4.3583    1.3631   -1.2879 C   0  0  0  0  0  0  0  0  0  0  0  0
   -5.6265    1.8727   -1.4494 O   0  0  0  0  0  0  0  0  0  0  0  0
   -6.2317    1.3027   -2.6088 C   0  0  0  0  0  0  0  0  0  0  0  0
   -4.6053   -1.6319    1.5476 H   0  0  0  0  0  0  0  0  0  0  0  0
   -6.1844   -0.8736    1.7840 H   0  0  0  0  0  0  0  0  0  0  0  0
   -4.7279    0.1194    1.9618 H   0  0  0  0  0  0  0  0  0  0  0  0
   -2.7523   -1.2208    0.2315 H   0  0  0  0  0  0  0  0  0  0  0  0
    0.1138   -0.3187   -1.6164 H   0  0  0  0  0  0  0  0  0  0  0  0
    1.5456   -1.3112    2.4566 H   0  0  0  0  0  0  0  0  0  0  0  0
    2.7170   -2.9195    3.4978 H   0  0  0  0  0  0  0  0  0  0  0  0
    4.8777   -3.9732    3.9974 H   0  0  0  0  0  0  0  0  0  0  0  0
    6.8905   -3.3430    2.7170 H   0  0  0  0  0  0  0  0  0  0  0  0
    8.0507   -0.3763   -0.4412 H   0  0  0  0  0  0  0  0  0  0  0  0
    6.0320    0.9678   -1.0394 H   0  0  0  0  0  0  0  0  0  0  0  0
    3.9022    0.4393    0.0579 H   0  0  0  0  0  0  0  0  0  0  0  0
   -1.1043    2.0296   -2.0438 H   0  0  0  0  0  0  0  0  0  0  0  0
   -1.8879    3.3287   -3.8178 H   0  0  0  0  0  0  0  0  0  0  0  0
   -1.8114    4.2805   -2.2828 H   0  0  0  0  0  0  0  0  0  0  0  0
   -2.8666    4.7856   -3.6083 H   0  0  0  0  0  0  0  0  0  0  0  0
   -6.3404    0.2171   -2.5109 H   0  0  0  0  0  0  0  0  0  0  0  0
   -5.6671    1.5465   -3.5156 H   0  0  0  0  0  0  0  0  0  0  0  0
   -7.2327    1.7332   -2.7095 H   0  0  0  0  0  0  0  0  0  0  0  0
  1  2  1  0
  2  3  1  0
  3  4  2  0
  4  5  1  0
  5  6  1  0
  6  7  2  3
  7  8  1  0
  8  9  3  0
  7 10  1  0
 10 11  2  0
 10 12  1  0
 12 13  1  0
 13 14  2  0
 14 15  1  0
 15 16  2  0
 16 17  1  0
 17 18  2  0
 18 19  1  0
 19 20  2  0
 20 21  1  0
 21 22  2  0
  5 23  2  0
 23 24  1  0
 24 25  1  0
 25 26  1  0
 24 27  2  0
 27 28  1  0
 28 29  1  0
 27  3  1  0
 22 13  1  0
 22 17  1  0
  1 30  1  0
  1 31  1  0
  1 32  1  0
  4 33  1  0
  6 34  1  0
 12 35  1  0
 14 36  1  0
 15 37  1  0
 16 38  1  0
 19 39  1  0
 20 40  1  0
 21 41  1  0
 23 42  1  0
 26 43  1  0
 26 44  1  0
 26 45  1  0
 29 46  1  0
 29 47  1  0
 29 48  1  0
M  END
$$$$
