
     RDKit          3D

 43 45  0  0  0  0  0  0  0  0999 V2000
   -0.7064   -2.6936   -0.5001 C   0  0  0  0  0  0  0  0  0  0  0  0
   -1.5317   -2.0471   -1.4631 O   0  0  0  0  0  0  0  0  0  0  0  0
   -1.9321   -0.7762   -1.1696 C   0  0  0  0  0  0  0  0  0  0  0  0
   -2.5103   -0.0797   -2.2296 C   0  0  0  0  0  0  0  0  0  0  0  0
   -2.9500    1.2359   -2.0663 C   0  0  0  0  0  0  0  0  0  0  0  0
   -2.8024    1.8892   -0.8369 C   0  0  0  0  0  0  0  0  0  0  0  0
   -3.2227    3.1656   -0.5916 O   0  0  0  0  0  0  0  0  0  0  0  0
   -3.8691    3.8775   -1.6334 C   0  0  0  0  0  0  0  0  0  0  0  0
   -2.2126    1.1874    0.2249 C   0  0  0  0  0  0  0  0  0  0  0  0
   -1.9437    1.9956    1.7936 S   0  0  0  0  0  6  0  0  0  0  0  0
   -1.4872    3.3540    1.5830 O   0  0  0  0  0  0  0  0  0  0  0  0
   -3.0970    1.7024    2.6216 O   0  0  0  0  0  0  0  0  0  0  0  0
   -0.6738    1.1552    2.5119 N   0  0  0  0  0  0  0  0  0  0  0  0
    0.6124    0.9872    1.9303 C   0  0  0  0  0  0  0  0  0  0  0  0
    1.2282    1.9481    1.1277 C   0  0  0  0  0  0  0  0  0  0  0  0
    2.4875    1.6978    0.5787 C   0  0  0  0  0  0  0  0  0  0  0  0
    3.1327    0.4894    0.8345 C   0  0  0  0  0  0  0  0  0  0  0  0
    4.3524    0.3238    0.2404 O   0  0  0  0  0  0  0  0  0  0  0  0
    2.5420   -0.4766    1.6560 C   0  0  0  0  0  0  0  0  0  0  0  0
    3.3221   -2.0248    2.0902 S   0  0  0  0  0  0  0  0  0  0  0  0
    3.4058   -2.8243    0.5513 C   0  0  0  0  0  0  0  0  0  0  0  0
    2.5878   -3.8506    0.1834 N   0  0  0  0  0  0  0  0  0  0  0  0
    3.0312   -4.1693   -1.0112 C   0  0  0  0  0  0  0  0  0  0  0  0
    4.0710   -3.3630   -1.3413 N   0  0  0  0  0  0  0  0  0  0  0  0
    4.3109   -2.4640   -0.3670 N   0  0  0  0  0  0  0  0  0  0  0  0
    1.2862   -0.2051    2.2147 C   0  0  0  0  0  0  0  0  0  0  0  0
   -1.8176   -0.1516    0.0678 C   0  0  0  0  0  0  0  0  0  0  0  0
   -1.2798   -2.9567    0.3932 H   0  0  0  0  0  0  0  0  0  0  0  0
   -0.3416   -3.6236   -0.9437 H   0  0  0  0  0  0  0  0  0  0  0  0
    0.1630   -2.0829   -0.2440 H   0  0  0  0  0  0  0  0  0  0  0  0
   -2.6163   -0.5687   -3.1927 H   0  0  0  0  0  0  0  0  0  0  0  0
   -3.4004    1.7237   -2.9235 H   0  0  0  0  0  0  0  0  0  0  0  0
   -3.2111    3.9990   -2.5001 H   0  0  0  0  0  0  0  0  0  0  0  0
   -4.8093    3.3992   -1.9149 H   0  0  0  0  0  0  0  0  0  0  0  0
   -4.1053    4.8712   -1.2487 H   0  0  0  0  0  0  0  0  0  0  0  0
   -0.9670    0.5784    3.2985 H   0  0  0  0  0  0  0  0  0  0  0  0
    0.7598    2.9038    0.9136 H   0  0  0  0  0  0  0  0  0  0  0  0
    2.9637    2.4447   -0.0556 H   0  0  0  0  0  0  0  0  0  0  0  0
    4.5541   -0.6372    0.2159 H   0  0  0  0  0  0  0  0  0  0  0  0
    2.6490   -4.9442   -1.6604 H   0  0  0  0  0  0  0  0  0  0  0  0
    4.6350   -3.3538   -2.1871 H   0  0  0  0  0  0  0  0  0  0  0  0
    0.8187   -0.9440    2.8618 H   0  0  0  0  0  0  0  0  0  0  0  0
   -1.4265   -0.6923    0.9218 H   0  0  0  0  0  0  0  0  0  0  0  0
  1  2  1  0
  2  3  1  0
  3  4  2  0
  4  5  1  0
  5  6  2  0
  6  7  1  0
  7  8  1  0
  6  9  1  0
  9 10  1  0
 10 11  2  0
 10 12  2  0
 10 13  1  0
 13 14  1  0
 14 15  2  0
 15 16  1  0
 16 17  2  0
 17 18  1  0
 17 19  1  0
 19 20  1  0
 20 21  1  0
 21 22  1  0
 22 23  2  0
 23 24  1  0
 24 25  1  0
 19 26  2  0
  9 27  2  0
 27  3  1  0
 26 14  1  0
 25 21  2  0
  1 28  1  0
  1 29  1  0
  1 30  1  0
  4 31  1  0
  5 32  1  0
  8 33  1  0
  8 34  1  0
  8 35  1  0
 13 36  1  0
 15 37  1  0
 16 38  1  0
 18 39  1  0
 23 40  1  0
 24 41  1  0
 26 42  1  0
 27 43  1  0
M  END
$$$$
