
     RDKit          3D

 19 19  0  0  0  0  0  0  0  0999 V2000
   -2.8312   -0.2222   -1.9538 C   0  0  0  0  0  0  0  0  0  0  0  0
   -2.0298    0.3208   -0.7795 C   0  0  0  0  0  0  0  0  0  0  0  0
   -1.7014   -0.7872    0.2193 C   0  0  0  0  0  0  0  0  0  0  0  0
   -0.7807   -0.1471    1.6512 S   0  0  0  0  0  0  0  0  0  0  0  0
    0.8300    0.0207    0.9898 C   0  0  0  0  0  0  0  0  0  0  0  0
    1.1779   -0.4498   -0.1872 N   0  0  0  0  0  0  0  0  0  0  0  0
    2.5026   -0.1856   -0.4777 N   0  0  0  0  0  0  0  0  0  0  0  0
    3.1071    0.4660    0.4901 C   0  0  0  0  0  0  0  0  0  0  0  0
    4.4016    0.8386    0.4676 N   0  0  0  0  0  0  0  0  0  0  0  0
    2.0974    0.8008    1.8386 S   0  0  0  0  0  0  0  0  0  0  0  0
   -3.0626    0.5824   -2.6589 H   0  0  0  0  0  0  0  0  0  0  0  0
   -3.7761   -0.6595   -1.6157 H   0  0  0  0  0  0  0  0  0  0  0  0
   -2.2676   -0.9923   -2.4901 H   0  0  0  0  0  0  0  0  0  0  0  0
   -1.1145    0.7826   -1.1664 H   0  0  0  0  0  0  0  0  0  0  0  0
   -2.6131    1.1109   -0.2912 H   0  0  0  0  0  0  0  0  0  0  0  0
   -1.1482   -1.6040   -0.2563 H   0  0  0  0  0  0  0  0  0  0  0  0
   -2.6329   -1.2177    0.6032 H   0  0  0  0  0  0  0  0  0  0  0  0
    4.9790    0.3592   -0.2157 H   0  0  0  0  0  0  0  0  0  0  0  0
    4.8624    0.9834    1.3581 H   0  0  0  0  0  0  0  0  0  0  0  0
  1  2  1  0
  2  3  1  0
  3  4  1  0
  4  5  1  0
  5  6  2  0
  6  7  1  0
  7  8  2  0
  8  9  1  0
  8 10  1  0
 10  5  1  0
  1 11  1  0
  1 12  1  0
  1 13  1  0
  2 14  1  0
  2 15  1  0
  3 16  1  0
  3 17  1  0
  9 18  1  0
  9 19  1  0
M  END
$$$$
