
     RDKit          3D

 52 56  0  0  0  0  0  0  0  0999 V2000
    2.2233   -2.0606    3.3965 O   0  0  0  0  0  0  0  0  0  0  0  0
    1.5068   -1.1369    3.0139 C   0  0  0  0  0  0  0  0  0  0  0  0
    0.0856   -0.9833    3.5456 C   0  0  0  0  0  0  0  0  0  0  0  0
   -1.1270   -1.7574    2.4371 S   0  0  0  0  0  0  0  0  0  0  0  0
   -1.2871   -0.5467    1.2035 C   0  0  0  0  0  0  0  0  0  0  0  0
   -0.6543    0.6037    1.2290 N   0  0  0  0  0  0  0  0  0  0  0  0
   -0.8627    1.2268    0.0390 N   0  0  0  0  0  0  0  0  0  0  0  0
   -1.6441    0.4598   -0.7025 C   0  0  0  0  0  0  0  0  0  0  0  0
   -2.2435    0.8965   -2.0022 C   0  0  0  0  0  0  0  0  0  0  0  0
   -3.6581    1.3878   -1.8379 C   0  0  0  0  0  0  0  0  0  0  0  0
   -4.1224    2.4155   -1.0361 C   0  0  0  0  0  0  0  0  0  0  0  0
   -5.5281    2.6049   -1.1545 C   0  0  0  0  0  0  0  0  0  0  0  0
   -6.0940    1.7203   -2.0431 C   0  0  0  0  0  0  0  0  0  0  0  0
   -4.9333    0.6653   -2.7262 S   0  0  0  0  0  0  0  0  0  0  0  0
   -1.9468   -0.7076   -0.0058 N   0  0  0  0  0  0  0  0  0  0  0  0
   -2.7601   -1.7885   -0.4306 C   0  0  0  0  0  0  0  0  0  0  0  0
   -3.7260   -2.3191    0.4354 C   0  0  0  0  0  0  0  0  0  0  0  0
   -4.5324   -3.3778    0.0134 C   0  0  0  0  0  0  0  0  0  0  0  0
   -4.3767   -3.9103   -1.2650 C   0  0  0  0  0  0  0  0  0  0  0  0
   -3.4104   -3.3897   -2.1241 C   0  0  0  0  0  0  0  0  0  0  0  0
   -2.5996   -2.3307   -1.7114 C   0  0  0  0  0  0  0  0  0  0  0  0
    1.8671   -0.1453    2.1191 N   0  0  0  0  0  0  0  0  0  0  0  0
    3.1251    0.0777    1.5299 C   0  0  0  0  0  0  0  0  0  0  0  0
    4.2903   -0.5950    1.9075 C   0  0  0  0  0  0  0  0  0  0  0  0
    5.5165   -0.2830    1.3078 C   0  0  0  0  0  0  0  0  0  0  0  0
    5.5808    0.7004    0.3252 C   0  0  0  0  0  0  0  0  0  0  0  0
    4.4224    1.3835   -0.0515 C   0  0  0  0  0  0  0  0  0  0  0  0
    3.1981    1.0655    0.5385 C   0  0  0  0  0  0  0  0  0  0  0  0
    4.4100    2.3788   -0.9989 O   0  0  0  0  0  0  0  0  0  0  0  0
    5.7329    2.8674   -1.2502 C   0  0  0  0  0  0  0  0  0  0  0  0
    6.7062    1.7147   -1.4266 C   0  0  0  0  0  0  0  0  0  0  0  0
    6.8146    0.9491   -0.2192 O   0  0  0  0  0  0  0  0  0  0  0  0
   -0.1434    0.0710    3.7302 H   0  0  0  0  0  0  0  0  0  0  0  0
    0.0377   -1.4889    4.5158 H   0  0  0  0  0  0  0  0  0  0  0  0
   -2.1723    0.1178   -2.7681 H   0  0  0  0  0  0  0  0  0  0  0  0
   -1.6432    1.7315   -2.3899 H   0  0  0  0  0  0  0  0  0  0  0  0
   -3.4784    3.0054   -0.3936 H   0  0  0  0  0  0  0  0  0  0  0  0
   -6.0946    3.3552   -0.6150 H   0  0  0  0  0  0  0  0  0  0  0  0
   -7.1349    1.6402   -2.3242 H   0  0  0  0  0  0  0  0  0  0  0  0
   -3.8966   -1.9044    1.4279 H   0  0  0  0  0  0  0  0  0  0  0  0
   -5.2863   -3.7852    0.6816 H   0  0  0  0  0  0  0  0  0  0  0  0
   -5.0036   -4.7382   -1.5898 H   0  0  0  0  0  0  0  0  0  0  0  0
   -3.2815   -3.8186   -3.1156 H   0  0  0  0  0  0  0  0  0  0  0  0
   -1.8232   -1.9857   -2.3874 H   0  0  0  0  0  0  0  0  0  0  0  0
    1.1105    0.4501    1.7797 H   0  0  0  0  0  0  0  0  0  0  0  0
    4.2827   -1.3587    2.6780 H   0  0  0  0  0  0  0  0  0  0  0  0
    6.4175   -0.8059    1.6173 H   0  0  0  0  0  0  0  0  0  0  0  0
    2.3084    1.6024    0.2222 H   0  0  0  0  0  0  0  0  0  0  0  0
    5.6974    3.4726   -2.1598 H   0  0  0  0  0  0  0  0  0  0  0  0
    6.0304    3.5166   -0.4183 H   0  0  0  0  0  0  0  0  0  0  0  0
    7.7032    2.0943   -1.6672 H   0  0  0  0  0  0  0  0  0  0  0  0
    6.3972    1.0425   -2.2359 H   0  0  0  0  0  0  0  0  0  0  0  0
  1  2  2  0
  2  3  1  0
  3  4  1  0
  4  5  1  0
  5  6  2  0
  6  7  1  0
  7  8  2  0
  8  9  1  0
  9 10  1  0
 10 11  2  0
 11 12  1  0
 12 13  2  0
 13 14  1  0
  8 15  1  0
 15 16  1  0
 16 17  2  0
 17 18  1  0
 18 19  2  0
 19 20  1  0
 20 21  2  0
  2 22  1  0
 22 23  1  0
 23 24  2  0
 24 25  1  0
 25 26  2  0
 26 27  1  0
 27 28  2  0
 27 29  1  0
 29 30  1  0
 30 31  1  0
 31 32  1  0
 15  5  1  0
 21 16  1  0
 28 23  1  0
 14 10  1  0
 32 26  1  0
  3 33  1  0
  3 34  1  0
  9 35  1  0
  9 36  1  0
 11 37  1  0
 12 38  1  0
 13 39  1  0
 17 40  1  0
 18 41  1  0
 19 42  1  0
 20 43  1  0
 21 44  1  0
 22 45  1  0
 24 46  1  0
 25 47  1  0
 28 48  1  0
 30 49  1  0
 30 50  1  0
 31 51  1  0
 31 52  1  0
M  END
$$$$
