
     RDKit          3D

 44 46  0  0  0  0  0  0  0  0999 V2000
   -4.3279    0.4505    1.7423 C   0  0  0  0  0  0  0  0  0  0  0  0
   -3.2099   -0.4427    1.2762 C   0  0  0  0  0  0  0  0  0  0  0  0
   -2.3542   -1.0259    2.2272 C   0  0  0  0  0  0  0  0  0  0  0  0
   -1.2834   -1.8569    1.8542 C   0  0  0  0  0  0  0  0  0  0  0  0
   -0.4242   -2.4441    2.9381 C   0  0  0  0  0  0  0  0  0  0  0  0
   -1.0919   -2.1121    0.4863 C   0  0  0  0  0  0  0  0  0  0  0  0
    0.2293   -3.1520   -0.1119 S   0  0  0  0  0  6  0  0  0  0  0  0
    0.0601   -3.3663   -1.5344 O   0  0  0  0  0  0  0  0  0  0  0  0
    0.3601   -4.2825    0.7831 O   0  0  0  0  0  0  0  0  0  0  0  0
    1.6039   -2.1920    0.1303 N   0  0  0  0  0  0  0  0  0  0  0  0
    1.8590   -1.1551   -0.8086 C   0  0  0  0  0  0  0  0  0  0  0  0
    2.6297   -1.4197   -1.9398 C   0  0  0  0  0  0  0  0  0  0  0  0
    2.8317   -0.4203   -2.8925 C   0  0  0  0  0  0  0  0  0  0  0  0
    2.2553    0.8381   -2.7086 C   0  0  0  0  0  0  0  0  0  0  0  0
    2.4450    1.8095   -3.6543 O   0  0  0  0  0  0  0  0  0  0  0  0
    1.4784    1.1120   -1.5734 C   0  0  0  0  0  0  0  0  0  0  0  0
    0.7068    2.6995   -1.3061 S   0  0  0  0  0  0  0  0  0  0  0  0
    2.0236    3.6242   -0.6293 C   0  0  0  0  0  0  0  0  0  0  0  0
    3.1827    3.0776   -0.1361 N   0  0  0  0  0  0  0  0  0  0  0  0
    3.8556    4.1252    0.2754 C   0  0  0  0  0  0  0  0  0  0  0  0
    3.1248    5.2471    0.0535 N   0  0  0  0  0  0  0  0  0  0  0  0
    1.9437    4.9555   -0.5086 N   0  0  0  0  0  0  0  0  0  0  0  0
    1.2775    0.0993   -0.6275 C   0  0  0  0  0  0  0  0  0  0  0  0
   -1.9472   -1.5427   -0.4712 C   0  0  0  0  0  0  0  0  0  0  0  0
   -3.0005   -0.6997   -0.0898 C   0  0  0  0  0  0  0  0  0  0  0  0
   -3.8813   -0.0956   -1.1492 C   0  0  0  0  0  0  0  0  0  0  0  0
   -4.1845    1.4669    1.3623 H   0  0  0  0  0  0  0  0  0  0  0  0
   -4.3684    0.5083    2.8352 H   0  0  0  0  0  0  0  0  0  0  0  0
   -5.2929    0.0641    1.3993 H   0  0  0  0  0  0  0  0  0  0  0  0
   -2.5259   -0.8235    3.2842 H   0  0  0  0  0  0  0  0  0  0  0  0
    0.6385   -2.3093    2.7195 H   0  0  0  0  0  0  0  0  0  0  0  0
   -0.6487   -3.5070    3.0675 H   0  0  0  0  0  0  0  0  0  0  0  0
   -0.6058   -1.9505    3.8994 H   0  0  0  0  0  0  0  0  0  0  0  0
    2.3921   -2.7620    0.4334 H   0  0  0  0  0  0  0  0  0  0  0  0
    3.0568   -2.4061   -2.0994 H   0  0  0  0  0  0  0  0  0  0  0  0
    3.4270   -0.6433   -3.7726 H   0  0  0  0  0  0  0  0  0  0  0  0
    2.9988    1.4579   -4.3690 H   0  0  0  0  0  0  0  0  0  0  0  0
    4.8371    4.1307    0.7265 H   0  0  0  0  0  0  0  0  0  0  0  0
    3.3540    6.2136    0.2552 H   0  0  0  0  0  0  0  0  0  0  0  0
    0.6787    0.2972    0.2577 H   0  0  0  0  0  0  0  0  0  0  0  0
   -1.7855   -1.7455   -1.5294 H   0  0  0  0  0  0  0  0  0  0  0  0
   -3.8591    0.9969   -1.0857 H   0  0  0  0  0  0  0  0  0  0  0  0
   -3.5479   -0.3709   -2.1555 H   0  0  0  0  0  0  0  0  0  0  0  0
   -4.9108   -0.4484   -1.0335 H   0  0  0  0  0  0  0  0  0  0  0  0
  1  2  1  0
  2  3  2  0
  3  4  1  0
  4  5  1  0
  4  6  2  0
  6  7  1  0
  7  8  2  0
  7  9  2  0
  7 10  1  0
 10 11  1  0
 11 12  2  0
 12 13  1  0
 13 14  2  0
 14 15  1  0
 14 16  1  0
 16 17  1  0
 17 18  1  0
 18 19  1  0
 19 20  2  0
 20 21  1  0
 21 22  1  0
 16 23  2  0
  6 24  1  0
 24 25  2  0
 25 26  1  0
 25  2  1  0
 23 11  1  0
 22 18  2  0
  1 27  1  0
  1 28  1  0
  1 29  1  0
  3 30  1  0
  5 31  1  0
  5 32  1  0
  5 33  1  0
 10 34  1  0
 12 35  1  0
 13 36  1  0
 15 37  1  0
 20 38  1  0
 21 39  1  0
 23 40  1  0
 24 41  1  0
 26 42  1  0
 26 43  1  0
 26 44  1  0
M  END
$$$$
