
     RDKit          3D

 39 41  0  0  0  0  0  0  0  0999 V2000
    2.6372   -0.4917   -2.3687 O   0  0  0  0  0  0  0  0  0  0  0  0
    2.8294   -0.7016   -1.1817 C   0  0  0  0  0  0  0  0  0  0  0  0
    2.1657   -1.5952   -0.4097 O   0  0  0  0  0  0  0  0  0  0  0  0
    1.1115   -2.3165   -1.0579 C   0  0  0  0  0  0  0  0  0  0  0  0
   -0.2100   -1.6889   -0.6994 C   0  0  0  0  0  0  0  0  0  0  0  0
   -0.7647   -0.6938   -1.5121 C   0  0  0  0  0  0  0  0  0  0  0  0
   -1.9810   -0.0942   -1.1704 C   0  0  0  0  0  0  0  0  0  0  0  0
   -2.6709   -0.4653   -0.0056 C   0  0  0  0  0  0  0  0  0  0  0  0
   -3.9514    0.1671    0.3523 C   0  0  0  0  0  0  0  0  0  0  0  0
   -5.0219    0.1996   -0.5571 C   0  0  0  0  0  0  0  0  0  0  0  0
   -6.2383    0.7988   -0.2183 C   0  0  0  0  0  0  0  0  0  0  0  0
   -6.4045    1.3775    1.0372 C   0  0  0  0  0  0  0  0  0  0  0  0
   -5.3562    1.3574    1.9536 C   0  0  0  0  0  0  0  0  0  0  0  0
   -4.1409    0.7568    1.6134 C   0  0  0  0  0  0  0  0  0  0  0  0
   -2.0991   -1.4553    0.8094 C   0  0  0  0  0  0  0  0  0  0  0  0
   -0.8828   -2.0575    0.4708 C   0  0  0  0  0  0  0  0  0  0  0  0
    3.8625    0.0075   -0.3793 C   0  0  0  0  0  0  0  0  0  0  0  0
    3.9833   -0.1601    1.0086 C   0  0  0  0  0  0  0  0  0  0  0  0
    4.9694    0.5320    1.7174 C   0  0  0  0  0  0  0  0  0  0  0  0
    5.8379    1.3941    1.0478 C   0  0  0  0  0  0  0  0  0  0  0  0
    5.7121    1.5591   -0.3283 C   0  0  0  0  0  0  0  0  0  0  0  0
    6.5397    2.3928   -1.0202 O   0  0  0  0  0  0  0  0  0  0  0  0
    4.7348    0.8768   -1.0453 C   0  0  0  0  0  0  0  0  0  0  0  0
    1.2411   -2.3820   -2.1451 H   0  0  0  0  0  0  0  0  0  0  0  0
    1.1453   -3.3483   -0.6891 H   0  0  0  0  0  0  0  0  0  0  0  0
   -0.2476   -0.3717   -2.4148 H   0  0  0  0  0  0  0  0  0  0  0  0
   -2.3812    0.6835   -1.8181 H   0  0  0  0  0  0  0  0  0  0  0  0
   -4.9165   -0.2561   -1.5397 H   0  0  0  0  0  0  0  0  0  0  0  0
   -7.0546    0.8104   -0.9356 H   0  0  0  0  0  0  0  0  0  0  0  0
   -7.3497    1.8445    1.3008 H   0  0  0  0  0  0  0  0  0  0  0  0
   -5.4808    1.8117    2.9330 H   0  0  0  0  0  0  0  0  0  0  0  0
   -3.3306    0.7630    2.3396 H   0  0  0  0  0  0  0  0  0  0  0  0
   -2.6073   -1.7732    1.7177 H   0  0  0  0  0  0  0  0  0  0  0  0
   -0.4656   -2.8165    1.1287 H   0  0  0  0  0  0  0  0  0  0  0  0
    3.3131   -0.8221    1.5516 H   0  0  0  0  0  0  0  0  0  0  0  0
    5.0572    0.3987    2.7931 H   0  0  0  0  0  0  0  0  0  0  0  0
    6.5989    1.9253    1.6113 H   0  0  0  0  0  0  0  0  0  0  0  0
    7.1599    2.8083   -0.3988 H   0  0  0  0  0  0  0  0  0  0  0  0
    4.6561    1.0249   -2.1200 H   0  0  0  0  0  0  0  0  0  0  0  0
  1  2  2  0
  2  3  1  0
  3  4  1  0
  4  5  1  0
  5  6  2  0
  6  7  1  0
  7  8  2  0
  8  9  1  0
  9 10  2  0
 10 11  1  0
 11 12  2  0
 12 13  1  0
 13 14  2  0
  8 15  1  0
 15 16  2  0
  2 17  1  0
 17 18  2  0
 18 19  1  0
 19 20  2  0
 20 21  1  0
 21 22  1  0
 21 23  2  0
 16  5  1  0
 23 17  1  0
 14  9  1  0
  4 24  1  0
  4 25  1  0
  6 26  1  0
  7 27  1  0
 10 28  1  0
 11 29  1  0
 12 30  1  0
 13 31  1  0
 14 32  1  0
 15 33  1  0
 16 34  1  0
 18 35  1  0
 19 36  1  0
 20 37  1  0
 22 38  1  0
 23 39  1  0
M  END
$$$$
