
     RDKit          3D

 35 35  0  0  0  0  0  0  0  0999 V2000
   -2.9951    0.9079   -2.2128 C   0  0  0  0  0  0  0  0  0  0  0  0
   -3.1789    1.0083   -0.6877 C   0  0  0  0  0  0  0  0  0  0  0  0
   -4.6924    1.1154   -0.4241 C   0  0  0  0  0  0  0  0  0  0  0  0
   -2.5272   -0.1445   -0.0077 N   0  0  0  0  0  0  0  0  0  0  0  0
   -2.9786   -0.3001    1.3827 C   0  0  0  0  0  0  0  0  0  0  0  0
   -1.0500   -0.0110   -0.0299 C   0  0  0  0  0  0  0  0  0  0  0  0
   -0.3037   -1.3258    0.2634 C   0  0  0  0  0  0  0  0  0  0  0  0
    1.1083   -1.1710    0.0238 O   0  0  0  0  0  0  0  0  0  0  0  0
    1.7966   -0.5650    1.0224 C   0  0  0  0  0  0  0  0  0  0  0  0
    1.3513   -0.1613    2.0813 O   0  0  0  0  0  0  0  0  0  0  0  0
    3.2067   -0.4573    0.6088 C   0  0  0  0  0  0  0  0  0  0  0  0
    3.9018   -1.6382    0.3041 C   0  0  0  0  0  0  0  0  0  0  0  0
    5.2461   -1.5829   -0.0648 C   0  0  0  0  0  0  0  0  0  0  0  0
    5.8988   -0.3530   -0.1295 C   0  0  0  0  0  0  0  0  0  0  0  0
    5.2090    0.8242    0.1704 C   0  0  0  0  0  0  0  0  0  0  0  0
    3.8604    0.7770    0.5409 C   0  0  0  0  0  0  0  0  0  0  0  0
    2.9864    2.4279    0.8775 Br  0  0  0  0  0  0  0  0  0  0  0  0
   -3.3797   -0.0445   -2.5953 H   0  0  0  0  0  0  0  0  0  0  0  0
   -3.5361    1.7136   -2.7224 H   0  0  0  0  0  0  0  0  0  0  0  0
   -1.9493    0.9984   -2.5178 H   0  0  0  0  0  0  0  0  0  0  0  0
   -2.7237    1.9454   -0.3399 H   0  0  0  0  0  0  0  0  0  0  0  0
   -5.1367    1.9142   -1.0288 H   0  0  0  0  0  0  0  0  0  0  0  0
   -5.2087    0.1820   -0.6745 H   0  0  0  0  0  0  0  0  0  0  0  0
   -4.9050    1.3633    0.6209 H   0  0  0  0  0  0  0  0  0  0  0  0
   -2.8121    0.6090    1.9717 H   0  0  0  0  0  0  0  0  0  0  0  0
   -2.4693   -1.1287    1.8839 H   0  0  0  0  0  0  0  0  0  0  0  0
   -4.0408   -0.5619    1.4261 H   0  0  0  0  0  0  0  0  0  0  0  0
   -0.7005    0.3143   -1.0151 H   0  0  0  0  0  0  0  0  0  0  0  0
   -0.7225    0.7783    0.6594 H   0  0  0  0  0  0  0  0  0  0  0  0
   -0.4683   -1.6924    1.2822 H   0  0  0  0  0  0  0  0  0  0  0  0
   -0.6503   -2.1088   -0.4204 H   0  0  0  0  0  0  0  0  0  0  0  0
    3.3989   -2.6013    0.3593 H   0  0  0  0  0  0  0  0  0  0  0  0
    5.7847   -2.4984   -0.2992 H   0  0  0  0  0  0  0  0  0  0  0  0
    6.9472   -0.3087   -0.4166 H   0  0  0  0  0  0  0  0  0  0  0  0
    5.7328    1.7756    0.1077 H   0  0  0  0  0  0  0  0  0  0  0  0
  1  2  1  0
  2  3  1  0
  2  4  1  0
  4  5  1  0
  4  6  1  0
  6  7  1  0
  7  8  1  0
  8  9  1  0
  9 10  2  0
  9 11  1  0
 11 12  2  0
 12 13  1  0
 13 14  2  0
 14 15  1  0
 15 16  2  0
 16 17  1  0
 16 11  1  0
  1 18  1  0
  1 19  1  0
  1 20  1  0
  2 21  1  0
  3 22  1  0
  3 23  1  0
  3 24  1  0
  5 25  1  0
  5 26  1  0
  5 27  1  0
  6 28  1  0
  6 29  1  0
  7 30  1  0
  7 31  1  0
 12 32  1  0
 13 33  1  0
 14 34  1  0
 15 35  1  0
M  END
$$$$
