
     RDKit          3D

 44 47  0  0  0  0  0  0  0  0999 V2000
   -4.7420    2.0905   -0.8395 C   0  0  0  0  0  0  0  0  0  0  0  0
   -3.7996    1.6467    0.2834 C   0  0  0  0  0  0  0  0  0  0  0  0
   -2.3819    1.4791   -0.2394 C   0  0  0  0  0  0  0  0  0  0  0  0
   -1.4473    0.9751    0.8416 C   0  0  0  0  0  0  0  0  0  0  0  0
   -0.7273    1.7745    1.4487 O   0  0  0  0  0  0  0  0  0  0  0  0
   -1.3564   -0.3983    1.0534 N   0  0  0  0  0  0  0  0  0  0  0  0
   -0.3557   -0.8880    2.0180 C   0  0  0  0  0  0  0  0  0  0  0  0
    1.0631   -0.9613    1.4348 C   0  0  0  0  0  0  0  0  0  0  0  0
    1.6618   -2.0314    1.3756 O   0  0  0  0  0  0  0  0  0  0  0  0
    1.5631    0.2725    1.0627 N   0  0  0  0  0  0  0  0  0  0  0  0
    2.8025    0.5682    0.4636 C   0  0  0  0  0  0  0  0  0  0  0  0
    3.0358    1.9246    0.1415 C   0  0  0  0  0  0  0  0  0  0  0  0
    4.2261    2.3309   -0.4697 C   0  0  0  0  0  0  0  0  0  0  0  0
    5.1616    1.3586   -0.7465 C   0  0  0  0  0  0  0  0  0  0  0  0
    4.9462    0.0341   -0.4364 C   0  0  0  0  0  0  0  0  0  0  0  0
    3.7763   -0.3956    0.1615 C   0  0  0  0  0  0  0  0  0  0  0  0
    5.9987   -0.7576   -0.7864 O   0  0  0  0  0  0  0  0  0  0  0  0
    6.9055    0.2201   -1.3354 C   0  0  0  0  0  0  0  0  0  0  0  0
    6.3704    1.5642   -1.3329 O   0  0  0  0  0  0  0  0  0  0  0  0
   -2.2056   -1.3573    0.4147 C   0  0  0  0  0  0  0  0  0  0  0  0
   -1.6378   -2.5410   -0.0936 C   0  0  0  0  0  0  0  0  0  0  0  0
   -2.4207   -3.4819   -0.7678 C   0  0  0  0  0  0  0  0  0  0  0  0
   -3.7861   -3.2693   -0.9251 C   0  0  0  0  0  0  0  0  0  0  0  0
   -4.3758   -2.1247   -0.3910 C   0  0  0  0  0  0  0  0  0  0  0  0
   -3.5990   -1.1607    0.2765 C   0  0  0  0  0  0  0  0  0  0  0  0
   -4.5013    0.1589    1.0923 S   0  0  0  0  0  0  0  0  0  0  0  0
   -4.3798    3.0288   -1.2896 H   0  0  0  0  0  0  0  0  0  0  0  0
   -5.7539    2.2830   -0.4646 H   0  0  0  0  0  0  0  0  0  0  0  0
   -4.8056    1.3410   -1.6420 H   0  0  0  0  0  0  0  0  0  0  0  0
   -3.8019    2.4273    1.0584 H   0  0  0  0  0  0  0  0  0  0  0  0
   -2.3328    0.8318   -1.1255 H   0  0  0  0  0  0  0  0  0  0  0  0
   -1.9982    2.4587   -0.5694 H   0  0  0  0  0  0  0  0  0  0  0  0
   -0.3308   -0.2069    2.8824 H   0  0  0  0  0  0  0  0  0  0  0  0
   -0.6445   -1.8742    2.4046 H   0  0  0  0  0  0  0  0  0  0  0  0
    0.9590    1.0664    1.2561 H   0  0  0  0  0  0  0  0  0  0  0  0
    2.2767    2.6764    0.3519 H   0  0  0  0  0  0  0  0  0  0  0  0
    4.4021    3.3675   -0.7243 H   0  0  0  0  0  0  0  0  0  0  0  0
    3.6513   -1.4516    0.3708 H   0  0  0  0  0  0  0  0  0  0  0  0
    7.1392   -0.0594   -2.3728 H   0  0  0  0  0  0  0  0  0  0  0  0
    7.8303    0.2151   -0.7482 H   0  0  0  0  0  0  0  0  0  0  0  0
   -0.5735   -2.7429   -0.0106 H   0  0  0  0  0  0  0  0  0  0  0  0
   -1.9598   -4.3839   -1.1678 H   0  0  0  0  0  0  0  0  0  0  0  0
   -4.3983   -4.0075   -1.4401 H   0  0  0  0  0  0  0  0  0  0  0  0
   -5.4542   -2.0005   -0.4787 H   0  0  0  0  0  0  0  0  0  0  0  0
  1  2  1  0
  2  3  1  0
  3  4  1  0
  4  5  2  0
  4  6  1  0
  6  7  1  0
  7  8  1  0
  8  9  2  0
  8 10  1  0
 10 11  1  0
 11 12  2  0
 12 13  1  0
 13 14  2  0
 14 15  1  0
 15 16  2  0
 15 17  1  0
 17 18  1  0
 18 19  1  0
  6 20  1  0
 20 21  2  0
 21 22  1  0
 22 23  2  0
 23 24  1  0
 24 25  2  0
 25 26  1  0
 26  2  1  0
 16 11  1  0
 25 20  1  0
 19 14  1  0
  1 27  1  0
  1 28  1  0
  1 29  1  0
  2 30  1  0
  3 31  1  0
  3 32  1  0
  7 33  1  0
  7 34  1  0
 10 35  1  0
 12 36  1  0
 13 37  1  0
 16 38  1  0
 18 39  1  0
 18 40  1  0
 21 41  1  0
 22 42  1  0
 23 43  1  0
 24 44  1  0
M  END
$$$$
