
     RDKit          3D

 31 33  0  0  0  0  0  0  0  0999 V2000
   -1.0576   -2.8015   -4.5936 C   0  0  0  0  0  0  0  0  0  0  0  0
   -1.6183   -2.7410   -3.2643 N   0  0  0  0  0  0  0  0  0  0  0  0
   -2.6779   -3.4521   -2.7925 C   0  0  0  0  0  0  0  0  0  0  0  0
   -2.8327   -3.0566   -1.4889 C   0  0  0  0  0  0  0  0  0  0  0  0
   -4.1351   -3.6850   -0.3020 Br  0  0  0  0  0  0  0  0  0  0  0  0
   -1.8241   -2.0972   -1.2396 C   0  0  0  0  0  0  0  0  0  0  0  0
   -1.5214   -1.3408   -0.0067 C   0  0  0  0  0  0  0  0  0  0  0  0
   -2.1718   -1.4786    1.0207 O   0  0  0  0  0  0  0  0  0  0  0  0
   -0.4386   -0.5001   -0.2064 N   0  0  0  0  0  0  0  0  0  0  0  0
    0.1524    0.3675    0.6945 C   0  0  0  0  0  0  0  0  0  0  0  0
   -0.4359    0.5166    2.3042 S   0  0  0  0  0  0  0  0  0  0  0  0
    0.7287    1.6552    2.6640 C   0  0  0  0  0  0  0  0  0  0  0  0
    1.5635    1.9449    1.6223 C   0  0  0  0  0  0  0  0  0  0  0  0
    1.2422    1.2017    0.4639 C   0  0  0  0  0  0  0  0  0  0  0  0
    1.9388    1.2883   -0.7825 C   0  0  0  0  0  0  0  0  0  0  0  0
    2.4972    1.3511   -1.7980 N   0  0  0  0  0  0  0  0  0  0  0  0
    2.5739    2.9594    2.0144 C   0  0  0  0  0  0  0  0  0  0  0  0
    1.9977    3.4969    3.3630 C   0  0  0  0  0  0  0  0  0  0  0  0
    1.0231    2.4060    3.9059 C   0  0  0  0  0  0  0  0  0  0  0  0
   -1.0738   -1.9094   -2.3542 N   0  0  0  0  0  0  0  0  0  0  0  0
   -1.6194   -3.5220   -5.1930 H   0  0  0  0  0  0  0  0  0  0  0  0
   -1.1274   -1.8072   -5.0416 H   0  0  0  0  0  0  0  0  0  0  0  0
   -0.0140   -3.1155   -4.5124 H   0  0  0  0  0  0  0  0  0  0  0  0
   -3.2195   -4.1603   -3.4037 H   0  0  0  0  0  0  0  0  0  0  0  0
   -0.0568   -0.5567   -1.1503 H   0  0  0  0  0  0  0  0  0  0  0  0
    2.6764    3.7635    1.2805 H   0  0  0  0  0  0  0  0  0  0  0  0
    3.5484    2.4868    2.1762 H   0  0  0  0  0  0  0  0  0  0  0  0
    1.4294    4.4156    3.1656 H   0  0  0  0  0  0  0  0  0  0  0  0
    2.7849    3.7461    4.0813 H   0  0  0  0  0  0  0  0  0  0  0  0
    0.1376    2.8570    4.3616 H   0  0  0  0  0  0  0  0  0  0  0  0
    1.5302    1.7675    4.6365 H   0  0  0  0  0  0  0  0  0  0  0  0
  1  2  1  0
  2  3  1  0
  3  4  2  0
  4  5  1  0
  4  6  1  0
  6  7  1  0
  7  8  2  0
  7  9  1  0
  9 10  1  0
 10 11  1  0
 11 12  1  0
 12 13  2  0
 13 14  1  0
 14 15  1  0
 15 16  3  0
 13 17  1  0
 17 18  1  0
 18 19  1  0
  6 20  2  0
 20  2  1  0
 14 10  2  0
 19 12  1  0
  1 21  1  0
  1 22  1  0
  1 23  1  0
  3 24  1  0
  9 25  1  0
 17 26  1  0
 17 27  1  0
 18 28  1  0
 18 29  1  0
 19 30  1  0
 19 31  1  0
M  END
$$$$
