
     RDKit          3D

 46 49  0  0  0  0  0  0  0  0999 V2000
   -2.9067    5.4045    0.4990 N   0  0  0  0  0  0  0  0  0  0  0  0
   -3.6821    4.3050    0.5431 C   0  0  0  0  0  0  0  0  0  0  0  0
   -4.9941    4.3229    0.7757 N   0  0  0  0  0  0  0  0  0  0  0  0
   -5.4002    2.9937    0.7194 O   0  0  0  0  0  0  0  0  0  0  0  0
   -4.3256    2.1474    0.4529 N   0  0  0  0  0  0  0  0  0  0  0  0
   -3.2784    2.9678    0.3570 C   0  0  0  0  0  0  0  0  0  0  0  0
   -1.9722    2.4752    0.0974 N   0  0  0  0  0  0  0  0  0  0  0  0
   -0.9064    3.3260   -0.0092 N   0  0  0  0  0  0  0  0  0  0  0  0
    0.1870    2.6285   -0.2578 N   0  0  0  0  0  0  0  0  0  0  0  0
   -0.1516    1.3026   -0.3092 C   0  0  0  0  0  0  0  0  0  0  0  0
    0.8391    0.2592   -0.5676 C   0  0  0  0  0  0  0  0  0  0  0  0
    0.5396   -0.9276   -0.6540 O   0  0  0  0  0  0  0  0  0  0  0  0
    2.1184    0.7770   -0.7123 N   0  0  0  0  0  0  0  0  0  0  0  0
    3.1751   -0.0384   -0.9882 N   0  0  0  0  0  0  0  0  0  0  0  0
    4.3167    0.5588   -1.1211 C   0  0  0  0  0  0  0  0  0  0  0  0
    5.5540   -0.1870   -1.4242 C   0  0  0  0  0  0  0  0  0  0  0  0
    5.5322   -1.5762   -1.5805 C   0  0  0  0  0  0  0  0  0  0  0  0
    6.7141   -2.2592   -1.8700 C   0  0  0  0  0  0  0  0  0  0  0  0
    7.9129   -1.5563   -2.0018 C   0  0  0  0  0  0  0  0  0  0  0  0
    7.9336   -0.1693   -1.8441 C   0  0  0  0  0  0  0  0  0  0  0  0
    6.7540    0.5194   -1.5546 C   0  0  0  0  0  0  0  0  0  0  0  0
   -1.5149    1.1707   -0.0846 C   0  0  0  0  0  0  0  0  0  0  0  0
   -2.3562   -0.0525   -0.0214 C   0  0  0  0  0  0  0  0  0  0  0  0
   -2.5458   -0.5835    1.7141 S   0  0  0  0  0  0  0  0  0  0  0  0
   -3.5685   -2.0151    1.4383 C   0  0  0  0  0  0  0  0  0  0  0  0
   -4.9391   -1.9527    1.7046 C   0  0  0  0  0  0  0  0  0  0  0  0
   -5.7483   -3.0685    1.4796 C   0  0  0  0  0  0  0  0  0  0  0  0
   -5.1884   -4.2515    0.9971 C   0  0  0  0  0  0  0  0  0  0  0  0
   -3.8176   -4.3234    0.7474 C   0  0  0  0  0  0  0  0  0  0  0  0
   -3.0085   -3.2067    0.9653 C   0  0  0  0  0  0  0  0  0  0  0  0
   -3.2752    6.2887    0.8359 H   0  0  0  0  0  0  0  0  0  0  0  0
   -1.8898    5.3400    0.4820 H   0  0  0  0  0  0  0  0  0  0  0  0
    2.2523    1.7805   -0.6297 H   0  0  0  0  0  0  0  0  0  0  0  0
    4.4133    1.6545   -1.0143 H   0  0  0  0  0  0  0  0  0  0  0  0
    4.6008   -2.1299   -1.4820 H   0  0  0  0  0  0  0  0  0  0  0  0
    6.6985   -3.3398   -1.9920 H   0  0  0  0  0  0  0  0  0  0  0  0
    8.8324   -2.0918   -2.2262 H   0  0  0  0  0  0  0  0  0  0  0  0
    8.8706    0.3729   -1.9433 H   0  0  0  0  0  0  0  0  0  0  0  0
    6.7848    1.5986   -1.4321 H   0  0  0  0  0  0  0  0  0  0  0  0
   -1.8917   -0.8654   -0.5874 H   0  0  0  0  0  0  0  0  0  0  0  0
   -3.3339    0.1002   -0.4861 H   0  0  0  0  0  0  0  0  0  0  0  0
   -5.3856   -1.0378    2.0864 H   0  0  0  0  0  0  0  0  0  0  0  0
   -6.8150   -3.0138    1.6811 H   0  0  0  0  0  0  0  0  0  0  0  0
   -5.8180   -5.1212    0.8256 H   0  0  0  0  0  0  0  0  0  0  0  0
   -3.3770   -5.2494    0.3845 H   0  0  0  0  0  0  0  0  0  0  0  0
   -1.9388   -3.2771    0.7714 H   0  0  0  0  0  0  0  0  0  0  0  0
  1  2  1  0
  2  3  2  0
  3  4  1  0
  4  5  1  0
  5  6  2  0
  6  7  1  0
  7  8  1  0
  8  9  2  0
  9 10  1  0
 10 11  1  0
 11 12  2  0
 11 13  1  0
 13 14  1  0
 14 15  2  3
 15 16  1  0
 16 17  2  0
 17 18  1  0
 18 19  2  0
 19 20  1  0
 20 21  2  0
 10 22  2  0
 22 23  1  0
 23 24  1  0
 24 25  1  0
 25 26  2  0
 26 27  1  0
 27 28  2  0
 28 29  1  0
 29 30  2  0
  6  2  1  0
 22  7  1  0
 30 25  1  0
 21 16  1  0
  1 31  1  0
  1 32  1  0
 13 33  1  0
 15 34  1  0
 17 35  1  0
 18 36  1  0
 19 37  1  0
 20 38  1  0
 21 39  1  0
 23 40  1  0
 23 41  1  0
 26 42  1  0
 27 43  1  0
 28 44  1  0
 29 45  1  0
 30 46  1  0
M  END
$$$$
