
     RDKit          3D

 49 51  0  0  0  0  0  0  0  0999 V2000
    4.6597    1.3103    1.2194 C   0  0  0  0  0  0  0  0  0  0  0  0
    3.3441    1.8447    1.2492 O   0  0  0  0  0  0  0  0  0  0  0  0
    2.6072    1.7953    0.0919 C   0  0  0  0  0  0  0  0  0  0  0  0
    3.0864    1.3028   -1.1292 C   0  0  0  0  0  0  0  0  0  0  0  0
    2.2606    1.2787   -2.2545 C   0  0  0  0  0  0  0  0  0  0  0  0
    0.9509    1.7477   -2.1532 C   0  0  0  0  0  0  0  0  0  0  0  0
   -0.1187    1.6841   -3.5746 S   0  0  0  0  0  6  0  0  0  0  0  0
    0.7220    1.6652   -4.7531 O   0  0  0  0  0  0  0  0  0  0  0  0
   -1.1532    2.6810   -3.4032 O   0  0  0  0  0  0  0  0  0  0  0  0
   -0.8033    0.1378   -3.4633 N   0  0  0  0  0  0  0  0  0  0  0  0
   -1.4329   -0.2396   -2.2431 C   0  0  0  0  0  0  0  0  0  0  0  0
   -2.6170    0.3703   -1.8479 C   0  0  0  0  0  0  0  0  0  0  0  0
   -3.1412    0.0985   -0.5885 C   0  0  0  0  0  0  0  0  0  0  0  0
   -2.4837   -0.7914    0.2754 C   0  0  0  0  0  0  0  0  0  0  0  0
   -1.3286   -1.4803   -0.1474 C   0  0  0  0  0  0  0  0  0  0  0  0
   -0.7933   -1.1549   -1.4003 C   0  0  0  0  0  0  0  0  0  0  0  0
   -0.7002   -2.4173    0.7351 N   0  0  0  0  0  0  0  0  0  0  0  0
    0.1144   -3.4956    0.3764 C   0  0  0  0  0  0  0  0  0  0  0  0
    0.1032   -4.0052   -1.0442 C   0  0  0  0  0  0  0  0  0  0  0  0
    0.7950   -4.1046    1.2096 O   0  0  0  0  0  0  0  0  0  0  0  0
   -1.0028   -2.3428    2.1685 C   0  0  0  0  0  0  0  0  0  0  0  0
   -1.8470   -1.1570    2.6048 C   0  0  0  0  0  0  0  0  0  0  0  0
   -3.0252   -1.0033    1.6628 C   0  0  0  0  0  0  0  0  0  0  0  0
    0.4670    2.2750   -0.9513 C   0  0  0  0  0  0  0  0  0  0  0  0
    1.2863    2.2864    0.1802 C   0  0  0  0  0  0  0  0  0  0  0  0
    0.8955    2.7501    1.4121 O   0  0  0  0  0  0  0  0  0  0  0  0
   -0.4519    3.1757    1.5602 C   0  0  0  0  0  0  0  0  0  0  0  0
    4.6491    0.2458    0.9632 H   0  0  0  0  0  0  0  0  0  0  0  0
    5.0824    1.4057    2.2242 H   0  0  0  0  0  0  0  0  0  0  0  0
    5.2995    1.8767    0.5349 H   0  0  0  0  0  0  0  0  0  0  0  0
    4.1008    0.9318   -1.2355 H   0  0  0  0  0  0  0  0  0  0  0  0
    2.6465    0.8958   -3.1967 H   0  0  0  0  0  0  0  0  0  0  0  0
   -0.2355   -0.5579   -3.9444 H   0  0  0  0  0  0  0  0  0  0  0  0
   -3.1198    1.0808   -2.5003 H   0  0  0  0  0  0  0  0  0  0  0  0
   -4.0511    0.6048   -0.2725 H   0  0  0  0  0  0  0  0  0  0  0  0
    0.1677   -1.5481   -1.7084 H   0  0  0  0  0  0  0  0  0  0  0  0
   -0.8524   -3.8245   -1.5404 H   0  0  0  0  0  0  0  0  0  0  0  0
    0.2387   -5.0922   -1.0214 H   0  0  0  0  0  0  0  0  0  0  0  0
    0.9336   -3.5730   -1.6064 H   0  0  0  0  0  0  0  0  0  0  0  0
   -0.0574   -2.3322    2.7254 H   0  0  0  0  0  0  0  0  0  0  0  0
   -1.5158   -3.2763    2.4362 H   0  0  0  0  0  0  0  0  0  0  0  0
   -2.1931   -1.3011    3.6342 H   0  0  0  0  0  0  0  0  0  0  0  0
   -1.2348   -0.2453    2.5948 H   0  0  0  0  0  0  0  0  0  0  0  0
   -3.6668   -1.8919    1.6753 H   0  0  0  0  0  0  0  0  0  0  0  0
   -3.6286   -0.1452    1.9805 H   0  0  0  0  0  0  0  0  0  0  0  0
   -0.5498    2.6528   -0.9176 H   0  0  0  0  0  0  0  0  0  0  0  0
   -0.6598    4.0502    0.9353 H   0  0  0  0  0  0  0  0  0  0  0  0
   -1.1508    2.3600    1.3473 H   0  0  0  0  0  0  0  0  0  0  0  0
   -0.5960    3.4716    2.6038 H   0  0  0  0  0  0  0  0  0  0  0  0
  1  2  1  0
  2  3  1  0
  3  4  2  0
  4  5  1  0
  5  6  2  0
  6  7  1  0
  7  8  2  0
  7  9  2  0
  7 10  1  0
 10 11  1  0
 11 12  2  0
 12 13  1  0
 13 14  2  0
 14 15  1  0
 15 16  2  0
 15 17  1  0
 17 18  1  0
 18 19  1  0
 18 20  2  0
 17 21  1  0
 21 22  1  0
 22 23  1  0
  6 24  1  0
 24 25  2  0
 25 26  1  0
 26 27  1  0
 25  3  1  0
 16 11  1  0
 23 14  1  0
  1 28  1  0
  1 29  1  0
  1 30  1  0
  4 31  1  0
  5 32  1  0
 10 33  1  0
 12 34  1  0
 13 35  1  0
 16 36  1  0
 19 37  1  0
 19 38  1  0
 19 39  1  0
 21 40  1  0
 21 41  1  0
 22 42  1  0
 22 43  1  0
 23 44  1  0
 23 45  1  0
 24 46  1  0
 27 47  1  0
 27 48  1  0
 27 49  1  0
M  END
$$$$
