
     RDKit          3D

 34 35  0  0  0  0  0  0  0  0999 V2000
    2.1410    2.7868    0.7082 C   0  0  0  0  0  0  0  0  0  0  0  0
    2.5521    1.3332    0.5747 C   0  0  0  0  0  0  0  0  0  0  0  0
    1.6990    0.3601    0.4193 N   0  0  0  0  0  0  0  0  0  0  0  0
    0.3656    0.6198    0.3165 N   0  0  0  0  0  0  0  0  0  0  0  0
   -0.5299   -0.4417    0.1842 C   0  0  0  0  0  0  0  0  0  0  0  0
   -0.2131   -1.6246    0.2275 O   0  0  0  0  0  0  0  0  0  0  0  0
   -1.9522    0.0589    0.0437 C   0  0  0  0  0  0  0  0  0  0  0  0
   -2.9936   -0.9917   -0.3346 C   0  0  0  0  0  0  0  0  0  0  0  0
   -3.1106   -2.1579    0.6447 C   0  0  0  0  0  0  0  0  0  0  0  0
   -2.7435   -1.4738   -1.6648 O   0  0  0  0  0  0  0  0  0  0  0  0
   -4.0182   -1.4848   -2.3013 C   0  0  0  0  0  0  0  0  0  0  0  0
   -4.7043   -0.2961   -1.6908 C   0  0  0  0  0  0  0  0  0  0  0  0
   -4.2831   -0.3226   -0.3263 O   0  0  0  0  0  0  0  0  0  0  0  0
    3.9663    0.9640    0.5865 C   0  0  0  0  0  0  0  0  0  0  0  0
    4.4922   -0.3169    0.6468 C   0  0  0  0  0  0  0  0  0  0  0  0
    5.9162   -0.3358    0.6259 C   0  0  0  0  0  0  0  0  0  0  0  0
    6.4419    0.9321    0.5396 C   0  0  0  0  0  0  0  0  0  0  0  0
    5.2223    2.1262    0.4794 S   0  0  0  0  0  0  0  0  0  0  0  0
    1.9820    3.2061   -0.2895 H   0  0  0  0  0  0  0  0  0  0  0  0
    2.8892    3.3830    1.2343 H   0  0  0  0  0  0  0  0  0  0  0  0
    1.2170    2.8762    1.2861 H   0  0  0  0  0  0  0  0  0  0  0  0
    0.0415    1.5710    0.1969 H   0  0  0  0  0  0  0  0  0  0  0  0
   -1.9543    0.8471   -0.7216 H   0  0  0  0  0  0  0  0  0  0  0  0
   -2.2350    0.5373    0.9903 H   0  0  0  0  0  0  0  0  0  0  0  0
   -4.0112   -2.7467    0.4328 H   0  0  0  0  0  0  0  0  0  0  0  0
   -2.2682   -2.8503    0.5748 H   0  0  0  0  0  0  0  0  0  0  0  0
   -3.2039   -1.8003    1.6755 H   0  0  0  0  0  0  0  0  0  0  0  0
   -3.9107   -1.4131   -3.3863 H   0  0  0  0  0  0  0  0  0  0  0  0
   -4.5251   -2.4224   -2.0489 H   0  0  0  0  0  0  0  0  0  0  0  0
   -4.3507    0.6415   -2.1328 H   0  0  0  0  0  0  0  0  0  0  0  0
   -5.7939   -0.3394   -1.7602 H   0  0  0  0  0  0  0  0  0  0  0  0
    3.8707   -1.2051    0.7037 H   0  0  0  0  0  0  0  0  0  0  0  0
    6.5195   -1.2344    0.6679 H   0  0  0  0  0  0  0  0  0  0  0  0
    7.4851    1.2148    0.5033 H   0  0  0  0  0  0  0  0  0  0  0  0
  1  2  1  0
  2  3  2  3
  3  4  1  0
  4  5  1  0
  5  6  2  0
  5  7  1  0
  7  8  1  0
  8  9  1  0
  8 10  1  0
 10 11  1  0
 11 12  1  0
 12 13  1  0
  2 14  1  0
 14 15  2  0
 15 16  1  0
 16 17  2  0
 17 18  1  0
 13  8  1  0
 18 14  1  0
  1 19  1  0
  1 20  1  0
  1 21  1  0
  4 22  1  0
  7 23  1  0
  7 24  1  0
  9 25  1  0
  9 26  1  0
  9 27  1  0
 11 28  1  0
 11 29  1  0
 12 30  1  0
 12 31  1  0
 15 32  1  0
 16 33  1  0
 17 34  1  0
M  END
$$$$
