
     RDKit          3D

 44 46  0  0  0  0  0  0  0  0999 V2000
    7.8130    4.4475    1.9731 C   0  0  0  0  0  0  0  0  0  0  0  0
    6.6315    4.1812    2.7199 O   0  0  0  0  0  0  0  0  0  0  0  0
    5.6267    3.5214    2.0692 C   0  0  0  0  0  0  0  0  0  0  0  0
    5.6661    3.0496    0.7598 C   0  0  0  0  0  0  0  0  0  0  0  0
    4.5583    2.3851    0.2149 C   0  0  0  0  0  0  0  0  0  0  0  0
    3.3933    2.1765    0.9679 C   0  0  0  0  0  0  0  0  0  0  0  0
    2.2403    1.4791    0.4086 C   0  0  0  0  0  0  0  0  0  0  0  0
    1.0498    1.0105    0.9118 C   0  0  0  0  0  0  0  0  0  0  0  0
    0.3891    0.4184   -0.1934 C   0  0  0  0  0  0  0  0  0  0  0  0
   -0.9190   -0.2477   -0.1988 C   0  0  0  0  0  0  0  0  0  0  0  0
   -1.5777   -0.3499    0.8304 O   0  0  0  0  0  0  0  0  0  0  0  0
   -1.2739   -0.7141   -1.4519 N   0  0  0  0  0  0  0  0  0  0  0  0
   -2.4328   -1.4171   -1.8314 C   0  0  0  0  0  0  0  0  0  0  0  0
   -2.5425   -1.7717   -3.1808 C   0  0  0  0  0  0  0  0  0  0  0  0
   -3.6536   -2.4798   -3.6367 C   0  0  0  0  0  0  0  0  0  0  0  0
   -4.6543   -2.8547   -2.7417 C   0  0  0  0  0  0  0  0  0  0  0  0
   -5.7235   -3.5296   -3.2768 O   0  0  0  0  0  0  0  0  0  0  0  0
   -5.7721   -4.8766   -2.8064 C   0  0  0  0  0  0  0  0  0  0  0  0
   -4.5820   -2.4815   -1.3914 C   0  0  0  0  0  0  0  0  0  0  0  0
   -5.6403   -2.8412   -0.5984 O   0  0  0  0  0  0  0  0  0  0  0  0
   -5.6504   -2.3624    0.7399 C   0  0  0  0  0  0  0  0  0  0  0  0
   -3.4573   -1.7723   -0.9456 C   0  0  0  0  0  0  0  0  0  0  0  0
    1.1320    0.5341   -1.3093 N   0  0  0  0  0  0  0  0  0  0  0  0
    2.2841    1.1964   -0.9264 O   0  0  0  0  0  0  0  0  0  0  0  0
    3.3677    2.6528    2.2849 C   0  0  0  0  0  0  0  0  0  0  0  0
    4.4734    3.3177    2.8272 C   0  0  0  0  0  0  0  0  0  0  0  0
    7.5976    5.0845    1.1081 H   0  0  0  0  0  0  0  0  0  0  0  0
    8.5047    4.9918    2.6233 H   0  0  0  0  0  0  0  0  0  0  0  0
    8.3056    3.5182    1.6674 H   0  0  0  0  0  0  0  0  0  0  0  0
    6.5416    3.1759    0.1316 H   0  0  0  0  0  0  0  0  0  0  0  0
    4.6266    2.0243   -0.8088 H   0  0  0  0  0  0  0  0  0  0  0  0
    0.6930    1.0656    1.9300 H   0  0  0  0  0  0  0  0  0  0  0  0
   -0.5904   -0.5183   -2.1787 H   0  0  0  0  0  0  0  0  0  0  0  0
   -1.7711   -1.4986   -3.8960 H   0  0  0  0  0  0  0  0  0  0  0  0
   -3.7402   -2.7437   -4.6865 H   0  0  0  0  0  0  0  0  0  0  0  0
   -4.7803   -5.3460   -2.8046 H   0  0  0  0  0  0  0  0  0  0  0  0
   -6.2251   -4.9337   -1.8118 H   0  0  0  0  0  0  0  0  0  0  0  0
   -6.4092   -5.4433   -3.4925 H   0  0  0  0  0  0  0  0  0  0  0  0
   -6.5755   -2.7077    1.2094 H   0  0  0  0  0  0  0  0  0  0  0  0
   -5.6490   -1.2681    0.7713 H   0  0  0  0  0  0  0  0  0  0  0  0
   -4.8158   -2.7774    1.3144 H   0  0  0  0  0  0  0  0  0  0  0  0
   -3.3814   -1.4930    0.0967 H   0  0  0  0  0  0  0  0  0  0  0  0
    2.4897    2.5178    2.9120 H   0  0  0  0  0  0  0  0  0  0  0  0
    4.4333    3.6800    3.8520 H   0  0  0  0  0  0  0  0  0  0  0  0
  1  2  1  0
  2  3  1  0
  3  4  2  0
  4  5  1  0
  5  6  2  0
  6  7  1  0
  7  8  2  0
  8  9  1  0
  9 10  1  0
 10 11  2  0
 10 12  1  0
 12 13  1  0
 13 14  2  0
 14 15  1  0
 15 16  2  0
 16 17  1  0
 17 18  1  0
 16 19  1  0
 19 20  1  0
 20 21  1  0
 19 22  2  0
  9 23  2  0
 23 24  1  0
  6 25  1  0
 25 26  2  0
 26  3  1  0
 24  7  1  0
 22 13  1  0
  1 27  1  0
  1 28  1  0
  1 29  1  0
  4 30  1  0
  5 31  1  0
  8 32  1  0
 12 33  1  0
 14 34  1  0
 15 35  1  0
 18 36  1  0
 18 37  1  0
 18 38  1  0
 21 39  1  0
 21 40  1  0
 21 41  1  0
 22 42  1  0
 25 43  1  0
 26 44  1  0
M  END
$$$$
