
     RDKit          3D

 19 19  0  0  0  0  0  0  0  0999 V2000
   -2.9132   -0.7961   -0.9453 C   0  0  0  0  0  0  0  0  0  0  0  0
   -2.1520    0.3402   -0.5551 O   0  0  0  0  0  0  0  0  0  0  0  0
   -0.8432    0.1398   -0.2047 C   0  0  0  0  0  0  0  0  0  0  0  0
   -0.2068   -1.1036   -0.1856 C   0  0  0  0  0  0  0  0  0  0  0  0
    1.1397   -1.2050    0.1860 C   0  0  0  0  0  0  0  0  0  0  0  0
    1.8863   -0.0704    0.5040 C   0  0  0  0  0  0  0  0  0  0  0  0
    3.1901   -0.1973    0.9895 N   0  0  0  0  0  0  0  0  0  0  0  0
    1.2359    1.1627    0.5436 C   0  0  0  0  0  0  0  0  0  0  0  0
   -0.1138    1.2776    0.1730 C   0  0  0  0  0  0  0  0  0  0  0  0
   -0.7241    2.5764    0.2010 C   0  0  0  0  0  0  0  0  0  0  0  0
   -1.1768    3.6456    0.2340 N   0  0  0  0  0  0  0  0  0  0  0  0
   -3.9204   -0.4521   -1.1995 H   0  0  0  0  0  0  0  0  0  0  0  0
   -3.0037   -1.5113   -0.1212 H   0  0  0  0  0  0  0  0  0  0  0  0
   -2.4879   -1.2691   -1.8365 H   0  0  0  0  0  0  0  0  0  0  0  0
   -0.7290   -2.0201   -0.4405 H   0  0  0  0  0  0  0  0  0  0  0  0
    1.6015   -2.1890    0.2240 H   0  0  0  0  0  0  0  0  0  0  0  0
    3.6832   -1.0209    0.6578 H   0  0  0  0  0  0  0  0  0  0  0  0
    3.7535    0.6441    0.9108 H   0  0  0  0  0  0  0  0  0  0  0  0
    1.7808    2.0485    0.8647 H   0  0  0  0  0  0  0  0  0  0  0  0
  1  2  1  0
  2  3  1  0
  3  4  2  0
  4  5  1  0
  5  6  2  0
  6  7  1  0
  6  8  1  0
  8  9  2  0
  9 10  1  0
 10 11  3  0
  9  3  1  0
  1 12  1  0
  1 13  1  0
  1 14  1  0
  4 15  1  0
  5 16  1  0
  7 17  1  0
  7 18  1  0
  8 19  1  0
M  END
$$$$
