
     RDKit          3D

 39 39  0  0  0  0  0  0  0  0999 V2000
   -3.2054   -3.1700    1.7372 C   0  0  0  0  0  0  0  0  0  0  0  0
   -1.7723   -3.1712    1.2424 C   0  0  0  0  0  0  0  0  0  0  0  0
   -1.4968   -1.8819    0.6754 O   0  0  0  0  0  0  0  0  0  0  0  0
   -0.2105   -1.7319    0.1978 C   0  0  0  0  0  0  0  0  0  0  0  0
    0.6032   -2.6465    0.2260 O   0  0  0  0  0  0  0  0  0  0  0  0
    0.0067   -0.2972   -0.3802 C   0  0  0  0  0  0  0  0  0  0  0  0
   -1.2534    0.4565   -0.1117 N   0  0  0  0  0  0  0  0  0  0  0  0
   -1.4991    1.7329   -0.5391 C   0  0  0  0  0  0  0  0  0  0  0  0
   -0.6199    2.4443   -1.0064 O   0  0  0  0  0  0  0  0  0  0  0  0
   -2.9311    2.1763   -0.3225 C   0  0  0  0  0  0  0  0  0  0  0  0
   -3.1811    3.5857   -0.8277 C   0  0  0  0  0  0  0  0  0  0  0  0
    1.0079    0.4849    0.3923 N   0  0  0  0  0  0  0  0  0  0  0  0
    2.3917    0.4028    0.2223 C   0  0  0  0  0  0  0  0  0  0  0  0
    3.1009   -0.7566   -0.0905 C   0  0  0  0  0  0  0  0  0  0  0  0
    4.5010   -0.7602   -0.1670 C   0  0  0  0  0  0  0  0  0  0  0  0
    5.2250    0.3952    0.1026 C   0  0  0  0  0  0  0  0  0  0  0  0
    4.5479    1.5515    0.4640 C   0  0  0  0  0  0  0  0  0  0  0  0
    3.1514    1.5454    0.5367 C   0  0  0  0  0  0  0  0  0  0  0  0
    0.2537   -0.5188   -1.9051 C   0  0  0  0  0  0  0  0  0  0  0  0
   -0.8922   -0.9625   -2.4996 F   0  0  0  0  0  0  0  0  0  0  0  0
    0.6055    0.6132   -2.5579 F   0  0  0  0  0  0  0  0  0  0  0  0
    1.2015   -1.4412   -2.1853 F   0  0  0  0  0  0  0  0  0  0  0  0
   -3.8968   -2.9593    0.9146 H   0  0  0  0  0  0  0  0  0  0  0  0
   -3.3537   -2.3851    2.4863 H   0  0  0  0  0  0  0  0  0  0  0  0
   -3.4663   -4.1352    2.1800 H   0  0  0  0  0  0  0  0  0  0  0  0
   -1.6454   -3.9449    0.4772 H   0  0  0  0  0  0  0  0  0  0  0  0
   -1.0914   -3.3600    2.0797 H   0  0  0  0  0  0  0  0  0  0  0  0
   -2.0309   -0.1092    0.2116 H   0  0  0  0  0  0  0  0  0  0  0  0
   -3.5941    1.4777   -0.8450 H   0  0  0  0  0  0  0  0  0  0  0  0
   -3.1520    2.1255    0.7495 H   0  0  0  0  0  0  0  0  0  0  0  0
   -2.9716    3.6617   -1.8998 H   0  0  0  0  0  0  0  0  0  0  0  0
   -2.5421    4.3083   -0.3095 H   0  0  0  0  0  0  0  0  0  0  0  0
   -4.2244    3.8709   -0.6615 H   0  0  0  0  0  0  0  0  0  0  0  0
    0.7428    1.4680    0.2787 H   0  0  0  0  0  0  0  0  0  0  0  0
    2.6095   -1.7016   -0.2823 H   0  0  0  0  0  0  0  0  0  0  0  0
    5.0212   -1.6784   -0.4287 H   0  0  0  0  0  0  0  0  0  0  0  0
    6.3096    0.3886    0.0452 H   0  0  0  0  0  0  0  0  0  0  0  0
    5.0991    2.4584    0.6965 H   0  0  0  0  0  0  0  0  0  0  0  0
    2.6519    2.4640    0.8393 H   0  0  0  0  0  0  0  0  0  0  0  0
  1  2  1  0
  2  3  1  0
  3  4  1  0
  4  5  2  0
  4  6  1  0
  6  7  1  0
  7  8  1  0
  8  9  2  0
  8 10  1  0
 10 11  1  0
  6 12  1  0
 12 13  1  0
 13 14  2  0
 14 15  1  0
 15 16  2  0
 16 17  1  0
 17 18  2  0
  6 19  1  0
 19 20  1  0
 19 21  1  0
 19 22  1  0
 18 13  1  0
  1 23  1  0
  1 24  1  0
  1 25  1  0
  2 26  1  0
  2 27  1  0
  7 28  1  0
 10 29  1  0
 10 30  1  0
 11 31  1  0
 11 32  1  0
 11 33  1  0
 12 34  1  0
 14 35  1  0
 15 36  1  0
 16 37  1  0
 17 38  1  0
 18 39  1  0
M  END
$$$$
