
     RDKit          3D

 56 60  0  0  0  0  0  0  0  0999 V2000
   -5.7712   -2.1554   -0.9509 C   0  0  0  0  0  0  0  0  0  0  0  0
   -4.2980   -1.8581   -0.9523 C   0  0  0  0  0  0  0  0  0  0  0  0
   -3.5254   -2.3416   -2.0203 C   0  0  0  0  0  0  0  0  0  0  0  0
   -2.1462   -2.1181   -2.0748 C   0  0  0  0  0  0  0  0  0  0  0  0
   -1.4864   -1.4211   -1.0546 C   0  0  0  0  0  0  0  0  0  0  0  0
   -0.0384   -1.1803   -1.1278 C   0  0  0  0  0  0  0  0  0  0  0  0
    0.3193   -0.3538   -2.1375 N   0  0  0  0  0  0  0  0  0  0  0  0
    1.6261   -0.0098   -2.3103 N   0  0  0  0  0  0  0  0  0  0  0  0
    2.5772   -0.4750   -1.4718 C   0  0  0  0  0  0  0  0  0  0  0  0
    3.8897   -0.0121   -1.7247 N   0  0  0  0  0  0  0  0  0  0  0  0
    4.6914    0.7500   -0.8312 C   0  0  0  0  0  0  0  0  0  0  0  0
    6.0576    0.9183   -1.1563 C   0  0  0  0  0  0  0  0  0  0  0  0
    6.9074    1.6862   -0.3531 C   0  0  0  0  0  0  0  0  0  0  0  0
    6.3623    2.2866    0.7588 C   0  0  0  0  0  0  0  0  0  0  0  0
    5.0321    2.1473    1.0746 C   0  0  0  0  0  0  0  0  0  0  0  0
    4.1713    1.3963    0.2998 C   0  0  0  0  0  0  0  0  0  0  0  0
    4.6938    2.8281    2.2028 O   0  0  0  0  0  0  0  0  0  0  0  0
    5.9654    3.4062    2.5634 C   0  0  0  0  0  0  0  0  0  0  0  0
    7.0291    3.0679    1.6489 O   0  0  0  0  0  0  0  0  0  0  0  0
    2.2660   -1.3817   -0.4347 C   0  0  0  0  0  0  0  0  0  0  0  0
    3.2378   -1.9696    0.4141 C   0  0  0  0  0  0  0  0  0  0  0  0
    2.8892   -2.8609    1.4287 C   0  0  0  0  0  0  0  0  0  0  0  0
    1.5592   -3.2018    1.6154 C   0  0  0  0  0  0  0  0  0  0  0  0
    0.5828   -2.6553    0.7830 C   0  0  0  0  0  0  0  0  0  0  0  0
    0.9106   -1.7412   -0.2514 C   0  0  0  0  0  0  0  0  0  0  0  0
   -2.2519   -0.9369    0.0163 C   0  0  0  0  0  0  0  0  0  0  0  0
   -3.6417   -1.1478    0.0699 C   0  0  0  0  0  0  0  0  0  0  0  0
   -4.5115   -0.4927    1.4862 S   0  0  0  0  0  6  0  0  0  0  0  0
   -5.5591   -1.4149    1.8591 O   0  0  0  0  0  0  0  0  0  0  0  0
   -3.5340   -0.0402    2.4511 O   0  0  0  0  0  0  0  0  0  0  0  0
   -5.2665    0.8714    0.8647 N   0  0  0  0  0  0  0  0  0  0  0  0
   -4.4560    1.9158    0.2140 C   0  0  0  0  0  0  0  0  0  0  0  0
   -5.1642    3.2606    0.3875 C   0  0  0  0  0  0  0  0  0  0  0  0
   -5.3033    3.5727    1.7713 O   0  0  0  0  0  0  0  0  0  0  0  0
   -6.1024   -2.5235   -1.9285 H   0  0  0  0  0  0  0  0  0  0  0  0
   -6.0024   -2.9297   -0.2135 H   0  0  0  0  0  0  0  0  0  0  0  0
   -6.3565   -1.2549   -0.7472 H   0  0  0  0  0  0  0  0  0  0  0  0
   -3.9926   -2.9005   -2.8302 H   0  0  0  0  0  0  0  0  0  0  0  0
   -1.5814   -2.4958   -2.9268 H   0  0  0  0  0  0  0  0  0  0  0  0
    3.7941    0.5384   -2.5810 H   0  0  0  0  0  0  0  0  0  0  0  0
    6.4638    0.4319   -2.0410 H   0  0  0  0  0  0  0  0  0  0  0  0
    7.9566    1.8066   -0.5972 H   0  0  0  0  0  0  0  0  0  0  0  0
    3.1251    1.3290    0.5750 H   0  0  0  0  0  0  0  0  0  0  0  0
    5.8597    4.4969    2.5900 H   0  0  0  0  0  0  0  0  0  0  0  0
    6.2391    3.0548    3.5649 H   0  0  0  0  0  0  0  0  0  0  0  0
    4.2934   -1.7395    0.2807 H   0  0  0  0  0  0  0  0  0  0  0  0
    3.6597   -3.2890    2.0649 H   0  0  0  0  0  0  0  0  0  0  0  0
    1.2784   -3.8990    2.4010 H   0  0  0  0  0  0  0  0  0  0  0  0
   -0.4481   -2.9644    0.9469 H   0  0  0  0  0  0  0  0  0  0  0  0
   -1.7546   -0.3806    0.8116 H   0  0  0  0  0  0  0  0  0  0  0  0
   -6.2088    0.6989    0.5167 H   0  0  0  0  0  0  0  0  0  0  0  0
   -4.3452    1.6855   -0.8496 H   0  0  0  0  0  0  0  0  0  0  0  0
   -3.4675    1.9718    0.6807 H   0  0  0  0  0  0  0  0  0  0  0  0
   -4.5924    4.0620   -0.0891 H   0  0  0  0  0  0  0  0  0  0  0  0
   -6.1652    3.2365   -0.0552 H   0  0  0  0  0  0  0  0  0  0  0  0
   -5.4671    2.7255    2.2302 H   0  0  0  0  0  0  0  0  0  0  0  0
  1  2  1  0
  2  3  2  0
  3  4  1  0
  4  5  2  0
  5  6  1  0
  6  7  2  0
  7  8  1  0
  8  9  2  0
  9 10  1  0
 10 11  1  0
 11 12  2  0
 12 13  1  0
 13 14  2  0
 14 15  1  0
 15 16  2  0
 15 17  1  0
 17 18  1  0
 18 19  1  0
  9 20  1  0
 20 21  2  0
 21 22  1  0
 22 23  2  0
 23 24  1  0
 24 25  2  0
  5 26  1  0
 26 27  2  0
 27 28  1  0
 28 29  2  0
 28 30  2  0
 28 31  1  0
 31 32  1  0
 32 33  1  0
 33 34  1  0
 27  2  1  0
 25  6  1  0
 16 11  1  0
 25 20  1  0
 19 14  1  0
  1 35  1  0
  1 36  1  0
  1 37  1  0
  3 38  1  0
  4 39  1  0
 10 40  1  0
 12 41  1  0
 13 42  1  0
 16 43  1  0
 18 44  1  0
 18 45  1  0
 21 46  1  0
 22 47  1  0
 23 48  1  0
 24 49  1  0
 26 50  1  0
 31 51  1  0
 32 52  1  0
 32 53  1  0
 33 54  1  0
 33 55  1  0
 34 56  1  0
M  END
$$$$
