
     RDKit          3D

 42 44  0  0  0  0  0  0  0  0999 V2000
   -4.4913   -0.0219   -2.9340 C   0  0  0  0  0  0  0  0  0  0  0  0
   -4.0984    0.1463   -1.5785 O   0  0  0  0  0  0  0  0  0  0  0  0
   -4.9431   -0.3288   -0.6065 C   0  0  0  0  0  0  0  0  0  0  0  0
   -6.1469   -0.9956   -0.8667 C   0  0  0  0  0  0  0  0  0  0  0  0
   -6.9620   -1.4271    0.1832 C   0  0  0  0  0  0  0  0  0  0  0  0
   -6.5858   -1.1946    1.5021 C   0  0  0  0  0  0  0  0  0  0  0  0
   -5.3887   -0.5343    1.7751 C   0  0  0  0  0  0  0  0  0  0  0  0
   -4.5526   -0.1069    0.7315 C   0  0  0  0  0  0  0  0  0  0  0  0
   -3.3129    0.5929    1.1093 C   0  0  0  0  0  0  0  0  0  0  0  0
   -2.1043    0.2010    0.6796 C   0  0  0  0  0  0  0  0  0  0  0  0
   -0.8622    0.8819    1.0502 C   0  0  0  0  0  0  0  0  0  0  0  0
    0.3305    0.5585    0.6746 N   0  0  0  0  0  0  0  0  0  0  0  0
    1.1061    1.5017    1.2953 C   0  0  0  0  0  0  0  0  0  0  0  0
    2.4378    1.6296    1.2414 C   0  0  0  0  0  0  0  0  0  0  0  0
    3.3078    0.7514    0.4869 C   0  0  0  0  0  0  0  0  0  0  0  0
    4.6408    0.9045    0.4481 C   0  0  0  0  0  0  0  0  0  0  0  0
    5.5488    0.0255   -0.3037 C   0  0  0  0  0  0  0  0  0  0  0  0
    5.2139   -0.5029   -1.5576 C   0  0  0  0  0  0  0  0  0  0  0  0
    6.1178   -1.3095   -2.2543 C   0  0  0  0  0  0  0  0  0  0  0  0
    7.3695   -1.5878   -1.7096 C   0  0  0  0  0  0  0  0  0  0  0  0
    7.7206   -1.0558   -0.4709 C   0  0  0  0  0  0  0  0  0  0  0  0
    6.8170   -0.2488    0.2254 C   0  0  0  0  0  0  0  0  0  0  0  0
    0.2582    2.4295    2.0871 C   0  0  0  0  0  0  0  0  0  0  0  0
    0.5806    3.3816    2.7683 O   0  0  0  0  0  0  0  0  0  0  0  0
   -0.9963    1.9513    1.8698 O   0  0  0  0  0  0  0  0  0  0  0  0
   -4.5574   -1.0827   -3.1966 H   0  0  0  0  0  0  0  0  0  0  0  0
   -5.4322    0.4985   -3.1409 H   0  0  0  0  0  0  0  0  0  0  0  0
   -3.7178    0.4281   -3.5638 H   0  0  0  0  0  0  0  0  0  0  0  0
   -6.4845   -1.1935   -1.8786 H   0  0  0  0  0  0  0  0  0  0  0  0
   -7.8950   -1.9425   -0.0317 H   0  0  0  0  0  0  0  0  0  0  0  0
   -7.2225   -1.5269    2.3181 H   0  0  0  0  0  0  0  0  0  0  0  0
   -5.1070   -0.3621    2.8119 H   0  0  0  0  0  0  0  0  0  0  0  0
   -3.4395    1.4386    1.7799 H   0  0  0  0  0  0  0  0  0  0  0  0
   -1.9834   -0.6518    0.0194 H   0  0  0  0  0  0  0  0  0  0  0  0
    2.9098    2.4400    1.7944 H   0  0  0  0  0  0  0  0  0  0  0  0
    2.8284   -0.0652   -0.0510 H   0  0  0  0  0  0  0  0  0  0  0  0
    5.1214    1.7040    1.0074 H   0  0  0  0  0  0  0  0  0  0  0  0
    4.2504   -0.2847   -2.0117 H   0  0  0  0  0  0  0  0  0  0  0  0
    5.8444   -1.7156   -3.2246 H   0  0  0  0  0  0  0  0  0  0  0  0
    8.0721   -2.2148   -2.2520 H   0  0  0  0  0  0  0  0  0  0  0  0
    8.6980   -1.2674   -0.0454 H   0  0  0  0  0  0  0  0  0  0  0  0
    7.1102    0.1565    1.1912 H   0  0  0  0  0  0  0  0  0  0  0  0
  1  2  1  0
  2  3  1  0
  3  4  2  0
  4  5  1  0
  5  6  2  0
  6  7  1  0
  7  8  2  0
  8  9  1  0
  9 10  2  3
 10 11  1  0
 11 12  2  0
 12 13  1  0
 13 14  2  3
 14 15  1  0
 15 16  2  3
 16 17  1  0
 17 18  2  0
 18 19  1  0
 19 20  2  0
 20 21  1  0
 21 22  2  0
 13 23  1  0
 23 24  2  0
 23 25  1  0
  8  3  1  0
 25 11  1  0
 22 17  1  0
  1 26  1  0
  1 27  1  0
  1 28  1  0
  4 29  1  0
  5 30  1  0
  6 31  1  0
  7 32  1  0
  9 33  1  0
 10 34  1  0
 14 35  1  0
 15 36  1  0
 16 37  1  0
 18 38  1  0
 19 39  1  0
 20 40  1  0
 21 41  1  0
 22 42  1  0
M  END
$$$$
