
     RDKit          3D

 36 37  0  0  0  0  0  0  0  0999 V2000
    7.6948   -0.0252    0.3786 C   0  0  0  0  0  0  0  0  0  0  0  0
    6.3307   -0.1535   -0.2530 C   0  0  0  0  0  0  0  0  0  0  0  0
    6.2127   -0.4915   -1.4249 O   0  0  0  0  0  0  0  0  0  0  0  0
    5.3113    0.1177    0.6426 N   0  0  0  0  0  0  0  0  0  0  0  0
    3.9235    0.0976    0.3942 C   0  0  0  0  0  0  0  0  0  0  0  0
    3.3564   -0.1776   -0.8513 C   0  0  0  0  0  0  0  0  0  0  0  0
    1.9657   -0.1747   -1.0159 C   0  0  0  0  0  0  0  0  0  0  0  0
    1.1241    0.0925    0.0680 C   0  0  0  0  0  0  0  0  0  0  0  0
   -0.3504    0.0872   -0.1518 C   0  0  0  0  0  0  0  0  0  0  0  0
   -0.7873    0.3883   -1.2578 O   0  0  0  0  0  0  0  0  0  0  0  0
   -1.1033   -0.3069    0.9509 N   0  0  0  0  0  0  0  0  0  0  0  0
   -2.4595   -0.5157    0.9476 N   0  0  0  0  0  0  0  0  0  0  0  0
   -3.1925    0.2641    0.2168 C   0  0  0  0  0  0  0  0  0  0  0  0
   -4.6556    0.0798    0.1153 C   0  0  0  0  0  0  0  0  0  0  0  0
   -5.3027   -0.9473    0.8131 C   0  0  0  0  0  0  0  0  0  0  0  0
   -6.6860   -1.0967    0.6999 C   0  0  0  0  0  0  0  0  0  0  0  0
   -7.4067   -0.2225   -0.1074 C   0  0  0  0  0  0  0  0  0  0  0  0
   -8.7338   -0.3670   -0.2145 F   0  0  0  0  0  0  0  0  0  0  0  0
   -6.7715    0.7996   -0.8063 C   0  0  0  0  0  0  0  0  0  0  0  0
   -5.3881    0.9540   -0.6966 C   0  0  0  0  0  0  0  0  0  0  0  0
    1.6856    0.3852    1.3155 C   0  0  0  0  0  0  0  0  0  0  0  0
    3.0767    0.3841    1.4739 C   0  0  0  0  0  0  0  0  0  0  0  0
    8.4376    0.1739   -0.3993 H   0  0  0  0  0  0  0  0  0  0  0  0
    7.9456   -0.9577    0.8908 H   0  0  0  0  0  0  0  0  0  0  0  0
    7.7203    0.8046    1.0908 H   0  0  0  0  0  0  0  0  0  0  0  0
    5.5901    0.3456    1.5885 H   0  0  0  0  0  0  0  0  0  0  0  0
    3.9662   -0.3940   -1.7235 H   0  0  0  0  0  0  0  0  0  0  0  0
    1.5448   -0.3856   -1.9979 H   0  0  0  0  0  0  0  0  0  0  0  0
   -0.6278   -0.8387    1.6733 H   0  0  0  0  0  0  0  0  0  0  0  0
   -2.7794    1.1207   -0.3428 H   0  0  0  0  0  0  0  0  0  0  0  0
   -4.7363   -1.6308    1.4411 H   0  0  0  0  0  0  0  0  0  0  0  0
   -7.2036   -1.8877    1.2332 H   0  0  0  0  0  0  0  0  0  0  0  0
   -7.3568    1.4660   -1.4321 H   0  0  0  0  0  0  0  0  0  0  0  0
   -4.8928    1.7496   -1.2477 H   0  0  0  0  0  0  0  0  0  0  0  0
    1.0614    0.6437    2.1670 H   0  0  0  0  0  0  0  0  0  0  0  0
    3.4865    0.6189    2.4534 H   0  0  0  0  0  0  0  0  0  0  0  0
  1  2  1  0
  2  3  2  0
  2  4  1  0
  4  5  1  0
  5  6  2  0
  6  7  1  0
  7  8  2  0
  8  9  1  0
  9 10  2  0
  9 11  1  0
 11 12  1  0
 12 13  2  3
 13 14  1  0
 14 15  2  0
 15 16  1  0
 16 17  2  0
 17 18  1  0
 17 19  1  0
 19 20  2  0
  8 21  1  0
 21 22  2  0
 22  5  1  0
 20 14  1  0
  1 23  1  0
  1 24  1  0
  1 25  1  0
  4 26  1  0
  6 27  1  0
  7 28  1  0
 11 29  1  0
 13 30  1  0
 15 31  1  0
 16 32  1  0
 19 33  1  0
 20 34  1  0
 21 35  1  0
 22 36  1  0
M  END
$$$$
