
     RDKit          3D

 51 55  0  0  0  0  0  0  0  0999 V2000
    0.8960   -0.5603   -0.3122 O   0  0  0  0  0  0  0  0  0  0  0  0
    0.8217    0.4224    0.4171 C   0  0  0  0  0  0  0  0  0  0  0  0
   -0.4546    1.2742    0.5223 C   0  0  0  0  0  0  0  0  0  0  0  0
   -1.5839    0.7114   -0.2190 N   0  0  0  0  0  0  0  0  0  0  0  0
   -2.3086   -0.2938    0.4205 C   0  0  0  0  0  0  0  0  0  0  0  0
   -2.1564   -0.5554    1.6190 O   0  0  0  0  0  0  0  0  0  0  0  0
   -3.2403   -1.1282   -0.4295 C   0  0  0  0  0  0  0  0  0  0  0  0
   -4.6145   -0.5069   -0.6314 C   0  0  0  0  0  0  0  0  0  0  0  0
   -5.5450   -0.8289    0.4951 C   0  0  0  0  0  0  0  0  0  0  0  0
   -5.5635   -0.5398    1.8474 C   0  0  0  0  0  0  0  0  0  0  0  0
   -6.7302   -1.1452    2.3733 C   0  0  0  0  0  0  0  0  0  0  0  0
   -7.3460   -1.7712    1.3136 C   0  0  0  0  0  0  0  0  0  0  0  0
   -6.6343   -1.5879    0.1714 O   0  0  0  0  0  0  0  0  0  0  0  0
   -4.6166    1.3013   -0.9248 S   0  0  0  0  0  0  0  0  0  0  0  0
   -3.1808    1.4374   -1.9825 C   0  0  0  0  0  0  0  0  0  0  0  0
   -3.4026    1.9422   -3.2738 C   0  0  0  0  0  0  0  0  0  0  0  0
   -2.3352    2.2040   -4.1303 C   0  0  0  0  0  0  0  0  0  0  0  0
   -1.0342    1.9786   -3.6958 C   0  0  0  0  0  0  0  0  0  0  0  0
   -0.8009    1.4955   -2.4063 C   0  0  0  0  0  0  0  0  0  0  0  0
   -1.8630    1.2023   -1.5339 C   0  0  0  0  0  0  0  0  0  0  0  0
    1.8527    0.9500    1.1879 N   0  0  0  0  0  0  0  0  0  0  0  0
    3.1887    0.5022    1.2591 C   0  0  0  0  0  0  0  0  0  0  0  0
    4.0753    1.2687    2.0303 C   0  0  0  0  0  0  0  0  0  0  0  0
    5.4319    0.9345    2.1076 C   0  0  0  0  0  0  0  0  0  0  0  0
    5.9079   -0.1765    1.4198 C   0  0  0  0  0  0  0  0  0  0  0  0
    5.0205   -0.9787    0.6960 C   0  0  0  0  0  0  0  0  0  0  0  0
    3.6699   -0.6334    0.6049 C   0  0  0  0  0  0  0  0  0  0  0  0
    5.4086   -2.1149    0.0278 O   0  0  0  0  0  0  0  0  0  0  0  0
    6.7264   -2.5269    0.4133 C   0  0  0  0  0  0  0  0  0  0  0  0
    7.6670   -1.3347    0.4739 C   0  0  0  0  0  0  0  0  0  0  0  0
    7.2540   -0.4240    1.4978 O   0  0  0  0  0  0  0  0  0  0  0  0
   -0.7227    1.3593    1.5823 H   0  0  0  0  0  0  0  0  0  0  0  0
   -0.2396    2.2884    0.1624 H   0  0  0  0  0  0  0  0  0  0  0  0
   -3.3228   -2.1189    0.0331 H   0  0  0  0  0  0  0  0  0  0  0  0
   -2.7564   -1.3159   -1.3963 H   0  0  0  0  0  0  0  0  0  0  0  0
   -5.0355   -0.9549   -1.5413 H   0  0  0  0  0  0  0  0  0  0  0  0
   -4.8291    0.0384    2.3882 H   0  0  0  0  0  0  0  0  0  0  0  0
   -7.0789   -1.1298    3.3992 H   0  0  0  0  0  0  0  0  0  0  0  0
   -8.2489   -2.3575    1.2117 H   0  0  0  0  0  0  0  0  0  0  0  0
   -4.4137    2.1536   -3.6161 H   0  0  0  0  0  0  0  0  0  0  0  0
   -2.5210    2.5982   -5.1278 H   0  0  0  0  0  0  0  0  0  0  0  0
   -0.1968    2.1765   -4.3602 H   0  0  0  0  0  0  0  0  0  0  0  0
    0.2302    1.3064   -2.1206 H   0  0  0  0  0  0  0  0  0  0  0  0
    1.6363    1.7689    1.7444 H   0  0  0  0  0  0  0  0  0  0  0  0
    3.7316    2.1465    2.5715 H   0  0  0  0  0  0  0  0  0  0  0  0
    6.1165    1.5488    2.6856 H   0  0  0  0  0  0  0  0  0  0  0  0
    3.0187   -1.2808    0.0251 H   0  0  0  0  0  0  0  0  0  0  0  0
    6.6643   -3.0393    1.3825 H   0  0  0  0  0  0  0  0  0  0  0  0
    7.0769   -3.2446   -0.3346 H   0  0  0  0  0  0  0  0  0  0  0  0
    7.6965   -0.7977   -0.4828 H   0  0  0  0  0  0  0  0  0  0  0  0
    8.6843   -1.6637    0.7106 H   0  0  0  0  0  0  0  0  0  0  0  0
  1  2  2  0
  2  3  1  0
  3  4  1  0
  4  5  1  0
  5  6  2  0
  5  7  1  0
  7  8  1  0
  8  9  1  0
  9 10  2  0
 10 11  1  0
 11 12  2  0
 12 13  1  0
  8 14  1  0
 14 15  1  0
 15 16  2  0
 16 17  1  0
 17 18  2  0
 18 19  1  0
 19 20  2  0
  2 21  1  0
 21 22  1  0
 22 23  2  0
 23 24  1  0
 24 25  2  0
 25 26  1  0
 26 27  2  0
 26 28  1  0
 28 29  1  0
 29 30  1  0
 30 31  1  0
 20  4  1  0
 27 22  1  0
 13  9  1  0
 20 15  1  0
 31 25  1  0
  3 32  1  0
  3 33  1  0
  7 34  1  0
  7 35  1  0
  8 36  1  0
 10 37  1  0
 11 38  1  0
 12 39  1  0
 16 40  1  0
 17 41  1  0
 18 42  1  0
 19 43  1  0
 21 44  1  0
 23 45  1  0
 24 46  1  0
 27 47  1  0
 29 48  1  0
 29 49  1  0
 30 50  1  0
 30 51  1  0
M  END
$$$$
