
     RDKit          3D

 37 39  0  0  0  0  0  0  0  0999 V2000
    6.4321   -0.2243    0.3582 C   0  0  0  0  0  0  0  0  0  0  0  0
    5.3337    0.0720   -0.4965 O   0  0  0  0  0  0  0  0  0  0  0  0
    4.0780   -0.0540    0.0340 C   0  0  0  0  0  0  0  0  0  0  0  0
    3.7792   -0.4651    1.3399 C   0  0  0  0  0  0  0  0  0  0  0  0
    2.4518   -0.5544    1.7671 C   0  0  0  0  0  0  0  0  0  0  0  0
    1.4433   -0.2303    0.8720 C   0  0  0  0  0  0  0  0  0  0  0  0
    1.7169    0.1846   -0.4472 C   0  0  0  0  0  0  0  0  0  0  0  0
    3.0432    0.2702   -0.8568 C   0  0  0  0  0  0  0  0  0  0  0  0
    0.5620    0.4661   -1.2110 N   0  0  0  0  0  0  0  0  0  0  0  0
    0.7229    1.0889   -2.5145 C   0  0  0  0  0  0  0  0  0  0  0  0
   -0.6035    0.3302   -0.4545 C   0  0  0  0  0  0  0  0  0  0  0  0
   -1.8610    0.5741   -0.8694 C   0  0  0  0  0  0  0  0  0  0  0  0
   -3.0697    0.4217   -0.0545 C   0  0  0  0  0  0  0  0  0  0  0  0
   -3.5597    1.5216    0.6596 C   0  0  0  0  0  0  0  0  0  0  0  0
   -4.6946    1.3887    1.4482 C   0  0  0  0  0  0  0  0  0  0  0  0
   -5.3266    0.1576    1.5185 C   0  0  0  0  0  0  0  0  0  0  0  0
   -4.8159   -0.9140    0.7968 C   0  0  0  0  0  0  0  0  0  0  0  0
   -3.7152   -0.7753    0.0194 N   0  0  0  0  0  4  0  0  0  0  0  0
   -3.2185   -1.9537   -0.7204 C   0  0  0  0  0  0  0  0  0  0  0  0
   -0.3101   -0.2538    1.2131 S   0  0  0  0  0  0  0  0  0  0  0  0
    6.4119   -1.2718    0.6765 H   0  0  0  0  0  0  0  0  0  0  0  0
    7.3519   -0.0673   -0.2133 H   0  0  0  0  0  0  0  0  0  0  0  0
    6.4551    0.4514    1.2195 H   0  0  0  0  0  0  0  0  0  0  0  0
    4.5608   -0.7204    2.0491 H   0  0  0  0  0  0  0  0  0  0  0  0
    2.2229   -0.8670    2.7811 H   0  0  0  0  0  0  0  0  0  0  0  0
    3.3086    0.5843   -1.8610 H   0  0  0  0  0  0  0  0  0  0  0  0
   -0.2255    1.1635   -3.0548 H   0  0  0  0  0  0  0  0  0  0  0  0
    1.3909    0.5012   -3.1540 H   0  0  0  0  0  0  0  0  0  0  0  0
    1.1265    2.1023   -2.4120 H   0  0  0  0  0  0  0  0  0  0  0  0
   -2.0502    0.9309   -1.8764 H   0  0  0  0  0  0  0  0  0  0  0  0
   -3.0493    2.4827    0.6128 H   0  0  0  0  0  0  0  0  0  0  0  0
   -5.0765    2.2391    2.0113 H   0  0  0  0  0  0  0  0  0  0  0  0
   -6.2121    0.0308    2.1381 H   0  0  0  0  0  0  0  0  0  0  0  0
   -5.2864   -1.8927    0.8392 H   0  0  0  0  0  0  0  0  0  0  0  0
   -3.0411   -1.6685   -1.7604 H   0  0  0  0  0  0  0  0  0  0  0  0
   -2.3050   -2.3023   -0.2341 H   0  0  0  0  0  0  0  0  0  0  0  0
   -3.9708   -2.7468   -0.7001 H   0  0  0  0  0  0  0  0  0  0  0  0
  1  2  1  0
  2  3  1  0
  3  4  2  0
  4  5  1  0
  5  6  2  0
  6  7  1  0
  7  8  2  0
  7  9  1  0
  9 10  1  0
  9 11  1  0
 11 12  2  3
 12 13  1  0
 13 14  2  0
 14 15  1  0
 15 16  2  0
 16 17  1  0
 17 18  2  0
 18 19  1  0
 11 20  1  0
  8  3  1  0
 18 13  1  0
 20  6  1  0
  1 21  1  0
  1 22  1  0
  1 23  1  0
  4 24  1  0
  5 25  1  0
  8 26  1  0
 10 27  1  0
 10 28  1  0
 10 29  1  0
 12 30  1  0
 14 31  1  0
 15 32  1  0
 16 33  1  0
 17 34  1  0
 19 35  1  0
 19 36  1  0
 19 37  1  0
M  CHG  1  18   1
M  END
$$$$
