
     RDKit          3D

 64 69  0  0  0  0  0  0  0  0999 V2000
    6.0488    3.6941    1.9798 F   0  0  0  0  0  0  0  0  0  0  0  0
    5.4151    2.7995    1.1681 C   0  0  0  0  0  0  0  0  0  0  0  0
    4.4651    2.2118    1.9493 F   0  0  0  0  0  0  0  0  0  0  0  0
    4.7362    3.5493    0.2549 F   0  0  0  0  0  0  0  0  0  0  0  0
    6.3492    1.7999    0.5188 C   0  0  0  0  0  0  0  0  0  0  0  0
    7.7398    1.9957    0.6314 C   0  0  0  0  0  0  0  0  0  0  0  0
    8.6415    1.1089    0.0444 C   0  0  0  0  0  0  0  0  0  0  0  0
    8.1703    0.0118   -0.6667 C   0  0  0  0  0  0  0  0  0  0  0  0
    6.7982   -0.1983   -0.7960 C   0  0  0  0  0  0  0  0  0  0  0  0
    5.8734    0.6886   -0.2161 C   0  0  0  0  0  0  0  0  0  0  0  0
    4.3946    0.3978   -0.3895 C   0  0  0  0  0  0  0  0  0  0  0  0
    3.8877   -0.6308    0.6418 C   0  0  0  0  0  0  0  0  0  0  0  0
    2.4511   -0.9298    0.6225 N   0  0  0  0  0  0  0  0  0  0  0  0
    1.6156    0.1775    1.1207 C   0  0  0  0  0  0  0  0  0  0  0  0
    0.1057   -0.0503    0.8827 C   0  0  0  0  0  0  0  0  0  0  0  0
   -0.2216   -0.2661   -0.5486 N   0  0  0  0  0  0  0  0  0  0  0  0
   -1.4126   -0.9388   -0.8346 C   0  0  0  0  0  0  0  0  0  0  0  0
   -1.3655   -2.0406   -1.5422 N   0  0  0  0  0  0  0  0  0  0  0  0
   -2.5373   -2.7708   -1.8183 C   0  0  0  0  0  0  0  0  0  0  0  0
   -2.4259   -3.9453   -2.5658 C   0  0  0  0  0  0  0  0  0  0  0  0
   -3.5551   -4.7155   -2.8591 C   0  0  0  0  0  0  0  0  0  0  0  0
   -4.8121   -4.3143   -2.4046 C   0  0  0  0  0  0  0  0  0  0  0  0
   -4.9465   -3.1439   -1.6568 C   0  0  0  0  0  0  0  0  0  0  0  0
   -3.8076   -2.3849   -1.3702 C   0  0  0  0  0  0  0  0  0  0  0  0
   -3.8533   -1.1891   -0.6348 N   0  0  0  0  0  0  0  0  0  0  0  0
   -4.9354   -0.5441   -0.0845 C   0  0  0  0  0  0  0  0  0  0  0  0
   -4.5009    0.6388    0.4838 C   0  0  0  0  0  0  0  0  0  0  0  0
   -5.3727    1.5942    1.1522 C   0  0  0  0  0  0  0  0  0  0  0  0
   -4.9029    2.3187    2.2564 C   0  0  0  0  0  0  0  0  0  0  0  0
   -5.7273    3.2421    2.9049 C   0  0  0  0  0  0  0  0  0  0  0  0
   -7.0289    3.4530    2.4536 C   0  0  0  0  0  0  0  0  0  0  0  0
   -7.5064    2.7423    1.3545 C   0  0  0  0  0  0  0  0  0  0  0  0
   -6.6826    1.8176    0.7064 C   0  0  0  0  0  0  0  0  0  0  0  0
   -3.0955    0.6891    0.2792 C   0  0  0  0  0  0  0  0  0  0  0  0
   -2.7112   -0.4654   -0.3790 C   0  0  0  0  0  0  0  0  0  0  0  0
    0.9623   -0.5516   -1.3868 C   0  0  0  0  0  0  0  0  0  0  0  0
    1.9512   -1.4792   -0.6534 C   0  0  0  0  0  0  0  0  0  0  0  0
    8.1310    2.8500    1.1832 H   0  0  0  0  0  0  0  0  0  0  0  0
    9.7119    1.2753    0.1424 H   0  0  0  0  0  0  0  0  0  0  0  0
    8.8719   -0.6817   -1.1239 H   0  0  0  0  0  0  0  0  0  0  0  0
    6.4511   -1.0637   -1.3582 H   0  0  0  0  0  0  0  0  0  0  0  0
    4.2336    0.0270   -1.4099 H   0  0  0  0  0  0  0  0  0  0  0  0
    3.8257    1.3303   -0.3346 H   0  0  0  0  0  0  0  0  0  0  0  0
    4.1613   -0.3046    1.6537 H   0  0  0  0  0  0  0  0  0  0  0  0
    4.4301   -1.5752    0.4993 H   0  0  0  0  0  0  0  0  0  0  0  0
    1.8907    1.1263    0.6444 H   0  0  0  0  0  0  0  0  0  0  0  0
    1.7864    0.2983    2.1970 H   0  0  0  0  0  0  0  0  0  0  0  0
   -0.2190   -0.9193    1.4700 H   0  0  0  0  0  0  0  0  0  0  0  0
   -0.4325    0.8256    1.2562 H   0  0  0  0  0  0  0  0  0  0  0  0
   -1.4469   -4.2600   -2.9179 H   0  0  0  0  0  0  0  0  0  0  0  0
   -3.4515   -5.6280   -3.4408 H   0  0  0  0  0  0  0  0  0  0  0  0
   -5.6895   -4.9145   -2.6340 H   0  0  0  0  0  0  0  0  0  0  0  0
   -5.9349   -2.8526   -1.3172 H   0  0  0  0  0  0  0  0  0  0  0  0
   -5.9273   -0.9668   -0.1406 H   0  0  0  0  0  0  0  0  0  0  0  0
   -3.8941    2.1628    2.6310 H   0  0  0  0  0  0  0  0  0  0  0  0
   -5.3525    3.7943    3.7628 H   0  0  0  0  0  0  0  0  0  0  0  0
   -7.6698    4.1723    2.9569 H   0  0  0  0  0  0  0  0  0  0  0  0
   -8.5192    2.9093    0.9968 H   0  0  0  0  0  0  0  0  0  0  0  0
   -7.0711    1.2867   -0.1588 H   0  0  0  0  0  0  0  0  0  0  0  0
   -2.4372    1.4951    0.5704 H   0  0  0  0  0  0  0  0  0  0  0  0
    1.4538    0.3996   -1.6278 H   0  0  0  0  0  0  0  0  0  0  0  0
    0.6843   -0.9882   -2.3529 H   0  0  0  0  0  0  0  0  0  0  0  0
    1.4377   -2.4204   -0.4184 H   0  0  0  0  0  0  0  0  0  0  0  0
    2.7718   -1.7500   -1.3277 H   0  0  0  0  0  0  0  0  0  0  0  0
  1  2  1  0
  2  3  1  0
  2  4  1  0
  2  5  1  0
  5  6  2  0
  6  7  1  0
  7  8  2  0
  8  9  1  0
  9 10  2  0
 10 11  1  0
 11 12  1  0
 12 13  1  0
 13 14  1  0
 14 15  1  0
 15 16  1  0
 16 17  1  0
 17 18  2  0
 18 19  1  0
 19 20  2  0
 20 21  1  0
 21 22  2  0
 22 23  1  0
 23 24  2  0
 24 25  1  0
 25 26  1  0
 26 27  2  0
 27 28  1  0
 28 29  2  0
 29 30  1  0
 30 31  2  0
 31 32  1  0
 32 33  2  0
 27 34  1  0
 34 35  2  0
 16 36  1  0
 36 37  1  0
 10  5  1  0
 37 13  1  0
 35 17  1  0
 24 19  1  0
 35 25  1  0
 33 28  1  0
  6 38  1  0
  7 39  1  0
  8 40  1  0
  9 41  1  0
 11 42  1  0
 11 43  1  0
 12 44  1  0
 12 45  1  0
 14 46  1  0
 14 47  1  0
 15 48  1  0
 15 49  1  0
 20 50  1  0
 21 51  1  0
 22 52  1  0
 23 53  1  0
 26 54  1  0
 29 55  1  0
 30 56  1  0
 31 57  1  0
 32 58  1  0
 33 59  1  0
 34 60  1  0
 36 61  1  0
 36 62  1  0
 37 63  1  0
 37 64  1  0
M  END
$$$$
