
     RDKit          3D

 55 60  0  0  0  0  0  0  0  0999 V2000
    4.6546    2.4908    0.4256 O   0  0  0  0  0  0  0  0  0  0  0  0
    3.9911    1.6074    0.9659 C   0  0  0  0  0  0  0  0  0  0  0  0
    4.4647    0.9853    2.1944 C   0  0  0  0  0  0  0  0  0  0  0  0
    3.7642    0.4838    3.3318 C   0  0  0  0  0  0  0  0  0  0  0  0
    4.7166    0.0391    4.2187 C   0  0  0  0  0  0  0  0  0  0  0  0
    5.9599    0.2493    3.7203 O   0  0  0  0  0  0  0  0  0  0  0  0
    5.8026    0.8406    2.5094 C   0  0  0  0  0  0  0  0  0  0  0  0
    2.7664    1.1883    0.4317 N   0  0  0  0  0  0  0  0  0  0  0  0
    2.1548   -0.1104    0.7002 C   0  0  0  0  0  0  0  0  0  0  0  0
    1.5232   -0.7222   -0.5482 C   0  0  0  0  0  0  0  0  0  0  0  0
    0.4909    0.2063   -1.2475 C   0  0  0  0  0  0  0  0  0  0  0  0
    0.7437    1.6921   -0.8782 C   0  0  0  0  0  0  0  0  0  0  0  0
    2.2309    1.9603   -0.6862 C   0  0  0  0  0  0  0  0  0  0  0  0
    0.7880    0.1751   -2.6745 O   0  0  0  0  0  0  0  0  0  0  0  0
    0.2795   -0.8491   -3.4146 C   0  0  0  0  0  0  0  0  0  0  0  0
    0.7966   -0.9895   -4.7026 C   0  0  0  0  0  0  0  0  0  0  0  0
    0.3518   -2.0249   -5.5286 C   0  0  0  0  0  0  0  0  0  0  0  0
   -0.6136   -2.9175   -5.0635 C   0  0  0  0  0  0  0  0  0  0  0  0
   -1.1537   -4.1953   -6.0796 Cl  0  0  0  0  0  0  0  0  0  0  0  0
   -1.1439   -2.7786   -3.7840 C   0  0  0  0  0  0  0  0  0  0  0  0
   -0.6976   -1.7318   -2.9706 C   0  0  0  0  0  0  0  0  0  0  0  0
   -1.2513   -1.5462   -1.6243 C   0  0  0  0  0  0  0  0  0  0  0  0
   -1.8676   -2.4632   -1.0873 O   0  0  0  0  0  0  0  0  0  0  0  0
   -0.9862   -0.1932   -0.9706 C   0  0  0  0  0  0  0  0  0  0  0  0
   -1.3988   -0.2124    0.4951 C   0  0  0  0  0  0  0  0  0  0  0  0
   -2.7844    0.3209    0.3457 C   0  0  0  0  0  0  0  0  0  0  0  0
   -3.7839    0.2450    1.4376 C   0  0  0  0  0  0  0  0  0  0  0  0
   -3.4592   -0.2745    2.6965 C   0  0  0  0  0  0  0  0  0  0  0  0
   -4.4289   -0.3266    3.7038 C   0  0  0  0  0  0  0  0  0  0  0  0
   -5.7189    0.1401    3.4550 C   0  0  0  0  0  0  0  0  0  0  0  0
   -6.9053    0.0743    4.6982 Cl  0  0  0  0  0  0  0  0  0  0  0  0
   -6.0505    0.6600    2.2064 C   0  0  0  0  0  0  0  0  0  0  0  0
   -5.0837    0.7129    1.1985 C   0  0  0  0  0  0  0  0  0  0  0  0
   -3.0265    0.8842   -0.7950 N   0  0  0  0  0  0  0  0  0  0  0  0
   -1.8650    0.7618   -1.5875 O   0  0  0  0  0  0  0  0  0  0  0  0
    2.6972    0.4675    3.4983 H   0  0  0  0  0  0  0  0  0  0  0  0
    4.6775   -0.4119    5.2007 H   0  0  0  0  0  0  0  0  0  0  0  0
    6.7168    1.0972    1.9905 H   0  0  0  0  0  0  0  0  0  0  0  0
    1.3986    0.0391    1.4768 H   0  0  0  0  0  0  0  0  0  0  0  0
    2.9032   -0.8088    1.0866 H   0  0  0  0  0  0  0  0  0  0  0  0
    2.3329   -0.9651   -1.2504 H   0  0  0  0  0  0  0  0  0  0  0  0
    1.0709   -1.6835   -0.2788 H   0  0  0  0  0  0  0  0  0  0  0  0
    0.3684    2.3507   -1.6717 H   0  0  0  0  0  0  0  0  0  0  0  0
    0.2244    1.9746    0.0433 H   0  0  0  0  0  0  0  0  0  0  0  0
    2.8027    1.6973   -1.5843 H   0  0  0  0  0  0  0  0  0  0  0  0
    2.3943    3.0272   -0.4949 H   0  0  0  0  0  0  0  0  0  0  0  0
    1.5523   -0.2959   -5.0647 H   0  0  0  0  0  0  0  0  0  0  0  0
    0.7623   -2.1295   -6.5301 H   0  0  0  0  0  0  0  0  0  0  0  0
   -1.9040   -3.4686   -3.4247 H   0  0  0  0  0  0  0  0  0  0  0  0
   -1.3687   -1.2024    0.9554 H   0  0  0  0  0  0  0  0  0  0  0  0
   -0.8431    0.4891    1.1211 H   0  0  0  0  0  0  0  0  0  0  0  0
   -2.4639   -0.6443    2.9218 H   0  0  0  0  0  0  0  0  0  0  0  0
   -4.1729   -0.7328    4.6794 H   0  0  0  0  0  0  0  0  0  0  0  0
   -7.0552    1.0244    2.0081 H   0  0  0  0  0  0  0  0  0  0  0  0
   -5.3542    1.1197    0.2254 H   0  0  0  0  0  0  0  0  0  0  0  0
  1  2  2  0
  2  3  1  0
  3  4  1  0
  4  5  2  0
  5  6  1  0
  6  7  1  0
  2  8  1  0
  8  9  1  0
  9 10  1  0
 10 11  1  0
 11 12  1  0
 12 13  1  0
 11 14  1  0
 14 15  1  0
 15 16  2  0
 16 17  1  0
 17 18  2  0
 18 19  1  0
 18 20  1  0
 20 21  2  0
 21 22  1  0
 22 23  2  0
 22 24  1  0
 24 25  1  0
 25 26  1  0
 26 27  1  0
 27 28  2  0
 28 29  1  0
 29 30  2  0
 30 31  1  0
 30 32  1  0
 32 33  2  0
 26 34  2  0
 34 35  1  0
  7  3  2  0
 13  8  1  0
 21 15  1  0
 35 24  1  0
 24 11  1  0
 33 27  1  0
  4 36  1  0
  5 37  1  0
  7 38  1  0
  9 39  1  0
  9 40  1  0
 10 41  1  0
 10 42  1  0
 12 43  1  0
 12 44  1  0
 13 45  1  0
 13 46  1  0
 16 47  1  0
 17 48  1  0
 20 49  1  0
 25 50  1  0
 25 51  1  0
 28 52  1  0
 29 53  1  0
 32 54  1  0
 33 55  1  0
M  END
$$$$
