
     RDKit          3D

 38 40  0  0  0  0  0  0  0  0999 V2000
   -0.0745   -0.4783   -3.4134 C   0  0  0  0  0  0  0  0  0  0  0  0
   -0.5032   -0.9709   -2.0601 C   0  0  0  0  0  0  0  0  0  0  0  0
   -1.8353   -0.7905   -1.6623 C   0  0  0  0  0  0  0  0  0  0  0  0
   -2.2719   -1.2275   -0.4118 C   0  0  0  0  0  0  0  0  0  0  0  0
   -3.5852   -0.9781   -0.1226 O   0  0  0  0  0  0  0  0  0  0  0  0
   -1.4005   -1.8818    0.4650 C   0  0  0  0  0  0  0  0  0  0  0  0
   -1.8894   -2.5437    2.0497 S   0  0  0  0  0  0  0  0  0  0  0  0
   -2.3239   -1.1034    2.9221 C   0  0  0  0  0  0  0  0  0  0  0  0
   -3.3730   -0.3075    2.5371 N   0  0  0  0  0  0  0  0  0  0  0  0
   -3.3783    0.6313    3.4554 C   0  0  0  0  0  0  0  0  0  0  0  0
   -2.3802    0.3991    4.3490 N   0  0  0  0  0  0  0  0  0  0  0  0
   -1.6875   -0.7037    4.0251 N   0  0  0  0  0  0  0  0  0  0  0  0
   -0.0747   -2.0839    0.0584 C   0  0  0  0  0  0  0  0  0  0  0  0
    0.3807   -1.6162   -1.1803 C   0  0  0  0  0  0  0  0  0  0  0  0
    1.7484   -1.7883   -1.5460 N   0  0  0  0  0  0  0  0  0  0  0  0
    2.9775   -1.1295   -0.5972 S   0  0  0  0  0  6  0  0  0  0  0  0
    4.1639   -1.1267   -1.4276 O   0  0  0  0  0  0  0  0  0  0  0  0
    2.9778   -1.7606    0.7043 O   0  0  0  0  0  0  0  0  0  0  0  0
    2.4722    0.5654   -0.3859 C   0  0  0  0  0  0  0  0  0  0  0  0
    1.7776    0.9427    0.7692 C   0  0  0  0  0  0  0  0  0  0  0  0
    1.3887    2.2732    0.9341 C   0  0  0  0  0  0  0  0  0  0  0  0
    1.7094    3.2159   -0.0434 C   0  0  0  0  0  0  0  0  0  0  0  0
    1.2264    4.8542    0.1632 Cl  0  0  0  0  0  0  0  0  0  0  0  0
    2.4227    2.8432   -1.1841 C   0  0  0  0  0  0  0  0  0  0  0  0
    2.8129    1.5134   -1.3567 C   0  0  0  0  0  0  0  0  0  0  0  0
   -0.8780    0.0706   -3.9159 H   0  0  0  0  0  0  0  0  0  0  0  0
    0.2015   -1.3233   -4.0522 H   0  0  0  0  0  0  0  0  0  0  0  0
    0.7763    0.2032   -3.3231 H   0  0  0  0  0  0  0  0  0  0  0  0
   -2.5484   -0.2976   -2.3203 H   0  0  0  0  0  0  0  0  0  0  0  0
   -3.6855   -0.9591    0.8527 H   0  0  0  0  0  0  0  0  0  0  0  0
   -4.0572    1.4695    3.5260 H   0  0  0  0  0  0  0  0  0  0  0  0
   -2.1224    0.9259    5.1769 H   0  0  0  0  0  0  0  0  0  0  0  0
    0.6084   -2.6212    0.7143 H   0  0  0  0  0  0  0  0  0  0  0  0
    1.9911   -1.8067   -2.5344 H   0  0  0  0  0  0  0  0  0  0  0  0
    1.5325    0.2115    1.5374 H   0  0  0  0  0  0  0  0  0  0  0  0
    0.8409    2.5675    1.8254 H   0  0  0  0  0  0  0  0  0  0  0  0
    2.6812    3.5840   -1.9368 H   0  0  0  0  0  0  0  0  0  0  0  0
    3.3789    1.2280   -2.2407 H   0  0  0  0  0  0  0  0  0  0  0  0
  1  2  1  0
  2  3  2  0
  3  4  1  0
  4  5  1  0
  4  6  2  0
  6  7  1  0
  7  8  1  0
  8  9  1  0
  9 10  2  0
 10 11  1  0
 11 12  1  0
  6 13  1  0
 13 14  2  0
 14 15  1  0
 15 16  1  0
 16 17  2  0
 16 18  2  0
 16 19  1  0
 19 20  2  0
 20 21  1  0
 21 22  2  0
 22 23  1  0
 22 24  1  0
 24 25  2  0
 14  2  1  0
 25 19  1  0
 12  8  2  0
  1 26  1  0
  1 27  1  0
  1 28  1  0
  3 29  1  0
  5 30  1  0
 10 31  1  0
 11 32  1  0
 13 33  1  0
 15 34  1  0
 20 35  1  0
 21 36  1  0
 24 37  1  0
 25 38  1  0
M  END
$$$$
