
     RDKit          3D

 56 61  0  0  0  0  0  0  0  0999 V2000
    9.1321    1.8549   -2.5968 C   0  0  0  0  0  0  0  0  0  0  0  0
    7.7257    1.6567   -2.5239 O   0  0  0  0  0  0  0  0  0  0  0  0
    7.2369    1.0821   -1.3829 C   0  0  0  0  0  0  0  0  0  0  0  0
    7.9902    0.6634   -0.2916 C   0  0  0  0  0  0  0  0  0  0  0  0
    7.3527    0.0904    0.8097 C   0  0  0  0  0  0  0  0  0  0  0  0
    5.9583   -0.0679    0.8256 C   0  0  0  0  0  0  0  0  0  0  0  0
    5.3129   -0.6451    1.9307 C   0  0  0  0  0  0  0  0  0  0  0  0
    3.9196   -0.7714    1.8755 C   0  0  0  0  0  0  0  0  0  0  0  0
    2.8998   -1.2707    2.7203 C   0  0  0  0  0  0  0  0  0  0  0  0
    1.6973   -1.1016    2.0514 C   0  0  0  0  0  0  0  0  0  0  0  0
    0.3487   -1.4300    2.4930 C   0  0  0  0  0  0  0  0  0  0  0  0
    0.1555   -1.7933    3.6565 O   0  0  0  0  0  0  0  0  0  0  0  0
   -0.7282   -1.3404    1.6058 N   0  0  0  0  0  0  0  0  0  0  0  0
   -0.6194   -1.1536    0.1556 C   0  0  0  0  0  0  0  0  0  0  0  0
   -1.9103   -1.5333   -0.5943 C   0  0  0  0  0  0  0  0  0  0  0  0
   -3.0837   -0.7942   -0.1045 N   0  0  0  0  0  0  0  0  0  0  0  0
   -4.3190   -1.2837   -0.7284 C   0  0  0  0  0  0  0  0  0  0  0  0
   -5.5006   -0.3540   -0.5320 C   0  0  0  0  0  0  0  0  0  0  0  0
   -6.7293   -0.8576   -0.0434 C   0  0  0  0  0  0  0  0  0  0  0  0
   -7.8358   -0.0186    0.1270 C   0  0  0  0  0  0  0  0  0  0  0  0
   -7.6891    1.3110   -0.2019 C   0  0  0  0  0  0  0  0  0  0  0  0
   -6.5034    1.8108   -0.6850 C   0  0  0  0  0  0  0  0  0  0  0  0
   -5.3969    1.0084   -0.8653 C   0  0  0  0  0  0  0  0  0  0  0  0
   -6.5710    3.1431   -0.9487 O   0  0  0  0  0  0  0  0  0  0  0  0
   -7.9321    3.4259   -0.5655 C   0  0  0  0  0  0  0  0  0  0  0  0
   -8.6524    2.2655   -0.1006 O   0  0  0  0  0  0  0  0  0  0  0  0
   -3.1506   -0.7574    1.3716 C   0  0  0  0  0  0  0  0  0  0  0  0
   -2.0777   -1.5778    2.1154 C   0  0  0  0  0  0  0  0  0  0  0  0
    1.9381   -0.5031    0.8456 O   0  0  0  0  0  0  0  0  0  0  0  0
    3.2796   -0.3121    0.7328 C   0  0  0  0  0  0  0  0  0  0  0  0
    3.8483    0.2425   -0.3480 N   0  0  0  0  0  0  0  0  0  0  0  0
    5.1820    0.3552   -0.2801 C   0  0  0  0  0  0  0  0  0  0  0  0
    5.8467    0.9209   -1.3585 C   0  0  0  0  0  0  0  0  0  0  0  0
    9.4764    2.5335   -1.8093 H   0  0  0  0  0  0  0  0  0  0  0  0
    9.6676    0.9004   -2.5590 H   0  0  0  0  0  0  0  0  0  0  0  0
    9.3541    2.3233   -3.5606 H   0  0  0  0  0  0  0  0  0  0  0  0
    9.0697    0.7670   -0.2638 H   0  0  0  0  0  0  0  0  0  0  0  0
    7.9548   -0.2323    1.6566 H   0  0  0  0  0  0  0  0  0  0  0  0
    5.8650   -0.9845    2.8011 H   0  0  0  0  0  0  0  0  0  0  0  0
    3.0070   -1.7056    3.7049 H   0  0  0  0  0  0  0  0  0  0  0  0
    0.2003   -1.7722   -0.2243 H   0  0  0  0  0  0  0  0  0  0  0  0
   -0.3828   -0.0987   -0.0251 H   0  0  0  0  0  0  0  0  0  0  0  0
   -1.7657   -1.3252   -1.6610 H   0  0  0  0  0  0  0  0  0  0  0  0
   -2.0733   -2.6148   -0.4919 H   0  0  0  0  0  0  0  0  0  0  0  0
   -4.5560   -2.2899   -0.3583 H   0  0  0  0  0  0  0  0  0  0  0  0
   -4.1791   -1.3764   -1.8139 H   0  0  0  0  0  0  0  0  0  0  0  0
   -6.8253   -1.9117    0.2091 H   0  0  0  0  0  0  0  0  0  0  0  0
   -8.7780   -0.3990    0.5043 H   0  0  0  0  0  0  0  0  0  0  0  0
   -4.4692    1.4240   -1.2456 H   0  0  0  0  0  0  0  0  0  0  0  0
   -8.4598    3.8429   -1.4307 H   0  0  0  0  0  0  0  0  0  0  0  0
   -7.9228    4.1756    0.2343 H   0  0  0  0  0  0  0  0  0  0  0  0
   -4.1317   -1.0684    1.7501 H   0  0  0  0  0  0  0  0  0  0  0  0
   -3.0317    0.2943    1.6611 H   0  0  0  0  0  0  0  0  0  0  0  0
   -2.2790   -2.6501    2.0021 H   0  0  0  0  0  0  0  0  0  0  0  0
   -2.1286   -1.3486    3.1854 H   0  0  0  0  0  0  0  0  0  0  0  0
    5.2631    1.2515   -2.2156 H   0  0  0  0  0  0  0  0  0  0  0  0
  1  2  1  0
  2  3  1  0
  3  4  2  0
  4  5  1  0
  5  6  2  0
  6  7  1  0
  7  8  2  0
  8  9  1  0
  9 10  2  0
 10 11  1  0
 11 12  2  0
 11 13  1  0
 13 14  1  0
 14 15  1  0
 15 16  1  0
 16 17  1  0
 17 18  1  0
 18 19  2  0
 19 20  1  0
 20 21  2  0
 21 22  1  0
 22 23  2  0
 22 24  1  0
 24 25  1  0
 25 26  1  0
 16 27  1  0
 27 28  1  0
 10 29  1  0
 29 30  1  0
 30 31  2  0
 31 32  1  0
 32 33  2  0
 33  3  1  0
 32  6  1  0
 30  8  1  0
 28 13  1  0
 23 18  1  0
 26 21  1  0
  1 34  1  0
  1 35  1  0
  1 36  1  0
  4 37  1  0
  5 38  1  0
  7 39  1  0
  9 40  1  0
 14 41  1  0
 14 42  1  0
 15 43  1  0
 15 44  1  0
 17 45  1  0
 17 46  1  0
 19 47  1  0
 20 48  1  0
 23 49  1  0
 25 50  1  0
 25 51  1  0
 27 52  1  0
 27 53  1  0
 28 54  1  0
 28 55  1  0
 33 56  1  0
M  END
$$$$
