
     RDKit          3D

 47 48  0  0  0  0  0  0  0  0999 V2000
    4.0326    0.6505    3.8644 C   0  0  0  0  0  0  0  0  0  0  0  0
    2.6494    1.2729    3.8837 C   0  0  0  0  0  0  0  0  0  0  0  0
    2.0799    1.2515    2.5651 O   0  0  0  0  0  0  0  0  0  0  0  0
    2.3865    2.3059    1.7631 C   0  0  0  0  0  0  0  0  0  0  0  0
    3.1034    3.2409    2.0896 O   0  0  0  0  0  0  0  0  0  0  0  0
    1.7400    2.1981    0.4220 C   0  0  0  0  0  0  0  0  0  0  0  0
    1.8886    3.3399   -0.4129 C   0  0  0  0  0  0  0  0  0  0  0  0
    1.9994    4.2570   -1.1168 N   0  0  0  0  0  0  0  0  0  0  0  0
    1.0484    1.0915    0.0723 C   0  0  0  0  0  0  0  0  0  0  0  0
    0.3361    0.7469   -1.1659 C   0  0  0  0  0  0  0  0  0  0  0  0
   -0.6711   -0.1689   -1.1903 C   0  0  0  0  0  0  0  0  0  0  0  0
   -1.1835   -0.8303   -0.0574 N   0  0  0  0  0  0  0  0  0  0  0  0
   -0.5549   -2.0634    0.4664 C   0  0  0  0  0  0  0  0  0  0  0  0
   -1.6105   -2.9230    1.1779 C   0  0  0  0  0  0  0  0  0  0  0  0
   -2.2613   -2.1891    2.2291 O   0  0  0  0  0  0  0  0  0  0  0  0
   -2.9174   -1.0286    1.6897 C   0  0  0  0  0  0  0  0  0  0  0  0
   -1.9181   -0.0906    0.9952 C   0  0  0  0  0  0  0  0  0  0  0  0
   -1.4061   -0.5105   -2.5279 C   0  0  0  0  0  0  0  0  0  0  0  0
   -2.9152   -0.2443   -2.3979 C   0  0  0  0  0  0  0  0  0  0  0  0
   -1.1946   -1.9788   -2.9315 C   0  0  0  0  0  0  0  0  0  0  0  0
   -0.9936    0.3185   -3.6324 O   0  0  0  0  0  0  0  0  0  0  0  0
    0.4052    0.5515   -3.6710 C   0  0  0  0  0  0  0  0  0  0  0  0
    0.8012    1.3787   -2.4601 C   0  0  0  0  0  0  0  0  0  0  0  0
    4.4526    0.6071    4.8733 H   0  0  0  0  0  0  0  0  0  0  0  0
    4.7128    1.2241    3.2270 H   0  0  0  0  0  0  0  0  0  0  0  0
    3.9918   -0.3641    3.4546 H   0  0  0  0  0  0  0  0  0  0  0  0
    2.6709    2.2895    4.2926 H   0  0  0  0  0  0  0  0  0  0  0  0
    1.9884    0.6818    4.5260 H   0  0  0  0  0  0  0  0  0  0  0  0
    0.9764    0.3004    0.8150 H   0  0  0  0  0  0  0  0  0  0  0  0
   -0.0931   -2.6423   -0.3401 H   0  0  0  0  0  0  0  0  0  0  0  0
    0.2312   -1.7927    1.1802 H   0  0  0  0  0  0  0  0  0  0  0  0
   -2.3687   -3.2817    0.4716 H   0  0  0  0  0  0  0  0  0  0  0  0
   -1.1338   -3.7978    1.6310 H   0  0  0  0  0  0  0  0  0  0  0  0
   -3.4022   -0.5060    2.5202 H   0  0  0  0  0  0  0  0  0  0  0  0
   -3.7011   -1.3542    0.9953 H   0  0  0  0  0  0  0  0  0  0  0  0
   -1.2063    0.2906    1.7361 H   0  0  0  0  0  0  0  0  0  0  0  0
   -2.4565    0.7611    0.5649 H   0  0  0  0  0  0  0  0  0  0  0  0
   -3.1033    0.7989   -2.1168 H   0  0  0  0  0  0  0  0  0  0  0  0
   -3.4216   -0.4002   -3.3581 H   0  0  0  0  0  0  0  0  0  0  0  0
   -3.3923   -0.8932   -1.6563 H   0  0  0  0  0  0  0  0  0  0  0  0
   -1.6942   -2.6688   -2.2435 H   0  0  0  0  0  0  0  0  0  0  0  0
   -0.1312   -2.2405   -2.9550 H   0  0  0  0  0  0  0  0  0  0  0  0
   -1.5837   -2.1637   -3.9396 H   0  0  0  0  0  0  0  0  0  0  0  0
    0.6280    1.1077   -4.5874 H   0  0  0  0  0  0  0  0  0  0  0  0
    0.9580   -0.3931   -3.7232 H   0  0  0  0  0  0  0  0  0  0  0  0
    0.3427    2.3711   -2.5450 H   0  0  0  0  0  0  0  0  0  0  0  0
    1.8911    1.4896   -2.4772 H   0  0  0  0  0  0  0  0  0  0  0  0
  1  2  1  0
  2  3  1  0
  3  4  1  0
  4  5  2  0
  4  6  1  0
  6  7  1  0
  7  8  3  0
  6  9  2  3
  9 10  1  0
 10 11  2  0
 11 12  1  0
 12 13  1  0
 13 14  1  0
 14 15  1  0
 15 16  1  0
 16 17  1  0
 11 18  1  0
 18 19  1  0
 18 20  1  0
 18 21  1  0
 21 22  1  0
 22 23  1  0
 23 10  1  0
 17 12  1  0
  1 24  1  0
  1 25  1  0
  1 26  1  0
  2 27  1  0
  2 28  1  0
  9 29  1  0
 13 30  1  0
 13 31  1  0
 14 32  1  0
 14 33  1  0
 16 34  1  0
 16 35  1  0
 17 36  1  0
 17 37  1  0
 19 38  1  0
 19 39  1  0
 19 40  1  0
 20 41  1  0
 20 42  1  0
 20 43  1  0
 22 44  1  0
 22 45  1  0
 23 46  1  0
 23 47  1  0
M  END
$$$$
