
     RDKit          3D

 38 39  0  0  0  0  0  0  0  0999 V2000
   -3.9678    2.9872    2.4616 C   0  0  0  0  0  0  0  0  0  0  0  0
   -3.0443    2.4722    1.6391 C   0  0  0  0  0  0  0  0  0  0  0  0
   -3.3332    1.4635    0.5635 C   0  0  0  0  0  0  0  0  0  0  0  0
   -2.5575    0.1822    0.7591 C   0  0  0  0  0  0  0  0  0  0  0  0
   -3.0182   -0.7980    1.6440 C   0  0  0  0  0  0  0  0  0  0  0  0
   -2.2980   -1.9770    1.8240 C   0  0  0  0  0  0  0  0  0  0  0  0
   -1.1037   -2.1749    1.1269 C   0  0  0  0  0  0  0  0  0  0  0  0
   -0.4326   -3.3600    1.2910 O   0  0  0  0  0  0  0  0  0  0  0  0
   -0.5901   -1.2098    0.2438 C   0  0  0  0  0  0  0  0  0  0  0  0
    0.6966   -1.3595   -0.4820 C   0  0  0  0  0  0  0  0  0  0  0  0
    1.6529   -0.3238   -0.4084 C   0  0  0  0  0  0  0  0  0  0  0  0
    2.8643   -0.3675   -1.1225 C   0  0  0  0  0  0  0  0  0  0  0  0
    3.8471    0.7749   -1.0256 C   0  0  0  0  0  0  0  0  0  0  0  0
    3.4430    1.9475   -1.8744 C   0  0  0  0  0  0  0  0  0  0  0  0
    3.2092    3.1791   -1.4021 C   0  0  0  0  0  0  0  0  0  0  0  0
    3.1267   -1.4686   -1.9424 C   0  0  0  0  0  0  0  0  0  0  0  0
    2.2091   -2.5133   -2.0234 C   0  0  0  0  0  0  0  0  0  0  0  0
    1.0222   -2.4627   -1.2914 C   0  0  0  0  0  0  0  0  0  0  0  0
    0.2061   -3.5557   -1.4176 O   0  0  0  0  0  0  0  0  0  0  0  0
   -1.3486   -0.0325    0.0749 C   0  0  0  0  0  0  0  0  0  0  0  0
   -3.6917    3.7162    3.2176 H   0  0  0  0  0  0  0  0  0  0  0  0
   -5.0120    2.6968    2.4029 H   0  0  0  0  0  0  0  0  0  0  0  0
   -2.0110    2.7995    1.7369 H   0  0  0  0  0  0  0  0  0  0  0  0
   -3.0820    1.9038   -0.4095 H   0  0  0  0  0  0  0  0  0  0  0  0
   -4.4044    1.2290    0.5154 H   0  0  0  0  0  0  0  0  0  0  0  0
   -3.9456   -0.6469    2.1924 H   0  0  0  0  0  0  0  0  0  0  0  0
   -2.6868   -2.7326    2.5000 H   0  0  0  0  0  0  0  0  0  0  0  0
   -0.7529   -3.7836    2.1064 H   0  0  0  0  0  0  0  0  0  0  0  0
    1.4513    0.5444    0.2186 H   0  0  0  0  0  0  0  0  0  0  0  0
    3.9539    1.0636    0.0279 H   0  0  0  0  0  0  0  0  0  0  0  0
    4.8413    0.4374   -1.3442 H   0  0  0  0  0  0  0  0  0  0  0  0
    3.3427    1.7646   -2.9426 H   0  0  0  0  0  0  0  0  0  0  0  0
    3.2971    3.4126   -0.3457 H   0  0  0  0  0  0  0  0  0  0  0  0
    2.9207    3.9835   -2.0719 H   0  0  0  0  0  0  0  0  0  0  0  0
    4.0471   -1.5245   -2.5184 H   0  0  0  0  0  0  0  0  0  0  0  0
    2.4181   -3.3755   -2.6505 H   0  0  0  0  0  0  0  0  0  0  0  0
   -0.2773   -3.6253   -0.5715 H   0  0  0  0  0  0  0  0  0  0  0  0
   -0.9921    0.7335   -0.6138 H   0  0  0  0  0  0  0  0  0  0  0  0
  1  2  2  0
  2  3  1  0
  3  4  1  0
  4  5  2  0
  5  6  1  0
  6  7  2  0
  7  8  1  0
  7  9  1  0
  9 10  1  0
 10 11  2  0
 11 12  1  0
 12 13  1  0
 13 14  1  0
 14 15  2  0
 12 16  2  0
 16 17  1  0
 17 18  2  0
 18 19  1  0
  9 20  2  0
 20  4  1  0
 18 10  1  0
  1 21  1  0
  1 22  1  0
  2 23  1  0
  3 24  1  0
  3 25  1  0
  5 26  1  0
  6 27  1  0
  8 28  1  0
 11 29  1  0
 13 30  1  0
 13 31  1  0
 14 32  1  0
 15 33  1  0
 15 34  1  0
 16 35  1  0
 17 36  1  0
 19 37  1  0
 20 38  1  0
M  END
$$$$
