
     RDKit          3D

 58 60  0  0  0  0  0  0  0  0999 V2000
    4.8989    0.5904   -4.2758 C   0  0  0  0  0  0  0  0  0  0  0  0
    4.9918    0.0485   -2.8792 C   0  0  0  0  0  0  0  0  0  0  0  0
    4.1857    0.5686   -1.8612 C   0  0  0  0  0  0  0  0  0  0  0  0
    4.2538    0.0460   -0.5685 C   0  0  0  0  0  0  0  0  0  0  0  0
    5.1261   -1.0115   -0.2716 C   0  0  0  0  0  0  0  0  0  0  0  0
    5.1854   -1.5861    1.1259 C   0  0  0  0  0  0  0  0  0  0  0  0
    4.4813   -2.9421    1.2426 C   0  0  0  0  0  0  0  0  0  0  0  0
    3.0681   -2.8816    0.9144 N   0  0  0  0  0  0  0  0  0  0  0  0
    2.1462   -2.3586    1.7951 C   0  0  0  0  0  0  0  0  0  0  0  0
    2.4304   -1.9856    2.9290 O   0  0  0  0  0  0  0  0  0  0  0  0
    0.7546   -2.2615    1.2103 C   0  0  0  0  0  0  0  0  0  0  0  0
   -0.2796   -1.8278    2.2450 C   0  0  0  0  0  0  0  0  0  0  0  0
   -0.0580   -0.4200    2.6225 N   0  0  0  0  0  0  0  0  0  0  0  0
   -1.2951    0.3737    3.4419 S   0  0  0  0  0  6  0  0  0  0  0  0
   -0.6935    1.5103    4.0991 O   0  0  0  0  0  0  0  0  0  0  0  0
   -2.0775   -0.6046    4.1607 O   0  0  0  0  0  0  0  0  0  0  0  0
   -2.2665    1.0033    2.0941 C   0  0  0  0  0  0  0  0  0  0  0  0
   -1.8172    2.1187    1.3856 C   0  0  0  0  0  0  0  0  0  0  0  0
   -2.5940    2.6359    0.3419 C   0  0  0  0  0  0  0  0  0  0  0  0
   -3.8279    2.0534   -0.0002 C   0  0  0  0  0  0  0  0  0  0  0  0
   -4.2600    0.9440    0.7286 C   0  0  0  0  0  0  0  0  0  0  0  0
   -3.4898    0.4133    1.7767 C   0  0  0  0  0  0  0  0  0  0  0  0
   -5.5489    0.3190    0.3873 C   0  0  0  0  0  0  0  0  0  0  0  0
   -5.8741   -0.7277    0.9458 O   0  0  0  0  0  0  0  0  0  0  0  0
   -6.3176    0.9571   -0.5726 N   0  0  0  0  0  0  0  0  0  0  0  0
   -7.6155    0.3843   -0.8871 C   0  0  0  0  0  0  0  0  0  0  0  0
   -5.8756    2.0031   -1.3726 C   0  0  0  0  0  0  0  0  0  0  0  0
   -6.5510    2.4179   -2.3177 O   0  0  0  0  0  0  0  0  0  0  0  0
   -4.6321    2.5501   -1.0613 N   0  0  0  0  0  0  0  0  0  0  0  0
   -4.1550    3.6673   -1.8667 C   0  0  0  0  0  0  0  0  0  0  0  0
    5.9241   -1.5396   -1.2927 C   0  0  0  0  0  0  0  0  0  0  0  0
    5.8513   -1.0179   -2.5872 C   0  0  0  0  0  0  0  0  0  0  0  0
    4.6807    1.6643   -4.2639 H   0  0  0  0  0  0  0  0  0  0  0  0
    5.8445    0.4577   -4.8102 H   0  0  0  0  0  0  0  0  0  0  0  0
    4.1065    0.0714   -4.8258 H   0  0  0  0  0  0  0  0  0  0  0  0
    3.5020    1.3901   -2.0680 H   0  0  0  0  0  0  0  0  0  0  0  0
    3.6229    0.4717    0.2088 H   0  0  0  0  0  0  0  0  0  0  0  0
    6.2380   -1.6969    1.4149 H   0  0  0  0  0  0  0  0  0  0  0  0
    4.7495   -0.8734    1.8368 H   0  0  0  0  0  0  0  0  0  0  0  0
    4.5810   -3.3186    2.2658 H   0  0  0  0  0  0  0  0  0  0  0  0
    4.9338   -3.6759    0.5675 H   0  0  0  0  0  0  0  0  0  0  0  0
    2.8254   -2.9211   -0.0690 H   0  0  0  0  0  0  0  0  0  0  0  0
    0.4809   -3.2494    0.8238 H   0  0  0  0  0  0  0  0  0  0  0  0
    0.7834   -1.5562    0.3724 H   0  0  0  0  0  0  0  0  0  0  0  0
   -0.2168   -2.4582    3.1394 H   0  0  0  0  0  0  0  0  0  0  0  0
   -1.2752   -1.9386    1.8057 H   0  0  0  0  0  0  0  0  0  0  0  0
    0.8512   -0.2325    3.0635 H   0  0  0  0  0  0  0  0  0  0  0  0
   -0.8693    2.5906    1.6438 H   0  0  0  0  0  0  0  0  0  0  0  0
   -2.2091    3.5053   -0.1849 H   0  0  0  0  0  0  0  0  0  0  0  0
   -3.8516   -0.4483    2.3399 H   0  0  0  0  0  0  0  0  0  0  0  0
   -8.3284    1.1749   -1.1391 H   0  0  0  0  0  0  0  0  0  0  0  0
   -7.5032   -0.2776   -1.7520 H   0  0  0  0  0  0  0  0  0  0  0  0
   -8.0161   -0.1908   -0.0447 H   0  0  0  0  0  0  0  0  0  0  0  0
   -3.2015    3.3998   -2.3348 H   0  0  0  0  0  0  0  0  0  0  0  0
   -4.8531    3.9284   -2.6673 H   0  0  0  0  0  0  0  0  0  0  0  0
   -4.0354    4.5483   -1.2274 H   0  0  0  0  0  0  0  0  0  0  0  0
    6.6139   -2.3591   -1.0886 H   0  0  0  0  0  0  0  0  0  0  0  0
    6.4771   -1.4462   -3.3665 H   0  0  0  0  0  0  0  0  0  0  0  0
  1  2  1  0
  2  3  2  0
  3  4  1  0
  4  5  2  0
  5  6  1  0
  6  7  1  0
  7  8  1  0
  8  9  1  0
  9 10  2  0
  9 11  1  0
 11 12  1  0
 12 13  1  0
 13 14  1  0
 14 15  2  0
 14 16  2  0
 14 17  1  0
 17 18  2  0
 18 19  1  0
 19 20  2  0
 20 21  1  0
 21 22  2  0
 21 23  1  0
 23 24  2  0
 23 25  1  0
 25 26  1  0
 25 27  1  0
 27 28  2  0
 27 29  1  0
 29 30  1  0
  5 31  1  0
 31 32  2  0
 32  2  1  0
 22 17  1  0
 29 20  1  0
  1 33  1  0
  1 34  1  0
  1 35  1  0
  3 36  1  0
  4 37  1  0
  6 38  1  0
  6 39  1  0
  7 40  1  0
  7 41  1  0
  8 42  1  0
 11 43  1  0
 11 44  1  0
 12 45  1  0
 12 46  1  0
 13 47  1  0
 18 48  1  0
 19 49  1  0
 22 50  1  0
 26 51  1  0
 26 52  1  0
 26 53  1  0
 30 54  1  0
 30 55  1  0
 30 56  1  0
 31 57  1  0
 32 58  1  0
M  END
$$$$
