
     RDKit          3D

 59 62  0  0  0  0  0  0  0  0999 V2000
   -8.4850    2.5401   -1.1872 C   0  0  0  0  0  0  0  0  0  0  0  0
   -7.3583    1.5969   -0.8836 C   0  0  0  0  0  0  0  0  0  0  0  0
   -7.0613    1.2535    0.4421 C   0  0  0  0  0  0  0  0  0  0  0  0
   -6.0384    0.3469    0.7242 C   0  0  0  0  0  0  0  0  0  0  0  0
   -5.3044   -0.2156   -0.3241 C   0  0  0  0  0  0  0  0  0  0  0  0
   -4.2272   -1.1887   -0.0487 C   0  0  0  0  0  0  0  0  0  0  0  0
   -4.3461   -2.3159   -0.5185 O   0  0  0  0  0  0  0  0  0  0  0  0
   -3.1392   -0.7895    0.7329 N   0  0  0  0  0  0  0  0  0  0  0  0
   -2.0446   -1.7619    0.8682 C   0  0  0  0  0  0  0  0  0  0  0  0
   -1.1478   -1.4904    2.0910 C   0  0  0  0  0  0  0  0  0  0  0  0
   -0.6785   -0.0835    2.1090 N   0  0  0  0  0  0  0  0  0  0  0  0
    0.5270    0.1920    1.4628 C   0  0  0  0  0  0  0  0  0  0  0  0
    0.6887    1.2276    0.5352 C   0  0  0  0  0  0  0  0  0  0  0  0
    1.9206    1.4882   -0.0860 C   0  0  0  0  0  0  0  0  0  0  0  0
    3.0431    0.7283    0.2202 C   0  0  0  0  0  0  0  0  0  0  0  0
    4.3168    0.9341   -0.3447 N   0  0  0  0  0  0  0  0  0  0  0  0
    4.6620    1.8267   -1.3473 C   0  0  0  0  0  0  0  0  0  0  0  0
    3.8990    2.5913   -1.9312 O   0  0  0  0  0  0  0  0  0  0  0  0
    6.1448    1.7978   -1.6898 C   0  0  0  0  0  0  0  0  0  0  0  0
    6.5070    0.4833   -2.9017 S   0  0  0  0  0  0  0  0  0  0  0  0
    6.5517   -0.9345   -1.8268 C   0  0  0  0  0  0  0  0  0  0  0  0
    7.5785   -1.0884   -0.8877 C   0  0  0  0  0  0  0  0  0  0  0  0
    7.5855   -2.1903   -0.0271 C   0  0  0  0  0  0  0  0  0  0  0  0
    6.5692   -3.1432   -0.1097 C   0  0  0  0  0  0  0  0  0  0  0  0
    6.5720   -4.4905    0.9608 Cl  0  0  0  0  0  0  0  0  0  0  0  0
    5.5521   -3.0073   -1.0528 C   0  0  0  0  0  0  0  0  0  0  0  0
    5.5461   -1.9052   -1.9143 C   0  0  0  0  0  0  0  0  0  0  0  0
    2.9139   -0.2950    1.1593 C   0  0  0  0  0  0  0  0  0  0  0  0
    1.6769   -0.5529    1.7671 C   0  0  0  0  0  0  0  0  0  0  0  0
   -1.8007    0.8753    2.0520 C   0  0  0  0  0  0  0  0  0  0  0  0
   -2.7219    0.6193    0.8424 C   0  0  0  0  0  0  0  0  0  0  0  0
   -5.6175    0.0880   -1.6492 C   0  0  0  0  0  0  0  0  0  0  0  0
   -6.6404    0.9956   -1.9266 C   0  0  0  0  0  0  0  0  0  0  0  0
   -8.3096    3.0679   -2.1301 H   0  0  0  0  0  0  0  0  0  0  0  0
   -9.4270    1.9873   -1.2618 H   0  0  0  0  0  0  0  0  0  0  0  0
   -8.5810    3.2994   -0.4042 H   0  0  0  0  0  0  0  0  0  0  0  0
   -7.6319    1.6840    1.2620 H   0  0  0  0  0  0  0  0  0  0  0  0
   -5.8234    0.0737    1.7536 H   0  0  0  0  0  0  0  0  0  0  0  0
   -2.4564   -2.7748    0.9443 H   0  0  0  0  0  0  0  0  0  0  0  0
   -1.4545   -1.7129   -0.0562 H   0  0  0  0  0  0  0  0  0  0  0  0
   -0.3291   -2.2188    2.1082 H   0  0  0  0  0  0  0  0  0  0  0  0
   -1.7312   -1.6616    3.0058 H   0  0  0  0  0  0  0  0  0  0  0  0
   -0.1408    1.8654    0.2505 H   0  0  0  0  0  0  0  0  0  0  0  0
    1.9587    2.3034   -0.8000 H   0  0  0  0  0  0  0  0  0  0  0  0
    5.0495    0.3212   -0.0061 H   0  0  0  0  0  0  0  0  0  0  0  0
    6.7469    1.6914   -0.7830 H   0  0  0  0  0  0  0  0  0  0  0  0
    6.4086    2.7613   -2.1362 H   0  0  0  0  0  0  0  0  0  0  0  0
    8.3856   -0.3603   -0.8210 H   0  0  0  0  0  0  0  0  0  0  0  0
    8.3872   -2.3032    0.6995 H   0  0  0  0  0  0  0  0  0  0  0  0
    4.7625   -3.7535   -1.1270 H   0  0  0  0  0  0  0  0  0  0  0  0
    4.7446   -1.8093   -2.6465 H   0  0  0  0  0  0  0  0  0  0  0  0
    3.7658   -0.9068    1.4443 H   0  0  0  0  0  0  0  0  0  0  0  0
    1.6350   -1.3320    2.5244 H   0  0  0  0  0  0  0  0  0  0  0  0
   -2.3916    0.7436    2.9683 H   0  0  0  0  0  0  0  0  0  0  0  0
   -1.4553    1.9153    2.0710 H   0  0  0  0  0  0  0  0  0  0  0  0
   -3.5879    1.2816    0.9167 H   0  0  0  0  0  0  0  0  0  0  0  0
   -2.2137    0.8667   -0.0973 H   0  0  0  0  0  0  0  0  0  0  0  0
   -5.0738   -0.3854   -2.4625 H   0  0  0  0  0  0  0  0  0  0  0  0
   -6.8807    1.2245   -2.9622 H   0  0  0  0  0  0  0  0  0  0  0  0
  1  2  1  0
  2  3  2  0
  3  4  1  0
  4  5  2  0
  5  6  1  0
  6  7  2  0
  6  8  1  0
  8  9  1  0
  9 10  1  0
 10 11  1  0
 11 12  1  0
 12 13  2  0
 13 14  1  0
 14 15  2  0
 15 16  1  0
 16 17  1  0
 17 18  2  0
 17 19  1  0
 19 20  1  0
 20 21  1  0
 21 22  2  0
 22 23  1  0
 23 24  2  0
 24 25  1  0
 24 26  1  0
 26 27  2  0
 15 28  1  0
 28 29  2  0
 11 30  1  0
 30 31  1  0
  5 32  1  0
 32 33  2  0
 33  2  1  0
 31  8  1  0
 29 12  1  0
 27 21  1  0
  1 34  1  0
  1 35  1  0
  1 36  1  0
  3 37  1  0
  4 38  1  0
  9 39  1  0
  9 40  1  0
 10 41  1  0
 10 42  1  0
 13 43  1  0
 14 44  1  0
 16 45  1  0
 19 46  1  0
 19 47  1  0
 22 48  1  0
 23 49  1  0
 26 50  1  0
 27 51  1  0
 28 52  1  0
 29 53  1  0
 30 54  1  0
 30 55  1  0
 31 56  1  0
 31 57  1  0
 32 58  1  0
 33 59  1  0
M  END
$$$$
