
     RDKit          3D

 46 49  0  0  0  0  0  0  0  0999 V2000
   -5.2655   -0.8715   -2.1816 C   0  0  0  0  0  0  0  0  0  0  0  0
   -4.8969   -1.9141   -1.2873 O   0  0  0  0  0  0  0  0  0  0  0  0
   -3.8505   -1.6674   -0.4418 C   0  0  0  0  0  0  0  0  0  0  0  0
   -3.5737   -2.7002    0.4565 C   0  0  0  0  0  0  0  0  0  0  0  0
   -2.5296   -2.5849    1.3729 C   0  0  0  0  0  0  0  0  0  0  0  0
   -1.7589   -1.4241    1.4042 C   0  0  0  0  0  0  0  0  0  0  0  0
   -2.0308   -0.3712    0.5206 C   0  0  0  0  0  0  0  0  0  0  0  0
   -1.2222    0.8446    0.5522 C   0  0  0  0  0  0  0  0  0  0  0  0
    0.1313    1.0072    0.2644 C   0  0  0  0  0  0  0  0  0  0  0  0
    1.1501    0.0026   -0.0372 C   0  0  0  0  0  0  0  0  0  0  0  0
    0.9401   -1.2049    0.0127 O   0  0  0  0  0  0  0  0  0  0  0  0
    2.3687    0.5818   -0.3701 N   0  0  0  0  0  0  0  0  0  0  0  0
    3.4585   -0.1971   -0.6201 N   0  0  0  0  0  0  0  0  0  0  0  0
    4.5870    0.3530   -0.9717 C   0  0  0  0  0  0  0  0  0  0  0  0
    4.7587    1.8465   -1.1713 C   0  0  0  0  0  0  0  0  0  0  0  0
    5.7217   -0.5516   -1.1431 C   0  0  0  0  0  0  0  0  0  0  0  0
    5.6855   -1.9392   -1.1841 C   0  0  0  0  0  0  0  0  0  0  0  0
    6.9760   -2.5249   -1.3467 C   0  0  0  0  0  0  0  0  0  0  0  0
    7.9441   -1.5596   -1.4114 C   0  0  0  0  0  0  0  0  0  0  0  0
    9.6319   -1.8105   -1.6001 Cl  0  0  0  0  0  0  0  0  0  0  0  0
    7.3382    0.0118   -1.2797 S   0  0  0  0  0  0  0  0  0  0  0  0
    0.4358    2.3402    0.2414 N   0  0  0  0  0  0  0  0  0  0  0  0
   -0.6664    3.0194    0.4828 N   0  0  0  0  0  0  0  0  0  0  0  0
   -1.6883    2.1521    0.7639 N   0  0  0  0  0  0  0  0  0  0  0  0
   -2.9563    2.6466    1.1867 C   0  0  0  0  0  0  0  0  0  0  0  0
   -3.1940    3.9502    0.9904 N   0  0  0  0  0  0  0  0  0  0  0  0
   -4.4914    4.1482    1.4335 O   0  0  0  0  0  0  0  0  0  0  0  0
   -5.0296    2.9744    1.9307 N   0  0  0  0  0  0  0  0  0  0  0  0
   -4.0726    2.0536    1.8107 C   0  0  0  0  0  0  0  0  0  0  0  0
   -4.2345    0.8072    2.2872 N   0  0  0  0  0  0  0  0  0  0  0  0
   -3.0702   -0.5088   -0.4156 C   0  0  0  0  0  0  0  0  0  0  0  0
   -6.1322   -1.2137   -2.7552 H   0  0  0  0  0  0  0  0  0  0  0  0
   -5.5618    0.0309   -1.6366 H   0  0  0  0  0  0  0  0  0  0  0  0
   -4.4592   -0.6589   -2.8912 H   0  0  0  0  0  0  0  0  0  0  0  0
   -4.1706   -3.6091    0.4312 H   0  0  0  0  0  0  0  0  0  0  0  0
   -2.3078   -3.4062    2.0496 H   0  0  0  0  0  0  0  0  0  0  0  0
   -0.9323   -1.3616    2.1094 H   0  0  0  0  0  0  0  0  0  0  0  0
    2.4393    1.5945   -0.3435 H   0  0  0  0  0  0  0  0  0  0  0  0
    3.8821    2.2699   -1.6698 H   0  0  0  0  0  0  0  0  0  0  0  0
    5.6166    2.0889   -1.8011 H   0  0  0  0  0  0  0  0  0  0  0  0
    4.8823    2.3250   -0.1954 H   0  0  0  0  0  0  0  0  0  0  0  0
    4.7641   -2.5068   -1.1001 H   0  0  0  0  0  0  0  0  0  0  0  0
    7.1703   -3.5883   -1.4066 H   0  0  0  0  0  0  0  0  0  0  0  0
   -3.4617    0.2064    2.5470 H   0  0  0  0  0  0  0  0  0  0  0  0
   -5.0697    0.6230    2.8366 H   0  0  0  0  0  0  0  0  0  0  0  0
   -3.2557    0.2969   -1.1187 H   0  0  0  0  0  0  0  0  0  0  0  0
  1  2  1  0
  2  3  1  0
  3  4  2  0
  4  5  1  0
  5  6  2  0
  6  7  1  0
  7  8  1  0
  8  9  2  0
  9 10  1  0
 10 11  2  0
 10 12  1  0
 12 13  1  0
 13 14  2  3
 14 15  1  0
 14 16  1  0
 16 17  2  0
 17 18  1  0
 18 19  2  0
 19 20  1  0
 19 21  1  0
  9 22  1  0
 22 23  2  0
 23 24  1  0
 24 25  1  0
 25 26  2  0
 26 27  1  0
 27 28  1  0
 28 29  2  0
 29 30  1  0
  7 31  2  0
 31  3  1  0
 24  8  1  0
 29 25  1  0
 21 16  1  0
  1 32  1  0
  1 33  1  0
  1 34  1  0
  4 35  1  0
  5 36  1  0
  6 37  1  0
 12 38  1  0
 15 39  1  0
 15 40  1  0
 15 41  1  0
 17 42  1  0
 18 43  1  0
 30 44  1  0
 30 45  1  0
 31 46  1  0
M  END
$$$$
