
     RDKit          3D

 43 46  0  0  0  0  0  0  0  0999 V2000
   -1.4472    2.0102    1.5564 O   0  0  0  0  0  0  0  0  0  0  0  0
   -1.8194    1.1775    0.7388 C   0  0  0  0  0  0  0  0  0  0  0  0
   -1.0201    0.3467   -0.0255 N   0  0  0  0  0  0  0  0  0  0  0  0
    0.3830    0.2213    0.0319 C   0  0  0  0  0  0  0  0  0  0  0  0
    1.1882    0.8743    0.9621 C   0  0  0  0  0  0  0  0  0  0  0  0
    2.5771    0.6881    0.9541 C   0  0  0  0  0  0  0  0  0  0  0  0
    3.1861   -0.1574    0.0202 C   0  0  0  0  0  0  0  0  0  0  0  0
    4.5899   -0.2798    0.0844 N   0  0  0  0  0  0  0  0  0  0  0  0
    5.4123   -1.0983   -0.6794 C   0  0  0  0  0  0  0  0  0  0  0  0
    4.9974   -1.8979   -1.5138 O   0  0  0  0  0  0  0  0  0  0  0  0
    6.8386   -0.9368   -0.3847 C   0  0  0  0  0  0  0  0  0  0  0  0
    7.5202    0.1078    0.2199 C   0  0  0  0  0  0  0  0  0  0  0  0
    8.9228   -0.1348    0.3219 C   0  0  0  0  0  0  0  0  0  0  0  0
    9.2750   -1.3511   -0.2145 C   0  0  0  0  0  0  0  0  0  0  0  0
    7.9261   -2.1882   -0.8432 S   0  0  0  0  0  0  0  0  0  0  0  0
    2.3798   -0.8105   -0.9097 C   0  0  0  0  0  0  0  0  0  0  0  0
    0.9906   -0.6241   -0.9017 C   0  0  0  0  0  0  0  0  0  0  0  0
   -3.2807    1.0459    0.4809 C   0  0  0  0  0  0  0  0  0  0  0  0
   -4.0709    2.1976    0.5176 C   0  0  0  0  0  0  0  0  0  0  0  0
   -5.4432    2.1121    0.2755 C   0  0  0  0  0  0  0  0  0  0  0  0
   -6.0468    0.8739    0.0055 C   0  0  0  0  0  0  0  0  0  0  0  0
   -7.4252    0.7731   -0.2400 C   0  0  0  0  0  0  0  0  0  0  0  0
   -8.0152   -0.4652   -0.4972 C   0  0  0  0  0  0  0  0  0  0  0  0
   -7.2358   -1.6181   -0.5101 C   0  0  0  0  0  0  0  0  0  0  0  0
   -5.8637   -1.5359   -0.2679 C   0  0  0  0  0  0  0  0  0  0  0  0
   -5.2529   -0.2975   -0.0116 C   0  0  0  0  0  0  0  0  0  0  0  0
   -3.8727   -0.1998    0.2322 C   0  0  0  0  0  0  0  0  0  0  0  0
   -1.4761   -0.1845   -0.7560 H   0  0  0  0  0  0  0  0  0  0  0  0
    0.7689    1.5354    1.7142 H   0  0  0  0  0  0  0  0  0  0  0  0
    3.1666    1.2182    1.6980 H   0  0  0  0  0  0  0  0  0  0  0  0
    5.0369    0.2561    0.8137 H   0  0  0  0  0  0  0  0  0  0  0  0
    7.0543    1.0228    0.5636 H   0  0  0  0  0  0  0  0  0  0  0  0
    9.6376    0.5523    0.7588 H   0  0  0  0  0  0  0  0  0  0  0  0
   10.2623   -1.7884   -0.2768 H   0  0  0  0  0  0  0  0  0  0  0  0
    2.7936   -1.4729   -1.6634 H   0  0  0  0  0  0  0  0  0  0  0  0
    0.3990   -1.1531   -1.6446 H   0  0  0  0  0  0  0  0  0  0  0  0
   -3.6194    3.1643    0.7324 H   0  0  0  0  0  0  0  0  0  0  0  0
   -6.0393    3.0220    0.3040 H   0  0  0  0  0  0  0  0  0  0  0  0
   -8.0528    1.6618   -0.2300 H   0  0  0  0  0  0  0  0  0  0  0  0
   -9.0841   -0.5287   -0.6843 H   0  0  0  0  0  0  0  0  0  0  0  0
   -7.6960   -2.5831   -0.7070 H   0  0  0  0  0  0  0  0  0  0  0  0
   -5.2751   -2.4507   -0.2804 H   0  0  0  0  0  0  0  0  0  0  0  0
   -3.2700   -1.1045    0.2558 H   0  0  0  0  0  0  0  0  0  0  0  0
  1  2  2  0
  2  3  1  0
  3  4  1  0
  4  5  2  0
  5  6  1  0
  6  7  2  0
  7  8  1  0
  8  9  1  0
  9 10  2  0
  9 11  1  0
 11 12  2  0
 12 13  1  0
 13 14  2  0
 14 15  1  0
  7 16  1  0
 16 17  2  0
  2 18  1  0
 18 19  2  0
 19 20  1  0
 20 21  2  0
 21 22  1  0
 22 23  2  0
 23 24  1  0
 24 25  2  0
 25 26  1  0
 26 27  2  0
 17  4  1  0
 27 18  1  0
 15 11  1  0
 26 21  1  0
  3 28  1  0
  5 29  1  0
  6 30  1  0
  8 31  1  0
 12 32  1  0
 13 33  1  0
 14 34  1  0
 16 35  1  0
 17 36  1  0
 19 37  1  0
 20 38  1  0
 22 39  1  0
 23 40  1  0
 24 41  1  0
 25 42  1  0
 27 43  1  0
M  END
$$$$
