
     RDKit          3D

 33 33  0  0  0  0  0  0  0  0999 V2000
   -2.4129   -1.7903    1.2005 C   0  0  0  0  0  0  0  0  0  0  0  0
   -3.0261   -0.6622    0.3678 C   0  0  0  0  0  0  0  0  0  0  0  0
   -3.6117   -1.2332   -0.9253 C   0  0  0  0  0  0  0  0  0  0  0  0
   -2.0417    0.3639   -0.0037 N   0  0  0  0  0  0  0  0  0  0  0  0
   -1.6143    1.1794    1.1347 C   0  0  0  0  0  0  0  0  0  0  0  0
   -0.7733    2.3796    0.6845 C   0  0  0  0  0  0  0  0  0  0  0  0
    0.5114    2.0112   -0.0557 C   0  0  0  0  0  0  0  0  0  0  0  0
    1.2760    1.1198    0.7567 O   0  0  0  0  0  0  0  0  0  0  0  0
    2.2936    0.4407    0.1422 C   0  0  0  0  0  0  0  0  0  0  0  0
    2.9578    0.9035   -0.9985 C   0  0  0  0  0  0  0  0  0  0  0  0
    4.0037    0.1611   -1.5560 C   0  0  0  0  0  0  0  0  0  0  0  0
    4.3940   -1.0410   -0.9702 C   0  0  0  0  0  0  0  0  0  0  0  0
    5.6815   -1.9482   -1.6621 Cl  0  0  0  0  0  0  0  0  0  0  0  0
    3.7525   -1.5104    0.1717 C   0  0  0  0  0  0  0  0  0  0  0  0
    2.7078   -0.7670    0.7271 C   0  0  0  0  0  0  0  0  0  0  0  0
    1.8567   -1.4574    2.2804 Br  0  0  0  0  0  0  0  0  0  0  0  0
   -1.5625   -2.2520    0.6864 H   0  0  0  0  0  0  0  0  0  0  0  0
   -2.0667   -1.4299    2.1742 H   0  0  0  0  0  0  0  0  0  0  0  0
   -3.1537   -2.5748    1.3902 H   0  0  0  0  0  0  0  0  0  0  0  0
   -3.8488   -0.2030    0.9294 H   0  0  0  0  0  0  0  0  0  0  0  0
   -4.0770   -0.4446   -1.5274 H   0  0  0  0  0  0  0  0  0  0  0  0
   -2.8429   -1.7183   -1.5377 H   0  0  0  0  0  0  0  0  0  0  0  0
   -4.3840   -1.9780   -0.7040 H   0  0  0  0  0  0  0  0  0  0  0  0
   -1.2256   -0.0977   -0.4075 H   0  0  0  0  0  0  0  0  0  0  0  0
   -1.0425    0.5797    1.8508 H   0  0  0  0  0  0  0  0  0  0  0  0
   -2.4927    1.5693    1.6631 H   0  0  0  0  0  0  0  0  0  0  0  0
   -1.3756    3.0433    0.0524 H   0  0  0  0  0  0  0  0  0  0  0  0
   -0.5067    2.9493    1.5838 H   0  0  0  0  0  0  0  0  0  0  0  0
    1.0872    2.9268   -0.2341 H   0  0  0  0  0  0  0  0  0  0  0  0
    0.2655    1.5501   -1.0200 H   0  0  0  0  0  0  0  0  0  0  0  0
    2.6937    1.8467   -1.4669 H   0  0  0  0  0  0  0  0  0  0  0  0
    4.5126    0.5308   -2.4430 H   0  0  0  0  0  0  0  0  0  0  0  0
    4.0648   -2.4472    0.6248 H   0  0  0  0  0  0  0  0  0  0  0  0
  1  2  1  0
  2  3  1  0
  2  4  1  0
  4  5  1  0
  5  6  1  0
  6  7  1  0
  7  8  1  0
  8  9  1  0
  9 10  2  0
 10 11  1  0
 11 12  2  0
 12 13  1  0
 12 14  1  0
 14 15  2  0
 15 16  1  0
 15  9  1  0
  1 17  1  0
  1 18  1  0
  1 19  1  0
  2 20  1  0
  3 21  1  0
  3 22  1  0
  3 23  1  0
  4 24  1  0
  5 25  1  0
  5 26  1  0
  6 27  1  0
  6 28  1  0
  7 29  1  0
  7 30  1  0
 10 31  1  0
 11 32  1  0
 14 33  1  0
M  END
$$$$
