
     RDKit          3D

 37 38  0  0  0  0  0  0  0  0999 V2000
    0.7892   -1.2383   -0.6689 O   0  0  0  0  0  0  0  0  0  0  0  0
    0.8705   -0.0576   -0.3543 C   0  0  0  0  0  0  0  0  0  0  0  0
   -0.3122    0.7184    0.2073 C   0  0  0  0  0  0  0  0  0  0  0  0
   -1.5724   -0.1370    0.3240 C   0  0  0  0  0  0  0  0  0  0  0  0
   -2.7383    0.6740    0.8911 C   0  0  0  0  0  0  0  0  0  0  0  0
   -3.9916   -0.1548    1.0134 C   0  0  0  0  0  0  0  0  0  0  0  0
   -4.2536   -0.8786    2.1842 C   0  0  0  0  0  0  0  0  0  0  0  0
   -5.4067   -1.6580    2.2908 C   0  0  0  0  0  0  0  0  0  0  0  0
   -6.3050   -1.7250    1.2275 C   0  0  0  0  0  0  0  0  0  0  0  0
   -6.0500   -1.0149    0.0559 C   0  0  0  0  0  0  0  0  0  0  0  0
   -4.8975   -0.2350   -0.0526 C   0  0  0  0  0  0  0  0  0  0  0  0
    1.9994    0.7434   -0.4490 N   0  0  0  0  0  0  0  0  0  0  0  0
    3.2771    0.3752   -0.9210 C   0  0  0  0  0  0  0  0  0  0  0  0
    3.6024   -0.9043   -1.3804 C   0  0  0  0  0  0  0  0  0  0  0  0
    4.8937   -1.1982   -1.8350 C   0  0  0  0  0  0  0  0  0  0  0  0
    5.8794   -0.2144   -1.8364 C   0  0  0  0  0  0  0  0  0  0  0  0
    5.5599    1.0673   -1.3779 C   0  0  0  0  0  0  0  0  0  0  0  0
    6.5879    2.1147   -1.3732 N   0  0  0  0  0  4  0  0  0  0  0  0
    6.2630    3.2370   -0.9590 O   0  0  0  0  0  0  0  0  0  0  0  0
    7.7188    1.8172   -1.7827 O   0  0  0  0  0  1  0  0  0  0  0  0
    4.2664    1.3660   -0.9213 C   0  0  0  0  0  0  0  0  0  0  0  0
   -0.5044    1.5734   -0.4519 H   0  0  0  0  0  0  0  0  0  0  0  0
   -0.0316    1.1016    1.1956 H   0  0  0  0  0  0  0  0  0  0  0  0
   -1.3715   -1.0046    0.9658 H   0  0  0  0  0  0  0  0  0  0  0  0
   -1.8389   -0.5381   -0.6624 H   0  0  0  0  0  0  0  0  0  0  0  0
   -2.4734    1.0789    1.8762 H   0  0  0  0  0  0  0  0  0  0  0  0
   -2.9393    1.5441    0.2531 H   0  0  0  0  0  0  0  0  0  0  0  0
   -3.5590   -0.8421    3.0202 H   0  0  0  0  0  0  0  0  0  0  0  0
   -5.6021   -2.2159    3.2027 H   0  0  0  0  0  0  0  0  0  0  0  0
   -7.2013   -2.3337    1.3104 H   0  0  0  0  0  0  0  0  0  0  0  0
   -6.7473   -1.0712   -0.7758 H   0  0  0  0  0  0  0  0  0  0  0  0
   -4.7093    0.3077   -0.9760 H   0  0  0  0  0  0  0  0  0  0  0  0
    1.8948    1.7037   -0.1441 H   0  0  0  0  0  0  0  0  0  0  0  0
    2.8698   -1.7066   -1.3998 H   0  0  0  0  0  0  0  0  0  0  0  0
    5.1230   -2.2017   -2.1880 H   0  0  0  0  0  0  0  0  0  0  0  0
    6.8773   -0.4605   -2.1931 H   0  0  0  0  0  0  0  0  0  0  0  0
    4.0328    2.3677   -0.5676 H   0  0  0  0  0  0  0  0  0  0  0  0
  1  2  2  0
  2  3  1  0
  3  4  1  0
  4  5  1  0
  5  6  1  0
  6  7  2  0
  7  8  1  0
  8  9  2  0
  9 10  1  0
 10 11  2  0
  2 12  1  0
 12 13  1  0
 13 14  2  0
 14 15  1  0
 15 16  2  0
 16 17  1  0
 17 18  1  0
 18 19  2  0
 18 20  1  0
 17 21  2  0
 11  6  1  0
 21 13  1  0
  3 22  1  0
  3 23  1  0
  4 24  1  0
  4 25  1  0
  5 26  1  0
  5 27  1  0
  7 28  1  0
  8 29  1  0
  9 30  1  0
 10 31  1  0
 11 32  1  0
 12 33  1  0
 14 34  1  0
 15 35  1  0
 16 36  1  0
 21 37  1  0
M  CHG  2  18   1  20  -1
M  END
$$$$
