
     RDKit          3D

 43 45  0  0  0  0  0  0  0  0999 V2000
    7.5777    0.9400    1.4533 O   0  0  0  0  0  0  0  0  0  0  0  0
    8.0825    0.2392    0.5929 C   0  0  0  0  0  0  0  0  0  0  0  0
    9.4174    0.0281    0.5980 O   0  0  0  0  0  0  0  0  0  0  0  0
    7.4131   -0.4450   -0.5739 C   0  0  0  0  0  0  0  0  0  0  0  0
    5.9052   -0.4537   -0.4997 C   0  0  0  0  0  0  0  0  0  0  0  0
    5.2189   -1.5954   -0.0698 C   0  0  0  0  0  0  0  0  0  0  0  0
    3.8209   -1.6043    0.0048 C   0  0  0  0  0  0  0  0  0  0  0  0
    3.0850   -0.4726   -0.3444 C   0  0  0  0  0  0  0  0  0  0  0  0
    1.6774   -0.3975   -0.2873 N   0  0  0  0  0  0  0  0  0  0  0  0
    0.7942   -1.4186    0.0130 C   0  0  0  0  0  0  0  0  0  0  0  0
    1.0681   -2.5968    0.2076 O   0  0  0  0  0  0  0  0  0  0  0  0
   -0.6410   -1.0157    0.0499 C   0  0  0  0  0  0  0  0  0  0  0  0
   -1.0477    0.2373    0.5204 C   0  0  0  0  0  0  0  0  0  0  0  0
   -2.4071    0.5767    0.5372 C   0  0  0  0  0  0  0  0  0  0  0  0
   -3.3725   -0.3314    0.0965 C   0  0  0  0  0  0  0  0  0  0  0  0
   -4.7534   -0.0666    0.0812 N   0  0  0  0  0  0  0  0  0  0  0  0
   -5.4130    1.0926    0.4511 C   0  0  0  0  0  0  0  0  0  0  0  0
   -4.8766    2.1178    0.8584 O   0  0  0  0  0  0  0  0  0  0  0  0
   -6.8541    0.9836    0.3026 C   0  0  0  0  0  0  0  0  0  0  0  0
   -7.8668    1.8893    0.5568 C   0  0  0  0  0  0  0  0  0  0  0  0
   -9.0835    1.2446    0.2298 C   0  0  0  0  0  0  0  0  0  0  0  0
   -8.7446   -0.0147   -0.2046 C   0  0  0  0  0  0  0  0  0  0  0  0
   -7.3979   -0.1869   -0.1665 O   0  0  0  0  0  0  0  0  0  0  0  0
   -2.9607   -1.5923   -0.3531 C   0  0  0  0  0  0  0  0  0  0  0  0
   -1.6052   -1.9355   -0.3728 C   0  0  0  0  0  0  0  0  0  0  0  0
    3.7707    0.6737   -0.7636 C   0  0  0  0  0  0  0  0  0  0  0  0
    5.1670    0.6844   -0.8422 C   0  0  0  0  0  0  0  0  0  0  0  0
    9.7262    0.5219    1.3871 H   0  0  0  0  0  0  0  0  0  0  0  0
    7.7793   -1.4776   -0.6239 H   0  0  0  0  0  0  0  0  0  0  0  0
    7.7261    0.0592   -1.4957 H   0  0  0  0  0  0  0  0  0  0  0  0
    5.7615   -2.4943    0.2155 H   0  0  0  0  0  0  0  0  0  0  0  0
    3.3378   -2.5130    0.3501 H   0  0  0  0  0  0  0  0  0  0  0  0
    1.2786    0.4908   -0.5601 H   0  0  0  0  0  0  0  0  0  0  0  0
   -0.3291    0.9542    0.9088 H   0  0  0  0  0  0  0  0  0  0  0  0
   -2.6778    1.5579    0.9157 H   0  0  0  0  0  0  0  0  0  0  0  0
   -5.3638   -0.8099   -0.2429 H   0  0  0  0  0  0  0  0  0  0  0  0
   -7.7282    2.8937    0.9345 H   0  0  0  0  0  0  0  0  0  0  0  0
  -10.0841    1.6477    0.3022 H   0  0  0  0  0  0  0  0  0  0  0  0
   -9.3158   -0.8628   -0.5570 H   0  0  0  0  0  0  0  0  0  0  0  0
   -3.6860   -2.3280   -0.6924 H   0  0  0  0  0  0  0  0  0  0  0  0
   -1.3031   -2.9220   -0.7201 H   0  0  0  0  0  0  0  0  0  0  0  0
    3.2315    1.5777   -1.0338 H   0  0  0  0  0  0  0  0  0  0  0  0
    5.6726    1.5925   -1.1637 H   0  0  0  0  0  0  0  0  0  0  0  0
  1  2  2  0
  2  3  1  0
  2  4  1  0
  4  5  1  0
  5  6  2  0
  6  7  1  0
  7  8  2  0
  8  9  1  0
  9 10  1  0
 10 11  2  0
 10 12  1  0
 12 13  2  0
 13 14  1  0
 14 15  2  0
 15 16  1  0
 16 17  1  0
 17 18  2  0
 17 19  1  0
 19 20  2  0
 20 21  1  0
 21 22  2  0
 22 23  1  0
 15 24  1  0
 24 25  2  0
  8 26  1  0
 26 27  2  0
 27  5  1  0
 25 12  1  0
 23 19  1  0
  3 28  1  0
  4 29  1  0
  4 30  1  0
  6 31  1  0
  7 32  1  0
  9 33  1  0
 13 34  1  0
 14 35  1  0
 16 36  1  0
 20 37  1  0
 21 38  1  0
 22 39  1  0
 24 40  1  0
 25 41  1  0
 26 42  1  0
 27 43  1  0
M  END
$$$$
