
     RDKit          3D

 36 37  0  0  0  0  0  0  0  0999 V2000
    0.7463   -0.4560   -3.4994 O   0  0  0  0  0  0  0  0  0  0  0  0
    0.6545   -0.8609   -2.3443 C   0  0  0  0  0  0  0  0  0  0  0  0
   -0.3815   -1.9095   -1.9238 C   0  0  0  0  0  0  0  0  0  0  0  0
   -1.5423   -1.3358   -1.3167 O   0  0  0  0  0  0  0  0  0  0  0  0
   -1.3717   -0.9230   -0.0383 C   0  0  0  0  0  0  0  0  0  0  0  0
   -0.3505   -1.0346    0.6184 O   0  0  0  0  0  0  0  0  0  0  0  0
   -2.6046   -0.2625    0.4237 C   0  0  0  0  0  0  0  0  0  0  0  0
   -3.8261   -0.9387    0.2863 C   0  0  0  0  0  0  0  0  0  0  0  0
   -4.9983   -0.3391    0.7410 C   0  0  0  0  0  0  0  0  0  0  0  0
   -6.4971   -1.1660    0.5775 Cl  0  0  0  0  0  0  0  0  0  0  0  0
   -4.9650    0.9234    1.3314 C   0  0  0  0  0  0  0  0  0  0  0  0
   -3.7479    1.5971    1.4653 C   0  0  0  0  0  0  0  0  0  0  0  0
   -2.5636    1.0076    1.0115 C   0  0  0  0  0  0  0  0  0  0  0  0
   -1.1062    1.9213    1.1601 Cl  0  0  0  0  0  0  0  0  0  0  0  0
    1.4724   -0.4215   -1.3179 N   0  0  0  0  0  0  0  0  0  0  0  0
    2.2796    0.7785   -1.4920 C   0  0  0  0  0  0  0  0  0  0  0  0
    3.4918    0.8104   -0.5578 C   0  0  0  0  0  0  0  0  0  0  0  0
    3.1231    0.7176    0.8441 N   0  0  0  0  0  0  0  0  0  0  0  0
    3.0418   -0.4444    1.5745 C   0  0  0  0  0  0  0  0  0  0  0  0
    3.2610   -1.6606    1.0010 O   0  0  0  0  0  0  0  0  0  0  0  0
    2.7080   -0.2761    2.8568 C   0  0  0  0  0  0  0  0  0  0  0  0
    2.4536    1.3993    3.2322 S   0  0  0  0  0  0  0  0  0  0  0  0
    2.8147    1.8682    1.5621 C   0  0  0  0  0  0  0  0  0  0  0  0
    2.7895    3.0184    1.1548 O   0  0  0  0  0  0  0  0  0  0  0  0
   -0.7077   -2.4413   -2.8241 H   0  0  0  0  0  0  0  0  0  0  0  0
    0.0795   -2.6584   -1.2686 H   0  0  0  0  0  0  0  0  0  0  0  0
   -3.8611   -1.9269   -0.1669 H   0  0  0  0  0  0  0  0  0  0  0  0
   -5.8816    1.3908    1.6851 H   0  0  0  0  0  0  0  0  0  0  0  0
   -3.7309    2.5856    1.9199 H   0  0  0  0  0  0  0  0  0  0  0  0
    1.0815   -0.5573   -0.3809 H   0  0  0  0  0  0  0  0  0  0  0  0
    1.6202    1.6329   -1.3017 H   0  0  0  0  0  0  0  0  0  0  0  0
    2.6179    0.8454   -2.5316 H   0  0  0  0  0  0  0  0  0  0  0  0
    4.1938    0.0052   -0.8020 H   0  0  0  0  0  0  0  0  0  0  0  0
    4.0291    1.7534   -0.7160 H   0  0  0  0  0  0  0  0  0  0  0  0
    3.0920   -1.5713    0.0487 H   0  0  0  0  0  0  0  0  0  0  0  0
    2.5859   -1.0711    3.5782 H   0  0  0  0  0  0  0  0  0  0  0  0
  1  2  2  0
  2  3  1  0
  3  4  1  0
  4  5  1  0
  5  6  2  0
  5  7  1  0
  7  8  2  0
  8  9  1  0
  9 10  1  0
  9 11  2  0
 11 12  1  0
 12 13  2  0
 13 14  1  0
  2 15  1  0
 15 16  1  0
 16 17  1  0
 17 18  1  0
 18 19  1  0
 19 20  1  0
 19 21  2  0
 21 22  1  0
 22 23  1  0
 23 24  2  0
 13  7  1  0
 23 18  1  0
  3 25  1  0
  3 26  1  0
  8 27  1  0
 11 28  1  0
 12 29  1  0
 15 30  1  0
 16 31  1  0
 16 32  1  0
 17 33  1  0
 17 34  1  0
 20 35  1  0
 21 36  1  0
M  END
$$$$
