
     RDKit          3D

 33 34  0  0  0  0  0  0  0  0999 V2000
   -4.5929    0.9273   -1.6051 C   0  0  0  0  0  0  0  0  0  0  0  0
   -3.6706    0.2228   -0.6526 C   0  0  0  0  0  0  0  0  0  0  0  0
   -4.0735   -0.9631   -0.0285 C   0  0  0  0  0  0  0  0  0  0  0  0
   -3.2110   -1.6309    0.8400 C   0  0  0  0  0  0  0  0  0  0  0  0
   -1.9358   -1.1260    1.0792 C   0  0  0  0  0  0  0  0  0  0  0  0
   -1.1624   -1.8416    1.9549 O   0  0  0  0  0  0  0  0  0  0  0  0
   -1.4968    0.0445    0.4417 C   0  0  0  0  0  0  0  0  0  0  0  0
   -0.1138    0.5487    0.6926 C   0  0  0  0  0  0  0  0  0  0  0  0
    0.5135    0.0778    1.6426 O   0  0  0  0  0  0  0  0  0  0  0  0
    0.4576    1.6188   -0.2060 C   0  0  0  0  0  0  0  0  0  0  0  0
    1.9608    1.7705   -0.2014 C   0  0  0  0  0  0  0  0  0  0  0  0
    2.4821    2.8763   -0.3586 O   0  0  0  0  0  0  0  0  0  0  0  0
    2.8561    0.5981   -0.0343 C   0  0  0  0  0  0  0  0  0  0  0  0
    3.8900    0.7357    0.9060 C   0  0  0  0  0  0  0  0  0  0  0  0
    4.7747   -0.3168    1.1433 C   0  0  0  0  0  0  0  0  0  0  0  0
    4.6400   -1.5089    0.4364 C   0  0  0  0  0  0  0  0  0  0  0  0
    3.6285   -1.6445   -0.5163 C   0  0  0  0  0  0  0  0  0  0  0  0
    2.7380   -0.5921   -0.7610 C   0  0  0  0  0  0  0  0  0  0  0  0
    1.5722   -0.8275   -2.0122 Cl  0  0  0  0  0  0  0  0  0  0  0  0
   -2.3762    0.7162   -0.4215 C   0  0  0  0  0  0  0  0  0  0  0  0
   -4.4246    2.0091   -1.5820 H   0  0  0  0  0  0  0  0  0  0  0  0
   -5.6402    0.7562   -1.3347 H   0  0  0  0  0  0  0  0  0  0  0  0
   -4.4267    0.5637   -2.6237 H   0  0  0  0  0  0  0  0  0  0  0  0
   -5.0652   -1.3731   -0.2091 H   0  0  0  0  0  0  0  0  0  0  0  0
   -3.5321   -2.5452    1.3326 H   0  0  0  0  0  0  0  0  0  0  0  0
   -0.3412   -1.3274    2.1231 H   0  0  0  0  0  0  0  0  0  0  0  0
    0.1489    1.4720   -1.2443 H   0  0  0  0  0  0  0  0  0  0  0  0
    0.0397    2.5702    0.1467 H   0  0  0  0  0  0  0  0  0  0  0  0
    4.0017    1.6649    1.4626 H   0  0  0  0  0  0  0  0  0  0  0  0
    5.5668   -0.2049    1.8801 H   0  0  0  0  0  0  0  0  0  0  0  0
    5.3280   -2.3310    0.6201 H   0  0  0  0  0  0  0  0  0  0  0  0
    3.5463   -2.5754   -1.0732 H   0  0  0  0  0  0  0  0  0  0  0  0
   -2.0818    1.6357   -0.9205 H   0  0  0  0  0  0  0  0  0  0  0  0
  1  2  1  0
  2  3  2  0
  3  4  1  0
  4  5  2  0
  5  6  1  0
  5  7  1  0
  7  8  1  0
  8  9  2  0
  8 10  1  0
 10 11  1  0
 11 12  2  0
 11 13  1  0
 13 14  2  0
 14 15  1  0
 15 16  2  0
 16 17  1  0
 17 18  2  0
 18 19  1  0
  7 20  2  0
 20  2  1  0
 18 13  1  0
  1 21  1  0
  1 22  1  0
  1 23  1  0
  3 24  1  0
  4 25  1  0
  6 26  1  0
 10 27  1  0
 10 28  1  0
 14 29  1  0
 15 30  1  0
 16 31  1  0
 17 32  1  0
 20 33  1  0
M  END
$$$$
