
     RDKit          3D

 56 61  0  0  0  0  0  0  0  0999 V2000
    6.5106   -0.5119   -3.9786 C   0  0  0  0  0  0  0  0  0  0  0  0
    5.4609   -0.2852   -2.9292 C   0  0  0  0  0  0  0  0  0  0  0  0
    4.3166    0.4597   -3.2140 C   0  0  0  0  0  0  0  0  0  0  0  0
    3.3276    0.6366   -2.2449 C   0  0  0  0  0  0  0  0  0  0  0  0
    3.4776    0.0764   -0.9709 C   0  0  0  0  0  0  0  0  0  0  0  0
    2.3472    0.2654    0.1025 C   0  0  0  0  0  0  0  0  0  0  0  0
    1.1020    0.8465   -0.1098 C   0  0  0  0  0  0  0  0  0  0  0  0
    0.3614    0.7715    1.0694 N   0  0  0  0  0  4  0  0  0  0  0  0
   -1.0479    1.1532    1.2541 C   0  0  0  0  0  0  0  0  0  0  0  0
   -1.9347   -0.0981    1.2269 C   0  0  0  0  0  0  0  0  0  0  0  0
   -1.6040   -1.1261    1.8199 O   0  0  0  0  0  0  0  0  0  0  0  0
   -3.0635    0.0462    0.4200 N   0  0  0  0  0  0  0  0  0  0  0  0
   -3.1712   -0.7097   -0.8016 C   0  0  0  0  0  0  0  0  0  0  0  0
   -2.2266   -1.7222   -1.0888 C   0  0  0  0  0  0  0  0  0  0  0  0
   -2.2813   -2.4781   -2.2654 C   0  0  0  0  0  0  0  0  0  0  0  0
   -3.2795   -2.2341   -3.1956 C   0  0  0  0  0  0  0  0  0  0  0  0
   -4.2068   -1.2253   -2.9519 C   0  0  0  0  0  0  0  0  0  0  0  0
   -4.1577   -0.4618   -1.7694 C   0  0  0  0  0  0  0  0  0  0  0  0
   -5.3329    0.8537   -1.6524 S   0  0  0  0  0  0  0  0  0  0  0  0
   -5.2232    1.2578    0.0626 C   0  0  0  0  0  0  0  0  0  0  0  0
   -6.2636    2.0484    0.5861 C   0  0  0  0  0  0  0  0  0  0  0  0
   -6.2660    2.4463    1.9193 C   0  0  0  0  0  0  0  0  0  0  0  0
   -5.2229    2.0557    2.7457 C   0  0  0  0  0  0  0  0  0  0  0  0
   -4.1882    1.2687    2.2351 C   0  0  0  0  0  0  0  0  0  0  0  0
   -4.1550    0.8632    0.8801 C   0  0  0  0  0  0  0  0  0  0  0  0
    1.1251    0.1779    1.9844 C   0  0  0  0  0  0  0  0  0  0  0  0
    2.3059   -0.0976    1.4376 N   0  0  0  0  0  0  0  0  0  0  0  0
    3.2116   -0.7209    2.3917 C   0  0  0  0  0  0  0  0  0  0  0  0
    2.5128   -0.4864    3.7589 C   0  0  0  0  0  0  0  0  0  0  0  0
    1.0338   -0.2224    3.4088 C   0  0  0  0  0  0  0  0  0  0  0  0
    4.6174   -0.6712   -0.6824 C   0  0  0  0  0  0  0  0  0  0  0  0
    5.5986   -0.8579   -1.6604 C   0  0  0  0  0  0  0  0  0  0  0  0
    6.4481   -1.5363   -4.3555 H   0  0  0  0  0  0  0  0  0  0  0  0
    6.3820    0.1715   -4.8213 H   0  0  0  0  0  0  0  0  0  0  0  0
    7.5084   -0.3432   -3.5651 H   0  0  0  0  0  0  0  0  0  0  0  0
    4.1859    0.9043   -4.1955 H   0  0  0  0  0  0  0  0  0  0  0  0
    2.4595    1.2208   -2.5187 H   0  0  0  0  0  0  0  0  0  0  0  0
    0.6299    1.2780   -0.9781 H   0  0  0  0  0  0  0  0  0  0  0  0
   -1.3282    1.8513    0.4619 H   0  0  0  0  0  0  0  0  0  0  0  0
   -1.1496    1.6525    2.2200 H   0  0  0  0  0  0  0  0  0  0  0  0
   -1.4310   -1.9826   -0.3942 H   0  0  0  0  0  0  0  0  0  0  0  0
   -1.5511   -3.2655   -2.4479 H   0  0  0  0  0  0  0  0  0  0  0  0
   -3.3358   -2.8200   -4.1110 H   0  0  0  0  0  0  0  0  0  0  0  0
   -4.9705   -1.0307   -3.7042 H   0  0  0  0  0  0  0  0  0  0  0  0
   -7.0978    2.3547   -0.0465 H   0  0  0  0  0  0  0  0  0  0  0  0
   -7.0833    3.0468    2.3101 H   0  0  0  0  0  0  0  0  0  0  0  0
   -5.2320    2.3413    3.7956 H   0  0  0  0  0  0  0  0  0  0  0  0
   -3.4370    0.9416    2.9497 H   0  0  0  0  0  0  0  0  0  0  0  0
    3.2833   -1.7891    2.1654 H   0  0  0  0  0  0  0  0  0  0  0  0
    4.1963   -0.2487    2.3655 H   0  0  0  0  0  0  0  0  0  0  0  0
    2.9367    0.4097    4.2261 H   0  0  0  0  0  0  0  0  0  0  0  0
    2.6439   -1.3216    4.4514 H   0  0  0  0  0  0  0  0  0  0  0  0
    0.4317   -1.1319    3.4501 H   0  0  0  0  0  0  0  0  0  0  0  0
    0.5898    0.5919    3.9790 H   0  0  0  0  0  0  0  0  0  0  0  0
    4.7649   -1.1476    0.2798 H   0  0  0  0  0  0  0  0  0  0  0  0
    6.4715   -1.4651   -1.4344 H   0  0  0  0  0  0  0  0  0  0  0  0
  1  2  1  0
  2  3  2  0
  3  4  1  0
  4  5  2  0
  5  6  1  0
  6  7  2  0
  7  8  1  0
  8  9  1  0
  9 10  1  0
 10 11  2  0
 10 12  1  0
 12 13  1  0
 13 14  2  0
 14 15  1  0
 15 16  2  0
 16 17  1  0
 17 18  2  0
 18 19  1  0
 19 20  1  0
 20 21  2  0
 21 22  1  0
 22 23  2  0
 23 24  1  0
 24 25  2  0
  8 26  2  0
 26 27  1  0
 27 28  1  0
 28 29  1  0
 29 30  1  0
  5 31  1  0
 31 32  2  0
 32  2  1  0
 27  6  1  0
 25 12  1  0
 30 26  1  0
 18 13  1  0
 25 20  1  0
  1 33  1  0
  1 34  1  0
  1 35  1  0
  3 36  1  0
  4 37  1  0
  7 38  1  0
  9 39  1  0
  9 40  1  0
 14 41  1  0
 15 42  1  0
 16 43  1  0
 17 44  1  0
 21 45  1  0
 22 46  1  0
 23 47  1  0
 24 48  1  0
 28 49  1  0
 28 50  1  0
 29 51  1  0
 29 52  1  0
 30 53  1  0
 30 54  1  0
 31 55  1  0
 32 56  1  0
M  CHG  1   8   1
M  END
$$$$
