
     RDKit          3D

 55 58  0  0  0  0  0  0  0  0999 V2000
    3.4902    1.0041   -2.0073 O   0  0  0  0  0  0  0  0  0  0  0  0
    2.7377    0.0536   -1.7848 C   0  0  0  0  0  0  0  0  0  0  0  0
    1.8561   -0.5546   -2.8572 C   0  0  0  0  0  0  0  0  0  0  0  0
    0.2743    0.3312   -2.9632 S   0  0  0  0  0  0  0  0  0  0  0  0
   -0.5321   -0.2951   -1.5684 C   0  0  0  0  0  0  0  0  0  0  0  0
   -0.2023   -1.3966   -0.9378 N   0  0  0  0  0  0  0  0  0  0  0  0
   -1.0555   -1.5351    0.1259 N   0  0  0  0  0  0  0  0  0  0  0  0
   -1.8809   -0.5011    0.1400 C   0  0  0  0  0  0  0  0  0  0  0  0
   -2.9325   -0.2788    1.1275 C   0  0  0  0  0  0  0  0  0  0  0  0
   -3.9587   -1.2263    1.2462 C   0  0  0  0  0  0  0  0  0  0  0  0
   -4.9782   -1.0563    2.1850 C   0  0  0  0  0  0  0  0  0  0  0  0
   -4.9743    0.0549    3.0263 C   0  0  0  0  0  0  0  0  0  0  0  0
   -3.9494    0.9959    2.9344 C   0  0  0  0  0  0  0  0  0  0  0  0
   -2.9347    0.8250    1.9906 C   0  0  0  0  0  0  0  0  0  0  0  0
   -1.9299    1.7524    1.9090 O   0  0  0  0  0  0  0  0  0  0  0  0
   -1.6131    0.2871   -0.9636 N   0  0  0  0  0  0  0  0  0  0  0  0
   -2.3412    1.4696   -1.3859 C   0  0  0  0  0  0  0  0  0  0  0  0
   -3.7252    1.1405   -1.8947 C   0  0  0  0  0  0  0  0  0  0  0  0
   -3.9071    0.3685   -3.0519 C   0  0  0  0  0  0  0  0  0  0  0  0
   -5.1916    0.0703   -3.5110 C   0  0  0  0  0  0  0  0  0  0  0  0
   -6.3066    0.5432   -2.8240 C   0  0  0  0  0  0  0  0  0  0  0  0
   -6.1403    1.3164   -1.6776 C   0  0  0  0  0  0  0  0  0  0  0  0
   -4.8578    1.6164   -1.2169 C   0  0  0  0  0  0  0  0  0  0  0  0
    2.6247   -0.5377   -0.5427 N   0  0  0  0  0  0  0  0  0  0  0  0
    3.6116   -0.2541    0.4110 N   0  0  0  0  0  0  0  0  0  0  0  0
    4.3340   -1.3167    0.9190 C   0  0  0  0  0  0  0  0  0  0  0  0
    3.9689   -2.4841    0.7895 O   0  0  0  0  0  0  0  0  0  0  0  0
    5.6074   -0.9934    1.6353 C   0  0  0  0  0  0  0  0  0  0  0  0
    6.2913   -2.0622    2.2407 C   0  0  0  0  0  0  0  0  0  0  0  0
    7.4950   -1.8506    2.9171 C   0  0  0  0  0  0  0  0  0  0  0  0
    8.0313   -0.5680    2.9968 C   0  0  0  0  0  0  0  0  0  0  0  0
    7.3685    0.5043    2.3988 C   0  0  0  0  0  0  0  0  0  0  0  0
    6.1643    0.2921    1.7190 C   0  0  0  0  0  0  0  0  0  0  0  0
    5.5454    1.3630    1.1296 O   0  0  0  0  0  0  0  0  0  0  0  0
    1.7115   -1.6266   -2.6868 H   0  0  0  0  0  0  0  0  0  0  0  0
    2.3779   -0.4552   -3.8156 H   0  0  0  0  0  0  0  0  0  0  0  0
   -3.9654   -2.1041    0.5995 H   0  0  0  0  0  0  0  0  0  0  0  0
   -5.7704   -1.7972    2.2607 H   0  0  0  0  0  0  0  0  0  0  0  0
   -5.7666    0.1804    3.7603 H   0  0  0  0  0  0  0  0  0  0  0  0
   -3.9572    1.8506    3.6024 H   0  0  0  0  0  0  0  0  0  0  0  0
   -1.9470    2.3017    2.7111 H   0  0  0  0  0  0  0  0  0  0  0  0
   -1.7881    1.9913   -2.1723 H   0  0  0  0  0  0  0  0  0  0  0  0
   -2.3781    2.1633   -0.5417 H   0  0  0  0  0  0  0  0  0  0  0  0
   -3.0513   -0.0108   -3.6065 H   0  0  0  0  0  0  0  0  0  0  0  0
   -5.3211   -0.5332   -4.4056 H   0  0  0  0  0  0  0  0  0  0  0  0
   -7.3051    0.3088   -3.1819 H   0  0  0  0  0  0  0  0  0  0  0  0
   -7.0095    1.6847   -1.1396 H   0  0  0  0  0  0  0  0  0  0  0  0
   -4.7511    2.2184   -0.3165 H   0  0  0  0  0  0  0  0  0  0  0  0
    2.0863   -1.3946   -0.3945 H   0  0  0  0  0  0  0  0  0  0  0  0
    4.0674    0.6598    0.3324 H   0  0  0  0  0  0  0  0  0  0  0  0
    5.8862   -3.0715    2.1847 H   0  0  0  0  0  0  0  0  0  0  0  0
    8.0121   -2.6894    3.3783 H   0  0  0  0  0  0  0  0  0  0  0  0
    8.9687   -0.4047    3.5236 H   0  0  0  0  0  0  0  0  0  0  0  0
    7.8074    1.4957    2.4707 H   0  0  0  0  0  0  0  0  0  0  0  0
    6.1042    2.1549    1.2318 H   0  0  0  0  0  0  0  0  0  0  0  0
  1  2  2  0
  2  3  1  0
  3  4  1  0
  4  5  1  0
  5  6  2  0
  6  7  1  0
  7  8  2  0
  8  9  1  0
  9 10  2  0
 10 11  1  0
 11 12  2  0
 12 13  1  0
 13 14  2  0
 14 15  1  0
  8 16  1  0
 16 17  1  0
 17 18  1  0
 18 19  2  0
 19 20  1  0
 20 21  2  0
 21 22  1  0
 22 23  2  0
  2 24  1  0
 24 25  1  0
 25 26  1  0
 26 27  2  0
 26 28  1  0
 28 29  2  0
 29 30  1  0
 30 31  2  0
 31 32  1  0
 32 33  2  0
 33 34  1  0
 16  5  1  0
 23 18  1  0
 33 28  1  0
 14  9  1  0
  3 35  1  0
  3 36  1  0
 10 37  1  0
 11 38  1  0
 12 39  1  0
 13 40  1  0
 15 41  1  0
 17 42  1  0
 17 43  1  0
 19 44  1  0
 20 45  1  0
 21 46  1  0
 22 47  1  0
 23 48  1  0
 24 49  1  0
 25 50  1  0
 29 51  1  0
 30 52  1  0
 31 53  1  0
 32 54  1  0
 34 55  1  0
M  END
$$$$
