
     RDKit          3D

 57 60  0  0  0  0  0  0  0  0999 V2000
    7.5397   -0.9131    2.4309 C   0  0  0  0  0  0  0  0  0  0  0  0
    7.8315   -0.1764    1.1350 C   0  0  0  0  0  0  0  0  0  0  0  0
    6.8877   -0.5300    0.1257 O   0  0  0  0  0  0  0  0  0  0  0  0
    5.7332    0.1912    0.0209 C   0  0  0  0  0  0  0  0  0  0  0  0
    4.9279   -0.1587   -1.0637 C   0  0  0  0  0  0  0  0  0  0  0  0
    3.7134    0.4952   -1.2936 C   0  0  0  0  0  0  0  0  0  0  0  0
    3.2820    1.5135   -0.4377 C   0  0  0  0  0  0  0  0  0  0  0  0
    2.0482    2.1228   -0.7340 N   0  0  0  0  0  0  0  0  0  0  0  0
    1.4066    3.1360   -0.0432 C   0  0  0  0  0  0  0  0  0  0  0  0
    1.8616    3.7388    0.9275 O   0  0  0  0  0  0  0  0  0  0  0  0
    0.0770    3.5776   -0.6486 C   0  0  0  0  0  0  0  0  0  0  0  0
   -0.7852    2.2863   -1.5997 S   0  0  0  0  0  0  0  0  0  0  0  0
   -1.3373    1.2402   -0.3274 C   0  0  0  0  0  0  0  0  0  0  0  0
   -1.1054    1.4476    0.9465 N   0  0  0  0  0  0  0  0  0  0  0  0
   -1.5661    0.3666    1.6396 N   0  0  0  0  0  0  0  0  0  0  0  0
   -2.0921   -0.4865    0.7801 C   0  0  0  0  0  0  0  0  0  0  0  0
   -2.8716   -1.6967    1.1794 C   0  0  0  0  0  0  0  0  0  0  0  0
   -4.3455   -1.5378    0.9462 C   0  0  0  0  0  0  0  0  0  0  0  0
   -5.1575   -2.1765    0.0239 C   0  0  0  0  0  0  0  0  0  0  0  0
   -6.4709   -1.6814    0.1823 C   0  0  0  0  0  0  0  0  0  0  0  0
   -6.4378   -0.7591    1.2019 C   0  0  0  0  0  0  0  0  0  0  0  0
   -5.1506   -0.6814    1.6697 N   0  0  0  0  0  0  0  0  0  0  0  0
   -4.7360    0.1893    2.7510 C   0  0  0  0  0  0  0  0  0  0  0  0
   -1.9435    0.0076   -0.5116 N   0  0  0  0  0  0  0  0  0  0  0  0
   -2.3270   -0.6163   -1.7272 C   0  0  0  0  0  0  0  0  0  0  0  0
   -3.0334    0.1080   -2.6985 C   0  0  0  0  0  0  0  0  0  0  0  0
   -3.4165   -0.5155   -3.8876 C   0  0  0  0  0  0  0  0  0  0  0  0
   -3.0896   -1.8491   -4.1020 C   0  0  0  0  0  0  0  0  0  0  0  0
   -3.4574   -2.4433   -5.2441 F   0  0  0  0  0  0  0  0  0  0  0  0
   -2.3841   -2.5752   -3.1494 C   0  0  0  0  0  0  0  0  0  0  0  0
   -1.9999   -1.9607   -1.9560 C   0  0  0  0  0  0  0  0  0  0  0  0
    4.0853    1.8581    0.6491 C   0  0  0  0  0  0  0  0  0  0  0  0
    5.3030    1.2001    0.8787 C   0  0  0  0  0  0  0  0  0  0  0  0
    7.5000   -1.9929    2.2558 H   0  0  0  0  0  0  0  0  0  0  0  0
    8.3147   -0.7037    3.1741 H   0  0  0  0  0  0  0  0  0  0  0  0
    6.5704   -0.6232    2.8479 H   0  0  0  0  0  0  0  0  0  0  0  0
    7.9106    0.9064    1.2790 H   0  0  0  0  0  0  0  0  0  0  0  0
    8.8113   -0.5020    0.7677 H   0  0  0  0  0  0  0  0  0  0  0  0
    5.2501   -0.9484   -1.7382 H   0  0  0  0  0  0  0  0  0  0  0  0
    3.1182    0.1945   -2.1511 H   0  0  0  0  0  0  0  0  0  0  0  0
    1.5449    1.7512   -1.5309 H   0  0  0  0  0  0  0  0  0  0  0  0
   -0.5767    3.9472    0.1478 H   0  0  0  0  0  0  0  0  0  0  0  0
    0.2888    4.4107   -1.3267 H   0  0  0  0  0  0  0  0  0  0  0  0
   -2.7009   -1.8937    2.2453 H   0  0  0  0  0  0  0  0  0  0  0  0
   -2.5013   -2.5895    0.6680 H   0  0  0  0  0  0  0  0  0  0  0  0
   -4.8367   -2.9192   -0.6957 H   0  0  0  0  0  0  0  0  0  0  0  0
   -7.3477   -1.9665   -0.3845 H   0  0  0  0  0  0  0  0  0  0  0  0
   -7.2276   -0.1563    1.6316 H   0  0  0  0  0  0  0  0  0  0  0  0
   -4.2514    1.0660    2.3160 H   0  0  0  0  0  0  0  0  0  0  0  0
   -4.0538   -0.3536    3.4082 H   0  0  0  0  0  0  0  0  0  0  0  0
   -5.6159    0.4964    3.3228 H   0  0  0  0  0  0  0  0  0  0  0  0
   -3.3362    1.1400   -2.5347 H   0  0  0  0  0  0  0  0  0  0  0  0
   -3.9762    0.0278   -4.6431 H   0  0  0  0  0  0  0  0  0  0  0  0
   -2.1324   -3.6128   -3.3466 H   0  0  0  0  0  0  0  0  0  0  0  0
   -1.4125   -2.5361   -1.2449 H   0  0  0  0  0  0  0  0  0  0  0  0
    3.7925    2.6338    1.3500 H   0  0  0  0  0  0  0  0  0  0  0  0
    5.8782    1.5033    1.7467 H   0  0  0  0  0  0  0  0  0  0  0  0
  1  2  1  0
  2  3  1  0
  3  4  1  0
  4  5  2  0
  5  6  1  0
  6  7  2  0
  7  8  1  0
  8  9  1  0
  9 10  2  0
  9 11  1  0
 11 12  1  0
 12 13  1  0
 13 14  2  0
 14 15  1  0
 15 16  2  0
 16 17  1  0
 17 18  1  0
 18 19  2  0
 19 20  1  0
 20 21  2  0
 21 22  1  0
 22 23  1  0
 16 24  1  0
 24 25  1  0
 25 26  2  0
 26 27  1  0
 27 28  2  0
 28 29  1  0
 28 30  1  0
 30 31  2  0
  7 32  1  0
 32 33  2  0
 33  4  1  0
 24 13  1  0
 31 25  1  0
 22 18  1  0
  1 34  1  0
  1 35  1  0
  1 36  1  0
  2 37  1  0
  2 38  1  0
  5 39  1  0
  6 40  1  0
  8 41  1  0
 11 42  1  0
 11 43  1  0
 17 44  1  0
 17 45  1  0
 19 46  1  0
 20 47  1  0
 21 48  1  0
 23 49  1  0
 23 50  1  0
 23 51  1  0
 26 52  1  0
 27 53  1  0
 30 54  1  0
 31 55  1  0
 32 56  1  0
 33 57  1  0
M  END
$$$$
