
     RDKit          3D

 34 34  0  0  0  0  0  0  0  0999 V2000
    6.1495   -0.3694   -1.1984 C   0  0  0  0  0  0  0  0  0  0  0  0
    5.3766    0.1364    0.0090 C   0  0  0  0  0  0  0  0  0  0  0  0
    3.8803   -0.1273   -0.1342 C   0  0  0  0  0  0  0  0  0  0  0  0
    3.1032    0.3775    1.0779 C   0  0  0  0  0  0  0  0  0  0  0  0
    1.7086    0.0654    0.9315 O   0  0  0  0  0  0  0  0  0  0  0  0
    0.9690    0.9791    0.2541 C   0  0  0  0  0  0  0  0  0  0  0  0
    1.3839    2.0184   -0.2332 O   0  0  0  0  0  0  0  0  0  0  0  0
   -0.4518    0.5423    0.1726 C   0  0  0  0  0  0  0  0  0  0  0  0
   -1.3638    1.3692   -0.4924 C   0  0  0  0  0  0  0  0  0  0  0  0
   -2.7123    1.0042   -0.5978 C   0  0  0  0  0  0  0  0  0  0  0  0
   -3.1689   -0.1912   -0.0407 C   0  0  0  0  0  0  0  0  0  0  0  0
   -4.5067   -0.6317   -0.1032 N   0  0  0  0  0  0  0  0  0  0  0  0
   -5.5794    0.0144   -0.6917 C   0  0  0  0  0  0  0  0  0  0  0  0
   -6.8620   -0.7679   -0.5535 C   0  0  0  0  0  0  0  0  0  0  0  0
   -5.5681    1.1043   -1.2517 O   0  0  0  0  0  0  0  0  0  0  0  0
   -2.2541   -1.0185    0.6240 C   0  0  0  0  0  0  0  0  0  0  0  0
   -0.9055   -0.6573    0.7317 C   0  0  0  0  0  0  0  0  0  0  0  0
    7.2186   -0.1705   -1.0747 H   0  0  0  0  0  0  0  0  0  0  0  0
    5.8152    0.1277   -2.1146 H   0  0  0  0  0  0  0  0  0  0  0  0
    6.0172   -1.4487   -1.3249 H   0  0  0  0  0  0  0  0  0  0  0  0
    5.7571   -0.3559    0.9115 H   0  0  0  0  0  0  0  0  0  0  0  0
    5.5555    1.2116    0.1259 H   0  0  0  0  0  0  0  0  0  0  0  0
    3.6937   -1.2010   -0.2613 H   0  0  0  0  0  0  0  0  0  0  0  0
    3.4997    0.3520   -1.0443 H   0  0  0  0  0  0  0  0  0  0  0  0
    3.4474   -0.1333    1.9837 H   0  0  0  0  0  0  0  0  0  0  0  0
    3.2527    1.4517    1.2405 H   0  0  0  0  0  0  0  0  0  0  0  0
   -1.0336    2.3074   -0.9359 H   0  0  0  0  0  0  0  0  0  0  0  0
   -3.3779    1.6814   -1.1249 H   0  0  0  0  0  0  0  0  0  0  0  0
   -4.7021   -1.5195    0.3418 H   0  0  0  0  0  0  0  0  0  0  0  0
   -7.3070   -0.5639    0.4239 H   0  0  0  0  0  0  0  0  0  0  0  0
   -6.6789   -1.8412   -0.6583 H   0  0  0  0  0  0  0  0  0  0  0  0
   -7.5586   -0.4651   -1.3405 H   0  0  0  0  0  0  0  0  0  0  0  0
   -2.5741   -1.9573    1.0695 H   0  0  0  0  0  0  0  0  0  0  0  0
   -0.2235   -1.3234    1.2545 H   0  0  0  0  0  0  0  0  0  0  0  0
  1  2  1  0
  2  3  1  0
  3  4  1  0
  4  5  1  0
  5  6  1  0
  6  7  2  0
  6  8  1  0
  8  9  2  0
  9 10  1  0
 10 11  2  0
 11 12  1  0
 12 13  1  0
 13 14  1  0
 13 15  2  0
 11 16  1  0
 16 17  2  0
 17  8  1  0
  1 18  1  0
  1 19  1  0
  1 20  1  0
  2 21  1  0
  2 22  1  0
  3 23  1  0
  3 24  1  0
  4 25  1  0
  4 26  1  0
  9 27  1  0
 10 28  1  0
 12 29  1  0
 14 30  1  0
 14 31  1  0
 14 32  1  0
 16 33  1  0
 17 34  1  0
M  END
$$$$
