
     RDKit          3D

 53 52  0  0  0  0  0  0  0  0999 V2000
   -8.2611    0.0387   -0.8991 C   0  0  0  0  0  0  0  0  0  0  0  0
   -7.3039    1.2154   -1.1216 C   0  0  0  0  0  0  0  0  0  0  0  0
   -7.9537    2.5081   -0.6284 C   0  0  0  0  0  0  0  0  0  0  0  0
   -5.9565    0.9353   -0.4316 C   0  0  0  0  0  0  0  0  0  0  0  0
   -4.8870    1.9851   -0.7360 C   0  0  0  0  0  0  0  0  0  0  0  0
   -3.6114    1.6206   -0.1470 N   0  0  0  0  0  0  0  0  0  0  0  0
   -2.6233    2.5718    0.0104 C   0  0  0  0  0  0  0  0  0  0  0  0
   -2.7862    3.7691   -0.2117 O   0  0  0  0  0  0  0  0  0  0  0  0
   -1.3058    2.0215    0.5148 C   0  0  0  0  0  0  0  0  0  0  0  0
   -0.1844    2.2927   -0.4779 C   0  0  0  0  0  0  0  0  0  0  0  0
   -0.2107    1.1128   -1.8765 S   0  0  0  0  0  0  0  0  0  0  0  0
    0.7580   -0.2600   -1.1567 C   0  0  0  0  0  0  0  0  0  0  0  0
    2.2564    0.0102   -1.2589 C   0  0  0  0  0  0  0  0  0  0  0  0
    3.0541   -1.1429   -0.6879 C   0  0  0  0  0  0  0  0  0  0  0  0
    2.5426   -2.1230   -0.1583 O   0  0  0  0  0  0  0  0  0  0  0  0
    4.4165   -0.9689   -0.8212 N   0  0  0  0  0  0  0  0  0  0  0  0
    5.3668   -1.9442   -0.3239 C   0  0  0  0  0  0  0  0  0  0  0  0
    5.6274   -1.7676    1.1744 C   0  0  0  0  0  0  0  0  0  0  0  0
    6.5529   -2.8487    1.7625 C   0  0  0  0  0  0  0  0  0  0  0  0
    6.6197   -2.7049    3.2866 C   0  0  0  0  0  0  0  0  0  0  0  0
    7.9639   -2.7894    1.1761 C   0  0  0  0  0  0  0  0  0  0  0  0
   -7.8465   -0.8838   -1.3200 H   0  0  0  0  0  0  0  0  0  0  0  0
   -8.4488   -0.1291    0.1686 H   0  0  0  0  0  0  0  0  0  0  0  0
   -9.2236    0.2209   -1.3900 H   0  0  0  0  0  0  0  0  0  0  0  0
   -7.1330    1.3087   -2.2023 H   0  0  0  0  0  0  0  0  0  0  0  0
   -8.0948    2.4945    0.4588 H   0  0  0  0  0  0  0  0  0  0  0  0
   -7.3446    3.3832   -0.8826 H   0  0  0  0  0  0  0  0  0  0  0  0
   -8.9356    2.6507   -1.0949 H   0  0  0  0  0  0  0  0  0  0  0  0
   -6.0990    0.8648    0.6558 H   0  0  0  0  0  0  0  0  0  0  0  0
   -5.5877   -0.0464   -0.7557 H   0  0  0  0  0  0  0  0  0  0  0  0
   -4.7319    2.0783   -1.8174 H   0  0  0  0  0  0  0  0  0  0  0  0
   -5.1787    2.9664   -0.3489 H   0  0  0  0  0  0  0  0  0  0  0  0
   -3.3019    0.6635   -0.2791 H   0  0  0  0  0  0  0  0  0  0  0  0
   -1.3847    0.9592    0.7704 H   0  0  0  0  0  0  0  0  0  0  0  0
   -1.0947    2.5496    1.4532 H   0  0  0  0  0  0  0  0  0  0  0  0
   -0.2675    3.3000   -0.8979 H   0  0  0  0  0  0  0  0  0  0  0  0
    0.7852    2.2349    0.0253 H   0  0  0  0  0  0  0  0  0  0  0  0
    0.4427   -0.4365   -0.1210 H   0  0  0  0  0  0  0  0  0  0  0  0
    0.5064   -1.1639   -1.7252 H   0  0  0  0  0  0  0  0  0  0  0  0
    2.5366    0.9164   -0.7075 H   0  0  0  0  0  0  0  0  0  0  0  0
    2.5493    0.1365   -2.3110 H   0  0  0  0  0  0  0  0  0  0  0  0
    4.7722   -0.0929   -1.1849 H   0  0  0  0  0  0  0  0  0  0  0  0
    4.9793   -2.9500   -0.5303 H   0  0  0  0  0  0  0  0  0  0  0  0
    6.2859   -1.8034   -0.9029 H   0  0  0  0  0  0  0  0  0  0  0  0
    4.6689   -1.7926    1.7090 H   0  0  0  0  0  0  0  0  0  0  0  0
    6.0513   -0.7696    1.3564 H   0  0  0  0  0  0  0  0  0  0  0  0
    6.1270   -3.8363    1.5389 H   0  0  0  0  0  0  0  0  0  0  0  0
    7.2544   -3.4832    3.7252 H   0  0  0  0  0  0  0  0  0  0  0  0
    7.0284   -1.7303    3.5776 H   0  0  0  0  0  0  0  0  0  0  0  0
    5.6234   -2.8009    3.7300 H   0  0  0  0  0  0  0  0  0  0  0  0
    8.4216   -1.8076    1.3408 H   0  0  0  0  0  0  0  0  0  0  0  0
    8.6079   -3.5442    1.6415 H   0  0  0  0  0  0  0  0  0  0  0  0
    7.9584   -2.9885    0.0996 H   0  0  0  0  0  0  0  0  0  0  0  0
  1  2  1  0
  2  3  1  0
  2  4  1  0
  4  5  1  0
  5  6  1  0
  6  7  1  0
  7  8  2  0
  7  9  1  0
  9 10  1  0
 10 11  1  0
 11 12  1  0
 12 13  1  0
 13 14  1  0
 14 15  2  0
 14 16  1  0
 16 17  1  0
 17 18  1  0
 18 19  1  0
 19 20  1  0
 19 21  1  0
  1 22  1  0
  1 23  1  0
  1 24  1  0
  2 25  1  0
  3 26  1  0
  3 27  1  0
  3 28  1  0
  4 29  1  0
  4 30  1  0
  5 31  1  0
  5 32  1  0
  6 33  1  0
  9 34  1  0
  9 35  1  0
 10 36  1  0
 10 37  1  0
 12 38  1  0
 12 39  1  0
 13 40  1  0
 13 41  1  0
 16 42  1  0
 17 43  1  0
 17 44  1  0
 18 45  1  0
 18 46  1  0
 19 47  1  0
 20 48  1  0
 20 49  1  0
 20 50  1  0
 21 51  1  0
 21 52  1  0
 21 53  1  0
M  END
$$$$
