
     RDKit          3D

 48 51  0  0  0  0  0  0  0  0999 V2000
   -1.5042    2.5171   -1.6810 C   0  0  0  0  0  0  0  0  0  0  0  0
   -0.9433    2.8258   -0.3043 C   0  0  0  0  0  0  0  0  0  0  0  0
   -0.9299    1.6715    0.5649 N   0  0  0  0  0  0  0  0  0  0  0  0
   -1.9078    1.3052    1.4525 C   0  0  0  0  0  0  0  0  0  0  0  0
   -3.4006    2.1491    1.6688 S   0  0  0  0  0  0  0  0  0  0  0  0
   -4.5117    0.7682    2.0851 C   0  0  0  0  0  0  0  0  0  0  0  0
   -4.9557    0.0026    0.8615 C   0  0  0  0  0  0  0  0  0  0  0  0
   -4.2444   -1.1312    0.4328 C   0  0  0  0  0  0  0  0  0  0  0  0
   -4.6424   -1.8237   -0.7110 C   0  0  0  0  0  0  0  0  0  0  0  0
   -5.7518   -1.3889   -1.4260 C   0  0  0  0  0  0  0  0  0  0  0  0
   -6.1340   -2.0566   -2.5253 F   0  0  0  0  0  0  0  0  0  0  0  0
   -6.4705   -0.2711   -1.0208 C   0  0  0  0  0  0  0  0  0  0  0  0
   -6.0701    0.4294    0.1194 C   0  0  0  0  0  0  0  0  0  0  0  0
   -1.5404    0.2279    2.1003 N   0  0  0  0  0  0  0  0  0  0  0  0
   -0.3267   -0.1592    1.6014 N   0  0  0  0  0  0  0  0  0  0  0  0
    0.0367    0.6938    0.6618 C   0  0  0  0  0  0  0  0  0  0  0  0
    1.3705    0.5206   -0.1282 C   0  0  0  0  0  0  0  0  0  0  0  0
    1.9464    1.3216   -1.1187 C   0  0  0  0  0  0  0  0  0  0  0  0
    3.1089    0.8373   -1.5484 N   0  0  0  0  0  0  0  0  0  0  0  0
    3.3695   -0.2178   -0.7213 N   0  0  0  0  0  0  0  0  0  0  0  0
    4.7013   -0.7317   -0.6833 C   0  0  0  0  0  0  0  0  0  0  0  0
    5.2076   -1.4061    0.4331 C   0  0  0  0  0  0  0  0  0  0  0  0
    6.5308   -1.8604    0.4397 C   0  0  0  0  0  0  0  0  0  0  0  0
    7.3585   -1.6396   -0.6579 C   0  0  0  0  0  0  0  0  0  0  0  0
    6.8692   -0.9558   -1.7657 C   0  0  0  0  0  0  0  0  0  0  0  0
    5.5519   -0.4924   -1.7757 C   0  0  0  0  0  0  0  0  0  0  0  0
    2.2395   -0.5525   -0.0007 C   0  0  0  0  0  0  0  0  0  0  0  0
    2.0695   -1.8480    0.6752 C   0  0  0  0  0  0  0  0  0  0  0  0
    0.8015   -2.3196    0.5868 F   0  0  0  0  0  0  0  0  0  0  0  0
    2.3897   -1.7812    1.9900 F   0  0  0  0  0  0  0  0  0  0  0  0
    2.8414   -2.8254    0.1328 F   0  0  0  0  0  0  0  0  0  0  0  0
   -1.4790    3.4145   -2.3075 H   0  0  0  0  0  0  0  0  0  0  0  0
   -2.5442    2.1748   -1.6188 H   0  0  0  0  0  0  0  0  0  0  0  0
   -0.9279    1.7348   -2.1843 H   0  0  0  0  0  0  0  0  0  0  0  0
    0.0741    3.2190   -0.3677 H   0  0  0  0  0  0  0  0  0  0  0  0
   -1.5301    3.6185    0.1709 H   0  0  0  0  0  0  0  0  0  0  0  0
   -4.0517    0.0985    2.8215 H   0  0  0  0  0  0  0  0  0  0  0  0
   -5.3932    1.1902    2.5813 H   0  0  0  0  0  0  0  0  0  0  0  0
   -3.3727   -1.4786    0.9872 H   0  0  0  0  0  0  0  0  0  0  0  0
   -4.0946   -2.6980   -1.0467 H   0  0  0  0  0  0  0  0  0  0  0  0
   -7.3338    0.0493   -1.5958 H   0  0  0  0  0  0  0  0  0  0  0  0
   -6.6329    1.3079    0.4279 H   0  0  0  0  0  0  0  0  0  0  0  0
    1.5898    2.2329   -1.5777 H   0  0  0  0  0  0  0  0  0  0  0  0
    4.6237   -1.5647    1.3334 H   0  0  0  0  0  0  0  0  0  0  0  0
    6.9193   -2.3808    1.3112 H   0  0  0  0  0  0  0  0  0  0  0  0
    8.3858   -1.9939   -0.6469 H   0  0  0  0  0  0  0  0  0  0  0  0
    7.5119   -0.7780   -2.6237 H   0  0  0  0  0  0  0  0  0  0  0  0
    5.1961    0.0445   -2.6539 H   0  0  0  0  0  0  0  0  0  0  0  0
  1  2  1  0
  2  3  1  0
  3  4  1  0
  4  5  1  0
  5  6  1  0
  6  7  1  0
  7  8  2  0
  8  9  1  0
  9 10  2  0
 10 11  1  0
 10 12  1  0
 12 13  2  0
  4 14  2  0
 14 15  1  0
 15 16  2  0
 16 17  1  0
 17 18  1  0
 18 19  2  0
 19 20  1  0
 20 21  1  0
 21 22  2  0
 22 23  1  0
 23 24  2  0
 24 25  1  0
 25 26  2  0
 20 27  1  0
 27 28  1  0
 28 29  1  0
 28 30  1  0
 28 31  1  0
 16  3  1  0
 27 17  2  0
 13  7  1  0
 26 21  1  0
  1 32  1  0
  1 33  1  0
  1 34  1  0
  2 35  1  0
  2 36  1  0
  6 37  1  0
  6 38  1  0
  8 39  1  0
  9 40  1  0
 12 41  1  0
 13 42  1  0
 18 43  1  0
 22 44  1  0
 23 45  1  0
 24 46  1  0
 25 47  1  0
 26 48  1  0
M  END
$$$$
