
     RDKit          3D

 47 51  0  0  0  0  0  0  0  0999 V2000
   -1.5098   -2.5950   -1.7355 C   0  0  0  0  0  0  0  0  0  0  0  0
   -2.1285   -1.3321   -1.2223 C   0  0  0  0  0  0  0  0  0  0  0  0
   -3.3200   -0.9902   -1.6459 N   0  0  0  0  0  0  0  0  0  0  0  0
   -3.8550    0.1676   -1.1537 C   0  0  0  0  0  0  0  0  0  0  0  0
   -5.3974    0.7358   -1.6252 S   0  0  0  0  0  0  0  0  0  0  0  0
   -5.2663    2.1127   -0.6214 C   0  0  0  0  0  0  0  0  0  0  0  0
   -4.0763    2.1584    0.0837 C   0  0  0  0  0  0  0  0  0  0  0  0
   -3.2868    1.0366   -0.2463 C   0  0  0  0  0  0  0  0  0  0  0  0
   -1.8960    0.5964    0.2163 C   0  0  0  0  0  0  0  0  0  0  0  0
   -1.0695    1.1655    1.0548 N   0  0  0  0  0  0  0  0  0  0  0  0
    0.0420    0.3624    1.1141 N   0  0  0  0  0  0  0  0  0  0  0  0
   -0.1448   -0.6671    0.3111 C   0  0  0  0  0  0  0  0  0  0  0  0
    1.0261   -1.9170    0.0758 S   0  0  0  0  0  0  0  0  0  0  0  0
    2.2082   -1.5197    1.3974 C   0  0  0  0  0  0  0  0  0  0  0  0
    3.3317   -2.5386    1.3782 C   0  0  0  0  0  0  0  0  0  0  0  0
    3.2325   -3.6427    1.9083 O   0  0  0  0  0  0  0  0  0  0  0  0
    4.4579   -2.1379    0.6960 N   0  0  0  0  0  0  0  0  0  0  0  0
    5.6443   -2.9613    0.6857 C   0  0  0  0  0  0  0  0  0  0  0  0
    6.5889   -2.4183   -0.3190 C   0  0  0  0  0  0  0  0  0  0  0  0
    7.1747   -2.9441   -1.4519 C   0  0  0  0  0  0  0  0  0  0  0  0
    7.9880   -1.9199   -1.9939 C   0  0  0  0  0  0  0  0  0  0  0  0
    7.8464   -0.8355   -1.1606 C   0  0  0  0  0  0  0  0  0  0  0  0
    6.9969   -1.1258   -0.1419 O   0  0  0  0  0  0  0  0  0  0  0  0
   -1.3786   -0.5739   -0.2980 N   0  0  0  0  0  0  0  0  0  0  0  0
   -3.7372    3.2799    1.0152 C   0  0  0  0  0  0  0  0  0  0  0  0
   -4.9801    4.1090    1.3794 C   0  0  0  0  0  0  0  0  0  0  0  0
   -5.8461    4.4114    0.1469 C   0  0  0  0  0  0  0  0  0  0  0  0
   -6.3647    3.1255   -0.5175 C   0  0  0  0  0  0  0  0  0  0  0  0
   -0.5904   -2.3757   -2.2836 H   0  0  0  0  0  0  0  0  0  0  0  0
   -2.1979   -3.0850   -2.4327 H   0  0  0  0  0  0  0  0  0  0  0  0
   -1.3246   -3.2922   -0.9149 H   0  0  0  0  0  0  0  0  0  0  0  0
    1.7227   -1.5617    2.3779 H   0  0  0  0  0  0  0  0  0  0  0  0
    2.6125   -0.5119    1.2573 H   0  0  0  0  0  0  0  0  0  0  0  0
    4.5790   -1.1621    0.4529 H   0  0  0  0  0  0  0  0  0  0  0  0
    5.3668   -3.9953    0.4558 H   0  0  0  0  0  0  0  0  0  0  0  0
    6.0873   -2.9374    1.6867 H   0  0  0  0  0  0  0  0  0  0  0  0
    7.0305   -3.9440   -1.8378 H   0  0  0  0  0  0  0  0  0  0  0  0
    8.6024   -1.9652   -2.8821 H   0  0  0  0  0  0  0  0  0  0  0  0
    8.2602    0.1634   -1.1545 H   0  0  0  0  0  0  0  0  0  0  0  0
   -2.9993    3.9283    0.5268 H   0  0  0  0  0  0  0  0  0  0  0  0
   -3.2794    2.8931    1.9324 H   0  0  0  0  0  0  0  0  0  0  0  0
   -4.6675    5.0446    1.8565 H   0  0  0  0  0  0  0  0  0  0  0  0
   -5.5838    3.5608    2.1141 H   0  0  0  0  0  0  0  0  0  0  0  0
   -6.6955    5.0424    0.4319 H   0  0  0  0  0  0  0  0  0  0  0  0
   -5.2507    4.9837   -0.5762 H   0  0  0  0  0  0  0  0  0  0  0  0
   -7.1775    2.7066    0.0884 H   0  0  0  0  0  0  0  0  0  0  0  0
   -6.7754    3.3657   -1.5047 H   0  0  0  0  0  0  0  0  0  0  0  0
  1  2  1  0
  2  3  2  0
  3  4  1  0
  4  5  1  0
  5  6  1  0
  6  7  2  0
  7  8  1  0
  8  9  1  0
  9 10  2  0
 10 11  1  0
 11 12  2  0
 12 13  1  0
 13 14  1  0
 14 15  1  0
 15 16  2  0
 15 17  1  0
 17 18  1  0
 18 19  1  0
 19 20  2  0
 20 21  1  0
 21 22  2  0
 22 23  1  0
 12 24  1  0
  7 25  1  0
 25 26  1  0
 26 27  1  0
 27 28  1  0
 24  2  1  0
  8  4  2  0
 24  9  1  0
 28  6  1  0
 23 19  1  0
  1 29  1  0
  1 30  1  0
  1 31  1  0
 14 32  1  0
 14 33  1  0
 17 34  1  0
 18 35  1  0
 18 36  1  0
 20 37  1  0
 21 38  1  0
 22 39  1  0
 25 40  1  0
 25 41  1  0
 26 42  1  0
 26 43  1  0
 27 44  1  0
 27 45  1  0
 28 46  1  0
 28 47  1  0
M  END
$$$$
