
     RDKit          3D

 58 62  0  0  0  0  0  0  0  0999 V2000
    8.5988   -1.3064    1.9044 C   0  0  0  0  0  0  0  0  0  0  0  0
    7.4894   -1.1432    2.7823 O   0  0  0  0  0  0  0  0  0  0  0  0
    6.2954   -0.7803    2.2184 C   0  0  0  0  0  0  0  0  0  0  0  0
    5.2449   -0.6339    3.1295 C   0  0  0  0  0  0  0  0  0  0  0  0
    3.9687   -0.2721    2.6966 C   0  0  0  0  0  0  0  0  0  0  0  0
    3.7190   -0.0452    1.3447 C   0  0  0  0  0  0  0  0  0  0  0  0
    2.4137    0.3055    0.9567 N   0  0  0  0  0  0  0  0  0  0  0  0
    2.1193    0.5290   -0.3036 C   0  0  0  0  0  0  0  0  0  0  0  0
    0.7966    0.8361   -0.6256 N   0  0  0  0  0  0  0  0  0  0  0  0
   -0.1289    1.2096    0.4562 C   0  0  0  0  0  0  0  0  0  0  0  0
   -1.4230    1.8581   -0.0857 C   0  0  0  0  0  0  0  0  0  0  0  0
   -2.0713    1.1463   -1.1995 N   0  0  0  0  0  0  0  0  0  0  0  0
   -3.5195    0.9802   -1.0600 C   0  0  0  0  0  0  0  0  0  0  0  0
   -3.9899   -0.0595   -0.0230 C   0  0  0  0  0  0  0  0  0  0  0  0
   -5.5012   -0.0651    0.1165 C   0  0  0  0  0  0  0  0  0  0  0  0
   -6.0889    0.8810    0.9757 C   0  0  0  0  0  0  0  0  0  0  0  0
   -7.4724    0.9458    1.1340 C   0  0  0  0  0  0  0  0  0  0  0  0
   -8.2928    0.0694    0.4358 C   0  0  0  0  0  0  0  0  0  0  0  0
   -7.7291   -0.8747   -0.4211 C   0  0  0  0  0  0  0  0  0  0  0  0
   -6.3332   -0.9571   -0.5986 C   0  0  0  0  0  0  0  0  0  0  0  0
   -5.7762   -2.0128   -1.5300 C   0  0  0  0  0  0  0  0  0  0  0  0
   -6.7327   -2.6623   -2.2515 F   0  0  0  0  0  0  0  0  0  0  0  0
   -5.0934   -2.9859   -0.8672 F   0  0  0  0  0  0  0  0  0  0  0  0
   -4.9085   -1.5081   -2.4511 F   0  0  0  0  0  0  0  0  0  0  0  0
   -1.3425   -0.0624   -1.5942 C   0  0  0  0  0  0  0  0  0  0  0  0
    0.1583    0.2343   -1.8114 C   0  0  0  0  0  0  0  0  0  0  0  0
    3.1941    0.4466   -1.2849 C   0  0  0  0  0  0  0  0  0  0  0  0
    3.2401    0.7369   -2.6379 C   0  0  0  0  0  0  0  0  0  0  0  0
    4.5493    0.4642   -3.0972 C   0  0  0  0  0  0  0  0  0  0  0  0
    5.2825    0.0449   -2.0103 C   0  0  0  0  0  0  0  0  0  0  0  0
    4.4662    0.0732   -0.9039 N   0  0  0  0  0  0  0  0  0  0  0  0
    4.7779   -0.1910    0.4401 C   0  0  0  0  0  0  0  0  0  0  0  0
    6.0627   -0.5570    0.8609 C   0  0  0  0  0  0  0  0  0  0  0  0
    8.4274   -2.1275    1.2024 H   0  0  0  0  0  0  0  0  0  0  0  0
    8.8286   -0.3754    1.3762 H   0  0  0  0  0  0  0  0  0  0  0  0
    9.4683   -1.5672    2.5098 H   0  0  0  0  0  0  0  0  0  0  0  0
    5.4212   -0.8066    4.1880 H   0  0  0  0  0  0  0  0  0  0  0  0
    3.1623   -0.1670    3.4161 H   0  0  0  0  0  0  0  0  0  0  0  0
    0.3508    1.9265    1.1290 H   0  0  0  0  0  0  0  0  0  0  0  0
   -0.3811    0.3200    1.0450 H   0  0  0  0  0  0  0  0  0  0  0  0
   -1.1734    2.8607   -0.4527 H   0  0  0  0  0  0  0  0  0  0  0  0
   -2.1092    2.0056    0.7578 H   0  0  0  0  0  0  0  0  0  0  0  0
   -3.9586    1.9609   -0.8284 H   0  0  0  0  0  0  0  0  0  0  0  0
   -3.9316    0.7215   -2.0438 H   0  0  0  0  0  0  0  0  0  0  0  0
   -3.5485    0.1533    0.9615 H   0  0  0  0  0  0  0  0  0  0  0  0
   -3.6380   -1.0633   -0.2863 H   0  0  0  0  0  0  0  0  0  0  0  0
   -5.4648    1.5793    1.5305 H   0  0  0  0  0  0  0  0  0  0  0  0
   -7.9089    1.6822    1.8032 H   0  0  0  0  0  0  0  0  0  0  0  0
   -9.3724    0.1186    0.5579 H   0  0  0  0  0  0  0  0  0  0  0  0
   -8.3911   -1.5535   -0.9572 H   0  0  0  0  0  0  0  0  0  0  0  0
   -1.7572   -0.4588   -2.5280 H   0  0  0  0  0  0  0  0  0  0  0  0
   -1.4398   -0.8470   -0.8326 H   0  0  0  0  0  0  0  0  0  0  0  0
    0.6542   -0.7076   -2.0752 H   0  0  0  0  0  0  0  0  0  0  0  0
    0.2612    0.9232   -2.6571 H   0  0  0  0  0  0  0  0  0  0  0  0
    2.4237    1.1127   -3.2386 H   0  0  0  0  0  0  0  0  0  0  0  0
    4.9206    0.5739   -4.1080 H   0  0  0  0  0  0  0  0  0  0  0  0
    6.3200   -0.2455   -1.9478 H   0  0  0  0  0  0  0  0  0  0  0  0
    6.8631   -0.6633    0.1405 H   0  0  0  0  0  0  0  0  0  0  0  0
  1  2  1  0
  2  3  1  0
  3  4  2  0
  4  5  1  0
  5  6  2  0
  6  7  1  0
  7  8  2  0
  8  9  1  0
  9 10  1  0
 10 11  1  0
 11 12  1  0
 12 13  1  0
 13 14  1  0
 14 15  1  0
 15 16  2  0
 16 17  1  0
 17 18  2  0
 18 19  1  0
 19 20  2  0
 20 21  1  0
 21 22  1  0
 21 23  1  0
 21 24  1  0
 12 25  1  0
 25 26  1  0
  8 27  1  0
 27 28  2  0
 28 29  1  0
 29 30  2  0
 30 31  1  0
 31 32  1  0
 32 33  2  0
 33  3  1  0
 32  6  1  0
 26  9  1  0
 31 27  1  0
 20 15  1  0
  1 34  1  0
  1 35  1  0
  1 36  1  0
  4 37  1  0
  5 38  1  0
 10 39  1  0
 10 40  1  0
 11 41  1  0
 11 42  1  0
 13 43  1  0
 13 44  1  0
 14 45  1  0
 14 46  1  0
 16 47  1  0
 17 48  1  0
 18 49  1  0
 19 50  1  0
 25 51  1  0
 25 52  1  0
 26 53  1  0
 26 54  1  0
 28 55  1  0
 29 56  1  0
 30 57  1  0
 33 58  1  0
M  END
$$$$
