
     RDKit          3D

 51 54  0  0  0  0  0  0  0  0999 V2000
   -3.7871   -4.3924    2.2475 C   0  0  0  0  0  0  0  0  0  0  0  0
   -2.3929   -4.3996    1.9710 O   0  0  0  0  0  0  0  0  0  0  0  0
   -1.7940   -3.1927    1.7338 C   0  0  0  0  0  0  0  0  0  0  0  0
   -2.4588   -1.9765    1.6068 C   0  0  0  0  0  0  0  0  0  0  0  0
   -1.7341   -0.7912    1.3751 C   0  0  0  0  0  0  0  0  0  0  0  0
   -2.4679    0.4765    1.2296 C   0  0  0  0  0  0  0  0  0  0  0  0
   -3.6818    0.4861    1.4228 O   0  0  0  0  0  0  0  0  0  0  0  0
   -1.7213    1.5950    0.8974 N   0  0  0  0  0  0  0  0  0  0  0  0
   -2.4428    2.8291    0.6208 C   0  0  0  0  0  0  0  0  0  0  0  0
   -2.6369    2.9688   -0.8497 C   0  0  0  0  0  0  0  0  0  0  0  0
   -1.8459    3.4630   -1.8668 C   0  0  0  0  0  0  0  0  0  0  0  0
   -2.5902    3.3139   -3.0606 C   0  0  0  0  0  0  0  0  0  0  0  0
   -3.7862    2.7423   -2.6970 C   0  0  0  0  0  0  0  0  0  0  0  0
   -3.8252    2.5322   -1.3575 O   0  0  0  0  0  0  0  0  0  0  0  0
   -0.3381    1.6327    0.8418 C   0  0  0  0  0  0  0  0  0  0  0  0
    0.2785    2.6759    0.6052 O   0  0  0  0  0  0  0  0  0  0  0  0
    0.3393    0.4411    1.0809 N   0  0  0  0  0  0  0  0  0  0  0  0
    1.8015    0.4986    1.0145 C   0  0  0  0  0  0  0  0  0  0  0  0
    2.2935    0.2786   -0.4150 C   0  0  0  0  0  0  0  0  0  0  0  0
    1.7472   -0.5051   -1.1914 O   0  0  0  0  0  0  0  0  0  0  0  0
    3.4996    1.0212   -0.8815 C   0  0  0  0  0  0  0  0  0  0  0  0
    4.4515    1.5359    0.0079 C   0  0  0  0  0  0  0  0  0  0  0  0
    5.5629    2.2284   -0.4803 C   0  0  0  0  0  0  0  0  0  0  0  0
    5.7314    2.4045   -1.8538 C   0  0  0  0  0  0  0  0  0  0  0  0
    4.7914    1.8789   -2.7378 C   0  0  0  0  0  0  0  0  0  0  0  0
    5.0264    2.1089   -4.5996 Br  0  0  0  0  0  0  0  0  0  0  0  0
    3.6803    1.1856   -2.2613 C   0  0  0  0  0  0  0  0  0  0  0  0
   -0.3429   -0.7892    1.2810 C   0  0  0  0  0  0  0  0  0  0  0  0
    0.3196   -2.0170    1.3930 C   0  0  0  0  0  0  0  0  0  0  0  0
   -0.4014   -3.2001    1.5960 C   0  0  0  0  0  0  0  0  0  0  0  0
    0.3177   -4.3628    1.7277 O   0  0  0  0  0  0  0  0  0  0  0  0
    0.3599   -5.0560    0.4800 C   0  0  0  0  0  0  0  0  0  0  0  0
   -4.0163   -3.7716    3.1199 H   0  0  0  0  0  0  0  0  0  0  0  0
   -4.0859   -5.4184    2.4819 H   0  0  0  0  0  0  0  0  0  0  0  0
   -4.3592   -4.0711    1.3715 H   0  0  0  0  0  0  0  0  0  0  0  0
   -3.5414   -1.9156    1.6769 H   0  0  0  0  0  0  0  0  0  0  0  0
   -3.4127    2.8361    1.1291 H   0  0  0  0  0  0  0  0  0  0  0  0
   -1.8789    3.6877    1.0018 H   0  0  0  0  0  0  0  0  0  0  0  0
   -0.8502    3.8711   -1.7543 H   0  0  0  0  0  0  0  0  0  0  0  0
   -2.2920    3.5859   -4.0624 H   0  0  0  0  0  0  0  0  0  0  0  0
   -4.6680    2.4368   -3.2421 H   0  0  0  0  0  0  0  0  0  0  0  0
    2.1192    1.4844    1.3694 H   0  0  0  0  0  0  0  0  0  0  0  0
    2.2627   -0.2307    1.6860 H   0  0  0  0  0  0  0  0  0  0  0  0
    4.3626    1.4051    1.0826 H   0  0  0  0  0  0  0  0  0  0  0  0
    6.3002    2.6320    0.2105 H   0  0  0  0  0  0  0  0  0  0  0  0
    6.5964    2.9486   -2.2228 H   0  0  0  0  0  0  0  0  0  0  0  0
    2.9503    0.7783   -2.9581 H   0  0  0  0  0  0  0  0  0  0  0  0
    1.3959   -2.1067    1.3014 H   0  0  0  0  0  0  0  0  0  0  0  0
    0.8136   -6.0360    0.6595 H   0  0  0  0  0  0  0  0  0  0  0  0
    0.9898   -4.5147   -0.2342 H   0  0  0  0  0  0  0  0  0  0  0  0
   -0.6392   -5.2158    0.0559 H   0  0  0  0  0  0  0  0  0  0  0  0
  1  2  1  0
  2  3  1  0
  3  4  2  0
  4  5  1  0
  5  6  1  0
  6  7  2  0
  6  8  1  0
  8  9  1  0
  9 10  1  0
 10 11  2  0
 11 12  1  0
 12 13  2  0
 13 14  1  0
  8 15  1  0
 15 16  2  0
 15 17  1  0
 17 18  1  0
 18 19  1  0
 19 20  2  0
 19 21  1  0
 21 22  2  0
 22 23  1  0
 23 24  2  0
 24 25  1  0
 25 26  1  0
 25 27  2  0
 17 28  1  0
 28 29  1  0
 29 30  2  0
 30 31  1  0
 31 32  1  0
 30  3  1  0
 28  5  2  0
 14 10  1  0
 27 21  1  0
  1 33  1  0
  1 34  1  0
  1 35  1  0
  4 36  1  0
  9 37  1  0
  9 38  1  0
 11 39  1  0
 12 40  1  0
 13 41  1  0
 18 42  1  0
 18 43  1  0
 22 44  1  0
 23 45  1  0
 24 46  1  0
 27 47  1  0
 29 48  1  0
 32 49  1  0
 32 50  1  0
 32 51  1  0
M  END
$$$$
