
     RDKit          3D

 45 47  0  0  0  0  0  0  0  0999 V2000
    8.5774    1.8606    0.4243 C   0  0  0  0  0  0  0  0  0  0  0  0
    7.8166    0.8633    1.2842 C   0  0  0  0  0  0  0  0  0  0  0  0
    6.3256    0.7811    0.9496 C   0  0  0  0  0  0  0  0  0  0  0  0
    6.0492    0.2317   -0.4520 C   0  0  0  0  0  0  0  0  0  0  0  0
    4.5820    0.0830   -0.6948 C   0  0  0  0  0  0  0  0  0  0  0  0
    3.7882    1.0542   -1.0957 N   0  0  0  0  0  0  0  0  0  0  0  0
    2.4791    0.6313   -1.2395 N   0  0  0  0  0  0  0  0  0  0  0  0
    2.3424   -0.6359   -0.9422 C   0  0  0  0  0  0  0  0  0  0  0  0
    1.2342   -1.4379   -0.9422 N   0  0  0  0  0  0  0  0  0  0  0  0
   -0.0060   -0.9719   -1.3372 C   0  0  0  0  0  0  0  0  0  0  0  0
   -0.2568    0.1586   -1.7379 O   0  0  0  0  0  0  0  0  0  0  0  0
   -1.0891   -2.0535   -1.1911 C   0  0  0  0  0  0  0  0  0  0  0  0
   -2.3345   -1.7948   -1.8170 O   0  0  0  0  0  0  0  0  0  0  0  0
   -3.2946   -1.1785   -1.0658 C   0  0  0  0  0  0  0  0  0  0  0  0
   -3.0573   -0.2899   -0.0175 C   0  0  0  0  0  0  0  0  0  0  0  0
   -4.1286    0.3000    0.6708 C   0  0  0  0  0  0  0  0  0  0  0  0
   -5.4532    0.0163    0.3192 C   0  0  0  0  0  0  0  0  0  0  0  0
   -6.6190    0.6008    0.9952 C   0  0  0  0  0  0  0  0  0  0  0  0
   -6.4306    1.5594    2.1333 C   0  0  0  0  0  0  0  0  0  0  0  0
   -7.8416    0.2556    0.5654 C   0  0  0  0  0  0  0  0  0  0  0  0
   -8.0784   -0.6779   -0.5467 C   0  0  0  0  0  0  0  0  0  0  0  0
   -9.2199   -0.9652   -0.8889 O   0  0  0  0  0  0  0  0  0  0  0  0
   -6.9615   -1.2056   -1.1694 O   0  0  0  0  0  0  0  0  0  0  0  0
   -5.6636   -0.8640   -0.7426 C   0  0  0  0  0  0  0  0  0  0  0  0
   -4.6079   -1.4536   -1.4394 C   0  0  0  0  0  0  0  0  0  0  0  0
    3.7805   -1.4220   -0.4603 S   0  0  0  0  0  0  0  0  0  0  0  0
    8.1201    2.8536    0.4760 H   0  0  0  0  0  0  0  0  0  0  0  0
    9.6115    1.9453    0.7739 H   0  0  0  0  0  0  0  0  0  0  0  0
    8.6074    1.5466   -0.6231 H   0  0  0  0  0  0  0  0  0  0  0  0
    8.2760   -0.1273    1.1877 H   0  0  0  0  0  0  0  0  0  0  0  0
    7.9205    1.1594    2.3350 H   0  0  0  0  0  0  0  0  0  0  0  0
    5.8435    0.1363    1.6959 H   0  0  0  0  0  0  0  0  0  0  0  0
    5.8689    1.7731    1.0592 H   0  0  0  0  0  0  0  0  0  0  0  0
    6.4531    0.9121   -1.2106 H   0  0  0  0  0  0  0  0  0  0  0  0
    6.5603   -0.7292   -0.5870 H   0  0  0  0  0  0  0  0  0  0  0  0
    1.3708   -2.3976   -0.6638 H   0  0  0  0  0  0  0  0  0  0  0  0
   -0.6988   -2.9600   -1.6705 H   0  0  0  0  0  0  0  0  0  0  0  0
   -1.2130   -2.2980   -0.1278 H   0  0  0  0  0  0  0  0  0  0  0  0
   -2.0501   -0.0022    0.2679 H   0  0  0  0  0  0  0  0  0  0  0  0
   -3.8960    0.9954    1.4734 H   0  0  0  0  0  0  0  0  0  0  0  0
   -7.3888    1.9082    2.5346 H   0  0  0  0  0  0  0  0  0  0  0  0
   -5.8891    1.0831    2.9576 H   0  0  0  0  0  0  0  0  0  0  0  0
   -5.8746    2.4452    1.8082 H   0  0  0  0  0  0  0  0  0  0  0  0
   -8.7431    0.6513    1.0196 H   0  0  0  0  0  0  0  0  0  0  0  0
   -4.8110   -2.1262   -2.2679 H   0  0  0  0  0  0  0  0  0  0  0  0
  1  2  1  0
  2  3  1  0
  3  4  1  0
  4  5  1  0
  5  6  2  0
  6  7  1  0
  7  8  2  0
  8  9  1  0
  9 10  1  0
 10 11  2  0
 10 12  1  0
 12 13  1  0
 13 14  1  0
 14 15  2  0
 15 16  1  0
 16 17  2  0
 17 18  1  0
 18 19  1  0
 18 20  2  0
 20 21  1  0
 21 22  2  0
 21 23  1  0
 23 24  1  0
 24 25  2  0
  8 26  1  0
 26  5  1  0
 25 14  1  0
 24 17  1  0
  1 27  1  0
  1 28  1  0
  1 29  1  0
  2 30  1  0
  2 31  1  0
  3 32  1  0
  3 33  1  0
  4 34  1  0
  4 35  1  0
  9 36  1  0
 12 37  1  0
 12 38  1  0
 15 39  1  0
 16 40  1  0
 19 41  1  0
 19 42  1  0
 19 43  1  0
 20 44  1  0
 25 45  1  0
M  END
$$$$
