
     RDKit          3D

 50 53  0  0  0  0  0  0  0  0999 V2000
   -1.7690    1.5631    5.3194 C   0  0  0  0  0  0  0  0  0  0  0  0
   -1.1592    0.8238    4.1383 C   0  0  0  0  0  0  0  0  0  0  0  0
   -1.5141    1.4641    2.8040 C   0  0  0  0  0  0  0  0  0  0  0  0
   -2.2581    2.4464    2.7595 O   0  0  0  0  0  0  0  0  0  0  0  0
   -0.9881    0.8861    1.6494 N   0  0  0  0  0  0  0  0  0  0  0  0
   -1.3886    1.4660    0.3607 C   0  0  0  0  0  0  0  0  0  0  0  0
   -2.3527    0.5931   -0.4112 C   0  0  0  0  0  0  0  0  0  0  0  0
   -3.5896    0.2342    0.1415 C   0  0  0  0  0  0  0  0  0  0  0  0
   -4.4815   -0.5697   -0.5718 C   0  0  0  0  0  0  0  0  0  0  0  0
   -4.1537   -1.0307   -1.8513 C   0  0  0  0  0  0  0  0  0  0  0  0
   -5.1283   -1.8616   -2.6318 C   0  0  0  0  0  0  0  0  0  0  0  0
   -2.9332   -0.6485   -2.4187 C   0  0  0  0  0  0  0  0  0  0  0  0
   -2.0407    0.1558   -1.7055 C   0  0  0  0  0  0  0  0  0  0  0  0
   -0.2094   -0.3616    1.6393 C   0  0  0  0  0  0  0  0  0  0  0  0
    1.0849   -0.2159    0.8928 C   0  0  0  0  0  0  0  0  0  0  0  0
    1.3008   -0.7594   -0.3190 C   0  0  0  0  0  0  0  0  0  0  0  0
    2.5789   -0.5876   -1.0085 C   0  0  0  0  0  0  0  0  0  0  0  0
    2.7949   -1.1278   -2.2810 C   0  0  0  0  0  0  0  0  0  0  0  0
    4.0265   -0.9130   -2.8645 C   0  0  0  0  0  0  0  0  0  0  0  0
    5.0185   -0.1972   -2.2331 C   0  0  0  0  0  0  0  0  0  0  0  0
    4.8407    0.3480   -0.9797 C   0  0  0  0  0  0  0  0  0  0  0  0
    3.6020    0.1454   -0.3686 C   0  0  0  0  0  0  0  0  0  0  0  0
    3.3635    0.6689    0.9067 N   0  0  0  0  0  0  0  0  0  0  0  0
    2.1862    0.5146    1.5891 C   0  0  0  0  0  0  0  0  0  0  0  0
    2.0563    0.9513    2.7281 O   0  0  0  0  0  0  0  0  0  0  0  0
    6.1490   -0.1065   -2.9837 O   0  0  0  0  0  0  0  0  0  0  0  0
    5.7560   -0.8424   -4.1615 C   0  0  0  0  0  0  0  0  0  0  0  0
    4.4106   -1.3599   -4.0901 O   0  0  0  0  0  0  0  0  0  0  0  0
   -1.4904    1.0752    6.2585 H   0  0  0  0  0  0  0  0  0  0  0  0
   -1.4206    2.6006    5.3564 H   0  0  0  0  0  0  0  0  0  0  0  0
   -2.8620    1.5773    5.2532 H   0  0  0  0  0  0  0  0  0  0  0  0
   -1.5311   -0.2062    4.1440 H   0  0  0  0  0  0  0  0  0  0  0  0
   -0.0722    0.8196    4.2571 H   0  0  0  0  0  0  0  0  0  0  0  0
   -1.8549    2.4489    0.4943 H   0  0  0  0  0  0  0  0  0  0  0  0
   -0.4803    1.6534   -0.2228 H   0  0  0  0  0  0  0  0  0  0  0  0
   -3.8688    0.5910    1.1317 H   0  0  0  0  0  0  0  0  0  0  0  0
   -5.4380   -0.8272   -0.1221 H   0  0  0  0  0  0  0  0  0  0  0  0
   -4.6044   -2.5422   -3.3112 H   0  0  0  0  0  0  0  0  0  0  0  0
   -5.7874   -1.2137   -3.2183 H   0  0  0  0  0  0  0  0  0  0  0  0
   -5.7394   -2.4773   -1.9636 H   0  0  0  0  0  0  0  0  0  0  0  0
   -2.6728   -0.9692   -3.4249 H   0  0  0  0  0  0  0  0  0  0  0  0
   -1.1028    0.4461   -2.1739 H   0  0  0  0  0  0  0  0  0  0  0  0
    0.0014   -0.7231    2.6481 H   0  0  0  0  0  0  0  0  0  0  0  0
   -0.8412   -1.1339    1.1838 H   0  0  0  0  0  0  0  0  0  0  0  0
    0.5245   -1.3256   -0.8243 H   0  0  0  0  0  0  0  0  0  0  0  0
    2.0332   -1.6959   -2.8029 H   0  0  0  0  0  0  0  0  0  0  0  0
    5.6370    0.9064   -0.5031 H   0  0  0  0  0  0  0  0  0  0  0  0
    4.0890    1.1772    1.3949 H   0  0  0  0  0  0  0  0  0  0  0  0
    5.8308   -0.1787   -5.0307 H   0  0  0  0  0  0  0  0  0  0  0  0
    6.4478   -1.6816   -4.2983 H   0  0  0  0  0  0  0  0  0  0  0  0
  1  2  1  0
  2  3  1  0
  3  4  2  0
  3  5  1  0
  5  6  1  0
  6  7  1  0
  7  8  2  0
  8  9  1  0
  9 10  2  0
 10 11  1  0
 10 12  1  0
 12 13  2  0
  5 14  1  0
 14 15  1  0
 15 16  2  0
 16 17  1  0
 17 18  2  0
 18 19  1  0
 19 20  2  0
 20 21  1  0
 21 22  2  0
 22 23  1  0
 23 24  1  0
 24 25  2  0
 20 26  1  0
 26 27  1  0
 27 28  1  0
 13  7  1  0
 24 15  1  0
 22 17  1  0
 28 19  1  0
  1 29  1  0
  1 30  1  0
  1 31  1  0
  2 32  1  0
  2 33  1  0
  6 34  1  0
  6 35  1  0
  8 36  1  0
  9 37  1  0
 11 38  1  0
 11 39  1  0
 11 40  1  0
 12 41  1  0
 13 42  1  0
 14 43  1  0
 14 44  1  0
 16 45  1  0
 18 46  1  0
 21 47  1  0
 23 48  1  0
 27 49  1  0
 27 50  1  0
M  END
$$$$
