
     RDKit          3D

 47 48  0  0  0  0  0  0  0  0999 V2000
    4.7326    1.2102    2.7842 C   0  0  0  0  0  0  0  0  0  0  0  0
    4.0473    0.9040    1.4661 C   0  0  0  0  0  0  0  0  0  0  0  0
    2.6224    0.9716    1.6232 O   0  0  0  0  0  0  0  0  0  0  0  0
    2.0688    2.2003    1.4580 C   0  0  0  0  0  0  0  0  0  0  0  0
    2.6589    3.2399    1.2119 O   0  0  0  0  0  0  0  0  0  0  0  0
    0.6152    2.1091    1.6639 C   0  0  0  0  0  0  0  0  0  0  0  0
    0.1177    2.7254    2.8428 C   0  0  0  0  0  0  0  0  0  0  0  0
   -0.3150    3.2041    3.8078 N   0  0  0  0  0  0  0  0  0  0  0  0
   -0.2169    1.4639    0.8245 C   0  0  0  0  0  0  0  0  0  0  0  0
    0.0507    0.8078   -0.4599 C   0  0  0  0  0  0  0  0  0  0  0  0
   -0.7140   -0.2339   -0.8893 C   0  0  0  0  0  0  0  0  0  0  0  0
   -1.6923   -0.7950   -0.0346 N   0  0  0  0  0  0  0  0  0  0  0  0
   -3.0782   -1.0675   -0.4714 C   0  0  0  0  0  0  0  0  0  0  0  0
   -4.0192   -1.0976    0.7440 C   0  0  0  0  0  0  0  0  0  0  0  0
   -3.5958   -2.0677    1.7145 O   0  0  0  0  0  0  0  0  0  0  0  0
   -2.2723   -1.7555    2.1777 C   0  0  0  0  0  0  0  0  0  0  0  0
   -1.2623   -1.7517    1.0218 C   0  0  0  0  0  0  0  0  0  0  0  0
   -0.4572   -0.8743   -2.2921 C   0  0  0  0  0  0  0  0  0  0  0  0
   -1.5955   -0.6109   -3.2926 C   0  0  0  0  0  0  0  0  0  0  0  0
   -0.2215   -2.3888   -2.1827 C   0  0  0  0  0  0  0  0  0  0  0  0
    0.7645   -0.3850   -2.8968 O   0  0  0  0  0  0  0  0  0  0  0  0
    0.9160    1.0243   -2.8025 C   0  0  0  0  0  0  0  0  0  0  0  0
    1.1231    1.3969   -1.3461 C   0  0  0  0  0  0  0  0  0  0  0  0
    4.5068    2.2283    3.1170 H   0  0  0  0  0  0  0  0  0  0  0  0
    4.3780    0.5330    3.5682 H   0  0  0  0  0  0  0  0  0  0  0  0
    5.8172    1.1055    2.6912 H   0  0  0  0  0  0  0  0  0  0  0  0
    4.3921    1.5734    0.6696 H   0  0  0  0  0  0  0  0  0  0  0  0
    4.2866   -0.1178    1.1540 H   0  0  0  0  0  0  0  0  0  0  0  0
   -1.2672    1.4047    1.1214 H   0  0  0  0  0  0  0  0  0  0  0  0
   -3.4227   -0.2865   -1.1573 H   0  0  0  0  0  0  0  0  0  0  0  0
   -3.1162   -2.0355   -0.9827 H   0  0  0  0  0  0  0  0  0  0  0  0
   -5.0302   -1.3683    0.4237 H   0  0  0  0  0  0  0  0  0  0  0  0
   -4.0724   -0.1132    1.2245 H   0  0  0  0  0  0  0  0  0  0  0  0
   -1.9914   -2.5145    2.9145 H   0  0  0  0  0  0  0  0  0  0  0  0
   -2.2924   -0.7847    2.6872 H   0  0  0  0  0  0  0  0  0  0  0  0
   -0.2704   -1.4915    1.4079 H   0  0  0  0  0  0  0  0  0  0  0  0
   -1.2030   -2.7557    0.5860 H   0  0  0  0  0  0  0  0  0  0  0  0
   -1.2607   -0.7996   -4.3197 H   0  0  0  0  0  0  0  0  0  0  0  0
   -1.9286    0.4322   -3.2575 H   0  0  0  0  0  0  0  0  0  0  0  0
   -2.4673   -1.2451   -3.1104 H   0  0  0  0  0  0  0  0  0  0  0  0
    0.0800   -2.8057   -3.1514 H   0  0  0  0  0  0  0  0  0  0  0  0
    0.5978   -2.6063   -1.4871 H   0  0  0  0  0  0  0  0  0  0  0  0
   -1.1109   -2.9309   -1.8493 H   0  0  0  0  0  0  0  0  0  0  0  0
    0.0583    1.5437   -3.2436 H   0  0  0  0  0  0  0  0  0  0  0  0
    1.7988    1.3069   -3.3855 H   0  0  0  0  0  0  0  0  0  0  0  0
    1.1460    2.4900   -1.2703 H   0  0  0  0  0  0  0  0  0  0  0  0
    2.0952    1.0079   -1.0228 H   0  0  0  0  0  0  0  0  0  0  0  0
  1  2  1  0
  2  3  1  0
  3  4  1  0
  4  5  2  0
  4  6  1  0
  6  7  1  0
  7  8  3  0
  6  9  2  3
  9 10  1  0
 10 11  2  0
 11 12  1  0
 12 13  1  0
 13 14  1  0
 14 15  1  0
 15 16  1  0
 16 17  1  0
 11 18  1  0
 18 19  1  0
 18 20  1  0
 18 21  1  0
 21 22  1  0
 22 23  1  0
 23 10  1  0
 17 12  1  0
  1 24  1  0
  1 25  1  0
  1 26  1  0
  2 27  1  0
  2 28  1  0
  9 29  1  0
 13 30  1  0
 13 31  1  0
 14 32  1  0
 14 33  1  0
 16 34  1  0
 16 35  1  0
 17 36  1  0
 17 37  1  0
 19 38  1  0
 19 39  1  0
 19 40  1  0
 20 41  1  0
 20 42  1  0
 20 43  1  0
 22 44  1  0
 22 45  1  0
 23 46  1  0
 23 47  1  0
M  END
$$$$
