
     RDKit          3D

 33 33  0  0  0  0  0  0  0  0999 V2000
   -1.4746    2.6063   -1.4557 C   0  0  0  0  0  0  0  0  0  0  0  0
   -2.0979    1.6608   -0.4594 C   0  0  0  0  0  0  0  0  0  0  0  0
   -2.9746    2.0460    0.3075 O   0  0  0  0  0  0  0  0  0  0  0  0
   -1.5481    0.3970   -0.5191 N   0  0  0  0  0  0  0  0  0  0  0  0
   -1.8786   -0.7343    0.2581 C   0  0  0  0  0  0  0  0  0  0  0  0
   -2.8962   -0.7483    1.2135 C   0  0  0  0  0  0  0  0  0  0  0  0
   -3.1799   -1.9153    1.9338 C   0  0  0  0  0  0  0  0  0  0  0  0
   -2.4556   -3.0835    1.7018 C   0  0  0  0  0  0  0  0  0  0  0  0
   -1.4363   -3.0871    0.7539 C   0  0  0  0  0  0  0  0  0  0  0  0
   -1.1414   -1.9141    0.0549 C   0  0  0  0  0  0  0  0  0  0  0  0
   -0.1433   -1.9567   -0.8869 O   0  0  0  0  0  0  0  0  0  0  0  0
    1.1311   -1.6959   -0.2972 C   0  0  0  0  0  0  0  0  0  0  0  0
    1.7056   -0.3761   -0.8156 C   0  0  0  0  0  0  0  0  0  0  0  0
    1.0959    0.3750   -1.5741 O   0  0  0  0  0  0  0  0  0  0  0  0
    2.9771   -0.0915   -0.3585 N   0  0  0  0  0  0  0  0  0  0  0  0
    3.5964    1.2027   -0.6597 C   0  0  0  0  0  0  0  0  0  0  0  0
    3.1499    2.3618    0.2370 C   0  0  0  0  0  0  0  0  0  0  0  0
    3.8320    3.4891   -0.0664 F   0  0  0  0  0  0  0  0  0  0  0  0
    1.8343    2.6299    0.1246 F   0  0  0  0  0  0  0  0  0  0  0  0
    3.4038    2.0722    1.5362 F   0  0  0  0  0  0  0  0  0  0  0  0
   -2.1798    3.4114   -1.6814 H   0  0  0  0  0  0  0  0  0  0  0  0
   -1.2397    2.0912   -2.3916 H   0  0  0  0  0  0  0  0  0  0  0  0
   -0.5623    3.0316   -1.0302 H   0  0  0  0  0  0  0  0  0  0  0  0
   -0.7871    0.2618   -1.1866 H   0  0  0  0  0  0  0  0  0  0  0  0
   -3.4978    0.1322    1.4168 H   0  0  0  0  0  0  0  0  0  0  0  0
   -3.9807   -1.9082    2.6698 H   0  0  0  0  0  0  0  0  0  0  0  0
   -2.6935   -3.9893    2.2532 H   0  0  0  0  0  0  0  0  0  0  0  0
   -0.8809   -3.9986    0.5553 H   0  0  0  0  0  0  0  0  0  0  0  0
    1.8057   -2.5037   -0.6013 H   0  0  0  0  0  0  0  0  0  0  0  0
    1.1058   -1.6609    0.8002 H   0  0  0  0  0  0  0  0  0  0  0  0
    3.3419   -0.6184    0.4272 H   0  0  0  0  0  0  0  0  0  0  0  0
    3.3922    1.4538   -1.7061 H   0  0  0  0  0  0  0  0  0  0  0  0
    4.6766    1.0592   -0.5541 H   0  0  0  0  0  0  0  0  0  0  0  0
  1  2  1  0
  2  3  2  0
  2  4  1  0
  4  5  1  0
  5  6  2  0
  6  7  1  0
  7  8  2  0
  8  9  1  0
  9 10  2  0
 10 11  1  0
 11 12  1  0
 12 13  1  0
 13 14  2  0
 13 15  1  0
 15 16  1  0
 16 17  1  0
 17 18  1  0
 17 19  1  0
 17 20  1  0
 10  5  1  0
  1 21  1  0
  1 22  1  0
  1 23  1  0
  4 24  1  0
  6 25  1  0
  7 26  1  0
  8 27  1  0
  9 28  1  0
 12 29  1  0
 12 30  1  0
 15 31  1  0
 16 32  1  0
 16 33  1  0
M  END
$$$$
