
     RDKit          3D

 48 50  0  0  0  0  0  0  0  0999 V2000
   -2.1565   -0.5354   -4.0269 C   0  0  0  0  0  0  0  0  0  0  0  0
   -3.2767   -0.0819   -3.2805 O   0  0  0  0  0  0  0  0  0  0  0  0
   -3.0624    0.2867   -1.9776 C   0  0  0  0  0  0  0  0  0  0  0  0
   -1.8955    0.0193   -1.2540 C   0  0  0  0  0  0  0  0  0  0  0  0
   -1.7697    0.4322    0.0822 C   0  0  0  0  0  0  0  0  0  0  0  0
   -0.5375    0.0952    0.8136 C   0  0  0  0  0  0  0  0  0  0  0  0
    0.2314    0.9487    1.5191 C   0  0  0  0  0  0  0  0  0  0  0  0
   -0.0459    2.3308    1.7005 C   0  0  0  0  0  0  0  0  0  0  0  0
   -0.2940    3.4592    1.8134 N   0  0  0  0  0  0  0  0  0  0  0  0
    1.4318    0.3984    2.2103 C   0  0  0  0  0  0  0  0  0  0  0  0
    1.5392    0.5300    3.4220 O   0  0  0  0  0  0  0  0  0  0  0  0
    2.3293   -0.1996    1.3417 N   0  0  0  0  0  0  0  0  0  0  0  0
    3.5478   -0.8591    1.6637 C   0  0  0  0  0  0  0  0  0  0  0  0
    3.9356   -1.0617    2.9926 C   0  0  0  0  0  0  0  0  0  0  0  0
    5.1205   -1.7248    3.2918 C   0  0  0  0  0  0  0  0  0  0  0  0
    5.9290   -2.1955    2.2629 C   0  0  0  0  0  0  0  0  0  0  0  0
    5.5898   -2.0199    0.9333 C   0  0  0  0  0  0  0  0  0  0  0  0
    6.4393   -2.5114    0.0148 N   0  0  0  0  0  0  0  0  0  0  0  0
    6.1430   -2.3492   -1.2885 C   0  0  0  0  0  0  0  0  0  0  0  0
    5.0108   -1.7059   -1.7339 C   0  0  0  0  0  0  0  0  0  0  0  0
    4.1305   -1.2011   -0.7808 C   0  0  0  0  0  0  0  0  0  0  0  0
    4.3885   -1.3429    0.6065 C   0  0  0  0  0  0  0  0  0  0  0  0
   -2.8343    1.1001    0.7018 C   0  0  0  0  0  0  0  0  0  0  0  0
   -3.9956    1.3964   -0.0153 C   0  0  0  0  0  0  0  0  0  0  0  0
   -5.0643    2.0517    0.5410 O   0  0  0  0  0  0  0  0  0  0  0  0
   -4.7078    3.1584    1.3665 C   0  0  0  0  0  0  0  0  0  0  0  0
   -4.1181    0.9581   -1.3405 C   0  0  0  0  0  0  0  0  0  0  0  0
   -5.2528    1.2664   -2.0558 O   0  0  0  0  0  0  0  0  0  0  0  0
   -6.2293    0.2413   -1.8785 C   0  0  0  0  0  0  0  0  0  0  0  0
   -2.4755   -0.6627   -5.0659 H   0  0  0  0  0  0  0  0  0  0  0  0
   -1.3447    0.1998   -4.0154 H   0  0  0  0  0  0  0  0  0  0  0  0
   -1.8130   -1.5091   -3.6629 H   0  0  0  0  0  0  0  0  0  0  0  0
   -1.0734   -0.5185   -1.7150 H   0  0  0  0  0  0  0  0  0  0  0  0
   -0.2642   -0.9582    0.7530 H   0  0  0  0  0  0  0  0  0  0  0  0
    2.1125   -0.1272    0.3592 H   0  0  0  0  0  0  0  0  0  0  0  0
    3.3358   -0.7214    3.8309 H   0  0  0  0  0  0  0  0  0  0  0  0
    5.4135   -1.8764    4.3278 H   0  0  0  0  0  0  0  0  0  0  0  0
    6.8539   -2.7142    2.5065 H   0  0  0  0  0  0  0  0  0  0  0  0
    6.8678   -2.7630   -1.9838 H   0  0  0  0  0  0  0  0  0  0  0  0
    4.8179   -1.5952   -2.7949 H   0  0  0  0  0  0  0  0  0  0  0  0
    3.2493   -0.6899   -1.1505 H   0  0  0  0  0  0  0  0  0  0  0  0
   -2.7684    1.3725    1.7513 H   0  0  0  0  0  0  0  0  0  0  0  0
   -4.4254    2.8168    2.3672 H   0  0  0  0  0  0  0  0  0  0  0  0
   -3.9087    3.7612    0.9201 H   0  0  0  0  0  0  0  0  0  0  0  0
   -5.5911    3.7960    1.4687 H   0  0  0  0  0  0  0  0  0  0  0  0
   -5.8597   -0.7280   -2.2310 H   0  0  0  0  0  0  0  0  0  0  0  0
   -7.1053    0.5071   -2.4780 H   0  0  0  0  0  0  0  0  0  0  0  0
   -6.5474    0.1678   -0.8330 H   0  0  0  0  0  0  0  0  0  0  0  0
  1  2  1  0
  2  3  1  0
  3  4  2  0
  4  5  1  0
  5  6  1  0
  6  7  2  3
  7  8  1  0
  8  9  3  0
  7 10  1  0
 10 11  2  0
 10 12  1  0
 12 13  1  0
 13 14  2  0
 14 15  1  0
 15 16  2  0
 16 17  1  0
 17 18  2  0
 18 19  1  0
 19 20  2  0
 20 21  1  0
 21 22  2  0
  5 23  2  0
 23 24  1  0
 24 25  1  0
 25 26  1  0
 24 27  2  0
 27 28  1  0
 28 29  1  0
 27  3  1  0
 22 13  1  0
 22 17  1  0
  1 30  1  0
  1 31  1  0
  1 32  1  0
  4 33  1  0
  6 34  1  0
 12 35  1  0
 14 36  1  0
 15 37  1  0
 16 38  1  0
 19 39  1  0
 20 40  1  0
 21 41  1  0
 23 42  1  0
 26 43  1  0
 26 44  1  0
 26 45  1  0
 29 46  1  0
 29 47  1  0
 29 48  1  0
M  END
$$$$
