
     RDKit          3D

 58 61  0  0  0  0  0  0  0  0999 V2000
   -4.5683    5.0526    0.0755 C   0  0  0  0  0  0  0  0  0  0  0  0
   -4.5046    3.6329    0.1218 O   0  0  0  0  0  0  0  0  0  0  0  0
   -3.4084    3.0822    0.7276 C   0  0  0  0  0  0  0  0  0  0  0  0
   -2.3438    3.7855    1.2916 C   0  0  0  0  0  0  0  0  0  0  0  0
   -1.2796    3.0953    1.8770 C   0  0  0  0  0  0  0  0  0  0  0  0
   -1.2755    1.7004    1.9017 C   0  0  0  0  0  0  0  0  0  0  0  0
   -2.3365    0.9799    1.3409 C   0  0  0  0  0  0  0  0  0  0  0  0
   -2.3209   -0.4885    1.3477 C   0  0  0  0  0  0  0  0  0  0  0  0
   -3.5328   -1.3106    2.2332 S   0  0  0  0  0  0  0  0  0  0  0  0
   -2.9030   -2.8572    1.8372 C   0  0  0  0  0  0  0  0  0  0  0  0
   -3.4153   -4.1058    2.2394 C   0  0  0  0  0  0  0  0  0  0  0  0
   -2.7751   -5.2769    1.8183 C   0  0  0  0  0  0  0  0  0  0  0  0
   -1.6485   -5.2152    1.0100 C   0  0  0  0  0  0  0  0  0  0  0  0
   -0.9395   -6.2842    0.5340 O   0  0  0  0  0  0  0  0  0  0  0  0
   -1.4162   -7.5789    0.8784 C   0  0  0  0  0  0  0  0  0  0  0  0
   -1.1497   -3.9671    0.6178 C   0  0  0  0  0  0  0  0  0  0  0  0
   -1.7691   -2.7579    1.0311 C   0  0  0  0  0  0  0  0  0  0  0  0
   -1.4351   -1.3767    0.7549 C   0  0  0  0  0  0  0  0  0  0  0  0
   -0.3061   -0.9167   -0.0487 C   0  0  0  0  0  0  0  0  0  0  0  0
   -0.5166   -0.2638   -1.2656 C   0  0  0  0  0  0  0  0  0  0  0  0
    0.5742    0.1795   -2.0171 C   0  0  0  0  0  0  0  0  0  0  0  0
    1.8830   -0.0240   -1.5700 C   0  0  0  0  0  0  0  0  0  0  0  0
    2.8441    0.4727   -2.4034 O   0  0  0  0  0  0  0  0  0  0  0  0
    4.2176    0.3626   -2.0293 C   0  0  0  0  0  0  0  0  0  0  0  0
    4.6711    1.4638   -1.0463 C   0  0  0  0  0  0  0  0  0  0  0  0
    4.7746    2.8538   -1.5307 N   0  0  0  0  0  0  0  0  0  0  0  0
    3.4810    3.4107   -1.9198 C   0  0  0  0  0  0  0  0  0  0  0  0
    5.7507    3.0115   -2.6043 C   0  0  0  0  0  0  0  0  0  0  0  0
    2.0927   -0.6853   -0.3605 C   0  0  0  0  0  0  0  0  0  0  0  0
    1.0027   -1.1305    0.3970 C   0  0  0  0  0  0  0  0  0  0  0  0
   -3.3983    1.6838    0.7551 C   0  0  0  0  0  0  0  0  0  0  0  0
   -3.7377    5.4662   -0.5060 H   0  0  0  0  0  0  0  0  0  0  0  0
   -5.4985    5.3291   -0.4303 H   0  0  0  0  0  0  0  0  0  0  0  0
   -4.5979    5.4798    1.0833 H   0  0  0  0  0  0  0  0  0  0  0  0
   -2.3089    4.8696    1.2912 H   0  0  0  0  0  0  0  0  0  0  0  0
   -0.4496    3.6456    2.3130 H   0  0  0  0  0  0  0  0  0  0  0  0
   -0.4384    1.1789    2.3601 H   0  0  0  0  0  0  0  0  0  0  0  0
   -4.2991   -4.1615    2.8692 H   0  0  0  0  0  0  0  0  0  0  0  0
   -3.1931   -6.2235    2.1451 H   0  0  0  0  0  0  0  0  0  0  0  0
   -0.7519   -8.3141    0.4141 H   0  0  0  0  0  0  0  0  0  0  0  0
   -1.3820   -7.7365    1.9615 H   0  0  0  0  0  0  0  0  0  0  0  0
   -2.4245   -7.7463    0.4854 H   0  0  0  0  0  0  0  0  0  0  0  0
   -0.2706   -3.9282   -0.0218 H   0  0  0  0  0  0  0  0  0  0  0  0
   -1.5245   -0.0912   -1.6354 H   0  0  0  0  0  0  0  0  0  0  0  0
    0.4008    0.6925   -2.9600 H   0  0  0  0  0  0  0  0  0  0  0  0
    4.8020    0.4256   -2.9535 H   0  0  0  0  0  0  0  0  0  0  0  0
    4.4389   -0.6341   -1.6293 H   0  0  0  0  0  0  0  0  0  0  0  0
    4.0116    1.4677   -0.1705 H   0  0  0  0  0  0  0  0  0  0  0  0
    5.6587    1.1774   -0.6621 H   0  0  0  0  0  0  0  0  0  0  0  0
    3.0852    2.9636   -2.8374 H   0  0  0  0  0  0  0  0  0  0  0  0
    3.5730    4.4896   -2.0891 H   0  0  0  0  0  0  0  0  0  0  0  0
    2.7431    3.2840   -1.1201 H   0  0  0  0  0  0  0  0  0  0  0  0
    5.9077    4.0743   -2.8206 H   0  0  0  0  0  0  0  0  0  0  0  0
    6.7243    2.6069   -2.3066 H   0  0  0  0  0  0  0  0  0  0  0  0
    5.4411    2.5220   -3.5337 H   0  0  0  0  0  0  0  0  0  0  0  0
    3.0862   -0.8698    0.0319 H   0  0  0  0  0  0  0  0  0  0  0  0
    1.1837   -1.6390    1.3417 H   0  0  0  0  0  0  0  0  0  0  0  0
   -4.2285    1.1435    0.3052 H   0  0  0  0  0  0  0  0  0  0  0  0
  1  2  1  0
  2  3  1  0
  3  4  2  0
  4  5  1  0
  5  6  2  0
  6  7  1  0
  7  8  1  0
  8  9  1  0
  9 10  1  0
 10 11  2  0
 11 12  1  0
 12 13  2  0
 13 14  1  0
 14 15  1  0
 13 16  1  0
 16 17  2  0
 17 18  1  0
 18 19  1  0
 19 20  2  0
 20 21  1  0
 21 22  2  0
 22 23  1  0
 23 24  1  0
 24 25  1  0
 25 26  1  0
 26 27  1  0
 26 28  1  0
 22 29  1  0
 29 30  2  0
  7 31  2  0
 31  3  1  0
 18  8  2  0
 30 19  1  0
 17 10  1  0
  1 32  1  0
  1 33  1  0
  1 34  1  0
  4 35  1  0
  5 36  1  0
  6 37  1  0
 11 38  1  0
 12 39  1  0
 15 40  1  0
 15 41  1  0
 15 42  1  0
 16 43  1  0
 20 44  1  0
 21 45  1  0
 24 46  1  0
 24 47  1  0
 25 48  1  0
 25 49  1  0
 27 50  1  0
 27 51  1  0
 27 52  1  0
 28 53  1  0
 28 54  1  0
 28 55  1  0
 29 56  1  0
 30 57  1  0
 31 58  1  0
M  END
$$$$
