
     RDKit          3D

 49 53  0  0  0  0  0  0  0  0999 V2000
   -6.6600   -0.3890   -0.1349 C   0  0  0  0  0  0  0  0  0  0  0  0
   -5.3053   -0.6984    0.4313 C   0  0  0  0  0  0  0  0  0  0  0  0
   -5.0689   -0.5950    1.8092 C   0  0  0  0  0  0  0  0  0  0  0  0
   -3.8028   -0.8603    2.3375 C   0  0  0  0  0  0  0  0  0  0  0  0
   -2.7535   -1.2191    1.4928 C   0  0  0  0  0  0  0  0  0  0  0  0
   -2.9788   -1.2952    0.1161 C   0  0  0  0  0  0  0  0  0  0  0  0
   -1.6613   -1.7613   -0.9703 S   0  0  0  0  0  6  0  0  0  0  0  0
   -2.2181   -2.5861   -2.0213 O   0  0  0  0  0  0  0  0  0  0  0  0
   -0.5340   -2.2423   -0.1938 O   0  0  0  0  0  0  0  0  0  0  0  0
   -1.1982   -0.3186   -1.6964 N   0  0  0  0  0  0  0  0  0  0  0  0
   -0.5286    0.5912   -0.8338 C   0  0  0  0  0  0  0  0  0  0  0  0
   -1.3465    1.5228   -0.3103 N   0  0  0  0  0  0  0  0  0  0  0  0
   -0.7681    2.4108    0.5152 C   0  0  0  0  0  0  0  0  0  0  0  0
   -1.5440    3.4050    1.0968 C   0  0  0  0  0  0  0  0  0  0  0  0
   -0.9858    4.3513    1.9571 C   0  0  0  0  0  0  0  0  0  0  0  0
    0.3730    4.3025    2.2407 C   0  0  0  0  0  0  0  0  0  0  0  0
    1.1625    3.3066    1.6636 C   0  0  0  0  0  0  0  0  0  0  0  0
    0.6189    2.3579    0.8072 C   0  0  0  0  0  0  0  0  0  0  0  0
    1.4164    1.4063    0.2825 N   0  0  0  0  0  0  0  0  0  0  0  0
    0.8457    0.4905   -0.5302 C   0  0  0  0  0  0  0  0  0  0  0  0
    1.5960   -0.5907   -1.0672 N   0  0  0  0  0  0  0  0  0  0  0  0
    3.0010   -0.7579   -1.0728 C   0  0  0  0  0  0  0  0  0  0  0  0
    3.8930    0.3356   -1.1356 C   0  0  0  0  0  0  0  0  0  0  0  0
    5.2788    0.1479   -1.2222 C   0  0  0  0  0  0  0  0  0  0  0  0
    5.7472   -1.1444   -1.2725 C   0  0  0  0  0  0  0  0  0  0  0  0
    4.8925   -2.2187   -1.2475 C   0  0  0  0  0  0  0  0  0  0  0  0
    3.5239   -2.0596   -1.1622 C   0  0  0  0  0  0  0  0  0  0  0  0
    5.5509   -3.4070   -1.3252 O   0  0  0  0  0  0  0  0  0  0  0  0
    6.9192   -2.9544   -1.3911 C   0  0  0  0  0  0  0  0  0  0  0  0
    7.0507   -1.5179   -1.3663 O   0  0  0  0  0  0  0  0  0  0  0  0
   -4.2466   -1.0418   -0.4184 C   0  0  0  0  0  0  0  0  0  0  0  0
   -6.7077    0.6604   -0.4408 H   0  0  0  0  0  0  0  0  0  0  0  0
   -7.4459   -0.5768    0.6042 H   0  0  0  0  0  0  0  0  0  0  0  0
   -6.8722   -1.0239   -1.0020 H   0  0  0  0  0  0  0  0  0  0  0  0
   -5.8750   -0.3106    2.4833 H   0  0  0  0  0  0  0  0  0  0  0  0
   -3.6366   -0.7854    3.4096 H   0  0  0  0  0  0  0  0  0  0  0  0
   -1.7721   -1.4261    1.9127 H   0  0  0  0  0  0  0  0  0  0  0  0
   -0.6928   -0.5124   -2.5592 H   0  0  0  0  0  0  0  0  0  0  0  0
   -2.6080    3.4419    0.8737 H   0  0  0  0  0  0  0  0  0  0  0  0
   -1.6124    5.1207    2.4015 H   0  0  0  0  0  0  0  0  0  0  0  0
    0.8210    5.0330    2.9100 H   0  0  0  0  0  0  0  0  0  0  0  0
    2.2258    3.2647    1.8897 H   0  0  0  0  0  0  0  0  0  0  0  0
    1.1297   -1.4572   -0.7728 H   0  0  0  0  0  0  0  0  0  0  0  0
    3.5119    1.3537   -1.1214 H   0  0  0  0  0  0  0  0  0  0  0  0
    5.9569    0.9925   -1.2582 H   0  0  0  0  0  0  0  0  0  0  0  0
    2.8796   -2.9323   -1.1599 H   0  0  0  0  0  0  0  0  0  0  0  0
    7.3683   -3.3313   -2.3173 H   0  0  0  0  0  0  0  0  0  0  0  0
    7.4681   -3.3719   -0.5390 H   0  0  0  0  0  0  0  0  0  0  0  0
   -4.4077   -1.1097   -1.4928 H   0  0  0  0  0  0  0  0  0  0  0  0
  1  2  1  0
  2  3  2  0
  3  4  1  0
  4  5  2  0
  5  6  1  0
  6  7  1  0
  7  8  2  0
  7  9  2  0
  7 10  1  0
 10 11  1  0
 11 12  2  0
 12 13  1  0
 13 14  2  0
 14 15  1  0
 15 16  2  0
 16 17  1  0
 17 18  2  0
 18 19  1  0
 19 20  2  0
 20 21  1  0
 21 22  1  0
 22 23  2  0
 23 24  1  0
 24 25  2  0
 25 26  1  0
 26 27  2  0
 26 28  1  0
 28 29  1  0
 29 30  1  0
  6 31  2  0
 31  2  1  0
 20 11  1  0
 27 22  1  0
 18 13  1  0
 30 25  1  0
  1 32  1  0
  1 33  1  0
  1 34  1  0
  3 35  1  0
  4 36  1  0
  5 37  1  0
 10 38  1  0
 14 39  1  0
 15 40  1  0
 16 41  1  0
 17 42  1  0
 21 43  1  0
 23 44  1  0
 24 45  1  0
 27 46  1  0
 29 47  1  0
 29 48  1  0
 31 49  1  0
M  END
$$$$
