
     RDKit          3D

 49 51  0  0  0  0  0  0  0  0999 V2000
    2.3788    1.9572    3.4382 C   0  0  0  0  0  0  0  0  0  0  0  0
    2.6388    0.9845    2.4362 O   0  0  0  0  0  0  0  0  0  0  0  0
    2.3311    1.3138    1.1390 C   0  0  0  0  0  0  0  0  0  0  0  0
    1.5895    2.4427    0.7688 C   0  0  0  0  0  0  0  0  0  0  0  0
    1.3005    2.6875   -0.5744 C   0  0  0  0  0  0  0  0  0  0  0  0
    1.7599    1.8009   -1.5484 C   0  0  0  0  0  0  0  0  0  0  0  0
    1.3540    2.0754   -3.2595 S   0  0  0  0  0  6  0  0  0  0  0  0
    0.6682    3.3463   -3.3619 O   0  0  0  0  0  0  0  0  0  0  0  0
    2.5458    1.7988   -4.0331 O   0  0  0  0  0  0  0  0  0  0  0  0
    0.2564    0.8332   -3.6081 N   0  0  0  0  0  0  0  0  0  0  0  0
   -0.8250    0.6205   -2.7045 C   0  0  0  0  0  0  0  0  0  0  0  0
   -1.8561    1.5413   -2.6077 C   0  0  0  0  0  0  0  0  0  0  0  0
   -2.8453    1.3522   -1.6494 C   0  0  0  0  0  0  0  0  0  0  0  0
   -2.8022    0.2473   -0.7762 C   0  0  0  0  0  0  0  0  0  0  0  0
   -1.7442   -0.6873   -0.8502 C   0  0  0  0  0  0  0  0  0  0  0  0
   -0.7730   -0.4790   -1.8403 C   0  0  0  0  0  0  0  0  0  0  0  0
   -1.6601   -1.7745    0.1027 N   0  0  0  0  0  0  0  0  0  0  0  0
   -0.6376   -2.7406    0.0750 C   0  0  0  0  0  0  0  0  0  0  0  0
   -0.4341   -3.5454    1.3410 C   0  0  0  0  0  0  0  0  0  0  0  0
    0.0892   -2.9915   -0.8880 O   0  0  0  0  0  0  0  0  0  0  0  0
   -2.6440   -1.7740    1.1938 C   0  0  0  0  0  0  0  0  0  0  0  0
   -4.0123   -1.2804    0.7636 C   0  0  0  0  0  0  0  0  0  0  0  0
   -3.8899    0.1404    0.2588 C   0  0  0  0  0  0  0  0  0  0  0  0
    2.5224    0.6810   -1.2002 C   0  0  0  0  0  0  0  0  0  0  0  0
    2.7889    0.4195    0.1469 C   0  0  0  0  0  0  0  0  0  0  0  0
    3.4978   -0.6682    0.5941 O   0  0  0  0  0  0  0  0  0  0  0  0
    3.7199   -1.7261   -0.3295 C   0  0  0  0  0  0  0  0  0  0  0  0
    2.8863    2.9025    3.2185 H   0  0  0  0  0  0  0  0  0  0  0  0
    1.3020    2.1063    3.5687 H   0  0  0  0  0  0  0  0  0  0  0  0
    2.7778    1.5780    4.3840 H   0  0  0  0  0  0  0  0  0  0  0  0
    1.2103    3.1442    1.5046 H   0  0  0  0  0  0  0  0  0  0  0  0
    0.7107    3.5600   -0.8476 H   0  0  0  0  0  0  0  0  0  0  0  0
    0.7343    0.0036   -3.9591 H   0  0  0  0  0  0  0  0  0  0  0  0
   -1.8940    2.4048   -3.2669 H   0  0  0  0  0  0  0  0  0  0  0  0
   -3.6524    2.0789   -1.5764 H   0  0  0  0  0  0  0  0  0  0  0  0
    0.0776   -1.1401   -1.9426 H   0  0  0  0  0  0  0  0  0  0  0  0
    0.5655   -3.9922    1.3221 H   0  0  0  0  0  0  0  0  0  0  0  0
   -0.4855   -2.9091    2.2281 H   0  0  0  0  0  0  0  0  0  0  0  0
   -1.1716   -4.3500    1.3954 H   0  0  0  0  0  0  0  0  0  0  0  0
   -2.2377   -1.1571    2.0050 H   0  0  0  0  0  0  0  0  0  0  0  0
   -2.7703   -2.7883    1.5839 H   0  0  0  0  0  0  0  0  0  0  0  0
   -4.4100   -1.9299   -0.0267 H   0  0  0  0  0  0  0  0  0  0  0  0
   -4.7138   -1.3210    1.6041 H   0  0  0  0  0  0  0  0  0  0  0  0
   -4.8522    0.4510   -0.1651 H   0  0  0  0  0  0  0  0  0  0  0  0
   -3.6537    0.8191    1.0875 H   0  0  0  0  0  0  0  0  0  0  0  0
    2.8841    0.0269   -1.9865 H   0  0  0  0  0  0  0  0  0  0  0  0
    4.1573   -2.5643    0.2213 H   0  0  0  0  0  0  0  0  0  0  0  0
    2.7819   -2.0736   -0.7745 H   0  0  0  0  0  0  0  0  0  0  0  0
    4.4358   -1.4252   -1.1010 H   0  0  0  0  0  0  0  0  0  0  0  0
  1  2  1  0
  2  3  1  0
  3  4  2  0
  4  5  1  0
  5  6  2  0
  6  7  1  0
  7  8  2  0
  7  9  2  0
  7 10  1  0
 10 11  1  0
 11 12  2  0
 12 13  1  0
 13 14  2  0
 14 15  1  0
 15 16  2  0
 15 17  1  0
 17 18  1  0
 18 19  1  0
 18 20  2  0
 17 21  1  0
 21 22  1  0
 22 23  1  0
  6 24  1  0
 24 25  2  0
 25 26  1  0
 26 27  1  0
 25  3  1  0
 16 11  1  0
 23 14  1  0
  1 28  1  0
  1 29  1  0
  1 30  1  0
  4 31  1  0
  5 32  1  0
 10 33  1  0
 12 34  1  0
 13 35  1  0
 16 36  1  0
 19 37  1  0
 19 38  1  0
 19 39  1  0
 21 40  1  0
 21 41  1  0
 22 42  1  0
 22 43  1  0
 23 44  1  0
 23 45  1  0
 24 46  1  0
 27 47  1  0
 27 48  1  0
 27 49  1  0
M  END
$$$$
