
     RDKit          3D

 44 46  0  0  0  0  0  0  0  0999 V2000
   -4.8846   -0.5048    4.2378 C   0  0  0  0  0  0  0  0  0  0  0  0
   -3.6891   -0.5341    3.3250 C   0  0  0  0  0  0  0  0  0  0  0  0
   -3.8328   -1.0335    2.0186 C   0  0  0  0  0  0  0  0  0  0  0  0
   -2.7596   -1.0667    1.1119 C   0  0  0  0  0  0  0  0  0  0  0  0
   -2.9976   -1.6339   -0.2604 C   0  0  0  0  0  0  0  0  0  0  0  0
   -1.5118   -0.5904    1.5487 C   0  0  0  0  0  0  0  0  0  0  0  0
   -0.0756   -0.5802    0.4826 S   0  0  0  0  0  6  0  0  0  0  0  0
   -0.0406   -1.8246   -0.2534 O   0  0  0  0  0  0  0  0  0  0  0  0
    1.0582   -0.1298    1.2647 O   0  0  0  0  0  0  0  0  0  0  0  0
   -0.4683    0.7161   -0.5604 N   0  0  0  0  0  0  0  0  0  0  0  0
    0.3604    0.7926   -1.7284 C   0  0  0  0  0  0  0  0  0  0  0  0
   -0.0430    0.1346   -2.8892 C   0  0  0  0  0  0  0  0  0  0  0  0
    0.7569    0.1930   -4.0290 C   0  0  0  0  0  0  0  0  0  0  0  0
    1.9693    0.8803   -3.9940 C   0  0  0  0  0  0  0  0  0  0  0  0
    2.6812    0.8917   -5.1630 O   0  0  0  0  0  0  0  0  0  0  0  0
    2.4070    1.5127   -2.8204 C   0  0  0  0  0  0  0  0  0  0  0  0
    3.9281    2.4424   -2.6998 S   0  0  0  0  0  0  0  0  0  0  0  0
    5.1284    1.2199   -3.0086 C   0  0  0  0  0  0  0  0  0  0  0  0
    5.9610    0.7107   -2.0530 N   0  0  0  0  0  0  0  0  0  0  0  0
    6.6775   -0.1650   -2.7216 C   0  0  0  0  0  0  0  0  0  0  0  0
    6.2956   -0.1643   -4.0269 N   0  0  0  0  0  0  0  0  0  0  0  0
    5.3013    0.7186   -4.2406 N   0  0  0  0  0  0  0  0  0  0  0  0
    1.5839    1.4647   -1.6850 C   0  0  0  0  0  0  0  0  0  0  0  0
   -1.3539   -0.0998    2.8563 C   0  0  0  0  0  0  0  0  0  0  0  0
   -2.4335   -0.0629    3.7497 C   0  0  0  0  0  0  0  0  0  0  0  0
   -2.2258    0.4863    5.1346 C   0  0  0  0  0  0  0  0  0  0  0  0
   -5.1491    0.5276    4.4851 H   0  0  0  0  0  0  0  0  0  0  0  0
   -5.7589   -0.9679    3.7668 H   0  0  0  0  0  0  0  0  0  0  0  0
   -4.6778   -1.0589    5.1593 H   0  0  0  0  0  0  0  0  0  0  0  0
   -4.8053   -1.4045    1.6999 H   0  0  0  0  0  0  0  0  0  0  0  0
   -4.0656   -1.7954   -0.4458 H   0  0  0  0  0  0  0  0  0  0  0  0
   -2.5027   -2.6017   -0.3599 H   0  0  0  0  0  0  0  0  0  0  0  0
   -2.6450   -0.9503   -1.0367 H   0  0  0  0  0  0  0  0  0  0  0  0
   -0.3960    1.5727   -0.0081 H   0  0  0  0  0  0  0  0  0  0  0  0
   -0.9783   -0.4228   -2.9156 H   0  0  0  0  0  0  0  0  0  0  0  0
    0.4420   -0.3023   -4.9423 H   0  0  0  0  0  0  0  0  0  0  0  0
    3.6236    1.0611   -4.9472 H   0  0  0  0  0  0  0  0  0  0  0  0
    7.4604   -0.8015   -2.3304 H   0  0  0  0  0  0  0  0  0  0  0  0
    6.6427   -0.7218   -4.7987 H   0  0  0  0  0  0  0  0  0  0  0  0
    1.9047    1.9461   -0.7633 H   0  0  0  0  0  0  0  0  0  0  0  0
   -0.3818    0.2602    3.1878 H   0  0  0  0  0  0  0  0  0  0  0  0
   -2.8306    1.3896    5.2778 H   0  0  0  0  0  0  0  0  0  0  0  0
   -2.4953   -0.2620    5.8867 H   0  0  0  0  0  0  0  0  0  0  0  0
   -1.1797    0.7583    5.3087 H   0  0  0  0  0  0  0  0  0  0  0  0
  1  2  1  0
  2  3  2  0
  3  4  1  0
  4  5  1  0
  4  6  2  0
  6  7  1  0
  7  8  2  0
  7  9  2  0
  7 10  1  0
 10 11  1  0
 11 12  2  0
 12 13  1  0
 13 14  2  0
 14 15  1  0
 14 16  1  0
 16 17  1  0
 17 18  1  0
 18 19  1  0
 19 20  2  0
 20 21  1  0
 21 22  1  0
 16 23  2  0
  6 24  1  0
 24 25  2  0
 25 26  1  0
 25  2  1  0
 23 11  1  0
 22 18  2  0
  1 27  1  0
  1 28  1  0
  1 29  1  0
  3 30  1  0
  5 31  1  0
  5 32  1  0
  5 33  1  0
 10 34  1  0
 12 35  1  0
 13 36  1  0
 15 37  1  0
 20 38  1  0
 21 39  1  0
 23 40  1  0
 24 41  1  0
 26 42  1  0
 26 43  1  0
 26 44  1  0
M  END
$$$$
