
     RDKit          3D

 58 61  0  0  0  0  0  0  0  0999 V2000
    0.2681    3.5595    1.8546 C   0  0  0  0  0  0  0  0  0  0  0  0
   -0.8801    4.0615    1.1805 O   0  0  0  0  0  0  0  0  0  0  0  0
   -1.8193    3.1431    0.7974 C   0  0  0  0  0  0  0  0  0  0  0  0
   -2.9003    3.6732    0.0905 C   0  0  0  0  0  0  0  0  0  0  0  0
   -3.9246    2.8453   -0.3663 C   0  0  0  0  0  0  0  0  0  0  0  0
   -3.8719    1.4738   -0.1196 C   0  0  0  0  0  0  0  0  0  0  0  0
   -2.7972    0.9223    0.5915 C   0  0  0  0  0  0  0  0  0  0  0  0
   -2.7177   -0.5271    0.8328 C   0  0  0  0  0  0  0  0  0  0  0  0
   -3.9776   -1.2802    1.7144 S   0  0  0  0  0  0  0  0  0  0  0  0
   -3.2387   -2.8269    1.6314 C   0  0  0  0  0  0  0  0  0  0  0  0
   -3.7334   -4.0293    2.1723 C   0  0  0  0  0  0  0  0  0  0  0  0
   -2.9972   -5.2084    2.0088 C   0  0  0  0  0  0  0  0  0  0  0  0
   -1.7925   -5.1998    1.3196 C   0  0  0  0  0  0  0  0  0  0  0  0
   -0.9858   -6.2817    1.0948 O   0  0  0  0  0  0  0  0  0  0  0  0
   -1.4321   -7.5349    1.5982 C   0  0  0  0  0  0  0  0  0  0  0  0
   -1.3129   -3.9974    0.7862 C   0  0  0  0  0  0  0  0  0  0  0  0
   -2.0300   -2.7809    0.9372 C   0  0  0  0  0  0  0  0  0  0  0  0
   -1.7332   -1.4403    0.4797 C   0  0  0  0  0  0  0  0  0  0  0  0
   -0.5448   -1.0386   -0.2678 C   0  0  0  0  0  0  0  0  0  0  0  0
   -0.6489   -0.6052   -1.5920 C   0  0  0  0  0  0  0  0  0  0  0  0
    0.4939   -0.1968   -2.2835 C   0  0  0  0  0  0  0  0  0  0  0  0
    1.7468   -0.2098   -1.6653 C   0  0  0  0  0  0  0  0  0  0  0  0
    2.7743    0.2214   -2.4553 O   0  0  0  0  0  0  0  0  0  0  0  0
    3.9849    0.6539   -1.8307 C   0  0  0  0  0  0  0  0  0  0  0  0
    3.8566    2.0377   -1.1571 C   0  0  0  0  0  0  0  0  0  0  0  0
    3.4701    3.1457   -2.0556 N   0  0  0  0  0  0  0  0  0  0  0  0
    4.5038    3.4461   -3.0448 C   0  0  0  0  0  0  0  0  0  0  0  0
    3.1546    4.3453   -1.2781 C   0  0  0  0  0  0  0  0  0  0  0  0
    1.8547   -0.6666   -0.3520 C   0  0  0  0  0  0  0  0  0  0  0  0
    0.7128   -1.0786    0.3450 C   0  0  0  0  0  0  0  0  0  0  0  0
   -1.7754    1.7707    1.0514 C   0  0  0  0  0  0  0  0  0  0  0  0
    0.9279    4.4064    2.0679 H   0  0  0  0  0  0  0  0  0  0  0  0
   -0.0060    3.1030    2.8122 H   0  0  0  0  0  0  0  0  0  0  0  0
    0.8235    2.8562    1.2242 H   0  0  0  0  0  0  0  0  0  0  0  0
   -2.9409    4.7412   -0.1090 H   0  0  0  0  0  0  0  0  0  0  0  0
   -4.7595    3.2684   -0.9180 H   0  0  0  0  0  0  0  0  0  0  0  0
   -4.6715    0.8377   -0.4929 H   0  0  0  0  0  0  0  0  0  0  0  0
   -4.6771   -4.0441    2.7109 H   0  0  0  0  0  0  0  0  0  0  0  0
   -3.4041   -6.1186    2.4372 H   0  0  0  0  0  0  0  0  0  0  0  0
   -1.5117   -7.5155    2.6899 H   0  0  0  0  0  0  0  0  0  0  0  0
   -2.3801   -7.8308    1.1369 H   0  0  0  0  0  0  0  0  0  0  0  0
   -0.6837   -8.2875    1.3328 H   0  0  0  0  0  0  0  0  0  0  0  0
   -0.3718   -4.0007    0.2404 H   0  0  0  0  0  0  0  0  0  0  0  0
   -1.6140   -0.5727   -2.0918 H   0  0  0  0  0  0  0  0  0  0  0  0
    0.4057    0.1515   -3.3101 H   0  0  0  0  0  0  0  0  0  0  0  0
    4.3570   -0.0940   -1.1218 H   0  0  0  0  0  0  0  0  0  0  0  0
    4.7461    0.6920   -2.6174 H   0  0  0  0  0  0  0  0  0  0  0  0
    4.8041    2.2730   -0.6559 H   0  0  0  0  0  0  0  0  0  0  0  0
    3.0960    1.9551   -0.3715 H   0  0  0  0  0  0  0  0  0  0  0  0
    4.1988    4.2876   -3.6780 H   0  0  0  0  0  0  0  0  0  0  0  0
    5.4614    3.7010   -2.5766 H   0  0  0  0  0  0  0  0  0  0  0  0
    4.6610    2.6023   -3.7237 H   0  0  0  0  0  0  0  0  0  0  0  0
    2.8272    5.1586   -1.9359 H   0  0  0  0  0  0  0  0  0  0  0  0
    4.0128    4.6972   -0.6951 H   0  0  0  0  0  0  0  0  0  0  0  0
    2.3244    4.1518   -0.5903 H   0  0  0  0  0  0  0  0  0  0  0  0
    2.8080   -0.7238    0.1598 H   0  0  0  0  0  0  0  0  0  0  0  0
    0.8117   -1.4249    1.3715 H   0  0  0  0  0  0  0  0  0  0  0  0
   -0.9522    1.3326    1.6059 H   0  0  0  0  0  0  0  0  0  0  0  0
  1  2  1  0
  2  3  1  0
  3  4  2  0
  4  5  1  0
  5  6  2  0
  6  7  1  0
  7  8  1  0
  8  9  1  0
  9 10  1  0
 10 11  2  0
 11 12  1  0
 12 13  2  0
 13 14  1  0
 14 15  1  0
 13 16  1  0
 16 17  2  0
 17 18  1  0
 18 19  1  0
 19 20  2  0
 20 21  1  0
 21 22  2  0
 22 23  1  0
 23 24  1  0
 24 25  1  0
 25 26  1  0
 26 27  1  0
 26 28  1  0
 22 29  1  0
 29 30  2  0
  7 31  2  0
 31  3  1  0
 18  8  2  0
 30 19  1  0
 17 10  1  0
  1 32  1  0
  1 33  1  0
  1 34  1  0
  4 35  1  0
  5 36  1  0
  6 37  1  0
 11 38  1  0
 12 39  1  0
 15 40  1  0
 15 41  1  0
 15 42  1  0
 16 43  1  0
 20 44  1  0
 21 45  1  0
 24 46  1  0
 24 47  1  0
 25 48  1  0
 25 49  1  0
 27 50  1  0
 27 51  1  0
 27 52  1  0
 28 53  1  0
 28 54  1  0
 28 55  1  0
 29 56  1  0
 30 57  1  0
 31 58  1  0
M  END
$$$$
