
     RDKit          3D

 57 59  0  0  0  0  0  0  0  0999 V2000
   -8.7101   -0.9252   -2.2855 C   0  0  0  0  0  0  0  0  0  0  0  0
   -8.1140   -0.8299   -0.9997 O   0  0  0  0  0  0  0  0  0  0  0  0
   -6.7560   -1.0111   -0.9100 C   0  0  0  0  0  0  0  0  0  0  0  0
   -5.9134   -1.2200   -2.0091 C   0  0  0  0  0  0  0  0  0  0  0  0
   -4.5408   -1.3880   -1.8223 C   0  0  0  0  0  0  0  0  0  0  0  0
   -4.0117   -1.3390   -0.5323 C   0  0  0  0  0  0  0  0  0  0  0  0
   -2.2641   -1.5435   -0.3134 S   0  0  0  0  0  6  0  0  0  0  0  0
   -1.9712   -1.5339    1.1036 O   0  0  0  0  0  0  0  0  0  0  0  0
   -1.8403   -2.6388   -1.1575 O   0  0  0  0  0  0  0  0  0  0  0  0
   -1.6520   -0.1307   -0.9619 N   0  0  0  0  0  0  0  0  0  0  0  0
   -2.0077    1.1619   -0.3546 C   0  0  0  0  0  0  0  0  0  0  0  0
   -0.7185    1.9584   -0.3908 C   0  0  0  0  0  0  0  0  0  0  0  0
    0.0735    1.3253   -1.4001 O   0  0  0  0  0  0  0  0  0  0  0  0
   -0.2199   -0.0808   -1.3019 C   0  0  0  0  0  0  0  0  0  0  0  0
    0.7314   -0.7665   -0.2818 C   0  0  0  0  0  0  0  0  0  0  0  0
    2.1371   -0.5811   -0.6020 N   0  0  0  0  0  0  0  0  0  0  0  0
    2.8603    0.4936   -0.1372 C   0  0  0  0  0  0  0  0  0  0  0  0
    2.4936    1.3123    0.6944 O   0  0  0  0  0  0  0  0  0  0  0  0
    4.2664    0.6088   -0.7694 C   0  0  0  0  0  0  0  0  0  0  0  0
    4.6284   -0.2035   -1.6093 O   0  0  0  0  0  0  0  0  0  0  0  0
    4.9987    1.6663   -0.2862 N   0  0  0  0  0  0  0  0  0  0  0  0
    6.3831    1.8655   -0.6233 C   0  0  0  0  0  0  0  0  0  0  0  0
    7.2829    1.2748    0.4318 C   0  0  0  0  0  0  0  0  0  0  0  0
    7.7471    2.0610    1.4985 C   0  0  0  0  0  0  0  0  0  0  0  0
    8.5610    1.5009    2.4846 C   0  0  0  0  0  0  0  0  0  0  0  0
    8.9044    0.1562    2.4095 C   0  0  0  0  0  0  0  0  0  0  0  0
    9.6844   -0.3789    3.3580 F   0  0  0  0  0  0  0  0  0  0  0  0
    8.4475   -0.6418    1.3681 C   0  0  0  0  0  0  0  0  0  0  0  0
    7.6341   -0.0844    0.3807 C   0  0  0  0  0  0  0  0  0  0  0  0
   -4.8374   -1.1430    0.5781 C   0  0  0  0  0  0  0  0  0  0  0  0
   -6.2131   -0.9772    0.3940 C   0  0  0  0  0  0  0  0  0  0  0  0
   -7.1082   -0.7661    1.4137 O   0  0  0  0  0  0  0  0  0  0  0  0
   -6.6302   -0.8782    2.7471 C   0  0  0  0  0  0  0  0  0  0  0  0
   -8.3459   -0.1335   -2.9483 H   0  0  0  0  0  0  0  0  0  0  0  0
   -9.7890   -0.7869   -2.1651 H   0  0  0  0  0  0  0  0  0  0  0  0
   -8.5491   -1.9155   -2.7243 H   0  0  0  0  0  0  0  0  0  0  0  0
   -6.2955   -1.2569   -3.0241 H   0  0  0  0  0  0  0  0  0  0  0  0
   -3.8924   -1.5526   -2.6806 H   0  0  0  0  0  0  0  0  0  0  0  0
   -2.3934    1.0856    0.6653 H   0  0  0  0  0  0  0  0  0  0  0  0
   -2.7710    1.6372   -0.9797 H   0  0  0  0  0  0  0  0  0  0  0  0
   -0.8792    3.0097   -0.6449 H   0  0  0  0  0  0  0  0  0  0  0  0
   -0.1891    1.9092    0.5662 H   0  0  0  0  0  0  0  0  0  0  0  0
   -0.0626   -0.5088   -2.2978 H   0  0  0  0  0  0  0  0  0  0  0  0
    0.5591   -0.3753    0.7269 H   0  0  0  0  0  0  0  0  0  0  0  0
    0.5658   -1.8473   -0.2595 H   0  0  0  0  0  0  0  0  0  0  0  0
    2.5685   -1.1232   -1.3470 H   0  0  0  0  0  0  0  0  0  0  0  0
    4.5866    2.1820    0.4859 H   0  0  0  0  0  0  0  0  0  0  0  0
    6.6053    1.4247   -1.6019 H   0  0  0  0  0  0  0  0  0  0  0  0
    6.5504    2.9449   -0.7073 H   0  0  0  0  0  0  0  0  0  0  0  0
    7.4771    3.1125    1.5673 H   0  0  0  0  0  0  0  0  0  0  0  0
    8.9265    2.1019    3.3111 H   0  0  0  0  0  0  0  0  0  0  0  0
    8.7226   -1.6909    1.3327 H   0  0  0  0  0  0  0  0  0  0  0  0
    7.2684   -0.7142   -0.4293 H   0  0  0  0  0  0  0  0  0  0  0  0
   -4.3929   -1.1186    1.5676 H   0  0  0  0  0  0  0  0  0  0  0  0
   -5.9121   -0.0837    2.9743 H   0  0  0  0  0  0  0  0  0  0  0  0
   -6.1993   -1.8676    2.9330 H   0  0  0  0  0  0  0  0  0  0  0  0
   -7.4843   -0.7558    3.4200 H   0  0  0  0  0  0  0  0  0  0  0  0
  1  2  1  0
  2  3  1  0
  3  4  2  0
  4  5  1  0
  5  6  2  0
  6  7  1  0
  7  8  2  0
  7  9  2  0
  7 10  1  0
 10 11  1  0
 11 12  1  0
 12 13  1  0
 13 14  1  0
 14 15  1  0
 15 16  1  0
 16 17  1  0
 17 18  2  0
 17 19  1  0
 19 20  2  0
 19 21  1  0
 21 22  1  0
 22 23  1  0
 23 24  2  0
 24 25  1  0
 25 26  2  0
 26 27  1  0
 26 28  1  0
 28 29  2  0
  6 30  1  0
 30 31  2  0
 31 32  1  0
 32 33  1  0
 31  3  1  0
 14 10  1  0
 29 23  1  0
  1 34  1  0
  1 35  1  0
  1 36  1  0
  4 37  1  0
  5 38  1  0
 11 39  1  0
 11 40  1  0
 12 41  1  0
 12 42  1  0
 14 43  1  0
 15 44  1  0
 15 45  1  0
 16 46  1  0
 21 47  1  0
 22 48  1  0
 22 49  1  0
 24 50  1  0
 25 51  1  0
 28 52  1  0
 29 53  1  0
 30 54  1  0
 33 55  1  0
 33 56  1  0
 33 57  1  0
M  END
$$$$
