
     RDKit          3D

 33 35  0  0  0  0  0  0  0  0999 V2000
    3.3179   -1.9220   -1.8108 O   0  0  0  0  0  0  0  0  0  0  0  0
    3.8400   -1.1417   -0.8148 C   0  0  0  0  0  0  0  0  0  0  0  0
    5.1481   -1.4254   -0.4275 C   0  0  0  0  0  0  0  0  0  0  0  0
    5.7429   -0.6933    0.5989 C   0  0  0  0  0  0  0  0  0  0  0  0
    5.0290    0.3228    1.2322 C   0  0  0  0  0  0  0  0  0  0  0  0
    3.7204    0.6121    0.8354 C   0  0  0  0  0  0  0  0  0  0  0  0
    3.1103   -0.1172   -0.1952 C   0  0  0  0  0  0  0  0  0  0  0  0
    1.7536    0.2369   -0.6312 C   0  0  0  0  0  0  0  0  0  0  0  0
    0.6922    0.1219    0.1825 C   0  0  0  0  0  0  0  0  0  0  0  0
   -0.6921    0.4355   -0.1856 C   0  0  0  0  0  0  0  0  0  0  0  0
   -1.0278    1.4293   -1.0967 C   0  0  0  0  0  0  0  0  0  0  0  0
   -2.3739    1.6705   -1.3600 C   0  0  0  0  0  0  0  0  0  0  0  0
   -3.3553    0.9218   -0.7023 C   0  0  0  0  0  0  0  0  0  0  0  0
   -4.7306    1.1213   -0.9295 C   0  0  0  0  0  0  0  0  0  0  0  0
   -5.6788    0.3546   -0.2498 C   0  0  0  0  0  0  0  0  0  0  0  0
   -5.2616   -0.6127    0.6584 C   0  0  0  0  0  0  0  0  0  0  0  0
   -3.8993   -0.7989    0.8734 C   0  0  0  0  0  0  0  0  0  0  0  0
   -3.5138   -1.7619    1.7756 O   0  0  0  0  0  0  0  0  0  0  0  0
   -2.9242   -0.0547    0.2149 C   0  0  0  0  0  0  0  0  0  0  0  0
   -1.6206   -0.2926    0.4766 N   0  0  0  0  0  0  0  0  0  0  0  0
    2.3524   -1.8091   -1.8074 H   0  0  0  0  0  0  0  0  0  0  0  0
    5.6987   -2.2216   -0.9207 H   0  0  0  0  0  0  0  0  0  0  0  0
    6.7616   -0.9169    0.9045 H   0  0  0  0  0  0  0  0  0  0  0  0
    5.4926    0.8952    2.0318 H   0  0  0  0  0  0  0  0  0  0  0  0
    3.1856    1.4193    1.3310 H   0  0  0  0  0  0  0  0  0  0  0  0
    1.6676    0.5735   -1.6605 H   0  0  0  0  0  0  0  0  0  0  0  0
    0.8097   -0.2642    1.1930 H   0  0  0  0  0  0  0  0  0  0  0  0
   -0.2682    2.0236   -1.5929 H   0  0  0  0  0  0  0  0  0  0  0  0
   -2.6490    2.4445   -2.0720 H   0  0  0  0  0  0  0  0  0  0  0  0
   -5.0692    1.8753   -1.6368 H   0  0  0  0  0  0  0  0  0  0  0  0
   -6.7396    0.5119   -0.4282 H   0  0  0  0  0  0  0  0  0  0  0  0
   -5.9849   -1.2184    1.1963 H   0  0  0  0  0  0  0  0  0  0  0  0
   -2.5339   -1.7194    1.7631 H   0  0  0  0  0  0  0  0  0  0  0  0
  1  2  1  0
  2  3  2  0
  3  4  1  0
  4  5  2  0
  5  6  1  0
  6  7  2  0
  7  8  1  0
  8  9  2  0
  9 10  1  0
 10 11  2  0
 11 12  1  0
 12 13  2  0
 13 14  1  0
 14 15  2  0
 15 16  1  0
 16 17  2  0
 17 18  1  0
 17 19  1  0
 19 20  2  0
  7  2  1  0
 20 10  1  0
 19 13  1  0
  1 21  1  0
  3 22  1  0
  4 23  1  0
  5 24  1  0
  6 25  1  0
  8 26  1  0
  9 27  1  0
 11 28  1  0
 12 29  1  0
 14 30  1  0
 15 31  1  0
 16 32  1  0
 18 33  1  0
M  END
$$$$
