
     RDKit          3D

 53 55  0  0  0  0  0  0  0  0999 V2000
    9.3534   -0.1573    1.4959 C   0  0  0  0  0  0  0  0  0  0  0  0
    8.1940    0.0600    2.2905 O   0  0  0  0  0  0  0  0  0  0  0  0
    6.9824   -0.1186    1.6821 C   0  0  0  0  0  0  0  0  0  0  0  0
    5.8779    0.0658    2.5213 C   0  0  0  0  0  0  0  0  0  0  0  0
    4.5789   -0.0835    2.0335 C   0  0  0  0  0  0  0  0  0  0  0  0
    4.3885   -0.4138    0.6908 C   0  0  0  0  0  0  0  0  0  0  0  0
    2.7337   -0.5910    0.0733 S   0  0  0  0  0  6  0  0  0  0  0  0
    2.7997   -0.8359   -1.3519 O   0  0  0  0  0  0  0  0  0  0  0  0
    2.0355   -1.4869    0.9666 O   0  0  0  0  0  0  0  0  0  0  0  0
    2.1012    0.9608    0.2826 N   0  0  0  0  0  0  0  0  0  0  0  0
    2.7125    2.0537   -0.5041 C   0  0  0  0  0  0  0  0  0  0  0  0
    1.5778    2.5619   -1.3642 C   0  0  0  0  0  0  0  0  0  0  0  0
    0.4232    2.3385   -0.5536 O   0  0  0  0  0  0  0  0  0  0  0  0
    0.6403    1.0400    0.0399 C   0  0  0  0  0  0  0  0  0  0  0  0
   -0.1491    0.9541    1.3607 C   0  0  0  0  0  0  0  0  0  0  0  0
   -1.5695    1.2220    1.2083 N   0  0  0  0  0  0  0  0  0  0  0  0
   -2.4010    0.3491    0.5477 C   0  0  0  0  0  0  0  0  0  0  0  0
   -2.0967   -0.7641    0.1450 O   0  0  0  0  0  0  0  0  0  0  0  0
   -3.8208    0.9070    0.2985 C   0  0  0  0  0  0  0  0  0  0  0  0
   -4.0844    2.0676    0.5801 O   0  0  0  0  0  0  0  0  0  0  0  0
   -4.6814   -0.0077   -0.2596 N   0  0  0  0  0  0  0  0  0  0  0  0
   -5.9709    0.3913   -0.7586 C   0  0  0  0  0  0  0  0  0  0  0  0
   -6.8462   -0.8025   -1.0295 C   0  0  0  0  0  0  0  0  0  0  0  0
   -7.7078   -1.2558   -0.0143 C   0  0  0  0  0  0  0  0  0  0  0  0
   -8.5271   -2.3688   -0.2122 C   0  0  0  0  0  0  0  0  0  0  0  0
   -8.4924   -3.0524   -1.4241 C   0  0  0  0  0  0  0  0  0  0  0  0
   -7.6335   -2.6264   -2.4362 C   0  0  0  0  0  0  0  0  0  0  0  0
   -6.8114   -1.5119   -2.2404 C   0  0  0  0  0  0  0  0  0  0  0  0
   -5.7537   -1.0624   -3.5305 Cl  0  0  0  0  0  0  0  0  0  0  0  0
    5.4810   -0.6072   -0.1575 C   0  0  0  0  0  0  0  0  0  0  0  0
    6.7792   -0.4571    0.3417 C   0  0  0  0  0  0  0  0  0  0  0  0
    9.4037    0.5584    0.6687 H   0  0  0  0  0  0  0  0  0  0  0  0
   10.2293    0.0059    2.1311 H   0  0  0  0  0  0  0  0  0  0  0  0
    9.3947   -1.1885    1.1299 H   0  0  0  0  0  0  0  0  0  0  0  0
    6.0346    0.3231    3.5666 H   0  0  0  0  0  0  0  0  0  0  0  0
    3.7292    0.0550    2.6978 H   0  0  0  0  0  0  0  0  0  0  0  0
    3.5753    1.7585   -1.1057 H   0  0  0  0  0  0  0  0  0  0  0  0
    3.0382    2.8247    0.2033 H   0  0  0  0  0  0  0  0  0  0  0  0
    1.6712    3.6232   -1.6084 H   0  0  0  0  0  0  0  0  0  0  0  0
    1.4773    1.9860   -2.2911 H   0  0  0  0  0  0  0  0  0  0  0  0
    0.2981    0.2909   -0.6838 H   0  0  0  0  0  0  0  0  0  0  0  0
   -0.0346   -0.0365    1.8122 H   0  0  0  0  0  0  0  0  0  0  0  0
    0.2241    1.6979    2.0737 H   0  0  0  0  0  0  0  0  0  0  0  0
   -1.9064    2.1783    1.2911 H   0  0  0  0  0  0  0  0  0  0  0  0
   -4.2594   -0.8748   -0.5836 H   0  0  0  0  0  0  0  0  0  0  0  0
   -6.4451    1.0550   -0.0248 H   0  0  0  0  0  0  0  0  0  0  0  0
   -5.8250    1.0012   -1.6568 H   0  0  0  0  0  0  0  0  0  0  0  0
   -7.7413   -0.7405    0.9444 H   0  0  0  0  0  0  0  0  0  0  0  0
   -9.1890   -2.7039    0.5829 H   0  0  0  0  0  0  0  0  0  0  0  0
   -9.1279   -3.9207   -1.5789 H   0  0  0  0  0  0  0  0  0  0  0  0
   -7.6045   -3.1717   -3.3764 H   0  0  0  0  0  0  0  0  0  0  0  0
    5.3352   -0.8764   -1.2016 H   0  0  0  0  0  0  0  0  0  0  0  0
    7.6089   -0.6135   -0.3402 H   0  0  0  0  0  0  0  0  0  0  0  0
  1  2  1  0
  2  3  1  0
  3  4  2  0
  4  5  1  0
  5  6  2  0
  6  7  1  0
  7  8  2  0
  7  9  2  0
  7 10  1  0
 10 11  1  0
 11 12  1  0
 12 13  1  0
 13 14  1  0
 14 15  1  0
 15 16  1  0
 16 17  1  0
 17 18  2  0
 17 19  1  0
 19 20  2  0
 19 21  1  0
 21 22  1  0
 22 23  1  0
 23 24  2  0
 24 25  1  0
 25 26  2  0
 26 27  1  0
 27 28  2  0
 28 29  1  0
  6 30  1  0
 30 31  2  0
 31  3  1  0
 14 10  1  0
 28 23  1  0
  1 32  1  0
  1 33  1  0
  1 34  1  0
  4 35  1  0
  5 36  1  0
 11 37  1  0
 11 38  1  0
 12 39  1  0
 12 40  1  0
 14 41  1  0
 15 42  1  0
 15 43  1  0
 16 44  1  0
 21 45  1  0
 22 46  1  0
 22 47  1  0
 24 48  1  0
 25 49  1  0
 26 50  1  0
 27 51  1  0
 30 52  1  0
 31 53  1  0
M  END
$$$$
