
     RDKit          3D

 50 54  0  0  0  0  0  0  0  0999 V2000
   -4.8861    1.4272    0.3609 C   0  0  0  0  0  0  0  0  0  0  0  0
   -4.7092   -0.0189    0.7028 C   0  0  0  0  0  0  0  0  0  0  0  0
   -5.7193   -0.8185    1.0798 C   0  0  0  0  0  0  0  0  0  0  0  0
   -5.4923   -2.2022    1.3947 C   0  0  0  0  0  0  0  0  0  0  0  0
   -4.2578   -2.7101    1.3118 C   0  0  0  0  0  0  0  0  0  0  0  0
   -3.1709   -1.9340    0.9271 N   0  0  0  0  0  0  0  0  0  0  0  0
   -1.9163   -2.5158    0.8626 C   0  0  0  0  0  0  0  0  0  0  0  0
   -1.6856   -3.6966    1.1318 O   0  0  0  0  0  0  0  0  0  0  0  0
   -0.7996   -1.6234    0.4411 C   0  0  0  0  0  0  0  0  0  0  0  0
    0.5477   -2.1593    0.3361 C   0  0  0  0  0  0  0  0  0  0  0  0
    1.5894   -1.4100   -0.0613 C   0  0  0  0  0  0  0  0  0  0  0  0
    3.1485   -2.1409   -0.2121 S   0  0  0  0  0  6  0  0  0  0  0  0
    3.1842   -3.3719    0.5660 O   0  0  0  0  0  0  0  0  0  0  0  0
    3.5439   -2.1927   -1.6094 O   0  0  0  0  0  0  0  0  0  0  0  0
    4.2666   -1.0391    0.6396 C   0  0  0  0  0  0  0  0  0  0  0  0
    4.2589   -1.0108    2.0410 C   0  0  0  0  0  0  0  0  0  0  0  0
    5.1567   -0.1809    2.7139 C   0  0  0  0  0  0  0  0  0  0  0  0
    6.0531    0.5970    1.9855 C   0  0  0  0  0  0  0  0  0  0  0  0
    6.9105    1.3941    2.6360 F   0  0  0  0  0  0  0  0  0  0  0  0
    6.0763    0.5580    0.5942 C   0  0  0  0  0  0  0  0  0  0  0  0
    5.1838   -0.2710   -0.0873 C   0  0  0  0  0  0  0  0  0  0  0  0
    1.3047    0.0132   -0.4138 C   0  0  0  0  0  0  0  0  0  0  0  0
    2.2951    0.7055   -0.8849 N   0  0  0  0  0  0  0  0  0  0  0  0
    0.0073    0.5193   -0.2277 N   0  0  0  0  0  0  0  0  0  0  0  0
   -0.2775    1.9495   -0.4580 C   0  0  0  0  0  0  0  0  0  0  0  0
   -0.4355    2.3554   -1.8858 C   0  0  0  0  0  0  0  0  0  0  0  0
   -0.7098    1.6717   -3.0531 C   0  0  0  0  0  0  0  0  0  0  0  0
   -0.7237    2.6365   -4.0887 C   0  0  0  0  0  0  0  0  0  0  0  0
   -0.4557    3.8450   -3.4907 C   0  0  0  0  0  0  0  0  0  0  0  0
   -0.2735    3.6842   -2.1547 O   0  0  0  0  0  0  0  0  0  0  0  0
   -1.0630   -0.3264    0.1666 C   0  0  0  0  0  0  0  0  0  0  0  0
   -2.3392    0.1742    0.2595 N   0  0  0  0  0  0  0  0  0  0  0  0
   -3.3205   -0.5934    0.6151 C   0  0  0  0  0  0  0  0  0  0  0  0
   -4.2782    2.0566    1.0193 H   0  0  0  0  0  0  0  0  0  0  0  0
   -4.5899    1.6154   -0.6764 H   0  0  0  0  0  0  0  0  0  0  0  0
   -5.9285    1.7463    0.4709 H   0  0  0  0  0  0  0  0  0  0  0  0
   -6.7368   -0.4454    1.1567 H   0  0  0  0  0  0  0  0  0  0  0  0
   -6.3343   -2.8171    1.6963 H   0  0  0  0  0  0  0  0  0  0  0  0
   -4.0642   -3.7551    1.5451 H   0  0  0  0  0  0  0  0  0  0  0  0
    0.6775   -3.2127    0.5814 H   0  0  0  0  0  0  0  0  0  0  0  0
    3.5739   -1.6367    2.6085 H   0  0  0  0  0  0  0  0  0  0  0  0
    5.1716   -0.1416    3.7986 H   0  0  0  0  0  0  0  0  0  0  0  0
    6.7868    1.1713    0.0495 H   0  0  0  0  0  0  0  0  0  0  0  0
    5.1945   -0.3008   -1.1756 H   0  0  0  0  0  0  0  0  0  0  0  0
    2.0249    1.6531   -1.1519 H   0  0  0  0  0  0  0  0  0  0  0  0
   -1.1748    2.2711    0.0851 H   0  0  0  0  0  0  0  0  0  0  0  0
    0.5250    2.5451   -0.0037 H   0  0  0  0  0  0  0  0  0  0  0  0
   -0.8765    0.6066   -3.1423 H   0  0  0  0  0  0  0  0  0  0  0  0
   -0.9043    2.4708   -5.1418 H   0  0  0  0  0  0  0  0  0  0  0  0
   -0.3581    4.8580   -3.8582 H   0  0  0  0  0  0  0  0  0  0  0  0
  1  2  1  0
  2  3  2  0
  3  4  1  0
  4  5  2  0
  5  6  1  0
  6  7  1  0
  7  8  2  0
  7  9  1  0
  9 10  1  0
 10 11  2  0
 11 12  1  0
 12 13  2  0
 12 14  2  0
 12 15  1  0
 15 16  2  0
 16 17  1  0
 17 18  2  0
 18 19  1  0
 18 20  1  0
 20 21  2  0
 11 22  1  0
 22 23  2  3
 22 24  1  0
 24 25  1  0
 25 26  1  0
 26 27  2  0
 27 28  1  0
 28 29  2  0
 29 30  1  0
 24 31  1  0
 31 32  1  0
 32 33  2  0
 33  2  1  0
 33  6  1  0
 31  9  2  0
 21 15  1  0
 30 26  1  0
  1 34  1  0
  1 35  1  0
  1 36  1  0
  3 37  1  0
  4 38  1  0
  5 39  1  0
 10 40  1  0
 16 41  1  0
 17 42  1  0
 20 43  1  0
 21 44  1  0
 23 45  1  0
 25 46  1  0
 25 47  1  0
 27 48  1  0
 28 49  1  0
 29 50  1  0
M  END
$$$$
