
     RDKit          3D

 46 48  0  0  0  0  0  0  0  0999 V2000
    1.8532   -2.2449   -0.4893 C   0  0  0  0  0  0  0  0  0  0  0  0
    2.0032   -0.7408   -0.5742 C   0  0  0  0  0  0  0  0  0  0  0  0
    3.3616   -0.1275   -0.6551 C   0  0  0  0  0  0  0  0  0  0  0  0
    4.5133   -0.7560   -0.3783 C   0  0  0  0  0  0  0  0  0  0  0  0
    5.8229   -0.0929   -0.4568 C   0  0  0  0  0  0  0  0  0  0  0  0
    6.7777   -0.3536    0.5342 C   0  0  0  0  0  0  0  0  0  0  0  0
    8.0422    0.2372    0.4760 C   0  0  0  0  0  0  0  0  0  0  0  0
    8.3679    1.0849   -0.5801 C   0  0  0  0  0  0  0  0  0  0  0  0
    7.4318    1.3394   -1.5801 C   0  0  0  0  0  0  0  0  0  0  0  0
    6.1666    0.7501   -1.5218 C   0  0  0  0  0  0  0  0  0  0  0  0
    0.9984    0.0902   -0.5801 N   0  0  0  0  0  0  0  0  0  0  0  0
   -0.2700   -0.3888   -0.4630 N   0  0  0  0  0  0  0  0  0  0  0  0
   -1.3436    0.4812   -0.5114 C   0  0  0  0  0  0  0  0  0  0  0  0
   -1.3034    1.6868   -0.7176 O   0  0  0  0  0  0  0  0  0  0  0  0
   -2.6593   -0.1885   -0.3310 C   0  0  0  0  0  0  0  0  0  0  0  0
   -2.9211   -1.1925    0.7608 C   0  0  0  0  0  0  0  0  0  0  0  0
   -3.5603    0.1798    0.8526 C   0  0  0  0  0  0  0  0  0  0  0  0
   -3.0407    1.1144    1.9221 C   0  0  0  0  0  0  0  0  0  0  0  0
   -5.0509    0.3211    0.5716 C   0  0  0  0  0  0  0  0  0  0  0  0
   -6.0061   -0.4636    1.2403 C   0  0  0  0  0  0  0  0  0  0  0  0
   -7.3726   -0.3231    0.9832 C   0  0  0  0  0  0  0  0  0  0  0  0
   -7.8136    0.6131    0.0520 C   0  0  0  0  0  0  0  0  0  0  0  0
   -6.8898    1.4109   -0.6165 C   0  0  0  0  0  0  0  0  0  0  0  0
   -5.5253    1.2659   -0.3556 C   0  0  0  0  0  0  0  0  0  0  0  0
    2.7719   -2.7746   -0.7456 H   0  0  0  0  0  0  0  0  0  0  0  0
    1.0903   -2.5822   -1.1974 H   0  0  0  0  0  0  0  0  0  0  0  0
    1.5538   -2.5208    0.5255 H   0  0  0  0  0  0  0  0  0  0  0  0
    3.3480    0.9263   -0.9252 H   0  0  0  0  0  0  0  0  0  0  0  0
    4.5425   -1.7869   -0.0423 H   0  0  0  0  0  0  0  0  0  0  0  0
    6.5423   -1.0102    1.3688 H   0  0  0  0  0  0  0  0  0  0  0  0
    8.7720    0.0360    1.2560 H   0  0  0  0  0  0  0  0  0  0  0  0
    9.3512    1.5452   -0.6249 H   0  0  0  0  0  0  0  0  0  0  0  0
    7.6862    1.9954   -2.4089 H   0  0  0  0  0  0  0  0  0  0  0  0
    5.4578    0.9520   -2.3218 H   0  0  0  0  0  0  0  0  0  0  0  0
   -0.4336   -1.3724   -0.3004 H   0  0  0  0  0  0  0  0  0  0  0  0
   -3.1601   -0.3604   -1.2806 H   0  0  0  0  0  0  0  0  0  0  0  0
   -2.1344   -1.4290    1.4689 H   0  0  0  0  0  0  0  0  0  0  0  0
   -3.5470   -2.0442    0.5149 H   0  0  0  0  0  0  0  0  0  0  0  0
   -3.6009    0.9765    2.8539 H   0  0  0  0  0  0  0  0  0  0  0  0
   -1.9837    0.9400    2.1491 H   0  0  0  0  0  0  0  0  0  0  0  0
   -3.1510    2.1578    1.6069 H   0  0  0  0  0  0  0  0  0  0  0  0
   -5.6800   -1.1928    1.9783 H   0  0  0  0  0  0  0  0  0  0  0  0
   -8.0904   -0.9419    1.5143 H   0  0  0  0  0  0  0  0  0  0  0  0
   -8.8758    0.7264   -0.1468 H   0  0  0  0  0  0  0  0  0  0  0  0
   -7.2273    2.1514   -1.3367 H   0  0  0  0  0  0  0  0  0  0  0  0
   -4.8141    1.9055   -0.8781 H   0  0  0  0  0  0  0  0  0  0  0  0
  1  2  1  0
  2  3  1  0
  3  4  2  3
  4  5  1  0
  5  6  2  0
  6  7  1  0
  7  8  2  0
  8  9  1  0
  9 10  2  0
  2 11  2  3
 11 12  1  0
 12 13  1  0
 13 14  2  0
 13 15  1  0
 15 16  1  0
 16 17  1  0
 17 18  1  0
 17 19  1  0
 19 20  2  0
 20 21  1  0
 21 22  2  0
 22 23  1  0
 23 24  2  0
 10  5  1  0
 17 15  1  0
 24 19  1  0
  1 25  1  0
  1 26  1  0
  1 27  1  0
  3 28  1  0
  4 29  1  0
  6 30  1  0
  7 31  1  0
  8 32  1  0
  9 33  1  0
 10 34  1  0
 12 35  1  0
 15 36  1  0
 16 37  1  0
 16 38  1  0
 18 39  1  0
 18 40  1  0
 18 41  1  0
 20 42  1  0
 21 43  1  0
 22 44  1  0
 23 45  1  0
 24 46  1  0
M  END
$$$$
