
     RDKit          3D

 36 37  0  0  0  0  0  0  0  0999 V2000
   -3.3515    1.7678   -0.9752 C   0  0  0  0  0  0  0  0  0  0  0  0
   -2.4289    0.7267   -1.6009 C   0  0  0  0  0  0  0  0  0  0  0  0
   -1.5094    0.0939   -0.6433 N   0  0  0  0  0  0  0  0  0  0  0  0
   -2.1898   -0.6042    0.4662 C   0  0  0  0  0  0  0  0  0  0  0  0
   -3.1163   -1.7759    0.1025 C   0  0  0  0  0  0  0  0  0  0  0  0
   -3.6965   -2.3134    1.2882 O   0  0  0  0  0  0  0  0  0  0  0  0
   -0.5395   -0.7509   -1.3610 C   0  0  0  0  0  0  0  0  0  0  0  0
    0.6076   -1.1527   -0.4724 C   0  0  0  0  0  0  0  0  0  0  0  0
    0.8606   -2.4555   -0.0860 C   0  0  0  0  0  0  0  0  0  0  0  0
    2.2413   -2.6029    0.8969 S   0  0  0  0  0  0  0  0  0  0  0  0
    2.5595   -0.9141    0.8305 C   0  0  0  0  0  0  0  0  0  0  0  0
    3.6283   -0.2321    1.4490 C   0  0  0  0  0  0  0  0  0  0  0  0
    3.7480    1.1552    1.2892 C   0  0  0  0  0  0  0  0  0  0  0  0
    4.8598    1.8976    1.9713 C   0  0  0  0  0  0  0  0  0  0  0  0
    2.7939    1.8441    0.5454 C   0  0  0  0  0  0  0  0  0  0  0  0
    1.7362    1.1620   -0.0659 C   0  0  0  0  0  0  0  0  0  0  0  0
    1.6032   -0.2435    0.0641 C   0  0  0  0  0  0  0  0  0  0  0  0
   -4.0996    1.3100   -0.3213 H   0  0  0  0  0  0  0  0  0  0  0  0
   -3.8913    2.3064   -1.7613 H   0  0  0  0  0  0  0  0  0  0  0  0
   -2.7828    2.5031   -0.3965 H   0  0  0  0  0  0  0  0  0  0  0  0
   -1.8371    1.2529   -2.3610 H   0  0  0  0  0  0  0  0  0  0  0  0
   -3.0269   -0.0211   -2.1352 H   0  0  0  0  0  0  0  0  0  0  0  0
   -1.4495   -0.9604    1.1940 H   0  0  0  0  0  0  0  0  0  0  0  0
   -2.7627    0.1234    1.0551 H   0  0  0  0  0  0  0  0  0  0  0  0
   -2.5642   -2.5790   -0.3936 H   0  0  0  0  0  0  0  0  0  0  0  0
   -3.9322   -1.4488   -0.5483 H   0  0  0  0  0  0  0  0  0  0  0  0
   -4.2689   -3.0514    1.0180 H   0  0  0  0  0  0  0  0  0  0  0  0
   -1.0222   -1.6324   -1.8003 H   0  0  0  0  0  0  0  0  0  0  0  0
   -0.1057   -0.1913   -2.2011 H   0  0  0  0  0  0  0  0  0  0  0  0
    0.2893   -3.3388   -0.3356 H   0  0  0  0  0  0  0  0  0  0  0  0
    4.3503   -0.7846    2.0446 H   0  0  0  0  0  0  0  0  0  0  0  0
    5.1405    2.7903    1.4024 H   0  0  0  0  0  0  0  0  0  0  0  0
    5.7544    1.2714    2.0538 H   0  0  0  0  0  0  0  0  0  0  0  0
    4.5462    2.2013    2.9747 H   0  0  0  0  0  0  0  0  0  0  0  0
    2.8571    2.9244    0.4337 H   0  0  0  0  0  0  0  0  0  0  0  0
    0.9986    1.7226   -0.6354 H   0  0  0  0  0  0  0  0  0  0  0  0
  1  2  1  0
  2  3  1  0
  3  4  1  0
  4  5  1  0
  5  6  1  0
  3  7  1  0
  7  8  1  0
  8  9  2  0
  9 10  1  0
 10 11  1  0
 11 12  2  0
 12 13  1  0
 13 14  1  0
 13 15  2  0
 15 16  1  0
 16 17  2  0
 17  8  1  0
 17 11  1  0
  1 18  1  0
  1 19  1  0
  1 20  1  0
  2 21  1  0
  2 22  1  0
  4 23  1  0
  4 24  1  0
  5 25  1  0
  5 26  1  0
  6 27  1  0
  7 28  1  0
  7 29  1  0
  9 30  1  0
 12 31  1  0
 14 32  1  0
 14 33  1  0
 14 34  1  0
 15 35  1  0
 16 36  1  0
M  END
$$$$
