
     RDKit          3D

 69 71  0  0  0  0  0  0  0  0999 V2000
   -3.3320    1.5148   -5.1724 C   0  0  0  0  0  0  0  0  0  0  0  0
   -3.3601    1.7463   -3.7685 O   0  0  0  0  0  0  0  0  0  0  0  0
   -2.9706    0.7096   -2.9613 C   0  0  0  0  0  0  0  0  0  0  0  0
   -2.9798   -0.6259   -3.3692 C   0  0  0  0  0  0  0  0  0  0  0  0
   -2.5519   -1.6302   -2.5031 C   0  0  0  0  0  0  0  0  0  0  0  0
   -2.1132   -1.3089   -1.2203 C   0  0  0  0  0  0  0  0  0  0  0  0
   -2.1028    0.0229   -0.7707 C   0  0  0  0  0  0  0  0  0  0  0  0
   -1.6129    0.3805    0.6346 C   0  0  0  0  0  0  0  0  0  0  0  0
   -1.9828   -0.6391    1.7516 C   0  0  0  0  0  0  0  0  0  0  0  0
   -1.1673   -1.1039    2.5469 O   0  0  0  0  0  0  0  0  0  0  0  0
   -3.3449   -0.9145    1.8268 N   0  0  0  0  0  0  0  0  0  0  0  0
   -3.9535   -1.8701    2.7633 C   0  0  0  0  0  0  0  0  0  0  0  0
   -5.4835   -1.7876    2.5898 C   0  0  0  0  0  0  0  0  0  0  0  0
   -3.6241   -1.5199    4.2256 C   0  0  0  0  0  0  0  0  0  0  0  0
   -3.4982   -3.3008    2.4427 C   0  0  0  0  0  0  0  0  0  0  0  0
   -0.1892    0.7715    0.6896 N   0  0  0  0  0  0  0  0  0  0  0  0
    0.7943   -0.1411    0.3066 C   0  0  0  0  0  0  0  0  0  0  0  0
    0.5540   -1.3073   -0.0087 O   0  0  0  0  0  0  0  0  0  0  0  0
    2.2213    0.3839    0.2782 C   0  0  0  0  0  0  0  0  0  0  0  0
    3.1835   -0.6801   -0.2397 C   0  0  0  0  0  0  0  0  0  0  0  0
    4.6018   -0.1658   -0.3653 C   0  0  0  0  0  0  0  0  0  0  0  0
    4.8888    1.0189   -0.2229 O   0  0  0  0  0  0  0  0  0  0  0  0
    5.4829   -1.1791   -0.6690 N   0  0  0  0  0  0  0  0  0  0  0  0
    6.8296   -1.0191   -0.9093 C   0  0  0  0  0  0  0  0  0  0  0  0
    7.5937    0.1650   -0.9796 C   0  0  0  0  0  0  0  0  0  0  0  0
    8.8640   -0.2600   -1.2766 C   0  0  0  0  0  0  0  0  0  0  0  0
   10.1458    0.4284   -1.5147 C   0  0  0  0  0  0  0  0  0  0  0  0
    8.8726   -1.6163   -1.3526 O   0  0  0  0  0  0  0  0  0  0  0  0
    7.5926   -2.0934   -1.1360 N   0  0  0  0  0  0  0  0  0  0  0  0
    0.1118    2.1248    1.1084 C   0  0  0  0  0  0  0  0  0  0  0  0
    0.8017    2.3954    2.4269 C   0  0  0  0  0  0  0  0  0  0  0  0
   -0.6204    2.8110    2.2411 C   0  0  0  0  0  0  0  0  0  0  0  0
   -2.5572    1.0287   -1.6501 C   0  0  0  0  0  0  0  0  0  0  0  0
   -2.5062    2.3223   -1.1820 O   0  0  0  0  0  0  0  0  0  0  0  0
   -3.7419    3.0248   -1.3001 C   0  0  0  0  0  0  0  0  0  0  0  0
   -2.3561    1.1365   -5.4979 H   0  0  0  0  0  0  0  0  0  0  0  0
   -4.1402    0.8410   -5.4729 H   0  0  0  0  0  0  0  0  0  0  0  0
   -3.4995    2.4751   -5.6719 H   0  0  0  0  0  0  0  0  0  0  0  0
   -3.3184   -0.9192   -4.3577 H   0  0  0  0  0  0  0  0  0  0  0  0
   -2.5568   -2.6690   -2.8283 H   0  0  0  0  0  0  0  0  0  0  0  0
   -1.7590   -2.1140   -0.5728 H   0  0  0  0  0  0  0  0  0  0  0  0
   -2.2001    1.2595    0.9369 H   0  0  0  0  0  0  0  0  0  0  0  0
   -3.8897   -0.6796    1.0059 H   0  0  0  0  0  0  0  0  0  0  0  0
   -6.0038   -2.4906    3.2492 H   0  0  0  0  0  0  0  0  0  0  0  0
   -5.8476   -0.7786    2.8207 H   0  0  0  0  0  0  0  0  0  0  0  0
   -5.7806   -2.0146    1.5580 H   0  0  0  0  0  0  0  0  0  0  0  0
   -4.1884   -2.1510    4.9227 H   0  0  0  0  0  0  0  0  0  0  0  0
   -3.8700   -0.4749    4.4412 H   0  0  0  0  0  0  0  0  0  0  0  0
   -2.5628   -1.6664    4.4573 H   0  0  0  0  0  0  0  0  0  0  0  0
   -2.4146   -3.4190    2.5527 H   0  0  0  0  0  0  0  0  0  0  0  0
   -3.9843   -4.0260    3.1042 H   0  0  0  0  0  0  0  0  0  0  0  0
   -3.7515   -3.5701    1.4103 H   0  0  0  0  0  0  0  0  0  0  0  0
    2.2609    1.2667   -0.3692 H   0  0  0  0  0  0  0  0  0  0  0  0
    2.5243    0.6692    1.2897 H   0  0  0  0  0  0  0  0  0  0  0  0
    2.8669   -1.0213   -1.2350 H   0  0  0  0  0  0  0  0  0  0  0  0
    3.1793   -1.5486    0.4328 H   0  0  0  0  0  0  0  0  0  0  0  0
    5.1764   -2.1456   -0.6699 H   0  0  0  0  0  0  0  0  0  0  0  0
    7.2644    1.1865   -0.8578 H   0  0  0  0  0  0  0  0  0  0  0  0
    9.9829    1.3644   -2.0618 H   0  0  0  0  0  0  0  0  0  0  0  0
   10.6365    0.6647   -0.5661 H   0  0  0  0  0  0  0  0  0  0  0  0
   10.8203   -0.1932   -2.1103 H   0  0  0  0  0  0  0  0  0  0  0  0
    0.3788    2.7633    0.2656 H   0  0  0  0  0  0  0  0  0  0  0  0
    0.9994    1.5590    3.0882 H   0  0  0  0  0  0  0  0  0  0  0  0
    1.5627    3.1692    2.4596 H   0  0  0  0  0  0  0  0  0  0  0  0
   -0.8351    3.8662    2.1245 H   0  0  0  0  0  0  0  0  0  0  0  0
   -1.3643    2.2721    2.8177 H   0  0  0  0  0  0  0  0  0  0  0  0
   -4.6133    2.3619   -1.2888 H   0  0  0  0  0  0  0  0  0  0  0  0
   -3.8244    3.6931   -0.4367 H   0  0  0  0  0  0  0  0  0  0  0  0
   -3.7381    3.6470   -2.1998 H   0  0  0  0  0  0  0  0  0  0  0  0
  1  2  1  0
  2  3  1  0
  3  4  2  0
  4  5  1  0
  5  6  2  0
  6  7  1  0
  7  8  1  0
  8  9  1  0
  9 10  2  0
  9 11  1  0
 11 12  1  0
 12 13  1  0
 12 14  1  0
 12 15  1  0
  8 16  1  0
 16 17  1  0
 17 18  2  0
 17 19  1  0
 19 20  1  0
 20 21  1  0
 21 22  2  0
 21 23  1  0
 23 24  1  0
 24 25  1  0
 25 26  2  0
 26 27  1  0
 26 28  1  0
 28 29  1  0
 16 30  1  0
 30 31  1  0
 31 32  1  0
  7 33  2  0
 33 34  1  0
 34 35  1  0
 33  3  1  0
 29 24  2  0
 32 30  1  0
  1 36  1  0
  1 37  1  0
  1 38  1  0
  4 39  1  0
  5 40  1  0
  6 41  1  0
  8 42  1  0
 11 43  1  0
 13 44  1  0
 13 45  1  0
 13 46  1  0
 14 47  1  0
 14 48  1  0
 14 49  1  0
 15 50  1  0
 15 51  1  0
 15 52  1  0
 19 53  1  0
 19 54  1  0
 20 55  1  0
 20 56  1  0
 23 57  1  0
 25 58  1  0
 27 59  1  0
 27 60  1  0
 27 61  1  0
 30 62  1  0
 31 63  1  0
 31 64  1  0
 32 65  1  0
 32 66  1  0
 35 67  1  0
 35 68  1  0
 35 69  1  0
M  END
$$$$
