
     RDKit          3D

 46 48  0  0  0  0  0  0  0  0999 V2000
   -3.3688    1.6540   -1.0532 C   0  0  0  0  0  0  0  0  0  0  0  0
   -3.5113    0.1409   -1.0860 C   0  0  0  0  0  0  0  0  0  0  0  0
   -3.2858   -0.4585    0.2358 N   0  0  0  0  0  4  0  0  0  0  0  0
   -2.0912   -0.8691    0.6469 C   0  0  0  0  0  0  0  0  0  0  0  0
   -0.8819   -0.8257   -0.0922 C   0  0  0  0  0  0  0  0  0  0  0  0
    0.1553   -0.0750    0.3133 C   0  0  0  0  0  0  0  0  0  0  0  0
    1.4014   -0.0064   -0.4230 C   0  0  0  0  0  0  0  0  0  0  0  0
    2.4304    0.7754   -0.0490 C   0  0  0  0  0  0  0  0  0  0  0  0
    3.6543    0.8971   -0.7209 N   0  0  0  0  0  0  0  0  0  0  0  0
    4.4829    2.0372   -0.5260 C   0  0  0  0  0  0  0  0  0  0  0  0
    3.8651    3.2257    0.1837 C   0  0  0  0  0  0  0  0  0  0  0  0
    5.6579    2.1257   -0.8901 O   0  0  0  0  0  0  0  0  0  0  0  0
    4.1762   -0.1600   -1.5647 C   0  0  0  0  0  0  0  0  0  0  0  0
    4.0124   -1.5109   -1.2129 C   0  0  0  0  0  0  0  0  0  0  0  0
    4.5219   -2.5350   -2.0187 C   0  0  0  0  0  0  0  0  0  0  0  0
    5.2032   -2.2245   -3.1917 C   0  0  0  0  0  0  0  0  0  0  0  0
    5.3805   -0.8926   -3.5556 C   0  0  0  0  0  0  0  0  0  0  0  0
    4.8752    0.1308   -2.7459 C   0  0  0  0  0  0  0  0  0  0  0  0
   -2.1757   -1.5229    2.2335 S   0  0  0  0  0  0  0  0  0  0  0  0
   -3.8615   -1.1985    2.3490 C   0  0  0  0  0  0  0  0  0  0  0  0
   -4.7278   -1.4474    3.4237 C   0  0  0  0  0  0  0  0  0  0  0  0
   -6.0698   -1.0824    3.2863 C   0  0  0  0  0  0  0  0  0  0  0  0
   -6.5342   -0.4923    2.1153 C   0  0  0  0  0  0  0  0  0  0  0  0
   -5.6671   -0.2511    1.0425 C   0  0  0  0  0  0  0  0  0  0  0  0
   -4.3087   -0.6127    1.1659 C   0  0  0  0  0  0  0  0  0  0  0  0
   -3.5676    2.0739   -2.0442 H   0  0  0  0  0  0  0  0  0  0  0  0
   -2.3588    1.9469   -0.7512 H   0  0  0  0  0  0  0  0  0  0  0  0
   -4.0711    2.1023   -0.3434 H   0  0  0  0  0  0  0  0  0  0  0  0
   -4.5072   -0.1370   -1.4473 H   0  0  0  0  0  0  0  0  0  0  0  0
   -2.8126   -0.2853   -1.8149 H   0  0  0  0  0  0  0  0  0  0  0  0
   -0.8185   -1.4089   -1.0092 H   0  0  0  0  0  0  0  0  0  0  0  0
    0.0967    0.5172    1.2269 H   0  0  0  0  0  0  0  0  0  0  0  0
    1.4743   -0.6054   -1.3317 H   0  0  0  0  0  0  0  0  0  0  0  0
    2.3102    1.4146    0.8241 H   0  0  0  0  0  0  0  0  0  0  0  0
    3.8202    3.0389    1.2591 H   0  0  0  0  0  0  0  0  0  0  0  0
    4.4912    4.1064    0.0156 H   0  0  0  0  0  0  0  0  0  0  0  0
    2.8724    3.4518   -0.2165 H   0  0  0  0  0  0  0  0  0  0  0  0
    3.5343   -1.7876   -0.2766 H   0  0  0  0  0  0  0  0  0  0  0  0
    4.4115   -3.5750   -1.7149 H   0  0  0  0  0  0  0  0  0  0  0  0
    5.6152   -3.0177   -3.8108 H   0  0  0  0  0  0  0  0  0  0  0  0
    5.9301   -0.6417   -4.4591 H   0  0  0  0  0  0  0  0  0  0  0  0
    5.0379    1.1607   -3.0588 H   0  0  0  0  0  0  0  0  0  0  0  0
   -4.3725   -1.9114    4.3423 H   0  0  0  0  0  0  0  0  0  0  0  0
   -6.7606   -1.2636    4.1097 H   0  0  0  0  0  0  0  0  0  0  0  0
   -7.5857   -0.2152    2.0359 H   0  0  0  0  0  0  0  0  0  0  0  0
   -6.0723    0.2143    0.1468 H   0  0  0  0  0  0  0  0  0  0  0  0
  1  2  1  0
  2  3  1  0
  3  4  2  0
  4  5  1  0
  5  6  2  3
  6  7  1  0
  7  8  2  3
  8  9  1  0
  9 10  1  0
 10 11  1  0
 10 12  2  0
  9 13  1  0
 13 14  2  0
 14 15  1  0
 15 16  2  0
 16 17  1  0
 17 18  2  0
  4 19  1  0
 19 20  1  0
 20 21  2  0
 21 22  1  0
 22 23  2  0
 23 24  1  0
 24 25  2  0
 25  3  1  0
 18 13  1  0
 25 20  1  0
  1 26  1  0
  1 27  1  0
  1 28  1  0
  2 29  1  0
  2 30  1  0
  5 31  1  0
  6 32  1  0
  7 33  1  0
  8 34  1  0
 11 35  1  0
 11 36  1  0
 11 37  1  0
 14 38  1  0
 15 39  1  0
 16 40  1  0
 17 41  1  0
 18 42  1  0
 21 43  1  0
 22 44  1  0
 23 45  1  0
 24 46  1  0
M  CHG  1   3   1
M  END
$$$$
