
     RDKit          3D

 41 44  0  0  0  0  0  0  0  0999 V2000
   -0.2118    2.5056   -3.1712 O   0  0  0  0  0  0  0  0  0  0  0  0
    0.1773    1.9528   -1.8896 S   0  0  0  0  0  6  0  0  0  0  0  0
    1.0722    2.6764   -1.0114 O   0  0  0  0  0  0  0  0  0  0  0  0
    0.8227    0.4270   -2.2276 N   0  0  0  0  0  0  0  0  0  0  0  0
    1.0401   -0.4908   -1.1518 C   0  0  0  0  0  0  0  0  0  0  0  0
    2.0676   -0.1990   -0.2510 C   0  0  0  0  0  0  0  0  0  0  0  0
    2.2776   -0.9993    0.8714 C   0  0  0  0  0  0  0  0  0  0  0  0
    3.5737   -0.5950    2.0363 S   0  0  0  0  0  0  0  0  0  0  0  0
    3.1463    1.0396    2.4766 C   0  0  0  0  0  0  0  0  0  0  0  0
    1.8540    1.4711    2.6243 N   0  0  0  0  0  0  0  0  0  0  0  0
    1.9987    2.7496    2.8824 C   0  0  0  0  0  0  0  0  0  0  0  0
    3.3210    3.0601    2.9072 N   0  0  0  0  0  0  0  0  0  0  0  0
    4.0783    1.9763    2.6764 N   0  0  0  0  0  0  0  0  0  0  0  0
    1.4641   -2.1240    1.0601 C   0  0  0  0  0  0  0  0  0  0  0  0
    1.6605   -2.9374    2.1544 O   0  0  0  0  0  0  0  0  0  0  0  0
    0.4284   -2.4527    0.1581 C   0  0  0  0  0  0  0  0  0  0  0  0
   -0.3956   -3.5811    0.3552 C   0  0  0  0  0  0  0  0  0  0  0  0
   -1.4292   -3.8939   -0.5258 C   0  0  0  0  0  0  0  0  0  0  0  0
   -1.6627   -3.0822   -1.6252 C   0  0  0  0  0  0  0  0  0  0  0  0
   -0.8591   -1.9618   -1.8441 C   0  0  0  0  0  0  0  0  0  0  0  0
    0.2014   -1.6216   -0.9682 C   0  0  0  0  0  0  0  0  0  0  0  0
   -1.3115    1.5926   -0.9869 C   0  0  0  0  0  0  0  0  0  0  0  0
   -2.5237    1.4684   -1.6731 C   0  0  0  0  0  0  0  0  0  0  0  0
   -3.6896    1.1893   -0.9600 C   0  0  0  0  0  0  0  0  0  0  0  0
   -3.6429    1.0460    0.4279 C   0  0  0  0  0  0  0  0  0  0  0  0
   -2.4340    1.1914    1.1103 C   0  0  0  0  0  0  0  0  0  0  0  0
   -1.2651    1.4755    0.4057 C   0  0  0  0  0  0  0  0  0  0  0  0
    0.5048    0.0586   -3.1208 H   0  0  0  0  0  0  0  0  0  0  0  0
    2.6976    0.6718   -0.4237 H   0  0  0  0  0  0  0  0  0  0  0  0
    1.2135    3.4734    3.0472 H   0  0  0  0  0  0  0  0  0  0  0  0
    3.7670    3.9565    3.0675 H   0  0  0  0  0  0  0  0  0  0  0  0
    2.3814   -2.5431    2.6794 H   0  0  0  0  0  0  0  0  0  0  0  0
   -0.2324   -4.2279    1.2163 H   0  0  0  0  0  0  0  0  0  0  0  0
   -2.0495   -4.7679   -0.3462 H   0  0  0  0  0  0  0  0  0  0  0  0
   -2.4710   -3.3166   -2.3130 H   0  0  0  0  0  0  0  0  0  0  0  0
   -1.0836   -1.3515   -2.7142 H   0  0  0  0  0  0  0  0  0  0  0  0
   -2.5696    1.5869   -2.7530 H   0  0  0  0  0  0  0  0  0  0  0  0
   -4.6367    1.0851   -1.4838 H   0  0  0  0  0  0  0  0  0  0  0  0
   -4.5524    0.8240    0.9812 H   0  0  0  0  0  0  0  0  0  0  0  0
   -2.4010    1.0805    2.1916 H   0  0  0  0  0  0  0  0  0  0  0  0
   -0.3270    1.5874    0.9450 H   0  0  0  0  0  0  0  0  0  0  0  0
  1  2  2  0
  2  3  2  0
  2  4  1  0
  4  5  1  0
  5  6  2  0
  6  7  1  0
  7  8  1  0
  8  9  1  0
  9 10  1  0
 10 11  2  0
 11 12  1  0
 12 13  1  0
  7 14  2  0
 14 15  1  0
 14 16  1  0
 16 17  2  0
 17 18  1  0
 18 19  2  0
 19 20  1  0
 20 21  2  0
  2 22  1  0
 22 23  2  0
 23 24  1  0
 24 25  2  0
 25 26  1  0
 26 27  2  0
 21  5  1  0
 27 22  1  0
 13  9  2  0
 21 16  1  0
  4 28  1  0
  6 29  1  0
 11 30  1  0
 12 31  1  0
 15 32  1  0
 17 33  1  0
 18 34  1  0
 19 35  1  0
 20 36  1  0
 23 37  1  0
 24 38  1  0
 25 39  1  0
 26 40  1  0
 27 41  1  0
M  END
$$$$
