
     RDKit          3D

 32 33  0  0  0  0  0  0  0  0999 V2000
    3.9539   -1.6136    0.2339 C   0  0  0  0  0  0  0  0  0  0  0  0
    4.2563   -0.3250   -0.5117 C   0  0  0  0  0  0  0  0  0  0  0  0
    3.1448    1.0210   -0.0026 S   0  0  0  0  0  0  0  0  0  0  0  0
    1.6381    0.5454   -0.7178 C   0  0  0  0  0  0  0  0  0  0  0  0
    1.3386    0.0341   -1.9572 C   0  0  0  0  0  0  0  0  0  0  0  0
   -0.0062   -0.1812   -2.0846 N   0  0  0  0  0  0  0  0  0  0  0  0
   -0.5469    0.1919   -0.9389 C   0  0  0  0  0  0  0  0  0  0  0  0
   -1.9771    0.1468   -0.6463 C   0  0  0  0  0  0  0  0  0  0  0  0
   -2.8390    1.0749   -1.2424 C   0  0  0  0  0  0  0  0  0  0  0  0
   -4.2064    1.0483   -0.9622 C   0  0  0  0  0  0  0  0  0  0  0  0
   -4.7211    0.0876   -0.0924 C   0  0  0  0  0  0  0  0  0  0  0  0
   -3.8720   -0.8524    0.4904 C   0  0  0  0  0  0  0  0  0  0  0  0
   -2.5041   -0.8263    0.2109 C   0  0  0  0  0  0  0  0  0  0  0  0
    0.4285    0.6619   -0.0727 N   0  0  0  0  0  0  0  0  0  0  0  0
    0.1890    1.2259    1.2450 C   0  0  0  0  0  0  0  0  0  0  0  0
    0.4066    0.2242    2.3673 C   0  0  0  0  0  0  0  0  0  0  0  0
    2.9542   -1.9953    0.0023 H   0  0  0  0  0  0  0  0  0  0  0  0
    4.6744   -2.3863   -0.0544 H   0  0  0  0  0  0  0  0  0  0  0  0
    4.0314   -1.4773    1.3177 H   0  0  0  0  0  0  0  0  0  0  0  0
    5.2800   -0.0100   -0.2842 H   0  0  0  0  0  0  0  0  0  0  0  0
    4.1999   -0.4796   -1.5934 H   0  0  0  0  0  0  0  0  0  0  0  0
    2.0152   -0.1852   -2.7719 H   0  0  0  0  0  0  0  0  0  0  0  0
   -2.4450    1.8172   -1.9331 H   0  0  0  0  0  0  0  0  0  0  0  0
   -4.8696    1.7715   -1.4296 H   0  0  0  0  0  0  0  0  0  0  0  0
   -5.7870    0.0632    0.1202 H   0  0  0  0  0  0  0  0  0  0  0  0
   -4.2765   -1.6127    1.1536 H   0  0  0  0  0  0  0  0  0  0  0  0
   -1.8547   -1.5791    0.6509 H   0  0  0  0  0  0  0  0  0  0  0  0
    0.8450    2.0942    1.3688 H   0  0  0  0  0  0  0  0  0  0  0  0
   -0.8347    1.6124    1.2782 H   0  0  0  0  0  0  0  0  0  0  0  0
    0.2060    0.6936    3.3354 H   0  0  0  0  0  0  0  0  0  0  0  0
   -0.2566   -0.6398    2.2664 H   0  0  0  0  0  0  0  0  0  0  0  0
    1.4350   -0.1502    2.3805 H   0  0  0  0  0  0  0  0  0  0  0  0
  1  2  1  0
  2  3  1  0
  3  4  1  0
  4  5  2  0
  5  6  1  0
  6  7  2  0
  7  8  1  0
  8  9  2  0
  9 10  1  0
 10 11  2  0
 11 12  1  0
 12 13  2  0
  7 14  1  0
 14 15  1  0
 15 16  1  0
 14  4  1  0
 13  8  1  0
  1 17  1  0
  1 18  1  0
  1 19  1  0
  2 20  1  0
  2 21  1  0
  5 22  1  0
  9 23  1  0
 10 24  1  0
 11 25  1  0
 12 26  1  0
 13 27  1  0
 15 28  1  0
 15 29  1  0
 16 30  1  0
 16 31  1  0
 16 32  1  0
M  END
$$$$
