
     RDKit          3D

 39 42  0  0  0  0  0  0  0  0999 V2000
    5.9288    0.4679   -1.0872 C   0  0  0  0  0  0  0  0  0  0  0  0
    5.6115    1.6701   -0.4316 C   0  0  0  0  0  0  0  0  0  0  0  0
    4.3486    1.8662    0.1370 C   0  0  0  0  0  0  0  0  0  0  0  0
    3.4169    0.8466    0.0388 C   0  0  0  0  0  0  0  0  0  0  0  0
    3.7424   -0.3586   -0.6213 C   0  0  0  0  0  0  0  0  0  0  0  0
    4.9902   -0.5610   -1.1870 C   0  0  0  0  0  0  0  0  0  0  0  0
    2.5616   -1.3079   -0.5936 C   0  0  0  0  0  0  0  0  0  0  0  0
    1.5269   -0.4991    0.1616 C   0  0  0  0  0  0  0  0  0  0  0  0
    0.2319   -0.8638    0.4922 C   0  0  0  0  0  0  0  0  0  0  0  0
   -0.5651    0.0536    1.1966 C   0  0  0  0  0  0  0  0  0  0  0  0
   -1.9843   -0.3116    1.5849 C   0  0  0  0  0  0  0  0  0  0  0  0
   -2.8300   -0.6626    0.4321 N   0  0  0  0  0  0  0  0  0  0  0  0
   -3.1028    0.5151   -0.4224 C   0  0  0  0  0  0  0  0  0  0  0  0
   -4.0583    0.1600   -1.5732 C   0  0  0  0  0  0  0  0  0  0  0  0
   -5.2966   -0.3661   -1.0768 O   0  0  0  0  0  0  0  0  0  0  0  0
   -5.0476   -1.5366   -0.2879 C   0  0  0  0  0  0  0  0  0  0  0  0
   -4.1190   -1.2195    0.8943 C   0  0  0  0  0  0  0  0  0  0  0  0
   -0.0308    1.3121    1.5553 C   0  0  0  0  0  0  0  0  0  0  0  0
    1.2800    1.6701    1.2171 C   0  0  0  0  0  0  0  0  0  0  0  0
    2.0538    0.7595    0.5194 C   0  0  0  0  0  0  0  0  0  0  0  0
    6.9176    0.3395   -1.5214 H   0  0  0  0  0  0  0  0  0  0  0  0
    6.3586    2.4577   -0.3662 H   0  0  0  0  0  0  0  0  0  0  0  0
    4.1138    2.7974    0.6406 H   0  0  0  0  0  0  0  0  0  0  0  0
    5.2352   -1.4887   -1.6931 H   0  0  0  0  0  0  0  0  0  0  0  0
    2.2168   -1.5261   -1.6085 H   0  0  0  0  0  0  0  0  0  0  0  0
    2.8126   -2.2217   -0.0473 H   0  0  0  0  0  0  0  0  0  0  0  0
   -0.1642   -1.8336    0.2053 H   0  0  0  0  0  0  0  0  0  0  0  0
   -2.4412    0.4986    2.1686 H   0  0  0  0  0  0  0  0  0  0  0  0
   -1.9076   -1.1724    2.2629 H   0  0  0  0  0  0  0  0  0  0  0  0
   -3.5546    1.3155    0.1781 H   0  0  0  0  0  0  0  0  0  0  0  0
   -2.1743    0.9002   -0.8576 H   0  0  0  0  0  0  0  0  0  0  0  0
   -3.6042   -0.5672   -2.2573 H   0  0  0  0  0  0  0  0  0  0  0  0
   -4.2908    1.0598   -2.1517 H   0  0  0  0  0  0  0  0  0  0  0  0
   -4.6258   -2.3219   -0.9268 H   0  0  0  0  0  0  0  0  0  0  0  0
   -6.0125   -1.8947    0.0852 H   0  0  0  0  0  0  0  0  0  0  0  0
   -4.6205   -0.5021    1.5573 H   0  0  0  0  0  0  0  0  0  0  0  0
   -3.9458   -2.1415    1.4611 H   0  0  0  0  0  0  0  0  0  0  0  0
   -0.6427    2.0257    2.1033 H   0  0  0  0  0  0  0  0  0  0  0  0
    1.6717    2.6413    1.4993 H   0  0  0  0  0  0  0  0  0  0  0  0
  1  2  2  0
  2  3  1  0
  3  4  2  0
  4  5  1  0
  5  6  2  0
  5  7  1  0
  7  8  1  0
  8  9  2  0
  9 10  1  0
 10 11  1  0
 11 12  1  0
 12 13  1  0
 13 14  1  0
 14 15  1  0
 15 16  1  0
 16 17  1  0
 10 18  2  0
 18 19  1  0
 19 20  2  0
  6  1  1  0
 20  8  1  0
 20  4  1  0
 17 12  1  0
  1 21  1  0
  2 22  1  0
  3 23  1  0
  6 24  1  0
  7 25  1  0
  7 26  1  0
  9 27  1  0
 11 28  1  0
 11 29  1  0
 13 30  1  0
 13 31  1  0
 14 32  1  0
 14 33  1  0
 16 34  1  0
 16 35  1  0
 17 36  1  0
 17 37  1  0
 18 38  1  0
 19 39  1  0
M  END
$$$$
