
     RDKit          3D

 39 40  0  0  0  0  0  0  0  0999 V2000
   -1.9265   -1.9707   -0.6794 C   0  0  0  0  0  0  0  0  0  0  0  0
   -2.6082   -0.6334   -0.4643 C   0  0  0  0  0  0  0  0  0  0  0  0
   -1.9749    0.4279    0.0739 C   0  0  0  0  0  0  0  0  0  0  0  0
   -0.5293    0.4366    0.4389 C   0  0  0  0  0  0  0  0  0  0  0  0
    0.3921   -0.1969   -0.2120 N   0  0  0  0  0  0  0  0  0  0  0  0
    1.6668   -0.0315    0.2463 N   0  0  0  0  0  0  0  0  0  0  0  0
    2.7079   -0.6622   -0.4180 C   0  0  0  0  0  0  0  0  0  0  0  0
    2.5827   -1.3848   -1.4061 O   0  0  0  0  0  0  0  0  0  0  0  0
    4.0833   -0.3972    0.0874 C   0  0  0  0  0  0  0  0  0  0  0  0
    4.3212   -0.0302    1.4199 C   0  0  0  0  0  0  0  0  0  0  0  0
    5.6272    0.2242    1.8459 C   0  0  0  0  0  0  0  0  0  0  0  0
    5.9401    0.7241    3.6430 Br  0  0  0  0  0  0  0  0  0  0  0  0
    6.7022    0.1101    0.9662 C   0  0  0  0  0  0  0  0  0  0  0  0
    6.4739   -0.2780   -0.3531 C   0  0  0  0  0  0  0  0  0  0  0  0
    5.1749   -0.5403   -0.7852 C   0  0  0  0  0  0  0  0  0  0  0  0
    5.0442   -0.9376   -2.0896 O   0  0  0  0  0  0  0  0  0  0  0  0
   -2.7474    1.6586    0.3673 C   0  0  0  0  0  0  0  0  0  0  0  0
   -2.2062    2.5733    0.9900 O   0  0  0  0  0  0  0  0  0  0  0  0
   -4.0505    1.7019   -0.0736 N   0  0  0  0  0  0  0  0  0  0  0  0
   -4.8220    2.9064    0.1711 C   0  0  0  0  0  0  0  0  0  0  0  0
   -4.7202    0.6190   -0.6208 C   0  0  0  0  0  0  0  0  0  0  0  0
   -5.9215    0.6748   -0.8911 O   0  0  0  0  0  0  0  0  0  0  0  0
   -3.9580   -0.5334   -0.8269 N   0  0  0  0  0  0  0  0  0  0  0  0
   -4.6445   -1.6668   -1.4477 C   0  0  0  0  0  0  0  0  0  0  0  0
   -1.6189   -2.0780   -1.7244 H   0  0  0  0  0  0  0  0  0  0  0  0
   -2.5871   -2.8046   -0.4211 H   0  0  0  0  0  0  0  0  0  0  0  0
   -1.0535   -2.1183   -0.0393 H   0  0  0  0  0  0  0  0  0  0  0  0
   -0.2775    1.0743    1.3062 H   0  0  0  0  0  0  0  0  0  0  0  0
    1.8425    0.6727    0.9538 H   0  0  0  0  0  0  0  0  0  0  0  0
    3.5118    0.0329    2.1401 H   0  0  0  0  0  0  0  0  0  0  0  0
    7.7185    0.3082    1.2973 H   0  0  0  0  0  0  0  0  0  0  0  0
    7.3060   -0.3847   -1.0448 H   0  0  0  0  0  0  0  0  0  0  0  0
    4.1175   -1.2445   -2.2232 H   0  0  0  0  0  0  0  0  0  0  0  0
   -5.4895    3.1073   -0.6728 H   0  0  0  0  0  0  0  0  0  0  0  0
   -5.4286    2.7510    1.0691 H   0  0  0  0  0  0  0  0  0  0  0  0
   -4.1773    3.7767    0.3222 H   0  0  0  0  0  0  0  0  0  0  0  0
   -5.6118   -1.3829   -1.8720 H   0  0  0  0  0  0  0  0  0  0  0  0
   -4.8205   -2.4342   -0.6876 H   0  0  0  0  0  0  0  0  0  0  0  0
   -4.0386   -2.0697   -2.2652 H   0  0  0  0  0  0  0  0  0  0  0  0
  1  2  1  0
  2  3  2  0
  3  4  1  0
  4  5  2  3
  5  6  1  0
  6  7  1  0
  7  8  2  0
  7  9  1  0
  9 10  2  0
 10 11  1  0
 11 12  1  0
 11 13  2  0
 13 14  1  0
 14 15  2  0
 15 16  1  0
  3 17  1  0
 17 18  2  0
 17 19  1  0
 19 20  1  0
 19 21  1  0
 21 22  2  0
 21 23  1  0
 23 24  1  0
 23  2  1  0
 15  9  1  0
  1 25  1  0
  1 26  1  0
  1 27  1  0
  4 28  1  0
  6 29  1  0
 10 30  1  0
 13 31  1  0
 14 32  1  0
 16 33  1  0
 20 34  1  0
 20 35  1  0
 20 36  1  0
 24 37  1  0
 24 38  1  0
 24 39  1  0
M  END
$$$$
