
     RDKit          3D

 37 39  0  0  0  0  0  0  0  0999 V2000
    6.9987   -1.0016    1.1619 C   0  0  0  0  0  0  0  0  0  0  0  0
    6.6754    0.4589    0.8770 C   0  0  0  0  0  0  0  0  0  0  0  0
    6.0340    0.6791   -0.4946 C   0  0  0  0  0  0  0  0  0  0  0  0
    4.6661    0.0876   -0.6007 C   0  0  0  0  0  0  0  0  0  0  0  0
    4.3981   -1.0991   -1.1061 N   0  0  0  0  0  0  0  0  0  0  0  0
    3.0469   -1.3789   -1.0750 N   0  0  0  0  0  0  0  0  0  0  0  0
    2.3475   -0.3948   -0.5547 C   0  0  0  0  0  0  0  0  0  0  0  0
    0.9826   -0.4679   -0.4306 N   0  0  0  0  0  0  0  0  0  0  0  0
    0.1435    0.4948    0.0984 C   0  0  0  0  0  0  0  0  0  0  0  0
    0.4822    1.5833    0.5495 O   0  0  0  0  0  0  0  0  0  0  0  0
   -1.3222    0.0382    0.0608 C   0  0  0  0  0  0  0  0  0  0  0  0
   -2.1882    1.0254    0.5986 O   0  0  0  0  0  0  0  0  0  0  0  0
   -3.5255    0.7381    0.6258 C   0  0  0  0  0  0  0  0  0  0  0  0
   -4.3253    1.7591    1.1784 C   0  0  0  0  0  0  0  0  0  0  0  0
   -5.7131    1.6189    1.2775 C   0  0  0  0  0  0  0  0  0  0  0  0
   -6.2669    0.4474    0.8153 C   0  0  0  0  0  0  0  0  0  0  0  0
   -5.4918   -0.5517    0.2755 C   0  0  0  0  0  0  0  0  0  0  0  0
   -4.1195   -0.4399    0.1652 C   0  0  0  0  0  0  0  0  0  0  0  0
   -6.2310   -1.6238   -0.1202 O   0  0  0  0  0  0  0  0  0  0  0  0
   -7.5594   -1.1829    0.2334 C   0  0  0  0  0  0  0  0  0  0  0  0
   -7.5886    0.1310    0.8275 O   0  0  0  0  0  0  0  0  0  0  0  0
    3.2769    0.9440   -0.0649 S   0  0  0  0  0  0  0  0  0  0  0  0
    6.0906   -1.6089    1.2235 H   0  0  0  0  0  0  0  0  0  0  0  0
    7.6430   -1.4206    0.3824 H   0  0  0  0  0  0  0  0  0  0  0  0
    7.5238   -1.0902    2.1184 H   0  0  0  0  0  0  0  0  0  0  0  0
    6.0282    0.8474    1.6722 H   0  0  0  0  0  0  0  0  0  0  0  0
    7.6090    1.0327    0.9193 H   0  0  0  0  0  0  0  0  0  0  0  0
    6.6733    0.2480   -1.2748 H   0  0  0  0  0  0  0  0  0  0  0  0
    5.9867    1.7561   -0.6984 H   0  0  0  0  0  0  0  0  0  0  0  0
    0.6028   -1.3384   -0.7764 H   0  0  0  0  0  0  0  0  0  0  0  0
   -1.3919   -0.8841    0.6507 H   0  0  0  0  0  0  0  0  0  0  0  0
   -1.5777   -0.1536   -0.9887 H   0  0  0  0  0  0  0  0  0  0  0  0
   -3.8523    2.6727    1.5342 H   0  0  0  0  0  0  0  0  0  0  0  0
   -6.3287    2.4033    1.7022 H   0  0  0  0  0  0  0  0  0  0  0  0
   -3.5613   -1.2582   -0.2685 H   0  0  0  0  0  0  0  0  0  0  0  0
   -8.1774   -1.1726   -0.6718 H   0  0  0  0  0  0  0  0  0  0  0  0
   -7.9884   -1.8989    0.9440 H   0  0  0  0  0  0  0  0  0  0  0  0
  1  2  1  0
  2  3  1  0
  3  4  1  0
  4  5  2  0
  5  6  1  0
  6  7  2  0
  7  8  1  0
  8  9  1  0
  9 10  2  0
  9 11  1  0
 11 12  1  0
 12 13  1  0
 13 14  2  0
 14 15  1  0
 15 16  2  0
 16 17  1  0
 17 18  2  0
 17 19  1  0
 19 20  1  0
 20 21  1  0
  7 22  1  0
 22  4  1  0
 18 13  1  0
 21 16  1  0
  1 23  1  0
  1 24  1  0
  1 25  1  0
  2 26  1  0
  2 27  1  0
  3 28  1  0
  3 29  1  0
  8 30  1  0
 11 31  1  0
 11 32  1  0
 14 33  1  0
 15 34  1  0
 18 35  1  0
 20 36  1  0
 20 37  1  0
M  END
$$$$
