
     RDKit          3D

 46 48  0  0  0  0  0  0  0  0999 V2000
    1.2591    2.3310   -2.4468 O   0  0  0  0  0  0  0  0  0  0  0  0
    0.8271    2.1146   -1.3139 C   0  0  0  0  0  0  0  0  0  0  0  0
   -0.1494    3.0540   -0.6061 C   0  0  0  0  0  0  0  0  0  0  0  0
   -0.7832    2.5184    0.5466 O   0  0  0  0  0  0  0  0  0  0  0  0
   -1.8825    1.7255    0.3677 C   0  0  0  0  0  0  0  0  0  0  0  0
   -2.5180    1.3417    1.5494 C   0  0  0  0  0  0  0  0  0  0  0  0
   -3.6503    0.5217    1.5185 C   0  0  0  0  0  0  0  0  0  0  0  0
   -4.1741    0.0635    0.3014 C   0  0  0  0  0  0  0  0  0  0  0  0
   -5.3665   -0.7982    0.2623 C   0  0  0  0  0  0  0  0  0  0  0  0
   -5.4203   -1.9943    0.9975 C   0  0  0  0  0  0  0  0  0  0  0  0
   -6.5521   -2.8136    0.9596 C   0  0  0  0  0  0  0  0  0  0  0  0
   -7.6510   -2.4492    0.1858 C   0  0  0  0  0  0  0  0  0  0  0  0
   -7.6191   -1.2672   -0.5499 C   0  0  0  0  0  0  0  0  0  0  0  0
   -6.4860   -0.4497   -0.5119 C   0  0  0  0  0  0  0  0  0  0  0  0
   -3.5221    0.4524   -0.8792 C   0  0  0  0  0  0  0  0  0  0  0  0
   -2.3863    1.2729   -0.8498 C   0  0  0  0  0  0  0  0  0  0  0  0
    1.2167    1.0183   -0.5692 N   0  0  0  0  0  0  0  0  0  0  0  0
    2.3555    0.3097   -1.0219 N   0  0  0  0  0  0  0  0  0  0  0  0
    3.4037    0.2092   -0.1146 C   0  0  0  0  0  0  0  0  0  0  0  0
    3.2810    0.5626    1.0537 O   0  0  0  0  0  0  0  0  0  0  0  0
    4.5203   -0.3406   -0.7001 N   0  0  0  0  0  0  0  0  0  0  0  0
    5.7840   -0.5593   -0.1142 C   0  0  0  0  0  0  0  0  0  0  0  0
    6.1407   -0.1368    1.1682 C   0  0  0  0  0  0  0  0  0  0  0  0
    7.4260   -0.3957    1.6578 C   0  0  0  0  0  0  0  0  0  0  0  0
    8.3491   -1.0716    0.8655 C   0  0  0  0  0  0  0  0  0  0  0  0
    9.5766   -1.3124    1.3432 F   0  0  0  0  0  0  0  0  0  0  0  0
    8.0179   -1.4963   -0.4118 C   0  0  0  0  0  0  0  0  0  0  0  0
    6.7395   -1.2349   -0.8890 C   0  0  0  0  0  0  0  0  0  0  0  0
    6.4146   -1.6403   -2.1275 F   0  0  0  0  0  0  0  0  0  0  0  0
   -0.8785    3.4483   -1.3233 H   0  0  0  0  0  0  0  0  0  0  0  0
    0.4458    3.9093   -0.2654 H   0  0  0  0  0  0  0  0  0  0  0  0
   -2.1343    1.6864    2.5067 H   0  0  0  0  0  0  0  0  0  0  0  0
   -4.1298    0.2519    2.4576 H   0  0  0  0  0  0  0  0  0  0  0  0
   -4.5685   -2.3035    1.6003 H   0  0  0  0  0  0  0  0  0  0  0  0
   -6.5724   -3.7367    1.5331 H   0  0  0  0  0  0  0  0  0  0  0  0
   -8.5316   -3.0854    0.1568 H   0  0  0  0  0  0  0  0  0  0  0  0
   -8.4763   -0.9776   -1.1521 H   0  0  0  0  0  0  0  0  0  0  0  0
   -6.4868    0.4755   -1.0851 H   0  0  0  0  0  0  0  0  0  0  0  0
   -3.8899    0.1023   -1.8424 H   0  0  0  0  0  0  0  0  0  0  0  0
   -1.9253    1.5233   -1.7995 H   0  0  0  0  0  0  0  0  0  0  0  0
    1.0926    1.0455    0.4458 H   0  0  0  0  0  0  0  0  0  0  0  0
    2.6085    0.5439   -1.9810 H   0  0  0  0  0  0  0  0  0  0  0  0
    4.3980   -0.7271   -1.6286 H   0  0  0  0  0  0  0  0  0  0  0  0
    5.4461    0.3974    1.8095 H   0  0  0  0  0  0  0  0  0  0  0  0
    7.7099   -0.0710    2.6548 H   0  0  0  0  0  0  0  0  0  0  0  0
    8.7418   -2.0179   -1.0254 H   0  0  0  0  0  0  0  0  0  0  0  0
  1  2  2  0
  2  3  1  0
  3  4  1  0
  4  5  1  0
  5  6  2  0
  6  7  1  0
  7  8  2  0
  8  9  1  0
  9 10  2  0
 10 11  1  0
 11 12  2  0
 12 13  1  0
 13 14  2  0
  8 15  1  0
 15 16  2  0
  2 17  1  0
 17 18  1  0
 18 19  1  0
 19 20  2  0
 19 21  1  0
 21 22  1  0
 22 23  2  0
 23 24  1  0
 24 25  2  0
 25 26  1  0
 25 27  1  0
 27 28  2  0
 28 29  1  0
 16  5  1  0
 28 22  1  0
 14  9  1  0
  3 30  1  0
  3 31  1  0
  6 32  1  0
  7 33  1  0
 10 34  1  0
 11 35  1  0
 12 36  1  0
 13 37  1  0
 14 38  1  0
 15 39  1  0
 16 40  1  0
 17 41  1  0
 18 42  1  0
 21 43  1  0
 23 44  1  0
 24 45  1  0
 27 46  1  0
M  END
$$$$
