
     RDKit          3D

 50 53  0  0  0  0  0  0  0  0999 V2000
    7.7938    2.4734    0.4068 C   0  0  0  0  0  0  0  0  0  0  0  0
    6.4516    2.9092    0.2303 O   0  0  0  0  0  0  0  0  0  0  0  0
    5.4871    1.9410    0.2106 C   0  0  0  0  0  0  0  0  0  0  0  0
    4.1866    2.4134    0.0396 C   0  0  0  0  0  0  0  0  0  0  0  0
    3.1004    1.5298    0.0011 C   0  0  0  0  0  0  0  0  0  0  0  0
    3.2832    0.1431    0.1370 C   0  0  0  0  0  0  0  0  0  0  0  0
    2.1557   -0.8142    0.1043 C   0  0  0  0  0  0  0  0  0  0  0  0
    0.8717   -0.4889    0.5065 C   0  0  0  0  0  0  0  0  0  0  0  0
   -0.1172   -1.4727    0.4362 C   0  0  0  0  0  0  0  0  0  0  0  0
   -1.4844   -1.0934    0.8588 C   0  0  0  0  0  0  0  0  0  0  0  0
   -1.9724   -1.6551    1.8288 O   0  0  0  0  0  0  0  0  0  0  0  0
   -2.0531   -0.1195    0.0607 N   0  0  0  0  0  0  0  0  0  0  0  0
   -3.3206    0.4803    0.2165 C   0  0  0  0  0  0  0  0  0  0  0  0
   -4.1804    0.2137    1.2771 C   0  0  0  0  0  0  0  0  0  0  0  0
   -5.4034    0.8829    1.3758 C   0  0  0  0  0  0  0  0  0  0  0  0
   -5.7970    1.8183    0.4068 C   0  0  0  0  0  0  0  0  0  0  0  0
   -7.1040    2.5415    0.5789 C   0  0  0  0  0  0  0  0  0  0  0  0
   -4.9677    2.0439   -0.7037 C   0  0  0  0  0  0  0  0  0  0  0  0
   -5.2593    3.0437   -1.6464 N   0  0  0  0  0  0  0  0  0  0  0  0
   -3.7158    1.4107   -0.7548 C   0  0  0  0  0  0  0  0  0  0  0  0
    0.1731   -2.7758   -0.0128 C   0  0  0  0  0  0  0  0  0  0  0  0
   -0.7688   -3.8312   -0.1073 C   0  0  0  0  0  0  0  0  0  0  0  0
   -0.3921   -5.0888   -0.5737 C   0  0  0  0  0  0  0  0  0  0  0  0
    0.9241   -5.3090   -0.9529 C   0  0  0  0  0  0  0  0  0  0  0  0
    1.8535   -4.2701   -0.8612 C   0  0  0  0  0  0  0  0  0  0  0  0
    1.5039   -3.0082   -0.3983 C   0  0  0  0  0  0  0  0  0  0  0  0
    2.4553   -2.0591   -0.3444 N   0  0  0  0  0  0  0  0  0  0  0  0
    4.6054   -0.3114    0.3004 C   0  0  0  0  0  0  0  0  0  0  0  0
    5.6942    0.5712    0.3394 C   0  0  0  0  0  0  0  0  0  0  0  0
    8.1115    1.8291   -0.4196 H   0  0  0  0  0  0  0  0  0  0  0  0
    7.9227    1.9723    1.3719 H   0  0  0  0  0  0  0  0  0  0  0  0
    8.4359    3.3595    0.4037 H   0  0  0  0  0  0  0  0  0  0  0  0
    4.0145    3.4818   -0.0694 H   0  0  0  0  0  0  0  0  0  0  0  0
    2.1111    1.9524   -0.1540 H   0  0  0  0  0  0  0  0  0  0  0  0
    0.6353    0.4935    0.9017 H   0  0  0  0  0  0  0  0  0  0  0  0
   -1.5240    0.1753   -0.7508 H   0  0  0  0  0  0  0  0  0  0  0  0
   -3.9229   -0.4922    2.0603 H   0  0  0  0  0  0  0  0  0  0  0  0
   -6.0424    0.6749    2.2317 H   0  0  0  0  0  0  0  0  0  0  0  0
   -7.7933    2.2737   -0.2282 H   0  0  0  0  0  0  0  0  0  0  0  0
   -6.9441    3.6245    0.5795 H   0  0  0  0  0  0  0  0  0  0  0  0
   -7.5866    2.2825    1.5274 H   0  0  0  0  0  0  0  0  0  0  0  0
   -6.2513    3.2275   -1.7563 H   0  0  0  0  0  0  0  0  0  0  0  0
   -4.7991    2.9124   -2.5413 H   0  0  0  0  0  0  0  0  0  0  0  0
   -3.0449    1.6520   -1.5747 H   0  0  0  0  0  0  0  0  0  0  0  0
   -1.8042   -3.6804    0.1951 H   0  0  0  0  0  0  0  0  0  0  0  0
   -1.1236   -5.8906   -0.6344 H   0  0  0  0  0  0  0  0  0  0  0  0
    1.2344   -6.2851   -1.3169 H   0  0  0  0  0  0  0  0  0  0  0  0
    2.8838   -4.4513   -1.1599 H   0  0  0  0  0  0  0  0  0  0  0  0
    4.7990   -1.3789    0.4037 H   0  0  0  0  0  0  0  0  0  0  0  0
    6.6846    0.1489    0.4704 H   0  0  0  0  0  0  0  0  0  0  0  0
  1  2  1  0
  2  3  1  0
  3  4  2  0
  4  5  1  0
  5  6  2  0
  6  7  1  0
  7  8  2  0
  8  9  1  0
  9 10  1  0
 10 11  2  0
 10 12  1  0
 12 13  1  0
 13 14  2  0
 14 15  1  0
 15 16  2  0
 16 17  1  0
 16 18  1  0
 18 19  1  0
 18 20  2  0
  9 21  2  0
 21 22  1  0
 22 23  2  0
 23 24  1  0
 24 25  2  0
 25 26  1  0
 26 27  2  0
  6 28  1  0
 28 29  2  0
 29  3  1  0
 27  7  1  0
 20 13  1  0
 26 21  1  0
  1 30  1  0
  1 31  1  0
  1 32  1  0
  4 33  1  0
  5 34  1  0
  8 35  1  0
 12 36  1  0
 14 37  1  0
 15 38  1  0
 17 39  1  0
 17 40  1  0
 17 41  1  0
 19 42  1  0
 19 43  1  0
 20 44  1  0
 22 45  1  0
 23 46  1  0
 24 47  1  0
 25 48  1  0
 28 49  1  0
 29 50  1  0
M  END
$$$$
