
     RDKit          3D

 47 50  0  0  0  0  0  0  0  0999 V2000
   -6.8559    1.3523    2.6612 C   0  0  0  0  0  0  0  0  0  0  0  0
   -6.2335    0.1501    1.9672 C   0  0  0  0  0  0  0  0  0  0  0  0
   -5.1920    0.5641    0.9301 C   0  0  0  0  0  0  0  0  0  0  0  0
   -4.6717   -0.6133    0.2980 O   0  0  0  0  0  0  0  0  0  0  0  0
   -3.3244   -0.8041    0.4751 C   0  0  0  0  0  0  0  0  0  0  0  0
   -2.7511   -0.8236    1.7506 C   0  0  0  0  0  0  0  0  0  0  0  0
   -1.3860   -1.0717    1.8983 C   0  0  0  0  0  0  0  0  0  0  0  0
   -0.5868   -1.3058    0.7731 C   0  0  0  0  0  0  0  0  0  0  0  0
    0.8435   -1.5715    0.9625 C   0  0  0  0  0  0  0  0  0  0  0  0
    1.8551   -0.8050    0.5321 C   0  0  0  0  0  0  0  0  0  0  0  0
    1.7440    0.6992   -0.3600 S   0  0  0  0  0  0  0  0  0  0  0  0
    3.4553    0.8190   -0.3581 C   0  0  0  0  0  0  0  0  0  0  0  0
    4.3287    1.6575   -0.8344 N   0  0  0  0  0  0  0  0  0  0  0  0
    5.5214    1.0786   -0.4264 C   0  0  0  0  0  0  0  0  0  0  0  0
    6.9123    1.7137   -0.7548 C   0  0  0  0  0  0  0  0  0  0  0  0
    8.1412    1.2134   -0.3670 C   0  0  0  0  0  0  0  0  0  0  0  0
    9.1210    2.0980   -0.8773 C   0  0  0  0  0  0  0  0  0  0  0  0
    8.4335    3.0836   -1.5444 C   0  0  0  0  0  0  0  0  0  0  0  0
    7.0961    2.8609   -1.4765 O   0  0  0  0  0  0  0  0  0  0  0  0
    5.3930   -0.0717    0.2690 N   0  0  0  0  0  0  0  0  0  0  0  0
    4.0555   -0.2026    0.2819 N   0  0  0  0  0  0  0  0  0  0  0  0
    3.2689   -1.1926    0.8294 C   0  0  0  0  0  0  0  0  0  0  0  0
    3.7016   -2.1631    1.4230 O   0  0  0  0  0  0  0  0  0  0  0  0
   -1.1711   -1.3186   -0.5027 C   0  0  0  0  0  0  0  0  0  0  0  0
   -2.5423   -1.0863   -0.6577 C   0  0  0  0  0  0  0  0  0  0  0  0
   -3.1844   -1.0536   -1.8685 O   0  0  0  0  0  0  0  0  0  0  0  0
   -2.6652   -1.8640   -2.9204 C   0  0  0  0  0  0  0  0  0  0  0  0
   -1.9445   -0.9944   -3.9347 C   0  0  0  0  0  0  0  0  0  0  0  0
   -7.5984    1.0204    3.3957 H   0  0  0  0  0  0  0  0  0  0  0  0
   -6.0930    1.9399    3.1864 H   0  0  0  0  0  0  0  0  0  0  0  0
   -7.3615    2.0072    1.9437 H   0  0  0  0  0  0  0  0  0  0  0  0
   -5.7737   -0.5103    2.7117 H   0  0  0  0  0  0  0  0  0  0  0  0
   -7.0202   -0.4469    1.4863 H   0  0  0  0  0  0  0  0  0  0  0  0
   -4.4124    1.1960    1.3743 H   0  0  0  0  0  0  0  0  0  0  0  0
   -5.6734    1.1637    0.1465 H   0  0  0  0  0  0  0  0  0  0  0  0
   -3.3603   -0.6648    2.6369 H   0  0  0  0  0  0  0  0  0  0  0  0
   -0.9574   -1.0809    2.8989 H   0  0  0  0  0  0  0  0  0  0  0  0
    1.0577   -2.4732    1.5345 H   0  0  0  0  0  0  0  0  0  0  0  0
    8.2999    0.3190    0.2199 H   0  0  0  0  0  0  0  0  0  0  0  0
   10.1948    2.0287   -0.7708 H   0  0  0  0  0  0  0  0  0  0  0  0
    8.7314    3.9664   -2.0939 H   0  0  0  0  0  0  0  0  0  0  0  0
   -0.5430   -1.5023   -1.3692 H   0  0  0  0  0  0  0  0  0  0  0  0
   -3.5261   -2.3343   -3.4069 H   0  0  0  0  0  0  0  0  0  0  0  0
   -2.0316   -2.6843   -2.5650 H   0  0  0  0  0  0  0  0  0  0  0  0
   -1.0928   -0.4771   -3.4822 H   0  0  0  0  0  0  0  0  0  0  0  0
   -2.6174   -0.2194   -4.3167 H   0  0  0  0  0  0  0  0  0  0  0  0
   -1.5845   -1.5960   -4.7749 H   0  0  0  0  0  0  0  0  0  0  0  0
  1  2  1  0
  2  3  1  0
  3  4  1  0
  4  5  1  0
  5  6  2  0
  6  7  1  0
  7  8  2  0
  8  9  1  0
  9 10  2  3
 10 11  1  0
 11 12  1  0
 12 13  2  0
 13 14  1  0
 14 15  1  0
 15 16  2  0
 16 17  1  0
 17 18  2  0
 18 19  1  0
 14 20  2  0
 20 21  1  0
 21 22  1  0
 22 23  2  0
  8 24  1  0
 24 25  2  0
 25 26  1  0
 26 27  1  0
 27 28  1  0
 25  5  1  0
 22 10  1  0
 21 12  1  0
 19 15  1  0
  1 29  1  0
  1 30  1  0
  1 31  1  0
  2 32  1  0
  2 33  1  0
  3 34  1  0
  3 35  1  0
  6 36  1  0
  7 37  1  0
  9 38  1  0
 16 39  1  0
 17 40  1  0
 18 41  1  0
 24 42  1  0
 27 43  1  0
 27 44  1  0
 28 45  1  0
 28 46  1  0
 28 47  1  0
M  END
$$$$
