
     RDKit          3D

 35 37  0  0  0  0  0  0  0  0999 V2000
   -2.7458    3.8148    4.4566 C   0  0  0  0  0  0  0  0  0  0  0  0
   -1.3580    3.6255    4.2101 O   0  0  0  0  0  0  0  0  0  0  0  0
   -1.0225    2.7794    3.1897 C   0  0  0  0  0  0  0  0  0  0  0  0
    0.3479    2.6769    2.9426 C   0  0  0  0  0  0  0  0  0  0  0  0
    0.8302    1.8483    1.9257 C   0  0  0  0  0  0  0  0  0  0  0  0
   -0.0581    1.1136    1.1356 C   0  0  0  0  0  0  0  0  0  0  0  0
    0.4769    0.2309    0.0908 C   0  0  0  0  0  0  0  0  0  0  0  0
    0.1831    0.2666   -1.2265 C   0  0  0  0  0  0  0  0  0  0  0  0
   -0.7152    1.2458   -1.7666 C   0  0  0  0  0  0  0  0  0  0  0  0
   -1.4474    2.0323   -2.2083 N   0  0  0  0  0  0  0  0  0  0  0  0
    0.7769   -0.6540   -2.1580 C   0  0  0  0  0  0  0  0  0  0  0  0
    1.3490   -0.2897   -3.3605 C   0  0  0  0  0  0  0  0  0  0  0  0
    1.8159   -1.4244   -3.9691 N   0  0  0  0  0  0  0  0  0  0  0  0
    1.5528   -2.5269   -3.1891 C   0  0  0  0  0  0  0  0  0  0  0  0
    1.8442   -3.8774   -3.4173 C   0  0  0  0  0  0  0  0  0  0  0  0
    1.4442   -4.8011   -2.4483 C   0  0  0  0  0  0  0  0  0  0  0  0
    0.7755   -4.3892   -1.2992 C   0  0  0  0  0  0  0  0  0  0  0  0
    0.4917   -3.0351   -1.0857 C   0  0  0  0  0  0  0  0  0  0  0  0
    0.8926   -2.0771   -2.0428 C   0  0  0  0  0  0  0  0  0  0  0  0
   -1.4301    1.2023    1.3955 C   0  0  0  0  0  0  0  0  0  0  0  0
   -1.9106    2.0356    2.4135 C   0  0  0  0  0  0  0  0  0  0  0  0
   -2.8447    4.5368    5.2728 H   0  0  0  0  0  0  0  0  0  0  0  0
   -3.2192    2.8815    4.7788 H   0  0  0  0  0  0  0  0  0  0  0  0
   -3.2505    4.2328    3.5792 H   0  0  0  0  0  0  0  0  0  0  0  0
    1.0471    3.2504    3.5465 H   0  0  0  0  0  0  0  0  0  0  0  0
    1.9030    1.7917    1.7561 H   0  0  0  0  0  0  0  0  0  0  0  0
    1.2059   -0.4903    0.4574 H   0  0  0  0  0  0  0  0  0  0  0  0
    1.4712    0.6749   -3.8374 H   0  0  0  0  0  0  0  0  0  0  0  0
    2.2820   -1.4555   -4.8657 H   0  0  0  0  0  0  0  0  0  0  0  0
    2.3591   -4.2038   -4.3153 H   0  0  0  0  0  0  0  0  0  0  0  0
    1.6546   -5.8579   -2.5976 H   0  0  0  0  0  0  0  0  0  0  0  0
    0.4667   -5.1252   -0.5607 H   0  0  0  0  0  0  0  0  0  0  0  0
   -0.0400   -2.7346   -0.1876 H   0  0  0  0  0  0  0  0  0  0  0  0
   -2.1453    0.6253    0.8128 H   0  0  0  0  0  0  0  0  0  0  0  0
   -2.9830    2.0769    2.5722 H   0  0  0  0  0  0  0  0  0  0  0  0
  1  2  1  0
  2  3  1  0
  3  4  2  0
  4  5  1  0
  5  6  2  0
  6  7  1  0
  7  8  2  3
  8  9  1  0
  9 10  3  0
  8 11  1  0
 11 12  2  0
 12 13  1  0
 13 14  1  0
 14 15  2  0
 15 16  1  0
 16 17  2  0
 17 18  1  0
 18 19  2  0
  6 20  1  0
 20 21  2  0
 21  3  1  0
 19 11  1  0
 19 14  1  0
  1 22  1  0
  1 23  1  0
  1 24  1  0
  4 25  1  0
  5 26  1  0
  7 27  1  0
 12 28  1  0
 13 29  1  0
 15 30  1  0
 16 31  1  0
 17 32  1  0
 18 33  1  0
 20 34  1  0
 21 35  1  0
M  END
$$$$
