
     RDKit          3D

 39 39  0  0  0  0  0  0  0  0999 V2000
    0.0368   -4.5583    0.5655 C   0  0  0  0  0  0  0  0  0  0  0  0
   -1.0602   -3.5195    0.6913 C   0  0  0  0  0  0  0  0  0  0  0  0
   -0.4725   -2.2278    0.4962 O   0  0  0  0  0  0  0  0  0  0  0  0
   -1.3308   -1.1791    0.5827 C   0  0  0  0  0  0  0  0  0  0  0  0
   -2.5325   -1.3064    0.8277 O   0  0  0  0  0  0  0  0  0  0  0  0
   -0.6793    0.1989    0.3290 C   0  0  0  0  0  0  0  0  0  0  0  0
   -1.7659    0.9247   -0.3908 N   0  0  0  0  0  0  0  0  0  0  0  0
   -1.6905    2.2604   -0.6902 C   0  0  0  0  0  0  0  0  0  0  0  0
   -0.6388    2.8828   -0.6232 O   0  0  0  0  0  0  0  0  0  0  0  0
   -3.0070    2.8519   -1.1496 C   0  0  0  0  0  0  0  0  0  0  0  0
   -2.8934    4.3312   -1.4702 C   0  0  0  0  0  0  0  0  0  0  0  0
    0.4223    0.1759   -0.6695 N   0  0  0  0  0  0  0  0  0  0  0  0
    1.7697   -0.0370   -0.3641 C   0  0  0  0  0  0  0  0  0  0  0  0
    2.2481   -0.8587    0.6584 C   0  0  0  0  0  0  0  0  0  0  0  0
    3.6213   -1.0712    0.8444 C   0  0  0  0  0  0  0  0  0  0  0  0
    4.5465   -0.4886   -0.0137 C   0  0  0  0  0  0  0  0  0  0  0  0
    4.0969    0.2946   -1.0680 C   0  0  0  0  0  0  0  0  0  0  0  0
    2.7253    0.5015   -1.2452 C   0  0  0  0  0  0  0  0  0  0  0  0
   -0.3973    0.7783    1.7476 C   0  0  0  0  0  0  0  0  0  0  0  0
    0.4389    1.8414    1.7381 F   0  0  0  0  0  0  0  0  0  0  0  0
    0.1345   -0.1361    2.5963 F   0  0  0  0  0  0  0  0  0  0  0  0
   -1.5525    1.2026    2.3328 F   0  0  0  0  0  0  0  0  0  0  0  0
    0.5116   -4.5000   -0.4196 H   0  0  0  0  0  0  0  0  0  0  0  0
    0.8221   -4.3810    1.3078 H   0  0  0  0  0  0  0  0  0  0  0  0
   -0.3622   -5.5666    0.7066 H   0  0  0  0  0  0  0  0  0  0  0  0
   -1.8274   -3.6948   -0.0710 H   0  0  0  0  0  0  0  0  0  0  0  0
   -1.5098   -3.5740    1.6889 H   0  0  0  0  0  0  0  0  0  0  0  0
   -2.6949    0.5355   -0.2492 H   0  0  0  0  0  0  0  0  0  0  0  0
   -3.7491    2.7061   -0.3567 H   0  0  0  0  0  0  0  0  0  0  0  0
   -3.3410    2.3073   -2.0397 H   0  0  0  0  0  0  0  0  0  0  0  0
   -2.1673    4.5053   -2.2712 H   0  0  0  0  0  0  0  0  0  0  0  0
   -3.8610    4.7268   -1.7938 H   0  0  0  0  0  0  0  0  0  0  0  0
   -2.5670    4.8995   -0.5929 H   0  0  0  0  0  0  0  0  0  0  0  0
    0.3571    1.0587   -1.1835 H   0  0  0  0  0  0  0  0  0  0  0  0
    1.5863   -1.3730    1.3435 H   0  0  0  0  0  0  0  0  0  0  0  0
    3.9624   -1.7047    1.6594 H   0  0  0  0  0  0  0  0  0  0  0  0
    5.6101   -0.6559    0.1307 H   0  0  0  0  0  0  0  0  0  0  0  0
    4.8061    0.7423   -1.7586 H   0  0  0  0  0  0  0  0  0  0  0  0
    2.4043    1.1071   -2.0908 H   0  0  0  0  0  0  0  0  0  0  0  0
  1  2  1  0
  2  3  1  0
  3  4  1  0
  4  5  2  0
  4  6  1  0
  6  7  1  0
  7  8  1  0
  8  9  2  0
  8 10  1  0
 10 11  1  0
  6 12  1  0
 12 13  1  0
 13 14  2  0
 14 15  1  0
 15 16  2  0
 16 17  1  0
 17 18  2  0
  6 19  1  0
 19 20  1  0
 19 21  1  0
 19 22  1  0
 18 13  1  0
  1 23  1  0
  1 24  1  0
  1 25  1  0
  2 26  1  0
  2 27  1  0
  7 28  1  0
 10 29  1  0
 10 30  1  0
 11 31  1  0
 11 32  1  0
 11 33  1  0
 12 34  1  0
 14 35  1  0
 15 36  1  0
 16 37  1  0
 17 38  1  0
 18 39  1  0
M  END
$$$$
