
     RDKit          3D

 52 55  0  0  0  0  0  0  0  0999 V2000
    6.9095   -3.5910    2.3684 C   0  0  0  0  0  0  0  0  0  0  0  0
    6.8447   -2.1712    2.4115 O   0  0  0  0  0  0  0  0  0  0  0  0
    5.6739   -1.5933    2.0074 C   0  0  0  0  0  0  0  0  0  0  0  0
    4.5421   -2.2631    1.5454 C   0  0  0  0  0  0  0  0  0  0  0  0
    3.4054   -1.5399    1.1618 C   0  0  0  0  0  0  0  0  0  0  0  0
    3.3822   -0.1412    1.2359 C   0  0  0  0  0  0  0  0  0  0  0  0
    2.1961    0.5014    0.8367 N   0  0  0  0  0  0  0  0  0  0  0  0
    1.9338    1.8586    0.7735 C   0  0  0  0  0  0  0  0  0  0  0  0
    2.7177    2.7570    1.0737 O   0  0  0  0  0  0  0  0  0  0  0  0
    0.4997    2.2003    0.3818 C   0  0  0  0  0  0  0  0  0  0  0  0
   -0.2303    0.9778   -0.7531 S   0  0  0  0  0  0  0  0  0  0  0  0
   -1.9267    1.4493   -0.6401 C   0  0  0  0  0  0  0  0  0  0  0  0
   -2.1638    2.7181   -0.4920 N   0  0  0  0  0  0  0  0  0  0  0  0
   -3.4669    3.0752   -0.3160 C   0  0  0  0  0  0  0  0  0  0  0  0
   -4.4915    2.2283   -0.2361 C   0  0  0  0  0  0  0  0  0  0  0  0
   -4.2467    0.7772   -0.3648 C   0  0  0  0  0  0  0  0  0  0  0  0
   -5.1663   -0.0325   -0.2460 O   0  0  0  0  0  0  0  0  0  0  0  0
   -2.9106    0.4531   -0.6301 N   0  0  0  0  0  0  0  0  0  0  0  0
   -2.6177   -0.9212   -0.8982 C   0  0  0  0  0  0  0  0  0  0  0  0
   -2.8379   -1.8766    0.1073 C   0  0  0  0  0  0  0  0  0  0  0  0
   -2.5385   -3.2186   -0.1202 C   0  0  0  0  0  0  0  0  0  0  0  0
   -2.0326   -3.6160   -1.3555 C   0  0  0  0  0  0  0  0  0  0  0  0
   -1.8399   -2.6779   -2.3755 C   0  0  0  0  0  0  0  0  0  0  0  0
   -2.1395   -1.3280   -2.1625 C   0  0  0  0  0  0  0  0  0  0  0  0
   -2.0488   -0.3479   -3.1203 O   0  0  0  0  0  0  0  0  0  0  0  0
   -1.5323   -0.7211   -4.3918 C   0  0  0  0  0  0  0  0  0  0  0  0
   -6.0272    2.9438    0.0363 S   0  0  0  0  0  0  0  0  0  0  0  0
   -5.3624    4.6225   -0.2506 C   0  0  0  0  0  0  0  0  0  0  0  0
   -3.8370    4.5176   -0.1412 C   0  0  0  0  0  0  0  0  0  0  0  0
    4.5147    0.5242    1.7013 C   0  0  0  0  0  0  0  0  0  0  0  0
    5.6515   -0.1997    2.0813 C   0  0  0  0  0  0  0  0  0  0  0  0
    7.8980   -3.8914    2.7288 H   0  0  0  0  0  0  0  0  0  0  0  0
    6.1628   -4.0410    3.0309 H   0  0  0  0  0  0  0  0  0  0  0  0
    6.8019   -3.9594    1.3427 H   0  0  0  0  0  0  0  0  0  0  0  0
    4.5083   -3.3447    1.4682 H   0  0  0  0  0  0  0  0  0  0  0  0
    2.5384   -2.0912    0.8047 H   0  0  0  0  0  0  0  0  0  0  0  0
    1.4525   -0.0977    0.4894 H   0  0  0  0  0  0  0  0  0  0  0  0
    0.5033    3.1809   -0.1065 H   0  0  0  0  0  0  0  0  0  0  0  0
   -0.0868    2.2541    1.3058 H   0  0  0  0  0  0  0  0  0  0  0  0
   -3.2408   -1.5797    1.0732 H   0  0  0  0  0  0  0  0  0  0  0  0
   -2.7096   -3.9541    0.6628 H   0  0  0  0  0  0  0  0  0  0  0  0
   -1.8066   -4.6648   -1.5353 H   0  0  0  0  0  0  0  0  0  0  0  0
   -1.4711   -3.0394   -3.3301 H   0  0  0  0  0  0  0  0  0  0  0  0
   -1.5069    0.1756   -5.0194 H   0  0  0  0  0  0  0  0  0  0  0  0
   -2.1842   -1.4512   -4.8834 H   0  0  0  0  0  0  0  0  0  0  0  0
   -0.5076   -1.0971   -4.3065 H   0  0  0  0  0  0  0  0  0  0  0  0
   -5.6548    4.9460   -1.2549 H   0  0  0  0  0  0  0  0  0  0  0  0
   -5.7720    5.3302    0.4749 H   0  0  0  0  0  0  0  0  0  0  0  0
   -3.4997    4.8669    0.8427 H   0  0  0  0  0  0  0  0  0  0  0  0
   -3.3606    5.1506   -0.8987 H   0  0  0  0  0  0  0  0  0  0  0  0
    4.5523    1.6061    1.7832 H   0  0  0  0  0  0  0  0  0  0  0  0
    6.5285    0.3359    2.4395 H   0  0  0  0  0  0  0  0  0  0  0  0
  1  2  1  0
  2  3  1  0
  3  4  2  0
  4  5  1  0
  5  6  2  0
  6  7  1  0
  7  8  1  0
  8  9  2  0
  8 10  1  0
 10 11  1  0
 11 12  1  0
 12 13  2  0
 13 14  1  0
 14 15  2  0
 15 16  1  0
 16 17  2  0
 16 18  1  0
 18 19  1  0
 19 20  2  0
 20 21  1  0
 21 22  2  0
 22 23  1  0
 23 24  2  0
 24 25  1  0
 25 26  1  0
 15 27  1  0
 27 28  1  0
 28 29  1  0
  6 30  1  0
 30 31  2  0
 31  3  1  0
 18 12  1  0
 24 19  1  0
 29 14  1  0
  1 32  1  0
  1 33  1  0
  1 34  1  0
  4 35  1  0
  5 36  1  0
  7 37  1  0
 10 38  1  0
 10 39  1  0
 20 40  1  0
 21 41  1  0
 22 42  1  0
 23 43  1  0
 26 44  1  0
 26 45  1  0
 26 46  1  0
 28 47  1  0
 28 48  1  0
 29 49  1  0
 29 50  1  0
 30 51  1  0
 31 52  1  0
M  END
$$$$
