
     RDKit          3D

 47 50  0  0  0  0  0  0  0  0999 V2000
   -7.3253   -0.1238    0.1565 C   0  0  0  0  0  0  0  0  0  0  0  0
   -6.6482    1.0234    0.8933 C   0  0  0  0  0  0  0  0  0  0  0  0
   -5.3358    1.4439    0.2344 C   0  0  0  0  0  0  0  0  0  0  0  0
   -4.4208    0.3533    0.2964 O   0  0  0  0  0  0  0  0  0  0  0  0
   -3.1887    0.5113   -0.2864 C   0  0  0  0  0  0  0  0  0  0  0  0
   -2.7327    1.7008   -0.8624 C   0  0  0  0  0  0  0  0  0  0  0  0
   -1.4567    1.7681   -1.4281 C   0  0  0  0  0  0  0  0  0  0  0  0
   -0.6212    0.6497   -1.4193 C   0  0  0  0  0  0  0  0  0  0  0  0
    0.7085    0.7443   -2.0301 C   0  0  0  0  0  0  0  0  0  0  0  0
    1.8778    0.6761   -1.3778 C   0  0  0  0  0  0  0  0  0  0  0  0
    2.1198    0.4683    0.3472 S   0  0  0  0  0  0  0  0  0  0  0  0
    3.8165    0.5364    0.1091 C   0  0  0  0  0  0  0  0  0  0  0  0
    4.8637    0.4603    0.8780 N   0  0  0  0  0  0  0  0  0  0  0  0
    5.8920    0.6008   -0.0456 C   0  0  0  0  0  0  0  0  0  0  0  0
    7.3962    0.5796    0.3808 C   0  0  0  0  0  0  0  0  0  0  0  0
    7.8583    0.4258    1.6741 C   0  0  0  0  0  0  0  0  0  0  0  0
    9.2724    0.4647    1.6092 C   0  0  0  0  0  0  0  0  0  0  0  0
    9.5872    0.6397    0.2828 C   0  0  0  0  0  0  0  0  0  0  0  0
    8.4594    0.7104   -0.4691 O   0  0  0  0  0  0  0  0  0  0  0  0
    5.4973    0.7546   -1.3262 N   0  0  0  0  0  0  0  0  0  0  0  0
    4.1639    0.7075   -1.1817 N   0  0  0  0  0  0  0  0  0  0  0  0
    3.1658    0.8034   -2.1273 C   0  0  0  0  0  0  0  0  0  0  0  0
    3.3583    0.9596   -3.3191 O   0  0  0  0  0  0  0  0  0  0  0  0
   -1.0764   -0.5474   -0.8521 C   0  0  0  0  0  0  0  0  0  0  0  0
   -2.3515   -0.6227   -0.2782 C   0  0  0  0  0  0  0  0  0  0  0  0
   -2.8758   -1.7516    0.3019 O   0  0  0  0  0  0  0  0  0  0  0  0
   -2.0342   -2.8942    0.4229 C   0  0  0  0  0  0  0  0  0  0  0  0
   -2.8120   -3.9722    1.1562 C   0  0  0  0  0  0  0  0  0  0  0  0
   -8.2738   -0.3756    0.6414 H   0  0  0  0  0  0  0  0  0  0  0  0
   -6.6995   -1.0218    0.1555 H   0  0  0  0  0  0  0  0  0  0  0  0
   -7.5371    0.1491   -0.8822 H   0  0  0  0  0  0  0  0  0  0  0  0
   -6.4558    0.7073    1.9252 H   0  0  0  0  0  0  0  0  0  0  0  0
   -7.3281    1.8817    0.9280 H   0  0  0  0  0  0  0  0  0  0  0  0
   -5.5251    1.7270   -0.8081 H   0  0  0  0  0  0  0  0  0  0  0  0
   -4.9294    2.3012    0.7837 H   0  0  0  0  0  0  0  0  0  0  0  0
   -3.3446    2.5962   -0.8849 H   0  0  0  0  0  0  0  0  0  0  0  0
   -1.1243    2.7050   -1.8705 H   0  0  0  0  0  0  0  0  0  0  0  0
    0.6981    0.9039   -3.1085 H   0  0  0  0  0  0  0  0  0  0  0  0
    7.2403    0.3012    2.5529 H   0  0  0  0  0  0  0  0  0  0  0  0
    9.9745    0.3765    2.4262 H   0  0  0  0  0  0  0  0  0  0  0  0
   10.5166    0.7292   -0.2624 H   0  0  0  0  0  0  0  0  0  0  0  0
   -0.4237   -1.4136   -0.8726 H   0  0  0  0  0  0  0  0  0  0  0  0
   -1.1347   -2.6481    0.9991 H   0  0  0  0  0  0  0  0  0  0  0  0
   -1.7567   -3.2672   -0.5695 H   0  0  0  0  0  0  0  0  0  0  0  0
   -2.2086   -4.8766    1.2742 H   0  0  0  0  0  0  0  0  0  0  0  0
   -3.1187   -3.6197    2.1467 H   0  0  0  0  0  0  0  0  0  0  0  0
   -3.7271   -4.2259    0.6108 H   0  0  0  0  0  0  0  0  0  0  0  0
  1  2  1  0
  2  3  1  0
  3  4  1  0
  4  5  1  0
  5  6  2  0
  6  7  1  0
  7  8  2  0
  8  9  1  0
  9 10  2  3
 10 11  1  0
 11 12  1  0
 12 13  2  0
 13 14  1  0
 14 15  1  0
 15 16  2  0
 16 17  1  0
 17 18  2  0
 18 19  1  0
 14 20  2  0
 20 21  1  0
 21 22  1  0
 22 23  2  0
  8 24  1  0
 24 25  2  0
 25 26  1  0
 26 27  1  0
 27 28  1  0
 25  5  1  0
 22 10  1  0
 21 12  1  0
 19 15  1  0
  1 29  1  0
  1 30  1  0
  1 31  1  0
  2 32  1  0
  2 33  1  0
  3 34  1  0
  3 35  1  0
  6 36  1  0
  7 37  1  0
  9 38  1  0
 16 39  1  0
 17 40  1  0
 18 41  1  0
 24 42  1  0
 27 43  1  0
 27 44  1  0
 28 45  1  0
 28 46  1  0
 28 47  1  0
M  END
$$$$
