
     RDKit          3D

 57 60  0  0  0  0  0  0  0  0999 V2000
    2.2256    0.8478    2.1577 C   0  0  0  0  0  0  0  0  0  0  0  0
    2.4209    0.8562    0.6778 C   0  0  0  0  0  0  0  0  0  0  0  0
    1.5637    1.3781   -0.2708 C   0  0  0  0  0  0  0  0  0  0  0  0
    2.0849    1.0722   -1.5429 C   0  0  0  0  0  0  0  0  0  0  0  0
    1.5278    1.4099   -2.8131 C   0  0  0  0  0  0  0  0  0  0  0  0
    0.2516    1.2519   -3.2043 C   0  0  0  0  0  0  0  0  0  0  0  0
   -0.8107    0.6421   -2.3953 C   0  0  0  0  0  0  0  0  0  0  0  0
   -0.7596   -0.7339   -2.1662 C   0  0  0  0  0  0  0  0  0  0  0  0
   -1.7497   -1.3507   -1.4239 C   0  0  0  0  0  0  0  0  0  0  0  0
   -2.7992   -0.5925   -0.9159 C   0  0  0  0  0  0  0  0  0  0  0  0
   -3.8187   -1.2107   -0.1631 C   0  0  0  0  0  0  0  0  0  0  0  0
   -4.9052   -0.5050    0.3794 C   0  0  0  0  0  0  0  0  0  0  0  0
   -5.9163   -1.1366    1.0985 N   0  0  0  0  0  0  0  0  0  0  0  0
   -6.9080   -0.3431    1.8279 C   0  0  0  0  0  0  0  0  0  0  0  0
   -5.7252   -2.5040    1.5880 C   0  0  0  0  0  0  0  0  0  0  0  0
   -4.9275    0.8696    0.1113 C   0  0  0  0  0  0  0  0  0  0  0  0
   -3.9240    1.5106   -0.6341 C   0  0  0  0  0  0  0  0  0  0  0  0
   -2.8378    0.7987   -1.1615 C   0  0  0  0  0  0  0  0  0  0  0  0
   -1.8359    1.3886   -1.8939 N   0  0  0  0  0  4  0  0  0  0  0  0
   -1.8650    2.8550   -2.1060 C   0  0  0  0  0  0  0  0  0  0  0  0
    3.2878    0.4111   -1.3599 C   0  0  0  0  0  0  0  0  0  0  0  0
    4.2858   -0.0201   -2.3897 C   0  0  0  0  0  0  0  0  0  0  0  0
    3.4878    0.2500    0.0157 N   0  0  0  0  0  0  0  0  0  0  0  0
    4.5796   -0.4265    0.6340 C   0  0  0  0  0  0  0  0  0  0  0  0
    4.9939   -1.6759    0.1553 C   0  0  0  0  0  0  0  0  0  0  0  0
    6.0601   -2.3391    0.7663 C   0  0  0  0  0  0  0  0  0  0  0  0
    6.7158   -1.7591    1.8509 C   0  0  0  0  0  0  0  0  0  0  0  0
    6.3075   -0.5150    2.3287 C   0  0  0  0  0  0  0  0  0  0  0  0
    5.2401    0.1525    1.7244 C   0  0  0  0  0  0  0  0  0  0  0  0
    1.1705    1.0145    2.4022 H   0  0  0  0  0  0  0  0  0  0  0  0
    2.5069   -0.1125    2.6001 H   0  0  0  0  0  0  0  0  0  0  0  0
    2.8002    1.6499    2.6299 H   0  0  0  0  0  0  0  0  0  0  0  0
    0.6547    1.9145   -0.0366 H   0  0  0  0  0  0  0  0  0  0  0  0
    2.2238    1.8203   -3.5456 H   0  0  0  0  0  0  0  0  0  0  0  0
   -0.0362    1.5491   -4.2104 H   0  0  0  0  0  0  0  0  0  0  0  0
    0.0622   -1.3305   -2.5605 H   0  0  0  0  0  0  0  0  0  0  0  0
   -1.6925   -2.4246   -1.2481 H   0  0  0  0  0  0  0  0  0  0  0  0
   -3.7509   -2.2861   -0.0090 H   0  0  0  0  0  0  0  0  0  0  0  0
   -7.6496   -0.9812    2.3213 H   0  0  0  0  0  0  0  0  0  0  0  0
   -6.4277    0.2656    2.6016 H   0  0  0  0  0  0  0  0  0  0  0  0
   -7.4727    0.3040    1.1482 H   0  0  0  0  0  0  0  0  0  0  0  0
   -4.8645   -2.5599    2.2636 H   0  0  0  0  0  0  0  0  0  0  0  0
   -5.5873   -3.2042    0.7572 H   0  0  0  0  0  0  0  0  0  0  0  0
   -6.6017   -2.8605    2.1405 H   0  0  0  0  0  0  0  0  0  0  0  0
   -5.7421    1.4913    0.4774 H   0  0  0  0  0  0  0  0  0  0  0  0
   -4.0457    2.5799   -0.7800 H   0  0  0  0  0  0  0  0  0  0  0  0
   -1.8834    3.3380   -1.1248 H   0  0  0  0  0  0  0  0  0  0  0  0
   -0.9912    3.2196   -2.6439 H   0  0  0  0  0  0  0  0  0  0  0  0
   -2.7595    3.0907   -2.6895 H   0  0  0  0  0  0  0  0  0  0  0  0
    4.2118    0.5944   -3.2926 H   0  0  0  0  0  0  0  0  0  0  0  0
    4.1081   -1.0590   -2.6834 H   0  0  0  0  0  0  0  0  0  0  0  0
    5.3143    0.0844   -2.0314 H   0  0  0  0  0  0  0  0  0  0  0  0
    4.4777   -2.1692   -0.6630 H   0  0  0  0  0  0  0  0  0  0  0  0
    6.3769   -3.3133    0.4013 H   0  0  0  0  0  0  0  0  0  0  0  0
    7.5473   -2.2764    2.3238 H   0  0  0  0  0  0  0  0  0  0  0  0
    6.8285   -0.0601    3.1679 H   0  0  0  0  0  0  0  0  0  0  0  0
    4.9722    1.1391    2.0913 H   0  0  0  0  0  0  0  0  0  0  0  0
  1  2  1  0
  2  3  2  0
  3  4  1  0
  4  5  1  0
  5  6  2  3
  6  7  1  0
  7  8  2  0
  8  9  1  0
  9 10  2  0
 10 11  1  0
 11 12  2  0
 12 13  1  0
 13 14  1  0
 13 15  1  0
 12 16  1  0
 16 17  2  0
 17 18  1  0
 18 19  2  0
 19 20  1  0
  4 21  2  0
 21 22  1  0
 21 23  1  0
 23 24  1  0
 24 25  2  0
 25 26  1  0
 26 27  2  0
 27 28  1  0
 28 29  2  0
 23  2  1  0
 29 24  1  0
 19  7  1  0
 18 10  1  0
  1 30  1  0
  1 31  1  0
  1 32  1  0
  3 33  1  0
  5 34  1  0
  6 35  1  0
  8 36  1  0
  9 37  1  0
 11 38  1  0
 14 39  1  0
 14 40  1  0
 14 41  1  0
 15 42  1  0
 15 43  1  0
 15 44  1  0
 16 45  1  0
 17 46  1  0
 20 47  1  0
 20 48  1  0
 20 49  1  0
 22 50  1  0
 22 51  1  0
 22 52  1  0
 25 53  1  0
 26 54  1  0
 27 55  1  0
 28 56  1  0
 29 57  1  0
M  CHG  1  19   1
M  END
$$$$
