
     RDKit          3D

 38 40  0  0  0  0  0  0  0  0999 V2000
    0.8120    0.4145   -1.5502 O   0  0  0  0  0  0  0  0  0  0  0  0
    0.3989    0.2687   -0.4029 C   0  0  0  0  0  0  0  0  0  0  0  0
    1.0166    0.8566    0.6707 N   0  0  0  0  0  0  0  0  0  0  0  0
    2.2077    1.6593    0.4910 C   0  0  0  0  0  0  0  0  0  0  0  0
    3.4563    0.8443    0.7254 C   0  0  0  0  0  0  0  0  0  0  0  0
    3.9793    0.0411   -0.2992 C   0  0  0  0  0  0  0  0  0  0  0  0
    5.1207   -0.7337   -0.0818 C   0  0  0  0  0  0  0  0  0  0  0  0
    5.7425   -0.7130    1.1640 C   0  0  0  0  0  0  0  0  0  0  0  0
    7.1479   -1.6680    1.4352 Cl  0  0  0  0  0  0  0  0  0  0  0  0
    5.2315    0.0735    2.1947 C   0  0  0  0  0  0  0  0  0  0  0  0
    4.0891    0.8479    1.9775 C   0  0  0  0  0  0  0  0  0  0  0  0
   -0.7132   -0.4923   -0.0895 N   0  0  0  0  0  0  0  0  0  0  0  0
   -1.4677   -0.4188    1.1617 C   0  0  0  0  0  0  0  0  0  0  0  0
   -2.7032    0.4631    0.9738 C   0  0  0  0  0  0  0  0  0  0  0  0
   -3.4934    0.0589   -0.2485 C   0  0  0  0  0  0  0  0  0  0  0  0
   -4.8297    0.4609   -0.3790 C   0  0  0  0  0  0  0  0  0  0  0  0
   -5.5603    0.1209   -1.5171 C   0  0  0  0  0  0  0  0  0  0  0  0
   -4.9614   -0.6154   -2.5364 C   0  0  0  0  0  0  0  0  0  0  0  0
   -3.6283   -1.0103   -2.4224 C   0  0  0  0  0  0  0  0  0  0  0  0
   -2.8780   -0.6696   -1.2870 C   0  0  0  0  0  0  0  0  0  0  0  0
   -1.4396   -1.1382   -1.1801 C   0  0  0  0  0  0  0  0  0  0  0  0
    1.0087    0.3016    1.5103 H   0  0  0  0  0  0  0  0  0  0  0  0
    2.1530    2.4769    1.2185 H   0  0  0  0  0  0  0  0  0  0  0  0
    2.2288    2.1169   -0.5046 H   0  0  0  0  0  0  0  0  0  0  0  0
    3.4918    0.0138   -1.2736 H   0  0  0  0  0  0  0  0  0  0  0  0
    5.5135   -1.3496   -0.8862 H   0  0  0  0  0  0  0  0  0  0  0  0
    5.7166    0.0875    3.1670 H   0  0  0  0  0  0  0  0  0  0  0  0
    3.6988    1.4558    2.7909 H   0  0  0  0  0  0  0  0  0  0  0  0
   -1.7595   -1.4421    1.4297 H   0  0  0  0  0  0  0  0  0  0  0  0
   -0.8695   -0.0282    1.9876 H   0  0  0  0  0  0  0  0  0  0  0  0
   -2.3967    1.5091    0.8503 H   0  0  0  0  0  0  0  0  0  0  0  0
   -3.3308    0.3951    1.8698 H   0  0  0  0  0  0  0  0  0  0  0  0
   -5.3074    1.0438    0.4050 H   0  0  0  0  0  0  0  0  0  0  0  0
   -6.5966    0.4345   -1.6109 H   0  0  0  0  0  0  0  0  0  0  0  0
   -5.5314   -0.8786   -3.4236 H   0  0  0  0  0  0  0  0  0  0  0  0
   -3.1729   -1.5816   -3.2287 H   0  0  0  0  0  0  0  0  0  0  0  0
   -0.9312   -0.9916   -2.1385 H   0  0  0  0  0  0  0  0  0  0  0  0
   -1.4428   -2.2135   -0.9630 H   0  0  0  0  0  0  0  0  0  0  0  0
  1  2  2  0
  2  3  1  0
  3  4  1  0
  4  5  1  0
  5  6  2  0
  6  7  1  0
  7  8  2  0
  8  9  1  0
  8 10  1  0
 10 11  2  0
  2 12  1  0
 12 13  1  0
 13 14  1  0
 14 15  1  0
 15 16  2  0
 16 17  1  0
 17 18  2  0
 18 19  1  0
 19 20  2  0
 20 21  1  0
 11  5  1  0
 21 12  1  0
 20 15  1  0
  3 22  1  0
  4 23  1  0
  4 24  1  0
  6 25  1  0
  7 26  1  0
 10 27  1  0
 11 28  1  0
 13 29  1  0
 13 30  1  0
 14 31  1  0
 14 32  1  0
 16 33  1  0
 17 34  1  0
 18 35  1  0
 19 36  1  0
 21 37  1  0
 21 38  1  0
M  END
$$$$
