
     RDKit          3D

 43 45  0  0  0  0  0  0  0  0999 V2000
   -5.7691   -2.0815    0.9083 C   0  0  0  0  0  0  0  0  0  0  0  0
   -5.2331   -0.7506    1.1884 N   0  0  0  0  0  0  0  0  0  0  0  0
   -5.0744   -0.4233    2.6049 C   0  0  0  0  0  0  0  0  0  0  0  0
   -4.3645   -0.1602    0.2609 C   0  0  0  0  0  0  0  0  0  0  0  0
   -4.2216   -0.6504   -1.0500 C   0  0  0  0  0  0  0  0  0  0  0  0
   -3.3631   -0.0542   -1.9865 C   0  0  0  0  0  0  0  0  0  0  0  0
   -2.6168    1.0686   -1.6419 C   0  0  0  0  0  0  0  0  0  0  0  0
   -1.7282    1.6886   -2.6266 C   0  0  0  0  0  0  0  0  0  0  0  0
   -0.3849    1.6813   -2.6028 C   0  0  0  0  0  0  0  0  0  0  0  0
    0.4512    1.0357   -1.6063 C   0  0  0  0  0  0  0  0  0  0  0  0
    1.7919    1.0416   -1.5627 C   0  0  0  0  0  0  0  0  0  0  0  0
    2.8735    1.8083   -2.6444 S   0  0  0  0  0  0  0  0  0  0  0  0
    4.3000    1.1632   -1.8297 C   0  0  0  0  0  0  0  0  0  0  0  0
    5.8056    1.3588   -2.5381 S   0  0  0  0  0  0  0  0  0  0  0  0
    3.9208    0.4733   -0.6824 N   0  0  0  0  0  0  0  0  0  0  0  0
    4.8344   -0.1006    0.2648 C   0  0  0  0  0  0  0  0  0  0  0  0
    4.5691   -1.3495    0.8505 C   0  0  0  0  0  0  0  0  0  0  0  0
    5.4478   -1.9157    1.7798 C   0  0  0  0  0  0  0  0  0  0  0  0
    6.6040   -1.2376    2.1499 C   0  0  0  0  0  0  0  0  0  0  0  0
    6.8767    0.0092    1.5973 C   0  0  0  0  0  0  0  0  0  0  0  0
    5.9971    0.5743    0.6673 C   0  0  0  0  0  0  0  0  0  0  0  0
    2.5448    0.3413   -0.4840 C   0  0  0  0  0  0  0  0  0  0  0  0
    1.9683   -0.2222    0.4394 O   0  0  0  0  0  0  0  0  0  0  0  0
   -2.7533    1.5950   -0.3603 C   0  0  0  0  0  0  0  0  0  0  0  0
   -3.6143    0.9898    0.5675 C   0  0  0  0  0  0  0  0  0  0  0  0
   -4.9645   -2.8192    0.8147 H   0  0  0  0  0  0  0  0  0  0  0  0
   -6.3776   -2.0810   -0.0025 H   0  0  0  0  0  0  0  0  0  0  0  0
   -6.4347   -2.4179    1.7113 H   0  0  0  0  0  0  0  0  0  0  0  0
   -5.7932   -0.9734    3.2229 H   0  0  0  0  0  0  0  0  0  0  0  0
   -5.2713    0.6378    2.7914 H   0  0  0  0  0  0  0  0  0  0  0  0
   -4.0702   -0.6807    2.9594 H   0  0  0  0  0  0  0  0  0  0  0  0
   -4.7791   -1.5189   -1.3861 H   0  0  0  0  0  0  0  0  0  0  0  0
   -3.2878   -0.4826   -2.9829 H   0  0  0  0  0  0  0  0  0  0  0  0
   -2.2412    2.1879   -3.4464 H   0  0  0  0  0  0  0  0  0  0  0  0
    0.1211    2.1975   -3.4173 H   0  0  0  0  0  0  0  0  0  0  0  0
   -0.0769    0.4881   -0.8247 H   0  0  0  0  0  0  0  0  0  0  0  0
    3.6841   -1.9211    0.5790 H   0  0  0  0  0  0  0  0  0  0  0  0
    5.2239   -2.8876    2.2128 H   0  0  0  0  0  0  0  0  0  0  0  0
    7.2863   -1.6759    2.8737 H   0  0  0  0  0  0  0  0  0  0  0  0
    7.7706    0.5518    1.8960 H   0  0  0  0  0  0  0  0  0  0  0  0
    6.2279    1.5726    0.3053 H   0  0  0  0  0  0  0  0  0  0  0  0
   -2.1976    2.4822   -0.0665 H   0  0  0  0  0  0  0  0  0  0  0  0
   -3.6817    1.4572    1.5449 H   0  0  0  0  0  0  0  0  0  0  0  0
  1  2  1  0
  2  3  1  0
  2  4  1  0
  4  5  2  0
  5  6  1  0
  6  7  2  0
  7  8  1  0
  8  9  2  3
  9 10  1  0
 10 11  2  3
 11 12  1  0
 12 13  1  0
 13 14  2  0
 13 15  1  0
 15 16  1  0
 16 17  2  0
 17 18  1  0
 18 19  2  0
 19 20  1  0
 20 21  2  0
 15 22  1  0
 22 23  2  0
  7 24  1  0
 24 25  2  0
 25  4  1  0
 22 11  1  0
 21 16  1  0
  1 26  1  0
  1 27  1  0
  1 28  1  0
  3 29  1  0
  3 30  1  0
  3 31  1  0
  5 32  1  0
  6 33  1  0
  8 34  1  0
  9 35  1  0
 10 36  1  0
 17 37  1  0
 18 38  1  0
 19 39  1  0
 20 40  1  0
 21 41  1  0
 24 42  1  0
 25 43  1  0
M  END
$$$$
