
     RDKit          3D

 43 45  0  0  0  0  0  0  0  0999 V2000
    7.4120   -2.6689   -0.6813 O   0  0  0  0  0  0  0  0  0  0  0  0
    8.0017   -1.6136   -0.5237 C   0  0  0  0  0  0  0  0  0  0  0  0
    9.3446   -1.6121   -0.3717 O   0  0  0  0  0  0  0  0  0  0  0  0
    7.4360   -0.2143   -0.5142 C   0  0  0  0  0  0  0  0  0  0  0  0
    5.9337   -0.1570   -0.3747 C   0  0  0  0  0  0  0  0  0  0  0  0
    5.3434    0.1837    0.8479 C   0  0  0  0  0  0  0  0  0  0  0  0
    3.9506    0.2345    0.9812 C   0  0  0  0  0  0  0  0  0  0  0  0
    3.1234   -0.0622   -0.1013 C   0  0  0  0  0  0  0  0  0  0  0  0
    1.7138   -0.0317   -0.0502 N   0  0  0  0  0  0  0  0  0  0  0  0
    0.9189    0.2172    1.0540 C   0  0  0  0  0  0  0  0  0  0  0  0
    1.2901    0.4012    2.2063 O   0  0  0  0  0  0  0  0  0  0  0  0
   -0.5452    0.2206    0.7773 C   0  0  0  0  0  0  0  0  0  0  0  0
   -1.0710    0.7669   -0.3978 C   0  0  0  0  0  0  0  0  0  0  0  0
   -2.4535    0.7533   -0.6150 C   0  0  0  0  0  0  0  0  0  0  0  0
   -3.3252    0.2031    0.3351 C   0  0  0  0  0  0  0  0  0  0  0  0
   -4.6985    0.2299    0.0331 N   0  0  0  0  0  0  0  0  0  0  0  0
   -5.7560   -0.2512    0.7857 C   0  0  0  0  0  0  0  0  0  0  0  0
   -5.6618   -0.8063    1.8750 O   0  0  0  0  0  0  0  0  0  0  0  0
   -7.0397   -0.0340    0.1407 C   0  0  0  0  0  0  0  0  0  0  0  0
   -8.3243   -0.3513    0.5401 C   0  0  0  0  0  0  0  0  0  0  0  0
   -9.1931    0.0963   -0.4834 C   0  0  0  0  0  0  0  0  0  0  0  0
   -8.3910    0.6597   -1.4470 C   0  0  0  0  0  0  0  0  0  0  0  0
   -7.0843    0.5878   -1.0831 O   0  0  0  0  0  0  0  0  0  0  0  0
   -2.7936   -0.3246    1.5132 C   0  0  0  0  0  0  0  0  0  0  0  0
   -1.4115   -0.3102    1.7372 C   0  0  0  0  0  0  0  0  0  0  0  0
    3.7122   -0.4061   -1.3240 C   0  0  0  0  0  0  0  0  0  0  0  0
    5.1032   -0.4539   -1.4610 C   0  0  0  0  0  0  0  0  0  0  0  0
    9.5816   -2.5633   -0.4018 H   0  0  0  0  0  0  0  0  0  0  0  0
    7.7311    0.2835   -1.4453 H   0  0  0  0  0  0  0  0  0  0  0  0
    7.8981    0.3375    0.3134 H   0  0  0  0  0  0  0  0  0  0  0  0
    5.9580    0.4145    1.7157 H   0  0  0  0  0  0  0  0  0  0  0  0
    3.5446    0.5090    1.9498 H   0  0  0  0  0  0  0  0  0  0  0  0
    1.2423   -0.2907   -0.9063 H   0  0  0  0  0  0  0  0  0  0  0  0
   -0.4257    1.2336   -1.1371 H   0  0  0  0  0  0  0  0  0  0  0  0
   -2.8398    1.1885   -1.5339 H   0  0  0  0  0  0  0  0  0  0  0  0
   -4.9725    0.6528   -0.8476 H   0  0  0  0  0  0  0  0  0  0  0  0
   -8.5875   -0.8473    1.4651 H   0  0  0  0  0  0  0  0  0  0  0  0
  -10.2710    0.0181   -0.5146 H   0  0  0  0  0  0  0  0  0  0  0  0
   -8.5870    1.1308   -2.4005 H   0  0  0  0  0  0  0  0  0  0  0  0
   -3.4244   -0.7513    2.2872 H   0  0  0  0  0  0  0  0  0  0  0  0
   -1.0150   -0.7178    2.6657 H   0  0  0  0  0  0  0  0  0  0  0  0
    3.1002   -0.6494   -2.1883 H   0  0  0  0  0  0  0  0  0  0  0  0
    5.5321   -0.7368   -2.4200 H   0  0  0  0  0  0  0  0  0  0  0  0
  1  2  2  0
  2  3  1  0
  2  4  1  0
  4  5  1  0
  5  6  2  0
  6  7  1  0
  7  8  2  0
  8  9  1  0
  9 10  1  0
 10 11  2  0
 10 12  1  0
 12 13  2  0
 13 14  1  0
 14 15  2  0
 15 16  1  0
 16 17  1  0
 17 18  2  0
 17 19  1  0
 19 20  2  0
 20 21  1  0
 21 22  2  0
 22 23  1  0
 15 24  1  0
 24 25  2  0
  8 26  1  0
 26 27  2  0
 27  5  1  0
 25 12  1  0
 23 19  1  0
  3 28  1  0
  4 29  1  0
  4 30  1  0
  6 31  1  0
  7 32  1  0
  9 33  1  0
 13 34  1  0
 14 35  1  0
 16 36  1  0
 20 37  1  0
 21 38  1  0
 22 39  1  0
 24 40  1  0
 25 41  1  0
 26 42  1  0
 27 43  1  0
M  END
$$$$
