
     RDKit          3D

 62 65  0  0  0  0  0  0  0  0999 V2000
   -2.6442   -2.5209    1.0787 C   0  0  0  0  0  0  0  0  0  0  0  0
   -2.2663   -1.7477   -0.1783 C   0  0  0  0  0  0  0  0  0  0  0  0
   -2.7246   -0.3551   -0.1343 N   0  0  0  0  0  0  0  0  0  0  0  0
   -2.2241    0.6481    0.7218 C   0  0  0  0  0  0  0  0  0  0  0  0
   -0.9521    0.9798    1.0205 C   0  0  0  0  0  0  0  0  0  0  0  0
    0.2556    0.4525    0.4241 C   0  0  0  0  0  0  0  0  0  0  0  0
    1.4741    0.8246    0.8366 C   0  0  0  0  0  0  0  0  0  0  0  0
    2.6689    0.3263    0.1310 C   0  0  0  0  0  0  0  0  0  0  0  0
    3.1430   -0.8833    0.1748 N   0  0  0  0  0  4  0  0  0  0  0  0
    2.6794   -2.0523    0.9503 C   0  0  0  0  0  0  0  0  0  0  0  0
    1.9194   -3.0143    0.0542 C   0  0  0  0  0  0  0  0  0  0  0  0
    4.3677   -0.9571   -0.6431 C   0  0  0  0  0  0  0  0  0  0  0  0
    5.1993   -2.0391   -0.8687 C   0  0  0  0  0  0  0  0  0  0  0  0
    6.3029   -1.8417   -1.6992 C   0  0  0  0  0  0  0  0  0  0  0  0
    6.5494   -0.5870   -2.2771 C   0  0  0  0  0  0  0  0  0  0  0  0
    5.6996    0.4942   -2.0352 C   0  0  0  0  0  0  0  0  0  0  0  0
    4.6094    0.2915   -1.2063 C   0  0  0  0  0  0  0  0  0  0  0  0
    3.5415    1.2493   -0.7550 C   0  0  0  0  0  0  0  0  0  0  0  0
    4.1366    2.3910    0.0735 C   0  0  0  0  0  0  0  0  0  0  0  0
    2.7347    1.7860   -1.9409 C   0  0  0  0  0  0  0  0  0  0  0  0
   -3.4250    1.4894    1.2750 C   0  0  0  0  0  0  0  0  0  0  0  0
   -3.3038    2.9833    0.9373 C   0  0  0  0  0  0  0  0  0  0  0  0
   -3.5949    1.2819    2.7835 C   0  0  0  0  0  0  0  0  0  0  0  0
   -4.5893    0.8785    0.5208 C   0  0  0  0  0  0  0  0  0  0  0  0
   -5.9350    1.2258    0.5543 C   0  0  0  0  0  0  0  0  0  0  0  0
   -6.8290    0.4997   -0.2356 C   0  0  0  0  0  0  0  0  0  0  0  0
   -6.3732   -0.5520   -1.0412 C   0  0  0  0  0  0  0  0  0  0  0  0
   -5.0171   -0.8976   -1.0631 C   0  0  0  0  0  0  0  0  0  0  0  0
   -4.1253   -0.1839   -0.2707 C   0  0  0  0  0  0  0  0  0  0  0  0
   -2.2435   -2.0431    1.9756 H   0  0  0  0  0  0  0  0  0  0  0  0
   -3.7276   -2.5967    1.1959 H   0  0  0  0  0  0  0  0  0  0  0  0
   -2.2433   -3.5382    1.0302 H   0  0  0  0  0  0  0  0  0  0  0  0
   -2.6494   -2.2610   -1.0679 H   0  0  0  0  0  0  0  0  0  0  0  0
   -1.1810   -1.7876   -0.2839 H   0  0  0  0  0  0  0  0  0  0  0  0
   -0.8021    1.7925    1.7330 H   0  0  0  0  0  0  0  0  0  0  0  0
    0.1338   -0.1981   -0.4359 H   0  0  0  0  0  0  0  0  0  0  0  0
    1.6249    1.5429    1.6384 H   0  0  0  0  0  0  0  0  0  0  0  0
    2.0344   -1.6996    1.7621 H   0  0  0  0  0  0  0  0  0  0  0  0
    3.5485   -2.5322    1.4153 H   0  0  0  0  0  0  0  0  0  0  0  0
    1.0695   -2.5298   -0.4362 H   0  0  0  0  0  0  0  0  0  0  0  0
    2.5562   -3.4309   -0.7322 H   0  0  0  0  0  0  0  0  0  0  0  0
    1.5343   -3.8510    0.6491 H   0  0  0  0  0  0  0  0  0  0  0  0
    5.0320   -3.0182   -0.4358 H   0  0  0  0  0  0  0  0  0  0  0  0
    6.9828   -2.6668   -1.9083 H   0  0  0  0  0  0  0  0  0  0  0  0
    7.4143   -0.4565   -2.9228 H   0  0  0  0  0  0  0  0  0  0  0  0
    5.9003    1.4612   -2.4929 H   0  0  0  0  0  0  0  0  0  0  0  0
    4.6676    2.0168    0.9551 H   0  0  0  0  0  0  0  0  0  0  0  0
    4.8474    2.9790   -0.5118 H   0  0  0  0  0  0  0  0  0  0  0  0
    3.3585    3.0724    0.4312 H   0  0  0  0  0  0  0  0  0  0  0  0
    3.3675    2.3580   -2.6293 H   0  0  0  0  0  0  0  0  0  0  0  0
    2.2737    0.9718   -2.5131 H   0  0  0  0  0  0  0  0  0  0  0  0
    1.9270    2.4475   -1.6089 H   0  0  0  0  0  0  0  0  0  0  0  0
   -3.1741    3.1426   -0.1408 H   0  0  0  0  0  0  0  0  0  0  0  0
   -2.4551    3.4473    1.4462 H   0  0  0  0  0  0  0  0  0  0  0  0
   -4.2007    3.5359    1.2414 H   0  0  0  0  0  0  0  0  0  0  0  0
   -3.6885    0.2217    3.0385 H   0  0  0  0  0  0  0  0  0  0  0  0
   -2.7390    1.6786    3.3422 H   0  0  0  0  0  0  0  0  0  0  0  0
   -4.4929    1.7872    3.1554 H   0  0  0  0  0  0  0  0  0  0  0  0
   -6.2928    2.0382    1.1807 H   0  0  0  0  0  0  0  0  0  0  0  0
   -7.8869    0.7530   -0.2278 H   0  0  0  0  0  0  0  0  0  0  0  0
   -7.0835   -1.1048   -1.6542 H   0  0  0  0  0  0  0  0  0  0  0  0
   -4.6896   -1.7020   -1.7127 H   0  0  0  0  0  0  0  0  0  0  0  0
  1  2  1  0
  2  3  1  0
  3  4  1  0
  4  5  2  3
  5  6  1  0
  6  7  2  3
  7  8  1  0
  8  9  2  0
  9 10  1  0
 10 11  1  0
  9 12  1  0
 12 13  2  0
 13 14  1  0
 14 15  2  0
 15 16  1  0
 16 17  2  0
 17 18  1  0
 18 19  1  0
 18 20  1  0
  4 21  1  0
 21 22  1  0
 21 23  1  0
 21 24  1  0
 24 25  2  0
 25 26  1  0
 26 27  2  0
 27 28  1  0
 28 29  2  0
 29  3  1  0
 18  8  1  0
 29 24  1  0
 17 12  1  0
  1 30  1  0
  1 31  1  0
  1 32  1  0
  2 33  1  0
  2 34  1  0
  5 35  1  0
  6 36  1  0
  7 37  1  0
 10 38  1  0
 10 39  1  0
 11 40  1  0
 11 41  1  0
 11 42  1  0
 13 43  1  0
 14 44  1  0
 15 45  1  0
 16 46  1  0
 19 47  1  0
 19 48  1  0
 19 49  1  0
 20 50  1  0
 20 51  1  0
 20 52  1  0
 22 53  1  0
 22 54  1  0
 22 55  1  0
 23 56  1  0
 23 57  1  0
 23 58  1  0
 25 59  1  0
 26 60  1  0
 27 61  1  0
 28 62  1  0
M  CHG  1   9   1
M  END
$$$$
