
     RDKit          3D

 58 60  0  0  0  0  0  0  0  0999 V2000
    9.9330   -0.6199   -1.3140 C   0  0  0  0  0  0  0  0  0  0  0  0
    8.4371   -0.5602   -1.2130 C   0  0  0  0  0  0  0  0  0  0  0  0
    7.6420   -0.7577   -2.3520 C   0  0  0  0  0  0  0  0  0  0  0  0
    6.2466   -0.7456   -2.2574 C   0  0  0  0  0  0  0  0  0  0  0  0
    5.6235   -0.5406   -1.0191 C   0  0  0  0  0  0  0  0  0  0  0  0
    4.1189   -0.5854   -0.8996 C   0  0  0  0  0  0  0  0  0  0  0  0
    3.6312   -1.9963   -0.5530 C   0  0  0  0  0  0  0  0  0  0  0  0
    2.1834   -2.0879   -0.5075 N   0  0  0  0  0  0  0  0  0  0  0  0
    1.4645   -1.6959    0.6001 C   0  0  0  0  0  0  0  0  0  0  0  0
    1.9816   -1.2261    1.6096 O   0  0  0  0  0  0  0  0  0  0  0  0
   -0.0308   -1.8823    0.4358 C   0  0  0  0  0  0  0  0  0  0  0  0
   -0.7810   -1.6727    1.7445 C   0  0  0  0  0  0  0  0  0  0  0  0
   -0.7924   -0.2467    2.0996 N   0  0  0  0  0  0  0  0  0  0  0  0
   -1.8959    0.2732    3.2544 S   0  0  0  0  0  6  0  0  0  0  0  0
   -2.1188   -0.8139    4.1823 O   0  0  0  0  0  0  0  0  0  0  0  0
   -1.4756    1.5865    3.6874 O   0  0  0  0  0  0  0  0  0  0  0  0
   -3.3665    0.4979    2.2857 C   0  0  0  0  0  0  0  0  0  0  0  0
   -4.5357   -0.1840    2.6201 C   0  0  0  0  0  0  0  0  0  0  0  0
   -5.6911    0.0100    1.8550 C   0  0  0  0  0  0  0  0  0  0  0  0
   -5.6913    0.8813    0.7497 C   0  0  0  0  0  0  0  0  0  0  0  0
   -4.5047    1.5423    0.4287 C   0  0  0  0  0  0  0  0  0  0  0  0
   -3.3413    1.3630    1.1927 C   0  0  0  0  0  0  0  0  0  0  0  0
   -4.4715    2.4393   -0.7338 C   0  0  0  0  0  0  0  0  0  0  0  0
   -3.3988    2.9376   -1.0662 O   0  0  0  0  0  0  0  0  0  0  0  0
   -5.6729    2.6498   -1.3921 N   0  0  0  0  0  0  0  0  0  0  0  0
   -5.6944    3.5839   -2.5029 C   0  0  0  0  0  0  0  0  0  0  0  0
   -6.8666    1.9997   -1.1038 C   0  0  0  0  0  0  0  0  0  0  0  0
   -7.8868    2.2055   -1.7671 O   0  0  0  0  0  0  0  0  0  0  0  0
   -6.8521    1.1064   -0.0359 N   0  0  0  0  0  0  0  0  0  0  0  0
   -8.0926    0.4116    0.2938 C   0  0  0  0  0  0  0  0  0  0  0  0
    6.4198   -0.3443    0.1197 C   0  0  0  0  0  0  0  0  0  0  0  0
    7.8148   -0.3573    0.0246 C   0  0  0  0  0  0  0  0  0  0  0  0
   10.2865   -0.0589   -2.1854 H   0  0  0  0  0  0  0  0  0  0  0  0
   10.4092   -0.1847   -0.4302 H   0  0  0  0  0  0  0  0  0  0  0  0
   10.2559   -1.6623   -1.4034 H   0  0  0  0  0  0  0  0  0  0  0  0
    8.1067   -0.9289   -3.3219 H   0  0  0  0  0  0  0  0  0  0  0  0
    5.6500   -0.9044   -3.1575 H   0  0  0  0  0  0  0  0  0  0  0  0
    3.6599   -0.2516   -1.8402 H   0  0  0  0  0  0  0  0  0  0  0  0
    3.7889    0.1326   -0.1386 H   0  0  0  0  0  0  0  0  0  0  0  0
    4.0323   -2.3122    0.4174 H   0  0  0  0  0  0  0  0  0  0  0  0
    3.9700   -2.7190   -1.3045 H   0  0  0  0  0  0  0  0  0  0  0  0
    1.6967   -2.3600   -1.3525 H   0  0  0  0  0  0  0  0  0  0  0  0
   -0.2108   -2.9040    0.0833 H   0  0  0  0  0  0  0  0  0  0  0  0
   -0.3857   -1.1855   -0.3316 H   0  0  0  0  0  0  0  0  0  0  0  0
   -0.3175   -2.2463    2.5558 H   0  0  0  0  0  0  0  0  0  0  0  0
   -1.8121   -2.0229    1.6111 H   0  0  0  0  0  0  0  0  0  0  0  0
    0.1313    0.1783    2.2458 H   0  0  0  0  0  0  0  0  0  0  0  0
   -4.5589   -0.8604    3.4738 H   0  0  0  0  0  0  0  0  0  0  0  0
   -6.5835   -0.5330    2.1558 H   0  0  0  0  0  0  0  0  0  0  0  0
   -2.4251    1.8942    0.9391 H   0  0  0  0  0  0  0  0  0  0  0  0
   -4.7359    4.0972   -2.6345 H   0  0  0  0  0  0  0  0  0  0  0  0
   -6.4714    4.3325   -2.3176 H   0  0  0  0  0  0  0  0  0  0  0  0
   -5.9435    3.0410   -3.4223 H   0  0  0  0  0  0  0  0  0  0  0  0
   -8.9049    0.6621   -0.3933 H   0  0  0  0  0  0  0  0  0  0  0  0
   -8.4095    0.6964    1.3013 H   0  0  0  0  0  0  0  0  0  0  0  0
   -7.9334   -0.6702    0.2365 H   0  0  0  0  0  0  0  0  0  0  0  0
    5.9581   -0.1877    1.0935 H   0  0  0  0  0  0  0  0  0  0  0  0
    8.4112   -0.2135    0.9261 H   0  0  0  0  0  0  0  0  0  0  0  0
  1  2  1  0
  2  3  2  0
  3  4  1  0
  4  5  2  0
  5  6  1  0
  6  7  1  0
  7  8  1  0
  8  9  1  0
  9 10  2  0
  9 11  1  0
 11 12  1  0
 12 13  1  0
 13 14  1  0
 14 15  2  0
 14 16  2  0
 14 17  1  0
 17 18  2  0
 18 19  1  0
 19 20  2  0
 20 21  1  0
 21 22  2  0
 21 23  1  0
 23 24  2  0
 23 25  1  0
 25 26  1  0
 25 27  1  0
 27 28  2  0
 27 29  1  0
 29 30  1  0
  5 31  1  0
 31 32  2  0
 32  2  1  0
 22 17  1  0
 29 20  1  0
  1 33  1  0
  1 34  1  0
  1 35  1  0
  3 36  1  0
  4 37  1  0
  6 38  1  0
  6 39  1  0
  7 40  1  0
  7 41  1  0
  8 42  1  0
 11 43  1  0
 11 44  1  0
 12 45  1  0
 12 46  1  0
 13 47  1  0
 18 48  1  0
 19 49  1  0
 22 50  1  0
 26 51  1  0
 26 52  1  0
 26 53  1  0
 30 54  1  0
 30 55  1  0
 30 56  1  0
 31 57  1  0
 32 58  1  0
M  END
$$$$
