
     RDKit          3D

 60 65  0  0  0  0  0  0  0  0999 V2000
    0.2071   -2.8699    4.4602 O   0  0  0  0  0  0  0  0  0  0  0  0
    0.4798   -2.2688    3.4282 C   0  0  0  0  0  0  0  0  0  0  0  0
    0.2393   -2.8133    2.1723 N   0  0  0  0  0  0  0  0  0  0  0  0
    0.5319   -2.1713    0.9719 C   0  0  0  0  0  0  0  0  0  0  0  0
    0.1477   -2.9534   -0.2784 C   0  0  0  0  0  0  0  0  0  0  0  0
    1.0672   -2.6340   -1.4645 C   0  0  0  0  0  0  0  0  0  0  0  0
    0.5636   -1.4393   -2.2636 C   0  0  0  0  0  0  0  0  0  0  0  0
   -0.7890   -1.6979   -2.8062 N   0  0  0  0  0  0  0  0  0  0  0  0
   -1.5581   -0.3946   -3.5817 S   0  0  0  0  0  6  0  0  0  0  0  0
   -2.7579   -0.8817   -4.2248 O   0  0  0  0  0  0  0  0  0  0  0  0
   -0.5526    0.3357   -4.3233 O   0  0  0  0  0  0  0  0  0  0  0  0
   -2.0593    0.6399   -2.2192 C   0  0  0  0  0  0  0  0  0  0  0  0
   -1.2345    1.6947   -1.8095 C   0  0  0  0  0  0  0  0  0  0  0  0
   -1.6274    2.5017   -0.7427 C   0  0  0  0  0  0  0  0  0  0  0  0
   -2.8399    2.2586   -0.0984 C   0  0  0  0  0  0  0  0  0  0  0  0
   -3.6801    1.2312   -0.5416 C   0  0  0  0  0  0  0  0  0  0  0  0
   -3.2950    0.4196   -1.6045 C   0  0  0  0  0  0  0  0  0  0  0  0
   -4.8970    0.9591    0.0284 O   0  0  0  0  0  0  0  0  0  0  0  0
   -5.3570    2.0635    0.8140 C   0  0  0  0  0  0  0  0  0  0  0  0
   -4.2498    2.5830    1.7167 C   0  0  0  0  0  0  0  0  0  0  0  0
   -3.1510    3.0853    0.9474 O   0  0  0  0  0  0  0  0  0  0  0  0
   -1.6219   -2.6827   -2.0845 C   0  0  0  0  0  0  0  0  0  0  0  0
   -1.3293   -2.6658   -0.5901 C   0  0  0  0  0  0  0  0  0  0  0  0
    1.0282   -0.9671    0.8892 N   0  0  0  0  0  0  0  0  0  0  0  0
    1.2771   -0.4146    2.1019 C   0  0  0  0  0  0  0  0  0  0  0  0
    1.0558   -0.9543    3.3460 C   0  0  0  0  0  0  0  0  0  0  0  0
    1.4313   -0.0834    4.3201 N   0  0  0  0  0  0  0  0  0  0  0  0
    1.8854    1.0147    3.7163 N   0  0  0  0  0  0  0  0  0  0  0  0
    1.7964    0.8186    2.3778 N   0  0  0  0  0  0  0  0  0  0  0  0
    2.1215    1.8866    1.4530 C   0  0  0  0  0  0  0  0  0  0  0  0
    3.3574    1.5831    0.6428 C   0  0  0  0  0  0  0  0  0  0  0  0
    3.2590    1.2952   -0.7284 C   0  0  0  0  0  0  0  0  0  0  0  0
    4.4007    1.0104   -1.4819 C   0  0  0  0  0  0  0  0  0  0  0  0
    5.6533    1.0112   -0.8721 C   0  0  0  0  0  0  0  0  0  0  0  0
    5.7542    1.2974    0.4838 C   0  0  0  0  0  0  0  0  0  0  0  0
    6.9591    1.2998    1.0686 F   0  0  0  0  0  0  0  0  0  0  0  0
    4.6243    1.5821    1.2443 C   0  0  0  0  0  0  0  0  0  0  0  0
   -0.1583   -3.7413    2.1866 H   0  0  0  0  0  0  0  0  0  0  0  0
    0.2613   -4.0221   -0.0502 H   0  0  0  0  0  0  0  0  0  0  0  0
    2.0950   -2.4500   -1.1286 H   0  0  0  0  0  0  0  0  0  0  0  0
    1.1086   -3.5106   -2.1245 H   0  0  0  0  0  0  0  0  0  0  0  0
    0.5566   -0.5436   -1.6386 H   0  0  0  0  0  0  0  0  0  0  0  0
    1.2503   -1.2623   -3.0987 H   0  0  0  0  0  0  0  0  0  0  0  0
   -0.2924    1.8926   -2.3160 H   0  0  0  0  0  0  0  0  0  0  0  0
   -0.9939    3.3200   -0.4133 H   0  0  0  0  0  0  0  0  0  0  0  0
   -3.9621   -0.3657   -1.9531 H   0  0  0  0  0  0  0  0  0  0  0  0
   -5.7203    2.8452    0.1365 H   0  0  0  0  0  0  0  0  0  0  0  0
   -6.2026    1.7141    1.4151 H   0  0  0  0  0  0  0  0  0  0  0  0
   -4.6260    3.4088    2.3297 H   0  0  0  0  0  0  0  0  0  0  0  0
   -3.8745    1.8011    2.3885 H   0  0  0  0  0  0  0  0  0  0  0  0
   -1.4160   -3.6755   -2.5029 H   0  0  0  0  0  0  0  0  0  0  0  0
   -2.6895   -2.5014   -2.2433 H   0  0  0  0  0  0  0  0  0  0  0  0
   -1.9577   -3.4100   -0.0848 H   0  0  0  0  0  0  0  0  0  0  0  0
   -1.6258   -1.6933   -0.1765 H   0  0  0  0  0  0  0  0  0  0  0  0
    1.2455    2.0370    0.8111 H   0  0  0  0  0  0  0  0  0  0  0  0
    2.2656    2.8112    2.0257 H   0  0  0  0  0  0  0  0  0  0  0  0
    2.2892    1.2882   -1.2216 H   0  0  0  0  0  0  0  0  0  0  0  0
    4.3119    0.7886   -2.5425 H   0  0  0  0  0  0  0  0  0  0  0  0
    6.5496    0.7924   -1.4433 H   0  0  0  0  0  0  0  0  0  0  0  0
    4.7452    1.7976    2.3030 H   0  0  0  0  0  0  0  0  0  0  0  0
  1  2  2  0
  2  3  1  0
  3  4  1  0
  4  5  1  0
  5  6  1  0
  6  7  1  0
  7  8  1  0
  8  9  1  0
  9 10  2  0
  9 11  2  0
  9 12  1  0
 12 13  2  0
 13 14  1  0
 14 15  2  0
 15 16  1  0
 16 17  2  0
 16 18  1  0
 18 19  1  0
 19 20  1  0
 20 21  1  0
  8 22  1  0
 22 23  1  0
  4 24  2  0
 24 25  1  0
 25 26  2  0
 26 27  1  0
 27 28  2  0
 28 29  1  0
 29 30  1  0
 30 31  1  0
 31 32  2  0
 32 33  1  0
 33 34  2  0
 34 35  1  0
 35 36  1  0
 35 37  2  0
 26  2  1  0
 37 31  1  0
 23  5  1  0
 29 25  1  0
 17 12  1  0
 21 15  1  0
  3 38  1  0
  5 39  1  0
  6 40  1  0
  6 41  1  0
  7 42  1  0
  7 43  1  0
 13 44  1  0
 14 45  1  0
 17 46  1  0
 19 47  1  0
 19 48  1  0
 20 49  1  0
 20 50  1  0
 22 51  1  0
 22 52  1  0
 23 53  1  0
 23 54  1  0
 30 55  1  0
 30 56  1  0
 32 57  1  0
 33 58  1  0
 34 59  1  0
 37 60  1  0
M  END
$$$$
