
     RDKit          3D

 33 34  0  0  0  0  0  0  0  0999 V2000
   -6.3744    1.0079   -0.5088 C   0  0  0  0  0  0  0  0  0  0  0  0
   -5.1554    0.1126   -0.6409 C   0  0  0  0  0  0  0  0  0  0  0  0
   -4.0337    0.8155   -0.1087 O   0  0  0  0  0  0  0  0  0  0  0  0
   -2.8276    0.1722   -0.1316 C   0  0  0  0  0  0  0  0  0  0  0  0
   -2.5877   -1.1068   -0.6337 C   0  0  0  0  0  0  0  0  0  0  0  0
   -1.2964   -1.6460   -0.5935 C   0  0  0  0  0  0  0  0  0  0  0  0
   -0.2331   -0.9080   -0.0593 C   0  0  0  0  0  0  0  0  0  0  0  0
    1.1214   -1.5283   -0.0393 C   0  0  0  0  0  0  0  0  0  0  0  0
    1.2455   -2.7472   -0.0824 O   0  0  0  0  0  0  0  0  0  0  0  0
    2.1913   -0.6633   -0.0065 N   0  0  0  0  0  0  0  0  0  0  0  0
    3.5371   -1.1680   -0.1475 C   0  0  0  0  0  0  0  0  0  0  0  0
    4.4862   -0.0763    0.1757 C   0  0  0  0  0  0  0  0  0  0  0  0
    5.4507    0.0848    1.1488 C   0  0  0  0  0  0  0  0  0  0  0  0
    6.0263    1.3603    0.9345 C   0  0  0  0  0  0  0  0  0  0  0  0
    5.3770    1.8969   -0.1521 C   0  0  0  0  0  0  0  0  0  0  0  0
    4.4377    1.0347   -0.6190 O   0  0  0  0  0  0  0  0  0  0  0  0
   -0.4763    0.3686    0.4577 C   0  0  0  0  0  0  0  0  0  0  0  0
   -1.7682    0.9022    0.4151 C   0  0  0  0  0  0  0  0  0  0  0  0
   -6.2223    1.9483   -1.0489 H   0  0  0  0  0  0  0  0  0  0  0  0
   -7.2660    0.5135   -0.9043 H   0  0  0  0  0  0  0  0  0  0  0  0
   -6.5500    1.2677    0.5404 H   0  0  0  0  0  0  0  0  0  0  0  0
   -4.9930   -0.1164   -1.7004 H   0  0  0  0  0  0  0  0  0  0  0  0
   -5.3277   -0.8116   -0.0772 H   0  0  0  0  0  0  0  0  0  0  0  0
   -3.3788   -1.7143   -1.0605 H   0  0  0  0  0  0  0  0  0  0  0  0
   -1.1218   -2.6472   -0.9838 H   0  0  0  0  0  0  0  0  0  0  0  0
    2.0502    0.3031   -0.2693 H   0  0  0  0  0  0  0  0  0  0  0  0
    3.6752   -2.0272    0.5173 H   0  0  0  0  0  0  0  0  0  0  0  0
    3.6713   -1.5060   -1.1804 H   0  0  0  0  0  0  0  0  0  0  0  0
    5.7041   -0.6319    1.9180 H   0  0  0  0  0  0  0  0  0  0  0  0
    6.8169    1.8315    1.5014 H   0  0  0  0  0  0  0  0  0  0  0  0
    5.4613    2.8318   -0.6885 H   0  0  0  0  0  0  0  0  0  0  0  0
    0.3146    0.9525    0.9193 H   0  0  0  0  0  0  0  0  0  0  0  0
   -1.9543    1.8945    0.8203 H   0  0  0  0  0  0  0  0  0  0  0  0
  1  2  1  0
  2  3  1  0
  3  4  1  0
  4  5  2  0
  5  6  1  0
  6  7  2  0
  7  8  1  0
  8  9  2  0
  8 10  1  0
 10 11  1  0
 11 12  1  0
 12 13  2  0
 13 14  1  0
 14 15  2  0
 15 16  1  0
  7 17  1  0
 17 18  2  0
 18  4  1  0
 16 12  1  0
  1 19  1  0
  1 20  1  0
  1 21  1  0
  2 22  1  0
  2 23  1  0
  5 24  1  0
  6 25  1  0
 10 26  1  0
 11 27  1  0
 11 28  1  0
 13 29  1  0
 14 30  1  0
 15 31  1  0
 17 32  1  0
 18 33  1  0
M  END
$$$$
