
     RDKit          3D

 32 32  0  0  0  0  0  0  0  0999 V2000
   -5.8701    0.5206   -2.8213 C   0  0  0  0  0  0  0  0  0  0  0  0
   -5.0436    0.6911   -1.9662 C   0  0  0  0  0  0  0  0  0  0  0  0
   -4.0313    0.9072   -0.9186 C   0  0  0  0  0  0  0  0  0  0  0  0
   -2.9160   -0.0525   -1.0211 N   0  0  0  0  0  0  0  0  0  0  0  0
   -3.3581   -1.4005   -0.6450 C   0  0  0  0  0  0  0  0  0  0  0  0
   -1.7894    0.4030   -0.1870 C   0  0  0  0  0  0  0  0  0  0  0  0
   -0.5084   -0.4122   -0.3913 C   0  0  0  0  0  0  0  0  0  0  0  0
    0.6669    0.2127    0.3585 C   0  0  0  0  0  0  0  0  0  0  0  0
    1.8074   -0.6216    0.1601 O   0  0  0  0  0  0  0  0  0  0  0  0
    2.9857   -0.2571    0.7557 C   0  0  0  0  0  0  0  0  0  0  0  0
    3.1618    0.8984    1.5247 C   0  0  0  0  0  0  0  0  0  0  0  0
    4.4077    1.1867    2.0927 C   0  0  0  0  0  0  0  0  0  0  0  0
    5.4821    0.3225    1.8947 C   0  0  0  0  0  0  0  0  0  0  0  0
    7.0093    0.6858    2.5977 Cl  0  0  0  0  0  0  0  0  0  0  0  0
    5.3271   -0.8304    1.1333 C   0  0  0  0  0  0  0  0  0  0  0  0
    4.0827   -1.1170    0.5667 C   0  0  0  0  0  0  0  0  0  0  0  0
    3.9391   -2.5644   -0.3708 Cl  0  0  0  0  0  0  0  0  0  0  0  0
   -6.5959    0.3649   -3.5855 H   0  0  0  0  0  0  0  0  0  0  0  0
   -4.4950    0.8673    0.0751 H   0  0  0  0  0  0  0  0  0  0  0  0
   -3.6526    1.9291   -1.0496 H   0  0  0  0  0  0  0  0  0  0  0  0
   -3.6560   -1.4559    0.4083 H   0  0  0  0  0  0  0  0  0  0  0  0
   -4.2045   -1.7315   -1.2565 H   0  0  0  0  0  0  0  0  0  0  0  0
   -2.5695   -2.1385   -0.8215 H   0  0  0  0  0  0  0  0  0  0  0  0
   -1.5566    1.4434   -0.4494 H   0  0  0  0  0  0  0  0  0  0  0  0
   -2.0677    0.3986    0.8752 H   0  0  0  0  0  0  0  0  0  0  0  0
   -0.2609   -0.4781   -1.4585 H   0  0  0  0  0  0  0  0  0  0  0  0
   -0.6348   -1.4436   -0.0424 H   0  0  0  0  0  0  0  0  0  0  0  0
    0.4284    0.2719    1.4273 H   0  0  0  0  0  0  0  0  0  0  0  0
    0.8618    1.2156   -0.0395 H   0  0  0  0  0  0  0  0  0  0  0  0
    2.3522    1.5989    1.7018 H   0  0  0  0  0  0  0  0  0  0  0  0
    4.5316    2.0884    2.6879 H   0  0  0  0  0  0  0  0  0  0  0  0
    6.1665   -1.5029    0.9800 H   0  0  0  0  0  0  0  0  0  0  0  0
  1  2  3  0
  2  3  1  0
  3  4  1  0
  4  5  1  0
  4  6  1  0
  6  7  1  0
  7  8  1  0
  8  9  1  0
  9 10  1  0
 10 11  2  0
 11 12  1  0
 12 13  2  0
 13 14  1  0
 13 15  1  0
 15 16  2  0
 16 17  1  0
 16 10  1  0
  1 18  1  0
  3 19  1  0
  3 20  1  0
  5 21  1  0
  5 22  1  0
  5 23  1  0
  6 24  1  0
  6 25  1  0
  7 26  1  0
  7 27  1  0
  8 28  1  0
  8 29  1  0
 11 30  1  0
 12 31  1  0
 15 32  1  0
M  END
$$$$
