
     RDKit          3D

 55 60  0  0  0  0  0  0  0  0999 V2000
    5.1664    1.2236    0.1340 O   0  0  0  0  0  0  0  0  0  0  0  0
    4.4517    0.3539    0.6284 C   0  0  0  0  0  0  0  0  0  0  0  0
    4.9681   -0.5210    1.6713 C   0  0  0  0  0  0  0  0  0  0  0  0
    4.3151   -1.1553    2.7704 C   0  0  0  0  0  0  0  0  0  0  0  0
    5.2858   -1.8365    3.4663 C   0  0  0  0  0  0  0  0  0  0  0  0
    6.4989   -1.6505    2.8887 O   0  0  0  0  0  0  0  0  0  0  0  0
    6.3042   -0.8400    1.8179 C   0  0  0  0  0  0  0  0  0  0  0  0
    3.1028    0.2026    0.2596 N   0  0  0  0  0  0  0  0  0  0  0  0
    2.5615   -1.1327    0.0073 C   0  0  0  0  0  0  0  0  0  0  0  0
    1.0370   -1.1367    0.0957 C   0  0  0  0  0  0  0  0  0  0  0  0
    0.3964   -0.0804   -0.8441 C   0  0  0  0  0  0  0  0  0  0  0  0
    1.0464    1.2943   -0.5557 C   0  0  0  0  0  0  0  0  0  0  0  0
    2.5707    1.2369   -0.6194 C   0  0  0  0  0  0  0  0  0  0  0  0
    0.7881   -0.5151   -2.1729 O   0  0  0  0  0  0  0  0  0  0  0  0
    0.0745   -0.0472   -3.2349 C   0  0  0  0  0  0  0  0  0  0  0  0
    0.6376   -0.2646   -4.4938 C   0  0  0  0  0  0  0  0  0  0  0  0
   -0.0119    0.1988   -5.6393 C   0  0  0  0  0  0  0  0  0  0  0  0
   -1.2220    0.8743   -5.5176 C   0  0  0  0  0  0  0  0  0  0  0  0
   -1.8394    1.3214   -6.6182 F   0  0  0  0  0  0  0  0  0  0  0  0
   -1.7997    1.0888   -4.2735 C   0  0  0  0  0  0  0  0  0  0  0  0
   -1.1467    0.6123   -3.1338 C   0  0  0  0  0  0  0  0  0  0  0  0
   -1.7356    0.8039   -1.8024 C   0  0  0  0  0  0  0  0  0  0  0  0
   -2.6376    1.6234   -1.6483 O   0  0  0  0  0  0  0  0  0  0  0  0
   -1.1500   -0.0491   -0.6824 C   0  0  0  0  0  0  0  0  0  0  0  0
   -1.6600    0.4134    0.6760 C   0  0  0  0  0  0  0  0  0  0  0  0
   -2.7993   -0.5363    0.8295 C   0  0  0  0  0  0  0  0  0  0  0  0
   -3.8392   -0.3604    1.8712 C   0  0  0  0  0  0  0  0  0  0  0  0
   -4.9136   -1.2601    1.9138 C   0  0  0  0  0  0  0  0  0  0  0  0
   -5.9096   -1.1259    2.8851 C   0  0  0  0  0  0  0  0  0  0  0  0
   -5.8323   -0.0927    3.8157 C   0  0  0  0  0  0  0  0  0  0  0  0
   -7.0552    0.0744    5.0133 Cl  0  0  0  0  0  0  0  0  0  0  0  0
   -4.7677    0.8068    3.7830 C   0  0  0  0  0  0  0  0  0  0  0  0
   -3.7693    0.6745    2.8116 C   0  0  0  0  0  0  0  0  0  0  0  0
   -2.7849   -1.5381    0.0093 N   0  0  0  0  0  0  0  0  0  0  0  0
   -1.6732   -1.3783   -0.8447 O   0  0  0  0  0  0  0  0  0  0  0  0
    3.2667   -1.1099    3.0284 H   0  0  0  0  0  0  0  0  0  0  0  0
    5.2806   -2.4555    4.3530 H   0  0  0  0  0  0  0  0  0  0  0  0
    7.1936   -0.5777    1.2604 H   0  0  0  0  0  0  0  0  0  0  0  0
    2.9011   -1.4416   -0.9894 H   0  0  0  0  0  0  0  0  0  0  0  0
    2.9654   -1.8728    0.7000 H   0  0  0  0  0  0  0  0  0  0  0  0
    0.7558   -0.9548    1.1381 H   0  0  0  0  0  0  0  0  0  0  0  0
    0.6891   -2.1428   -0.1684 H   0  0  0  0  0  0  0  0  0  0  0  0
    0.7072    2.0490   -1.2742 H   0  0  0  0  0  0  0  0  0  0  0  0
    0.7537    1.6437    0.4419 H   0  0  0  0  0  0  0  0  0  0  0  0
    2.9217    1.0371   -1.6393 H   0  0  0  0  0  0  0  0  0  0  0  0
    2.9744    2.2124   -0.3232 H   0  0  0  0  0  0  0  0  0  0  0  0
    1.5857   -0.7896   -4.5846 H   0  0  0  0  0  0  0  0  0  0  0  0
    0.4176    0.0391   -6.6238 H   0  0  0  0  0  0  0  0  0  0  0  0
   -2.7494    1.6110   -4.2033 H   0  0  0  0  0  0  0  0  0  0  0  0
   -1.9737    1.4594    0.7026 H   0  0  0  0  0  0  0  0  0  0  0  0
   -0.9613    0.2321    1.4961 H   0  0  0  0  0  0  0  0  0  0  0  0
   -4.9850   -2.0700    1.1897 H   0  0  0  0  0  0  0  0  0  0  0  0
   -6.7386   -1.8286    2.9065 H   0  0  0  0  0  0  0  0  0  0  0  0
   -4.7100    1.6135    4.5098 H   0  0  0  0  0  0  0  0  0  0  0  0
   -2.9527    1.3901    2.8129 H   0  0  0  0  0  0  0  0  0  0  0  0
  1  2  2  0
  2  3  1  0
  3  4  1  0
  4  5  2  0
  5  6  1  0
  6  7  1  0
  2  8  1  0
  8  9  1  0
  9 10  1  0
 10 11  1  0
 11 12  1  0
 12 13  1  0
 11 14  1  0
 14 15  1  0
 15 16  2  0
 16 17  1  0
 17 18  2  0
 18 19  1  0
 18 20  1  0
 20 21  2  0
 21 22  1  0
 22 23  2  0
 22 24  1  0
 24 25  1  0
 25 26  1  0
 26 27  1  0
 27 28  2  0
 28 29  1  0
 29 30  2  0
 30 31  1  0
 30 32  1  0
 32 33  2  0
 26 34  2  0
 34 35  1  0
  7  3  2  0
 13  8  1  0
 21 15  1  0
 35 24  1  0
 24 11  1  0
 33 27  1  0
  4 36  1  0
  5 37  1  0
  7 38  1  0
  9 39  1  0
  9 40  1  0
 10 41  1  0
 10 42  1  0
 12 43  1  0
 12 44  1  0
 13 45  1  0
 13 46  1  0
 16 47  1  0
 17 48  1  0
 20 49  1  0
 25 50  1  0
 25 51  1  0
 28 52  1  0
 29 53  1  0
 32 54  1  0
 33 55  1  0
M  END
$$$$
