
     RDKit          3D

 54 58  0  0  0  0  0  0  0  0999 V2000
    1.3270   -1.5313    0.4924 O   0  0  0  0  0  0  0  0  0  0  0  0
    1.7887   -1.2176   -0.6043 C   0  0  0  0  0  0  0  0  0  0  0  0
    1.0634   -1.4399   -1.9265 C   0  0  0  0  0  0  0  0  0  0  0  0
   -0.7424   -1.4822   -1.7233 S   0  0  0  0  0  0  0  0  0  0  0  0
   -0.9415   -0.0108   -0.7730 C   0  0  0  0  0  0  0  0  0  0  0  0
   -0.3428    1.0449   -1.2416 N   0  0  0  0  0  0  0  0  0  0  0  0
   -0.5289    2.2096   -0.4862 C   0  0  0  0  0  0  0  0  0  0  0  0
   -1.3175    2.2352    0.6220 C   0  0  0  0  0  0  0  0  0  0  0  0
   -1.3936    3.7716    1.3251 S   0  0  0  0  0  0  0  0  0  0  0  0
   -0.3409    4.4410    0.1251 C   0  0  0  0  0  0  0  0  0  0  0  0
    0.0937    5.7788    0.0293 C   0  0  0  0  0  0  0  0  0  0  0  0
    0.9470    6.1387   -1.0168 C   0  0  0  0  0  0  0  0  0  0  0  0
    1.3627    5.1944   -1.9469 C   0  0  0  0  0  0  0  0  0  0  0  0
    0.9294    3.8671   -1.8494 C   0  0  0  0  0  0  0  0  0  0  0  0
    0.0616    3.4703   -0.8029 C   0  0  0  0  0  0  0  0  0  0  0  0
   -1.9999    1.0775    1.1185 C   0  0  0  0  0  0  0  0  0  0  0  0
   -2.7613    1.0909    2.0836 O   0  0  0  0  0  0  0  0  0  0  0  0
   -1.7271   -0.0811    0.3772 N   0  0  0  0  0  0  0  0  0  0  0  0
   -2.3288   -1.3219    0.8852 C   0  0  0  0  0  0  0  0  0  0  0  0
   -3.7419   -1.5420    0.3316 C   0  0  0  0  0  0  0  0  0  0  0  0
   -4.3496   -2.8164    0.8622 C   0  0  0  0  0  0  0  0  0  0  0  0
   -5.1229   -2.7997    2.0304 C   0  0  0  0  0  0  0  0  0  0  0  0
   -5.6610   -3.9832    2.5369 C   0  0  0  0  0  0  0  0  0  0  0  0
   -5.4275   -5.1925    1.8841 C   0  0  0  0  0  0  0  0  0  0  0  0
   -4.6551   -5.2198    0.7245 C   0  0  0  0  0  0  0  0  0  0  0  0
   -4.1160   -4.0377    0.2160 C   0  0  0  0  0  0  0  0  0  0  0  0
    3.0365   -0.6471   -0.7503 N   0  0  0  0  0  0  0  0  0  0  0  0
    3.7827   -0.2070    0.4072 C   0  0  0  0  0  0  0  0  0  0  0  0
    5.1950    0.0329    0.0119 C   0  0  0  0  0  0  0  0  0  0  0  0
    6.4068   -0.3906    0.5235 C   0  0  0  0  0  0  0  0  0  0  0  0
    7.4135    0.1988   -0.2779 C   0  0  0  0  0  0  0  0  0  0  0  0
    6.7557    0.9457   -1.2293 C   0  0  0  0  0  0  0  0  0  0  0  0
    5.4077    0.8496   -1.0665 O   0  0  0  0  0  0  0  0  0  0  0  0
    1.3944   -2.3977   -2.3415 H   0  0  0  0  0  0  0  0  0  0  0  0
    1.3220   -0.6485   -2.6395 H   0  0  0  0  0  0  0  0  0  0  0  0
   -0.2319    6.5206    0.7538 H   0  0  0  0  0  0  0  0  0  0  0  0
    1.2848    7.1699   -1.1029 H   0  0  0  0  0  0  0  0  0  0  0  0
    2.0252    5.4868   -2.7579 H   0  0  0  0  0  0  0  0  0  0  0  0
    1.2542    3.1334   -2.5839 H   0  0  0  0  0  0  0  0  0  0  0  0
   -1.6830   -2.1777    0.6623 H   0  0  0  0  0  0  0  0  0  0  0  0
   -2.3678   -1.2730    1.9815 H   0  0  0  0  0  0  0  0  0  0  0  0
   -3.7294   -1.5745   -0.7647 H   0  0  0  0  0  0  0  0  0  0  0  0
   -4.3888   -0.6928    0.5875 H   0  0  0  0  0  0  0  0  0  0  0  0
   -5.3076   -1.8637    2.5551 H   0  0  0  0  0  0  0  0  0  0  0  0
   -6.2592   -3.9615    3.4439 H   0  0  0  0  0  0  0  0  0  0  0  0
   -5.8436   -6.1139    2.2806 H   0  0  0  0  0  0  0  0  0  0  0  0
   -4.4692   -6.1629    0.2175 H   0  0  0  0  0  0  0  0  0  0  0  0
   -3.5100   -4.0755   -0.6867 H   0  0  0  0  0  0  0  0  0  0  0  0
    3.2761   -0.1840   -1.6230 H   0  0  0  0  0  0  0  0  0  0  0  0
    3.3271    0.7222    0.7726 H   0  0  0  0  0  0  0  0  0  0  0  0
    3.7157   -0.9626    1.1980 H   0  0  0  0  0  0  0  0  0  0  0  0
    6.5442   -1.0435    1.3773 H   0  0  0  0  0  0  0  0  0  0  0  0
    8.4849    0.0988   -0.1776 H   0  0  0  0  0  0  0  0  0  0  0  0
    7.0888    1.5740   -2.0441 H   0  0  0  0  0  0  0  0  0  0  0  0
  1  2  2  0
  2  3  1  0
  3  4  1  0
  4  5  1  0
  5  6  2  0
  6  7  1  0
  7  8  2  0
  8  9  1  0
  9 10  1  0
 10 11  2  0
 11 12  1  0
 12 13  2  0
 13 14  1  0
 14 15  2  0
  8 16  1  0
 16 17  2  0
 16 18  1  0
 18 19  1  0
 19 20  1  0
 20 21  1  0
 21 22  2  0
 22 23  1  0
 23 24  2  0
 24 25  1  0
 25 26  2  0
  2 27  1  0
 27 28  1  0
 28 29  1  0
 29 30  2  0
 30 31  1  0
 31 32  2  0
 32 33  1  0
 18  5  1  0
 26 21  1  0
 33 29  1  0
 15  7  1  0
 15 10  1  0
  3 34  1  0
  3 35  1  0
 11 36  1  0
 12 37  1  0
 13 38  1  0
 14 39  1  0
 19 40  1  0
 19 41  1  0
 20 42  1  0
 20 43  1  0
 22 44  1  0
 23 45  1  0
 24 46  1  0
 25 47  1  0
 26 48  1  0
 27 49  1  0
 28 50  1  0
 28 51  1  0
 30 52  1  0
 31 53  1  0
 32 54  1  0
M  END
$$$$
