
     RDKit          3D

 29 30  0  0  0  0  0  0  0  0999 V2000
    3.7739    0.9697   -0.8324 C   0  0  0  0  0  0  0  0  0  0  0  0
    3.3270    0.1181    0.3420 C   0  0  0  0  0  0  0  0  0  0  0  0
    2.5966   -1.0438   -0.1638 N   0  0  0  0  0  0  0  0  0  0  0  0
    1.6229   -1.9034    0.9035 S   0  0  0  0  0  6  0  0  0  0  0  0
    2.2131   -1.8099    2.2204 O   0  0  0  0  0  0  0  0  0  0  0  0
    1.3624   -3.1786    0.2736 O   0  0  0  0  0  0  0  0  0  0  0  0
    0.1220   -0.9619    0.8690 C   0  0  0  0  0  0  0  0  0  0  0  0
   -0.2456   -0.1932    1.9897 C   0  0  0  0  0  0  0  0  0  0  0  0
   -1.4398    0.5292    1.9787 C   0  0  0  0  0  0  0  0  0  0  0  0
   -2.2244    0.4698    0.8390 C   0  0  0  0  0  0  0  0  0  0  0  0
   -1.8502   -0.2838   -0.2760 C   0  0  0  0  0  0  0  0  0  0  0  0
   -0.6899   -1.0306   -0.2696 C   0  0  0  0  0  0  0  0  0  0  0  0
   -2.8279   -0.2771   -1.2987 N   0  0  0  0  0  0  0  0  0  0  0  0
   -3.6705    0.8770   -0.9393 C   0  0  0  0  0  0  0  0  0  0  0  0
   -3.5552    1.0903    0.5817 C   0  0  0  0  0  0  0  0  0  0  0  0
    4.3267    1.8460   -0.4802 H   0  0  0  0  0  0  0  0  0  0  0  0
    4.4248    0.4018   -1.5056 H   0  0  0  0  0  0  0  0  0  0  0  0
    2.9135    1.3174   -1.4142 H   0  0  0  0  0  0  0  0  0  0  0  0
    4.2035   -0.2194    0.9042 H   0  0  0  0  0  0  0  0  0  0  0  0
    2.6929    0.7196    1.0005 H   0  0  0  0  0  0  0  0  0  0  0  0
    3.0570   -1.6547   -0.8374 H   0  0  0  0  0  0  0  0  0  0  0  0
    0.3869   -0.1697    2.8748 H   0  0  0  0  0  0  0  0  0  0  0  0
   -1.7473    1.1073    2.8441 H   0  0  0  0  0  0  0  0  0  0  0  0
   -0.4225   -1.6562   -1.1145 H   0  0  0  0  0  0  0  0  0  0  0  0
   -2.4067   -0.2327   -2.2230 H   0  0  0  0  0  0  0  0  0  0  0  0
   -3.3056    1.7650   -1.4725 H   0  0  0  0  0  0  0  0  0  0  0  0
   -4.7091    0.7109   -1.2429 H   0  0  0  0  0  0  0  0  0  0  0  0
   -3.5916    2.1513    0.8427 H   0  0  0  0  0  0  0  0  0  0  0  0
   -4.3369    0.5417    1.1171 H   0  0  0  0  0  0  0  0  0  0  0  0
  1  2  1  0
  2  3  1  0
  3  4  1  0
  4  5  2  0
  4  6  2  0
  4  7  1  0
  7  8  2  0
  8  9  1  0
  9 10  2  0
 10 11  1  0
 11 12  2  0
 11 13  1  0
 13 14  1  0
 14 15  1  0
 12  7  1  0
 15 10  1  0
  1 16  1  0
  1 17  1  0
  1 18  1  0
  2 19  1  0
  2 20  1  0
  3 21  1  0
  8 22  1  0
  9 23  1  0
 12 24  1  0
 13 25  1  0
 14 26  1  0
 14 27  1  0
 15 28  1  0
 15 29  1  0
M  END
$$$$
