
     RDKit          3D

 21 21  0  0  0  0  0  0  0  0999 V2000
    3.0963   -0.2647   -0.2765 C   0  0  0  0  0  0  0  0  0  0  0  0
    1.6193    0.0093   -0.1947 C   0  0  0  0  0  0  0  0  0  0  0  0
    1.1284    1.2185   -0.6966 C   0  0  0  0  0  0  0  0  0  0  0  0
   -0.2259    1.4924   -0.6066 C   0  0  0  0  0  0  0  0  0  0  0  0
   -0.6949    2.6835   -1.0938 O   0  0  0  0  0  0  0  0  0  0  0  0
   -1.1368    0.6072   -0.0097 C   0  0  0  0  0  0  0  0  0  0  0  0
   -2.5105    0.9575   -0.0929 N   0  0  0  0  0  0  0  0  0  0  0  0
   -0.6822   -0.6500    0.4231 C   0  0  0  0  0  0  0  0  0  0  0  0
   -1.6327   -1.6738    0.9894 C   0  0  0  0  0  0  0  0  0  0  0  0
    0.7104   -0.9173    0.3641 C   0  0  0  0  0  0  0  0  0  0  0  0
    1.3276   -2.4196    0.9908 Cl  0  0  0  0  0  0  0  0  0  0  0  0
    3.2872   -1.1520   -0.8885 H   0  0  0  0  0  0  0  0  0  0  0  0
    3.5150   -0.4088    0.7247 H   0  0  0  0  0  0  0  0  0  0  0  0
    3.6346    0.5710   -0.7368 H   0  0  0  0  0  0  0  0  0  0  0  0
    1.7895    1.9523   -1.1494 H   0  0  0  0  0  0  0  0  0  0  0  0
   -1.6387    2.6781   -0.8293 H   0  0  0  0  0  0  0  0  0  0  0  0
   -3.0478    0.5427    0.6659 H   0  0  0  0  0  0  0  0  0  0  0  0
   -2.8880    0.6118   -0.9773 H   0  0  0  0  0  0  0  0  0  0  0  0
   -1.3960   -2.6784    0.6241 H   0  0  0  0  0  0  0  0  0  0  0  0
   -2.6686   -1.4963    0.6873 H   0  0  0  0  0  0  0  0  0  0  0  0
   -1.5862   -1.6633    2.0828 H   0  0  0  0  0  0  0  0  0  0  0  0
  1  2  1  0
  2  3  2  0
  3  4  1  0
  4  5  1  0
  4  6  2  0
  6  7  1  0
  6  8  1  0
  8  9  1  0
  8 10  2  0
 10 11  1  0
 10  2  1  0
  1 12  1  0
  1 13  1  0
  1 14  1  0
  3 15  1  0
  5 16  1  0
  7 17  1  0
  7 18  1  0
  9 19  1  0
  9 20  1  0
  9 21  1  0
M  END
$$$$
