
     RDKit          3D

 41 44  0  0  0  0  0  0  0  0999 V2000
   -0.4236    2.2808    2.1690 O   0  0  0  0  0  0  0  0  0  0  0  0
   -1.5979    1.4833    1.8848 S   0  0  0  0  0  6  0  0  0  0  0  0
   -2.8748    1.8012    2.4912 O   0  0  0  0  0  0  0  0  0  0  0  0
   -1.2960   -0.1335    2.2773 N   0  0  0  0  0  0  0  0  0  0  0  0
   -0.2513   -0.8324    1.5940 C   0  0  0  0  0  0  0  0  0  0  0  0
    1.0663   -0.4639    1.8782 C   0  0  0  0  0  0  0  0  0  0  0  0
    2.1305   -1.0382    1.1841 C   0  0  0  0  0  0  0  0  0  0  0  0
    3.8108   -0.5323    1.5322 S   0  0  0  0  0  0  0  0  0  0  0  0
    3.7165    1.1904    1.2642 C   0  0  0  0  0  0  0  0  0  0  0  0
    2.9580    1.7631    0.2770 N   0  0  0  0  0  0  0  0  0  0  0  0
    3.1262    3.0478    0.4850 C   0  0  0  0  0  0  0  0  0  0  0  0
    3.9650    3.2305    1.5378 N   0  0  0  0  0  0  0  0  0  0  0  0
    4.3784    2.0557    2.0383 N   0  0  0  0  0  0  0  0  0  0  0  0
    1.8580   -2.0198    0.2226 C   0  0  0  0  0  0  0  0  0  0  0  0
    2.8935   -2.6113   -0.4672 O   0  0  0  0  0  0  0  0  0  0  0  0
    0.5378   -2.4237   -0.0745 C   0  0  0  0  0  0  0  0  0  0  0  0
    0.2653   -3.4062   -1.0500 C   0  0  0  0  0  0  0  0  0  0  0  0
   -1.0390   -3.7907   -1.3553 C   0  0  0  0  0  0  0  0  0  0  0  0
   -2.1021   -3.1984   -0.6910 C   0  0  0  0  0  0  0  0  0  0  0  0
   -1.8585   -2.2262    0.2808 C   0  0  0  0  0  0  0  0  0  0  0  0
   -0.5433   -1.8186    0.6152 C   0  0  0  0  0  0  0  0  0  0  0  0
   -1.8334    1.4545    0.1228 C   0  0  0  0  0  0  0  0  0  0  0  0
   -0.7332    1.6162   -0.7251 C   0  0  0  0  0  0  0  0  0  0  0  0
   -0.9212    1.5915   -2.1063 C   0  0  0  0  0  0  0  0  0  0  0  0
   -2.2029    1.4269   -2.6338 C   0  0  0  0  0  0  0  0  0  0  0  0
   -3.3022    1.2917   -1.7838 C   0  0  0  0  0  0  0  0  0  0  0  0
   -3.1221    1.3101   -0.4006 C   0  0  0  0  0  0  0  0  0  0  0  0
   -2.1447   -0.6423    2.5127 H   0  0  0  0  0  0  0  0  0  0  0  0
    1.2571    0.2907    2.6391 H   0  0  0  0  0  0  0  0  0  0  0  0
    2.6787    3.8610   -0.0683 H   0  0  0  0  0  0  0  0  0  0  0  0
    4.2886    4.0945    1.9585 H   0  0  0  0  0  0  0  0  0  0  0  0
    3.7185   -2.1894   -0.1636 H   0  0  0  0  0  0  0  0  0  0  0  0
    1.0863   -3.8791   -1.5875 H   0  0  0  0  0  0  0  0  0  0  0  0
   -1.2182   -4.5480   -2.1138 H   0  0  0  0  0  0  0  0  0  0  0  0
   -3.1222   -3.4888   -0.9284 H   0  0  0  0  0  0  0  0  0  0  0  0
   -2.7222   -1.7850    0.7699 H   0  0  0  0  0  0  0  0  0  0  0  0
    0.2689    1.7450   -0.3220 H   0  0  0  0  0  0  0  0  0  0  0  0
   -0.0671    1.6979   -2.7709 H   0  0  0  0  0  0  0  0  0  0  0  0
   -2.3453    1.4079   -3.7117 H   0  0  0  0  0  0  0  0  0  0  0  0
   -4.2990    1.1744   -2.2018 H   0  0  0  0  0  0  0  0  0  0  0  0
   -3.9842    1.2127    0.2548 H   0  0  0  0  0  0  0  0  0  0  0  0
  1  2  2  0
  2  3  2  0
  2  4  1  0
  4  5  1  0
  5  6  2  0
  6  7  1  0
  7  8  1  0
  8  9  1  0
  9 10  1  0
 10 11  2  0
 11 12  1  0
 12 13  1  0
  7 14  2  0
 14 15  1  0
 14 16  1  0
 16 17  2  0
 17 18  1  0
 18 19  2  0
 19 20  1  0
 20 21  2  0
  2 22  1  0
 22 23  2  0
 23 24  1  0
 24 25  2  0
 25 26  1  0
 26 27  2  0
 21  5  1  0
 27 22  1  0
 13  9  2  0
 21 16  1  0
  4 28  1  0
  6 29  1  0
 11 30  1  0
 12 31  1  0
 15 32  1  0
 17 33  1  0
 18 34  1  0
 19 35  1  0
 20 36  1  0
 23 37  1  0
 24 38  1  0
 25 39  1  0
 26 40  1  0
 27 41  1  0
M  END
$$$$
