
     RDKit          3D

 27 27  0  0  0  0  0  0  0  0999 V2000
    3.0631   -1.2421   -1.6977 C   0  0  0  0  0  0  0  0  0  0  0  0
    2.0310   -0.5161   -0.9221 C   0  0  0  0  0  0  0  0  0  0  0  0
    2.1674    0.6640   -0.1799 C   0  0  0  0  0  0  0  0  0  0  0  0
    0.9173    0.9382    0.3589 C   0  0  0  0  0  0  0  0  0  0  0  0
    0.5690    2.0524    1.1961 C   0  0  0  0  0  0  0  0  0  0  0  0
   -0.5034    2.3466    1.6973 O   0  0  0  0  0  0  0  0  0  0  0  0
    1.6381    2.8501    1.4186 O   0  0  0  0  0  0  0  0  0  0  0  0
    0.1043   -0.0915   -0.0904 N   0  0  0  0  0  0  0  0  0  0  0  0
   -1.3343   -0.3551    0.1463 C   0  0  0  0  0  0  0  0  0  0  0  0
   -1.6122   -0.5900    1.6430 C   0  0  0  0  0  0  0  0  0  0  0  0
   -1.8007   -1.6527   -0.5794 C   0  0  0  0  0  0  0  0  0  0  0  0
   -2.2037    0.7801   -0.4266 C   0  0  0  0  0  0  0  0  0  0  0  0
    0.7829   -0.9741   -0.8686 N   0  0  0  0  0  0  0  0  0  0  0  0
    4.0314   -0.7347   -1.6385 H   0  0  0  0  0  0  0  0  0  0  0  0
    3.1898   -2.2587   -1.3117 H   0  0  0  0  0  0  0  0  0  0  0  0
    2.7779   -1.3047   -2.7528 H   0  0  0  0  0  0  0  0  0  0  0  0
    3.0632    1.2554   -0.0444 H   0  0  0  0  0  0  0  0  0  0  0  0
    1.2733    3.5559    1.9900 H   0  0  0  0  0  0  0  0  0  0  0  0
   -1.4160    0.2855    2.2621 H   0  0  0  0  0  0  0  0  0  0  0  0
   -2.6606   -0.8642    1.8100 H   0  0  0  0  0  0  0  0  0  0  0  0
   -0.9894   -1.4041    2.0328 H   0  0  0  0  0  0  0  0  0  0  0  0
   -1.2501   -2.5329   -0.2262 H   0  0  0  0  0  0  0  0  0  0  0  0
   -2.8659   -1.8440   -0.4017 H   0  0  0  0  0  0  0  0  0  0  0  0
   -1.6612   -1.5805   -1.6648 H   0  0  0  0  0  0  0  0  0  0  0  0
   -1.9971    0.9300   -1.4931 H   0  0  0  0  0  0  0  0  0  0  0  0
   -3.2704    0.5485   -0.3240 H   0  0  0  0  0  0  0  0  0  0  0  0
   -2.0435    1.7389    0.0666 H   0  0  0  0  0  0  0  0  0  0  0  0
  1  2  1  0
  2  3  1  0
  3  4  2  0
  4  5  1  0
  5  6  2  0
  5  7  1  0
  4  8  1  0
  8  9  1  0
  9 10  1  0
  9 11  1  0
  9 12  1  0
  8 13  1  0
 13  2  2  0
  1 14  1  0
  1 15  1  0
  1 16  1  0
  3 17  1  0
  7 18  1  0
 10 19  1  0
 10 20  1  0
 10 21  1  0
 11 22  1  0
 11 23  1  0
 11 24  1  0
 12 25  1  0
 12 26  1  0
 12 27  1  0
M  END
$$$$
