
     RDKit          3D

 59 62  0  0  0  0  0  0  0  0999 V2000
  -10.0178   -0.9300   -0.1624 C   0  0  0  0  0  0  0  0  0  0  0  0
   -8.8008   -0.0923    0.1045 C   0  0  0  0  0  0  0  0  0  0  0  0
   -7.7967   -0.5604    0.9634 C   0  0  0  0  0  0  0  0  0  0  0  0
   -6.6803    0.2307    1.2434 C   0  0  0  0  0  0  0  0  0  0  0  0
   -6.5605    1.4950    0.6582 C   0  0  0  0  0  0  0  0  0  0  0  0
   -5.3983    2.3637    0.9557 C   0  0  0  0  0  0  0  0  0  0  0  0
   -5.6205    3.4978    1.3742 O   0  0  0  0  0  0  0  0  0  0  0  0
   -4.1162    1.8653    0.7529 N   0  0  0  0  0  0  0  0  0  0  0  0
   -2.9780    2.6966    1.1443 C   0  0  0  0  0  0  0  0  0  0  0  0
   -1.7020    1.8779    1.4087 C   0  0  0  0  0  0  0  0  0  0  0  0
   -1.3502    1.0124    0.2657 N   0  0  0  0  0  0  0  0  0  0  0  0
   -0.0320    0.6538    0.0316 C   0  0  0  0  0  0  0  0  0  0  0  0
    0.9138    0.6092    1.0663 C   0  0  0  0  0  0  0  0  0  0  0  0
    2.2474    0.2359    0.8423 C   0  0  0  0  0  0  0  0  0  0  0  0
    2.6857   -0.1099   -0.4359 C   0  0  0  0  0  0  0  0  0  0  0  0
    4.0374   -0.4737   -0.5798 N   0  0  0  0  0  0  0  0  0  0  0  0
    4.6886   -0.9121   -1.7180 C   0  0  0  0  0  0  0  0  0  0  0  0
    4.1850   -1.0359   -2.8331 O   0  0  0  0  0  0  0  0  0  0  0  0
    6.1803   -1.1745   -1.5328 C   0  0  0  0  0  0  0  0  0  0  0  0
    6.5941   -1.7695    0.1462 S   0  0  0  0  0  0  0  0  0  0  0  0
    8.3527   -1.9903   -0.0419 C   0  0  0  0  0  0  0  0  0  0  0  0
    8.8728   -2.9392   -0.9292 C   0  0  0  0  0  0  0  0  0  0  0  0
   10.2552   -3.1097   -1.0495 C   0  0  0  0  0  0  0  0  0  0  0  0
   11.1182   -2.3368   -0.2758 C   0  0  0  0  0  0  0  0  0  0  0  0
   12.8190   -2.5490   -0.4213 Cl  0  0  0  0  0  0  0  0  0  0  0  0
   10.6106   -1.3978    0.6196 C   0  0  0  0  0  0  0  0  0  0  0  0
    9.2279   -1.2281    0.7392 C   0  0  0  0  0  0  0  0  0  0  0  0
    1.7684   -0.0716   -1.4791 C   0  0  0  0  0  0  0  0  0  0  0  0
    0.4343    0.3008   -1.2430 C   0  0  0  0  0  0  0  0  0  0  0  0
   -2.4139    0.7286   -0.7117 C   0  0  0  0  0  0  0  0  0  0  0  0
   -3.7982    0.6656   -0.0341 C   0  0  0  0  0  0  0  0  0  0  0  0
   -7.5753    1.9867   -0.1672 C   0  0  0  0  0  0  0  0  0  0  0  0
   -8.6902    1.1927   -0.4445 C   0  0  0  0  0  0  0  0  0  0  0  0
  -10.4649   -0.6757   -1.1292 H   0  0  0  0  0  0  0  0  0  0  0  0
   -9.7567   -1.9935   -0.1945 H   0  0  0  0  0  0  0  0  0  0  0  0
  -10.7623   -0.7695    0.6236 H   0  0  0  0  0  0  0  0  0  0  0  0
   -7.8858   -1.5404    1.4285 H   0  0  0  0  0  0  0  0  0  0  0  0
   -5.9212   -0.1325    1.9310 H   0  0  0  0  0  0  0  0  0  0  0  0
   -2.8057    3.4063    0.3255 H   0  0  0  0  0  0  0  0  0  0  0  0
   -3.2358    3.2803    2.0353 H   0  0  0  0  0  0  0  0  0  0  0  0
   -1.8538    1.2451    2.2919 H   0  0  0  0  0  0  0  0  0  0  0  0
   -0.8947    2.5870    1.6287 H   0  0  0  0  0  0  0  0  0  0  0  0
    0.6237    0.8431    2.0874 H   0  0  0  0  0  0  0  0  0  0  0  0
    2.9265    0.2149    1.6904 H   0  0  0  0  0  0  0  0  0  0  0  0
    4.5931   -0.4875    0.2695 H   0  0  0  0  0  0  0  0  0  0  0  0
    6.4778   -1.9317   -2.2647 H   0  0  0  0  0  0  0  0  0  0  0  0
    6.7184   -0.2430   -1.7366 H   0  0  0  0  0  0  0  0  0  0  0  0
    8.2120   -3.5640   -1.5256 H   0  0  0  0  0  0  0  0  0  0  0  0
   10.6491   -3.8503   -1.7411 H   0  0  0  0  0  0  0  0  0  0  0  0
   11.2821   -0.7991    1.2295 H   0  0  0  0  0  0  0  0  0  0  0  0
    8.8443   -0.4974    1.4479 H   0  0  0  0  0  0  0  0  0  0  0  0
    2.0489   -0.3209   -2.4973 H   0  0  0  0  0  0  0  0  0  0  0  0
   -0.2282    0.3274   -2.1036 H   0  0  0  0  0  0  0  0  0  0  0  0
   -2.2482   -0.2377   -1.2030 H   0  0  0  0  0  0  0  0  0  0  0  0
   -2.4140    1.5104   -1.4814 H   0  0  0  0  0  0  0  0  0  0  0  0
   -4.5688    0.5033   -0.7947 H   0  0  0  0  0  0  0  0  0  0  0  0
   -3.8187   -0.1814    0.6619 H   0  0  0  0  0  0  0  0  0  0  0  0
   -7.5010    2.9877   -0.5864 H   0  0  0  0  0  0  0  0  0  0  0  0
   -9.4765    1.5870   -1.0851 H   0  0  0  0  0  0  0  0  0  0  0  0
  1  2  1  0
  2  3  2  0
  3  4  1  0
  4  5  2  0
  5  6  1  0
  6  7  2  0
  6  8  1  0
  8  9  1  0
  9 10  1  0
 10 11  1  0
 11 12  1  0
 12 13  2  0
 13 14  1  0
 14 15  2  0
 15 16  1  0
 16 17  1  0
 17 18  2  0
 17 19  1  0
 19 20  1  0
 20 21  1  0
 21 22  2  0
 22 23  1  0
 23 24  2  0
 24 25  1  0
 24 26  1  0
 26 27  2  0
 15 28  1  0
 28 29  2  0
 11 30  1  0
 30 31  1  0
  5 32  1  0
 32 33  2  0
 33  2  1  0
 31  8  1  0
 29 12  1  0
 27 21  1  0
  1 34  1  0
  1 35  1  0
  1 36  1  0
  3 37  1  0
  4 38  1  0
  9 39  1  0
  9 40  1  0
 10 41  1  0
 10 42  1  0
 13 43  1  0
 14 44  1  0
 16 45  1  0
 19 46  1  0
 19 47  1  0
 22 48  1  0
 23 49  1  0
 26 50  1  0
 27 51  1  0
 28 52  1  0
 29 53  1  0
 30 54  1  0
 30 55  1  0
 31 56  1  0
 31 57  1  0
 32 58  1  0
 33 59  1  0
M  END
$$$$
