
     RDKit          3D

 55 60  0  0  0  0  0  0  0  0999 V2000
   -5.1270    0.5245   -1.1146 O   0  0  0  0  0  0  0  0  0  0  0  0
   -4.2201    1.0010   -0.4330 C   0  0  0  0  0  0  0  0  0  0  0  0
   -4.4360    2.2474    0.2883 C   0  0  0  0  0  0  0  0  0  0  0  0
   -5.2964    3.3206   -0.0938 C   0  0  0  0  0  0  0  0  0  0  0  0
   -5.2173    4.2659    0.9000 C   0  0  0  0  0  0  0  0  0  0  0  0
   -4.3889    3.8425    1.8871 O   0  0  0  0  0  0  0  0  0  0  0  0
   -3.9391    2.6134    1.5241 C   0  0  0  0  0  0  0  0  0  0  0  0
   -2.9772    0.3677   -0.3362 N   0  0  0  0  0  0  0  0  0  0  0  0
   -2.8537   -0.9670   -0.9100 C   0  0  0  0  0  0  0  0  0  0  0  0
   -1.6718   -1.7170   -0.3059 C   0  0  0  0  0  0  0  0  0  0  0  0
   -0.3102   -1.0081   -0.5962 C   0  0  0  0  0  0  0  0  0  0  0  0
   -0.5616    0.5152   -0.7966 C   0  0  0  0  0  0  0  0  0  0  0  0
   -1.7320    1.0456    0.0250 C   0  0  0  0  0  0  0  0  0  0  0  0
    0.1972   -1.4551   -1.8839 O   0  0  0  0  0  0  0  0  0  0  0  0
    0.7242   -2.7165   -1.9240 C   0  0  0  0  0  0  0  0  0  0  0  0
    0.8825   -3.2764   -3.1922 C   0  0  0  0  0  0  0  0  0  0  0  0
    1.3886   -4.5708   -3.3226 C   0  0  0  0  0  0  0  0  0  0  0  0
    1.7357   -5.2934   -2.1847 C   0  0  0  0  0  0  0  0  0  0  0  0
    2.2196   -6.5345   -2.3170 F   0  0  0  0  0  0  0  0  0  0  0  0
    1.5968   -4.7447   -0.9165 C   0  0  0  0  0  0  0  0  0  0  0  0
    1.0983   -3.4458   -0.7937 C   0  0  0  0  0  0  0  0  0  0  0  0
    0.9826   -2.8107    0.5324 C   0  0  0  0  0  0  0  0  0  0  0  0
    1.1295   -3.4852    1.5454 O   0  0  0  0  0  0  0  0  0  0  0  0
    0.7424   -1.3048    0.5135 C   0  0  0  0  0  0  0  0  0  0  0  0
    2.1028   -0.6324    0.3516 C   0  0  0  0  0  0  0  0  0  0  0  0
    1.9813    0.4209    1.3970 C   0  0  0  0  0  0  0  0  0  0  0  0
    2.9649    1.5217    1.5207 C   0  0  0  0  0  0  0  0  0  0  0  0
    2.7360    2.5327    2.4624 C   0  0  0  0  0  0  0  0  0  0  0  0
    3.6410    3.5870    2.5967 C   0  0  0  0  0  0  0  0  0  0  0  0
    4.7787    3.6352    1.7934 C   0  0  0  0  0  0  0  0  0  0  0  0
    5.0146    2.6293    0.8571 C   0  0  0  0  0  0  0  0  0  0  0  0
    4.1112    1.5720    0.7192 C   0  0  0  0  0  0  0  0  0  0  0  0
    0.9504    0.3008    2.1698 N   0  0  0  0  0  0  0  0  0  0  0  0
    0.2623   -0.8727    1.7890 O   0  0  0  0  0  0  0  0  0  0  0  0
   -5.8969    3.3810   -0.9914 H   0  0  0  0  0  0  0  0  0  0  0  0
   -5.6737    5.2339    1.0535 H   0  0  0  0  0  0  0  0  0  0  0  0
   -3.2935    2.1313    2.2454 H   0  0  0  0  0  0  0  0  0  0  0  0
   -2.7430   -0.8638   -1.9961 H   0  0  0  0  0  0  0  0  0  0  0  0
   -3.7791   -1.5254   -0.7269 H   0  0  0  0  0  0  0  0  0  0  0  0
   -1.6834   -2.7388   -0.7002 H   0  0  0  0  0  0  0  0  0  0  0  0
   -1.8402   -1.7904    0.7758 H   0  0  0  0  0  0  0  0  0  0  0  0
   -0.7740    0.7090   -1.8585 H   0  0  0  0  0  0  0  0  0  0  0  0
    0.3327    1.1086   -0.5890 H   0  0  0  0  0  0  0  0  0  0  0  0
   -1.5675    0.8877    1.0943 H   0  0  0  0  0  0  0  0  0  0  0  0
   -1.8272    2.1211   -0.1534 H   0  0  0  0  0  0  0  0  0  0  0  0
    0.6001   -2.7129   -4.0785 H   0  0  0  0  0  0  0  0  0  0  0  0
    1.5099   -5.0228   -4.3028 H   0  0  0  0  0  0  0  0  0  0  0  0
    1.8838   -5.3249   -0.0440 H   0  0  0  0  0  0  0  0  0  0  0  0
    2.9429   -1.2864    0.6108 H   0  0  0  0  0  0  0  0  0  0  0  0
    2.2662   -0.2143   -0.6446 H   0  0  0  0  0  0  0  0  0  0  0  0
    1.8542    2.5063    3.0998 H   0  0  0  0  0  0  0  0  0  0  0  0
    3.4581    4.3681    3.3307 H   0  0  0  0  0  0  0  0  0  0  0  0
    5.4841    4.4558    1.9004 H   0  0  0  0  0  0  0  0  0  0  0  0
    5.9067    2.6676    0.2362 H   0  0  0  0  0  0  0  0  0  0  0  0
    4.3299    0.8010   -0.0132 H   0  0  0  0  0  0  0  0  0  0  0  0
  1  2  2  0
  2  3  1  0
  3  4  1  0
  4  5  2  0
  5  6  1  0
  6  7  1  0
  2  8  1  0
  8  9  1  0
  9 10  1  0
 10 11  1  0
 11 12  1  0
 12 13  1  0
 11 14  1  0
 14 15  1  0
 15 16  2  0
 16 17  1  0
 17 18  2  0
 18 19  1  0
 18 20  1  0
 20 21  2  0
 21 22  1  0
 22 23  2  0
 22 24  1  0
 24 25  1  0
 25 26  1  0
 26 27  1  0
 27 28  2  0
 28 29  1  0
 29 30  2  0
 30 31  1  0
 31 32  2  0
 26 33  2  0
 33 34  1  0
  7  3  2  0
 13  8  1  0
 21 15  1  0
 34 24  1  0
 24 11  1  0
 32 27  1  0
  4 35  1  0
  5 36  1  0
  7 37  1  0
  9 38  1  0
  9 39  1  0
 10 40  1  0
 10 41  1  0
 12 42  1  0
 12 43  1  0
 13 44  1  0
 13 45  1  0
 16 46  1  0
 17 47  1  0
 20 48  1  0
 25 49  1  0
 25 50  1  0
 28 51  1  0
 29 52  1  0
 30 53  1  0
 31 54  1  0
 32 55  1  0
M  END
$$$$
