
     RDKit          3D

 38 38  0  0  0  0  0  0  0  0999 V2000
    4.9536    0.5700    2.7893 C   0  0  0  0  0  0  0  0  0  0  0  0
    3.5755    0.6283    2.4420 O   0  0  0  0  0  0  0  0  0  0  0  0
    3.2062    1.9388    1.9932 C   0  0  0  0  0  0  0  0  0  0  0  0
    1.7320    1.9190    1.5869 C   0  0  0  0  0  0  0  0  0  0  0  0
    1.4997    1.0375    0.4554 N   0  0  0  0  0  0  0  0  0  0  0  0
    1.7483    1.4479   -0.8334 C   0  0  0  0  0  0  0  0  0  0  0  0
    2.0504    2.5952   -1.1394 O   0  0  0  0  0  0  0  0  0  0  0  0
    1.7076    0.3597   -1.8424 C   0  0  0  0  0  0  0  0  0  0  0  0
    2.9003    0.1710   -2.5984 C   0  0  0  0  0  0  0  0  0  0  0  0
    3.8594   -0.0369   -3.2190 N   0  0  0  0  0  0  0  0  0  0  0  0
    0.6430   -0.4400   -2.0556 C   0  0  0  0  0  0  0  0  0  0  0  0
   -0.7034   -0.3893   -1.4855 C   0  0  0  0  0  0  0  0  0  0  0  0
   -1.3097    0.9615   -1.1851 C   0  0  0  0  0  0  0  0  0  0  0  0
   -1.3897   -1.5449   -1.3653 C   0  0  0  0  0  0  0  0  0  0  0  0
   -2.7524   -1.6784   -0.8380 C   0  0  0  0  0  0  0  0  0  0  0  0
   -3.0435   -1.3736    0.4970 C   0  0  0  0  0  0  0  0  0  0  0  0
   -4.3430   -1.5220    0.9857 C   0  0  0  0  0  0  0  0  0  0  0  0
   -5.3561   -1.9812    0.1453 C   0  0  0  0  0  0  0  0  0  0  0  0
   -5.0712   -2.2948   -1.1829 C   0  0  0  0  0  0  0  0  0  0  0  0
   -3.7720   -2.1473   -1.6732 C   0  0  0  0  0  0  0  0  0  0  0  0
    5.1791   -0.4432    3.1326 H   0  0  0  0  0  0  0  0  0  0  0  0
    5.5774    0.7906    1.9178 H   0  0  0  0  0  0  0  0  0  0  0  0
    5.1744    1.2715    3.5995 H   0  0  0  0  0  0  0  0  0  0  0  0
    3.3518    2.6524    2.8116 H   0  0  0  0  0  0  0  0  0  0  0  0
    3.8381    2.2284    1.1458 H   0  0  0  0  0  0  0  0  0  0  0  0
    1.1146    1.5390    2.4073 H   0  0  0  0  0  0  0  0  0  0  0  0
    1.3987    2.9292    1.3283 H   0  0  0  0  0  0  0  0  0  0  0  0
    1.4431    0.0461    0.6566 H   0  0  0  0  0  0  0  0  0  0  0  0
    0.7753   -1.2511   -2.7774 H   0  0  0  0  0  0  0  0  0  0  0  0
   -0.9376    1.7264   -1.8757 H   0  0  0  0  0  0  0  0  0  0  0  0
   -2.3982    0.9587   -1.3058 H   0  0  0  0  0  0  0  0  0  0  0  0
   -1.0907    1.2731   -0.1602 H   0  0  0  0  0  0  0  0  0  0  0  0
   -0.9430   -2.4944   -1.6569 H   0  0  0  0  0  0  0  0  0  0  0  0
   -2.2613   -1.0211    1.1648 H   0  0  0  0  0  0  0  0  0  0  0  0
   -4.5640   -1.2813    2.0223 H   0  0  0  0  0  0  0  0  0  0  0  0
   -6.3677   -2.0966    0.5260 H   0  0  0  0  0  0  0  0  0  0  0  0
   -5.8607   -2.6544   -1.8378 H   0  0  0  0  0  0  0  0  0  0  0  0
   -3.5643   -2.3940   -2.7117 H   0  0  0  0  0  0  0  0  0  0  0  0
  1  2  1  0
  2  3  1  0
  3  4  1  0
  4  5  1  0
  5  6  1  0
  6  7  2  0
  6  8  1  0
  8  9  1  0
  9 10  3  0
  8 11  2  3
 11 12  1  0
 12 13  1  0
 12 14  2  3
 14 15  1  0
 15 16  2  0
 16 17  1  0
 17 18  2  0
 18 19  1  0
 19 20  2  0
 20 15  1  0
  1 21  1  0
  1 22  1  0
  1 23  1  0
  3 24  1  0
  3 25  1  0
  4 26  1  0
  4 27  1  0
  5 28  1  0
 11 29  1  0
 13 30  1  0
 13 31  1  0
 13 32  1  0
 14 33  1  0
 16 34  1  0
 17 35  1  0
 18 36  1  0
 19 37  1  0
 20 38  1  0
M  END
$$$$
