
     RDKit          3D

 49 53  0  0  0  0  0  0  0  0999 V2000
    6.2352   -0.1111    1.4275 C   0  0  0  0  0  0  0  0  0  0  0  0
    4.8702   -0.6150    1.7734 C   0  0  0  0  0  0  0  0  0  0  0  0
    4.6465   -2.2876    2.0242 S   0  0  0  0  0  0  0  0  0  0  0  0
    2.9905   -2.0919    2.3350 C   0  0  0  0  0  0  0  0  0  0  0  0
    2.2405   -3.1682    2.6253 N   0  0  0  0  0  0  0  0  0  0  0  0
    0.9674   -2.8611    2.8577 C   0  0  0  0  0  0  0  0  0  0  0  0
    0.4055   -1.6491    2.8144 N   0  0  0  0  0  0  0  0  0  0  0  0
    1.1969   -0.5927    2.5261 C   0  0  0  0  0  0  0  0  0  0  0  0
    0.4418    1.0059    2.5701 S   0  0  0  0  0  0  0  0  0  0  0  0
   -0.9811    0.7056    1.4504 C   0  0  0  0  0  0  0  0  0  0  0  0
   -1.9204    1.9041    1.5722 C   0  0  0  0  0  0  0  0  0  0  0  0
   -0.5142    0.5192   -0.0122 C   0  0  0  0  0  0  0  0  0  0  0  0
    0.6607    0.5997   -0.3755 O   0  0  0  0  0  0  0  0  0  0  0  0
   -1.5728    0.2791   -0.9046 N   0  0  0  0  0  0  0  0  0  0  0  0
   -2.1899   -1.0222   -0.9316 C   0  0  0  0  0  0  0  0  0  0  0  0
   -1.5777   -2.0919   -0.2401 C   0  0  0  0  0  0  0  0  0  0  0  0
   -2.1250   -3.3775   -0.2237 C   0  0  0  0  0  0  0  0  0  0  0  0
   -3.2994   -3.6335   -0.9104 C   0  0  0  0  0  0  0  0  0  0  0  0
   -3.9123   -2.6039   -1.6182 C   0  0  0  0  0  0  0  0  0  0  0  0
   -3.3641   -1.3067   -1.6409 C   0  0  0  0  0  0  0  0  0  0  0  0
   -4.2546   -0.0979   -2.5745 S   0  0  0  0  0  0  0  0  0  0  0  0
   -3.0296    1.1700   -2.7332 C   0  0  0  0  0  0  0  0  0  0  0  0
   -3.2968    2.1633   -3.6959 C   0  0  0  0  0  0  0  0  0  0  0  0
   -2.4477    3.2525   -3.8594 C   0  0  0  0  0  0  0  0  0  0  0  0
   -1.3272    3.3638   -3.0545 C   0  0  0  0  0  0  0  0  0  0  0  0
   -1.0574    2.3821   -2.0953 C   0  0  0  0  0  0  0  0  0  0  0  0
   -1.8889    1.2537   -1.9196 C   0  0  0  0  0  0  0  0  0  0  0  0
    2.5683   -0.7712    2.2614 C   0  0  0  0  0  0  0  0  0  0  0  0
    3.6859    0.1013    1.9079 C   0  0  0  0  0  0  0  0  0  0  0  0
    3.5845    1.5828    1.6975 C   0  0  0  0  0  0  0  0  0  0  0  0
    7.0194   -0.8339    1.6775 H   0  0  0  0  0  0  0  0  0  0  0  0
    6.4592    0.8108    1.9733 H   0  0  0  0  0  0  0  0  0  0  0  0
    6.2961    0.0988    0.3544 H   0  0  0  0  0  0  0  0  0  0  0  0
    0.3106   -3.6877    3.1068 H   0  0  0  0  0  0  0  0  0  0  0  0
   -1.5154   -0.1848    1.7903 H   0  0  0  0  0  0  0  0  0  0  0  0
   -2.2207    2.0762    2.6116 H   0  0  0  0  0  0  0  0  0  0  0  0
   -2.8403    1.7377    0.9994 H   0  0  0  0  0  0  0  0  0  0  0  0
   -1.4620    2.8216    1.1854 H   0  0  0  0  0  0  0  0  0  0  0  0
   -0.6294   -1.9613    0.2759 H   0  0  0  0  0  0  0  0  0  0  0  0
   -1.6204   -4.1752    0.3150 H   0  0  0  0  0  0  0  0  0  0  0  0
   -3.7314   -4.6312   -0.9081 H   0  0  0  0  0  0  0  0  0  0  0  0
   -4.8273   -2.8236   -2.1647 H   0  0  0  0  0  0  0  0  0  0  0  0
   -4.1838    2.0962   -4.3229 H   0  0  0  0  0  0  0  0  0  0  0  0
   -2.6655    4.0102   -4.6083 H   0  0  0  0  0  0  0  0  0  0  0  0
   -0.6519    4.2085   -3.1687 H   0  0  0  0  0  0  0  0  0  0  0  0
   -0.1550    2.5220   -1.5044 H   0  0  0  0  0  0  0  0  0  0  0  0
    4.5256    2.0126    1.3417 H   0  0  0  0  0  0  0  0  0  0  0  0
    3.3300    2.0859    2.6369 H   0  0  0  0  0  0  0  0  0  0  0  0
    2.8278    1.8155    0.9405 H   0  0  0  0  0  0  0  0  0  0  0  0
  1  2  1  0
  2  3  1  0
  3  4  1  0
  4  5  2  0
  5  6  1  0
  6  7  2  0
  7  8  1  0
  8  9  1  0
  9 10  1  0
 10 11  1  0
 10 12  1  0
 12 13  2  0
 12 14  1  0
 14 15  1  0
 15 16  2  0
 16 17  1  0
 17 18  2  0
 18 19  1  0
 19 20  2  0
 20 21  1  0
 21 22  1  0
 22 23  2  0
 23 24  1  0
 24 25  2  0
 25 26  1  0
 26 27  2  0
  8 28  2  0
 28 29  1  0
 29 30  1  0
 29  2  2  0
 28  4  1  0
 27 14  1  0
 20 15  1  0
 27 22  1  0
  1 31  1  0
  1 32  1  0
  1 33  1  0
  6 34  1  0
 10 35  1  0
 11 36  1  0
 11 37  1  0
 11 38  1  0
 16 39  1  0
 17 40  1  0
 18 41  1  0
 19 42  1  0
 23 43  1  0
 24 44  1  0
 25 45  1  0
 26 46  1  0
 30 47  1  0
 30 48  1  0
 30 49  1  0
M  END
$$$$
