
     RDKit          3D

 44 46  0  0  0  0  0  0  0  0999 V2000
   -2.9328   -2.6256    2.2651 C   0  0  0  0  0  0  0  0  0  0  0  0
   -2.8270   -1.8784    0.9676 C   0  0  0  0  0  0  0  0  0  0  0  0
   -1.6660   -1.9737    0.1882 C   0  0  0  0  0  0  0  0  0  0  0  0
   -1.5536   -1.2571   -1.0040 C   0  0  0  0  0  0  0  0  0  0  0  0
   -2.5981   -0.4197   -1.4044 C   0  0  0  0  0  0  0  0  0  0  0  0
   -2.4614    0.4997   -2.9210 S   0  0  0  0  0  6  0  0  0  0  0  0
   -3.8037    0.7256   -3.4167 O   0  0  0  0  0  0  0  0  0  0  0  0
   -1.4565   -0.1358   -3.7452 O   0  0  0  0  0  0  0  0  0  0  0  0
   -1.8964    2.0075   -2.4049 N   0  0  0  0  0  0  0  0  0  0  0  0
   -0.7342    2.0727   -1.5862 C   0  0  0  0  0  0  0  0  0  0  0  0
   -0.8617    2.5321   -0.2750 C   0  0  0  0  0  0  0  0  0  0  0  0
    0.2509    2.5650    0.5748 C   0  0  0  0  0  0  0  0  0  0  0  0
    0.1082    3.0466    1.9905 C   0  0  0  0  0  0  0  0  0  0  0  0
    1.4886    2.1181    0.0888 C   0  0  0  0  0  0  0  0  0  0  0  0
    2.5420    2.1440    0.9659 O   0  0  0  0  0  0  0  0  0  0  0  0
    1.6327    1.6670   -1.2345 C   0  0  0  0  0  0  0  0  0  0  0  0
    3.1934    1.1789   -1.9578 S   0  0  0  0  0  0  0  0  0  0  0  0
    3.5861   -0.2547   -1.0554 C   0  0  0  0  0  0  0  0  0  0  0  0
    3.8622   -1.4219   -1.6387 N   0  0  0  0  0  0  0  0  0  0  0  0
    4.1332   -2.1959   -0.5778 N   0  0  0  0  0  0  0  0  0  0  0  0
    4.0236   -1.4951    0.5905 C   0  0  0  0  0  0  0  0  0  0  0  0
    4.2741   -2.0925    1.9184 C   0  0  0  0  0  0  0  0  0  0  0  0
    3.6857   -0.2534    0.3128 N   0  0  0  0  0  0  0  0  0  0  0  0
    0.5062    1.6554   -2.0676 C   0  0  0  0  0  0  0  0  0  0  0  0
   -3.7634   -0.3173   -0.6404 C   0  0  0  0  0  0  0  0  0  0  0  0
   -3.8699   -1.0399    0.5489 C   0  0  0  0  0  0  0  0  0  0  0  0
   -2.5796   -1.9965    3.0876 H   0  0  0  0  0  0  0  0  0  0  0  0
   -3.9695   -2.9186    2.4620 H   0  0  0  0  0  0  0  0  0  0  0  0
   -2.3351   -3.5428    2.2394 H   0  0  0  0  0  0  0  0  0  0  0  0
   -0.8427   -2.6111    0.5036 H   0  0  0  0  0  0  0  0  0  0  0  0
   -0.6511   -1.3495   -1.6048 H   0  0  0  0  0  0  0  0  0  0  0  0
   -2.6621    2.6471   -2.1994 H   0  0  0  0  0  0  0  0  0  0  0  0
   -1.8305    2.8554    0.0976 H   0  0  0  0  0  0  0  0  0  0  0  0
   -0.9044    3.4134    2.1893 H   0  0  0  0  0  0  0  0  0  0  0  0
    0.3117    2.2293    2.6901 H   0  0  0  0  0  0  0  0  0  0  0  0
    0.8007    3.8724    2.1836 H   0  0  0  0  0  0  0  0  0  0  0  0
    3.1626    1.4305    0.7055 H   0  0  0  0  0  0  0  0  0  0  0  0
    4.3822   -3.1684   -0.7221 H   0  0  0  0  0  0  0  0  0  0  0  0
    3.9727   -3.1448    1.9449 H   0  0  0  0  0  0  0  0  0  0  0  0
    3.7098   -1.5584    2.6892 H   0  0  0  0  0  0  0  0  0  0  0  0
    5.3378   -2.0293    2.1676 H   0  0  0  0  0  0  0  0  0  0  0  0
    0.5982    1.3260   -3.1008 H   0  0  0  0  0  0  0  0  0  0  0  0
   -4.5875    0.3152   -0.9615 H   0  0  0  0  0  0  0  0  0  0  0  0
   -4.7753   -0.9516    1.1464 H   0  0  0  0  0  0  0  0  0  0  0  0
  1  2  1  0
  2  3  2  0
  3  4  1  0
  4  5  2  0
  5  6  1  0
  6  7  2  0
  6  8  2  0
  6  9  1  0
  9 10  1  0
 10 11  2  0
 11 12  1  0
 12 13  1  0
 12 14  2  0
 14 15  1  0
 14 16  1  0
 16 17  1  0
 17 18  1  0
 18 19  2  0
 19 20  1  0
 20 21  1  0
 21 22  1  0
 21 23  2  0
 16 24  2  0
  5 25  1  0
 25 26  2  0
 26  2  1  0
 24 10  1  0
 23 18  1  0
  1 27  1  0
  1 28  1  0
  1 29  1  0
  3 30  1  0
  4 31  1  0
  9 32  1  0
 11 33  1  0
 13 34  1  0
 13 35  1  0
 13 36  1  0
 15 37  1  0
 20 38  1  0
 22 39  1  0
 22 40  1  0
 22 41  1  0
 24 42  1  0
 25 43  1  0
 26 44  1  0
M  END
$$$$
