
     RDKit          3D

 49 50  0  0  0  0  0  0  0  0999 V2000
    6.3078    1.3645    1.1164 C   0  0  0  0  0  0  0  0  0  0  0  0
    5.9196    0.3788    0.0313 C   0  0  0  0  0  0  0  0  0  0  0  0
    4.5043    0.1761    0.0931 O   0  0  0  0  0  0  0  0  0  0  0  0
    4.0013   -0.5995   -0.9131 C   0  0  0  0  0  0  0  0  0  0  0  0
    4.7005   -1.0794   -1.8007 O   0  0  0  0  0  0  0  0  0  0  0  0
    2.5475   -0.8182   -0.8228 C   0  0  0  0  0  0  0  0  0  0  0  0
    1.7516   -1.5627   -1.7646 C   0  0  0  0  0  0  0  0  0  0  0  0
    2.2654   -2.2005   -3.0133 C   0  0  0  0  0  0  0  0  0  0  0  0
    0.4486   -1.5853   -1.2923 C   0  0  0  0  0  0  0  0  0  0  0  0
   -0.7684   -2.2354   -1.8654 C   0  0  0  0  0  0  0  0  0  0  0  0
    0.4176   -0.8737   -0.1063 N   0  0  0  0  0  0  0  0  0  0  0  0
   -0.7642   -0.7710    0.7624 C   0  0  0  0  0  0  0  0  0  0  0  0
   -1.7515    0.2996    0.3484 C   0  0  0  0  0  0  0  0  0  0  0  0
   -1.3380    1.5041   -0.2423 C   0  0  0  0  0  0  0  0  0  0  0  0
   -2.2634    2.4919   -0.5743 C   0  0  0  0  0  0  0  0  0  0  0  0
   -3.6219    2.2931   -0.3320 C   0  0  0  0  0  0  0  0  0  0  0  0
   -4.0683    1.1056    0.2538 C   0  0  0  0  0  0  0  0  0  0  0  0
   -5.3888    0.8269    0.4949 O   0  0  0  0  0  0  0  0  0  0  0  0
   -6.3484    1.5679   -0.2493 C   0  0  0  0  0  0  0  0  0  0  0  0
   -3.1230    0.1328    0.6349 C   0  0  0  0  0  0  0  0  0  0  0  0
   -3.4824   -1.0560    1.2305 O   0  0  0  0  0  0  0  0  0  0  0  0
   -4.2205   -0.8791    2.4400 C   0  0  0  0  0  0  0  0  0  0  0  0
    1.6756   -0.3657    0.1701 C   0  0  0  0  0  0  0  0  0  0  0  0
    1.9619    0.4934    1.3593 C   0  0  0  0  0  0  0  0  0  0  0  0
    7.3861    1.5437    1.1137 H   0  0  0  0  0  0  0  0  0  0  0  0
    5.7895    2.3185    0.9740 H   0  0  0  0  0  0  0  0  0  0  0  0
    6.0151    0.9889    2.1023 H   0  0  0  0  0  0  0  0  0  0  0  0
    6.4297   -0.5747    0.2042 H   0  0  0  0  0  0  0  0  0  0  0  0
    6.2052    0.7755   -0.9482 H   0  0  0  0  0  0  0  0  0  0  0  0
    2.8292   -1.4750   -3.6085 H   0  0  0  0  0  0  0  0  0  0  0  0
    2.9232   -3.0398   -2.7672 H   0  0  0  0  0  0  0  0  0  0  0  0
    1.4611   -2.5794   -3.6482 H   0  0  0  0  0  0  0  0  0  0  0  0
   -1.5642   -1.5013   -2.0295 H   0  0  0  0  0  0  0  0  0  0  0  0
   -1.1400   -3.0164   -1.1949 H   0  0  0  0  0  0  0  0  0  0  0  0
   -0.5622   -2.7075   -2.8294 H   0  0  0  0  0  0  0  0  0  0  0  0
   -1.2214   -1.7665    0.7551 H   0  0  0  0  0  0  0  0  0  0  0  0
   -0.4307   -0.5959    1.7899 H   0  0  0  0  0  0  0  0  0  0  0  0
   -0.2870    1.6900   -0.4565 H   0  0  0  0  0  0  0  0  0  0  0  0
   -1.9233    3.4202   -1.0282 H   0  0  0  0  0  0  0  0  0  0  0  0
   -4.3084    3.0879   -0.6056 H   0  0  0  0  0  0  0  0  0  0  0  0
   -6.1122    1.5764   -1.3207 H   0  0  0  0  0  0  0  0  0  0  0  0
   -6.4408    2.5860    0.1454 H   0  0  0  0  0  0  0  0  0  0  0  0
   -7.3194    1.0749   -0.1293 H   0  0  0  0  0  0  0  0  0  0  0  0
   -3.9586    0.0467    2.9647 H   0  0  0  0  0  0  0  0  0  0  0  0
   -5.2946   -0.9226    2.2400 H   0  0  0  0  0  0  0  0  0  0  0  0
   -3.9760   -1.7170    3.1006 H   0  0  0  0  0  0  0  0  0  0  0  0
    2.4953   -0.0847    2.1209 H   0  0  0  0  0  0  0  0  0  0  0  0
    1.0628    0.9126    1.8157 H   0  0  0  0  0  0  0  0  0  0  0  0
    2.5787    1.3513    1.0774 H   0  0  0  0  0  0  0  0  0  0  0  0
  1  2  1  0
  2  3  1  0
  3  4  1  0
  4  5  2  0
  4  6  1  0
  6  7  1  0
  7  8  1  0
  7  9  2  0
  9 10  1  0
  9 11  1  0
 11 12  1  0
 12 13  1  0
 13 14  2  0
 14 15  1  0
 15 16  2  0
 16 17  1  0
 17 18  1  0
 18 19  1  0
 17 20  2  0
 20 21  1  0
 21 22  1  0
 11 23  1  0
 23 24  1  0
 23  6  2  0
 20 13  1  0
  1 25  1  0
  1 26  1  0
  1 27  1  0
  2 28  1  0
  2 29  1  0
  8 30  1  0
  8 31  1  0
  8 32  1  0
 10 33  1  0
 10 34  1  0
 10 35  1  0
 12 36  1  0
 12 37  1  0
 14 38  1  0
 15 39  1  0
 16 40  1  0
 19 41  1  0
 19 42  1  0
 19 43  1  0
 22 44  1  0
 22 45  1  0
 22 46  1  0
 24 47  1  0
 24 48  1  0
 24 49  1  0
M  END
$$$$
