
     RDKit          3D

 25 26  0  0  0  0  0  0  0  0999 V2000
   -1.5869   -2.5067    0.6833 O   0  0  0  0  0  0  0  0  0  0  0  0
   -1.5881   -1.3324    0.3315 C   0  0  0  0  0  0  0  0  0  0  0  0
   -0.4674   -0.5961    0.0991 O   0  0  0  0  0  0  0  0  0  0  0  0
    0.7468   -1.3177    0.3026 C   0  0  0  0  0  0  0  0  0  0  0  0
    1.8970   -0.3893    0.0117 C   0  0  0  0  0  0  0  0  0  0  0  0
    2.4265   -0.2958   -1.2831 C   0  0  0  0  0  0  0  0  0  0  0  0
    3.4815    0.5770   -1.5549 C   0  0  0  0  0  0  0  0  0  0  0  0
    4.0110    1.3701   -0.5387 C   0  0  0  0  0  0  0  0  0  0  0  0
    3.4832    1.2957    0.7489 C   0  0  0  0  0  0  0  0  0  0  0  0
    2.4283    0.4236    1.0229 C   0  0  0  0  0  0  0  0  0  0  0  0
   -2.7726   -0.5375    0.1059 C   0  0  0  0  0  0  0  0  0  0  0  0
   -4.1117   -0.8679    0.2187 C   0  0  0  0  0  0  0  0  0  0  0  0
   -4.8507    0.2917   -0.1207 C   0  0  0  0  0  0  0  0  0  0  0  0
   -3.9231    1.2618   -0.4206 C   0  0  0  0  0  0  0  0  0  0  0  0
   -4.3279    3.0432   -0.9495 Br  0  0  0  0  0  0  0  0  0  0  0  0
   -2.6634    0.7709   -0.2868 O   0  0  0  0  0  0  0  0  0  0  0  0
    0.8089   -1.6737    1.3386 H   0  0  0  0  0  0  0  0  0  0  0  0
    0.7899   -2.1862   -0.3666 H   0  0  0  0  0  0  0  0  0  0  0  0
    2.0162   -0.8998   -2.0893 H   0  0  0  0  0  0  0  0  0  0  0  0
    3.8865    0.6421   -2.5614 H   0  0  0  0  0  0  0  0  0  0  0  0
    4.8301    2.0518   -0.7520 H   0  0  0  0  0  0  0  0  0  0  0  0
    3.8895    1.9214    1.5393 H   0  0  0  0  0  0  0  0  0  0  0  0
    2.0191    0.3852    2.0300 H   0  0  0  0  0  0  0  0  0  0  0  0
   -4.4971   -1.8356    0.5123 H   0  0  0  0  0  0  0  0  0  0  0  0
   -5.9257    0.4042   -0.1432 H   0  0  0  0  0  0  0  0  0  0  0  0
  1  2  2  0
  2  3  1  0
  3  4  1  0
  4  5  1  0
  5  6  2  0
  6  7  1  0
  7  8  2  0
  8  9  1  0
  9 10  2  0
  2 11  1  0
 11 12  2  0
 12 13  1  0
 13 14  2  0
 14 15  1  0
 14 16  1  0
 10  5  1  0
 16 11  1  0
  4 17  1  0
  4 18  1  0
  6 19  1  0
  7 20  1  0
  8 21  1  0
  9 22  1  0
 10 23  1  0
 12 24  1  0
 13 25  1  0
M  END
$$$$
