
     RDKit          3D

 29 29  0  0  0  0  0  0  0  0999 V2000
   -4.4267   -3.1595   -1.3716 C   0  0  0  0  0  0  0  0  0  0  0  0
   -4.1603   -2.0575   -0.9747 C   0  0  0  0  0  0  0  0  0  0  0  0
   -3.8361   -0.7084   -0.4910 C   0  0  0  0  0  0  0  0  0  0  0  0
   -2.6516   -0.1588   -1.1504 N   0  0  0  0  0  0  0  0  0  0  0  0
   -1.3910   -0.7921   -0.7494 C   0  0  0  0  0  0  0  0  0  0  0  0
   -0.9234   -0.3359    0.6366 C   0  0  0  0  0  0  0  0  0  0  0  0
    0.3999   -0.9916    1.0344 C   0  0  0  0  0  0  0  0  0  0  0  0
    1.4312   -0.7470    0.0810 O   0  0  0  0  0  0  0  0  0  0  0  0
    2.1780    0.3969    0.1569 C   0  0  0  0  0  0  0  0  0  0  0  0
    1.9921    1.4145    1.0976 C   0  0  0  0  0  0  0  0  0  0  0  0
    2.8123    2.5487    1.0862 C   0  0  0  0  0  0  0  0  0  0  0  0
    3.8213    2.6719    0.1344 C   0  0  0  0  0  0  0  0  0  0  0  0
    4.8239    4.0694    0.1294 Cl  0  0  0  0  0  0  0  0  0  0  0  0
    4.0210    1.6732   -0.8113 C   0  0  0  0  0  0  0  0  0  0  0  0
    3.2009    0.5421   -0.7986 C   0  0  0  0  0  0  0  0  0  0  0  0
    3.4872   -0.6720   -1.9990 Cl  0  0  0  0  0  0  0  0  0  0  0  0
   -4.6616   -4.1368   -1.7257 H   0  0  0  0  0  0  0  0  0  0  0  0
   -4.6790   -0.0445   -0.7156 H   0  0  0  0  0  0  0  0  0  0  0  0
   -3.7318   -0.7003    0.5984 H   0  0  0  0  0  0  0  0  0  0  0  0
   -2.7721   -0.2791   -2.1566 H   0  0  0  0  0  0  0  0  0  0  0  0
   -0.6356   -0.4959   -1.4871 H   0  0  0  0  0  0  0  0  0  0  0  0
   -1.4550   -1.8850   -0.7998 H   0  0  0  0  0  0  0  0  0  0  0  0
   -1.6682   -0.5834    1.4004 H   0  0  0  0  0  0  0  0  0  0  0  0
   -0.8145    0.7546    0.6296 H   0  0  0  0  0  0  0  0  0  0  0  0
    0.2573   -2.0787    1.0597 H   0  0  0  0  0  0  0  0  0  0  0  0
    0.7055   -0.7155    2.0499 H   0  0  0  0  0  0  0  0  0  0  0  0
    1.2145    1.3666    1.8525 H   0  0  0  0  0  0  0  0  0  0  0  0
    2.6545    3.3328    1.8232 H   0  0  0  0  0  0  0  0  0  0  0  0
    4.8072    1.7714   -1.5546 H   0  0  0  0  0  0  0  0  0  0  0  0
  1  2  3  0
  2  3  1  0
  3  4  1  0
  4  5  1  0
  5  6  1  0
  6  7  1  0
  7  8  1  0
  8  9  1  0
  9 10  2  0
 10 11  1  0
 11 12  2  0
 12 13  1  0
 12 14  1  0
 14 15  2  0
 15 16  1  0
 15  9  1  0
  1 17  1  0
  3 18  1  0
  3 19  1  0
  4 20  1  0
  5 21  1  0
  5 22  1  0
  6 23  1  0
  6 24  1  0
  7 25  1  0
  7 26  1  0
 10 27  1  0
 11 28  1  0
 14 29  1  0
M  END
$$$$
