
     RDKit          3D

 57 62  0  0  0  0  0  0  0  0999 V2000
    8.6164   -0.6722   -2.1147 C   0  0  0  0  0  0  0  0  0  0  0  0
    7.5173   -1.5014   -2.4725 O   0  0  0  0  0  0  0  0  0  0  0  0
    6.3134   -1.2283   -1.8894 C   0  0  0  0  0  0  0  0  0  0  0  0
    5.2655   -2.0521   -2.3017 C   0  0  0  0  0  0  0  0  0  0  0  0
    3.9763   -1.8844   -1.7874 C   0  0  0  0  0  0  0  0  0  0  0  0
    3.7232   -0.8801   -0.8481 C   0  0  0  0  0  0  0  0  0  0  0  0
    2.2738   -0.6927   -0.2725 C   0  0  0  0  0  0  0  0  0  0  0  0
    1.1660   -1.4872   -0.5489 C   0  0  0  0  0  0  0  0  0  0  0  0
    0.0778   -1.0134    0.1827 N   0  0  0  0  0  4  0  0  0  0  0  0
   -1.3087   -1.5105    0.1346 C   0  0  0  0  0  0  0  0  0  0  0  0
   -2.1377   -0.6420   -0.8376 C   0  0  0  0  0  0  0  0  0  0  0  0
   -1.6456   -0.3760   -1.9374 O   0  0  0  0  0  0  0  0  0  0  0  0
   -3.3138   -0.0896   -0.2987 N   0  0  0  0  0  0  0  0  0  0  0  0
   -4.1205   -0.8128    0.6494 C   0  0  0  0  0  0  0  0  0  0  0  0
   -4.2424   -2.2123    0.5259 C   0  0  0  0  0  0  0  0  0  0  0  0
   -4.9990   -2.9568    1.4342 C   0  0  0  0  0  0  0  0  0  0  0  0
   -5.6554   -2.3168    2.4767 C   0  0  0  0  0  0  0  0  0  0  0  0
   -5.5752   -0.9307    2.5956 C   0  0  0  0  0  0  0  0  0  0  0  0
   -4.8276   -0.1767    1.6797 C   0  0  0  0  0  0  0  0  0  0  0  0
   -4.7679    1.5787    1.9003 S   0  0  0  0  0  0  0  0  0  0  0  0
   -4.4811    2.0497    0.2094 C   0  0  0  0  0  0  0  0  0  0  0  0
   -4.9077    3.3315   -0.1743 C   0  0  0  0  0  0  0  0  0  0  0  0
   -4.6503    3.8090   -1.4551 C   0  0  0  0  0  0  0  0  0  0  0  0
   -3.9627    3.0092   -2.3555 C   0  0  0  0  0  0  0  0  0  0  0  0
   -3.5319    1.7323   -1.9765 C   0  0  0  0  0  0  0  0  0  0  0  0
   -3.7815    1.2202   -0.6902 C   0  0  0  0  0  0  0  0  0  0  0  0
    0.4825    0.0643    0.8438 C   0  0  0  0  0  0  0  0  0  0  0  0
    1.7730    0.2618    0.5966 N   0  0  0  0  0  0  0  0  0  0  0  0
    2.2785    1.4504    1.2669 C   0  0  0  0  0  0  0  0  0  0  0  0
    0.9926    2.1597    1.7767 C   0  0  0  0  0  0  0  0  0  0  0  0
   -0.1065    1.0797    1.7461 C   0  0  0  0  0  0  0  0  0  0  0  0
    4.7711   -0.0597   -0.4280 C   0  0  0  0  0  0  0  0  0  0  0  0
    6.0615   -0.2329   -0.9477 C   0  0  0  0  0  0  0  0  0  0  0  0
    8.4294    0.3713   -2.3900 H   0  0  0  0  0  0  0  0  0  0  0  0
    8.8477   -0.7639   -1.0481 H   0  0  0  0  0  0  0  0  0  0  0  0
    9.4906   -1.0143   -2.6767 H   0  0  0  0  0  0  0  0  0  0  0  0
    5.4581   -2.8324   -3.0373 H   0  0  0  0  0  0  0  0  0  0  0  0
    3.1996   -2.5505   -2.1499 H   0  0  0  0  0  0  0  0  0  0  0  0
    1.0115   -2.3442   -1.1821 H   0  0  0  0  0  0  0  0  0  0  0  0
   -1.3085   -2.5469   -0.2153 H   0  0  0  0  0  0  0  0  0  0  0  0
   -1.6800   -1.4745    1.1618 H   0  0  0  0  0  0  0  0  0  0  0  0
   -3.7996   -2.7476   -0.3120 H   0  0  0  0  0  0  0  0  0  0  0  0
   -5.0968   -4.0341    1.3145 H   0  0  0  0  0  0  0  0  0  0  0  0
   -6.2525   -2.8898    3.1834 H   0  0  0  0  0  0  0  0  0  0  0  0
   -6.1107   -0.4410    3.4062 H   0  0  0  0  0  0  0  0  0  0  0  0
   -5.4404    3.9717    0.5268 H   0  0  0  0  0  0  0  0  0  0  0  0
   -4.9893    4.7999   -1.7482 H   0  0  0  0  0  0  0  0  0  0  0  0
   -3.7697    3.3689   -3.3642 H   0  0  0  0  0  0  0  0  0  0  0  0
   -3.0410    1.1421   -2.7457 H   0  0  0  0  0  0  0  0  0  0  0  0
    2.9161    1.1411    2.1002 H   0  0  0  0  0  0  0  0  0  0  0  0
    2.8267    2.0903    0.5717 H   0  0  0  0  0  0  0  0  0  0  0  0
    0.7269    2.9640    1.0802 H   0  0  0  0  0  0  0  0  0  0  0  0
    1.1226    2.6041    2.7677 H   0  0  0  0  0  0  0  0  0  0  0  0
   -1.0475    1.4309    1.3229 H   0  0  0  0  0  0  0  0  0  0  0  0
   -0.2466    0.5943    2.7138 H   0  0  0  0  0  0  0  0  0  0  0  0
    4.6308    0.7172    0.3131 H   0  0  0  0  0  0  0  0  0  0  0  0
    6.8492    0.4252   -0.5940 H   0  0  0  0  0  0  0  0  0  0  0  0
  1  2  1  0
  2  3  1  0
  3  4  2  0
  4  5  1  0
  5  6  2  0
  6  7  1  0
  7  8  2  0
  8  9  1  0
  9 10  1  0
 10 11  1  0
 11 12  2  0
 11 13  1  0
 13 14  1  0
 14 15  2  0
 15 16  1  0
 16 17  2  0
 17 18  1  0
 18 19  2  0
 19 20  1  0
 20 21  1  0
 21 22  2  0
 22 23  1  0
 23 24  2  0
 24 25  1  0
 25 26  2  0
  9 27  2  0
 27 28  1  0
 28 29  1  0
 29 30  1  0
 30 31  1  0
  6 32  1  0
 32 33  2  0
 33  3  1  0
 28  7  1  0
 26 13  1  0
 31 27  1  0
 19 14  1  0
 26 21  1  0
  1 34  1  0
  1 35  1  0
  1 36  1  0
  4 37  1  0
  5 38  1  0
  8 39  1  0
 10 40  1  0
 10 41  1  0
 15 42  1  0
 16 43  1  0
 17 44  1  0
 18 45  1  0
 22 46  1  0
 23 47  1  0
 24 48  1  0
 25 49  1  0
 29 50  1  0
 29 51  1  0
 30 52  1  0
 30 53  1  0
 31 54  1  0
 31 55  1  0
 32 56  1  0
 33 57  1  0
M  CHG  1   9   1
M  END
$$$$
