
     RDKit          3D

 33 34  0  0  0  0  0  0  0  0999 V2000
   -1.7506    4.2003    0.4296 C   0  0  0  0  0  0  0  0  0  0  0  0
   -0.9799    3.0241    0.1826 O   0  0  0  0  0  0  0  0  0  0  0  0
   -0.5222    2.4342    1.3127 C   0  0  0  0  0  0  0  0  0  0  0  0
   -0.5906    2.8499    2.4554 O   0  0  0  0  0  0  0  0  0  0  0  0
    0.2394    1.2404    0.9279 C   0  0  0  0  0  0  0  0  0  0  0  0
    1.5981    1.2500    1.2369 C   0  0  0  0  0  0  0  0  0  0  0  0
    2.3495    0.1739    0.8266 C   0  0  0  0  0  0  0  0  0  0  0  0
    3.6944    0.2132    1.1250 O   0  0  0  0  0  0  0  0  0  0  0  0
    4.4034   -0.9440    0.6936 C   0  0  0  0  0  0  0  0  0  0  0  0
    1.8371   -0.8715    0.1466 N   0  0  0  0  0  0  0  0  0  0  0  0
    0.5078   -0.8741   -0.1312 C   0  0  0  0  0  0  0  0  0  0  0  0
   -0.3300    0.1529    0.2605 C   0  0  0  0  0  0  0  0  0  0  0  0
   -1.7674    0.0176   -0.0023 C   0  0  0  0  0  0  0  0  0  0  0  0
   -2.5674    0.7499    0.5716 O   0  0  0  0  0  0  0  0  0  0  0  0
   -2.1478   -0.9943   -0.8703 N   0  0  0  0  0  0  0  0  0  0  0  0
   -3.5556   -1.0929   -1.2122 C   0  0  0  0  0  0  0  0  0  0  0  0
   -1.3311   -2.0561   -1.2351 C   0  0  0  0  0  0  0  0  0  0  0  0
   -1.7703   -3.0240   -1.8591 O   0  0  0  0  0  0  0  0  0  0  0  0
   -0.0090   -1.9748   -0.8446 N   0  0  0  0  0  0  0  0  0  0  0  0
    0.9191   -3.0379   -1.2032 C   0  0  0  0  0  0  0  0  0  0  0  0
   -1.1219    4.9817    0.8679 H   0  0  0  0  0  0  0  0  0  0  0  0
   -2.1357    4.5610   -0.5281 H   0  0  0  0  0  0  0  0  0  0  0  0
   -2.6002    3.9754    1.0822 H   0  0  0  0  0  0  0  0  0  0  0  0
    2.0557    2.0783    1.7679 H   0  0  0  0  0  0  0  0  0  0  0  0
    5.4523   -0.8179    0.9792 H   0  0  0  0  0  0  0  0  0  0  0  0
    4.0291   -1.8459    1.1905 H   0  0  0  0  0  0  0  0  0  0  0  0
    4.3641   -1.0503   -0.3960 H   0  0  0  0  0  0  0  0  0  0  0  0
   -3.6761   -1.5015   -2.2202 H   0  0  0  0  0  0  0  0  0  0  0  0
   -4.0394   -1.7662   -0.4971 H   0  0  0  0  0  0  0  0  0  0  0  0
   -4.0432   -0.1145   -1.1699 H   0  0  0  0  0  0  0  0  0  0  0  0
    0.4195   -3.8542   -1.7314 H   0  0  0  0  0  0  0  0  0  0  0  0
    1.6960   -2.6340   -1.8610 H   0  0  0  0  0  0  0  0  0  0  0  0
    1.3726   -3.4489   -0.2951 H   0  0  0  0  0  0  0  0  0  0  0  0
  1  2  1  0
  2  3  1  0
  3  4  2  0
  3  5  1  0
  5  6  2  0
  6  7  1  0
  7  8  1  0
  8  9  1  0
  7 10  2  0
 10 11  1  0
 11 12  2  0
 12 13  1  0
 13 14  2  0
 13 15  1  0
 15 16  1  0
 15 17  1  0
 17 18  2  0
 17 19  1  0
 19 20  1  0
 12  5  1  0
 19 11  1  0
  1 21  1  0
  1 22  1  0
  1 23  1  0
  6 24  1  0
  9 25  1  0
  9 26  1  0
  9 27  1  0
 16 28  1  0
 16 29  1  0
 16 30  1  0
 20 31  1  0
 20 32  1  0
 20 33  1  0
M  END
$$$$
