
     RDKit          3D

 47 50  0  0  0  0  0  0  0  0999 V2000
   -2.0630   -3.0593    1.0937 C   0  0  0  0  0  0  0  0  0  0  0  0
   -1.3787   -1.9112    0.4080 C   0  0  0  0  0  0  0  0  0  0  0  0
   -0.1810   -2.1024   -0.0713 N   0  0  0  0  0  0  0  0  0  0  0  0
    0.5068   -1.0673   -0.7145 N   0  0  0  0  0  0  0  0  0  0  0  0
    1.8679   -1.3539   -1.1339 C   0  0  0  0  0  0  0  0  0  0  0  0
    2.8790   -0.8297   -0.1106 C   0  0  0  0  0  0  0  0  0  0  0  0
    2.5897   -0.4757    1.0296 O   0  0  0  0  0  0  0  0  0  0  0  0
    4.1820   -0.8386   -0.5744 N   0  0  0  0  0  0  0  0  0  0  0  0
    5.2352   -0.2574    0.2258 C   0  0  0  0  0  0  0  0  0  0  0  0
    6.5460   -0.7039   -0.3348 C   0  0  0  0  0  0  0  0  0  0  0  0
    7.2937   -1.8098    0.0212 C   0  0  0  0  0  0  0  0  0  0  0  0
    8.4944   -1.9201   -0.7373 C   0  0  0  0  0  0  0  0  0  0  0  0
    8.6225   -0.8977   -1.6499 C   0  0  0  0  0  0  0  0  0  0  0  0
    7.3041    0.1891   -1.5867 S   0  0  0  0  0  0  0  0  0  0  0  0
    0.0099    0.2321   -0.9319 C   0  0  0  0  0  0  0  0  0  0  0  0
    0.6436    1.1058   -1.5224 O   0  0  0  0  0  0  0  0  0  0  0  0
   -1.3315    0.4164   -0.3955 C   0  0  0  0  0  0  0  0  0  0  0  0
   -2.0535    1.5379   -0.4332 N   0  0  0  0  0  0  0  0  0  0  0  0
   -3.2484    1.2102    0.1301 N   0  0  0  0  0  0  0  0  0  0  0  0
   -4.3170    2.1580    0.0608 C   0  0  0  0  0  0  0  0  0  0  0  0
   -4.0146    3.4979   -0.2411 C   0  0  0  0  0  0  0  0  0  0  0  0
   -5.0272    4.4568   -0.3216 C   0  0  0  0  0  0  0  0  0  0  0  0
   -6.3535    4.0882   -0.1166 C   0  0  0  0  0  0  0  0  0  0  0  0
   -6.6685    2.7588    0.1557 C   0  0  0  0  0  0  0  0  0  0  0  0
   -5.6573    1.7945    0.2387 C   0  0  0  0  0  0  0  0  0  0  0  0
   -3.2017   -0.0713    0.6937 C   0  0  0  0  0  0  0  0  0  0  0  0
   -4.2272   -0.6297    1.6122 C   0  0  0  0  0  0  0  0  0  0  0  0
   -2.0037   -0.6183    0.2640 C   0  0  0  0  0  0  0  0  0  0  0  0
   -2.0788   -2.8824    2.1723 H   0  0  0  0  0  0  0  0  0  0  0  0
   -1.5230   -3.9917    0.9044 H   0  0  0  0  0  0  0  0  0  0  0  0
   -3.0849   -3.1685    0.7218 H   0  0  0  0  0  0  0  0  0  0  0  0
    2.0562   -0.8801   -2.1036 H   0  0  0  0  0  0  0  0  0  0  0  0
    1.9969   -2.4366   -1.2377 H   0  0  0  0  0  0  0  0  0  0  0  0
    4.3339   -0.8638   -1.5747 H   0  0  0  0  0  0  0  0  0  0  0  0
    5.1249    0.8323    0.1999 H   0  0  0  0  0  0  0  0  0  0  0  0
    5.1264   -0.5806    1.2670 H   0  0  0  0  0  0  0  0  0  0  0  0
    6.9899   -2.5089    0.7919 H   0  0  0  0  0  0  0  0  0  0  0  0
    9.2257   -2.7104   -0.6199 H   0  0  0  0  0  0  0  0  0  0  0  0
    9.4287   -0.7333   -2.3514 H   0  0  0  0  0  0  0  0  0  0  0  0
   -2.9851    3.8157   -0.4051 H   0  0  0  0  0  0  0  0  0  0  0  0
   -4.7755    5.4904   -0.5458 H   0  0  0  0  0  0  0  0  0  0  0  0
   -7.1415    4.8336   -0.1825 H   0  0  0  0  0  0  0  0  0  0  0  0
   -7.7075    2.4679    0.2917 H   0  0  0  0  0  0  0  0  0  0  0  0
   -5.9655    0.7683    0.3960 H   0  0  0  0  0  0  0  0  0  0  0  0
   -4.7071    0.1484    2.2129 H   0  0  0  0  0  0  0  0  0  0  0  0
   -4.9870   -1.1847    1.0548 H   0  0  0  0  0  0  0  0  0  0  0  0
   -3.7745   -1.3147    2.3341 H   0  0  0  0  0  0  0  0  0  0  0  0
  1  2  1  0
  2  3  2  0
  3  4  1  0
  4  5  1  0
  5  6  1  0
  6  7  2  0
  6  8  1  0
  8  9  1  0
  9 10  1  0
 10 11  2  0
 11 12  1  0
 12 13  2  0
 13 14  1  0
  4 15  1  0
 15 16  2  0
 15 17  1  0
 17 18  2  0
 18 19  1  0
 19 20  1  0
 20 21  2  0
 21 22  1  0
 22 23  2  0
 23 24  1  0
 24 25  2  0
 19 26  1  0
 26 27  1  0
 26 28  2  0
 28  2  1  0
 14 10  1  0
 28 17  1  0
 25 20  1  0
  1 29  1  0
  1 30  1  0
  1 31  1  0
  5 32  1  0
  5 33  1  0
  8 34  1  0
  9 35  1  0
  9 36  1  0
 11 37  1  0
 12 38  1  0
 13 39  1  0
 21 40  1  0
 22 41  1  0
 23 42  1  0
 24 43  1  0
 25 44  1  0
 27 45  1  0
 27 46  1  0
 27 47  1  0
M  END
$$$$
