
     RDKit          3D

 54 56  0  0  0  0  0  0  0  0999 V2000
    8.9055   -2.4751    0.7628 C   0  0  0  0  0  0  0  0  0  0  0  0
    7.5227   -2.3552    1.0783 O   0  0  0  0  0  0  0  0  0  0  0  0
    6.9653   -1.1124    0.9389 C   0  0  0  0  0  0  0  0  0  0  0  0
    7.6003    0.0223    0.4317 C   0  0  0  0  0  0  0  0  0  0  0  0
    6.9109    1.2384    0.3474 C   0  0  0  0  0  0  0  0  0  0  0  0
    5.5783    1.3352    0.7665 C   0  0  0  0  0  0  0  0  0  0  0  0
    4.8345    2.6451    0.6681 C   0  0  0  0  0  0  0  0  0  0  0  0
    4.5112    3.0642   -0.7740 C   0  0  0  0  0  0  0  0  0  0  0  0
    3.6204    2.0844   -1.5465 C   0  0  0  0  0  0  0  0  0  0  0  0
    2.2674    1.9322   -0.9609 C   0  0  0  0  0  0  0  0  0  0  0  0
    1.5719    2.7542   -0.2045 N   0  0  0  0  0  0  0  0  0  0  0  0
    0.3733    2.1218    0.0491 N   0  0  0  0  0  0  0  0  0  0  0  0
    0.4126    0.9636   -0.5784 C   0  0  0  0  0  0  0  0  0  0  0  0
   -0.8771   -0.1951   -0.6063 S   0  0  0  0  0  0  0  0  0  0  0  0
   -1.9708    0.5219    0.6501 C   0  0  0  0  0  0  0  0  0  0  0  0
   -3.2705   -0.2645    0.6845 C   0  0  0  0  0  0  0  0  0  0  0  0
   -3.4271   -1.1915    1.4737 O   0  0  0  0  0  0  0  0  0  0  0  0
   -4.1920    0.1893   -0.2462 N   0  0  0  0  0  0  0  0  0  0  0  0
   -5.4949   -0.2971   -0.5046 C   0  0  0  0  0  0  0  0  0  0  0  0
   -6.0666   -1.3654    0.1912 C   0  0  0  0  0  0  0  0  0  0  0  0
   -7.3672   -1.8226   -0.1053 C   0  0  0  0  0  0  0  0  0  0  0  0
   -7.9292   -2.9804    0.6772 C   0  0  0  0  0  0  0  0  0  0  0  0
   -8.1191   -1.1841   -1.1112 C   0  0  0  0  0  0  0  0  0  0  0  0
   -9.5074   -1.6407   -1.4687 C   0  0  0  0  0  0  0  0  0  0  0  0
   -7.5470   -0.1150   -1.8137 C   0  0  0  0  0  0  0  0  0  0  0  0
   -6.2535    0.3216   -1.5128 C   0  0  0  0  0  0  0  0  0  0  0  0
   -5.5618    1.7849   -2.5166 Br  0  0  0  0  0  0  0  0  0  0  0  0
    1.5935    0.7760   -1.2467 O   0  0  0  0  0  0  0  0  0  0  0  0
    4.9455    0.1927    1.2724 C   0  0  0  0  0  0  0  0  0  0  0  0
    5.6361   -1.0201    1.3543 C   0  0  0  0  0  0  0  0  0  0  0  0
    9.5150   -1.8113    1.3884 H   0  0  0  0  0  0  0  0  0  0  0  0
    9.2085   -3.5049    0.9776 H   0  0  0  0  0  0  0  0  0  0  0  0
    9.0835   -2.2894   -0.3034 H   0  0  0  0  0  0  0  0  0  0  0  0
    8.6305   -0.0029    0.0941 H   0  0  0  0  0  0  0  0  0  0  0  0
    7.4266    2.1135   -0.0448 H   0  0  0  0  0  0  0  0  0  0  0  0
    5.4509    3.4255    1.1362 H   0  0  0  0  0  0  0  0  0  0  0  0
    3.9178    2.6030    1.2684 H   0  0  0  0  0  0  0  0  0  0  0  0
    5.4452    3.1934   -1.3347 H   0  0  0  0  0  0  0  0  0  0  0  0
    4.0313    4.0514   -0.7472 H   0  0  0  0  0  0  0  0  0  0  0  0
    3.5052    2.4544   -2.5738 H   0  0  0  0  0  0  0  0  0  0  0  0
    4.1074    1.1046   -1.6230 H   0  0  0  0  0  0  0  0  0  0  0  0
   -2.1884    1.5718    0.4282 H   0  0  0  0  0  0  0  0  0  0  0  0
   -1.5028    0.4738    1.6388 H   0  0  0  0  0  0  0  0  0  0  0  0
   -3.9024    0.9504   -0.8535 H   0  0  0  0  0  0  0  0  0  0  0  0
   -5.5147   -1.8741    0.9776 H   0  0  0  0  0  0  0  0  0  0  0  0
   -7.1799   -3.4170    1.3481 H   0  0  0  0  0  0  0  0  0  0  0  0
   -8.7721   -2.6459    1.2914 H   0  0  0  0  0  0  0  0  0  0  0  0
   -8.2605   -3.7748   -0.0005 H   0  0  0  0  0  0  0  0  0  0  0  0
   -9.9916   -0.9450   -2.1634 H   0  0  0  0  0  0  0  0  0  0  0  0
   -9.4687   -2.6227   -1.9510 H   0  0  0  0  0  0  0  0  0  0  0  0
  -10.1387   -1.6958   -0.5751 H   0  0  0  0  0  0  0  0  0  0  0  0
   -8.1147    0.3797   -2.6002 H   0  0  0  0  0  0  0  0  0  0  0  0
    3.9128    0.2345    1.6105 H   0  0  0  0  0  0  0  0  0  0  0  0
    5.1342   -1.9010    1.7514 H   0  0  0  0  0  0  0  0  0  0  0  0
  1  2  1  0
  2  3  1  0
  3  4  2  0
  4  5  1  0
  5  6  2  0
  6  7  1  0
  7  8  1  0
  8  9  1  0
  9 10  1  0
 10 11  2  0
 11 12  1  0
 12 13  2  0
 13 14  1  0
 14 15  1  0
 15 16  1  0
 16 17  2  0
 16 18  1  0
 18 19  1  0
 19 20  2  0
 20 21  1  0
 21 22  1  0
 21 23  2  0
 23 24  1  0
 23 25  1  0
 25 26  2  0
 26 27  1  0
 13 28  1  0
  6 29  1  0
 29 30  2  0
 30  3  1  0
 28 10  1  0
 26 19  1  0
  1 31  1  0
  1 32  1  0
  1 33  1  0
  4 34  1  0
  5 35  1  0
  7 36  1  0
  7 37  1  0
  8 38  1  0
  8 39  1  0
  9 40  1  0
  9 41  1  0
 15 42  1  0
 15 43  1  0
 18 44  1  0
 20 45  1  0
 22 46  1  0
 22 47  1  0
 22 48  1  0
 24 49  1  0
 24 50  1  0
 24 51  1  0
 25 52  1  0
 29 53  1  0
 30 54  1  0
M  END
$$$$
