
     RDKit          3D

 51 53  0  0  0  0  0  0  0  0999 V2000
    7.1233   -2.0424   -3.0239 C   0  0  0  0  0  0  0  0  0  0  0  0
    6.7134   -1.8147   -1.6845 O   0  0  0  0  0  0  0  0  0  0  0  0
    5.8891   -0.7419   -1.4480 C   0  0  0  0  0  0  0  0  0  0  0  0
    5.4014    0.1176   -2.4386 C   0  0  0  0  0  0  0  0  0  0  0  0
    4.5588    1.1803   -2.1012 C   0  0  0  0  0  0  0  0  0  0  0  0
    4.1976    1.4091   -0.7680 C   0  0  0  0  0  0  0  0  0  0  0  0
    3.2777    2.5531   -0.4215 C   0  0  0  0  0  0  0  0  0  0  0  0
    1.8261    2.2529   -0.7704 C   0  0  0  0  0  0  0  0  0  0  0  0
    1.3869    2.4907   -1.8918 O   0  0  0  0  0  0  0  0  0  0  0  0
    1.1270    1.6978    0.2883 N   0  0  0  0  0  0  0  0  0  0  0  0
   -0.2253    1.3013    0.3130 C   0  0  0  0  0  0  0  0  0  0  0  0
   -1.0906    1.3973   -0.7745 C   0  0  0  0  0  0  0  0  0  0  0  0
   -2.4255    0.9848   -0.6591 C   0  0  0  0  0  0  0  0  0  0  0  0
   -2.9196    0.4775    0.5470 C   0  0  0  0  0  0  0  0  0  0  0  0
   -4.2773    0.0963    0.5815 N   0  0  0  0  0  0  0  0  0  0  0  0
   -5.0008   -0.3263    1.6837 C   0  0  0  0  0  0  0  0  0  0  0  0
   -4.6049   -0.4057    2.8410 O   0  0  0  0  0  0  0  0  0  0  0  0
   -6.4235   -0.6710    1.4031 C   0  0  0  0  0  0  0  0  0  0  0  0
   -7.3887   -0.3591    2.3697 C   0  0  0  0  0  0  0  0  0  0  0  0
   -8.7335   -0.6645    2.1441 C   0  0  0  0  0  0  0  0  0  0  0  0
   -9.1092   -1.2922    0.9581 C   0  0  0  0  0  0  0  0  0  0  0  0
  -10.9276   -1.7080    0.6522 Br  0  0  0  0  0  0  0  0  0  0  0  0
   -8.1530   -1.6246   -0.0021 C   0  0  0  0  0  0  0  0  0  0  0  0
   -6.8068   -1.3178    0.2206 C   0  0  0  0  0  0  0  0  0  0  0  0
   -2.0524    0.3747    1.6319 C   0  0  0  0  0  0  0  0  0  0  0  0
   -0.7169    0.7824    1.5153 C   0  0  0  0  0  0  0  0  0  0  0  0
    4.6832    0.5462    0.2275 C   0  0  0  0  0  0  0  0  0  0  0  0
    5.5151   -0.5316   -0.1055 C   0  0  0  0  0  0  0  0  0  0  0  0
    6.0390   -1.4037    0.8209 O   0  0  0  0  0  0  0  0  0  0  0  0
    5.3038   -1.5683    2.0281 C   0  0  0  0  0  0  0  0  0  0  0  0
    6.2643   -2.2704   -3.6628 H   0  0  0  0  0  0  0  0  0  0  0  0
    7.7851   -2.9144   -3.0303 H   0  0  0  0  0  0  0  0  0  0  0  0
    7.6938   -1.1924   -3.4125 H   0  0  0  0  0  0  0  0  0  0  0  0
    5.6522   -0.0145   -3.4852 H   0  0  0  0  0  0  0  0  0  0  0  0
    4.1810    1.8298   -2.8908 H   0  0  0  0  0  0  0  0  0  0  0  0
    3.5835    3.4567   -0.9627 H   0  0  0  0  0  0  0  0  0  0  0  0
    3.3624    2.8091    0.6408 H   0  0  0  0  0  0  0  0  0  0  0  0
    1.6432    1.5454    1.1449 H   0  0  0  0  0  0  0  0  0  0  0  0
   -0.7628    1.7885   -1.7327 H   0  0  0  0  0  0  0  0  0  0  0  0
   -3.0663    1.0767   -1.5323 H   0  0  0  0  0  0  0  0  0  0  0  0
   -4.7900    0.2372   -0.2793 H   0  0  0  0  0  0  0  0  0  0  0  0
   -7.0935    0.1237    3.2994 H   0  0  0  0  0  0  0  0  0  0  0  0
   -9.4738   -0.4130    2.8993 H   0  0  0  0  0  0  0  0  0  0  0  0
   -8.4441   -2.1319   -0.9186 H   0  0  0  0  0  0  0  0  0  0  0  0
   -6.0696   -1.6168   -0.5200 H   0  0  0  0  0  0  0  0  0  0  0  0
   -2.3795   -0.0226    2.5878 H   0  0  0  0  0  0  0  0  0  0  0  0
   -0.0753    0.6866    2.3880 H   0  0  0  0  0  0  0  0  0  0  0  0
    4.4200    0.7364    1.2643 H   0  0  0  0  0  0  0  0  0  0  0  0
    4.2336   -1.7240    1.8352 H   0  0  0  0  0  0  0  0  0  0  0  0
    5.4631   -0.7168    2.6972 H   0  0  0  0  0  0  0  0  0  0  0  0
    5.6857   -2.4634    2.5327 H   0  0  0  0  0  0  0  0  0  0  0  0
  1  2  1  0
  2  3  1  0
  3  4  2  0
  4  5  1  0
  5  6  2  0
  6  7  1  0
  7  8  1  0
  8  9  2  0
  8 10  1  0
 10 11  1  0
 11 12  2  0
 12 13  1  0
 13 14  2  0
 14 15  1  0
 15 16  1  0
 16 17  2  0
 16 18  1  0
 18 19  2  0
 19 20  1  0
 20 21  2  0
 21 22  1  0
 21 23  1  0
 23 24  2  0
 14 25  1  0
 25 26  2  0
  6 27  1  0
 27 28  2  0
 28 29  1  0
 29 30  1  0
 28  3  1  0
 26 11  1  0
 24 18  1  0
  1 31  1  0
  1 32  1  0
  1 33  1  0
  4 34  1  0
  5 35  1  0
  7 36  1  0
  7 37  1  0
 10 38  1  0
 12 39  1  0
 13 40  1  0
 15 41  1  0
 19 42  1  0
 20 43  1  0
 23 44  1  0
 24 45  1  0
 25 46  1  0
 26 47  1  0
 27 48  1  0
 30 49  1  0
 30 50  1  0
 30 51  1  0
M  END
$$$$
