
     RDKit          3D

 59 62  0  0  0  0  0  0  0  0999 V2000
    8.5577    4.7920    0.6361 C   0  0  0  0  0  0  0  0  0  0  0  0
    8.7614    3.3863    0.6088 O   0  0  0  0  0  0  0  0  0  0  0  0
    7.6511    2.6031    0.4973 C   0  0  0  0  0  0  0  0  0  0  0  0
    7.9105    1.2327    0.4433 C   0  0  0  0  0  0  0  0  0  0  0  0
    6.8636    0.3140    0.3345 C   0  0  0  0  0  0  0  0  0  0  0  0
    5.5372    0.7584    0.2847 C   0  0  0  0  0  0  0  0  0  0  0  0
    4.4468   -0.2607    0.1748 C   0  0  0  0  0  0  0  0  0  0  0  0
    4.7414   -1.3920   -0.2079 O   0  0  0  0  0  0  0  0  0  0  0  0
    3.0298    0.1722    0.5115 C   0  0  0  0  0  0  0  0  0  0  0  0
    1.9873   -1.2514    0.9496 S   0  0  0  0  0  0  0  0  0  0  0  0
    0.4835   -0.4515    1.2345 C   0  0  0  0  0  0  0  0  0  0  0  0
    0.2669    0.8365    1.1255 N   0  0  0  0  0  0  0  0  0  0  0  0
   -1.0476    1.0659    1.4405 N   0  0  0  0  0  0  0  0  0  0  0  0
   -1.6146   -0.0921    1.7329 C   0  0  0  0  0  0  0  0  0  0  0  0
   -3.0407   -0.2905    2.1464 C   0  0  0  0  0  0  0  0  0  0  0  0
   -3.9393   -0.9022    1.1698 N   0  0  0  0  0  0  0  0  0  0  0  0
   -4.4111   -0.2122    0.0479 C   0  0  0  0  0  0  0  0  0  0  0  0
   -4.1542    1.1496   -0.1746 C   0  0  0  0  0  0  0  0  0  0  0  0
   -4.6686    1.8282   -1.2877 C   0  0  0  0  0  0  0  0  0  0  0  0
   -5.4901    1.1693   -2.2013 C   0  0  0  0  0  0  0  0  0  0  0  0
   -6.0128    1.8735   -3.4168 C   0  0  0  0  0  0  0  0  0  0  0  0
   -5.7822   -0.1791   -1.9818 C   0  0  0  0  0  0  0  0  0  0  0  0
   -5.2817   -0.8644   -0.8551 C   0  0  0  0  0  0  0  0  0  0  0  0
   -5.6799   -2.3063   -0.6804 C   0  0  0  0  0  0  0  0  0  0  0  0
   -0.6652   -1.0864    1.6264 N   0  0  0  0  0  0  0  0  0  0  0  0
   -0.8314   -2.4873    1.9597 C   0  0  0  0  0  0  0  0  0  0  0  0
   -1.3626   -3.2649    0.8144 C   0  0  0  0  0  0  0  0  0  0  0  0
   -0.9305   -3.4938   -0.4752 C   0  0  0  0  0  0  0  0  0  0  0  0
   -1.8671   -4.3793   -1.0605 C   0  0  0  0  0  0  0  0  0  0  0  0
   -2.8092   -4.6346   -0.0938 C   0  0  0  0  0  0  0  0  0  0  0  0
   -2.5214   -3.9502    1.0427 O   0  0  0  0  0  0  0  0  0  0  0  0
    5.2766    2.1337    0.3295 C   0  0  0  0  0  0  0  0  0  0  0  0
    6.3310    3.0508    0.4372 C   0  0  0  0  0  0  0  0  0  0  0  0
    9.5388    5.2697    0.7302 H   0  0  0  0  0  0  0  0  0  0  0  0
    7.9601    5.0881    1.5032 H   0  0  0  0  0  0  0  0  0  0  0  0
    8.1040    5.1445   -0.2958 H   0  0  0  0  0  0  0  0  0  0  0  0
    8.9367    0.8756    0.4876 H   0  0  0  0  0  0  0  0  0  0  0  0
    7.0914   -0.7492    0.2939 H   0  0  0  0  0  0  0  0  0  0  0  0
    3.0469    0.8497    1.3704 H   0  0  0  0  0  0  0  0  0  0  0  0
    2.6106    0.6815   -0.3628 H   0  0  0  0  0  0  0  0  0  0  0  0
   -3.4549    0.6662    2.4908 H   0  0  0  0  0  0  0  0  0  0  0  0
   -3.0573   -0.9242    3.0430 H   0  0  0  0  0  0  0  0  0  0  0  0
   -3.7142   -1.8707    0.9517 H   0  0  0  0  0  0  0  0  0  0  0  0
   -3.5206    1.7231    0.4967 H   0  0  0  0  0  0  0  0  0  0  0  0
   -4.4134    2.8777   -1.4289 H   0  0  0  0  0  0  0  0  0  0  0  0
   -6.0760    2.9555   -3.2528 H   0  0  0  0  0  0  0  0  0  0  0  0
   -7.0206    1.5236   -3.6637 H   0  0  0  0  0  0  0  0  0  0  0  0
   -5.3549    1.6866   -4.2713 H   0  0  0  0  0  0  0  0  0  0  0  0
   -6.4204   -0.7060   -2.6893 H   0  0  0  0  0  0  0  0  0  0  0  0
   -5.8246   -2.5576    0.3772 H   0  0  0  0  0  0  0  0  0  0  0  0
   -4.9130   -2.9554   -1.1079 H   0  0  0  0  0  0  0  0  0  0  0  0
   -6.6309   -2.5214   -1.1854 H   0  0  0  0  0  0  0  0  0  0  0  0
   -1.4989   -2.5473    2.8253 H   0  0  0  0  0  0  0  0  0  0  0  0
    0.1280   -2.8978    2.2881 H   0  0  0  0  0  0  0  0  0  0  0  0
   -0.0432   -3.0830   -0.9381 H   0  0  0  0  0  0  0  0  0  0  0  0
   -1.8541   -4.7845   -2.0632 H   0  0  0  0  0  0  0  0  0  0  0  0
   -3.7028   -5.2432   -0.0633 H   0  0  0  0  0  0  0  0  0  0  0  0
    4.2636    2.5250    0.2710 H   0  0  0  0  0  0  0  0  0  0  0  0
    6.0852    4.1067    0.4683 H   0  0  0  0  0  0  0  0  0  0  0  0
  1  2  1  0
  2  3  1  0
  3  4  2  0
  4  5  1  0
  5  6  2  0
  6  7  1  0
  7  8  2  0
  7  9  1  0
  9 10  1  0
 10 11  1  0
 11 12  2  0
 12 13  1  0
 13 14  2  0
 14 15  1  0
 15 16  1  0
 16 17  1  0
 17 18  2  0
 18 19  1  0
 19 20  2  0
 20 21  1  0
 20 22  1  0
 22 23  2  0
 23 24  1  0
 14 25  1  0
 25 26  1  0
 26 27  1  0
 27 28  2  0
 28 29  1  0
 29 30  2  0
 30 31  1  0
  6 32  1  0
 32 33  2  0
 33  3  1  0
 25 11  1  0
 31 27  1  0
 23 17  1  0
  1 34  1  0
  1 35  1  0
  1 36  1  0
  4 37  1  0
  5 38  1  0
  9 39  1  0
  9 40  1  0
 15 41  1  0
 15 42  1  0
 16 43  1  0
 18 44  1  0
 19 45  1  0
 21 46  1  0
 21 47  1  0
 21 48  1  0
 22 49  1  0
 24 50  1  0
 24 51  1  0
 24 52  1  0
 26 53  1  0
 26 54  1  0
 28 55  1  0
 29 56  1  0
 30 57  1  0
 32 58  1  0
 33 59  1  0
M  END
$$$$
