
     RDKit          3D

 57 60  0  0  0  0  0  0  0  0999 V2000
    5.5115    3.2735   -0.4336 C   0  0  0  0  0  0  0  0  0  0  0  0
    4.4031    2.2938   -0.2336 C   0  0  0  0  0  0  0  0  0  0  0  0
    3.0489    2.5468   -0.3130 C   0  0  0  0  0  0  0  0  0  0  0  0
    2.3621    1.3221   -0.1814 C   0  0  0  0  0  0  0  0  0  0  0  0
    0.9392    1.2041   -0.2353 C   0  0  0  0  0  0  0  0  0  0  0  0
    0.2504    0.1345   -0.6654 C   0  0  0  0  0  0  0  0  0  0  0  0
   -1.2140    0.1249   -0.7391 C   0  0  0  0  0  0  0  0  0  0  0  0
   -1.8330    0.9352   -1.6924 C   0  0  0  0  0  0  0  0  0  0  0  0
   -3.2097    0.9225   -1.8242 C   0  0  0  0  0  0  0  0  0  0  0  0
   -3.9699    0.0870   -1.0123 C   0  0  0  0  0  0  0  0  0  0  0  0
   -5.3729    0.0524   -1.1493 C   0  0  0  0  0  0  0  0  0  0  0  0
   -6.1984   -0.7718   -0.3670 C   0  0  0  0  0  0  0  0  0  0  0  0
   -7.5802   -0.8096   -0.5330 N   0  0  0  0  0  0  0  0  0  0  0  0
   -8.2571    0.2478   -1.2884 C   0  0  0  0  0  0  0  0  0  0  0  0
   -8.4196   -1.5241    0.4314 C   0  0  0  0  0  0  0  0  0  0  0  0
   -5.5353   -1.5869    0.5591 C   0  0  0  0  0  0  0  0  0  0  0  0
   -4.1396   -1.5704    0.7175 C   0  0  0  0  0  0  0  0  0  0  0  0
   -3.3263   -0.7310   -0.0561 C   0  0  0  0  0  0  0  0  0  0  0  0
   -1.9590   -0.6805    0.0715 N   0  0  0  0  0  4  0  0  0  0  0  0
   -1.3016   -1.4953    1.1211 C   0  0  0  0  0  0  0  0  0  0  0  0
    3.3078    0.3346    0.0514 C   0  0  0  0  0  0  0  0  0  0  0  0
    3.1191   -1.0960    0.4439 C   0  0  0  0  0  0  0  0  0  0  0  0
    4.5760    0.9275   -0.0345 N   0  0  0  0  0  0  0  0  0  0  0  0
    5.8255    0.2471    0.0595 C   0  0  0  0  0  0  0  0  0  0  0  0
    6.0312   -0.9387   -0.6579 C   0  0  0  0  0  0  0  0  0  0  0  0
    7.2559   -1.6034   -0.5700 C   0  0  0  0  0  0  0  0  0  0  0  0
    8.2739   -1.0907    0.2327 C   0  0  0  0  0  0  0  0  0  0  0  0
    8.0716    0.0887    0.9482 C   0  0  0  0  0  0  0  0  0  0  0  0
    6.8507    0.7607    0.8624 C   0  0  0  0  0  0  0  0  0  0  0  0
    5.9205    3.5990    0.5274 H   0  0  0  0  0  0  0  0  0  0  0  0
    5.1416    4.1665   -0.9500 H   0  0  0  0  0  0  0  0  0  0  0  0
    6.3145    2.8580   -1.0503 H   0  0  0  0  0  0  0  0  0  0  0  0
    2.6162    3.5245   -0.4899 H   0  0  0  0  0  0  0  0  0  0  0  0
    0.3925    2.1014    0.0579 H   0  0  0  0  0  0  0  0  0  0  0  0
    0.7525   -0.7633   -1.0134 H   0  0  0  0  0  0  0  0  0  0  0  0
   -1.2411    1.5745   -2.3468 H   0  0  0  0  0  0  0  0  0  0  0  0
   -3.6794    1.5590   -2.5737 H   0  0  0  0  0  0  0  0  0  0  0  0
   -5.8229    0.6921   -1.9063 H   0  0  0  0  0  0  0  0  0  0  0  0
   -8.0748    1.2288   -0.8357 H   0  0  0  0  0  0  0  0  0  0  0  0
   -9.3415    0.0941   -1.3148 H   0  0  0  0  0  0  0  0  0  0  0  0
   -7.9281    0.2576   -2.3329 H   0  0  0  0  0  0  0  0  0  0  0  0
   -8.3331   -1.0786    1.4281 H   0  0  0  0  0  0  0  0  0  0  0  0
   -9.4766   -1.4930    0.1448 H   0  0  0  0  0  0  0  0  0  0  0  0
   -8.1524   -2.5851    0.4778 H   0  0  0  0  0  0  0  0  0  0  0  0
   -6.0945   -2.2727    1.1923 H   0  0  0  0  0  0  0  0  0  0  0  0
   -3.7348   -2.2496    1.4621 H   0  0  0  0  0  0  0  0  0  0  0  0
   -0.2453   -1.2566    1.2315 H   0  0  0  0  0  0  0  0  0  0  0  0
   -1.4087   -2.5471    0.8416 H   0  0  0  0  0  0  0  0  0  0  0  0
   -1.7866   -1.2787    2.0775 H   0  0  0  0  0  0  0  0  0  0  0  0
    3.9179   -1.4551    1.1000 H   0  0  0  0  0  0  0  0  0  0  0  0
    3.0688   -1.7359   -0.4423 H   0  0  0  0  0  0  0  0  0  0  0  0
    2.1905   -1.2236    1.0087 H   0  0  0  0  0  0  0  0  0  0  0  0
    5.2697   -1.3357   -1.3229 H   0  0  0  0  0  0  0  0  0  0  0  0
    7.4227   -2.5161   -1.1370 H   0  0  0  0  0  0  0  0  0  0  0  0
    9.2279   -1.6084    0.2985 H   0  0  0  0  0  0  0  0  0  0  0  0
    8.8657    0.4826    1.5785 H   0  0  0  0  0  0  0  0  0  0  0  0
    6.7084    1.6566    1.4600 H   0  0  0  0  0  0  0  0  0  0  0  0
  1  2  1  0
  2  3  2  0
  3  4  1  0
  4  5  1  0
  5  6  2  3
  6  7  1  0
  7  8  2  0
  8  9  1  0
  9 10  2  0
 10 11  1  0
 11 12  2  0
 12 13  1  0
 13 14  1  0
 13 15  1  0
 12 16  1  0
 16 17  2  0
 17 18  1  0
 18 19  2  0
 19 20  1  0
  4 21  2  0
 21 22  1  0
 21 23  1  0
 23 24  1  0
 24 25  2  0
 25 26  1  0
 26 27  2  0
 27 28  1  0
 28 29  2  0
 23  2  1  0
 29 24  1  0
 19  7  1  0
 18 10  1  0
  1 30  1  0
  1 31  1  0
  1 32  1  0
  3 33  1  0
  5 34  1  0
  6 35  1  0
  8 36  1  0
  9 37  1  0
 11 38  1  0
 14 39  1  0
 14 40  1  0
 14 41  1  0
 15 42  1  0
 15 43  1  0
 15 44  1  0
 16 45  1  0
 17 46  1  0
 20 47  1  0
 20 48  1  0
 20 49  1  0
 22 50  1  0
 22 51  1  0
 22 52  1  0
 25 53  1  0
 26 54  1  0
 27 55  1  0
 28 56  1  0
 29 57  1  0
M  CHG  1  19   1
M  END
$$$$
