
     RDKit          3D

 59 63  0  0  0  0  0  0  0  0999 V2000
   -5.6686   -2.4319    2.4067 C   0  0  0  0  0  0  0  0  0  0  0  0
   -5.0845   -1.0773    2.0279 C   0  0  0  0  0  0  0  0  0  0  0  0
   -3.6469   -1.1684    1.4959 C   0  0  0  0  0  0  0  0  0  0  0  0
   -3.6292   -1.8732    0.2146 N   0  0  0  0  0  0  0  0  0  0  0  0
   -2.3340   -1.9508   -0.3145 C   0  0  0  0  0  0  0  0  0  0  0  0
   -2.0733   -3.0646   -1.0097 N   0  0  0  0  0  0  0  0  0  0  0  0
   -0.8619   -3.1268   -1.5633 C   0  0  0  0  0  0  0  0  0  0  0  0
    0.1163   -2.2247   -1.4252 N   0  0  0  0  0  0  0  0  0  0  0  0
   -0.1428   -1.1303   -0.6783 C   0  0  0  0  0  0  0  0  0  0  0  0
    0.9556   -0.3044   -0.3597 N   0  0  0  0  0  0  0  0  0  0  0  0
    2.0900   -0.4146   -1.3026 C   0  0  0  0  0  0  0  0  0  0  0  0
    3.2486    0.5185   -0.8803 C   0  0  0  0  0  0  0  0  0  0  0  0
    3.6622    0.3023    0.5225 N   0  0  0  0  0  0  0  0  0  0  0  0
    5.0375    0.2619    0.7715 C   0  0  0  0  0  0  0  0  0  0  0  0
    5.8842    1.2314    0.2299 C   0  0  0  0  0  0  0  0  0  0  0  0
    7.2541    1.1928    0.4922 C   0  0  0  0  0  0  0  0  0  0  0  0
    7.7583    0.1902    1.3031 C   0  0  0  0  0  0  0  0  0  0  0  0
    6.8639   -0.7253    1.8210 C   0  0  0  0  0  0  0  0  0  0  0  0
    5.5327   -0.7036    1.5770 N   0  0  0  0  0  0  0  0  0  0  0  0
    2.8656   -0.6847    1.2719 C   0  0  0  0  0  0  0  0  0  0  0  0
    1.3524   -0.4379    1.0736 C   0  0  0  0  0  0  0  0  0  0  0  0
   -1.4211   -0.9013   -0.1443 C   0  0  0  0  0  0  0  0  0  0  0  0
   -1.8531    0.2835    0.5564 N   0  0  0  0  0  0  0  0  0  0  0  0
   -1.3420    1.6017    0.1803 C   0  0  0  0  0  0  0  0  0  0  0  0
   -1.9396    2.1100   -1.1188 C   0  0  0  0  0  0  0  0  0  0  0  0
   -3.1989    2.7286   -1.1318 C   0  0  0  0  0  0  0  0  0  0  0  0
   -3.7599    3.1771   -2.3296 C   0  0  0  0  0  0  0  0  0  0  0  0
   -3.0637    3.0082   -3.5238 C   0  0  0  0  0  0  0  0  0  0  0  0
   -3.8207    3.6139   -5.1463 Br  0  0  0  0  0  0  0  0  0  0  0  0
   -1.8136    2.3954   -3.5311 C   0  0  0  0  0  0  0  0  0  0  0  0
   -1.2546    1.9472   -2.3320 C   0  0  0  0  0  0  0  0  0  0  0  0
   -3.0322    0.2433    1.3194 C   0  0  0  0  0  0  0  0  0  0  0  0
   -3.5098    1.2390    1.8680 O   0  0  0  0  0  0  0  0  0  0  0  0
   -5.0292   -2.9478    3.1286 H   0  0  0  0  0  0  0  0  0  0  0  0
   -6.6554   -2.3010    2.8619 H   0  0  0  0  0  0  0  0  0  0  0  0
   -5.7913   -3.0758    1.5323 H   0  0  0  0  0  0  0  0  0  0  0  0
   -5.7358   -0.5968    1.2875 H   0  0  0  0  0  0  0  0  0  0  0  0
   -5.1056   -0.4415    2.9212 H   0  0  0  0  0  0  0  0  0  0  0  0
   -3.0294   -1.7016    2.2332 H   0  0  0  0  0  0  0  0  0  0  0  0
   -4.0361   -2.8025    0.1801 H   0  0  0  0  0  0  0  0  0  0  0  0
   -0.6444   -3.9971   -2.1722 H   0  0  0  0  0  0  0  0  0  0  0  0
    1.7644   -0.1321   -2.3113 H   0  0  0  0  0  0  0  0  0  0  0  0
    2.4711   -1.4433   -1.3481 H   0  0  0  0  0  0  0  0  0  0  0  0
    4.0754    0.3536   -1.5820 H   0  0  0  0  0  0  0  0  0  0  0  0
    2.9276    1.5615   -0.9820 H   0  0  0  0  0  0  0  0  0  0  0  0
    5.4837    2.0327   -0.3811 H   0  0  0  0  0  0  0  0  0  0  0  0
    7.9130    1.9461    0.0728 H   0  0  0  0  0  0  0  0  0  0  0  0
    8.8162    0.1259    1.5291 H   0  0  0  0  0  0  0  0  0  0  0  0
    7.1989   -1.5281    2.4703 H   0  0  0  0  0  0  0  0  0  0  0  0
    3.1148   -1.7032    0.9448 H   0  0  0  0  0  0  0  0  0  0  0  0
    3.0757   -0.6145    2.3468 H   0  0  0  0  0  0  0  0  0  0  0  0
    0.8080   -1.2446    1.5815 H   0  0  0  0  0  0  0  0  0  0  0  0
    1.0875    0.4967    1.5813 H   0  0  0  0  0  0  0  0  0  0  0  0
   -1.5848    2.3225    0.9720 H   0  0  0  0  0  0  0  0  0  0  0  0
   -0.2551    1.6302    0.1266 H   0  0  0  0  0  0  0  0  0  0  0  0
   -3.7538    2.8619   -0.2047 H   0  0  0  0  0  0  0  0  0  0  0  0
   -4.7378    3.6511   -2.3180 H   0  0  0  0  0  0  0  0  0  0  0  0
   -1.2690    2.2574   -4.4608 H   0  0  0  0  0  0  0  0  0  0  0  0
   -0.2796    1.4652   -2.3502 H   0  0  0  0  0  0  0  0  0  0  0  0
  1  2  1  0
  2  3  1  0
  3  4  1  0
  4  5  1  0
  5  6  2  0
  6  7  1  0
  7  8  2  0
  8  9  1  0
  9 10  1  0
 10 11  1  0
 11 12  1  0
 12 13  1  0
 13 14  1  0
 14 15  2  0
 15 16  1  0
 16 17  2  0
 17 18  1  0
 18 19  2  0
 13 20  1  0
 20 21  1  0
  9 22  2  0
 22 23  1  0
 23 24  1  0
 24 25  1  0
 25 26  2  0
 26 27  1  0
 27 28  2  0
 28 29  1  0
 28 30  1  0
 30 31  2  0
 23 32  1  0
 32 33  2  0
 32  3  1  0
 22  5  1  0
 31 25  1  0
 21 10  1  0
 19 14  1  0
  1 34  1  0
  1 35  1  0
  1 36  1  0
  2 37  1  0
  2 38  1  0
  3 39  1  0
  4 40  1  0
  7 41  1  0
 11 42  1  0
 11 43  1  0
 12 44  1  0
 12 45  1  0
 15 46  1  0
 16 47  1  0
 17 48  1  0
 18 49  1  0
 20 50  1  0
 20 51  1  0
 21 52  1  0
 21 53  1  0
 24 54  1  0
 24 55  1  0
 26 56  1  0
 27 57  1  0
 30 58  1  0
 31 59  1  0
M  END
$$$$
