
     RDKit          3D

 98102  0  0  0  0  0  0  0  0999 V2000
    9.5949   -1.0712    2.1816 C   0  0  0  0  0  0  0  0  0  0  0  0
    8.4386   -1.0273    1.2176 C   0  0  0  0  0  0  0  0  0  0  0  0
    7.2232   -0.3053    1.7323 C   0  0  0  0  0  0  0  0  0  0  0  0
    8.5461   -1.6108    0.0048 C   0  0  0  0  0  0  0  0  0  0  0  0
    7.5828   -1.6628   -1.1230 C   0  0  0  0  0  0  0  0  0  0  0  0
    7.7907   -2.3592   -2.1073 O   0  0  0  0  0  0  0  0  0  0  0  0
    6.5247   -0.8463   -0.9380 O   0  0  0  0  0  0  0  0  0  0  0  0
    5.6117   -0.8063   -2.0392 C   0  0  0  0  0  0  0  0  0  0  0  0
    4.3901   -0.0296   -1.6080 C   0  0  0  0  0  0  0  0  0  0  0  0
    3.1792   -0.6117   -1.5320 C   0  0  0  0  0  0  0  0  0  0  0  0
    1.9591    0.1526   -1.1096 C   0  0  0  0  0  0  0  0  0  0  0  0
    0.9275   -0.7551   -0.4610 C   0  0  0  0  0  0  0  0  0  0  0  0
    1.1054   -1.3596    0.5893 O   0  0  0  0  0  0  0  0  0  0  0  0
   -0.2340   -0.7128   -1.1652 O   0  0  0  0  0  0  0  0  0  0  0  0
   -1.4204   -1.1776   -0.4968 C   0  0  1  0  0  0  0  0  0  0  0  0
   -2.5293   -0.2281   -0.9150 C   0  0  0  0  0  0  0  0  0  0  0  0
   -3.8612   -0.6784   -0.3369 C   0  0  1  0  0  0  0  0  0  0  0  0
   -5.0497    0.2011   -0.7810 C   0  0  0  0  0  0  0  0  0  0  0  0
   -4.7411    1.6555   -1.0210 C   0  0  0  0  0  0  0  0  0  0  0  0
   -4.6048    2.6431   -0.1118 C   0  0  0  0  0  0  0  0  0  0  0  0
   -4.7987    2.4521    1.3656 C   0  0  0  0  0  0  0  0  0  0  0  0
   -4.2579    4.0521   -0.5798 C   0  0  0  0  0  0  0  0  0  0  0  0
   -2.9097    4.6765   -0.1170 C   0  0  1  0  0  0  0  0  0  0  0  0
   -3.0712    5.4280    1.2121 C   0  0  0  0  0  0  0  0  0  0  0  0
   -1.7467    3.6984   -0.1792 C   0  0  0  0  0  0  0  0  0  0  0  0
   -0.9023    3.3924    0.8209 C   0  0  0  0  0  0  0  0  0  0  0  0
    0.1541    2.4064    0.7597 C   0  0  0  0  0  0  0  0  0  0  0  0
    1.1295    2.3163   -0.1613 C   0  0  0  0  0  0  0  0  0  0  0  0
    1.3853    3.2422   -1.3205 C   0  0  0  0  0  0  0  0  0  0  0  0
    2.7255    2.9408   -1.7893 O   0  0  0  0  0  0  0  0  0  0  0  0
    3.3907    2.2281   -0.7027 C   0  0  2  0  0  0  0  0  0  0  0  0
    3.9250    3.2973    0.2810 C   0  0  0  0  0  0  0  0  0  0  0  0
    4.6167    1.4192   -1.2359 C   0  0  2  0  0  0  0  0  0  0  0  0
    5.1600    2.0860   -2.3824 O   0  0  0  0  0  0  0  0  0  0  0  0
    2.2748    1.3274   -0.1366 C   0  0  2  0  0  0  0  0  0  0  0  0
    2.6029    0.9277    1.1915 O   0  0  0  0  0  0  0  0  0  0  0  0
   -4.1374   -2.0231   -0.7612 O   0  0  0  0  0  0  0  0  0  0  0  0
   -3.1509   -2.9953   -0.3850 C   0  0  2  0  0  0  0  0  0  0  0  0
   -3.5524   -4.3465   -1.0150 C   0  0  0  0  0  0  0  0  0  0  0  0
   -4.0167   -5.3711    0.0137 C   0  0  0  0  0  0  0  0  0  0  0  0
   -4.9232   -4.7486    1.0710 C   0  0  2  0  0  0  0  0  0  0  0  0
   -6.3059   -4.4243    0.4972 C   0  0  0  0  0  0  0  0  0  0  0  0
   -4.2708   -3.4905    1.6864 C   0  0  1  0  0  0  0  0  0  0  0  0
   -3.9133   -3.7287    3.1526 C   0  0  0  0  0  0  0  0  0  0  0  0
   -3.0460   -3.1249    1.0332 O   0  0  0  0  0  0  0  0  0  0  0  0
   -1.7726   -2.5885   -0.9314 C   0  0  0  0  0  0  0  0  0  0  0  0
   10.4583   -1.6092    1.7743 H   0  0  0  0  0  0  0  0  0  0  0  0
    9.2977   -1.5751    3.1100 H   0  0  0  0  0  0  0  0  0  0  0  0
    9.9205   -0.0527    2.4237 H   0  0  0  0  0  0  0  0  0  0  0  0
    7.2513   -0.2224    2.8251 H   0  0  0  0  0  0  0  0  0  0  0  0
    6.2968   -0.8361    1.4917 H   0  0  0  0  0  0  0  0  0  0  0  0
    7.1855    0.7098    1.3239 H   0  0  0  0  0  0  0  0  0  0  0  0
    9.4682   -2.1295   -0.2486 H   0  0  0  0  0  0  0  0  0  0  0  0
    6.0886   -0.3152   -2.8940 H   0  0  0  0  0  0  0  0  0  0  0  0
    5.3358   -1.8277   -2.3314 H   0  0  0  0  0  0  0  0  0  0  0  0
    3.0548   -1.6549   -1.8156 H   0  0  0  0  0  0  0  0  0  0  0  0
    1.5173    0.5348   -2.0425 H   0  0  0  0  0  0  0  0  0  0  0  0
   -1.2967   -1.1242    0.5912 H   0  0  0  0  0  0  0  0  0  0  0  0
   -2.2693    0.7802   -0.5843 H   0  0  0  0  0  0  0  0  0  0  0  0
   -2.5792   -0.1923   -2.0096 H   0  0  0  0  0  0  0  0  0  0  0  0
   -3.8126   -0.6555    0.7582 H   0  0  0  0  0  0  0  0  0  0  0  0
   -5.4674   -0.2069   -1.7129 H   0  0  0  0  0  0  0  0  0  0  0  0
   -5.8686    0.0941   -0.0562 H   0  0  0  0  0  0  0  0  0  0  0  0
   -4.5897    1.8967   -2.0751 H   0  0  0  0  0  0  0  0  0  0  0  0
   -5.5128    3.1851    1.7526 H   0  0  0  0  0  0  0  0  0  0  0  0
   -3.8484    2.5676    1.8901 H   0  0  0  0  0  0  0  0  0  0  0  0
   -5.1797    1.4601    1.6206 H   0  0  0  0  0  0  0  0  0  0  0  0
   -5.0865    4.7157   -0.2977 H   0  0  0  0  0  0  0  0  0  0  0  0
   -4.2536    4.0709   -1.6805 H   0  0  0  0  0  0  0  0  0  0  0  0
   -2.6729    5.4547   -0.8578 H   0  0  0  0  0  0  0  0  0  0  0  0
   -2.1583    5.9834    1.4567 H   0  0  0  0  0  0  0  0  0  0  0  0
   -3.2935    4.7607    2.0501 H   0  0  0  0  0  0  0  0  0  0  0  0
   -3.8852    6.1602    1.1448 H   0  0  0  0  0  0  0  0  0  0  0  0
   -1.6285    3.2012   -1.1404 H   0  0  0  0  0  0  0  0  0  0  0  0
   -1.0292    3.8404    1.8052 H   0  0  0  0  0  0  0  0  0  0  0  0
    0.1622    1.7130    1.6028 H   0  0  0  0  0  0  0  0  0  0  0  0
    0.7007    3.0581   -2.1526 H   0  0  0  0  0  0  0  0  0  0  0  0
    1.3508    4.2965   -1.0305 H   0  0  0  0  0  0  0  0  0  0  0  0
    4.4626    2.8357    1.1157 H   0  0  0  0  0  0  0  0  0  0  0  0
    4.6103    3.9777   -0.2379 H   0  0  0  0  0  0  0  0  0  0  0  0
    3.1306    3.9228    0.6987 H   0  0  0  0  0  0  0  0  0  0  0  0
    5.3936    1.4207   -0.4613 H   0  0  0  0  0  0  0  0  0  0  0  0
    4.4512    2.6775   -2.7003 H   0  0  0  0  0  0  0  0  0  0  0  0
    2.2262    0.0394    1.3702 H   0  0  0  0  0  0  0  0  0  0  0  0
   -4.3383   -4.1939   -1.7639 H   0  0  0  0  0  0  0  0  0  0  0  0
   -2.7127   -4.7936   -1.5618 H   0  0  0  0  0  0  0  0  0  0  0  0
   -4.5128   -6.2095   -0.4890 H   0  0  0  0  0  0  0  0  0  0  0  0
   -3.1344   -5.7922    0.5124 H   0  0  0  0  0  0  0  0  0  0  0  0
   -5.0955   -5.5001    1.8517 H   0  0  0  0  0  0  0  0  0  0  0  0
   -6.9771   -4.0615    1.2814 H   0  0  0  0  0  0  0  0  0  0  0  0
   -6.2616   -3.6569   -0.2807 H   0  0  0  0  0  0  0  0  0  0  0  0
   -6.7662   -5.3148    0.0602 H   0  0  0  0  0  0  0  0  0  0  0  0
   -4.9573   -2.6347    1.6517 H   0  0  0  0  0  0  0  0  0  0  0  0
   -4.7995   -3.9918    3.7383 H   0  0  0  0  0  0  0  0  0  0  0  0
   -3.1739   -4.5326    3.2503 H   0  0  0  0  0  0  0  0  0  0  0  0
   -3.4613   -2.8291    3.5873 H   0  0  0  0  0  0  0  0  0  0  0  0
   -0.9919   -3.2770   -0.5894 H   0  0  0  0  0  0  0  0  0  0  0  0
   -1.7704   -2.6269   -2.0271 H   0  0  0  0  0  0  0  0  0  0  0  0
  1  2  1  0
  2  3  1  0
  2  4  2  3
  4  5  1  0
  5  6  2  0
  5  7  1  0
  7  8  1  0
  8  9  1  0
  9 10  2  0
 10 11  1  0
 11 12  1  0
 12 13  2  0
 12 14  1  0
 14 15  1  0
 15 16  1  0
 16 17  1  0
 17 18  1  0
 18 19  1  0
 19 20  2  0
 20 21  1  0
 20 22  1  0
 22 23  1  0
 23 24  1  0
 23 25  1  0
 25 26  2  0
 26 27  1  0
 27 28  2  0
 28 29  1  0
 29 30  1  0
 30 31  1  0
 31 32  1  1
 31 33  1  0
 33 34  1  0
 31 35  1  0
 35 36  1  1
 17 37  1  0
 38 37  1  1
 38 39  1  0
 39 40  1  0
 40 41  1  0
 41 42  1  0
 41 43  1  0
 43 44  1  0
 43 45  1  0
 38 46  1  0
 33  9  1  0
 45 38  1  0
 35 11  1  0
 46 15  1  0
 35 28  1  0
  1 47  1  0
  1 48  1  0
  1 49  1  0
  3 50  1  0
  3 51  1  0
  3 52  1  0
  4 53  1  0
  8 54  1  0
  8 55  1  0
 10 56  1  0
 11 57  1  0
 15 58  1  1
 16 59  1  0
 16 60  1  0
 17 61  1  1
 18 62  1  0
 18 63  1  0
 19 64  1  0
 21 65  1  0
 21 66  1  0
 21 67  1  0
 22 68  1  0
 22 69  1  0
 23 70  1  6
 24 71  1  0
 24 72  1  0
 24 73  1  0
 25 74  1  0
 26 75  1  0
 27 76  1  0
 29 77  1  0
 29 78  1  0
 32 79  1  0
 32 80  1  0
 32 81  1  0
 33 82  1  1
 34 83  1  0
 36 84  1  0
 39 85  1  0
 39 86  1  0
 40 87  1  0
 40 88  1  0
 41 89  1  1
 42 90  1  0
 42 91  1  0
 42 92  1  0
 43 93  1  1
 44 94  1  0
 44 95  1  0
 44 96  1  0
 46 97  1  0
 46 98  1  0
M  END
$$$$
