
     RDKit          3D

 41 42  0  0  0  0  0  0  0  0999 V2000
    5.3165    2.9698    0.9130 C   0  0  0  0  0  0  0  0  0  0  0  0
    4.7905    1.6461    1.0032 O   0  0  0  0  0  0  0  0  0  0  0  0
    3.8189    1.3693    0.0876 C   0  0  0  0  0  0  0  0  0  0  0  0
    3.4046    2.1670   -0.7436 O   0  0  0  0  0  0  0  0  0  0  0  0
    3.3523    0.0044    0.2580 C   0  0  0  0  0  0  0  0  0  0  0  0
    3.7276   -0.9190    1.2218 C   0  0  0  0  0  0  0  0  0  0  0  0
    2.9899   -2.0991    1.0127 C   0  0  0  0  0  0  0  0  0  0  0  0
    2.1580   -1.9088   -0.0799 C   0  0  0  0  0  0  0  0  0  0  0  0
    0.9641   -3.0160   -0.7954 S   0  0  0  0  0  6  0  0  0  0  0  0
    1.3831   -3.2007   -2.1641 O   0  0  0  0  0  0  0  0  0  0  0  0
    0.8467   -4.1153    0.1340 O   0  0  0  0  0  0  0  0  0  0  0  0
   -0.4992   -2.1946   -0.8184 N   0  0  0  0  0  0  0  0  0  0  0  0
   -1.1433   -2.0100    0.4891 C   0  0  0  0  0  0  0  0  0  0  0  0
   -2.3093   -1.0601    0.3689 C   0  0  0  0  0  0  0  0  0  0  0  0
   -3.6241   -1.5380    0.3318 C   0  0  0  0  0  0  0  0  0  0  0  0
   -4.6928   -0.6480    0.1987 C   0  0  0  0  0  0  0  0  0  0  0  0
   -4.4699    0.7268    0.0935 C   0  0  0  0  0  0  0  0  0  0  0  0
   -5.6035    1.4813   -0.0324 O   0  0  0  0  0  0  0  0  0  0  0  0
   -5.4301    2.8882   -0.1442 C   0  0  0  0  0  0  0  0  0  0  0  0
   -3.1615    1.2079    0.1208 C   0  0  0  0  0  0  0  0  0  0  0  0
   -2.0884    0.3197    0.2547 C   0  0  0  0  0  0  0  0  0  0  0  0
    2.4148   -0.6309   -0.5510 N   0  0  0  0  0  0  0  0  0  0  0  0
    1.8130   -0.0085   -1.7164 C   0  0  0  0  0  0  0  0  0  0  0  0
    5.7790    3.1336   -0.0654 H   0  0  0  0  0  0  0  0  0  0  0  0
    4.5308    3.7084    1.1002 H   0  0  0  0  0  0  0  0  0  0  0  0
    6.0861    3.0815    1.6819 H   0  0  0  0  0  0  0  0  0  0  0  0
    4.4564   -0.7475    2.0054 H   0  0  0  0  0  0  0  0  0  0  0  0
    3.0366   -3.0096    1.5987 H   0  0  0  0  0  0  0  0  0  0  0  0
   -1.1214   -2.6058   -1.5146 H   0  0  0  0  0  0  0  0  0  0  0  0
   -0.4363   -1.6029    1.2206 H   0  0  0  0  0  0  0  0  0  0  0  0
   -1.4951   -2.9768    0.8671 H   0  0  0  0  0  0  0  0  0  0  0  0
   -3.8311   -2.6032    0.4071 H   0  0  0  0  0  0  0  0  0  0  0  0
   -5.7111   -1.0293    0.1748 H   0  0  0  0  0  0  0  0  0  0  0  0
   -4.8627    3.1457   -1.0447 H   0  0  0  0  0  0  0  0  0  0  0  0
   -6.4221    3.3410   -0.2352 H   0  0  0  0  0  0  0  0  0  0  0  0
   -4.9571    3.3003    0.7534 H   0  0  0  0  0  0  0  0  0  0  0  0
   -2.9392    2.2665    0.0375 H   0  0  0  0  0  0  0  0  0  0  0  0
   -1.0736    0.7124    0.2662 H   0  0  0  0  0  0  0  0  0  0  0  0
    1.2012   -0.7111   -2.2771 H   0  0  0  0  0  0  0  0  0  0  0  0
    2.6138    0.3444   -2.3716 H   0  0  0  0  0  0  0  0  0  0  0  0
    1.1882    0.8207   -1.3748 H   0  0  0  0  0  0  0  0  0  0  0  0
  1  2  1  0
  2  3  1  0
  3  4  2  0
  3  5  1  0
  5  6  2  0
  6  7  1  0
  7  8  2  0
  8  9  1  0
  9 10  2  0
  9 11  2  0
  9 12  1  0
 12 13  1  0
 13 14  1  0
 14 15  2  0
 15 16  1  0
 16 17  2  0
 17 18  1  0
 18 19  1  0
 17 20  1  0
 20 21  2  0
  8 22  1  0
 22 23  1  0
 22  5  1  0
 21 14  1  0
  1 24  1  0
  1 25  1  0
  1 26  1  0
  6 27  1  0
  7 28  1  0
 12 29  1  0
 13 30  1  0
 13 31  1  0
 15 32  1  0
 16 33  1  0
 19 34  1  0
 19 35  1  0
 19 36  1  0
 20 37  1  0
 21 38  1  0
 23 39  1  0
 23 40  1  0
 23 41  1  0
M  END
$$$$
