
     RDKit          3D

 58 60  0  0  0  0  0  0  0  0999 V2000
    5.3070   -0.3493   -4.7917 C   0  0  0  0  0  0  0  0  0  0  0  0
    5.3758   -0.7289   -3.3423 C   0  0  0  0  0  0  0  0  0  0  0  0
    5.0524   -2.0282   -2.9362 C   0  0  0  0  0  0  0  0  0  0  0  0
    5.1492   -2.3953   -1.5919 C   0  0  0  0  0  0  0  0  0  0  0  0
    5.5804   -1.4713   -0.6315 C   0  0  0  0  0  0  0  0  0  0  0  0
    5.6694   -1.8645    0.8249 C   0  0  0  0  0  0  0  0  0  0  0  0
    4.6215   -1.1750    1.7023 C   0  0  0  0  0  0  0  0  0  0  0  0
    3.2600   -1.5118    1.3217 N   0  0  0  0  0  0  0  0  0  0  0  0
    2.2103   -1.2382    2.1738 C   0  0  0  0  0  0  0  0  0  0  0  0
    2.3589   -0.8310    3.3214 O   0  0  0  0  0  0  0  0  0  0  0  0
    0.8544   -1.4647    1.5371 C   0  0  0  0  0  0  0  0  0  0  0  0
   -0.2840   -1.3592    2.5450 C   0  0  0  0  0  0  0  0  0  0  0  0
   -0.4111    0.0278    3.0242 N   0  0  0  0  0  0  0  0  0  0  0  0
   -1.8408    0.4801    3.7806 S   0  0  0  0  0  6  0  0  0  0  0  0
   -1.5269    1.6248    4.6075 O   0  0  0  0  0  0  0  0  0  0  0  0
   -2.4854   -0.6979    4.3147 O   0  0  0  0  0  0  0  0  0  0  0  0
   -2.7907    1.0727    2.4017 C   0  0  0  0  0  0  0  0  0  0  0  0
   -2.6772    2.4059    2.0079 C   0  0  0  0  0  0  0  0  0  0  0  0
   -3.4423    2.8808    0.9370 C   0  0  0  0  0  0  0  0  0  0  0  0
   -4.3315    2.0346    0.2527 C   0  0  0  0  0  0  0  0  0  0  0  0
   -4.4333    0.7068    0.6701 C   0  0  0  0  0  0  0  0  0  0  0  0
   -3.6758    0.2191    1.7462 C   0  0  0  0  0  0  0  0  0  0  0  0
   -5.3482   -0.2011   -0.0391 C   0  0  0  0  0  0  0  0  0  0  0  0
   -5.3483   -1.3956    0.2509 O   0  0  0  0  0  0  0  0  0  0  0  0
   -6.1467    0.3619   -1.0212 N   0  0  0  0  0  0  0  0  0  0  0  0
   -7.0815   -0.5094   -1.7098 C   0  0  0  0  0  0  0  0  0  0  0  0
   -6.0191    1.6583   -1.5033 C   0  0  0  0  0  0  0  0  0  0  0  0
   -6.6727    2.0485   -2.4743 O   0  0  0  0  0  0  0  0  0  0  0  0
   -5.1130    2.4862   -0.8436 N   0  0  0  0  0  0  0  0  0  0  0  0
   -4.9761    3.8627   -1.3060 C   0  0  0  0  0  0  0  0  0  0  0  0
    5.9205   -0.1759   -1.0424 C   0  0  0  0  0  0  0  0  0  0  0  0
    5.8223    0.1907   -2.3865 C   0  0  0  0  0  0  0  0  0  0  0  0
    5.1949    0.7345   -4.9108 H   0  0  0  0  0  0  0  0  0  0  0  0
    6.2206   -0.6661   -5.3049 H   0  0  0  0  0  0  0  0  0  0  0  0
    4.4434   -0.8201   -5.2751 H   0  0  0  0  0  0  0  0  0  0  0  0
    4.7276   -2.7663   -3.6669 H   0  0  0  0  0  0  0  0  0  0  0  0
    4.8914   -3.4120   -1.3027 H   0  0  0  0  0  0  0  0  0  0  0  0
    5.5672   -2.9529    0.9236 H   0  0  0  0  0  0  0  0  0  0  0  0
    6.6729   -1.6170    1.1909 H   0  0  0  0  0  0  0  0  0  0  0  0
    4.7728   -1.4647    2.7479 H   0  0  0  0  0  0  0  0  0  0  0  0
    4.7129   -0.0844    1.6497 H   0  0  0  0  0  0  0  0  0  0  0  0
    3.0565   -1.5285    0.3284 H   0  0  0  0  0  0  0  0  0  0  0  0
    0.8478   -2.4666    1.0925 H   0  0  0  0  0  0  0  0  0  0  0  0
    0.7251   -0.7294    0.7343 H   0  0  0  0  0  0  0  0  0  0  0  0
   -1.2111   -1.6695    2.0518 H   0  0  0  0  0  0  0  0  0  0  0  0
   -0.1016   -2.0194    3.4003 H   0  0  0  0  0  0  0  0  0  0  0  0
    0.4082    0.3781    3.5351 H   0  0  0  0  0  0  0  0  0  0  0  0
   -1.9983    3.0805    2.5276 H   0  0  0  0  0  0  0  0  0  0  0  0
   -3.3219    3.9255    0.6639 H   0  0  0  0  0  0  0  0  0  0  0  0
   -3.7807   -0.8170    2.0646 H   0  0  0  0  0  0  0  0  0  0  0  0
   -7.9982    0.0360   -1.9572 H   0  0  0  0  0  0  0  0  0  0  0  0
   -6.6144   -0.8522   -2.6391 H   0  0  0  0  0  0  0  0  0  0  0  0
   -7.3465   -1.3794   -1.1023 H   0  0  0  0  0  0  0  0  0  0  0  0
   -5.2642    4.5475   -0.4990 H   0  0  0  0  0  0  0  0  0  0  0  0
   -3.9390    4.0441   -1.6095 H   0  0  0  0  0  0  0  0  0  0  0  0
   -5.6153    4.0764   -2.1669 H   0  0  0  0  0  0  0  0  0  0  0  0
    6.2715    0.5581   -0.3205 H   0  0  0  0  0  0  0  0  0  0  0  0
    6.1008    1.2010   -2.6833 H   0  0  0  0  0  0  0  0  0  0  0  0
  1  2  1  0
  2  3  2  0
  3  4  1  0
  4  5  2  0
  5  6  1  0
  6  7  1  0
  7  8  1  0
  8  9  1  0
  9 10  2  0
  9 11  1  0
 11 12  1  0
 12 13  1  0
 13 14  1  0
 14 15  2  0
 14 16  2  0
 14 17  1  0
 17 18  2  0
 18 19  1  0
 19 20  2  0
 20 21  1  0
 21 22  2  0
 21 23  1  0
 23 24  2  0
 23 25  1  0
 25 26  1  0
 25 27  1  0
 27 28  2  0
 27 29  1  0
 29 30  1  0
  5 31  1  0
 31 32  2  0
 32  2  1  0
 22 17  1  0
 29 20  1  0
  1 33  1  0
  1 34  1  0
  1 35  1  0
  3 36  1  0
  4 37  1  0
  6 38  1  0
  6 39  1  0
  7 40  1  0
  7 41  1  0
  8 42  1  0
 11 43  1  0
 11 44  1  0
 12 45  1  0
 12 46  1  0
 13 47  1  0
 18 48  1  0
 19 49  1  0
 22 50  1  0
 26 51  1  0
 26 52  1  0
 26 53  1  0
 30 54  1  0
 30 55  1  0
 30 56  1  0
 31 57  1  0
 32 58  1  0
M  END
$$$$
