
     RDKit          3D

 19 19  0  0  0  0  0  0  0  0999 V2000
   -2.9237   -0.8016   -0.9074 C   0  0  0  0  0  0  0  0  0  0  0  0
   -2.1694    0.3295   -0.4900 O   0  0  0  0  0  0  0  0  0  0  0  0
   -0.8498    0.1352   -0.1790 C   0  0  0  0  0  0  0  0  0  0  0  0
   -0.1956   -1.0983   -0.2249 C   0  0  0  0  0  0  0  0  0  0  0  0
    1.1608   -1.1941    0.1105 C   0  0  0  0  0  0  0  0  0  0  0  0
    1.8987   -0.0619    0.4561 C   0  0  0  0  0  0  0  0  0  0  0  0
    3.2155   -0.1885    0.9051 N   0  0  0  0  0  0  0  0  0  0  0  0
    1.2322    1.1586    0.5605 C   0  0  0  0  0  0  0  0  0  0  0  0
   -0.1276    1.2678    0.2268 C   0  0  0  0  0  0  0  0  0  0  0  0
   -0.7554    2.5551    0.3213 C   0  0  0  0  0  0  0  0  0  0  0  0
   -1.2221    3.6152    0.4079 N   0  0  0  0  0  0  0  0  0  0  0  0
   -2.9841   -1.5504   -0.1108 H   0  0  0  0  0  0  0  0  0  0  0  0
   -3.9415   -0.4631   -1.1238 H   0  0  0  0  0  0  0  0  0  0  0  0
   -2.5135   -1.2324   -1.8267 H   0  0  0  0  0  0  0  0  0  0  0  0
   -0.7108   -2.0117   -0.5040 H   0  0  0  0  0  0  0  0  0  0  0  0
    1.6372   -2.1718    0.0980 H   0  0  0  0  0  0  0  0  0  0  0  0
    3.7650    0.6639    0.8471 H   0  0  0  0  0  0  0  0  0  0  0  0
    3.7120   -0.9906    0.5292 H   0  0  0  0  0  0  0  0  0  0  0  0
    1.7721    2.0391    0.9040 H   0  0  0  0  0  0  0  0  0  0  0  0
  1  2  1  0
  2  3  1  0
  3  4  2  0
  4  5  1  0
  5  6  2  0
  6  7  1  0
  6  8  1  0
  8  9  2  0
  9 10  1  0
 10 11  3  0
  9  3  1  0
  1 12  1  0
  1 13  1  0
  1 14  1  0
  4 15  1  0
  5 16  1  0
  7 17  1  0
  7 18  1  0
  8 19  1  0
M  END
$$$$
