
     RDKit          3D

 56 60  0  0  0  0  0  0  0  0999 V2000
   -5.8208   -1.9306   -0.8091 C   0  0  0  0  0  0  0  0  0  0  0  0
   -4.3612   -1.5724   -0.8414 C   0  0  0  0  0  0  0  0  0  0  0  0
   -3.4350   -2.5854   -1.1382 C   0  0  0  0  0  0  0  0  0  0  0  0
   -2.0631   -2.3164   -1.1994 C   0  0  0  0  0  0  0  0  0  0  0  0
   -1.5690   -1.0208   -0.9933 C   0  0  0  0  0  0  0  0  0  0  0  0
   -0.1272   -0.7266   -1.0303 C   0  0  0  0  0  0  0  0  0  0  0  0
    0.3459   -0.2318    0.1335 N   0  0  0  0  0  0  0  0  0  0  0  0
    1.6710    0.0684    0.2675 N   0  0  0  0  0  0  0  0  0  0  0  0
    2.5366   -0.1206   -0.7498 C   0  0  0  0  0  0  0  0  0  0  0  0
    3.9161    0.1705   -0.5749 N   0  0  0  0  0  0  0  0  0  0  0  0
    4.5316    0.9051    0.4626 C   0  0  0  0  0  0  0  0  0  0  0  0
    3.8735    1.9609    1.1343 C   0  0  0  0  0  0  0  0  0  0  0  0
    4.5211    2.7255    2.1112 C   0  0  0  0  0  0  0  0  0  0  0  0
    5.8351    2.4280    2.3905 C   0  0  0  0  0  0  0  0  0  0  0  0
    6.4993    1.4251    1.7292 C   0  0  0  0  0  0  0  0  0  0  0  0
    5.8844    0.6600    0.7554 C   0  0  0  0  0  0  0  0  0  0  0  0
    7.7896    1.2955    2.1385 O   0  0  0  0  0  0  0  0  0  0  0  0
    7.8638    2.3483    3.1258 C   0  0  0  0  0  0  0  0  0  0  0  0
    6.6193    3.0551    3.3057 O   0  0  0  0  0  0  0  0  0  0  0  0
    2.0855   -0.6136   -1.9955 C   0  0  0  0  0  0  0  0  0  0  0  0
    2.9406   -0.7940   -3.1124 C   0  0  0  0  0  0  0  0  0  0  0  0
    2.4676   -1.2729   -4.3335 C   0  0  0  0  0  0  0  0  0  0  0  0
    1.1227   -1.5709   -4.4797 C   0  0  0  0  0  0  0  0  0  0  0  0
    0.2554   -1.3913   -3.4026 C   0  0  0  0  0  0  0  0  0  0  0  0
    0.7120   -0.9234   -2.1436 C   0  0  0  0  0  0  0  0  0  0  0  0
   -2.4923   -0.0060   -0.6983 C   0  0  0  0  0  0  0  0  0  0  0  0
   -3.8701   -0.2729   -0.6146 C   0  0  0  0  0  0  0  0  0  0  0  0
   -4.9463    1.0957   -0.2016 S   0  0  0  0  0  6  0  0  0  0  0  0
   -4.1614    2.3127   -0.2348 O   0  0  0  0  0  0  0  0  0  0  0  0
   -6.1634    0.9684   -0.9710 O   0  0  0  0  0  0  0  0  0  0  0  0
   -5.3268    0.7899    1.3971 N   0  0  0  0  0  0  0  0  0  0  0  0
   -4.2601    0.7337    2.4075 C   0  0  0  0  0  0  0  0  0  0  0  0
   -4.8982    0.4958    3.7781 C   0  0  0  0  0  0  0  0  0  0  0  0
   -5.6180   -0.7428    3.7691 O   0  0  0  0  0  0  0  0  0  0  0  0
   -6.3323   -1.5291   -1.6914 H   0  0  0  0  0  0  0  0  0  0  0  0
   -6.2993   -1.5655    0.1040 H   0  0  0  0  0  0  0  0  0  0  0  0
   -5.9624   -3.0186   -0.8180 H   0  0  0  0  0  0  0  0  0  0  0  0
   -3.7748   -3.6055   -1.3196 H   0  0  0  0  0  0  0  0  0  0  0  0
   -1.3770   -3.1376   -1.4045 H   0  0  0  0  0  0  0  0  0  0  0  0
    4.4597   -0.6495   -0.8302 H   0  0  0  0  0  0  0  0  0  0  0  0
    2.8413    2.2067    0.8926 H   0  0  0  0  0  0  0  0  0  0  0  0
    4.0052    3.5264    2.6248 H   0  0  0  0  0  0  0  0  0  0  0  0
    6.4494   -0.1150    0.2458 H   0  0  0  0  0  0  0  0  0  0  0  0
    8.6316    3.0672    2.8123 H   0  0  0  0  0  0  0  0  0  0  0  0
    8.1627    1.9097    4.0863 H   0  0  0  0  0  0  0  0  0  0  0  0
    3.9969   -0.5369   -3.0485 H   0  0  0  0  0  0  0  0  0  0  0  0
    3.1491   -1.3965   -5.1714 H   0  0  0  0  0  0  0  0  0  0  0  0
    0.7406   -1.9306   -5.4336 H   0  0  0  0  0  0  0  0  0  0  0  0
   -0.7988   -1.6104   -3.5664 H   0  0  0  0  0  0  0  0  0  0  0  0
   -2.1216    1.0026   -0.5173 H   0  0  0  0  0  0  0  0  0  0  0  0
   -6.1399    0.1892    1.5518 H   0  0  0  0  0  0  0  0  0  0  0  0
   -3.6891    1.6680    2.4151 H   0  0  0  0  0  0  0  0  0  0  0  0
   -3.5937   -0.1056    2.1833 H   0  0  0  0  0  0  0  0  0  0  0  0
   -5.6091    1.2930    4.0207 H   0  0  0  0  0  0  0  0  0  0  0  0
   -4.1377    0.4532    4.5657 H   0  0  0  0  0  0  0  0  0  0  0  0
   -4.9592   -1.4615    3.7770 H   0  0  0  0  0  0  0  0  0  0  0  0
  1  2  1  0
  2  3  2  0
  3  4  1  0
  4  5  2  0
  5  6  1  0
  6  7  2  0
  7  8  1  0
  8  9  2  0
  9 10  1  0
 10 11  1  0
 11 12  2  0
 12 13  1  0
 13 14  2  0
 14 15  1  0
 15 16  2  0
 15 17  1  0
 17 18  1  0
 18 19  1  0
  9 20  1  0
 20 21  2  0
 21 22  1  0
 22 23  2  0
 23 24  1  0
 24 25  2  0
  5 26  1  0
 26 27  2  0
 27 28  1  0
 28 29  2  0
 28 30  2  0
 28 31  1  0
 31 32  1  0
 32 33  1  0
 33 34  1  0
 27  2  1  0
 25  6  1  0
 16 11  1  0
 25 20  1  0
 19 14  1  0
  1 35  1  0
  1 36  1  0
  1 37  1  0
  3 38  1  0
  4 39  1  0
 10 40  1  0
 12 41  1  0
 13 42  1  0
 16 43  1  0
 18 44  1  0
 18 45  1  0
 21 46  1  0
 22 47  1  0
 23 48  1  0
 24 49  1  0
 26 50  1  0
 31 51  1  0
 32 52  1  0
 32 53  1  0
 33 54  1  0
 33 55  1  0
 34 56  1  0
M  END
$$$$
