
     RDKit          3D

 68 69  0  0  0  0  0  0  0  0999 V2000
    0.7979    1.7225    2.9248 C   0  0  0  0  0  0  0  0  0  0  0  0
    0.9002    0.7930    1.8545 O   0  0  0  0  0  0  0  0  0  0  0  0
    0.1659   -0.4037    2.1250 C   0  0  0  0  0  0  0  0  0  0  0  0
    0.3502   -1.4001    0.9742 C   0  0  0  0  0  0  0  0  0  0  0  0
   -0.2807   -0.9870   -0.3004 N   0  0  0  0  0  0  0  0  0  0  0  0
    0.4346   -0.4978   -1.3919 C   0  0  0  0  0  0  0  0  0  0  0  0
   -0.1248   -0.1537   -2.4348 O   0  0  0  0  0  0  0  0  0  0  0  0
    1.9445   -0.3982   -1.2665 C   0  0  0  0  0  0  0  0  0  0  0  0
    2.5620    0.2493   -2.5021 C   0  0  0  0  0  0  0  0  0  0  0  0
    4.0702    0.3501   -2.3992 C   0  0  0  0  0  0  0  0  0  0  0  0
    4.6977   -0.0833   -1.4377 O   0  0  0  0  0  0  0  0  0  0  0  0
    4.6120    0.9667   -3.5052 N   0  0  0  0  0  0  0  0  0  0  0  0
    5.9537    1.1819   -3.7229 C   0  0  0  0  0  0  0  0  0  0  0  0
    7.0621    0.8509   -2.9139 C   0  0  0  0  0  0  0  0  0  0  0  0
    8.1514    1.2836   -3.6279 C   0  0  0  0  0  0  0  0  0  0  0  0
    9.6059    1.2514   -3.3991 C   0  0  0  0  0  0  0  0  0  0  0  0
    7.7269    1.8390   -4.7924 O   0  0  0  0  0  0  0  0  0  0  0  0
    6.3475    1.7854   -4.8504 N   0  0  0  0  0  0  0  0  0  0  0  0
   -1.7564   -1.1045   -0.4601 C   0  0  0  0  0  0  0  0  0  0  0  0
   -2.3522   -2.2804    0.3807 C   0  0  0  0  0  0  0  0  0  0  0  0
   -2.2234   -3.4508    0.0194 O   0  0  0  0  0  0  0  0  0  0  0  0
   -2.8995   -1.9350    1.6075 N   0  0  0  0  0  0  0  0  0  0  0  0
   -3.5312   -2.8787    2.5419 C   0  0  0  0  0  0  0  0  0  0  0  0
   -4.7563   -3.5478    1.8992 C   0  0  0  0  0  0  0  0  0  0  0  0
   -4.0000   -2.0803    3.7731 C   0  0  0  0  0  0  0  0  0  0  0  0
   -2.5299   -3.9426    3.0188 C   0  0  0  0  0  0  0  0  0  0  0  0
   -2.5434    0.2108   -0.3222 C   0  0  0  0  0  0  0  0  0  0  0  0
   -1.9372    1.4465   -0.0506 C   0  0  0  0  0  0  0  0  0  0  0  0
   -2.6939    2.6220    0.0523 C   0  0  0  0  0  0  0  0  0  0  0  0
   -4.0760    2.5869   -0.1184 C   0  0  0  0  0  0  0  0  0  0  0  0
   -4.9248    3.6548   -0.0287 O   0  0  0  0  0  0  0  0  0  0  0  0
   -4.3229    4.9448   -0.0231 C   0  0  0  0  0  0  0  0  0  0  0  0
   -4.6929    1.3683   -0.4001 C   0  0  0  0  0  0  0  0  0  0  0  0
   -3.9373    0.1986   -0.5215 C   0  0  0  0  0  0  0  0  0  0  0  0
   -0.2439    2.0226    3.0717 H   0  0  0  0  0  0  0  0  0  0  0  0
    1.1997    1.2911    3.8467 H   0  0  0  0  0  0  0  0  0  0  0  0
    1.3846    2.6092    2.6711 H   0  0  0  0  0  0  0  0  0  0  0  0
    0.5530   -0.8567    3.0465 H   0  0  0  0  0  0  0  0  0  0  0  0
   -0.8890   -0.1578    2.2760 H   0  0  0  0  0  0  0  0  0  0  0  0
   -0.0400   -2.3808    1.2605 H   0  0  0  0  0  0  0  0  0  0  0  0
    1.4215   -1.5502    0.8223 H   0  0  0  0  0  0  0  0  0  0  0  0
    2.3509   -1.4085   -1.1491 H   0  0  0  0  0  0  0  0  0  0  0  0
    2.1978    0.1958   -0.3843 H   0  0  0  0  0  0  0  0  0  0  0  0
    2.3216   -0.3415   -3.3956 H   0  0  0  0  0  0  0  0  0  0  0  0
    2.1538    1.2584   -2.6435 H   0  0  0  0  0  0  0  0  0  0  0  0
    4.0167    1.2990   -4.2524 H   0  0  0  0  0  0  0  0  0  0  0  0
    7.0705    0.3580   -1.9529 H   0  0  0  0  0  0  0  0  0  0  0  0
    9.8371    1.4750   -2.3526 H   0  0  0  0  0  0  0  0  0  0  0  0
   10.1240    1.9875   -4.0228 H   0  0  0  0  0  0  0  0  0  0  0  0
   10.0056    0.2601   -3.6358 H   0  0  0  0  0  0  0  0  0  0  0  0
   -1.9275   -1.4107   -1.5035 H   0  0  0  0  0  0  0  0  0  0  0  0
   -3.1168   -0.9543    1.7448 H   0  0  0  0  0  0  0  0  0  0  0  0
   -5.2714   -4.1990    2.6153 H   0  0  0  0  0  0  0  0  0  0  0  0
   -4.4839   -4.1638    1.0355 H   0  0  0  0  0  0  0  0  0  0  0  0
   -5.4743   -2.7961    1.5491 H   0  0  0  0  0  0  0  0  0  0  0  0
   -4.7285   -1.3097    3.4938 H   0  0  0  0  0  0  0  0  0  0  0  0
   -4.4711   -2.7338    4.5168 H   0  0  0  0  0  0  0  0  0  0  0  0
   -3.1583   -1.5695    4.2559 H   0  0  0  0  0  0  0  0  0  0  0  0
   -2.9700   -4.5786    3.7949 H   0  0  0  0  0  0  0  0  0  0  0  0
   -2.2075   -4.6013    2.2074 H   0  0  0  0  0  0  0  0  0  0  0  0
   -1.6313   -3.4751    3.4380 H   0  0  0  0  0  0  0  0  0  0  0  0
   -0.8594    1.5259    0.0696 H   0  0  0  0  0  0  0  0  0  0  0  0
   -2.1652    3.5465    0.2613 H   0  0  0  0  0  0  0  0  0  0  0  0
   -3.7085    5.0983   -0.9179 H   0  0  0  0  0  0  0  0  0  0  0  0
   -5.1260    5.6882   -0.0394 H   0  0  0  0  0  0  0  0  0  0  0  0
   -3.7396    5.1046    0.8909 H   0  0  0  0  0  0  0  0  0  0  0  0
   -5.7714    1.3314   -0.5439 H   0  0  0  0  0  0  0  0  0  0  0  0
   -4.4530   -0.7267   -0.7764 H   0  0  0  0  0  0  0  0  0  0  0  0
  1  2  1  0
  2  3  1  0
  3  4  1  0
  4  5  1  0
  5  6  1  0
  6  7  2  0
  6  8  1  0
  8  9  1  0
  9 10  1  0
 10 11  2  0
 10 12  1  0
 12 13  1  0
 13 14  1  0
 14 15  2  0
 15 16  1  0
 15 17  1  0
 17 18  1  0
  5 19  1  0
 19 20  1  0
 20 21  2  0
 20 22  1  0
 22 23  1  0
 23 24  1  0
 23 25  1  0
 23 26  1  0
 19 27  1  0
 27 28  2  0
 28 29  1  0
 29 30  2  0
 30 31  1  0
 31 32  1  0
 30 33  1  0
 33 34  2  0
 18 13  2  0
 34 27  1  0
  1 35  1  0
  1 36  1  0
  1 37  1  0
  3 38  1  0
  3 39  1  0
  4 40  1  0
  4 41  1  0
  8 42  1  0
  8 43  1  0
  9 44  1  0
  9 45  1  0
 12 46  1  0
 14 47  1  0
 16 48  1  0
 16 49  1  0
 16 50  1  0
 19 51  1  0
 22 52  1  0
 24 53  1  0
 24 54  1  0
 24 55  1  0
 25 56  1  0
 25 57  1  0
 25 58  1  0
 26 59  1  0
 26 60  1  0
 26 61  1  0
 28 62  1  0
 29 63  1  0
 32 64  1  0
 32 65  1  0
 32 66  1  0
 33 67  1  0
 34 68  1  0
M  END
$$$$
