
     RDKit          3D

 72 77  0  0  0  0  0  0  0  0999 V2000
   -4.6451    0.3400   -2.5045 O   0  0  0  0  0  0  0  0  0  0  0  0
   -4.2137    0.0006   -1.3975 C   0  0  0  0  0  0  0  0  0  0  0  0
   -5.1137   -0.7244   -0.3662 C   0  0  0  0  0  0  0  0  0  0  0  0
   -5.7354    0.2205    0.6650 C   0  0  0  0  0  0  0  0  0  0  0  0
   -6.0517    1.5552    0.3629 C   0  0  0  0  0  0  0  0  0  0  0  0
   -6.6233    2.3873    1.3265 C   0  0  0  0  0  0  0  0  0  0  0  0
   -6.8955    1.8968    2.6011 C   0  0  0  0  0  0  0  0  0  0  0  0
   -6.6014    0.5722    2.9134 C   0  0  0  0  0  0  0  0  0  0  0  0
   -6.0293   -0.2621    1.9518 C   0  0  0  0  0  0  0  0  0  0  0  0
   -6.1460   -1.6339   -1.0420 C   0  0  0  0  0  0  0  0  0  0  0  0
   -7.3110   -1.1195   -1.6348 C   0  0  0  0  0  0  0  0  0  0  0  0
   -8.2296   -1.9667   -2.2585 C   0  0  0  0  0  0  0  0  0  0  0  0
   -7.9950   -3.3392   -2.3052 C   0  0  0  0  0  0  0  0  0  0  0  0
   -6.8403   -3.8659   -1.7314 C   0  0  0  0  0  0  0  0  0  0  0  0
   -5.9207   -3.0206   -1.1056 C   0  0  0  0  0  0  0  0  0  0  0  0
   -2.8809    0.2532   -1.0444 N   0  0  0  0  0  0  0  0  0  0  0  0
   -2.0764    0.9828   -2.0256 C   0  0  0  0  0  0  0  0  0  0  0  0
   -0.5681    0.7891   -1.8084 C   0  0  0  0  0  0  0  0  0  0  0  0
   -0.1433    1.1259   -0.4297 N   0  0  0  0  0  0  0  0  0  0  0  0
    1.3169    0.8968   -0.2977 C   0  0  0  0  0  0  0  0  0  0  0  0
    1.9314    1.4330    1.0182 C   0  0  0  0  0  0  0  0  0  0  0  0
    1.6819    0.5166    2.1022 O   0  0  0  0  0  0  0  0  0  0  0  0
    3.4549    1.6221    0.8797 C   0  0  0  0  0  0  0  0  0  0  0  0
    4.1109    0.3317    0.7330 N   0  0  0  0  0  0  0  0  0  0  0  0
    5.4669    0.2223    0.5270 C   0  0  0  0  0  0  0  0  0  0  0  0
    6.1438    1.2647    0.1249 N   0  0  0  0  0  0  0  0  0  0  0  0
    7.5334    1.1677   -0.0930 C   0  0  0  0  0  0  0  0  0  0  0  0
    8.2170    2.3037   -0.5305 C   0  0  0  0  0  0  0  0  0  0  0  0
    9.5952    2.2633   -0.7590 C   0  0  0  0  0  0  0  0  0  0  0  0
   10.3056    1.0798   -0.5506 C   0  0  0  0  0  0  0  0  0  0  0  0
    9.6434   -0.0679   -0.1141 C   0  0  0  0  0  0  0  0  0  0  0  0
    8.2645   -0.0128    0.1092 C   0  0  0  0  0  0  0  0  0  0  0  0
    7.5197   -1.1215    0.5446 N   0  0  0  0  0  0  0  0  0  0  0  0
    7.9328   -2.4008    0.8306 C   0  0  0  0  0  0  0  0  0  0  0  0
    6.8293   -3.1345    1.2103 C   0  0  0  0  0  0  0  0  0  0  0  0
    5.7095   -2.2711    1.1564 C   0  0  0  0  0  0  0  0  0  0  0  0
    6.1616   -1.0294    0.7494 C   0  0  0  0  0  0  0  0  0  0  0  0
   -0.9201    0.3068    0.5248 C   0  0  0  0  0  0  0  0  0  0  0  0
   -2.4466    0.4501    0.3428 C   0  0  0  0  0  0  0  0  0  0  0  0
   -4.4488   -1.4000    0.1880 H   0  0  0  0  0  0  0  0  0  0  0  0
   -5.8660    1.9615   -0.6296 H   0  0  0  0  0  0  0  0  0  0  0  0
   -6.8622    3.4179    1.0786 H   0  0  0  0  0  0  0  0  0  0  0  0
   -7.3468    2.5450    3.3477 H   0  0  0  0  0  0  0  0  0  0  0  0
   -6.8263    0.1857    3.9040 H   0  0  0  0  0  0  0  0  0  0  0  0
   -5.8217   -1.2984    2.2105 H   0  0  0  0  0  0  0  0  0  0  0  0
   -7.5066   -0.0491   -1.6282 H   0  0  0  0  0  0  0  0  0  0  0  0
   -9.1242   -1.5516   -2.7153 H   0  0  0  0  0  0  0  0  0  0  0  0
   -8.7074   -3.9958   -2.7972 H   0  0  0  0  0  0  0  0  0  0  0  0
   -6.6516   -4.9358   -1.7777 H   0  0  0  0  0  0  0  0  0  0  0  0
   -5.0217   -3.4557   -0.6739 H   0  0  0  0  0  0  0  0  0  0  0  0
   -2.3425    2.0446   -1.9457 H   0  0  0  0  0  0  0  0  0  0  0  0
   -2.3344    0.6535   -3.0384 H   0  0  0  0  0  0  0  0  0  0  0  0
   -0.0373    1.4274   -2.5256 H   0  0  0  0  0  0  0  0  0  0  0  0
   -0.3059   -0.2527   -2.0397 H   0  0  0  0  0  0  0  0  0  0  0  0
    1.5368   -0.1736   -0.4067 H   0  0  0  0  0  0  0  0  0  0  0  0
    1.8070    1.4215   -1.1290 H   0  0  0  0  0  0  0  0  0  0  0  0
    1.4753    2.3972    1.2732 H   0  0  0  0  0  0  0  0  0  0  0  0
    1.9520    0.9725    2.9195 H   0  0  0  0  0  0  0  0  0  0  0  0
    3.8363    2.0991    1.7895 H   0  0  0  0  0  0  0  0  0  0  0  0
    3.6779    2.2765    0.0288 H   0  0  0  0  0  0  0  0  0  0  0  0
    3.6832   -0.4010    1.2921 H   0  0  0  0  0  0  0  0  0  0  0  0
    7.6667    3.2264   -0.6957 H   0  0  0  0  0  0  0  0  0  0  0  0
   10.1117    3.1564   -1.1005 H   0  0  0  0  0  0  0  0  0  0  0  0
   11.3778    1.0524   -0.7322 H   0  0  0  0  0  0  0  0  0  0  0  0
   10.2159   -0.9764    0.0382 H   0  0  0  0  0  0  0  0  0  0  0  0
    8.9671   -2.6994    0.7421 H   0  0  0  0  0  0  0  0  0  0  0  0
    6.8328   -4.1796    1.4928 H   0  0  0  0  0  0  0  0  0  0  0  0
    4.6857   -2.5331    1.3878 H   0  0  0  0  0  0  0  0  0  0  0  0
   -0.6965    0.6069    1.5526 H   0  0  0  0  0  0  0  0  0  0  0  0
   -0.6527   -0.7530    0.4191 H   0  0  0  0  0  0  0  0  0  0  0  0
   -2.7652    1.4565    0.6399 H   0  0  0  0  0  0  0  0  0  0  0  0
   -2.9400   -0.2573    1.0113 H   0  0  0  0  0  0  0  0  0  0  0  0
  1  2  2  0
  2  3  1  0
  3  4  1  0
  4  5  2  0
  5  6  1  0
  6  7  2  0
  7  8  1  0
  8  9  2  0
  3 10  1  0
 10 11  2  0
 11 12  1  0
 12 13  2  0
 13 14  1  0
 14 15  2  0
  2 16  1  0
 16 17  1  0
 17 18  1  0
 18 19  1  0
 19 20  1  0
 20 21  1  0
 21 22  1  0
 21 23  1  0
 23 24  1  0
 24 25  1  0
 25 26  2  0
 26 27  1  0
 27 28  2  0
 28 29  1  0
 29 30  2  0
 30 31  1  0
 31 32  2  0
 32 33  1  0
 33 34  1  0
 34 35  2  0
 35 36  1  0
 36 37  2  0
 19 38  1  0
 38 39  1  0
  9  4  1  0
 15 10  1  0
 39 16  1  0
 37 25  1  0
 32 27  1  0
 37 33  1  0
  3 40  1  0
  5 41  1  0
  6 42  1  0
  7 43  1  0
  8 44  1  0
  9 45  1  0
 11 46  1  0
 12 47  1  0
 13 48  1  0
 14 49  1  0
 15 50  1  0
 17 51  1  0
 17 52  1  0
 18 53  1  0
 18 54  1  0
 20 55  1  0
 20 56  1  0
 21 57  1  0
 22 58  1  0
 23 59  1  0
 23 60  1  0
 24 61  1  0
 28 62  1  0
 29 63  1  0
 30 64  1  0
 31 65  1  0
 34 66  1  0
 35 67  1  0
 36 68  1  0
 38 69  1  0
 38 70  1  0
 39 71  1  0
 39 72  1  0
M  END
$$$$
