
     RDKit          3D

 57 59  0  0  0  0  0  0  0  0999 V2000
    7.0326   -3.5543   -3.2054 C   0  0  0  0  0  0  0  0  0  0  0  0
    6.9245   -2.8198   -1.9929 O   0  0  0  0  0  0  0  0  0  0  0  0
    5.8779   -1.9456   -1.8903 C   0  0  0  0  0  0  0  0  0  0  0  0
    5.8067   -1.2602   -0.6760 C   0  0  0  0  0  0  0  0  0  0  0  0
    4.7869   -0.3363   -0.4368 C   0  0  0  0  0  0  0  0  0  0  0  0
    3.8221   -0.0770   -1.4178 C   0  0  0  0  0  0  0  0  0  0  0  0
    2.7076    0.8997   -1.1502 C   0  0  0  0  0  0  0  0  0  0  0  0
    1.6016    0.2487   -0.4988 N   0  0  0  0  0  0  0  0  0  0  0  0
    1.4471    0.2511    0.8666 C   0  0  0  0  0  0  0  0  0  0  0  0
    2.0994    0.9008    1.6722 O   0  0  0  0  0  0  0  0  0  0  0  0
    0.3193   -0.6833    1.3598 C   0  0  0  0  0  0  0  0  0  0  0  0
   -0.4242   -1.2170    0.5495 O   0  0  0  0  0  0  0  0  0  0  0  0
    0.2769   -0.8096    2.7271 N   0  0  0  0  0  0  0  0  0  0  0  0
   -0.8589   -1.3929    3.4290 C   0  0  0  0  0  0  0  0  0  0  0  0
   -1.9202   -0.3478    3.8487 C   0  0  0  0  0  0  0  0  0  0  0  0
   -1.2935    0.6553    4.6814 O   0  0  0  0  0  0  0  0  0  0  0  0
   -1.2825    1.8789    3.9393 C   0  0  0  0  0  0  0  0  0  0  0  0
   -2.4743    1.7840    3.0164 C   0  0  0  0  0  0  0  0  0  0  0  0
   -2.4931    0.3548    2.6821 N   0  0  0  0  0  0  0  0  0  0  0  0
   -3.9521   -0.3023    2.1450 S   0  0  0  0  0  6  0  0  0  0  0  0
   -3.7569   -1.7172    1.9166 O   0  0  0  0  0  0  0  0  0  0  0  0
   -4.9960    0.1610    3.0355 O   0  0  0  0  0  0  0  0  0  0  0  0
   -4.1671    0.4867    0.5713 C   0  0  0  0  0  0  0  0  0  0  0  0
   -3.4602    0.0084   -0.5342 C   0  0  0  0  0  0  0  0  0  0  0  0
   -3.6293    0.6151   -1.7827 C   0  0  0  0  0  0  0  0  0  0  0  0
   -4.5093    1.6902   -1.9267 C   0  0  0  0  0  0  0  0  0  0  0  0
   -4.7635    2.3706   -3.0856 O   0  0  0  0  0  0  0  0  0  0  0  0
   -4.1165    1.9015   -4.2619 C   0  0  0  0  0  0  0  0  0  0  0  0
   -5.2210    2.1515   -0.8134 C   0  0  0  0  0  0  0  0  0  0  0  0
   -5.0598    1.5508    0.4366 C   0  0  0  0  0  0  0  0  0  0  0  0
    3.8904   -0.7738   -2.6315 C   0  0  0  0  0  0  0  0  0  0  0  0
    4.9139   -1.6995   -2.8679 C   0  0  0  0  0  0  0  0  0  0  0  0
    6.1576   -4.1944   -3.3587 H   0  0  0  0  0  0  0  0  0  0  0  0
    7.1892   -2.8865   -4.0589 H   0  0  0  0  0  0  0  0  0  0  0  0
    7.9099   -4.2035   -3.1259 H   0  0  0  0  0  0  0  0  0  0  0  0
    6.5507   -1.4504    0.0939 H   0  0  0  0  0  0  0  0  0  0  0  0
    4.7474    0.1769    0.5225 H   0  0  0  0  0  0  0  0  0  0  0  0
    3.0713    1.7356   -0.5417 H   0  0  0  0  0  0  0  0  0  0  0  0
    2.3351    1.3201   -2.0908 H   0  0  0  0  0  0  0  0  0  0  0  0
    1.0489   -0.4336   -1.0090 H   0  0  0  0  0  0  0  0  0  0  0  0
    0.9073   -0.2072    3.2504 H   0  0  0  0  0  0  0  0  0  0  0  0
   -0.4420   -1.8615    4.3268 H   0  0  0  0  0  0  0  0  0  0  0  0
   -1.3032   -2.1715    2.8020 H   0  0  0  0  0  0  0  0  0  0  0  0
   -2.6922   -0.8259    4.4615 H   0  0  0  0  0  0  0  0  0  0  0  0
   -0.3425    1.9386    3.3805 H   0  0  0  0  0  0  0  0  0  0  0  0
   -1.3395    2.7317    4.6210 H   0  0  0  0  0  0  0  0  0  0  0  0
   -2.3539    2.4153    2.1331 H   0  0  0  0  0  0  0  0  0  0  0  0
   -3.3807    2.0750    3.5569 H   0  0  0  0  0  0  0  0  0  0  0  0
   -2.7787   -0.8343   -0.4302 H   0  0  0  0  0  0  0  0  0  0  0  0
   -3.0621    0.2211   -2.6195 H   0  0  0  0  0  0  0  0  0  0  0  0
   -4.4425    2.5303   -5.0960 H   0  0  0  0  0  0  0  0  0  0  0  0
   -4.4069    0.8703   -4.4888 H   0  0  0  0  0  0  0  0  0  0  0  0
   -3.0289    1.9974   -4.1782 H   0  0  0  0  0  0  0  0  0  0  0  0
   -5.9138    2.9826   -0.9265 H   0  0  0  0  0  0  0  0  0  0  0  0
   -5.6321    1.9147    1.2864 H   0  0  0  0  0  0  0  0  0  0  0  0
    3.1458   -0.6021   -3.4058 H   0  0  0  0  0  0  0  0  0  0  0  0
    4.9269   -2.2115   -3.8241 H   0  0  0  0  0  0  0  0  0  0  0  0
  1  2  1  0
  2  3  1  0
  3  4  2  0
  4  5  1  0
  5  6  2  0
  6  7  1  0
  7  8  1  0
  8  9  1  0
  9 10  2  0
  9 11  1  0
 11 12  2  0
 11 13  1  0
 13 14  1  0
 14 15  1  0
 15 16  1  0
 16 17  1  0
 17 18  1  0
 18 19  1  0
 19 20  1  0
 20 21  2  0
 20 22  2  0
 20 23  1  0
 23 24  2  0
 24 25  1  0
 25 26  2  0
 26 27  1  0
 27 28  1  0
 26 29  1  0
 29 30  2  0
  6 31  1  0
 31 32  2  0
 32  3  1  0
 19 15  1  0
 30 23  1  0
  1 33  1  0
  1 34  1  0
  1 35  1  0
  4 36  1  0
  5 37  1  0
  7 38  1  0
  7 39  1  0
  8 40  1  0
 13 41  1  0
 14 42  1  0
 14 43  1  0
 15 44  1  0
 17 45  1  0
 17 46  1  0
 18 47  1  0
 18 48  1  0
 24 49  1  0
 25 50  1  0
 28 51  1  0
 28 52  1  0
 28 53  1  0
 29 54  1  0
 30 55  1  0
 31 56  1  0
 32 57  1  0
M  END
$$$$
