
     RDKit          3D

 45 48  0  0  0  0  0  0  0  0999 V2000
    1.0546    1.2137   -3.1165 C   0  0  0  0  0  0  0  0  0  0  0  0
    1.9693    0.5484   -2.1011 C   0  0  0  0  0  0  0  0  0  0  0  0
    1.4355   -0.7506   -1.8131 O   0  0  0  0  0  0  0  0  0  0  0  0
    2.2383   -1.4194   -0.9213 C   0  0  0  0  0  0  0  0  0  0  0  0
    3.2066   -2.2659   -1.4780 C   0  0  0  0  0  0  0  0  0  0  0  0
    4.0604   -2.9928   -0.6533 C   0  0  0  0  0  0  0  0  0  0  0  0
    3.9369   -2.8858    0.7277 C   0  0  0  0  0  0  0  0  0  0  0  0
    2.9530   -2.0586    1.2807 C   0  0  0  0  0  0  0  0  0  0  0  0
    2.0677   -1.3093    0.4736 C   0  0  0  0  0  0  0  0  0  0  0  0
    1.0354   -0.4666    1.1058 C   0  0  0  0  0  0  0  0  0  0  0  0
    1.3376    0.0744    2.3107 N   0  0  0  0  0  0  0  0  0  0  0  0
    0.3846    0.8569    2.8778 C   0  0  0  0  0  0  0  0  0  0  0  0
    0.7100    1.4676    4.1981 C   0  0  0  0  0  0  0  0  0  0  0  0
    1.9433    1.1587    4.7062 N   0  0  0  0  0  0  0  0  0  0  0  0
   -0.0712    2.1981    4.7951 O   0  0  0  0  0  0  0  0  0  0  0  0
   -0.8167    1.0835    2.2761 C   0  0  0  0  0  0  0  0  0  0  0  0
   -1.9211    1.8368    2.6374 N   0  0  0  0  0  0  0  0  0  0  0  0
   -2.8892    1.7233    1.6297 C   0  0  0  0  0  0  0  0  0  0  0  0
   -3.9682    2.2898    1.6807 O   0  0  0  0  0  0  0  0  0  0  0  0
   -2.3400    0.8588    0.6313 N   0  0  0  0  0  0  0  0  0  0  0  0
   -2.9570    0.4500   -0.5845 C   0  0  0  0  0  0  0  0  0  0  0  0
   -2.3633   -0.4592   -1.4787 C   0  0  0  0  0  0  0  0  0  0  0  0
   -2.9915   -0.8357   -2.6742 C   0  0  0  0  0  0  0  0  0  0  0  0
   -4.2342   -0.3155   -2.9925 C   0  0  0  0  0  0  0  0  0  0  0  0
   -4.8347   -0.6702   -4.1381 F   0  0  0  0  0  0  0  0  0  0  0  0
   -4.8550    0.5785   -2.1384 C   0  0  0  0  0  0  0  0  0  0  0  0
   -4.2204    0.9558   -0.9474 C   0  0  0  0  0  0  0  0  0  0  0  0
   -1.0414    0.4807    1.0631 C   0  0  0  0  0  0  0  0  0  0  0  0
   -0.1370   -0.2955    0.4604 N   0  0  0  0  0  0  0  0  0  0  0  0
    0.0325    1.2831   -2.7325 H   0  0  0  0  0  0  0  0  0  0  0  0
    1.4092    2.2191   -3.3583 H   0  0  0  0  0  0  0  0  0  0  0  0
    1.0115    0.6206   -4.0373 H   0  0  0  0  0  0  0  0  0  0  0  0
    2.9794    0.4623   -2.5226 H   0  0  0  0  0  0  0  0  0  0  0  0
    2.0127    1.1584   -1.1911 H   0  0  0  0  0  0  0  0  0  0  0  0
    3.2927   -2.3529   -2.5583 H   0  0  0  0  0  0  0  0  0  0  0  0
    4.8164   -3.6423   -1.0878 H   0  0  0  0  0  0  0  0  0  0  0  0
    4.6001   -3.4525    1.3792 H   0  0  0  0  0  0  0  0  0  0  0  0
    2.8702   -2.0126    2.3661 H   0  0  0  0  0  0  0  0  0  0  0  0
    2.5697    0.5455    4.1983 H   0  0  0  0  0  0  0  0  0  0  0  0
    2.2195    1.5325    5.6037 H   0  0  0  0  0  0  0  0  0  0  0  0
   -2.0153    2.3891    3.4824 H   0  0  0  0  0  0  0  0  0  0  0  0
   -1.3983   -0.9156   -1.2896 H   0  0  0  0  0  0  0  0  0  0  0  0
   -2.5112   -1.5368   -3.3500 H   0  0  0  0  0  0  0  0  0  0  0  0
   -5.8272    0.9872   -2.3970 H   0  0  0  0  0  0  0  0  0  0  0  0
   -4.7542    1.6655   -0.3221 H   0  0  0  0  0  0  0  0  0  0  0  0
  1  2  1  0
  2  3  1  0
  3  4  1  0
  4  5  2  0
  5  6  1  0
  6  7  2  0
  7  8  1  0
  8  9  2  0
  9 10  1  0
 10 11  2  0
 11 12  1  0
 12 13  1  0
 13 14  1  0
 13 15  2  0
 12 16  2  0
 16 17  1  0
 17 18  1  0
 18 19  2  0
 18 20  1  0
 20 21  1  0
 21 22  2  0
 22 23  1  0
 23 24  2  0
 24 25  1  0
 24 26  1  0
 26 27  2  0
 20 28  1  0
 28 29  2  0
  9  4  1  0
 29 10  1  0
 28 16  1  0
 27 21  1  0
  1 30  1  0
  1 31  1  0
  1 32  1  0
  2 33  1  0
  2 34  1  0
  5 35  1  0
  6 36  1  0
  7 37  1  0
  8 38  1  0
 14 39  1  0
 14 40  1  0
 17 41  1  0
 22 42  1  0
 23 43  1  0
 26 44  1  0
 27 45  1  0
M  END
$$$$
