
     RDKit          3D

 57 60  0  0  0  0  0  0  0  0999 V2000
    8.5130    1.3338    0.0839 C   0  0  0  0  0  0  0  0  0  0  0  0
    7.6456    0.8898   -1.0823 C   0  0  0  0  0  0  0  0  0  0  0  0
    6.3785    1.5445   -1.0609 O   0  0  0  0  0  0  0  0  0  0  0  0
    5.3844    1.0350   -0.2739 C   0  0  0  0  0  0  0  0  0  0  0  0
    5.4481   -0.1215    0.4998 C   0  0  0  0  0  0  0  0  0  0  0  0
    4.3501   -0.5188    1.2770 C   0  0  0  0  0  0  0  0  0  0  0  0
    3.1772    0.2353    1.2887 C   0  0  0  0  0  0  0  0  0  0  0  0
    2.0435   -0.0807    2.0604 N   0  0  0  0  0  0  0  0  0  0  0  0
    1.8166   -1.2188    2.8141 C   0  0  0  0  0  0  0  0  0  0  0  0
    2.5608   -2.1939    2.8957 O   0  0  0  0  0  0  0  0  0  0  0  0
    0.5081   -1.1754    3.5907 C   0  0  0  0  0  0  0  0  0  0  0  0
   -0.8715   -1.7941    2.5846 S   0  0  0  0  0  0  0  0  0  0  0  0
   -1.1846   -0.4327    1.5544 C   0  0  0  0  0  0  0  0  0  0  0  0
   -0.5932    0.7329    1.6867 N   0  0  0  0  0  0  0  0  0  0  0  0
   -0.9211    1.4960    0.6077 N   0  0  0  0  0  0  0  0  0  0  0  0
   -1.7500    0.8046   -0.1554 C   0  0  0  0  0  0  0  0  0  0  0  0
   -2.4824    1.3742   -1.3319 C   0  0  0  0  0  0  0  0  0  0  0  0
   -3.9665    1.4675   -1.1159 C   0  0  0  0  0  0  0  0  0  0  0  0
   -4.6652    1.8451    0.0211 C   0  0  0  0  0  0  0  0  0  0  0  0
   -6.0452    1.7615   -0.2647 C   0  0  0  0  0  0  0  0  0  0  0  0
   -6.1640    1.3594   -1.5733 C   0  0  0  0  0  0  0  0  0  0  0  0
   -4.9043    1.2085   -2.0926 N   0  0  0  0  0  0  0  0  0  0  0  0
   -4.6390    0.8481   -3.4701 C   0  0  0  0  0  0  0  0  0  0  0  0
   -1.9384   -0.4619    0.3932 N   0  0  0  0  0  0  0  0  0  0  0  0
   -2.7230   -1.5251   -0.1247 C   0  0  0  0  0  0  0  0  0  0  0  0
   -3.5923   -2.2327    0.7191 C   0  0  0  0  0  0  0  0  0  0  0  0
   -4.3708   -3.2707    0.2024 C   0  0  0  0  0  0  0  0  0  0  0  0
   -4.2726   -3.6002   -1.1440 C   0  0  0  0  0  0  0  0  0  0  0  0
   -5.0182   -4.5975   -1.6373 F   0  0  0  0  0  0  0  0  0  0  0  0
   -3.4080   -2.9122   -1.9874 C   0  0  0  0  0  0  0  0  0  0  0  0
   -2.6288   -1.8698   -1.4804 C   0  0  0  0  0  0  0  0  0  0  0  0
    3.1125    1.3916    0.5063 C   0  0  0  0  0  0  0  0  0  0  0  0
    4.2071    1.7844   -0.2693 C   0  0  0  0  0  0  0  0  0  0  0  0
    8.0654    1.0614    1.0445 H   0  0  0  0  0  0  0  0  0  0  0  0
    8.6298    2.4239    0.0858 H   0  0  0  0  0  0  0  0  0  0  0  0
    9.5054    0.8749    0.0217 H   0  0  0  0  0  0  0  0  0  0  0  0
    8.1374    1.2022   -2.0112 H   0  0  0  0  0  0  0  0  0  0  0  0
    7.5529   -0.1994   -1.1457 H   0  0  0  0  0  0  0  0  0  0  0  0
    6.3373   -0.7409    0.5389 H   0  0  0  0  0  0  0  0  0  0  0  0
    4.4529   -1.4197    1.8736 H   0  0  0  0  0  0  0  0  0  0  0  0
    1.2583    0.5663    1.9731 H   0  0  0  0  0  0  0  0  0  0  0  0
    0.3129   -0.1677    3.9720 H   0  0  0  0  0  0  0  0  0  0  0  0
    0.6158   -1.8269    4.4648 H   0  0  0  0  0  0  0  0  0  0  0  0
   -2.1113    2.3921   -1.5100 H   0  0  0  0  0  0  0  0  0  0  0  0
   -2.2307    0.8107   -2.2338 H   0  0  0  0  0  0  0  0  0  0  0  0
   -4.2218    2.1432    0.9643 H   0  0  0  0  0  0  0  0  0  0  0  0
   -6.8648    1.9773    0.4081 H   0  0  0  0  0  0  0  0  0  0  0  0
   -7.0474    1.1846   -2.1761 H   0  0  0  0  0  0  0  0  0  0  0  0
   -4.0705    1.6590   -3.9308 H   0  0  0  0  0  0  0  0  0  0  0  0
   -4.0728   -0.0834   -3.4868 H   0  0  0  0  0  0  0  0  0  0  0  0
   -5.5829    0.7118   -4.0026 H   0  0  0  0  0  0  0  0  0  0  0  0
   -3.7117   -1.9695    1.7682 H   0  0  0  0  0  0  0  0  0  0  0  0
   -5.0557   -3.8205    0.8404 H   0  0  0  0  0  0  0  0  0  0  0  0
   -3.3376   -3.2026   -3.0309 H   0  0  0  0  0  0  0  0  0  0  0  0
   -1.9248   -1.3801   -2.1469 H   0  0  0  0  0  0  0  0  0  0  0  0
    2.2128    2.0036    0.4898 H   0  0  0  0  0  0  0  0  0  0  0  0
    4.1447    2.6935   -0.8639 H   0  0  0  0  0  0  0  0  0  0  0  0
  1  2  1  0
  2  3  1  0
  3  4  1  0
  4  5  2  0
  5  6  1  0
  6  7  2  0
  7  8  1  0
  8  9  1  0
  9 10  2  0
  9 11  1  0
 11 12  1  0
 12 13  1  0
 13 14  2  0
 14 15  1  0
 15 16  2  0
 16 17  1  0
 17 18  1  0
 18 19  2  0
 19 20  1  0
 20 21  2  0
 21 22  1  0
 22 23  1  0
 16 24  1  0
 24 25  1  0
 25 26  2  0
 26 27  1  0
 27 28  2  0
 28 29  1  0
 28 30  1  0
 30 31  2  0
  7 32  1  0
 32 33  2  0
 33  4  1  0
 24 13  1  0
 31 25  1  0
 22 18  1  0
  1 34  1  0
  1 35  1  0
  1 36  1  0
  2 37  1  0
  2 38  1  0
  5 39  1  0
  6 40  1  0
  8 41  1  0
 11 42  1  0
 11 43  1  0
 17 44  1  0
 17 45  1  0
 19 46  1  0
 20 47  1  0
 21 48  1  0
 23 49  1  0
 23 50  1  0
 23 51  1  0
 26 52  1  0
 27 53  1  0
 30 54  1  0
 31 55  1  0
 32 56  1  0
 33 57  1  0
M  END
$$$$
