
     RDKit          3D

 51 54  0  0  0  0  0  0  0  0999 V2000
   -3.4907   -4.3322    2.2284 C   0  0  0  0  0  0  0  0  0  0  0  0
   -2.0847   -4.1295    2.2751 O   0  0  0  0  0  0  0  0  0  0  0  0
   -1.5943   -2.9900    1.6999 C   0  0  0  0  0  0  0  0  0  0  0  0
   -2.3441   -2.0617    0.9839 C   0  0  0  0  0  0  0  0  0  0  0  0
   -1.7274   -0.9195    0.4376 C   0  0  0  0  0  0  0  0  0  0  0  0
   -2.5432    0.0307   -0.3345 C   0  0  0  0  0  0  0  0  0  0  0  0
   -3.7481   -0.1829   -0.4629 O   0  0  0  0  0  0  0  0  0  0  0  0
   -1.8871    1.1205   -0.8839 N   0  0  0  0  0  0  0  0  0  0  0  0
   -2.6852    2.0603   -1.6573 C   0  0  0  0  0  0  0  0  0  0  0  0
   -3.3114    3.0570   -0.7430 C   0  0  0  0  0  0  0  0  0  0  0  0
   -4.4784    3.0612   -0.0055 C   0  0  0  0  0  0  0  0  0  0  0  0
   -4.5237    4.3069    0.6645 C   0  0  0  0  0  0  0  0  0  0  0  0
   -3.3846    4.9823    0.2944 C   0  0  0  0  0  0  0  0  0  0  0  0
   -2.6428    4.2324   -0.5596 O   0  0  0  0  0  0  0  0  0  0  0  0
   -0.5318    1.3782   -0.7538 C   0  0  0  0  0  0  0  0  0  0  0  0
    0.0153    2.3283   -1.3197 O   0  0  0  0  0  0  0  0  0  0  0  0
    0.2027    0.5051    0.0447 N   0  0  0  0  0  0  0  0  0  0  0  0
    1.6348    0.7898    0.1743 C   0  0  0  0  0  0  0  0  0  0  0  0
    2.4394    0.1014   -0.9286 C   0  0  0  0  0  0  0  0  0  0  0  0
    2.0341   -0.8997   -1.5208 O   0  0  0  0  0  0  0  0  0  0  0  0
    3.7917    0.6374   -1.2685 C   0  0  0  0  0  0  0  0  0  0  0  0
    4.3957    0.2040   -2.4586 C   0  0  0  0  0  0  0  0  0  0  0  0
    5.6633    0.6652   -2.8202 C   0  0  0  0  0  0  0  0  0  0  0  0
    6.3397    1.5600   -1.9930 C   0  0  0  0  0  0  0  0  0  0  0  0
    5.7443    1.9865   -0.8072 C   0  0  0  0  0  0  0  0  0  0  0  0
    6.6690    3.1935    0.3193 Br  0  0  0  0  0  0  0  0  0  0  0  0
    4.4760    1.5319   -0.4367 C   0  0  0  0  0  0  0  0  0  0  0  0
   -0.3661   -0.6709    0.6054 C   0  0  0  0  0  0  0  0  0  0  0  0
    0.3849   -1.6126    1.3192 C   0  0  0  0  0  0  0  0  0  0  0  0
   -0.2212   -2.7624    1.8384 C   0  0  0  0  0  0  0  0  0  0  0  0
    0.5683   -3.6328    2.5491 O   0  0  0  0  0  0  0  0  0  0  0  0
    1.0406   -4.6756    1.6938 C   0  0  0  0  0  0  0  0  0  0  0  0
   -3.8353   -4.4639    1.1978 H   0  0  0  0  0  0  0  0  0  0  0  0
   -4.0263   -3.5156    2.7235 H   0  0  0  0  0  0  0  0  0  0  0  0
   -3.7124   -5.2545    2.7731 H   0  0  0  0  0  0  0  0  0  0  0  0
   -3.4098   -2.1996    0.8270 H   0  0  0  0  0  0  0  0  0  0  0  0
   -3.4681    1.5202   -2.2028 H   0  0  0  0  0  0  0  0  0  0  0  0
   -2.0709    2.5701   -2.4080 H   0  0  0  0  0  0  0  0  0  0  0  0
   -5.2007    2.2564    0.0404 H   0  0  0  0  0  0  0  0  0  0  0  0
   -5.2905    4.6686    1.3346 H   0  0  0  0  0  0  0  0  0  0  0  0
   -2.9762    5.9536    0.5369 H   0  0  0  0  0  0  0  0  0  0  0  0
    1.7816    1.8728    0.1005 H   0  0  0  0  0  0  0  0  0  0  0  0
    2.0063    0.4910    1.1585 H   0  0  0  0  0  0  0  0  0  0  0  0
    3.8773   -0.4956   -3.1139 H   0  0  0  0  0  0  0  0  0  0  0  0
    6.1206    0.3259   -3.7467 H   0  0  0  0  0  0  0  0  0  0  0  0
    7.3267    1.9154   -2.2795 H   0  0  0  0  0  0  0  0  0  0  0  0
    4.0502    1.8775    0.4999 H   0  0  0  0  0  0  0  0  0  0  0  0
    1.4516   -1.5068    1.4775 H   0  0  0  0  0  0  0  0  0  0  0  0
    1.8384   -4.2956    1.0482 H   0  0  0  0  0  0  0  0  0  0  0  0
    1.4581   -5.4652    2.3283 H   0  0  0  0  0  0  0  0  0  0  0  0
    0.2446   -5.1177    1.0832 H   0  0  0  0  0  0  0  0  0  0  0  0
  1  2  1  0
  2  3  1  0
  3  4  2  0
  4  5  1  0
  5  6  1  0
  6  7  2  0
  6  8  1  0
  8  9  1  0
  9 10  1  0
 10 11  2  0
 11 12  1  0
 12 13  2  0
 13 14  1  0
  8 15  1  0
 15 16  2  0
 15 17  1  0
 17 18  1  0
 18 19  1  0
 19 20  2  0
 19 21  1  0
 21 22  2  0
 22 23  1  0
 23 24  2  0
 24 25  1  0
 25 26  1  0
 25 27  2  0
 17 28  1  0
 28 29  1  0
 29 30  2  0
 30 31  1  0
 31 32  1  0
 30  3  1  0
 28  5  2  0
 14 10  1  0
 27 21  1  0
  1 33  1  0
  1 34  1  0
  1 35  1  0
  4 36  1  0
  9 37  1  0
  9 38  1  0
 11 39  1  0
 12 40  1  0
 13 41  1  0
 18 42  1  0
 18 43  1  0
 22 44  1  0
 23 45  1  0
 24 46  1  0
 27 47  1  0
 29 48  1  0
 32 49  1  0
 32 50  1  0
 32 51  1  0
M  END
$$$$
