
     RDKit          3D

 46 49  0  0  0  0  0  0  0  0999 V2000
   -6.8074    0.8484   -0.0575 C   0  0  0  0  0  0  0  0  0  0  0  0
   -6.1079   -0.2755   -0.8016 C   0  0  0  0  0  0  0  0  0  0  0  0
   -4.9054   -0.6481   -0.1345 O   0  0  0  0  0  0  0  0  0  0  0  0
   -3.7228   -0.0577   -0.4952 C   0  0  0  0  0  0  0  0  0  0  0  0
   -3.6060    1.0549   -1.3265 C   0  0  0  0  0  0  0  0  0  0  0  0
   -2.3496    1.5821   -1.6177 C   0  0  0  0  0  0  0  0  0  0  0  0
   -1.2003    1.0017   -1.0772 C   0  0  0  0  0  0  0  0  0  0  0  0
   -1.2652   -0.1201   -0.2255 C   0  0  0  0  0  0  0  0  0  0  0  0
   -0.0226   -0.7044    0.3252 C   0  0  0  0  0  0  0  0  0  0  0  0
   -0.1092   -1.9266    0.9112 N   0  0  0  0  0  0  0  0  0  0  0  0
    1.0493   -2.4491    1.3940 C   0  0  0  0  0  0  0  0  0  0  0  0
    0.9877   -3.8111    1.9946 C   0  0  0  0  0  0  0  0  0  0  0  0
   -0.2156   -4.4591    1.9092 N   0  0  0  0  0  0  0  0  0  0  0  0
    1.9613   -4.3335    2.5235 O   0  0  0  0  0  0  0  0  0  0  0  0
    2.2308   -1.7728    1.3223 C   0  0  0  0  0  0  0  0  0  0  0  0
    3.5199   -2.0870    1.7213 N   0  0  0  0  0  0  0  0  0  0  0  0
    4.3672   -1.0250    1.3777 C   0  0  0  0  0  0  0  0  0  0  0  0
    5.5641   -1.0212    1.6126 O   0  0  0  0  0  0  0  0  0  0  0  0
    3.5453   -0.0359    0.7546 N   0  0  0  0  0  0  0  0  0  0  0  0
    3.9628    1.2170    0.2286 C   0  0  0  0  0  0  0  0  0  0  0  0
    5.3311    1.5056    0.0797 C   0  0  0  0  0  0  0  0  0  0  0  0
    5.7776    2.7275   -0.4408 C   0  0  0  0  0  0  0  0  0  0  0  0
    4.8610    3.6979   -0.8243 C   0  0  0  0  0  0  0  0  0  0  0  0
    3.5046    3.4394   -0.6780 C   0  0  0  0  0  0  0  0  0  0  0  0
    2.3555    4.6369   -1.1399 Cl  0  0  0  0  0  0  0  0  0  0  0  0
    3.0590    2.2197   -0.1561 C   0  0  0  0  0  0  0  0  0  0  0  0
    2.2173   -0.5340    0.7299 C   0  0  0  0  0  0  0  0  0  0  0  0
    1.1145    0.0163    0.2120 N   0  0  0  0  0  0  0  0  0  0  0  0
   -2.5553   -0.6290    0.0528 C   0  0  0  0  0  0  0  0  0  0  0  0
   -2.7357   -1.7137    0.8863 O   0  0  0  0  0  0  0  0  0  0  0  0
   -7.7631    1.0897   -0.5314 H   0  0  0  0  0  0  0  0  0  0  0  0
   -6.1936    1.7536   -0.0296 H   0  0  0  0  0  0  0  0  0  0  0  0
   -6.9936    0.5608    0.9826 H   0  0  0  0  0  0  0  0  0  0  0  0
   -6.7582   -1.1577   -0.7836 H   0  0  0  0  0  0  0  0  0  0  0  0
   -5.9505   -0.0425   -1.8604 H   0  0  0  0  0  0  0  0  0  0  0  0
   -4.4724    1.5461   -1.7553 H   0  0  0  0  0  0  0  0  0  0  0  0
   -2.2626    2.4515   -2.2658 H   0  0  0  0  0  0  0  0  0  0  0  0
   -0.2375    1.4425   -1.3344 H   0  0  0  0  0  0  0  0  0  0  0  0
   -0.2753   -5.4116    2.2451 H   0  0  0  0  0  0  0  0  0  0  0  0
   -0.9857   -4.0882    1.3666 H   0  0  0  0  0  0  0  0  0  0  0  0
    3.8078   -2.9414    2.1851 H   0  0  0  0  0  0  0  0  0  0  0  0
    6.0974    0.7827    0.3476 H   0  0  0  0  0  0  0  0  0  0  0  0
    6.8444    2.9116   -0.5453 H   0  0  0  0  0  0  0  0  0  0  0  0
    5.2072    4.6450   -1.2281 H   0  0  0  0  0  0  0  0  0  0  0  0
    1.9894    2.0992   -0.0379 H   0  0  0  0  0  0  0  0  0  0  0  0
   -1.8602   -1.9848    1.2166 H   0  0  0  0  0  0  0  0  0  0  0  0
  1  2  1  0
  2  3  1  0
  3  4  1  0
  4  5  2  0
  5  6  1  0
  6  7  2  0
  7  8  1  0
  8  9  1  0
  9 10  2  0
 10 11  1  0
 11 12  1  0
 12 13  1  0
 12 14  2  0
 11 15  2  0
 15 16  1  0
 16 17  1  0
 17 18  2  0
 17 19  1  0
 19 20  1  0
 20 21  2  0
 21 22  1  0
 22 23  2  0
 23 24  1  0
 24 25  1  0
 24 26  2  0
 19 27  1  0
 27 28  2  0
  8 29  2  0
 29 30  1  0
 29  4  1  0
 28  9  1  0
 27 15  1  0
 26 20  1  0
  1 31  1  0
  1 32  1  0
  1 33  1  0
  2 34  1  0
  2 35  1  0
  5 36  1  0
  6 37  1  0
  7 38  1  0
 13 39  1  0
 13 40  1  0
 16 41  1  0
 21 42  1  0
 22 43  1  0
 23 44  1  0
 26 45  1  0
 30 46  1  0
M  END
$$$$
