
     RDKit          3D

 36 36  0  0  0  0  0  0  0  0999 V2000
    1.0430   -1.4553    3.9095 C   0  0  0  0  0  0  0  0  0  0  0  0
    0.8277   -2.0557    2.5341 C   0  0  0  0  0  0  0  0  0  0  0  0
    0.8150   -0.9947    1.5814 O   0  0  0  0  0  0  0  0  0  0  0  0
    0.6819   -1.4477    0.2310 C   0  0  0  0  0  0  0  0  0  0  0  0
   -0.7625   -1.8378   -0.0751 C   0  0  0  0  0  0  0  0  0  0  0  0
   -1.0676   -1.8971   -1.5665 C   0  0  0  0  0  0  0  0  0  0  0  0
   -1.0634   -0.5801   -2.1763 N   0  0  0  0  0  0  0  0  0  0  0  0
   -0.0293   -0.1457   -2.9683 C   0  0  0  0  0  0  0  0  0  0  0  0
    0.9465   -0.8279   -3.2593 O   0  0  0  0  0  0  0  0  0  0  0  0
   -0.1725    1.2333   -3.4987 C   0  0  0  0  0  0  0  0  0  0  0  0
   -0.2435    1.3560   -4.9144 C   0  0  0  0  0  0  0  0  0  0  0  0
   -0.3267    1.5113   -6.0617 N   0  0  0  0  0  0  0  0  0  0  0  0
   -0.1179    2.3396   -2.7354 C   0  0  0  0  0  0  0  0  0  0  0  0
    0.0298    2.3263   -1.3244 C   0  0  0  0  0  0  0  0  0  0  0  0
    1.0631    2.8553   -0.5550 C   0  0  0  0  0  0  0  0  0  0  0  0
    0.7505    2.6424    0.8112 C   0  0  0  0  0  0  0  0  0  0  0  0
   -0.4672    2.0142    0.8031 C   0  0  0  0  0  0  0  0  0  0  0  0
   -1.3237    1.5823    1.8621 N   0  0  0  0  0  4  0  0  0  0  0  0
   -2.3957    1.0448    1.5505 O   0  0  0  0  0  0  0  0  0  0  0  0
   -0.9389    1.8178    3.0155 O   0  0  0  0  0  1  0  0  0  0  0  0
   -0.9153    1.8089   -0.4646 O   0  0  0  0  0  0  0  0  0  0  0  0
    1.9820   -0.8931    3.9427 H   0  0  0  0  0  0  0  0  0  0  0  0
    0.2409   -0.7507    4.1522 H   0  0  0  0  0  0  0  0  0  0  0  0
    1.0705   -2.2352    4.6757 H   0  0  0  0  0  0  0  0  0  0  0  0
   -0.1255   -2.5929    2.5147 H   0  0  0  0  0  0  0  0  0  0  0  0
    1.6402   -2.7527    2.3024 H   0  0  0  0  0  0  0  0  0  0  0  0
    1.3732   -2.2744    0.0305 H   0  0  0  0  0  0  0  0  0  0  0  0
    0.9970   -0.6083   -0.3933 H   0  0  0  0  0  0  0  0  0  0  0  0
   -0.9650   -2.8217    0.3645 H   0  0  0  0  0  0  0  0  0  0  0  0
   -1.4500   -1.1433    0.4176 H   0  0  0  0  0  0  0  0  0  0  0  0
   -2.0752   -2.3000   -1.7145 H   0  0  0  0  0  0  0  0  0  0  0  0
   -0.3632   -2.5598   -2.0801 H   0  0  0  0  0  0  0  0  0  0  0  0
   -1.7997    0.0660   -1.9114 H   0  0  0  0  0  0  0  0  0  0  0  0
   -0.1378    3.3197   -3.2084 H   0  0  0  0  0  0  0  0  0  0  0  0
    1.9505    3.3382   -0.9451 H   0  0  0  0  0  0  0  0  0  0  0  0
    1.3287    2.9184    1.6826 H   0  0  0  0  0  0  0  0  0  0  0  0
  1  2  1  0
  2  3  1  0
  3  4  1  0
  4  5  1  0
  5  6  1  0
  6  7  1  0
  7  8  1  0
  8  9  2  0
  8 10  1  0
 10 11  1  0
 11 12  3  0
 10 13  2  3
 13 14  1  0
 14 15  2  0
 15 16  1  0
 16 17  2  0
 17 18  1  0
 18 19  2  0
 18 20  1  0
 17 21  1  0
 21 14  1  0
  1 22  1  0
  1 23  1  0
  1 24  1  0
  2 25  1  0
  2 26  1  0
  4 27  1  0
  4 28  1  0
  5 29  1  0
  5 30  1  0
  6 31  1  0
  6 32  1  0
  7 33  1  0
 13 34  1  0
 15 35  1  0
 16 36  1  0
M  CHG  2  18   1  20  -1
M  END
$$$$
