
     RDKit          3D

 65 69  0  0  0  0  0  0  0  0999 V2000
    5.7880   -1.8357    1.6605 O   0  0  0  0  0  0  0  0  0  0  0  0
    6.3517   -1.1162    0.8280 C   0  0  0  0  0  0  0  0  0  0  0  0
    7.8362   -1.3630    0.4063 C   0  0  0  0  0  0  0  0  0  0  0  0
    8.0744   -2.2422   -0.8519 C   0  0  0  0  0  0  0  0  0  0  0  0
    8.2799   -3.4430    0.0873 C   0  0  0  0  0  0  0  0  0  0  0  0
    8.6424   -2.4360    1.1925 C   0  0  0  0  0  0  0  0  0  0  0  0
    5.7207   -0.0445    0.2024 N   0  0  0  0  0  0  0  0  0  0  0  0
    6.3330    0.8392   -0.8030 C   0  0  0  0  0  0  0  0  0  0  0  0
    5.2512    1.8104   -1.2914 C   0  0  0  0  0  0  0  0  0  0  0  0
    4.1066    1.4821   -0.3897 C   0  0  0  0  0  0  0  0  0  0  0  0
    2.8705    2.1118   -0.3432 C   0  0  0  0  0  0  0  0  0  0  0  0
    1.9285    1.6313    0.5713 C   0  0  0  0  0  0  0  0  0  0  0  0
    0.3343    2.4029    0.6870 S   0  0  0  0  0  6  0  0  0  0  0  0
    0.0687    2.6356    2.0888 O   0  0  0  0  0  0  0  0  0  0  0  0
    0.2607    3.4656   -0.2916 O   0  0  0  0  0  0  0  0  0  0  0  0
   -0.6823    1.1731    0.1963 N   0  0  0  0  0  0  0  0  0  0  0  0
   -0.9071    0.9546   -1.2381 C   0  0  0  0  0  0  0  0  0  0  0  0
   -1.9371   -0.1815   -1.4117 C   0  0  0  0  0  0  0  0  0  0  0  0
   -3.1457   -0.0109   -0.5716 N   0  0  0  0  0  0  0  0  0  0  0  0
   -3.9820    1.1245   -1.0379 C   0  0  0  0  0  0  0  0  0  0  0  0
   -5.2954    1.2777   -0.2303 C   0  0  0  0  0  0  0  0  0  0  0  0
   -6.0777    0.0244   -0.2789 N   0  0  0  0  0  0  0  0  0  0  0  0
   -7.3901    0.0561    0.2370 C   0  0  0  0  0  0  0  0  0  0  0  0
   -8.2663   -0.9980   -0.0893 C   0  0  0  0  0  0  0  0  0  0  0  0
   -9.5884   -1.0350    0.3708 C   0  0  0  0  0  0  0  0  0  0  0  0
  -10.0778   -0.0066    1.1685 C   0  0  0  0  0  0  0  0  0  0  0  0
   -9.2448    1.0574    1.4970 C   0  0  0  0  0  0  0  0  0  0  0  0
   -7.9268    1.0870    1.0326 C   0  0  0  0  0  0  0  0  0  0  0  0
   -7.1817    2.1430    1.3969 F   0  0  0  0  0  0  0  0  0  0  0  0
   -5.2825   -1.1338    0.1945 C   0  0  0  0  0  0  0  0  0  0  0  0
   -3.9657   -1.2465   -0.6106 C   0  0  0  0  0  0  0  0  0  0  0  0
    2.2228    0.5493    1.4178 C   0  0  0  0  0  0  0  0  0  0  0  0
    3.4726   -0.0759    1.3503 C   0  0  0  0  0  0  0  0  0  0  0  0
    4.4072    0.4006    0.4436 C   0  0  0  0  0  0  0  0  0  0  0  0
    8.3987   -0.4207    0.3771 H   0  0  0  0  0  0  0  0  0  0  0  0
    7.2360   -2.3336   -1.5462 H   0  0  0  0  0  0  0  0  0  0  0  0
    8.9695   -1.9626   -1.4167 H   0  0  0  0  0  0  0  0  0  0  0  0
    9.0720   -4.1407   -0.1972 H   0  0  0  0  0  0  0  0  0  0  0  0
    7.3625   -4.0081    0.2880 H   0  0  0  0  0  0  0  0  0  0  0  0
    8.2824   -2.6865    2.1934 H   0  0  0  0  0  0  0  0  0  0  0  0
    9.7155   -2.2186    1.2534 H   0  0  0  0  0  0  0  0  0  0  0  0
    6.7390    0.2420   -1.6266 H   0  0  0  0  0  0  0  0  0  0  0  0
    7.1608    1.3822   -0.3314 H   0  0  0  0  0  0  0  0  0  0  0  0
    4.9908    1.6137   -2.3360 H   0  0  0  0  0  0  0  0  0  0  0  0
    5.5714    2.8506   -1.1806 H   0  0  0  0  0  0  0  0  0  0  0  0
    2.6477    2.9522   -0.9943 H   0  0  0  0  0  0  0  0  0  0  0  0
   -1.5024    1.0365    0.7936 H   0  0  0  0  0  0  0  0  0  0  0  0
    0.0316    0.6799   -1.7288 H   0  0  0  0  0  0  0  0  0  0  0  0
   -1.2893    1.8687   -1.7028 H   0  0  0  0  0  0  0  0  0  0  0  0
   -2.1974   -0.2856   -2.4722 H   0  0  0  0  0  0  0  0  0  0  0  0
   -1.4379   -1.1127   -1.1115 H   0  0  0  0  0  0  0  0  0  0  0  0
   -3.4260    2.0634   -0.9393 H   0  0  0  0  0  0  0  0  0  0  0  0
   -4.2310    0.9964   -2.1001 H   0  0  0  0  0  0  0  0  0  0  0  0
   -5.0413    1.5363    0.8066 H   0  0  0  0  0  0  0  0  0  0  0  0
   -5.8690    2.1018   -0.6731 H   0  0  0  0  0  0  0  0  0  0  0  0
   -7.9257   -1.7993   -0.7414 H   0  0  0  0  0  0  0  0  0  0  0  0
  -10.2341   -1.8649    0.0931 H   0  0  0  0  0  0  0  0  0  0  0  0
  -11.1047   -0.0296    1.5248 H   0  0  0  0  0  0  0  0  0  0  0  0
   -9.6070    1.8735    2.1143 H   0  0  0  0  0  0  0  0  0  0  0  0
   -5.0554   -1.0167    1.2626 H   0  0  0  0  0  0  0  0  0  0  0  0
   -5.8263   -2.0776    0.0733 H   0  0  0  0  0  0  0  0  0  0  0  0
   -3.3851   -2.0791   -0.1962 H   0  0  0  0  0  0  0  0  0  0  0  0
   -4.2103   -1.5020   -1.6502 H   0  0  0  0  0  0  0  0  0  0  0  0
    1.4814    0.1934    2.1311 H   0  0  0  0  0  0  0  0  0  0  0  0
    3.6856   -0.9099    2.0112 H   0  0  0  0  0  0  0  0  0  0  0  0
  1  2  2  0
  2  3  1  0
  3  4  1  0
  4  5  1  0
  5  6  1  0
  2  7  1  0
  7  8  1  0
  8  9  1  0
  9 10  1  0
 10 11  2  0
 11 12  1  0
 12 13  1  0
 13 14  2  0
 13 15  2  0
 13 16  1  0
 16 17  1  0
 17 18  1  0
 18 19  1  0
 19 20  1  0
 20 21  1  0
 21 22  1  0
 22 23  1  0
 23 24  2  0
 24 25  1  0
 25 26  2  0
 26 27  1  0
 27 28  2  0
 28 29  1  0
 22 30  1  0
 30 31  1  0
 12 32  2  0
 32 33  1  0
 33 34  2  0
  6  3  1  0
 34  7  1  0
 34 10  1  0
 31 19  1  0
 28 23  1  0
  3 35  1  0
  4 36  1  0
  4 37  1  0
  5 38  1  0
  5 39  1  0
  6 40  1  0
  6 41  1  0
  8 42  1  0
  8 43  1  0
  9 44  1  0
  9 45  1  0
 11 46  1  0
 16 47  1  0
 17 48  1  0
 17 49  1  0
 18 50  1  0
 18 51  1  0
 20 52  1  0
 20 53  1  0
 21 54  1  0
 21 55  1  0
 24 56  1  0
 25 57  1  0
 26 58  1  0
 27 59  1  0
 30 60  1  0
 30 61  1  0
 31 62  1  0
 31 63  1  0
 32 64  1  0
 33 65  1  0
M  END
$$$$
