
     RDKit          3D

 61 65  0  0  0  0  0  0  0  0999 V2000
   -8.6703    1.9977   -3.4293 C   0  0  0  0  0  0  0  0  0  0  0  0
   -7.5880    1.2937   -2.6684 C   0  0  0  0  0  0  0  0  0  0  0  0
   -7.8900    0.1866   -1.8759 C   0  0  0  0  0  0  0  0  0  0  0  0
   -6.8848   -0.4563   -1.1422 C   0  0  0  0  0  0  0  0  0  0  0  0
   -5.5494   -0.0164   -1.1797 C   0  0  0  0  0  0  0  0  0  0  0  0
   -4.5050   -0.7305   -0.4170 C   0  0  0  0  0  0  0  0  0  0  0  0
   -3.1855   -0.8087   -0.8284 C   0  0  0  0  0  0  0  0  0  0  0  0
   -2.2890   -1.5347   -0.0428 C   0  0  0  0  0  0  0  0  0  0  0  0
   -0.8728   -1.5696   -0.4703 C   0  0  0  0  0  0  0  0  0  0  0  0
   -0.3961   -2.6377   -0.8220 O   0  0  0  0  0  0  0  0  0  0  0  0
   -0.2495   -0.3376   -0.3953 N   0  0  0  0  0  0  0  0  0  0  0  0
    1.0958   -0.0434   -0.7000 C   0  0  0  0  0  0  0  0  0  0  0  0
    1.5038    1.2911   -0.5661 C   0  0  0  0  0  0  0  0  0  0  0  0
    2.8167    1.6736   -0.8568 C   0  0  0  0  0  0  0  0  0  0  0  0
    3.7358    0.7108   -1.2733 C   0  0  0  0  0  0  0  0  0  0  0  0
    5.4209    1.1633   -1.6197 S   0  0  0  0  0  6  0  0  0  0  0  0
    5.4052    1.8892   -2.8697 O   0  0  0  0  0  0  0  0  0  0  0  0
    6.2369   -0.0129   -1.4189 O   0  0  0  0  0  0  0  0  0  0  0  0
    5.7321    2.3140   -0.4079 N   0  0  0  0  0  0  0  0  0  0  0  0
    6.9463    2.0337    0.3505 C   0  0  0  0  0  0  0  0  0  0  0  0
    8.1267    2.6637    0.1400 O   0  0  0  0  0  0  0  0  0  0  0  0
    9.0557    2.2382    1.0697 N   0  0  0  0  0  0  0  0  0  0  0  0
    8.4102    1.3557    1.8427 C   0  0  0  0  0  0  0  0  0  0  0  0
    9.1141    0.6998    2.9734 C   0  0  0  0  0  0  0  0  0  0  0  0
    7.0576    1.1894    1.4327 C   0  0  0  0  0  0  0  0  0  0  0  0
    6.0288    0.3057    2.0259 C   0  0  0  0  0  0  0  0  0  0  0  0
    3.3494   -0.6267   -1.3929 C   0  0  0  0  0  0  0  0  0  0  0  0
    2.0279   -0.9969   -1.1185 C   0  0  0  0  0  0  0  0  0  0  0  0
   -2.7031   -2.1904    1.1345 C   0  0  0  0  0  0  0  0  0  0  0  0
   -1.8610   -2.9562    1.9777 C   0  0  0  0  0  0  0  0  0  0  0  0
   -2.3583   -3.5567    3.1354 C   0  0  0  0  0  0  0  0  0  0  0  0
   -3.6961   -3.3939    3.4680 C   0  0  0  0  0  0  0  0  0  0  0  0
   -4.5258   -2.6383    2.6392 C   0  0  0  0  0  0  0  0  0  0  0  0
   -4.0571   -2.0412    1.4736 C   0  0  0  0  0  0  0  0  0  0  0  0
   -4.9210   -1.3344    0.7255 N   0  0  0  0  0  0  0  0  0  0  0  0
   -5.2678    1.1124   -1.9672 C   0  0  0  0  0  0  0  0  0  0  0  0
   -6.2719    1.7596   -2.6991 C   0  0  0  0  0  0  0  0  0  0  0  0
   -8.2516    2.5818   -4.2556 H   0  0  0  0  0  0  0  0  0  0  0  0
   -9.2226    2.6738   -2.7664 H   0  0  0  0  0  0  0  0  0  0  0  0
   -9.3679    1.2766   -3.8620 H   0  0  0  0  0  0  0  0  0  0  0  0
   -8.9072   -0.1906   -1.8178 H   0  0  0  0  0  0  0  0  0  0  0  0
   -7.1525   -1.3221   -0.5336 H   0  0  0  0  0  0  0  0  0  0  0  0
   -2.8553   -0.3510   -1.7574 H   0  0  0  0  0  0  0  0  0  0  0  0
   -0.8048    0.4349   -0.0495 H   0  0  0  0  0  0  0  0  0  0  0  0
    0.8025    2.0543   -0.2410 H   0  0  0  0  0  0  0  0  0  0  0  0
    3.1021    2.7181   -0.7642 H   0  0  0  0  0  0  0  0  0  0  0  0
    5.8235    3.2154   -0.8891 H   0  0  0  0  0  0  0  0  0  0  0  0
    8.8373   -0.3580    3.0453 H   0  0  0  0  0  0  0  0  0  0  0  0
    8.8432    1.1960    3.9119 H   0  0  0  0  0  0  0  0  0  0  0  0
   10.1988    0.7543    2.8618 H   0  0  0  0  0  0  0  0  0  0  0  0
    6.0663   -0.6789    1.5585 H   0  0  0  0  0  0  0  0  0  0  0  0
    5.0206    0.7132    1.8885 H   0  0  0  0  0  0  0  0  0  0  0  0
    6.1923    0.1763    3.1018 H   0  0  0  0  0  0  0  0  0  0  0  0
    4.0605   -1.3815   -1.7204 H   0  0  0  0  0  0  0  0  0  0  0  0
    1.7596   -2.0422   -1.2462 H   0  0  0  0  0  0  0  0  0  0  0  0
   -0.8107   -3.1040    1.7285 H   0  0  0  0  0  0  0  0  0  0  0  0
   -1.7042   -4.1509    3.7688 H   0  0  0  0  0  0  0  0  0  0  0  0
   -4.1001   -3.8498    4.3701 H   0  0  0  0  0  0  0  0  0  0  0  0
   -5.5745   -2.5173    2.9057 H   0  0  0  0  0  0  0  0  0  0  0  0
   -4.2613    1.5215   -2.0128 H   0  0  0  0  0  0  0  0  0  0  0  0
   -6.0154    2.6342   -3.2893 H   0  0  0  0  0  0  0  0  0  0  0  0
  1  2  1  0
  2  3  2  0
  3  4  1  0
  4  5  2  0
  5  6  1  0
  6  7  2  0
  7  8  1  0
  8  9  1  0
  9 10  2  0
  9 11  1  0
 11 12  1  0
 12 13  2  0
 13 14  1  0
 14 15  2  0
 15 16  1  0
 16 17  2  0
 16 18  2  0
 16 19  1  0
 19 20  1  0
 20 21  1  0
 21 22  1  0
 22 23  2  0
 23 24  1  0
 23 25  1  0
 25 26  1  0
 15 27  1  0
 27 28  2  0
  8 29  2  0
 29 30  1  0
 30 31  2  0
 31 32  1  0
 32 33  2  0
 33 34  1  0
 34 35  2  0
  5 36  1  0
 36 37  2  0
 37  2  1  0
 35  6  1  0
 28 12  1  0
 34 29  1  0
 25 20  2  0
  1 38  1  0
  1 39  1  0
  1 40  1  0
  3 41  1  0
  4 42  1  0
  7 43  1  0
 11 44  1  0
 13 45  1  0
 14 46  1  0
 19 47  1  0
 24 48  1  0
 24 49  1  0
 24 50  1  0
 26 51  1  0
 26 52  1  0
 26 53  1  0
 27 54  1  0
 28 55  1  0
 30 56  1  0
 31 57  1  0
 32 58  1  0
 33 59  1  0
 36 60  1  0
 37 61  1  0
M  END
$$$$
