
     RDKit          3D

 36 37  0  0  0  0  0  0  0  0999 V2000
    7.6616    0.2909    0.1398 C   0  0  0  0  0  0  0  0  0  0  0  0
    6.2206    0.6593   -0.1126 C   0  0  0  0  0  0  0  0  0  0  0  0
    5.9331    1.6599   -0.7593 O   0  0  0  0  0  0  0  0  0  0  0  0
    5.3416   -0.2293    0.4805 N   0  0  0  0  0  0  0  0  0  0  0  0
    3.9327   -0.1861    0.4588 C   0  0  0  0  0  0  0  0  0  0  0  0
    3.2516   -1.2082    1.1318 C   0  0  0  0  0  0  0  0  0  0  0  0
    1.8534   -1.2390    1.1562 C   0  0  0  0  0  0  0  0  0  0  0  0
    1.1148   -0.2500    0.4986 C   0  0  0  0  0  0  0  0  0  0  0  0
   -0.3740   -0.3192    0.5504 C   0  0  0  0  0  0  0  0  0  0  0  0
   -0.9073   -0.8773    1.5047 O   0  0  0  0  0  0  0  0  0  0  0  0
   -1.0279    0.2390   -0.5442 N   0  0  0  0  0  0  0  0  0  0  0  0
   -2.3783    0.1625   -0.7768 N   0  0  0  0  0  0  0  0  0  0  0  0
   -3.1734    0.2408    0.2436 C   0  0  0  0  0  0  0  0  0  0  0  0
   -4.6388    0.1196    0.0940 C   0  0  0  0  0  0  0  0  0  0  0  0
   -5.2206   -0.0807   -1.1638 C   0  0  0  0  0  0  0  0  0  0  0  0
   -6.6077   -0.1904   -1.2755 C   0  0  0  0  0  0  0  0  0  0  0  0
   -7.3972   -0.1005   -0.1337 C   0  0  0  0  0  0  0  0  0  0  0  0
   -8.7279   -0.2060   -0.2426 F   0  0  0  0  0  0  0  0  0  0  0  0
   -6.8273    0.0967    1.1206 C   0  0  0  0  0  0  0  0  0  0  0  0
   -5.4405    0.2074    1.2384 C   0  0  0  0  0  0  0  0  0  0  0  0
    1.7899    0.7829   -0.1603 C   0  0  0  0  0  0  0  0  0  0  0  0
    3.1910    0.8088   -0.1820 C   0  0  0  0  0  0  0  0  0  0  0  0
    7.9660    0.6691    1.1192 H   0  0  0  0  0  0  0  0  0  0  0  0
    7.7999   -0.7936    0.1041 H   0  0  0  0  0  0  0  0  0  0  0  0
    8.2919    0.7382   -0.6343 H   0  0  0  0  0  0  0  0  0  0  0  0
    5.7529   -0.9999    0.9923 H   0  0  0  0  0  0  0  0  0  0  0  0
    3.7941   -1.9954    1.6495 H   0  0  0  0  0  0  0  0  0  0  0  0
    1.3420   -2.0396    1.6881 H   0  0  0  0  0  0  0  0  0  0  0  0
   -0.4903    0.3642   -1.3966 H   0  0  0  0  0  0  0  0  0  0  0  0
   -2.8112    0.4307    1.2685 H   0  0  0  0  0  0  0  0  0  0  0  0
   -4.6006   -0.1527   -2.0542 H   0  0  0  0  0  0  0  0  0  0  0  0
   -7.0752   -0.3462   -2.2426 H   0  0  0  0  0  0  0  0  0  0  0  0
   -7.4660    0.1607    1.9960 H   0  0  0  0  0  0  0  0  0  0  0  0
   -4.9966    0.3567    2.2195 H   0  0  0  0  0  0  0  0  0  0  0  0
    1.2515    1.5953   -0.6416 H   0  0  0  0  0  0  0  0  0  0  0  0
    3.6724    1.6313   -0.7030 H   0  0  0  0  0  0  0  0  0  0  0  0
  1  2  1  0
  2  3  2  0
  2  4  1  0
  4  5  1  0
  5  6  2  0
  6  7  1  0
  7  8  2  0
  8  9  1  0
  9 10  2  0
  9 11  1  0
 11 12  1  0
 12 13  2  3
 13 14  1  0
 14 15  2  0
 15 16  1  0
 16 17  2  0
 17 18  1  0
 17 19  1  0
 19 20  2  0
  8 21  1  0
 21 22  2  0
 22  5  1  0
 20 14  1  0
  1 23  1  0
  1 24  1  0
  1 25  1  0
  4 26  1  0
  6 27  1  0
  7 28  1  0
 11 29  1  0
 13 30  1  0
 15 31  1  0
 16 32  1  0
 19 33  1  0
 20 34  1  0
 21 35  1  0
 22 36  1  0
M  END
$$$$
