
     RDKit          3D

 39 40  0  0  0  0  0  0  0  0999 V2000
    4.2292    0.2346   -2.9356 C   0  0  0  0  0  0  0  0  0  0  0  0
    4.7842    0.3381   -1.5197 C   0  0  0  0  0  0  0  0  0  0  0  0
    3.8791    1.0684   -0.5081 C   0  0  0  0  0  0  0  0  0  0  0  0
    3.4080    2.4275   -1.0280 C   0  0  0  0  0  0  0  0  0  0  0  0
    2.6916    0.2030   -0.0550 C   0  0  0  0  0  0  0  0  0  0  0  0
    2.4457   -0.8788   -0.5759 O   0  0  0  0  0  0  0  0  0  0  0  0
    1.9984    0.7780    0.9886 N   0  0  0  0  0  0  0  0  0  0  0  0
    0.8765    0.2866    1.6076 C   0  0  0  0  0  0  0  0  0  0  0  0
    0.3327    0.8939    2.6397 N   0  0  0  0  0  0  0  0  0  0  0  0
   -0.7883    0.2349    3.1022 N   0  0  0  0  0  0  0  0  0  0  0  0
   -1.0570   -0.8377    2.3855 C   0  0  0  0  0  0  0  0  0  0  0  0
   -2.2150   -1.7519    2.6244 C   0  0  0  0  0  0  0  0  0  0  0  0
   -3.5590   -1.0610    2.3766 C   0  0  0  0  0  0  0  0  0  0  0  0
   -3.8084   -0.7481    0.9201 C   0  0  0  0  0  0  0  0  0  0  0  0
   -4.2577   -1.7452    0.0441 C   0  0  0  0  0  0  0  0  0  0  0  0
   -4.4624   -1.4587   -1.3064 C   0  0  0  0  0  0  0  0  0  0  0  0
   -4.2184   -0.1759   -1.7933 C   0  0  0  0  0  0  0  0  0  0  0  0
   -3.7695    0.8221   -0.9308 C   0  0  0  0  0  0  0  0  0  0  0  0
   -3.5646    0.5383    0.4199 C   0  0  0  0  0  0  0  0  0  0  0  0
    0.0598   -1.1218    1.1126 S   0  0  0  0  0  0  0  0  0  0  0  0
    3.2484   -0.2482   -2.9553 H   0  0  0  0  0  0  0  0  0  0  0  0
    4.9071   -0.3592   -3.5576 H   0  0  0  0  0  0  0  0  0  0  0  0
    4.1378    1.2203   -3.4015 H   0  0  0  0  0  0  0  0  0  0  0  0
    5.0046   -0.6718   -1.1523 H   0  0  0  0  0  0  0  0  0  0  0  0
    5.7464    0.8632   -1.5711 H   0  0  0  0  0  0  0  0  0  0  0  0
    4.4907    1.2382    0.3892 H   0  0  0  0  0  0  0  0  0  0  0  0
    2.6440    2.3167   -1.8050 H   0  0  0  0  0  0  0  0  0  0  0  0
    2.9651    3.0281   -0.2265 H   0  0  0  0  0  0  0  0  0  0  0  0
    4.2448    3.0012   -1.4401 H   0  0  0  0  0  0  0  0  0  0  0  0
    2.3380    1.6319    1.4080 H   0  0  0  0  0  0  0  0  0  0  0  0
   -2.1765   -2.0752    3.6722 H   0  0  0  0  0  0  0  0  0  0  0  0
   -2.1343   -2.6613    2.0165 H   0  0  0  0  0  0  0  0  0  0  0  0
   -3.6362   -0.1418    2.9720 H   0  0  0  0  0  0  0  0  0  0  0  0
   -4.3677   -1.7124    2.7328 H   0  0  0  0  0  0  0  0  0  0  0  0
   -4.4504   -2.7523    0.4066 H   0  0  0  0  0  0  0  0  0  0  0  0
   -4.8104   -2.2374   -1.9800 H   0  0  0  0  0  0  0  0  0  0  0  0
   -4.3759    0.0454   -2.8455 H   0  0  0  0  0  0  0  0  0  0  0  0
   -3.5755    1.8218   -1.3102 H   0  0  0  0  0  0  0  0  0  0  0  0
   -3.2050    1.3263    1.0793 H   0  0  0  0  0  0  0  0  0  0  0  0
  1  2  1  0
  2  3  1  0
  3  4  1  0
  3  5  1  0
  5  6  2  0
  5  7  1  0
  7  8  1  0
  8  9  2  0
  9 10  1  0
 10 11  2  0
 11 12  1  0
 12 13  1  0
 13 14  1  0
 14 15  2  0
 15 16  1  0
 16 17  2  0
 17 18  1  0
 18 19  2  0
 11 20  1  0
 20  8  1  0
 19 14  1  0
  1 21  1  0
  1 22  1  0
  1 23  1  0
  2 24  1  0
  2 25  1  0
  3 26  1  0
  4 27  1  0
  4 28  1  0
  4 29  1  0
  7 30  1  0
 12 31  1  0
 12 32  1  0
 13 33  1  0
 13 34  1  0
 15 35  1  0
 16 36  1  0
 17 37  1  0
 18 38  1  0
 19 39  1  0
M  END
$$$$
