
     RDKit          3D

 34 36  0  0  0  0  0  0  0  0999 V2000
    0.7546    1.6611   -1.4476 O   0  0  0  0  0  0  0  0  0  0  0  0
    0.7401    0.7248   -0.6599 C   0  0  0  0  0  0  0  0  0  0  0  0
    2.0253    0.1758   -0.1835 C   0  0  0  0  0  0  0  0  0  0  0  0
    2.3337    0.1618    1.1814 C   0  0  0  0  0  0  0  0  0  0  0  0
    3.5634   -0.3470    1.6053 C   0  0  0  0  0  0  0  0  0  0  0  0
    4.4788   -0.8229    0.6649 C   0  0  0  0  0  0  0  0  0  0  0  0
    5.9914   -1.4509    1.1913 Cl  0  0  0  0  0  0  0  0  0  0  0  0
    4.1814   -0.7864   -0.6981 C   0  0  0  0  0  0  0  0  0  0  0  0
    2.9532   -0.2780   -1.1263 C   0  0  0  0  0  0  0  0  0  0  0  0
   -0.4250    0.1523   -0.2194 N   0  0  0  0  0  0  0  0  0  0  0  0
   -0.5974   -1.0861    0.5539 C   0  0  0  0  0  0  0  0  0  0  0  0
   -1.1848   -0.6583    1.8760 C   0  0  0  0  0  0  0  0  0  0  0  0
   -2.4531   -0.2709    1.6557 C   0  0  0  0  0  0  0  0  0  0  0  0
   -2.6825   -0.3749    0.1559 C   0  0  0  0  0  0  0  0  0  0  0  0
   -1.8709   -1.6681   -0.0612 C   0  0  0  0  0  0  0  0  0  0  0  0
   -1.7982    0.6914   -0.5984 C   0  0  0  0  0  0  0  0  0  0  0  0
   -2.1129    2.1137   -0.1360 C   0  0  0  0  0  0  0  0  0  0  0  0
   -3.4477    2.3531   -0.1976 F   0  0  0  0  0  0  0  0  0  0  0  0
   -1.7523    2.3259    1.1550 F   0  0  0  0  0  0  0  0  0  0  0  0
   -1.5104    3.0792   -0.8562 F   0  0  0  0  0  0  0  0  0  0  0  0
   -2.1349    0.6924   -2.0914 C   0  0  0  0  0  0  0  0  0  0  0  0
   -1.5366    1.6600   -2.8085 F   0  0  0  0  0  0  0  0  0  0  0  0
   -3.4716    0.8345   -2.2799 F   0  0  0  0  0  0  0  0  0  0  0  0
   -1.8022   -0.4829   -2.6822 F   0  0  0  0  0  0  0  0  0  0  0  0
    1.6345    0.5626    1.9106 H   0  0  0  0  0  0  0  0  0  0  0  0
    3.8076   -0.3588    2.6646 H   0  0  0  0  0  0  0  0  0  0  0  0
    4.9025   -1.1424   -1.4296 H   0  0  0  0  0  0  0  0  0  0  0  0
    2.7233   -0.2301   -2.1887 H   0  0  0  0  0  0  0  0  0  0  0  0
    0.2595   -1.7576    0.5956 H   0  0  0  0  0  0  0  0  0  0  0  0
   -0.6695   -0.6616    2.8247 H   0  0  0  0  0  0  0  0  0  0  0  0
   -3.1481    0.1198    2.3853 H   0  0  0  0  0  0  0  0  0  0  0  0
   -3.7322   -0.4395   -0.1353 H   0  0  0  0  0  0  0  0  0  0  0  0
   -1.7510   -1.9580   -1.1068 H   0  0  0  0  0  0  0  0  0  0  0  0
   -2.2679   -2.5339    0.4865 H   0  0  0  0  0  0  0  0  0  0  0  0
  1  2  2  0
  2  3  1  0
  3  4  2  0
  4  5  1  0
  5  6  2  0
  6  7  1  0
  6  8  1  0
  8  9  2  0
  2 10  1  0
 10 11  1  0
 11 12  1  0
 12 13  2  0
 13 14  1  0
 14 15  1  0
 14 16  1  0
 16 17  1  0
 17 18  1  0
 17 19  1  0
 17 20  1  0
 16 21  1  0
 21 22  1  0
 21 23  1  0
 21 24  1  0
  9  3  1  0
 16 10  1  0
 15 11  1  0
  4 25  1  0
  5 26  1  0
  8 27  1  0
  9 28  1  0
 11 29  1  0
 12 30  1  0
 13 31  1  0
 14 32  1  0
 15 33  1  0
 15 34  1  0
M  END
$$$$
