
     RDKit          3D

 51 54  0  0  0  0  0  0  0  0999 V2000
    6.7522    1.7094   -1.5799 C   0  0  0  0  0  0  0  0  0  0  0  0
    5.7569    0.6951   -2.1221 C   0  0  0  0  0  0  0  0  0  0  0  0
    4.3820    0.8920   -1.5387 C   0  0  0  0  0  0  0  0  0  0  0  0
    4.0118    0.2522   -0.3540 C   0  0  0  0  0  0  0  0  0  0  0  0
    2.7387    0.4498    0.1961 C   0  0  0  0  0  0  0  0  0  0  0  0
    1.7970    1.2936   -0.4158 C   0  0  0  0  0  0  0  0  0  0  0  0
    0.4762    1.4961    0.1517 N   0  0  0  0  0  0  0  0  0  0  0  0
   -0.1208    2.7556    0.0155 C   0  0  0  0  0  0  0  0  0  0  0  0
    0.4187    3.7660   -0.4369 O   0  0  0  0  0  0  0  0  0  0  0  0
   -1.5018    2.9080    0.5001 C   0  0  0  0  0  0  0  0  0  0  0  0
   -2.1899    4.1102    0.2588 C   0  0  0  0  0  0  0  0  0  0  0  0
   -3.4913    4.2798    0.7204 C   0  0  0  0  0  0  0  0  0  0  0  0
   -4.1047    3.2502    1.4224 C   0  0  0  0  0  0  0  0  0  0  0  0
   -3.4157    2.0567    1.6655 C   0  0  0  0  0  0  0  0  0  0  0  0
   -2.0993    1.8731    1.2094 C   0  0  0  0  0  0  0  0  0  0  0  0
   -1.3699    0.6794    1.4313 N   0  0  0  0  0  0  0  0  0  0  0  0
   -1.9583   -0.4101    2.2211 C   0  0  0  0  0  0  0  0  0  0  0  0
   -2.8712   -1.3073    1.3836 C   0  0  0  0  0  0  0  0  0  0  0  0
   -4.0429   -1.5093    1.6961 O   0  0  0  0  0  0  0  0  0  0  0  0
   -2.2580   -1.9021    0.3045 N   0  0  0  0  0  0  0  0  0  0  0  0
   -2.9205   -2.9078   -0.4912 C   0  0  0  0  0  0  0  0  0  0  0  0
   -2.6368   -4.2409    0.0928 C   0  0  0  0  0  0  0  0  0  0  0  0
   -3.2518   -4.9949    1.0713 C   0  0  0  0  0  0  0  0  0  0  0  0
   -2.4975   -6.1863    1.1905 C   0  0  0  0  0  0  0  0  0  0  0  0
   -1.4714   -6.0827    0.2809 C   0  0  0  0  0  0  0  0  0  0  0  0
   -1.5464   -4.9046   -0.3902 O   0  0  0  0  0  0  0  0  0  0  0  0
   -0.1426    0.4306    0.8186 C   0  0  0  0  0  0  0  0  0  0  0  0
    0.3047   -0.7227    0.8465 O   0  0  0  0  0  0  0  0  0  0  0  0
    2.1890    1.9365   -1.6015 C   0  0  0  0  0  0  0  0  0  0  0  0
    3.4611    1.7415   -2.1548 C   0  0  0  0  0  0  0  0  0  0  0  0
    6.8475    1.6302   -0.4916 H   0  0  0  0  0  0  0  0  0  0  0  0
    7.7404    1.5423   -2.0199 H   0  0  0  0  0  0  0  0  0  0  0  0
    6.4443    2.7337   -1.8163 H   0  0  0  0  0  0  0  0  0  0  0  0
    5.7084    0.7716   -3.2152 H   0  0  0  0  0  0  0  0  0  0  0  0
    6.1077   -0.3212   -1.9047 H   0  0  0  0  0  0  0  0  0  0  0  0
    4.7124   -0.4039    0.1582 H   0  0  0  0  0  0  0  0  0  0  0  0
    2.5200   -0.0532    1.1347 H   0  0  0  0  0  0  0  0  0  0  0  0
   -1.7098    4.9189   -0.2899 H   0  0  0  0  0  0  0  0  0  0  0  0
   -4.0228    5.2091    0.5309 H   0  0  0  0  0  0  0  0  0  0  0  0
   -5.1253    3.3685    1.7807 H   0  0  0  0  0  0  0  0  0  0  0  0
   -3.9575    1.2827    2.2025 H   0  0  0  0  0  0  0  0  0  0  0  0
   -1.1679   -1.0426    2.6439 H   0  0  0  0  0  0  0  0  0  0  0  0
   -2.5028   -0.0108    3.0828 H   0  0  0  0  0  0  0  0  0  0  0  0
   -1.2395   -1.8789    0.2685 H   0  0  0  0  0  0  0  0  0  0  0  0
   -2.5257   -2.8358   -1.5094 H   0  0  0  0  0  0  0  0  0  0  0  0
   -3.9981   -2.7174   -0.5224 H   0  0  0  0  0  0  0  0  0  0  0  0
   -4.1325   -4.7074    1.6301 H   0  0  0  0  0  0  0  0  0  0  0  0
   -2.6764   -7.0166    1.8587 H   0  0  0  0  0  0  0  0  0  0  0  0
   -0.6474   -6.7254    0.0042 H   0  0  0  0  0  0  0  0  0  0  0  0
    1.5058    2.5878   -2.1414 H   0  0  0  0  0  0  0  0  0  0  0  0
    3.7217    2.2614   -3.0744 H   0  0  0  0  0  0  0  0  0  0  0  0
  1  2  1  0
  2  3  1  0
  3  4  2  0
  4  5  1  0
  5  6  2  0
  6  7  1  0
  7  8  1  0
  8  9  2  0
  8 10  1  0
 10 11  2  0
 11 12  1  0
 12 13  2  0
 13 14  1  0
 14 15  2  0
 15 16  1  0
 16 17  1  0
 17 18  1  0
 18 19  2  0
 18 20  1  0
 20 21  1  0
 21 22  1  0
 22 23  2  0
 23 24  1  0
 24 25  2  0
 25 26  1  0
 16 27  1  0
 27 28  2  0
  6 29  1  0
 29 30  2  0
 30  3  1  0
 27  7  1  0
 15 10  1  0
 26 22  1  0
  1 31  1  0
  1 32  1  0
  1 33  1  0
  2 34  1  0
  2 35  1  0
  4 36  1  0
  5 37  1  0
 11 38  1  0
 12 39  1  0
 13 40  1  0
 14 41  1  0
 17 42  1  0
 17 43  1  0
 20 44  1  0
 21 45  1  0
 21 46  1  0
 23 47  1  0
 24 48  1  0
 25 49  1  0
 29 50  1  0
 30 51  1  0
M  END
$$$$
