
     RDKit          3D

 60 63  0  0  0  0  0  0  0  0999 V2000
    8.8118    0.7670    0.5144 C   0  0  0  0  0  0  0  0  0  0  0  0
    7.7036    1.3569    1.1788 O   0  0  0  0  0  0  0  0  0  0  0  0
    6.6399    0.5404    1.4421 C   0  0  0  0  0  0  0  0  0  0  0  0
    5.5481    1.1759    2.0365 C   0  0  0  0  0  0  0  0  0  0  0  0
    4.3851    0.4634    2.3405 C   0  0  0  0  0  0  0  0  0  0  0  0
    4.3047   -0.9055    2.0657 C   0  0  0  0  0  0  0  0  0  0  0  0
    3.0340   -1.6717    2.3219 C   0  0  0  0  0  0  0  0  0  0  0  0
    2.1751   -1.6004    1.1646 N   0  0  0  0  0  0  0  0  0  0  0  0
    2.2409   -2.5337    0.1532 C   0  0  0  0  0  0  0  0  0  0  0  0
    2.8861   -3.5742    0.2491 O   0  0  0  0  0  0  0  0  0  0  0  0
    1.6203   -2.0738   -1.1779 C   0  0  0  0  0  0  0  0  0  0  0  0
    2.6981   -1.4025   -2.0238 C   0  0  0  0  0  0  0  0  0  0  0  0
    0.4634   -1.1905   -0.9420 N   0  0  0  0  0  0  0  0  0  0  0  0
    0.7327    0.1641   -0.6570 N   0  0  0  0  0  0  0  0  0  0  0  0
   -0.2343    1.0132   -0.4392 C   0  0  0  0  0  0  0  0  0  0  0  0
    0.1253    2.4455   -0.1511 C   0  0  0  0  0  0  0  0  0  0  0  0
   -1.6000    0.5515   -0.4641 C   0  0  0  0  0  0  0  0  0  0  0  0
   -2.8279    1.1577   -0.2554 C   0  0  0  0  0  0  0  0  0  0  0  0
   -3.1511    2.5317    0.2180 C   0  0  0  0  0  0  0  0  0  0  0  0
   -3.7801    0.1664   -0.5352 N   0  0  0  0  0  0  0  0  0  0  0  0
   -5.1918    0.2621   -0.7343 C   0  0  0  0  0  0  0  0  0  0  0  0
   -5.8245    1.4700   -1.0404 C   0  0  0  0  0  0  0  0  0  0  0  0
   -7.2063    1.5109   -1.2606 C   0  0  0  0  0  0  0  0  0  0  0  0
   -7.9774    0.3487   -1.1807 C   0  0  0  0  0  0  0  0  0  0  0  0
   -9.4526    0.4000   -1.4467 C   0  0  0  0  0  0  0  0  0  0  0  0
   -7.3439   -0.8633   -0.9044 C   0  0  0  0  0  0  0  0  0  0  0  0
   -5.9641   -0.9088   -0.6866 C   0  0  0  0  0  0  0  0  0  0  0  0
   -3.1885   -1.0511   -0.6460 N   0  0  0  0  0  0  0  0  0  0  0  0
   -1.8796   -0.8005   -0.6891 C   0  0  0  0  0  0  0  0  0  0  0  0
   -0.8220   -1.7745   -0.9196 C   0  0  0  0  0  0  0  0  0  0  0  0
   -1.0284   -2.9720   -1.0961 O   0  0  0  0  0  0  0  0  0  0  0  0
    5.4050   -1.5415    1.4752 C   0  0  0  0  0  0  0  0  0  0  0  0
    6.5656   -0.8255    1.1677 C   0  0  0  0  0  0  0  0  0  0  0  0
    9.5543    1.5535    0.3446 H   0  0  0  0  0  0  0  0  0  0  0  0
    8.5230    0.3643   -0.4649 H   0  0  0  0  0  0  0  0  0  0  0  0
    9.2782   -0.0059    1.1367 H   0  0  0  0  0  0  0  0  0  0  0  0
    5.6039    2.2415    2.2560 H   0  0  0  0  0  0  0  0  0  0  0  0
    3.5457    0.9866    2.7877 H   0  0  0  0  0  0  0  0  0  0  0  0
    2.4908   -1.2381    3.1654 H   0  0  0  0  0  0  0  0  0  0  0  0
    3.2565   -2.7148    2.5730 H   0  0  0  0  0  0  0  0  0  0  0  0
    1.8203   -0.6892    0.8884 H   0  0  0  0  0  0  0  0  0  0  0  0
    1.2732   -2.9727   -1.6977 H   0  0  0  0  0  0  0  0  0  0  0  0
    2.2724   -0.9849   -2.9383 H   0  0  0  0  0  0  0  0  0  0  0  0
    3.4702   -2.1259   -2.3055 H   0  0  0  0  0  0  0  0  0  0  0  0
    3.1973   -0.5957   -1.4806 H   0  0  0  0  0  0  0  0  0  0  0  0
    1.1865    2.6189   -0.3563 H   0  0  0  0  0  0  0  0  0  0  0  0
   -0.4640    3.1187   -0.7794 H   0  0  0  0  0  0  0  0  0  0  0  0
   -0.0655    2.6633    0.9039 H   0  0  0  0  0  0  0  0  0  0  0  0
   -3.2084    3.2300   -0.6248 H   0  0  0  0  0  0  0  0  0  0  0  0
   -4.0870    2.5633    0.7849 H   0  0  0  0  0  0  0  0  0  0  0  0
   -2.3836    2.8970    0.9053 H   0  0  0  0  0  0  0  0  0  0  0  0
   -5.2785    2.3939   -1.1745 H   0  0  0  0  0  0  0  0  0  0  0  0
   -7.6764    2.4578   -1.5105 H   0  0  0  0  0  0  0  0  0  0  0  0
   -9.9089    1.2411   -0.9139 H   0  0  0  0  0  0  0  0  0  0  0  0
   -9.6387    0.5084   -2.5208 H   0  0  0  0  0  0  0  0  0  0  0  0
   -9.9496   -0.5142   -1.1039 H   0  0  0  0  0  0  0  0  0  0  0  0
   -7.9146   -1.7878   -0.8607 H   0  0  0  0  0  0  0  0  0  0  0  0
   -5.5053   -1.8732   -0.4773 H   0  0  0  0  0  0  0  0  0  0  0  0
    5.3557   -2.6063    1.2371 H   0  0  0  0  0  0  0  0  0  0  0  0
    7.3852   -1.3659    0.7116 H   0  0  0  0  0  0  0  0  0  0  0  0
  1  2  1  0
  2  3  1  0
  3  4  2  0
  4  5  1  0
  5  6  2  0
  6  7  1  0
  7  8  1  0
  8  9  1  0
  9 10  2  0
  9 11  1  0
 11 12  1  0
 11 13  1  0
 13 14  1  0
 14 15  2  0
 15 16  1  0
 15 17  1  0
 17 18  2  0
 18 19  1  0
 18 20  1  0
 20 21  1  0
 21 22  2  0
 22 23  1  0
 23 24  2  0
 24 25  1  0
 24 26  1  0
 26 27  2  0
 20 28  1  0
 28 29  2  0
 29 30  1  0
 30 31  2  0
  6 32  1  0
 32 33  2  0
 33  3  1  0
 30 13  1  0
 29 17  1  0
 27 21  1  0
  1 34  1  0
  1 35  1  0
  1 36  1  0
  4 37  1  0
  5 38  1  0
  7 39  1  0
  7 40  1  0
  8 41  1  0
 11 42  1  0
 12 43  1  0
 12 44  1  0
 12 45  1  0
 16 46  1  0
 16 47  1  0
 16 48  1  0
 19 49  1  0
 19 50  1  0
 19 51  1  0
 22 52  1  0
 23 53  1  0
 25 54  1  0
 25 55  1  0
 25 56  1  0
 26 57  1  0
 27 58  1  0
 32 59  1  0
 33 60  1  0
M  END
$$$$
