
     RDKit          3D

 38 40  0  0  0  0  0  0  0  0999 V2000
   -3.1588   -0.0384   -2.6601 C   0  0  0  0  0  0  0  0  0  0  0  0
   -3.8549   -0.3978   -1.3772 C   0  0  0  0  0  0  0  0  0  0  0  0
   -5.2606   -0.3721   -1.3502 C   0  0  0  0  0  0  0  0  0  0  0  0
   -5.9551   -0.7211   -0.1953 C   0  0  0  0  0  0  0  0  0  0  0  0
   -7.2937   -0.6844   -0.1956 F   0  0  0  0  0  0  0  0  0  0  0  0
   -5.2827   -1.1108    0.9541 C   0  0  0  0  0  0  0  0  0  0  0  0
   -3.8891   -1.1519    0.9513 C   0  0  0  0  0  0  0  0  0  0  0  0
   -3.1747   -0.7944   -0.2062 C   0  0  0  0  0  0  0  0  0  0  0  0
   -1.3874   -0.8805   -0.1370 S   0  0  0  0  0  6  0  0  0  0  0  0
   -0.9260   -1.5345   -1.3404 O   0  0  0  0  0  0  0  0  0  0  0  0
   -1.0177   -1.3608    1.1787 O   0  0  0  0  0  0  0  0  0  0  0  0
   -0.9864    0.7794   -0.1656 N   0  0  0  0  0  0  0  0  0  0  0  0
    0.4104    1.0354   -0.3706 C   0  0  0  0  0  0  0  0  0  0  0  0
    0.9267    1.0297   -1.6642 C   0  0  0  0  0  0  0  0  0  0  0  0
    2.2887    1.2442   -1.8662 C   0  0  0  0  0  0  0  0  0  0  0  0
    3.1317    1.4414   -0.7735 C   0  0  0  0  0  0  0  0  0  0  0  0
    4.4541    1.6318   -1.0673 O   0  0  0  0  0  0  0  0  0  0  0  0
    2.6291    1.4371    0.5360 C   0  0  0  0  0  0  0  0  0  0  0  0
    3.6211    1.7694    1.9852 S   0  0  0  0  0  0  0  0  0  0  0  0
    4.7078    0.4120    2.0001 C   0  0  0  0  0  0  0  0  0  0  0  0
    5.5665    0.1510    0.9624 N   0  0  0  0  0  0  0  0  0  0  0  0
    6.1973   -0.9257    1.3716 C   0  0  0  0  0  0  0  0  0  0  0  0
    5.7424   -1.2792    2.6032 N   0  0  0  0  0  0  0  0  0  0  0  0
    4.7994   -0.4271    3.0341 N   0  0  0  0  0  0  0  0  0  0  0  0
    1.2550    1.2270    0.7262 C   0  0  0  0  0  0  0  0  0  0  0  0
   -3.8573    0.4061   -3.3781 H   0  0  0  0  0  0  0  0  0  0  0  0
   -2.3750    0.7039   -2.4922 H   0  0  0  0  0  0  0  0  0  0  0  0
   -2.7350   -0.9320   -3.1274 H   0  0  0  0  0  0  0  0  0  0  0  0
   -5.8328   -0.0840   -2.2288 H   0  0  0  0  0  0  0  0  0  0  0  0
   -5.8463   -1.3862    1.8403 H   0  0  0  0  0  0  0  0  0  0  0  0
   -3.3711   -1.4715    1.8539 H   0  0  0  0  0  0  0  0  0  0  0  0
   -1.3111    1.1873    0.7130 H   0  0  0  0  0  0  0  0  0  0  0  0
    0.2777    0.8571   -2.5182 H   0  0  0  0  0  0  0  0  0  0  0  0
    2.6977    1.2451   -2.8730 H   0  0  0  0  0  0  0  0  0  0  0  0
    4.9794    1.3154   -0.3018 H   0  0  0  0  0  0  0  0  0  0  0  0
    6.9640   -1.4725    0.8408 H   0  0  0  0  0  0  0  0  0  0  0  0
    6.0196   -2.0569    3.1925 H   0  0  0  0  0  0  0  0  0  0  0  0
    0.8470    1.2088    1.7339 H   0  0  0  0  0  0  0  0  0  0  0  0
  1  2  1  0
  2  3  2  0
  3  4  1  0
  4  5  1  0
  4  6  2  0
  6  7  1  0
  7  8  2  0
  8  9  1  0
  9 10  2  0
  9 11  2  0
  9 12  1  0
 12 13  1  0
 13 14  2  0
 14 15  1  0
 15 16  2  0
 16 17  1  0
 16 18  1  0
 18 19  1  0
 19 20  1  0
 20 21  1  0
 21 22  2  0
 22 23  1  0
 23 24  1  0
 18 25  2  0
  8  2  1  0
 25 13  1  0
 24 20  2  0
  1 26  1  0
  1 27  1  0
  1 28  1  0
  3 29  1  0
  6 30  1  0
  7 31  1  0
 12 32  1  0
 14 33  1  0
 15 34  1  0
 17 35  1  0
 22 36  1  0
 23 37  1  0
 25 38  1  0
M  END
$$$$
