
     RDKit          3D

 32 32  0  0  0  0  0  0  0  0999 V2000
   -4.6059   -2.0197    1.4546 C   0  0  0  0  0  0  0  0  0  0  0  0
   -4.4307   -1.4722    0.3991 C   0  0  0  0  0  0  0  0  0  0  0  0
   -4.2219   -0.7913   -0.8904 C   0  0  0  0  0  0  0  0  0  0  0  0
   -3.1674    0.2346   -0.8047 N   0  0  0  0  0  0  0  0  0  0  0  0
   -3.2446    1.1052   -1.9823 C   0  0  0  0  0  0  0  0  0  0  0  0
   -1.8315   -0.3793   -0.6742 C   0  0  0  0  0  0  0  0  0  0  0  0
   -0.7476    0.6390   -0.3066 C   0  0  0  0  0  0  0  0  0  0  0  0
    0.5815   -0.0502   -0.0043 C   0  0  0  0  0  0  0  0  0  0  0  0
    1.5361    0.9640    0.3082 O   0  0  0  0  0  0  0  0  0  0  0  0
    2.7783    0.5725    0.7264 C   0  0  0  0  0  0  0  0  0  0  0  0
    3.2517   -0.7426    0.6793 C   0  0  0  0  0  0  0  0  0  0  0  0
    4.5380   -1.0470    1.1377 C   0  0  0  0  0  0  0  0  0  0  0  0
    5.3549   -0.0402    1.6441 C   0  0  0  0  0  0  0  0  0  0  0  0
    6.9255   -0.4268    2.2309 Cl  0  0  0  0  0  0  0  0  0  0  0  0
    4.9076    1.2754    1.6832 C   0  0  0  0  0  0  0  0  0  0  0  0
    3.6248    1.5788    1.2235 C   0  0  0  0  0  0  0  0  0  0  0  0
    3.1099    3.2287    1.3022 Cl  0  0  0  0  0  0  0  0  0  0  0  0
   -4.7596   -2.4915    2.3984 H   0  0  0  0  0  0  0  0  0  0  0  0
   -4.0046   -1.5227   -1.6830 H   0  0  0  0  0  0  0  0  0  0  0  0
   -5.1766   -0.3166   -1.1546 H   0  0  0  0  0  0  0  0  0  0  0  0
   -3.0204    0.5643   -2.9097 H   0  0  0  0  0  0  0  0  0  0  0  0
   -2.5598    1.9565   -1.9001 H   0  0  0  0  0  0  0  0  0  0  0  0
   -4.2470    1.5413   -2.0745 H   0  0  0  0  0  0  0  0  0  0  0  0
   -1.5542   -0.9038   -1.5984 H   0  0  0  0  0  0  0  0  0  0  0  0
   -1.8445   -1.1324    0.1243 H   0  0  0  0  0  0  0  0  0  0  0  0
   -0.5888    1.3625   -1.1146 H   0  0  0  0  0  0  0  0  0  0  0  0
   -1.0553    1.2253    0.5685 H   0  0  0  0  0  0  0  0  0  0  0  0
    0.9083   -0.6148   -0.8851 H   0  0  0  0  0  0  0  0  0  0  0  0
    0.4574   -0.7276    0.8504 H   0  0  0  0  0  0  0  0  0  0  0  0
    2.6466   -1.5547    0.2894 H   0  0  0  0  0  0  0  0  0  0  0  0
    4.8919   -2.0753    1.1016 H   0  0  0  0  0  0  0  0  0  0  0  0
    5.5478    2.0605    2.0765 H   0  0  0  0  0  0  0  0  0  0  0  0
  1  2  3  0
  2  3  1  0
  3  4  1  0
  4  5  1  0
  4  6  1  0
  6  7  1  0
  7  8  1  0
  8  9  1  0
  9 10  1  0
 10 11  2  0
 11 12  1  0
 12 13  2  0
 13 14  1  0
 13 15  1  0
 15 16  2  0
 16 17  1  0
 16 10  1  0
  1 18  1  0
  3 19  1  0
  3 20  1  0
  5 21  1  0
  5 22  1  0
  5 23  1  0
  6 24  1  0
  6 25  1  0
  7 26  1  0
  7 27  1  0
  8 28  1  0
  8 29  1  0
 11 30  1  0
 12 31  1  0
 15 32  1  0
M  END
$$$$
