
     RDKit          3D

 44 46  0  0  0  0  0  0  0  0999 V2000
   -3.9210    3.1720   -1.4564 C   0  0  0  0  0  0  0  0  0  0  0  0
   -4.6853    1.8544   -1.3047 C   0  0  0  0  0  0  0  0  0  0  0  0
   -5.4414    1.5107   -2.5904 C   0  0  0  0  0  0  0  0  0  0  0  0
   -3.7666    0.7218   -0.8779 C   0  0  0  0  0  0  0  0  0  0  0  0
   -3.9907    0.0683    0.3452 C   0  0  0  0  0  0  0  0  0  0  0  0
   -3.1607   -0.9751    0.7597 C   0  0  0  0  0  0  0  0  0  0  0  0
   -2.0921   -1.3662   -0.0490 C   0  0  0  0  0  0  0  0  0  0  0  0
   -1.0429   -2.6958    0.4756 S   0  0  0  0  0  6  0  0  0  0  0  0
   -0.2265   -3.1240   -0.6394 O   0  0  0  0  0  0  0  0  0  0  0  0
   -1.8692   -3.6412    1.1980 O   0  0  0  0  0  0  0  0  0  0  0  0
   -0.0595   -1.9579    1.6399 N   0  0  0  0  0  0  0  0  0  0  0  0
    1.0413   -1.1819    1.1841 C   0  0  0  0  0  0  0  0  0  0  0  0
    0.8604    0.1719    0.9125 C   0  0  0  0  0  0  0  0  0  0  0  0
    1.9266    0.9264    0.4274 C   0  0  0  0  0  0  0  0  0  0  0  0
    3.1675    0.3254    0.2178 C   0  0  0  0  0  0  0  0  0  0  0  0
    4.1531    1.1497   -0.2512 O   0  0  0  0  0  0  0  0  0  0  0  0
    3.3601   -1.0407    0.4728 C   0  0  0  0  0  0  0  0  0  0  0  0
    4.8802   -1.9159    0.1328 S   0  0  0  0  0  0  0  0  0  0  0  0
    5.9952   -1.1556    1.2285 C   0  0  0  0  0  0  0  0  0  0  0  0
    6.3099    0.1769    1.1421 N   0  0  0  0  0  0  0  0  0  0  0  0
    7.1838    0.3327    2.1099 C   0  0  0  0  0  0  0  0  0  0  0  0
    7.3843   -0.8565    2.7376 N   0  0  0  0  0  0  0  0  0  0  0  0
    6.6364   -1.8261    2.1884 N   0  0  0  0  0  0  0  0  0  0  0  0
    2.2766   -1.7909    0.9538 C   0  0  0  0  0  0  0  0  0  0  0  0
   -1.8613   -0.7413   -1.2757 C   0  0  0  0  0  0  0  0  0  0  0  0
   -2.6945    0.3022   -1.6831 C   0  0  0  0  0  0  0  0  0  0  0  0
   -3.3874    3.4235   -0.5330 H   0  0  0  0  0  0  0  0  0  0  0  0
   -4.6108    3.9933   -1.6792 H   0  0  0  0  0  0  0  0  0  0  0  0
   -3.1845    3.1282   -2.2661 H   0  0  0  0  0  0  0  0  0  0  0  0
   -5.4376    2.0080   -0.5196 H   0  0  0  0  0  0  0  0  0  0  0  0
   -4.7660    1.3962   -3.4452 H   0  0  0  0  0  0  0  0  0  0  0  0
   -6.1591    2.3005   -2.8375 H   0  0  0  0  0  0  0  0  0  0  0  0
   -5.9991    0.5742   -2.4779 H   0  0  0  0  0  0  0  0  0  0  0  0
   -4.8198    0.3661    0.9844 H   0  0  0  0  0  0  0  0  0  0  0  0
   -3.3520   -1.4747    1.7066 H   0  0  0  0  0  0  0  0  0  0  0  0
    0.1041   -2.5953    2.4187 H   0  0  0  0  0  0  0  0  0  0  0  0
   -0.1002    0.6506    1.0816 H   0  0  0  0  0  0  0  0  0  0  0  0
    1.7953    1.9841    0.2149 H   0  0  0  0  0  0  0  0  0  0  0  0
    5.0189    0.7604   -0.0063 H   0  0  0  0  0  0  0  0  0  0  0  0
    7.6878    1.2468    2.3911 H   0  0  0  0  0  0  0  0  0  0  0  0
    7.9948   -1.0778    3.5167 H   0  0  0  0  0  0  0  0  0  0  0  0
    2.3895   -2.8585    1.1281 H   0  0  0  0  0  0  0  0  0  0  0  0
   -1.0373   -1.0530   -1.9143 H   0  0  0  0  0  0  0  0  0  0  0  0
   -2.5003    0.7840   -2.6393 H   0  0  0  0  0  0  0  0  0  0  0  0
  1  2  1  0
  2  3  1  0
  2  4  1  0
  4  5  2  0
  5  6  1  0
  6  7  2  0
  7  8  1  0
  8  9  2  0
  8 10  2  0
  8 11  1  0
 11 12  1  0
 12 13  2  0
 13 14  1  0
 14 15  2  0
 15 16  1  0
 15 17  1  0
 17 18  1  0
 18 19  1  0
 19 20  1  0
 20 21  2  0
 21 22  1  0
 22 23  1  0
 17 24  2  0
  7 25  1  0
 25 26  2  0
 26  4  1  0
 24 12  1  0
 23 19  2  0
  1 27  1  0
  1 28  1  0
  1 29  1  0
  2 30  1  0
  3 31  1  0
  3 32  1  0
  3 33  1  0
  5 34  1  0
  6 35  1  0
 11 36  1  0
 13 37  1  0
 14 38  1  0
 16 39  1  0
 21 40  1  0
 22 41  1  0
 24 42  1  0
 25 43  1  0
 26 44  1  0
M  END
$$$$
