
     RDKit          3D

 40 41  0  0  0  0  0  0  0  0999 V2000
   -6.6417    1.8078   -0.8887 C   0  0  0  0  0  0  0  0  0  0  0  0
   -5.9361    2.6838   -0.0183 O   0  0  0  0  0  0  0  0  0  0  0  0
   -4.6548    2.3351    0.3062 C   0  0  0  0  0  0  0  0  0  0  0  0
   -3.9772    1.1968   -0.1323 C   0  0  0  0  0  0  0  0  0  0  0  0
   -2.6591    0.9580    0.2783 C   0  0  0  0  0  0  0  0  0  0  0  0
   -2.0082    1.8583    1.1323 C   0  0  0  0  0  0  0  0  0  0  0  0
   -0.6096    1.6511    1.5958 C   0  0  0  0  0  0  0  0  0  0  0  0
   -0.0137    2.4207    2.3325 O   0  0  0  0  0  0  0  0  0  0  0  0
   -0.1041    0.5029    1.0883 O   0  0  0  0  0  0  0  0  0  0  0  0
    1.2395    0.2409    1.4855 C   0  0  0  0  0  0  0  0  0  0  0  0
    1.7149   -1.0863    0.8986 C   0  0  0  0  0  0  0  0  0  0  0  0
    0.9922   -1.8518    0.2624 O   0  0  0  0  0  0  0  0  0  0  0  0
    3.0531   -1.3421    1.1092 N   0  0  0  0  0  0  0  0  0  0  0  0
    3.6845   -2.6081    0.7635 C   0  0  0  0  0  0  0  0  0  0  0  0
    3.4822   -3.0964   -0.6819 C   0  0  0  0  0  0  0  0  0  0  0  0
    3.7496   -2.0788   -1.6809 N   0  0  0  0  0  0  0  0  0  0  0  0
    2.8115   -1.4980   -2.5017 C   0  0  0  0  0  0  0  0  0  0  0  0
    1.4822   -1.7792   -2.3915 O   0  0  0  0  0  0  0  0  0  0  0  0
    3.3113   -0.6439   -3.3992 C   0  0  0  0  0  0  0  0  0  0  0  0
    5.0338   -0.4978   -3.2497 S   0  0  0  0  0  0  0  0  0  0  0  0
    5.0546   -1.6687   -1.9208 C   0  0  0  0  0  0  0  0  0  0  0  0
    6.0683   -2.0236   -1.3406 O   0  0  0  0  0  0  0  0  0  0  0  0
   -2.6897    2.9988    1.5705 C   0  0  0  0  0  0  0  0  0  0  0  0
   -4.0045    3.2317    1.1580 C   0  0  0  0  0  0  0  0  0  0  0  0
   -6.7657    0.8181   -0.4367 H   0  0  0  0  0  0  0  0  0  0  0  0
   -6.1488    1.7390   -1.8640 H   0  0  0  0  0  0  0  0  0  0  0  0
   -7.6394    2.2279   -1.0488 H   0  0  0  0  0  0  0  0  0  0  0  0
   -4.4424    0.4733   -0.7942 H   0  0  0  0  0  0  0  0  0  0  0  0
   -2.1550    0.0625   -0.0795 H   0  0  0  0  0  0  0  0  0  0  0  0
    1.3010    0.1670    2.5774 H   0  0  0  0  0  0  0  0  0  0  0  0
    1.8961    1.0367    1.1150 H   0  0  0  0  0  0  0  0  0  0  0  0
    3.5734   -0.7220    1.7194 H   0  0  0  0  0  0  0  0  0  0  0  0
    3.3086   -3.3658    1.4599 H   0  0  0  0  0  0  0  0  0  0  0  0
    4.7529   -2.4779    0.9669 H   0  0  0  0  0  0  0  0  0  0  0  0
    2.4815   -3.5164   -0.8202 H   0  0  0  0  0  0  0  0  0  0  0  0
    4.1787   -3.9263   -0.8582 H   0  0  0  0  0  0  0  0  0  0  0  0
    1.2817   -1.9644   -1.4491 H   0  0  0  0  0  0  0  0  0  0  0  0
    2.7296   -0.0962   -4.1268 H   0  0  0  0  0  0  0  0  0  0  0  0
   -2.2041    3.7121    2.2336 H   0  0  0  0  0  0  0  0  0  0  0  0
   -4.5270    4.1211    1.5034 H   0  0  0  0  0  0  0  0  0  0  0  0
  1  2  1  0
  2  3  1  0
  3  4  2  0
  4  5  1  0
  5  6  2  0
  6  7  1  0
  7  8  2  0
  7  9  1  0
  9 10  1  0
 10 11  1  0
 11 12  2  0
 11 13  1  0
 13 14  1  0
 14 15  1  0
 15 16  1  0
 16 17  1  0
 17 18  1  0
 17 19  2  0
 19 20  1  0
 20 21  1  0
 21 22  2  0
  6 23  1  0
 23 24  2  0
 24  3  1  0
 21 16  1  0
  1 25  1  0
  1 26  1  0
  1 27  1  0
  4 28  1  0
  5 29  1  0
 10 30  1  0
 10 31  1  0
 13 32  1  0
 14 33  1  0
 14 34  1  0
 15 35  1  0
 15 36  1  0
 18 37  1  0
 19 38  1  0
 23 39  1  0
 24 40  1  0
M  END
$$$$
