
     RDKit          3D

 36 35  0  0  0  0  0  0  0  0999 V2000
    2.2505   -0.1247    0.9328 C   0  0  0  0  0  0  0  0  0  0  0  0
    2.7424   -1.2836    0.0833 C   0  0  0  0  0  0  0  0  0  0  0  0
    2.5543   -1.0751   -1.3651 N   0  0  0  0  0  0  0  0  0  0  0  0
    3.6148   -0.2885   -2.0266 C   0  0  0  0  0  0  0  0  0  0  0  0
    3.2107    1.1540   -2.2971 C   0  0  0  0  0  0  0  0  0  0  0  0
    1.4564   -1.5881   -2.0958 C   0  0  0  0  0  0  0  0  0  0  0  0
    1.3801   -1.6638   -3.7836 S   0  0  0  0  0  0  0  0  0  0  0  0
    0.1253   -2.2746   -1.1313 S   0  0  0  0  0  0  0  0  0  0  0  0
   -1.5349   -1.2094   -1.7523 S   0  0  0  0  0  0  0  0  0  0  0  0
   -1.4284    0.2483   -0.7475 C   0  0  0  0  0  0  0  0  0  0  0  0
   -0.8029    1.6438   -1.4613 S   0  0  0  0  0  0  0  0  0  0  0  0
   -1.8941    0.1512    0.5834 N   0  0  0  0  0  0  0  0  0  0  0  0
   -2.7096   -0.9769    1.0747 C   0  0  0  0  0  0  0  0  0  0  0  0
   -4.1578   -0.9213    0.6062 C   0  0  0  0  0  0  0  0  0  0  0  0
   -1.7031    1.2548    1.5433 C   0  0  0  0  0  0  0  0  0  0  0  0
   -2.8837    2.2104    1.6136 C   0  0  0  0  0  0  0  0  0  0  0  0
    1.1929    0.0804    0.7573 H   0  0  0  0  0  0  0  0  0  0  0  0
    2.3784   -0.3564    1.9950 H   0  0  0  0  0  0  0  0  0  0  0  0
    2.8124    0.7894    0.7232 H   0  0  0  0  0  0  0  0  0  0  0  0
    2.2520   -2.2068    0.4036 H   0  0  0  0  0  0  0  0  0  0  0  0
    3.8097   -1.4515    0.2707 H   0  0  0  0  0  0  0  0  0  0  0  0
    3.9019   -0.7736   -2.9647 H   0  0  0  0  0  0  0  0  0  0  0  0
    4.5133   -0.2982   -1.3992 H   0  0  0  0  0  0  0  0  0  0  0  0
    2.3452    1.2168   -2.9619 H   0  0  0  0  0  0  0  0  0  0  0  0
    2.9562    1.6784   -1.3723 H   0  0  0  0  0  0  0  0  0  0  0  0
    4.0374    1.6919   -2.7719 H   0  0  0  0  0  0  0  0  0  0  0  0
   -2.6827   -0.9834    2.1704 H   0  0  0  0  0  0  0  0  0  0  0  0
   -2.2607   -1.9236    0.7639 H   0  0  0  0  0  0  0  0  0  0  0  0
   -4.6641   -0.0246    0.9719 H   0  0  0  0  0  0  0  0  0  0  0  0
   -4.7062   -1.7910    0.9821 H   0  0  0  0  0  0  0  0  0  0  0  0
   -4.2368   -0.9189   -0.4844 H   0  0  0  0  0  0  0  0  0  0  0  0
   -1.5116    0.8226    2.5325 H   0  0  0  0  0  0  0  0  0  0  0  0
   -0.7983    1.8164    1.2924 H   0  0  0  0  0  0  0  0  0  0  0  0
   -3.1629    2.5847    0.6243 H   0  0  0  0  0  0  0  0  0  0  0  0
   -3.7600    1.7232    2.0499 H   0  0  0  0  0  0  0  0  0  0  0  0
   -2.6360    3.0676    2.2478 H   0  0  0  0  0  0  0  0  0  0  0  0
  1  2  1  0
  2  3  1  0
  3  4  1  0
  4  5  1  0
  3  6  1  0
  6  7  2  0
  6  8  1  0
  8  9  1  0
  9 10  1  0
 10 11  2  0
 10 12  1  0
 12 13  1  0
 13 14  1  0
 12 15  1  0
 15 16  1  0
  1 17  1  0
  1 18  1  0
  1 19  1  0
  2 20  1  0
  2 21  1  0
  4 22  1  0
  4 23  1  0
  5 24  1  0
  5 25  1  0
  5 26  1  0
 13 27  1  0
 13 28  1  0
 14 29  1  0
 14 30  1  0
 14 31  1  0
 15 32  1  0
 15 33  1  0
 16 34  1  0
 16 35  1  0
 16 36  1  0
M  END
$$$$
