
     RDKit          3D

 53 58  0  0  0  0  0  0  0  0999 V2000
   -1.8072   -0.8463    1.6187 O   0  0  0  0  0  0  0  0  0  0  0  0
   -1.8091   -0.7956    0.3872 C   0  0  0  0  0  0  0  0  0  0  0  0
   -0.7383   -1.5902   -0.3886 C   0  0  0  0  0  0  0  0  0  0  0  0
    0.5968   -1.2962    0.1653 N   0  0  0  0  0  4  0  0  0  0  0  0
    1.5463   -0.4222   -0.3603 C   0  0  0  0  0  0  0  0  0  0  0  0
    2.6303   -0.3558    0.5094 C   0  0  0  0  0  0  0  0  0  0  0  0
    3.9121    0.5390    0.3324 C   0  0  0  0  0  0  0  0  0  0  0  0
    4.8809    0.6057    1.3341 C   0  0  0  0  0  0  0  0  0  0  0  0
    6.0100    1.4151    1.1648 C   0  0  0  0  0  0  0  0  0  0  0  0
    6.1798    2.1607   -0.0046 C   0  0  0  0  0  0  0  0  0  0  0  0
    7.5952    3.1367   -0.1417 Cl  0  0  0  0  0  0  0  0  0  0  0  0
    5.2106    2.0974   -1.0076 C   0  0  0  0  0  0  0  0  0  0  0  0
    5.3440    2.9847   -2.4838 Cl  0  0  0  0  0  0  0  0  0  0  0  0
    4.0785    1.2901   -0.8379 C   0  0  0  0  0  0  0  0  0  0  0  0
    2.2810   -1.2339    1.5196 N   0  0  0  0  0  0  0  0  0  0  0  0
    1.0685   -1.7500    1.3231 C   0  0  0  0  0  0  0  0  0  0  0  0
    0.6465   -2.6718    2.4035 C   0  0  0  0  0  0  0  0  0  0  0  0
    1.9766   -2.9244    3.1412 C   0  0  0  0  0  0  0  0  0  0  0  0
    2.8796   -1.7214    2.7547 C   0  0  0  0  0  0  0  0  0  0  0  0
   -2.6157    0.0229   -0.4173 N   0  0  0  0  0  0  0  0  0  0  0  0
   -2.8958    1.3972   -0.0622 C   0  0  0  0  0  0  0  0  0  0  0  0
   -2.7382    1.8568    1.2608 C   0  0  0  0  0  0  0  0  0  0  0  0
   -2.9833    3.1885    1.6198 C   0  0  0  0  0  0  0  0  0  0  0  0
   -3.3699    4.1077    0.6598 C   0  0  0  0  0  0  0  0  0  0  0  0
   -3.5186    3.6903   -0.6585 C   0  0  0  0  0  0  0  0  0  0  0  0
   -3.2849    2.3518   -1.0227 C   0  0  0  0  0  0  0  0  0  0  0  0
   -3.3807    1.9906   -2.7577 S   0  0  0  0  0  0  0  0  0  0  0  0
   -3.6567    0.2482   -2.6818 C   0  0  0  0  0  0  0  0  0  0  0  0
   -4.2619   -0.3525   -3.7980 C   0  0  0  0  0  0  0  0  0  0  0  0
   -4.5095   -1.7220   -3.8242 C   0  0  0  0  0  0  0  0  0  0  0  0
   -4.1653   -2.5006   -2.7288 C   0  0  0  0  0  0  0  0  0  0  0  0
   -3.5517   -1.9103   -1.6211 C   0  0  0  0  0  0  0  0  0  0  0  0
   -3.2602   -0.5285   -1.5846 C   0  0  0  0  0  0  0  0  0  0  0  0
   -0.7201   -1.3394   -1.4530 H   0  0  0  0  0  0  0  0  0  0  0  0
   -0.9316   -2.6595   -0.2734 H   0  0  0  0  0  0  0  0  0  0  0  0
    1.3159    0.0686   -1.2901 H   0  0  0  0  0  0  0  0  0  0  0  0
    4.7842    0.0620    2.2660 H   0  0  0  0  0  0  0  0  0  0  0  0
    6.7578    1.4685    1.9538 H   0  0  0  0  0  0  0  0  0  0  0  0
    3.3454    1.2605   -1.6383 H   0  0  0  0  0  0  0  0  0  0  0  0
   -0.0689   -2.1315    3.0246 H   0  0  0  0  0  0  0  0  0  0  0  0
    0.2138   -3.5698    1.9598 H   0  0  0  0  0  0  0  0  0  0  0  0
    1.8535   -3.0354    4.2218 H   0  0  0  0  0  0  0  0  0  0  0  0
    2.4294   -3.8458    2.7547 H   0  0  0  0  0  0  0  0  0  0  0  0
    2.8257   -0.9305    3.5070 H   0  0  0  0  0  0  0  0  0  0  0  0
    3.9118   -2.0384    2.5922 H   0  0  0  0  0  0  0  0  0  0  0  0
   -2.4613    1.1957    2.0756 H   0  0  0  0  0  0  0  0  0  0  0  0
   -2.8699    3.5020    2.6561 H   0  0  0  0  0  0  0  0  0  0  0  0
   -3.5577    5.1438    0.9320 H   0  0  0  0  0  0  0  0  0  0  0  0
   -3.8029    4.4256   -1.4099 H   0  0  0  0  0  0  0  0  0  0  0  0
   -4.5542    0.2499   -4.6572 H   0  0  0  0  0  0  0  0  0  0  0  0
   -4.9942   -2.1710   -4.6892 H   0  0  0  0  0  0  0  0  0  0  0  0
   -4.3975   -3.5634   -2.7285 H   0  0  0  0  0  0  0  0  0  0  0  0
   -3.3686   -2.5535   -0.7637 H   0  0  0  0  0  0  0  0  0  0  0  0
  1  2  2  0
  2  3  1  0
  3  4  1  0
  4  5  1  0
  5  6  2  0
  6  7  1  0
  7  8  2  0
  8  9  1  0
  9 10  2  0
 10 11  1  0
 10 12  1  0
 12 13  1  0
 12 14  2  0
  6 15  1  0
 15 16  1  0
 16 17  1  0
 17 18  1  0
 18 19  1  0
  2 20  1  0
 20 21  1  0
 21 22  2  0
 22 23  1  0
 23 24  2  0
 24 25  1  0
 25 26  2  0
 26 27  1  0
 27 28  1  0
 28 29  2  0
 29 30  1  0
 30 31  2  0
 31 32  1  0
 32 33  2  0
 16  4  2  0
 33 20  1  0
 14  7  1  0
 19 15  1  0
 26 21  1  0
 33 28  1  0
  3 34  1  0
  3 35  1  0
  5 36  1  0
  8 37  1  0
  9 38  1  0
 14 39  1  0
 17 40  1  0
 17 41  1  0
 18 42  1  0
 18 43  1  0
 19 44  1  0
 19 45  1  0
 22 46  1  0
 23 47  1  0
 24 48  1  0
 25 49  1  0
 29 50  1  0
 30 51  1  0
 31 52  1  0
 32 53  1  0
M  CHG  1   4   1
M  END
$$$$
