
     RDKit          3D

 42 44  0  0  0  0  0  0  0  0999 V2000
   -3.9219   -0.2598    4.0674 C   0  0  0  0  0  0  0  0  0  0  0  0
   -2.6444    0.2016    3.6465 O   0  0  0  0  0  0  0  0  0  0  0  0
   -2.4151    0.2521    2.2995 C   0  0  0  0  0  0  0  0  0  0  0  0
   -3.3217   -0.1053    1.2987 C   0  0  0  0  0  0  0  0  0  0  0  0
   -2.9573   -0.0082   -0.0487 C   0  0  0  0  0  0  0  0  0  0  0  0
   -1.6780    0.4387   -0.3914 C   0  0  0  0  0  0  0  0  0  0  0  0
   -1.2248    0.5866   -2.1060 S   0  0  0  0  0  6  0  0  0  0  0  0
   -0.2967    1.6919   -2.2248 O   0  0  0  0  0  0  0  0  0  0  0  0
   -2.4498    0.5634   -2.8795 O   0  0  0  0  0  0  0  0  0  0  0  0
   -0.4439   -0.8765   -2.4410 N   0  0  0  0  0  0  0  0  0  0  0  0
    0.6797   -1.2718   -1.6569 C   0  0  0  0  0  0  0  0  0  0  0  0
    1.8465   -0.5021   -1.7135 C   0  0  0  0  0  0  0  0  0  0  0  0
    2.9339   -0.7775   -0.8762 C   0  0  0  0  0  0  0  0  0  0  0  0
    4.4086    0.2372   -0.8962 S   0  0  0  0  0  0  0  0  0  0  0  0
    3.7538    1.8521   -1.0069 C   0  0  0  0  0  0  0  0  0  0  0  0
    4.2015    2.7637   -1.9239 N   0  0  0  0  0  0  0  0  0  0  0  0
    3.3861    3.7776   -1.7543 C   0  0  0  0  0  0  0  0  0  0  0  0
    2.4982    3.4857   -0.7685 N   0  0  0  0  0  0  0  0  0  0  0  0
    2.7425    2.2756   -0.2394 N   0  0  0  0  0  0  0  0  0  0  0  0
    2.8479   -1.8804   -0.0219 C   0  0  0  0  0  0  0  0  0  0  0  0
    3.8684   -2.2290    0.8212 O   0  0  0  0  0  0  0  0  0  0  0  0
    1.7066   -2.6801    0.0119 C   0  0  0  0  0  0  0  0  0  0  0  0
    0.6045   -2.3851   -0.8045 C   0  0  0  0  0  0  0  0  0  0  0  0
   -0.6155   -3.2579   -0.7277 C   0  0  0  0  0  0  0  0  0  0  0  0
   -0.7740    0.8209    0.6011 C   0  0  0  0  0  0  0  0  0  0  0  0
   -1.1446    0.7156    1.9426 C   0  0  0  0  0  0  0  0  0  0  0  0
   -4.0930   -1.2933    3.7484 H   0  0  0  0  0  0  0  0  0  0  0  0
   -3.9403   -0.2417    5.1614 H   0  0  0  0  0  0  0  0  0  0  0  0
   -4.7178    0.4019    3.7099 H   0  0  0  0  0  0  0  0  0  0  0  0
   -4.3208   -0.4583    1.5329 H   0  0  0  0  0  0  0  0  0  0  0  0
   -3.6774   -0.2797   -0.8177 H   0  0  0  0  0  0  0  0  0  0  0  0
   -1.0939   -1.5953   -2.7515 H   0  0  0  0  0  0  0  0  0  0  0  0
    1.8954    0.3328   -2.4094 H   0  0  0  0  0  0  0  0  0  0  0  0
    3.3829    4.7085   -2.3028 H   0  0  0  0  0  0  0  0  0  0  0  0
    1.7235    4.0387   -0.4186 H   0  0  0  0  0  0  0  0  0  0  0  0
    4.5730   -1.5649    0.7030 H   0  0  0  0  0  0  0  0  0  0  0  0
    1.6828   -3.5293    0.6915 H   0  0  0  0  0  0  0  0  0  0  0  0
   -1.4731   -2.6878   -0.3603 H   0  0  0  0  0  0  0  0  0  0  0  0
   -0.4643   -4.1023   -0.0466 H   0  0  0  0  0  0  0  0  0  0  0  0
   -0.8488   -3.6728   -1.7134 H   0  0  0  0  0  0  0  0  0  0  0  0
    0.2175    1.1883    0.3469 H   0  0  0  0  0  0  0  0  0  0  0  0
   -0.4362    0.9986    2.7186 H   0  0  0  0  0  0  0  0  0  0  0  0
  1  2  1  0
  2  3  1  0
  3  4  2  0
  4  5  1  0
  5  6  2  0
  6  7  1  0
  7  8  2  0
  7  9  2  0
  7 10  1  0
 10 11  1  0
 11 12  2  0
 12 13  1  0
 13 14  1  0
 14 15  1  0
 15 16  1  0
 16 17  2  0
 17 18  1  0
 18 19  1  0
 13 20  2  0
 20 21  1  0
 20 22  1  0
 22 23  2  0
 23 24  1  0
  6 25  1  0
 25 26  2  0
 26  3  1  0
 23 11  1  0
 19 15  2  0
  1 27  1  0
  1 28  1  0
  1 29  1  0
  4 30  1  0
  5 31  1  0
 10 32  1  0
 12 33  1  0
 17 34  1  0
 18 35  1  0
 21 36  1  0
 22 37  1  0
 24 38  1  0
 24 39  1  0
 24 40  1  0
 25 41  1  0
 26 42  1  0
M  END
$$$$
