
     RDKit          3D

 57 59  0  0  0  0  0  0  0  0999 V2000
   -3.0974   -3.3446   -0.9854 C   0  0  0  0  0  0  0  0  0  0  0  0
   -2.8111   -1.9537   -1.5477 C   0  0  0  0  0  0  0  0  0  0  0  0
   -3.5916   -0.8498   -0.9684 N   0  0  0  0  0  0  0  0  0  0  0  0
   -5.0373   -1.0221   -1.1603 C   0  0  0  0  0  0  0  0  0  0  0  0
   -5.8197    0.2695   -0.9424 C   0  0  0  0  0  0  0  0  0  0  0  0
   -3.2099   -0.5629    0.4291 C   0  0  0  0  0  0  0  0  0  0  0  0
   -2.7141    0.8842    0.5822 C   0  0  0  0  0  0  0  0  0  0  0  0
   -1.3900    0.9885    0.0338 O   0  0  0  0  0  0  0  0  0  0  0  0
   -0.8537    2.2406    0.2088 C   0  0  0  0  0  0  0  0  0  0  0  0
   -1.2772    3.3295   -0.4682 C   0  0  0  0  0  0  0  0  0  0  0  0
   -0.5910    4.6353   -0.1894 C   0  0  2  0  0  0  0  0  0  0  0  0
   -0.7028    5.6038   -1.2196 O   0  0  0  0  0  0  0  0  0  0  0  0
    0.2526    6.5577   -0.9423 C   0  0  0  0  0  0  0  0  0  0  0  0
    0.3036    7.6414   -1.5000 O   0  0  0  0  0  0  0  0  0  0  0  0
    1.4593    6.0580    0.2676 S   0  0  0  0  0  0  0  0  0  0  0  0
    0.9086    4.3826    0.0116 C   0  0  1  0  0  0  0  0  0  0  0  0
    1.1465    3.3664    1.0759 C   0  0  0  0  0  0  0  0  0  0  0  0
    0.2879    2.3219    1.1261 C   0  0  0  0  0  0  0  0  0  0  0  0
    0.5092    1.2728    2.1557 C   0  0  0  0  0  0  0  0  0  0  0  0
   -0.1505    1.2553    3.1917 O   0  0  0  0  0  0  0  0  0  0  0  0
    1.5686    0.2542    1.9253 C   0  0  0  0  0  0  0  0  0  0  0  0
    2.1833    0.0342    0.7527 C   0  0  0  0  0  0  0  0  0  0  0  0
    3.2323   -0.9781    0.5557 C   0  0  0  0  0  0  0  0  0  0  0  0
    3.2250   -2.2133    1.2161 C   0  0  0  0  0  0  0  0  0  0  0  0
    4.2346   -3.1592    0.9846 C   0  0  0  0  0  0  0  0  0  0  0  0
    5.2583   -2.8875    0.0776 C   0  0  0  0  0  0  0  0  0  0  0  0
    6.2991   -3.7174   -0.2389 O   0  0  0  0  0  0  0  0  0  0  0  0
    6.3451   -4.9728    0.4274 C   0  0  0  0  0  0  0  0  0  0  0  0
    5.2594   -1.6658   -0.5970 C   0  0  0  0  0  0  0  0  0  0  0  0
    4.2530   -0.7209   -0.3667 C   0  0  0  0  0  0  0  0  0  0  0  0
   -4.1264   -3.6578   -1.1893 H   0  0  0  0  0  0  0  0  0  0  0  0
   -2.9314   -3.3911    0.0948 H   0  0  0  0  0  0  0  0  0  0  0  0
   -2.4323   -4.0771   -1.4558 H   0  0  0  0  0  0  0  0  0  0  0  0
   -2.9841   -1.9749   -2.6319 H   0  0  0  0  0  0  0  0  0  0  0  0
   -1.7411   -1.7345   -1.4345 H   0  0  0  0  0  0  0  0  0  0  0  0
   -5.2320   -1.3416   -2.1917 H   0  0  0  0  0  0  0  0  0  0  0  0
   -5.4362   -1.8038   -0.5016 H   0  0  0  0  0  0  0  0  0  0  0  0
   -5.7561    0.6175    0.0932 H   0  0  0  0  0  0  0  0  0  0  0  0
   -6.8780    0.1043   -1.1693 H   0  0  0  0  0  0  0  0  0  0  0  0
   -5.4559    1.0665   -1.5987 H   0  0  0  0  0  0  0  0  0  0  0  0
   -2.4072   -1.2304    0.7674 H   0  0  0  0  0  0  0  0  0  0  0  0
   -4.0535   -0.7314    1.1089 H   0  0  0  0  0  0  0  0  0  0  0  0
   -2.6803    1.1303    1.6513 H   0  0  0  0  0  0  0  0  0  0  0  0
   -3.3969    1.5839    0.0859 H   0  0  0  0  0  0  0  0  0  0  0  0
   -2.1066    3.2871   -1.1654 H   0  0  0  0  0  0  0  0  0  0  0  0
   -1.0841    5.0501    0.7055 H   0  0  0  0  0  0  0  0  0  0  0  0
    1.3860    4.0380   -0.9164 H   0  0  0  0  0  0  0  0  0  0  0  0
    1.9997    3.4485    1.7413 H   0  0  0  0  0  0  0  0  0  0  0  0
    1.7966   -0.3313    2.8112 H   0  0  0  0  0  0  0  0  0  0  0  0
    1.9392    0.6198   -0.1305 H   0  0  0  0  0  0  0  0  0  0  0  0
    2.4317   -2.4646    1.9164 H   0  0  0  0  0  0  0  0  0  0  0  0
    4.1850   -4.0975    1.5264 H   0  0  0  0  0  0  0  0  0  0  0  0
    7.2271   -5.5112    0.0669 H   0  0  0  0  0  0  0  0  0  0  0  0
    6.4540   -4.8414    1.5087 H   0  0  0  0  0  0  0  0  0  0  0  0
    5.4652   -5.5788    0.1892 H   0  0  0  0  0  0  0  0  0  0  0  0
    6.0508   -1.4468   -1.3112 H   0  0  0  0  0  0  0  0  0  0  0  0
    4.2867    0.2202   -0.9105 H   0  0  0  0  0  0  0  0  0  0  0  0
  1  2  1  0
  2  3  1  0
  3  4  1  0
  4  5  1  0
  3  6  1  0
  6  7  1  0
  7  8  1  0
  8  9  1  0
  9 10  2  0
 10 11  1  0
 11 12  1  0
 12 13  1  0
 13 14  2  0
 13 15  1  0
 15 16  1  0
 16 17  1  0
 17 18  2  0
 18 19  1  0
 19 20  2  0
 19 21  1  0
 21 22  2  0
 22 23  1  0
 23 24  2  0
 24 25  1  0
 25 26  2  0
 26 27  1  0
 27 28  1  0
 26 29  1  0
 29 30  2  0
 18  9  1  0
 30 23  1  0
 16 11  1  0
  1 31  1  0
  1 32  1  0
  1 33  1  0
  2 34  1  0
  2 35  1  0
  4 36  1  0
  4 37  1  0
  5 38  1  0
  5 39  1  0
  5 40  1  0
  6 41  1  0
  6 42  1  0
  7 43  1  0
  7 44  1  0
 10 45  1  0
 11 46  1  1
 16 47  1  6
 17 48  1  0
 21 49  1  0
 22 50  1  0
 24 51  1  0
 25 52  1  0
 28 53  1  0
 28 54  1  0
 28 55  1  0
 29 56  1  0
 30 57  1  0
M  END
$$$$
