
     RDKit          3D

 55 60  0  0  0  0  0  0  0  0999 V2000
    4.3619    2.3223   -0.9081 O   0  0  0  0  0  0  0  0  0  0  0  0
    3.6411    2.0456    0.0489 C   0  0  0  0  0  0  0  0  0  0  0  0
    3.4812    3.0044    1.1324 C   0  0  0  0  0  0  0  0  0  0  0  0
    3.4677    2.8355    2.5476 C   0  0  0  0  0  0  0  0  0  0  0  0
    3.3222    4.0893    3.0934 C   0  0  0  0  0  0  0  0  0  0  0  0
    3.2707    5.0271    2.1155 O   0  0  0  0  0  0  0  0  0  0  0  0
    3.3892    4.3688    0.9351 C   0  0  0  0  0  0  0  0  0  0  0  0
    2.9499    0.8261    0.1264 N   0  0  0  0  0  0  0  0  0  0  0  0
    1.7639    0.6449    0.9625 C   0  0  0  0  0  0  0  0  0  0  0  0
    1.0505   -0.6755    0.6854 C   0  0  0  0  0  0  0  0  0  0  0  0
    0.6706   -0.8862   -0.8103 C   0  0  0  0  0  0  0  0  0  0  0  0
    1.7844   -0.2701   -1.7191 C   0  0  0  0  0  0  0  0  0  0  0  0
    3.1071   -0.1192   -0.9752 C   0  0  0  0  0  0  0  0  0  0  0  0
    0.6752   -2.3335   -0.9698 O   0  0  0  0  0  0  0  0  0  0  0  0
    0.1568   -2.8139   -2.1409 C   0  0  0  0  0  0  0  0  0  0  0  0
    0.4794   -4.1317   -2.4618 C   0  0  0  0  0  0  0  0  0  0  0  0
    0.0161   -4.6930   -3.6543 C   0  0  0  0  0  0  0  0  0  0  0  0
   -0.7727   -3.9349   -4.5205 C   0  0  0  0  0  0  0  0  0  0  0  0
   -1.3380   -4.6324   -5.9870 Cl  0  0  0  0  0  0  0  0  0  0  0  0
   -1.1127   -2.6229   -4.2014 C   0  0  0  0  0  0  0  0  0  0  0  0
   -0.6517   -2.0717   -3.0021 C   0  0  0  0  0  0  0  0  0  0  0  0
   -1.0377   -0.7027   -2.6105 C   0  0  0  0  0  0  0  0  0  0  0  0
   -1.6065    0.0237   -3.4177 O   0  0  0  0  0  0  0  0  0  0  0  0
   -0.7417   -0.3317   -1.1609 C   0  0  0  0  0  0  0  0  0  0  0  0
   -1.9006   -0.8583   -0.3177 C   0  0  0  0  0  0  0  0  0  0  0  0
   -2.1627    0.3447    0.5182 C   0  0  0  0  0  0  0  0  0  0  0  0
   -3.0790    0.3118    1.6823 C   0  0  0  0  0  0  0  0  0  0  0  0
   -3.7983   -0.8422    2.0163 C   0  0  0  0  0  0  0  0  0  0  0  0
   -4.6491   -0.8389    3.1268 C   0  0  0  0  0  0  0  0  0  0  0  0
   -4.7828    0.3140    3.8998 C   0  0  0  0  0  0  0  0  0  0  0  0
   -5.8302    0.3107    5.2639 Cl  0  0  0  0  0  0  0  0  0  0  0  0
   -4.0747    1.4675    3.5716 C   0  0  0  0  0  0  0  0  0  0  0  0
   -3.2232    1.4667    2.4635 C   0  0  0  0  0  0  0  0  0  0  0  0
   -1.5252    1.4086    0.1526 N   0  0  0  0  0  0  0  0  0  0  0  0
   -0.7782    1.0880   -1.0031 O   0  0  0  0  0  0  0  0  0  0  0  0
    3.5757    1.9172    3.1058 H   0  0  0  0  0  0  0  0  0  0  0  0
    3.2603    4.4659    4.1049 H   0  0  0  0  0  0  0  0  0  0  0  0
    3.3881    4.9897    0.0494 H   0  0  0  0  0  0  0  0  0  0  0  0
    1.0989    1.4992    0.8084 H   0  0  0  0  0  0  0  0  0  0  0  0
    2.0742    0.6490    2.0098 H   0  0  0  0  0  0  0  0  0  0  0  0
    1.7140   -1.4938    1.0027 H   0  0  0  0  0  0  0  0  0  0  0  0
    0.1826   -0.7711    1.3445 H   0  0  0  0  0  0  0  0  0  0  0  0
    1.9634   -0.8876   -2.6060 H   0  0  0  0  0  0  0  0  0  0  0  0
    1.4828    0.7228   -2.0752 H   0  0  0  0  0  0  0  0  0  0  0  0
    3.8890    0.2017   -1.6702 H   0  0  0  0  0  0  0  0  0  0  0  0
    3.4342   -1.0776   -0.5553 H   0  0  0  0  0  0  0  0  0  0  0  0
    1.1030   -4.7208   -1.7932 H   0  0  0  0  0  0  0  0  0  0  0  0
    0.2775   -5.7187   -3.9046 H   0  0  0  0  0  0  0  0  0  0  0  0
   -1.7362   -2.0366   -4.8730 H   0  0  0  0  0  0  0  0  0  0  0  0
   -2.7995   -1.0767   -0.9050 H   0  0  0  0  0  0  0  0  0  0  0  0
   -1.6420   -1.7344    0.2814 H   0  0  0  0  0  0  0  0  0  0  0  0
   -3.7224   -1.7526    1.4291 H   0  0  0  0  0  0  0  0  0  0  0  0
   -5.2073   -1.7366    3.3824 H   0  0  0  0  0  0  0  0  0  0  0  0
   -4.1809    2.3701    4.1685 H   0  0  0  0  0  0  0  0  0  0  0  0
   -2.6783    2.3762    2.2133 H   0  0  0  0  0  0  0  0  0  0  0  0
  1  2  2  0
  2  3  1  0
  3  4  1  0
  4  5  2  0
  5  6  1  0
  6  7  1  0
  2  8  1  0
  8  9  1  0
  9 10  1  0
 10 11  1  0
 11 12  1  0
 12 13  1  0
 11 14  1  0
 14 15  1  0
 15 16  2  0
 16 17  1  0
 17 18  2  0
 18 19  1  0
 18 20  1  0
 20 21  2  0
 21 22  1  0
 22 23  2  0
 22 24  1  0
 24 25  1  0
 25 26  1  0
 26 27  1  0
 27 28  2  0
 28 29  1  0
 29 30  2  0
 30 31  1  0
 30 32  1  0
 32 33  2  0
 26 34  2  0
 34 35  1  0
  7  3  2  0
 13  8  1  0
 21 15  1  0
 35 24  1  0
 24 11  1  0
 33 27  1  0
  4 36  1  0
  5 37  1  0
  7 38  1  0
  9 39  1  0
  9 40  1  0
 10 41  1  0
 10 42  1  0
 12 43  1  0
 12 44  1  0
 13 45  1  0
 13 46  1  0
 16 47  1  0
 17 48  1  0
 20 49  1  0
 25 50  1  0
 25 51  1  0
 28 52  1  0
 29 53  1  0
 32 54  1  0
 33 55  1  0
M  END
$$$$
