
     RDKit          3D

 55 60  0  0  0  0  0  0  0  0999 V2000
    3.2902    2.9844   -1.7994 O   0  0  0  0  0  0  0  0  0  0  0  0
    3.3859    2.4338   -0.7036 C   0  0  0  0  0  0  0  0  0  0  0  0
    4.7034    2.2005   -0.1293 C   0  0  0  0  0  0  0  0  0  0  0  0
    5.9103    1.9240   -0.8403 C   0  0  0  0  0  0  0  0  0  0  0  0
    6.9083    1.8168    0.0980 C   0  0  0  0  0  0  0  0  0  0  0  0
    6.4107    2.0374    1.3405 O   0  0  0  0  0  0  0  0  0  0  0  0
    5.0842    2.2909    1.1947 C   0  0  0  0  0  0  0  0  0  0  0  0
    2.2523    2.0102    0.0040 N   0  0  0  0  0  0  0  0  0  0  0  0
    0.9443    2.3237   -0.5475 C   0  0  0  0  0  0  0  0  0  0  0  0
    0.3173    1.0839   -1.1816 C   0  0  0  0  0  0  0  0  0  0  0  0
    0.3610   -0.1607   -0.2432 C   0  0  0  0  0  0  0  0  0  0  0  0
    0.9456    0.2197    1.1455 C   0  0  0  0  0  0  0  0  0  0  0  0
    2.2859    0.9509    1.0120 C   0  0  0  0  0  0  0  0  0  0  0  0
    1.3520   -1.0894   -0.7671 O   0  0  0  0  0  0  0  0  0  0  0  0
    0.9737   -1.9207   -1.7782 C   0  0  0  0  0  0  0  0  0  0  0  0
    2.0046   -2.5891   -2.4391 C   0  0  0  0  0  0  0  0  0  0  0  0
    1.7158   -3.4448   -3.5051 C   0  0  0  0  0  0  0  0  0  0  0  0
    0.3931   -3.6319   -3.9058 C   0  0  0  0  0  0  0  0  0  0  0  0
    0.0414   -4.6814   -5.2222 Cl  0  0  0  0  0  0  0  0  0  0  0  0
   -0.6433   -2.9778   -3.2453 C   0  0  0  0  0  0  0  0  0  0  0  0
   -0.3427   -2.1308   -2.1734 C   0  0  0  0  0  0  0  0  0  0  0  0
   -1.4160   -1.4456   -1.4417 C   0  0  0  0  0  0  0  0  0  0  0  0
   -2.5422   -1.3837   -1.9282 O   0  0  0  0  0  0  0  0  0  0  0  0
   -1.0298   -0.8408   -0.0969 C   0  0  0  0  0  0  0  0  0  0  0  0
   -2.1358    0.0612    0.4366 C   0  0  0  0  0  0  0  0  0  0  0  0
   -2.7951   -0.8978    1.3673 C   0  0  0  0  0  0  0  0  0  0  0  0
   -4.1084   -0.6126    1.9938 C   0  0  0  0  0  0  0  0  0  0  0  0
   -4.7804    0.5959    1.7738 C   0  0  0  0  0  0  0  0  0  0  0  0
   -6.0160    0.8320    2.3866 C   0  0  0  0  0  0  0  0  0  0  0  0
   -6.5785   -0.1358    3.2177 C   0  0  0  0  0  0  0  0  0  0  0  0
   -8.0962    0.1619    3.9697 Cl  0  0  0  0  0  0  0  0  0  0  0  0
   -5.9172   -1.3405    3.4429 C   0  0  0  0  0  0  0  0  0  0  0  0
   -4.6830   -1.5788    2.8316 C   0  0  0  0  0  0  0  0  0  0  0  0
   -2.1179   -1.9736    1.6104 N   0  0  0  0  0  0  0  0  0  0  0  0
   -0.9352   -1.9233    0.8438 O   0  0  0  0  0  0  0  0  0  0  0  0
    6.0225    1.8189   -1.9111 H   0  0  0  0  0  0  0  0  0  0  0  0
    7.9691    1.6139    0.0463 H   0  0  0  0  0  0  0  0  0  0  0  0
    4.5633    2.5306    2.1107 H   0  0  0  0  0  0  0  0  0  0  0  0
    0.3177    2.7005    0.2698 H   0  0  0  0  0  0  0  0  0  0  0  0
    1.0045    3.1299   -1.2861 H   0  0  0  0  0  0  0  0  0  0  0  0
    0.8479    0.8694   -2.1178 H   0  0  0  0  0  0  0  0  0  0  0  0
   -0.7105    1.3385   -1.4620 H   0  0  0  0  0  0  0  0  0  0  0  0
    0.2518    0.8563    1.7046 H   0  0  0  0  0  0  0  0  0  0  0  0
    1.1141   -0.6760    1.7563 H   0  0  0  0  0  0  0  0  0  0  0  0
    3.0774    0.2365    0.7594 H   0  0  0  0  0  0  0  0  0  0  0  0
    2.5340    1.4085    1.9750 H   0  0  0  0  0  0  0  0  0  0  0  0
    3.0368   -2.4383   -2.1309 H   0  0  0  0  0  0  0  0  0  0  0  0
    2.5251   -3.9585   -4.0184 H   0  0  0  0  0  0  0  0  0  0  0  0
   -1.6754   -3.1316   -3.5519 H   0  0  0  0  0  0  0  0  0  0  0  0
   -2.8183    0.4339   -0.3308 H   0  0  0  0  0  0  0  0  0  0  0  0
   -1.7689    0.9084    1.0210 H   0  0  0  0  0  0  0  0  0  0  0  0
   -4.3691    1.3691    1.1321 H   0  0  0  0  0  0  0  0  0  0  0  0
   -6.5351    1.7711    2.2108 H   0  0  0  0  0  0  0  0  0  0  0  0
   -6.3531   -2.0981    4.0892 H   0  0  0  0  0  0  0  0  0  0  0  0
   -4.1757   -2.5250    3.0130 H   0  0  0  0  0  0  0  0  0  0  0  0
  1  2  2  0
  2  3  1  0
  3  4  1  0
  4  5  2  0
  5  6  1  0
  6  7  1  0
  2  8  1  0
  8  9  1  0
  9 10  1  0
 10 11  1  0
 11 12  1  0
 12 13  1  0
 11 14  1  0
 14 15  1  0
 15 16  2  0
 16 17  1  0
 17 18  2  0
 18 19  1  0
 18 20  1  0
 20 21  2  0
 21 22  1  0
 22 23  2  0
 22 24  1  0
 24 25  1  0
 25 26  1  0
 26 27  1  0
 27 28  2  0
 28 29  1  0
 29 30  2  0
 30 31  1  0
 30 32  1  0
 32 33  2  0
 26 34  2  0
 34 35  1  0
  7  3  2  0
 13  8  1  0
 21 15  1  0
 35 24  1  0
 24 11  1  0
 33 27  1  0
  4 36  1  0
  5 37  1  0
  7 38  1  0
  9 39  1  0
  9 40  1  0
 10 41  1  0
 10 42  1  0
 12 43  1  0
 12 44  1  0
 13 45  1  0
 13 46  1  0
 16 47  1  0
 17 48  1  0
 20 49  1  0
 25 50  1  0
 25 51  1  0
 28 52  1  0
 29 53  1  0
 32 54  1  0
 33 55  1  0
M  END
$$$$
