
     RDKit          3D

 47 50  0  0  0  0  0  0  0  0999 V2000
   -4.8253    4.3346    2.8668 N   0  0  0  0  0  0  0  0  0  0  0  0
   -5.0844    3.1481    2.2852 C   0  0  0  0  0  0  0  0  0  0  0  0
   -6.3078    2.6842    2.0348 N   0  0  0  0  0  0  0  0  0  0  0  0
   -6.1216    1.4385    1.4461 O   0  0  0  0  0  0  0  0  0  0  0  0
   -4.7664    1.1326    1.3274 N   0  0  0  0  0  0  0  0  0  0  0  0
   -4.1471    2.1928    1.8467 C   0  0  0  0  0  0  0  0  0  0  0  0
   -2.7319    2.2759    1.8805 N   0  0  0  0  0  0  0  0  0  0  0  0
   -2.1042    3.4031    2.3173 N   0  0  0  0  0  0  0  0  0  0  0  0
   -0.8015    3.2700    2.1461 N   0  0  0  0  0  0  0  0  0  0  0  0
   -0.5580    2.0372    1.6061 C   0  0  0  0  0  0  0  0  0  0  0  0
    0.8023    1.6072    1.2690 C   0  0  0  0  0  0  0  0  0  0  0  0
    1.7786    2.0814    1.8424 O   0  0  0  0  0  0  0  0  0  0  0  0
    0.8611    0.6623    0.2439 N   0  0  0  0  0  0  0  0  0  0  0  0
    2.0023    0.1759   -0.3455 N   0  0  0  0  0  0  0  0  0  0  0  0
    3.0635    0.0311    0.3837 C   0  0  0  0  0  0  0  0  0  0  0  0
    4.3373   -0.4480   -0.1935 C   0  0  0  0  0  0  0  0  0  0  0  0
    4.4372   -0.7692   -1.5520 C   0  0  0  0  0  0  0  0  0  0  0  0
    5.6510   -1.2230   -2.0733 C   0  0  0  0  0  0  0  0  0  0  0  0
    6.7519   -1.3500   -1.2303 C   0  0  0  0  0  0  0  0  0  0  0  0
    7.9553   -1.7888   -1.6965 O   0  0  0  0  0  0  0  0  0  0  0  0
    6.6602   -1.0314    0.1211 C   0  0  0  0  0  0  0  0  0  0  0  0
    5.4489   -0.5772    0.6452 C   0  0  0  0  0  0  0  0  0  0  0  0
   -1.7620    1.3497    1.5015 C   0  0  0  0  0  0  0  0  0  0  0  0
   -2.0296   -0.0510    1.0946 C   0  0  0  0  0  0  0  0  0  0  0  0
   -1.9860   -0.0353   -0.3284 O   0  0  0  0  0  0  0  0  0  0  0  0
   -2.1715   -1.2265   -0.9742 C   0  0  0  0  0  0  0  0  0  0  0  0
   -2.3957   -2.4654   -0.3680 C   0  0  0  0  0  0  0  0  0  0  0  0
   -2.5615   -3.6085   -1.1563 C   0  0  0  0  0  0  0  0  0  0  0  0
   -2.5024   -3.5078   -2.5412 C   0  0  0  0  0  0  0  0  0  0  0  0
   -2.6621   -4.6061   -3.2905 F   0  0  0  0  0  0  0  0  0  0  0  0
   -2.2807   -2.2836   -3.1567 C   0  0  0  0  0  0  0  0  0  0  0  0
   -2.1154   -1.1427   -2.3704 C   0  0  0  0  0  0  0  0  0  0  0  0
   -3.8872    4.7346    2.8522 H   0  0  0  0  0  0  0  0  0  0  0  0
   -5.5700    5.0197    2.9422 H   0  0  0  0  0  0  0  0  0  0  0  0
    0.0396    0.5657   -0.3508 H   0  0  0  0  0  0  0  0  0  0  0  0
    3.0752    0.2213    1.4700 H   0  0  0  0  0  0  0  0  0  0  0  0
    3.5750   -0.6677   -2.2071 H   0  0  0  0  0  0  0  0  0  0  0  0
    5.7163   -1.4690   -3.1285 H   0  0  0  0  0  0  0  0  0  0  0  0
    7.8777   -1.9567   -2.6500 H   0  0  0  0  0  0  0  0  0  0  0  0
    7.5311   -1.1342    0.7629 H   0  0  0  0  0  0  0  0  0  0  0  0
    5.3862   -0.3245    1.7005 H   0  0  0  0  0  0  0  0  0  0  0  0
   -1.2328   -0.6950    1.4886 H   0  0  0  0  0  0  0  0  0  0  0  0
   -2.9791   -0.4377    1.4700 H   0  0  0  0  0  0  0  0  0  0  0  0
   -2.4486   -2.5832    0.7091 H   0  0  0  0  0  0  0  0  0  0  0  0
   -2.7368   -4.5773   -0.6984 H   0  0  0  0  0  0  0  0  0  0  0  0
   -2.2382   -2.2236   -4.2392 H   0  0  0  0  0  0  0  0  0  0  0  0
   -1.9429   -0.1824   -2.8508 H   0  0  0  0  0  0  0  0  0  0  0  0
  1  2  1  0
  2  3  2  0
  3  4  1  0
  4  5  1  0
  5  6  2  0
  6  7  1  0
  7  8  1  0
  8  9  2  0
  9 10  1  0
 10 11  1  0
 11 12  2  0
 11 13  1  0
 13 14  1  0
 14 15  2  3
 15 16  1  0
 16 17  2  0
 17 18  1  0
 18 19  2  0
 19 20  1  0
 19 21  1  0
 21 22  2  0
 10 23  2  0
 23 24  1  0
 24 25  1  0
 25 26  1  0
 26 27  2  0
 27 28  1  0
 28 29  2  0
 29 30  1  0
 29 31  1  0
 31 32  2  0
  6  2  1  0
 23  7  1  0
 32 26  1  0
 22 16  1  0
  1 33  1  0
  1 34  1  0
 13 35  1  0
 15 36  1  0
 17 37  1  0
 18 38  1  0
 20 39  1  0
 21 40  1  0
 22 41  1  0
 24 42  1  0
 24 43  1  0
 27 44  1  0
 28 45  1  0
 31 46  1  0
 32 47  1  0
M  END
$$$$
