
     RDKit          3D

 42 44  0  0  0  0  0  0  0  0999 V2000
   -8.4890   -0.6676   -0.0365 C   0  0  0  0  0  0  0  0  0  0  0  0
   -7.6006    0.5083    0.2747 C   0  0  0  0  0  0  0  0  0  0  0  0
   -8.0747    1.5975    0.5921 O   0  0  0  0  0  0  0  0  0  0  0  0
   -6.1196    0.3381    0.1931 C   0  0  0  0  0  0  0  0  0  0  0  0
   -5.3026    1.4355    0.4869 C   0  0  0  0  0  0  0  0  0  0  0  0
   -3.9098    1.3197    0.4231 C   0  0  0  0  0  0  0  0  0  0  0  0
   -3.3098    0.1062    0.0678 C   0  0  0  0  0  0  0  0  0  0  0  0
   -1.9007    0.0726    0.0219 N   0  0  0  0  0  0  0  0  0  0  0  0
   -1.0960   -1.0250   -0.2262 C   0  0  0  0  0  0  0  0  0  0  0  0
   -1.4625   -2.1836   -0.3827 O   0  0  0  0  0  0  0  0  0  0  0  0
    0.3673   -0.7399   -0.2562 C   0  0  0  0  0  0  0  0  0  0  0  0
    0.8802    0.4608   -0.7567 C   0  0  0  0  0  0  0  0  0  0  0  0
    2.2632    0.6877   -0.7659 C   0  0  0  0  0  0  0  0  0  0  0  0
    3.1486   -0.2809   -0.2872 C   0  0  0  0  0  0  0  0  0  0  0  0
    4.5516   -0.1327   -0.2621 N   0  0  0  0  0  0  0  0  0  0  0  0
    5.2995    0.9783   -0.6347 C   0  0  0  0  0  0  0  0  0  0  0  0
    4.8103    2.0336   -1.0274 O   0  0  0  0  0  0  0  0  0  0  0  0
    6.7412    0.7924   -0.5095 C   0  0  0  0  0  0  0  0  0  0  0  0
    7.5464   -0.2818   -0.1611 C   0  0  0  0  0  0  0  0  0  0  0  0
    8.8898    0.1673   -0.2250 C   0  0  0  0  0  0  0  0  0  0  0  0
    8.8331    1.4838   -0.6084 C   0  0  0  0  0  0  0  0  0  0  0  0
    7.5461    1.8703   -0.7833 O   0  0  0  0  0  0  0  0  0  0  0  0
    2.6288   -1.4911    0.1912 C   0  0  0  0  0  0  0  0  0  0  0  0
    1.2493   -1.7220    0.2039 C   0  0  0  0  0  0  0  0  0  0  0  0
   -4.1275   -0.9855   -0.2292 C   0  0  0  0  0  0  0  0  0  0  0  0
   -5.5238   -0.8739   -0.1666 C   0  0  0  0  0  0  0  0  0  0  0  0
   -8.3399   -0.9923   -1.0694 H   0  0  0  0  0  0  0  0  0  0  0  0
   -9.5354   -0.3670    0.0767 H   0  0  0  0  0  0  0  0  0  0  0  0
   -8.2946   -1.4851    0.6626 H   0  0  0  0  0  0  0  0  0  0  0  0
   -5.7459    2.3895    0.7679 H   0  0  0  0  0  0  0  0  0  0  0  0
   -3.3080    2.1940    0.6585 H   0  0  0  0  0  0  0  0  0  0  0  0
   -1.4356    0.9381    0.2635 H   0  0  0  0  0  0  0  0  0  0  0  0
    0.2284    1.2234   -1.1748 H   0  0  0  0  0  0  0  0  0  0  0  0
    2.6130    1.6325   -1.1715 H   0  0  0  0  0  0  0  0  0  0  0  0
    5.0655   -0.9266    0.0897 H   0  0  0  0  0  0  0  0  0  0  0  0
    7.2231   -1.2777    0.1041 H   0  0  0  0  0  0  0  0  0  0  0  0
    9.7880   -0.3986   -0.0202 H   0  0  0  0  0  0  0  0  0  0  0  0
    9.5781    2.2456   -0.7935 H   0  0  0  0  0  0  0  0  0  0  0  0
    3.2847   -2.2753    0.5612 H   0  0  0  0  0  0  0  0  0  0  0  0
    0.8643   -2.6701    0.5754 H   0  0  0  0  0  0  0  0  0  0  0  0
   -3.7100   -1.9452   -0.5196 H   0  0  0  0  0  0  0  0  0  0  0  0
   -6.1148   -1.7530   -0.4063 H   0  0  0  0  0  0  0  0  0  0  0  0
  1  2  1  0
  2  3  2  0
  2  4  1  0
  4  5  2  0
  5  6  1  0
  6  7  2  0
  7  8  1  0
  8  9  1  0
  9 10  2  0
  9 11  1  0
 11 12  2  0
 12 13  1  0
 13 14  2  0
 14 15  1  0
 15 16  1  0
 16 17  2  0
 16 18  1  0
 18 19  2  0
 19 20  1  0
 20 21  2  0
 21 22  1  0
 14 23  1  0
 23 24  2  0
  7 25  1  0
 25 26  2  0
 26  4  1  0
 24 11  1  0
 22 18  1  0
  1 27  1  0
  1 28  1  0
  1 29  1  0
  5 30  1  0
  6 31  1  0
  8 32  1  0
 12 33  1  0
 13 34  1  0
 15 35  1  0
 19 36  1  0
 20 37  1  0
 21 38  1  0
 23 39  1  0
 24 40  1  0
 25 41  1  0
 26 42  1  0
M  END
$$$$
