
     RDKit          3D

 21 21  0  0  0  0  0  0  0  0999 V2000
    3.0894   -0.2601   -0.2921 C   0  0  0  0  0  0  0  0  0  0  0  0
    1.6101   -0.0040   -0.1949 C   0  0  0  0  0  0  0  0  0  0  0  0
    1.1226    1.2658   -0.5161 C   0  0  0  0  0  0  0  0  0  0  0  0
   -0.2360    1.5218   -0.4171 C   0  0  0  0  0  0  0  0  0  0  0  0
   -0.6926    2.7462   -0.8278 O   0  0  0  0  0  0  0  0  0  0  0  0
   -1.1502    0.5648    0.0524 C   0  0  0  0  0  0  0  0  0  0  0  0
   -2.5162    0.9322    0.1226 N   0  0  0  0  0  0  0  0  0  0  0  0
   -0.7000   -0.7525    0.2597 C   0  0  0  0  0  0  0  0  0  0  0  0
   -1.6675   -1.8477    0.6330 C   0  0  0  0  0  0  0  0  0  0  0  0
    0.6933   -1.0102    0.1815 C   0  0  0  0  0  0  0  0  0  0  0  0
    1.3069   -2.5927    0.5679 Cl  0  0  0  0  0  0  0  0  0  0  0  0
    3.4864   -0.5871    0.6742 H   0  0  0  0  0  0  0  0  0  0  0  0
    3.2964   -1.0192   -1.0532 H   0  0  0  0  0  0  0  0  0  0  0  0
    3.6356    0.6461   -0.5760 H   0  0  0  0  0  0  0  0  0  0  0  0
    1.7880    2.0539   -0.8581 H   0  0  0  0  0  0  0  0  0  0  0  0
   -1.6122    2.5767   -1.1087 H   0  0  0  0  0  0  0  0  0  0  0  0
   -2.6153    1.8779    0.4915 H   0  0  0  0  0  0  0  0  0  0  0  0
   -3.0645    0.2973    0.6964 H   0  0  0  0  0  0  0  0  0  0  0  0
   -1.3573   -2.8199    0.2384 H   0  0  0  0  0  0  0  0  0  0  0  0
   -1.7571   -1.9128    1.7217 H   0  0  0  0  0  0  0  0  0  0  0  0
   -2.6599   -1.6768    0.2047 H   0  0  0  0  0  0  0  0  0  0  0  0
  1  2  1  0
  2  3  2  0
  3  4  1  0
  4  5  1  0
  4  6  2  0
  6  7  1  0
  6  8  1  0
  8  9  1  0
  8 10  2  0
 10 11  1  0
 10  2  1  0
  1 12  1  0
  1 13  1  0
  1 14  1  0
  3 15  1  0
  5 16  1  0
  7 17  1  0
  7 18  1  0
  9 19  1  0
  9 20  1  0
  9 21  1  0
M  END
$$$$
