
     RDKit          3D

 57 62  0  0  0  0  0  0  0  0999 V2000
    6.9082   -3.9954   -2.2012 C   0  0  0  0  0  0  0  0  0  0  0  0
    6.8575   -2.5744   -2.1368 O   0  0  0  0  0  0  0  0  0  0  0  0
    5.7287   -2.0124   -1.6158 C   0  0  0  0  0  0  0  0  0  0  0  0
    4.6100   -2.6946   -1.1431 C   0  0  0  0  0  0  0  0  0  0  0  0
    3.5154   -1.9853   -0.6297 C   0  0  0  0  0  0  0  0  0  0  0  0
    3.5361   -0.5861   -0.5809 C   0  0  0  0  0  0  0  0  0  0  0  0
    2.3082    0.1991    0.0048 C   0  0  0  0  0  0  0  0  0  0  0  0
    1.1023   -0.3480    0.4247 C   0  0  0  0  0  0  0  0  0  0  0  0
    0.2606    0.6796    0.8522 N   0  0  0  0  0  4  0  0  0  0  0  0
   -1.0979    0.5314    1.3999 C   0  0  0  0  0  0  0  0  0  0  0  0
   -2.1595    1.2212    0.5277 C   0  0  0  0  0  0  0  0  0  0  0  0
   -1.9825    2.3668    0.1136 O   0  0  0  0  0  0  0  0  0  0  0  0
   -3.3172    0.4571    0.3457 N   0  0  0  0  0  0  0  0  0  0  0  0
   -4.6028    0.9505    0.7751 C   0  0  0  0  0  0  0  0  0  0  0  0
   -4.7689    2.3088    1.1183 C   0  0  0  0  0  0  0  0  0  0  0  0
   -5.9970    2.8188    1.5557 C   0  0  0  0  0  0  0  0  0  0  0  0
   -7.0928    1.9797    1.6763 C   0  0  0  0  0  0  0  0  0  0  0  0
   -6.9539    0.6313    1.3673 C   0  0  0  0  0  0  0  0  0  0  0  0
   -5.7232    0.1130    0.9233 C   0  0  0  0  0  0  0  0  0  0  0  0
   -5.6608   -1.6446    0.6940 S   0  0  0  0  0  0  0  0  0  0  0  0
   -4.2153   -1.7848   -0.3107 C   0  0  0  0  0  0  0  0  0  0  0  0
   -4.0597   -2.9821   -1.0311 C   0  0  0  0  0  0  0  0  0  0  0  0
   -2.9484   -3.1926   -1.8437 C   0  0  0  0  0  0  0  0  0  0  0  0
   -1.9864   -2.1999   -1.9538 C   0  0  0  0  0  0  0  0  0  0  0  0
   -2.1319   -1.0103   -1.2353 C   0  0  0  0  0  0  0  0  0  0  0  0
   -3.2348   -0.7862   -0.3790 C   0  0  0  0  0  0  0  0  0  0  0  0
    0.9264    1.8253    0.7137 C   0  0  0  0  0  0  0  0  0  0  0  0
    2.1406    1.5514    0.2409 N   0  0  0  0  0  0  0  0  0  0  0  0
    2.9656    2.7501    0.1418 C   0  0  0  0  0  0  0  0  0  0  0  0
    2.1780    3.7974    0.9739 C   0  0  0  0  0  0  0  0  0  0  0  0
    0.7302    3.2687    0.9960 C   0  0  0  0  0  0  0  0  0  0  0  0
    4.6522    0.0959   -1.0622 C   0  0  0  0  0  0  0  0  0  0  0  0
    5.7403   -0.6178   -1.5744 C   0  0  0  0  0  0  0  0  0  0  0  0
    6.1203   -4.3882   -2.8530 H   0  0  0  0  0  0  0  0  0  0  0  0
    7.8722   -4.2768   -2.6362 H   0  0  0  0  0  0  0  0  0  0  0  0
    6.8514   -4.4378   -1.2007 H   0  0  0  0  0  0  0  0  0  0  0  0
    4.5592   -3.7790   -1.1579 H   0  0  0  0  0  0  0  0  0  0  0  0
    2.6695   -2.5623   -0.2667 H   0  0  0  0  0  0  0  0  0  0  0  0
    0.7268   -1.3571    0.4643 H   0  0  0  0  0  0  0  0  0  0  0  0
   -1.3123   -0.5314    1.5456 H   0  0  0  0  0  0  0  0  0  0  0  0
   -1.1155    1.0066    2.3868 H   0  0  0  0  0  0  0  0  0  0  0  0
   -3.9621    3.0298    1.0289 H   0  0  0  0  0  0  0  0  0  0  0  0
   -6.0940    3.8760    1.7949 H   0  0  0  0  0  0  0  0  0  0  0  0
   -8.0496    2.3678    2.0171 H   0  0  0  0  0  0  0  0  0  0  0  0
   -7.8163   -0.0226    1.4885 H   0  0  0  0  0  0  0  0  0  0  0  0
   -4.8174   -3.7635   -0.9699 H   0  0  0  0  0  0  0  0  0  0  0  0
   -2.8529   -4.1189   -2.4068 H   0  0  0  0  0  0  0  0  0  0  0  0
   -1.1381   -2.3413   -2.6216 H   0  0  0  0  0  0  0  0  0  0  0  0
   -1.3877   -0.2366   -1.4137 H   0  0  0  0  0  0  0  0  0  0  0  0
    3.0306    3.0461   -0.9094 H   0  0  0  0  0  0  0  0  0  0  0  0
    3.9583    2.5816    0.5642 H   0  0  0  0  0  0  0  0  0  0  0  0
    2.5707    3.8075    1.9977 H   0  0  0  0  0  0  0  0  0  0  0  0
    2.2590    4.8104    0.5705 H   0  0  0  0  0  0  0  0  0  0  0  0
    0.2357    3.3842    1.9611 H   0  0  0  0  0  0  0  0  0  0  0  0
    0.1426    3.6792    0.1734 H   0  0  0  0  0  0  0  0  0  0  0  0
    4.7120    1.1762   -1.0727 H   0  0  0  0  0  0  0  0  0  0  0  0
    6.6105   -0.0814   -1.9499 H   0  0  0  0  0  0  0  0  0  0  0  0
  1  2  1  0
  2  3  1  0
  3  4  2  0
  4  5  1  0
  5  6  2  0
  6  7  1  0
  7  8  2  0
  8  9  1  0
  9 10  1  0
 10 11  1  0
 11 12  2  0
 11 13  1  0
 13 14  1  0
 14 15  2  0
 15 16  1  0
 16 17  2  0
 17 18  1  0
 18 19  2  0
 19 20  1  0
 20 21  1  0
 21 22  2  0
 22 23  1  0
 23 24  2  0
 24 25  1  0
 25 26  2  0
  9 27  2  0
 27 28  1  0
 28 29  1  0
 29 30  1  0
 30 31  1  0
  6 32  1  0
 32 33  2  0
 33  3  1  0
 28  7  1  0
 26 13  1  0
 31 27  1  0
 19 14  1  0
 26 21  1  0
  1 34  1  0
  1 35  1  0
  1 36  1  0
  4 37  1  0
  5 38  1  0
  8 39  1  0
 10 40  1  0
 10 41  1  0
 15 42  1  0
 16 43  1  0
 17 44  1  0
 18 45  1  0
 22 46  1  0
 23 47  1  0
 24 48  1  0
 25 49  1  0
 29 50  1  0
 29 51  1  0
 30 52  1  0
 30 53  1  0
 31 54  1  0
 31 55  1  0
 32 56  1  0
 33 57  1  0
M  CHG  1   9   1
M  END
$$$$
