
     RDKit          3D

 62 66  0  0  0  0  0  0  0  0999 V2000
   -4.5406    6.1029   -1.9015 C   0  0  0  0  0  0  0  0  0  0  0  0
   -3.6448    5.0112   -1.7348 O   0  0  0  0  0  0  0  0  0  0  0  0
   -4.0568    3.9885   -0.9246 C   0  0  0  0  0  0  0  0  0  0  0  0
   -5.2620    3.9248   -0.2394 C   0  0  0  0  0  0  0  0  0  0  0  0
   -5.5687    2.8194    0.5624 C   0  0  0  0  0  0  0  0  0  0  0  0
   -4.6409    1.7654    0.6673 C   0  0  0  0  0  0  0  0  0  0  0  0
   -4.8157    0.3290    1.5912 S   0  0  0  0  0  0  0  0  0  0  0  0
   -3.2898   -0.2743    1.1074 C   0  0  0  0  0  0  0  0  0  0  0  0
   -2.8695   -1.5909    1.6126 C   0  0  0  0  0  0  0  0  0  0  0  0
   -2.5118   -1.7191    2.9660 C   0  0  0  0  0  0  0  0  0  0  0  0
   -2.0857   -2.9446    3.4766 C   0  0  0  0  0  0  0  0  0  0  0  0
   -2.0142   -4.0546    2.6405 C   0  0  0  0  0  0  0  0  0  0  0  0
   -2.3657   -3.9434    1.2927 C   0  0  0  0  0  0  0  0  0  0  0  0
   -2.7864   -2.7156    0.7667 C   0  0  0  0  0  0  0  0  0  0  0  0
   -3.1749   -2.5416   -0.5383 O   0  0  0  0  0  0  0  0  0  0  0  0
   -2.6658   -3.4746   -1.4825 C   0  0  0  0  0  0  0  0  0  0  0  0
   -2.6412    0.6045    0.2528 C   0  0  0  0  0  0  0  0  0  0  0  0
   -1.3246    0.3065   -0.3034 C   0  0  0  0  0  0  0  0  0  0  0  0
   -1.1818    0.0739   -1.6738 C   0  0  0  0  0  0  0  0  0  0  0  0
    0.0772   -0.2105   -2.2073 C   0  0  0  0  0  0  0  0  0  0  0  0
    1.2053   -0.2684   -1.3845 C   0  0  0  0  0  0  0  0  0  0  0  0
    2.3692   -0.5550   -2.0412 O   0  0  0  0  0  0  0  0  0  0  0  0
    3.5492   -0.7990   -1.2688 C   0  0  0  0  0  0  0  0  0  0  0  0
    4.3188    0.5107   -1.0170 C   0  0  0  0  0  0  0  0  0  0  0  0
    5.5413    0.4479   -0.2143 N   0  0  0  0  0  0  0  0  0  0  0  0
    5.3479    0.0589    1.1780 C   0  0  0  0  0  0  0  0  0  0  0  0
    6.7761   -0.1374    1.6665 C   0  0  0  0  0  0  0  0  0  0  0  0
    7.5850   -0.4703    0.4155 C   0  0  0  0  0  0  0  0  0  0  0  0
    6.5841   -0.4308   -0.7313 C   0  0  0  0  0  0  0  0  0  0  0  0
    1.0646   -0.0241   -0.0183 C   0  0  0  0  0  0  0  0  0  0  0  0
   -0.1953    0.2630    0.5202 C   0  0  0  0  0  0  0  0  0  0  0  0
   -3.4217    1.7947   -0.0100 C   0  0  0  0  0  0  0  0  0  0  0  0
   -3.1423    2.9346   -0.8093 C   0  0  0  0  0  0  0  0  0  0  0  0
   -4.0687    6.8218   -2.5782 H   0  0  0  0  0  0  0  0  0  0  0  0
   -5.4788    5.7777   -2.3634 H   0  0  0  0  0  0  0  0  0  0  0  0
   -4.7234    6.6120   -0.9494 H   0  0  0  0  0  0  0  0  0  0  0  0
   -5.9972    4.7205   -0.3009 H   0  0  0  0  0  0  0  0  0  0  0  0
   -6.5135    2.7762    1.0970 H   0  0  0  0  0  0  0  0  0  0  0  0
   -2.5626   -0.8574    3.6281 H   0  0  0  0  0  0  0  0  0  0  0  0
   -1.8151   -3.0322    4.5255 H   0  0  0  0  0  0  0  0  0  0  0  0
   -1.6914   -5.0137    3.0380 H   0  0  0  0  0  0  0  0  0  0  0  0
   -2.3175   -4.8368    0.6790 H   0  0  0  0  0  0  0  0  0  0  0  0
   -3.1827   -4.4354   -1.3958 H   0  0  0  0  0  0  0  0  0  0  0  0
   -2.8661   -3.0791   -2.4828 H   0  0  0  0  0  0  0  0  0  0  0  0
   -1.5817   -3.5990   -1.3848 H   0  0  0  0  0  0  0  0  0  0  0  0
   -2.0484    0.1023   -2.3299 H   0  0  0  0  0  0  0  0  0  0  0  0
    0.1783   -0.3920   -3.2744 H   0  0  0  0  0  0  0  0  0  0  0  0
    3.3236   -1.3567   -0.3540 H   0  0  0  0  0  0  0  0  0  0  0  0
    4.1675   -1.4658   -1.8799 H   0  0  0  0  0  0  0  0  0  0  0  0
    4.5671    0.9505   -1.9924 H   0  0  0  0  0  0  0  0  0  0  0  0
    3.6464    1.2489   -0.5622 H   0  0  0  0  0  0  0  0  0  0  0  0
    4.7972   -0.8833    1.2748 H   0  0  0  0  0  0  0  0  0  0  0  0
    4.8278    0.8286    1.7566 H   0  0  0  0  0  0  0  0  0  0  0  0
    6.8399   -0.9339    2.4143 H   0  0  0  0  0  0  0  0  0  0  0  0
    7.1609    0.7829    2.1214 H   0  0  0  0  0  0  0  0  0  0  0  0
    8.0654   -1.4511    0.4943 H   0  0  0  0  0  0  0  0  0  0  0  0
    8.3724    0.2791    0.2724 H   0  0  0  0  0  0  0  0  0  0  0  0
    6.2170   -1.4455   -0.9227 H   0  0  0  0  0  0  0  0  0  0  0  0
    7.0386   -0.0438   -1.6483 H   0  0  0  0  0  0  0  0  0  0  0  0
    1.9105   -0.0371    0.6598 H   0  0  0  0  0  0  0  0  0  0  0  0
   -0.2868    0.4545    1.5867 H   0  0  0  0  0  0  0  0  0  0  0  0
   -2.1974    2.9947   -1.3451 H   0  0  0  0  0  0  0  0  0  0  0  0
  1  2  1  0
  2  3  1  0
  3  4  2  0
  4  5  1  0
  5  6  2  0
  6  7  1  0
  7  8  1  0
  8  9  1  0
  9 10  2  0
 10 11  1  0
 11 12  2  0
 12 13  1  0
 13 14  2  0
 14 15  1  0
 15 16  1  0
  8 17  2  0
 17 18  1  0
 18 19  2  0
 19 20  1  0
 20 21  2  0
 21 22  1  0
 22 23  1  0
 23 24  1  0
 24 25  1  0
 25 26  1  0
 26 27  1  0
 27 28  1  0
 28 29  1  0
 21 30  1  0
 30 31  2  0
 17 32  1  0
 32 33  2  0
 33  3  1  0
 32  6  1  0
 14  9  1  0
 31 18  1  0
 29 25  1  0
  1 34  1  0
  1 35  1  0
  1 36  1  0
  4 37  1  0
  5 38  1  0
 10 39  1  0
 11 40  1  0
 12 41  1  0
 13 42  1  0
 16 43  1  0
 16 44  1  0
 16 45  1  0
 19 46  1  0
 20 47  1  0
 23 48  1  0
 23 49  1  0
 24 50  1  0
 24 51  1  0
 26 52  1  0
 26 53  1  0
 27 54  1  0
 27 55  1  0
 28 56  1  0
 28 57  1  0
 29 58  1  0
 29 59  1  0
 30 60  1  0
 31 61  1  0
 33 62  1  0
M  END
$$$$
