
     RDKit          3D

 49 51  0  0  0  0  0  0  0  0999 V2000
    2.2963   -1.3942    1.2625 O   0  0  0  0  0  0  0  0  0  0  0  0
    2.0555   -1.5154    0.0690 C   0  0  0  0  0  0  0  0  0  0  0  0
    2.4471   -2.5501   -0.7449 N   0  0  0  0  0  0  0  0  0  0  0  0
    3.3588   -3.5747   -0.3086 C   0  0  0  0  0  0  0  0  0  0  0  0
    4.7678   -3.2561   -0.7341 C   0  0  0  0  0  0  0  0  0  0  0  0
    5.2797   -3.7493   -1.9427 C   0  0  0  0  0  0  0  0  0  0  0  0
    6.5790   -3.4316   -2.3423 C   0  0  0  0  0  0  0  0  0  0  0  0
    7.3754   -2.6131   -1.5431 C   0  0  0  0  0  0  0  0  0  0  0  0
    6.8734   -2.1087   -0.3450 C   0  0  0  0  0  0  0  0  0  0  0  0
    5.5751   -2.4254    0.0567 C   0  0  0  0  0  0  0  0  0  0  0  0
    1.2369   -0.4294   -0.6657 C   0  0  0  0  0  0  0  0  0  0  0  0
    0.9759   -0.5553   -1.8538 O   0  0  0  0  0  0  0  0  0  0  0  0
    0.8751    0.6237    0.1443 N   0  0  0  0  0  0  0  0  0  0  0  0
   -0.0449    1.6552   -0.2998 C   0  0  0  0  0  0  0  0  0  0  0  0
   -1.5301    1.3028   -0.0381 C   0  0  0  0  0  0  0  0  0  0  0  0
   -1.9073    0.0949   -0.7266 O   0  0  0  0  0  0  0  0  0  0  0  0
   -2.5168    0.5054   -1.9552 C   0  0  0  0  0  0  0  0  0  0  0  0
   -3.2845    1.7509   -1.5682 C   0  0  0  0  0  0  0  0  0  0  0  0
   -2.4002    2.3567   -0.5724 N   0  0  0  0  0  0  0  0  0  0  0  0
   -2.9630    3.5394    0.4619 S   0  0  0  0  0  6  0  0  0  0  0  0
   -3.6991    4.5022   -0.3290 O   0  0  0  0  0  0  0  0  0  0  0  0
   -1.8552    3.9478    1.2996 O   0  0  0  0  0  0  0  0  0  0  0  0
   -4.1398    2.7013    1.5061 C   0  0  0  0  0  0  0  0  0  0  0  0
   -5.4881    2.6601    1.1323 C   0  0  0  0  0  0  0  0  0  0  0  0
   -6.4176    2.0341    1.9654 C   0  0  0  0  0  0  0  0  0  0  0  0
   -5.9982    1.4730    3.1721 C   0  0  0  0  0  0  0  0  0  0  0  0
   -7.2586    0.6264    4.2982 Br  0  0  0  0  0  0  0  0  0  0  0  0
   -4.6596    1.5404    3.5610 C   0  0  0  0  0  0  0  0  0  0  0  0
   -3.7265    2.1659    2.7311 C   0  0  0  0  0  0  0  0  0  0  0  0
    2.2570   -2.4369   -1.7363 H   0  0  0  0  0  0  0  0  0  0  0  0
    3.0296   -4.5195   -0.7548 H   0  0  0  0  0  0  0  0  0  0  0  0
    3.3075   -3.6942    0.7797 H   0  0  0  0  0  0  0  0  0  0  0  0
    4.6695   -4.3843   -2.5812 H   0  0  0  0  0  0  0  0  0  0  0  0
    6.9696   -3.8203   -3.2791 H   0  0  0  0  0  0  0  0  0  0  0  0
    8.3863   -2.3648   -1.8557 H   0  0  0  0  0  0  0  0  0  0  0  0
    7.4912   -1.4654    0.2761 H   0  0  0  0  0  0  0  0  0  0  0  0
    5.1905   -2.0175    0.9902 H   0  0  0  0  0  0  0  0  0  0  0  0
    1.1306    0.5458    1.1256 H   0  0  0  0  0  0  0  0  0  0  0  0
    0.1200    1.8198   -1.3711 H   0  0  0  0  0  0  0  0  0  0  0  0
    0.2292    2.5750    0.2262 H   0  0  0  0  0  0  0  0  0  0  0  0
   -1.6875    1.1152    1.0268 H   0  0  0  0  0  0  0  0  0  0  0  0
   -3.1599   -0.2893   -2.3417 H   0  0  0  0  0  0  0  0  0  0  0  0
   -1.7299    0.7178   -2.6876 H   0  0  0  0  0  0  0  0  0  0  0  0
   -3.4575    2.4061   -2.4249 H   0  0  0  0  0  0  0  0  0  0  0  0
   -4.2398    1.4657   -1.1202 H   0  0  0  0  0  0  0  0  0  0  0  0
   -5.8225    3.1163    0.2026 H   0  0  0  0  0  0  0  0  0  0  0  0
   -7.4639    1.9975    1.6714 H   0  0  0  0  0  0  0  0  0  0  0  0
   -4.3370    1.1187    4.5101 H   0  0  0  0  0  0  0  0  0  0  0  0
   -2.6894    2.2374    3.0520 H   0  0  0  0  0  0  0  0  0  0  0  0
  1  2  2  0
  2  3  1  0
  3  4  1  0
  4  5  1  0
  5  6  2  0
  6  7  1  0
  7  8  2  0
  8  9  1  0
  9 10  2  0
  2 11  1  0
 11 12  2  0
 11 13  1  0
 13 14  1  0
 14 15  1  0
 15 16  1  0
 16 17  1  0
 17 18  1  0
 18 19  1  0
 19 20  1  0
 20 21  2  0
 20 22  2  0
 20 23  1  0
 23 24  2  0
 24 25  1  0
 25 26  2  0
 26 27  1  0
 26 28  1  0
 28 29  2  0
 10  5  1  0
 19 15  1  0
 29 23  1  0
  3 30  1  0
  4 31  1  0
  4 32  1  0
  6 33  1  0
  7 34  1  0
  8 35  1  0
  9 36  1  0
 10 37  1  0
 13 38  1  0
 14 39  1  0
 14 40  1  0
 15 41  1  0
 17 42  1  0
 17 43  1  0
 18 44  1  0
 18 45  1  0
 24 46  1  0
 25 47  1  0
 28 48  1  0
 29 49  1  0
M  END
$$$$
