
     RDKit          3D

 53 52  0  0  0  0  0  0  0  0999 V2000
   -7.5657    0.7604   -1.7339 C   0  0  0  0  0  0  0  0  0  0  0  0
   -7.1939    1.8859   -0.7677 C   0  0  0  0  0  0  0  0  0  0  0  0
   -8.4633    2.5843   -0.2730 C   0  0  0  0  0  0  0  0  0  0  0  0
   -6.2468    2.9207   -1.4075 C   0  0  0  0  0  0  0  0  0  0  0  0
   -4.9046    2.3601   -1.8754 C   0  0  0  0  0  0  0  0  0  0  0  0
   -4.1352    1.7942   -0.7869 N   0  0  0  0  0  0  0  0  0  0  0  0
   -3.0625    0.9618   -1.0333 C   0  0  0  0  0  0  0  0  0  0  0  0
   -2.7431    0.5803   -2.1532 O   0  0  0  0  0  0  0  0  0  0  0  0
   -2.3087    0.5869    0.2254 C   0  0  0  0  0  0  0  0  0  0  0  0
   -1.2390   -0.4563   -0.0706 C   0  0  0  0  0  0  0  0  0  0  0  0
   -0.3016   -0.8770    1.4402 S   0  0  0  0  0  0  0  0  0  0  0  0
    0.9244    0.4832    1.4479 C   0  0  0  0  0  0  0  0  0  0  0  0
    2.0992    0.2052    0.5171 C   0  0  0  0  0  0  0  0  0  0  0  0
    3.1223   -0.7306    1.1306 C   0  0  0  0  0  0  0  0  0  0  0  0
    3.3273   -0.8058    2.3373 O   0  0  0  0  0  0  0  0  0  0  0  0
    3.8547   -1.4300    0.1942 N   0  0  0  0  0  0  0  0  0  0  0  0
    4.9248   -2.3288    0.5787 C   0  0  0  0  0  0  0  0  0  0  0  0
    6.2430   -1.5768    0.7666 C   0  0  0  0  0  0  0  0  0  0  0  0
    7.3826   -2.4645    1.2966 C   0  0  0  0  0  0  0  0  0  0  0  0
    7.7607   -3.5755    0.3163 C   0  0  0  0  0  0  0  0  0  0  0  0
    8.6119   -1.6046    1.6013 C   0  0  0  0  0  0  0  0  0  0  0  0
   -8.2958    0.0823   -1.2788 H   0  0  0  0  0  0  0  0  0  0  0  0
   -8.0031    1.1575   -2.6560 H   0  0  0  0  0  0  0  0  0  0  0  0
   -6.6909    0.1597   -2.0011 H   0  0  0  0  0  0  0  0  0  0  0  0
   -6.7007    1.4399    0.1049 H   0  0  0  0  0  0  0  0  0  0  0  0
   -8.2186    3.3715    0.4481 H   0  0  0  0  0  0  0  0  0  0  0  0
   -9.1306    1.8725    0.2253 H   0  0  0  0  0  0  0  0  0  0  0  0
   -9.0140    3.0423   -1.1016 H   0  0  0  0  0  0  0  0  0  0  0  0
   -6.7446    3.3904   -2.2653 H   0  0  0  0  0  0  0  0  0  0  0  0
   -6.0564    3.7218   -0.6809 H   0  0  0  0  0  0  0  0  0  0  0  0
   -5.0352    1.6095   -2.6616 H   0  0  0  0  0  0  0  0  0  0  0  0
   -4.3009    3.1684   -2.3041 H   0  0  0  0  0  0  0  0  0  0  0  0
   -4.1911    2.2398    0.1202 H   0  0  0  0  0  0  0  0  0  0  0  0
   -3.0285    0.1979    0.9555 H   0  0  0  0  0  0  0  0  0  0  0  0
   -1.8651    1.5044    0.6283 H   0  0  0  0  0  0  0  0  0  0  0  0
   -1.7111   -1.3771   -0.4312 H   0  0  0  0  0  0  0  0  0  0  0  0
   -0.5526   -0.1222   -0.8549 H   0  0  0  0  0  0  0  0  0  0  0  0
    1.2582    0.6223    2.4811 H   0  0  0  0  0  0  0  0  0  0  0  0
    0.4236    1.4096    1.1505 H   0  0  0  0  0  0  0  0  0  0  0  0
    2.6293    1.1475    0.3296 H   0  0  0  0  0  0  0  0  0  0  0  0
    1.7654   -0.1723   -0.4553 H   0  0  0  0  0  0  0  0  0  0  0  0
    3.6848   -1.2771   -0.7908 H   0  0  0  0  0  0  0  0  0  0  0  0
    4.6422   -2.8426    1.5039 H   0  0  0  0  0  0  0  0  0  0  0  0
    5.0071   -3.0742   -0.2177 H   0  0  0  0  0  0  0  0  0  0  0  0
    6.0842   -0.7474    1.4679 H   0  0  0  0  0  0  0  0  0  0  0  0
    6.5369   -1.1163   -0.1855 H   0  0  0  0  0  0  0  0  0  0  0  0
    7.0577   -2.9298    2.2356 H   0  0  0  0  0  0  0  0  0  0  0  0
    8.0456   -3.1647   -0.6582 H   0  0  0  0  0  0  0  0  0  0  0  0
    8.6070   -4.1570    0.6974 H   0  0  0  0  0  0  0  0  0  0  0  0
    6.9314   -4.2730    0.1632 H   0  0  0  0  0  0  0  0  0  0  0  0
    8.9873   -1.1140    0.6970 H   0  0  0  0  0  0  0  0  0  0  0  0
    8.3712   -0.8278    2.3350 H   0  0  0  0  0  0  0  0  0  0  0  0
    9.4207   -2.2147    2.0168 H   0  0  0  0  0  0  0  0  0  0  0  0
  1  2  1  0
  2  3  1  0
  2  4  1  0
  4  5  1  0
  5  6  1  0
  6  7  1  0
  7  8  2  0
  7  9  1  0
  9 10  1  0
 10 11  1  0
 11 12  1  0
 12 13  1  0
 13 14  1  0
 14 15  2  0
 14 16  1  0
 16 17  1  0
 17 18  1  0
 18 19  1  0
 19 20  1  0
 19 21  1  0
  1 22  1  0
  1 23  1  0
  1 24  1  0
  2 25  1  0
  3 26  1  0
  3 27  1  0
  3 28  1  0
  4 29  1  0
  4 30  1  0
  5 31  1  0
  5 32  1  0
  6 33  1  0
  9 34  1  0
  9 35  1  0
 10 36  1  0
 10 37  1  0
 12 38  1  0
 12 39  1  0
 13 40  1  0
 13 41  1  0
 16 42  1  0
 17 43  1  0
 17 44  1  0
 18 45  1  0
 18 46  1  0
 19 47  1  0
 20 48  1  0
 20 49  1  0
 20 50  1  0
 21 51  1  0
 21 52  1  0
 21 53  1  0
M  END
$$$$
